
     RDKit          3D

 47 50  0  0  0  0  0  0  0  0999 V2000
  141.0490   73.8160  220.2460 O   0  0  0  0  0  0  0  0  0  0  0  0
  140.5850   74.5570  221.1270 C   0  0  0  0  0  0  0  0  0  0  0  0
  139.6210   74.0500  222.0360 N   0  0  0  0  0  0  0  0  0  0  0  0
  139.2150   72.6810  221.8990 C   0  0  0  0  0  0  0  0  0  0  0  0
  140.0550   71.7290  222.6500 C   0  0  0  0  0  0  0  0  0  0  0  0
  141.2730   71.5150  222.4060 O   0  0  0  0  0  0  0  0  0  0  0  0
  139.4840   70.9930  223.7240 N   0  0  0  0  0  0  0  0  0  0  0  0
  138.1120   71.0260  224.2280 C   0  0  0  0  0  0  0  0  0  0  0  0
  137.7910   69.5830  224.6200 C   0  0  0  0  0  0  0  0  0  0  0  0
  139.1140   68.8680  224.6470 C   0  0  0  0  0  0  0  0  0  0  0  0
  140.1430   70.0070  224.5990 C   0  0  2  0  0  0  0  0  0  0  0  0
  140.4050   70.5960  225.9280 C   0  0  0  0  0  0  0  0  0  0  0  0
  139.9350   69.9200  227.0520 C   0  0  0  0  0  0  0  0  0  0  0  0
  140.1570   70.4430  228.3300 C   0  0  0  0  0  0  0  0  0  0  0  0
  140.8210   71.5970  228.5220 N   0  0  0  0  0  0  0  0  0  0  0  0
  141.2770   72.2540  227.4510 C   0  0  0  0  0  0  0  0  0  0  0  0
  141.0770   71.7670  226.1600 C   0  0  0  0  0  0  0  0  0  0  0  0
  141.0070   75.9540  221.2590 C   0  0  0  0  0  0  0  0  0  0  0  0
  141.7460   76.5540  220.2610 C   0  0  0  0  0  0  0  0  0  0  0  0
  142.1480   77.8710  220.3750 C   0  0  0  0  0  0  0  0  0  0  0  0
  141.8120   78.6100  221.5030 C   0  0  0  0  0  0  0  0  0  0  0  0
  142.1950   79.9330  221.6570 C   0  0  0  0  0  0  0  0  0  0  0  0
  141.8230   80.6070  222.8090 C   0  0  0  0  0  0  0  0  0  0  0  0
  142.1800   81.9100  223.0030 F   0  0  0  0  0  0  0  0  0  0  0  0
  141.0870   79.9910  223.7920 C   0  0  0  0  0  0  0  0  0  0  0  0
  140.7070   78.6750  223.6340 C   0  0  0  0  0  0  0  0  0  0  0  0
  141.0730   77.9840  222.4820 C   0  0  0  0  0  0  0  0  0  0  0  0
  140.6950   76.6980  222.3430 N   0  0  0  0  0  0  0  0  0  0  0  0
  139.2200   74.6760  222.7910 H   0  0  0  0  0  0  0  0  0  0  0  0
  138.1801   72.5891  222.2603 H   0  0  0  0  0  0  0  0  0  0  0  0
  139.3158   72.4238  220.8343 H   0  0  0  0  0  0  0  0  0  0  0  0
  138.0389   71.6883  225.1032 H   0  0  0  0  0  0  0  0  0  0  0  0
  137.4083   71.4129  223.4763 H   0  0  0  0  0  0  0  0  0  0  0  0
  137.3168   69.5509  225.6120 H   0  0  0  0  0  0  0  0  0  0  0  0
  137.0897   69.1154  223.9133 H   0  0  0  0  0  0  0  0  0  0  0  0
  139.2231   68.2792  225.5697 H   0  0  0  0  0  0  0  0  0  0  0  0
  139.2297   68.1531  223.8190 H   0  0  0  0  0  0  0  0  0  0  0  0
  141.1272   69.6655  224.2458 H   0  0  0  0  0  0  0  0  0  0  0  0
  139.3881   68.9729  226.9340 H   0  0  0  0  0  0  0  0  0  0  0  0
  139.7772   69.8942  229.2044 H   0  0  0  0  0  0  0  0  0  0  0  0
  141.8218   73.1993  227.5912 H   0  0  0  0  0  0  0  0  0  0  0  0
  141.4690   72.3380  225.3054 H   0  0  0  0  0  0  0  0  0  0  0  0
  142.0184   75.9778  219.3645 H   0  0  0  0  0  0  0  0  0  0  0  0
  142.7360   78.3362  219.5701 H   0  0  0  0  0  0  0  0  0  0  0  0
  142.7841   80.4392  220.8781 H   0  0  0  0  0  0  0  0  0  0  0  0
  140.8027   80.5441  224.6993 H   0  0  0  0  0  0  0  0  0  0  0  0
  140.1170   78.1730  224.4150 H   0  0  0  0  0  0  0  0  0  0  0  0
  1  2  2  0
  2  3  1  0
  3  4  1  0
  4  5  1  0
  5  6  2  0
  5  7  1  0
  7  8  1  0
  8  9  1  0
  9 10  1  0
 10 11  1  0
 11 12  1  0
 12 13  2  0
 13 14  1  0
 14 15  2  0
 15 16  1  0
 16 17  2  0
  2 18  1  0
 18 19  2  0
 19 20  1  0
 20 21  2  0
 21 22  1  0
 22 23  2  0
 23 24  1  0
 23 25  1  0
 25 26  2  0
 26 27  1  0
 27 28  2  0
 11  7  1  0
 17 12  1  0
 28 18  1  0
 27 21  1  0
  3 29  1  0
  4 30  1  0
  4 31  1  0
  8 32  1  0
  8 33  1  0
  9 34  1  0
  9 35  1  0
 10 36  1  0
 10 37  1  0
 11 38  1  6
 13 39  1  0
 14 40  1  0
 16 41  1  0
 17 42  1  0
 19 43  1  0
 20 44  1  0
 22 45  1  0
 25 46  1  0
 26 47  1  0
M  END
>  <smiles>  (1) 
O=C(NCC(=O)N1CCCC1c1ccncc1)c1ccc2cc(F)ccc2n1

>  <score_type>  (1) 
oracle

>  <origin>  (1) 
autodockgpu

>  <m_score__min__energy>  (1) 
-8.6199999999999992

>  <m_primary>  (1) 
energy

>  <rmsd>  (1) 
8.650905693698414

>  <m_score__min__rmsd>  (1) 
8.650905693698414

>  <meeko>  (1) 
{"free_energy": -8.37, "intermolecular_energy": -9.86, "internal_energy": -1.38, "cluster_size": 18, "cluster_id": 3, "rank_in_cluster": 10}

>  <energy>  (1) 
-8.62

>  <cluster_rmsd>  (1) 
0.0

>  <cluster>  (1) 
1

$$$$

     RDKit          3D

 47 50  0  0  0  0  0  0  0  0999 V2000
  139.7410   74.6710  222.0580 O   0  0  0  0  0  0  0  0  0  0  0  0
  139.8870   75.7110  221.3970 C   0  0  0  0  0  0  0  0  0  0  0  0
  139.8180   75.6600  219.9810 N   0  0  0  0  0  0  0  0  0  0  0  0
  139.5790   74.3890  219.3600 C   0  0  0  0  0  0  0  0  0  0  0  0
  140.7790   73.7860  218.7480 C   0  0  0  0  0  0  0  0  0  0  0  0
  140.8020   72.6430  218.2150 O   0  0  0  0  0  0  0  0  0  0  0  0
  141.9990   74.5150  218.7410 N   0  0  0  0  0  0  0  0  0  0  0  0
  142.7500   75.0320  217.5980 C   0  0  0  0  0  0  0  0  0  0  0  0
  143.3130   76.3760  218.0610 C   0  0  0  0  0  0  0  0  0  0  0  0
  143.1490   76.3900  219.5560 C   0  0  0  0  0  0  0  0  0  0  0  0
  142.8120   74.9320  219.8970 C   0  0  2  0  0  0  0  0  0  0  0  0
  144.0130   74.0800  220.0120 C   0  0  0  0  0  0  0  0  0  0  0  0
  143.9210   72.7520  219.6000 C   0  0  0  0  0  0  0  0  0  0  0  0
  145.0320   71.9080  219.6950 C   0  0  0  0  0  0  0  0  0  0  0  0
  146.2130   72.3360  220.1770 N   0  0  0  0  0  0  0  0  0  0  0  0
  146.3130   73.6080  220.5760 C   0  0  0  0  0  0  0  0  0  0  0  0
  145.2290   74.4810  220.4980 C   0  0  0  0  0  0  0  0  0  0  0  0
  140.1300   77.0050  222.0400 C   0  0  0  0  0  0  0  0  0  0  0  0
  139.0950   77.6840  222.6490 C   0  0  0  0  0  0  0  0  0  0  0  0
  139.3140   78.9040  223.2600 C   0  0  0  0  0  0  0  0  0  0  0  0
  140.5850   79.4650  223.2670 C   0  0  0  0  0  0  0  0  0  0  0  0
  140.8470   80.6850  223.8680 C   0  0  0  0  0  0  0  0  0  0  0  0
  142.1410   81.1830  223.8360 C   0  0  0  0  0  0  0  0  0  0  0  0
  142.4440   82.3820  224.4130 F   0  0  0  0  0  0  0  0  0  0  0  0
  143.1580   80.4910  223.2230 C   0  0  0  0  0  0  0  0  0  0  0  0
  142.8920   79.2770  222.6270 C   0  0  0  0  0  0  0  0  0  0  0  0
  141.5980   78.7630  222.6510 C   0  0  0  0  0  0  0  0  0  0  0  0
  141.3550   77.5750  222.0640 N   0  0  0  0  0  0  0  0  0  0  0  0
  139.9410   76.5440  219.4090 H   0  0  0  0  0  0  0  0  0  0  0  0
  139.1954   73.6971  220.1242 H   0  0  0  0  0  0  0  0  0  0  0  0
  138.8591   74.5621  218.5465 H   0  0  0  0  0  0  0  0  0  0  0  0
  143.5655   74.3443  217.3297 H   0  0  0  0  0  0  0  0  0  0  0  0
  142.1168   75.1380  216.7048 H   0  0  0  0  0  0  0  0  0  0  0  0
  144.3759   76.4607  217.7905 H   0  0  0  0  0  0  0  0  0  0  0  0
  142.7920   77.2206  217.5865 H   0  0  0  0  0  0  0  0  0  0  0  0
  144.0804   76.7035  220.0501 H   0  0  0  0  0  0  0  0  0  0  0  0
  142.3771   77.0970  219.8942 H   0  0  0  0  0  0  0  0  0  0  0  0
  142.3081   74.8376  220.8702 H   0  0  0  0  0  0  0  0  0  0  0  0
  142.9720   72.3665  219.1990 H   0  0  0  0  0  0  0  0  0  0  0  0
  144.9375   70.8627  219.3657 H   0  0  0  0  0  0  0  0  0  0  0  0
  147.2710   73.9735  220.9743 H   0  0  0  0  0  0  0  0  0  0  0  0
  145.3537   75.5203  220.8360 H   0  0  0  0  0  0  0  0  0  0  0  0
  138.0844   77.2496  222.6482 H   0  0  0  0  0  0  0  0  0  0  0  0
  138.4789   79.4329  223.7426 H   0  0  0  0  0  0  0  0  0  0  0  0
  140.0425   81.2493  224.3623 H   0  0  0  0  0  0  0  0  0  0  0  0
  144.1777   80.9033  223.2081 H   0  0  0  0  0  0  0  0  0  0  0  0
  143.6994   78.7159  222.1339 H   0  0  0  0  0  0  0  0  0  0  0  0
  1  2  2  0
  2  3  1  0
  3  4  1  0
  4  5  1  0
  5  6  2  0
  5  7  1  0
  7  8  1  0
  8  9  1  0
  9 10  1  0
 10 11  1  0
 11 12  1  0
 12 13  2  0
 13 14  1  0
 14 15  2  0
 15 16  1  0
 16 17  2  0
  2 18  1  0
 18 19  2  0
 19 20  1  0
 20 21  2  0
 21 22  1  0
 22 23  2  0
 23 24  1  0
 23 25  1  0
 25 26  2  0
 26 27  1  0
 27 28  2  0
 11  7  1  0
 17 12  1  0
 28 18  1  0
 27 21  1  0
  3 29  1  0
  4 30  1  0
  4 31  1  0
  8 32  1  0
  8 33  1  0
  9 34  1  0
  9 35  1  0
 10 36  1  0
 10 37  1  0
 11 38  1  1
 13 39  1  0
 14 40  1  0
 16 41  1  0
 17 42  1  0
 19 43  1  0
 20 44  1  0
 22 45  1  0
 25 46  1  0
 26 47  1  0
M  END
>  <smiles>  (2) 
O=C(NCC(=O)N1CCCC1c1ccncc1)c1ccc2cc(F)ccc2n1

>  <score_type>  (2) 
oracle

>  <origin>  (2) 
autodockgpu

>  <m_score__min__energy>  (2) 
-8.6199999999999992

>  <m_primary>  (2) 
energy

>  <rmsd>  (2) 
7.531687589048108

>  <m_score__min__rmsd>  (2) 
7.531687589048108

>  <meeko>  (2) 
{"free_energy": -7.05, "intermolecular_energy": -8.54, "internal_energy": -1.77, "cluster_size": 1, "cluster_id": 4, "rank_in_cluster": 1}

>  <energy>  (2) 
-8.62

>  <cluster_rmsd>  (2) 
0.06

>  <cluster>  (2) 
1

$$$$

     RDKit          3D

 47 50  0  0  0  0  0  0  0  0999 V2000
  141.2850   72.6680  221.9020 O   0  0  0  0  0  0  0  0  0  0  0  0
  140.2650   72.5780  222.6030 C   0  0  0  0  0  0  0  0  0  0  0  0
  139.1600   73.4300  222.3480 N   0  0  0  0  0  0  0  0  0  0  0  0
  139.2660   74.3750  221.2750 C   0  0  0  0  0  0  0  0  0  0  0  0
  139.4250   75.7730  221.7210 C   0  0  0  0  0  0  0  0  0  0  0  0
  138.6840   76.3310  222.5760 O   0  0  0  0  0  0  0  0  0  0  0  0
  140.4710   76.5650  221.1730 N   0  0  0  0  0  0  0  0  0  0  0  0
  141.8210   76.1570  220.7890 C   0  0  0  0  0  0  0  0  0  0  0  0
  142.1430   76.9640  219.5300 C   0  0  0  0  0  0  0  0  0  0  0  0
  141.0990   78.0460  219.4660 C   0  0  0  0  0  0  0  0  0  0  0  0
  140.4470   78.0030  220.8550 C   0  0  2  0  0  0  0  0  0  0  0  0
  141.2090   78.7640  221.8670 C   0  0  0  0  0  0  0  0  0  0  0  0
  141.1240   78.3590  223.1970 C   0  0  0  0  0  0  0  0  0  0  0  0
  141.8240   79.0520  224.1890 C   0  0  0  0  0  0  0  0  0  0  0  0
  142.5950   80.1180  223.9050 N   0  0  0  0  0  0  0  0  0  0  0  0
  142.6830   80.5160  222.6310 C   0  0  0  0  0  0  0  0  0  0  0  0
  142.0010   79.8520  221.6130 C   0  0  0  0  0  0  0  0  0  0  0  0
  140.1650   71.6080  223.6970 C   0  0  0  0  0  0  0  0  0  0  0  0
  139.5640   70.3830  223.4880 C   0  0  0  0  0  0  0  0  0  0  0  0
  139.4660   69.4620  224.5120 C   0  0  0  0  0  0  0  0  0  0  0  0
  139.9740   69.7580  225.7710 C   0  0  0  0  0  0  0  0  0  0  0  0
  139.8960   68.8630  226.8250 C   0  0  0  0  0  0  0  0  0  0  0  0
  140.4240   69.2270  228.0540 C   0  0  0  0  0  0  0  0  0  0  0  0
  140.3680   68.3770  229.1200 F   0  0  0  0  0  0  0  0  0  0  0  0
  141.0180   70.4520  228.2410 C   0  0  0  0  0  0  0  0  0  0  0  0
  141.0930   71.3400  227.1900 C   0  0  0  0  0  0  0  0  0  0  0  0
  140.5680   70.9880  225.9490 C   0  0  0  0  0  0  0  0  0  0  0  0
  140.6490   71.8680  224.9310 N   0  0  0  0  0  0  0  0  0  0  0  0
  138.2840   73.3590  222.9420 H   0  0  0  0  0  0  0  0  0  0  0  0
  140.1387   74.1060  220.6618 H   0  0  0  0  0  0  0  0  0  0  0  0
  138.3221   74.3254  220.7123 H   0  0  0  0  0  0  0  0  0  0  0  0
  142.5371   76.3911  221.5905 H   0  0  0  0  0  0  0  0  0  0  0  0
  141.8870   75.0737  220.6101 H   0  0  0  0  0  0  0  0  0  0  0  0
  143.1485   77.4042  219.6026 H   0  0  0  0  0  0  0  0  0  0  0  0
  142.1325   76.3339  218.6284 H   0  0  0  0  0  0  0  0  0  0  0  0
  141.5610   79.0267  219.2795 H   0  0  0  0  0  0  0  0  0  0  0  0
  140.3766   77.8944  218.6504 H   0  0  0  0  0  0  0  0  0  0  0  0
  139.4450   78.4568  220.8594 H   0  0  0  0  0  0  0  0  0  0  0  0
  140.5043   77.4914  223.4676 H   0  0  0  0  0  0  0  0  0  0  0  0
  141.7422   78.7159  225.2332 H   0  0  0  0  0  0  0  0  0  0  0  0
  143.3074   81.3865  222.3813 H   0  0  0  0  0  0  0  0  0  0  0  0
  142.1015   80.2113  220.5782 H   0  0  0  0  0  0  0  0  0  0  0  0
  139.1588   70.1380  222.4951 H   0  0  0  0  0  0  0  0  0  0  0  0
  138.9839   68.4901  224.3304 H   0  0  0  0  0  0  0  0  0  0  0  0
  139.4228   67.8793  226.6892 H   0  0  0  0  0  0  0  0  0  0  0  0
  141.4312   70.7221  229.2240 H   0  0  0  0  0  0  0  0  0  0  0  0
  141.5658   72.3232  227.3307 H   0  0  0  0  0  0  0  0  0  0  0  0
  1  2  2  0
  2  3  1  0
  3  4  1  0
  4  5  1  0
  5  6  2  0
  5  7  1  0
  7  8  1  0
  8  9  1  0
  9 10  1  0
 10 11  1  0
 11 12  1  0
 12 13  2  0
 13 14  1  0
 14 15  2  0
 15 16  1  0
 16 17  2  0
  2 18  1  0
 18 19  2  0
 19 20  1  0
 20 21  2  0
 21 22  1  0
 22 23  2  0
 23 24  1  0
 23 25  1  0
 25 26  2  0
 26 27  1  0
 27 28  2  0
 11  7  1  0
 17 12  1  0
 28 18  1  0
 27 21  1  0
  3 29  1  0
  4 30  1  0
  4 31  1  0
  8 32  1  0
  8 33  1  0
  9 34  1  0
  9 35  1  0
 10 36  1  0
 10 37  1  0
 11 38  1  6
 13 39  1  0
 14 40  1  0
 16 41  1  0
 17 42  1  0
 19 43  1  0
 20 44  1  0
 22 45  1  0
 25 46  1  0
 26 47  1  0
M  END
>  <smiles>  (3) 
O=C(NCC(=O)N1CCCC1c1ccncc1)c1ccc2cc(F)ccc2n1

>  <score_type>  (3) 
oracle

>  <origin>  (3) 
autodockgpu

>  <m_score__min__energy>  (3) 
-8.6199999999999992

>  <m_primary>  (3) 
energy

>  <rmsd>  (3) 
2.0534539059238632

>  <m_score__min__rmsd>  (3) 
2.0534539059238632

>  <meeko>  (3) 
{"free_energy": -8.62, "intermolecular_energy": -10.12, "internal_energy": -1.23, "cluster_size": 22, "cluster_id": 1, "rank_in_cluster": 1}

>  <energy>  (3) 
-8.61

>  <cluster_rmsd>  (3) 
0.05

>  <cluster>  (3) 
1

$$$$

     RDKit          3D

 47 50  0  0  0  0  0  0  0  0999 V2000
  140.8660   73.9030  220.3310 O   0  0  0  0  0  0  0  0  0  0  0  0
  140.4330   74.6630  221.2120 C   0  0  0  0  0  0  0  0  0  0  0  0
  139.4580   74.1930  222.1290 N   0  0  0  0  0  0  0  0  0  0  0  0
  139.0060   72.8380  222.0010 C   0  0  0  0  0  0  0  0  0  0  0  0
  139.9020   71.8450  222.6240 C   0  0  0  0  0  0  0  0  0  0  0  0
  141.1010   71.6600  222.2790 O   0  0  0  0  0  0  0  0  0  0  0  0
  139.4140   71.0330  223.6840 N   0  0  0  0  0  0  0  0  0  0  0  0
  138.0560   70.9490  224.2200 C   0  0  0  0  0  0  0  0  0  0  0  0
  137.8500   69.4730  224.5660 C   0  0  0  0  0  0  0  0  0  0  0  0
  139.2220   68.8560  224.5380 C   0  0  0  0  0  0  0  0  0  0  0  0
  140.1640   70.0690  224.5070 C   0  0  2  0  0  0  0  0  0  0  0  0
  140.4170   70.6290  225.8500 C   0  0  0  0  0  0  0  0  0  0  0  0
  139.9680   69.9130  226.9570 C   0  0  0  0  0  0  0  0  0  0  0  0
  140.1820   70.4080  228.2480 C   0  0  0  0  0  0  0  0  0  0  0  0
  140.8180   71.5730  228.4690 N   0  0  0  0  0  0  0  0  0  0  0  0
  141.2530   72.2690  227.4130 C   0  0  0  0  0  0  0  0  0  0  0  0
  141.0600   71.8100  226.1110 C   0  0  0  0  0  0  0  0  0  0  0  0
  140.9020   76.0460  221.3350 C   0  0  0  0  0  0  0  0  0  0  0  0
  141.7350   76.5850  220.3760 C   0  0  0  0  0  0  0  0  0  0  0  0
  142.1820   77.8880  220.4830 C   0  0  0  0  0  0  0  0  0  0  0  0
  141.7980   78.6740  221.5610 C   0  0  0  0  0  0  0  0  0  0  0  0
  142.2250   79.9840  221.7060 C   0  0  0  0  0  0  0  0  0  0  0  0
  141.8010   80.7090  222.8100 C   0  0  0  0  0  0  0  0  0  0  0  0
  142.1970   82.0020  222.9920 F   0  0  0  0  0  0  0  0  0  0  0  0
  140.9720   80.1530  223.7530 C   0  0  0  0  0  0  0  0  0  0  0  0
  140.5500   78.8490  223.6060 C   0  0  0  0  0  0  0  0  0  0  0  0
  140.9670   78.1080  222.5030 C   0  0  0  0  0  0  0  0  0  0  0  0
  140.5460   76.8340  222.3730 N   0  0  0  0  0  0  0  0  0  0  0  0
  139.0840   74.8350  222.8840 H   0  0  0  0  0  0  0  0  0  0  0  0
  138.0169   72.7571  222.4754 H   0  0  0  0  0  0  0  0  0  0  0  0
  138.9795   72.6117  220.9249 H   0  0  0  0  0  0  0  0  0  0  0  0
  137.9577   71.5733  225.1203 H   0  0  0  0  0  0  0  0  0  0  0  0
  137.3073   71.3100  223.4995 H   0  0  0  0  0  0  0  0  0  0  0  0
  137.4037   69.3717  225.5663 H   0  0  0  0  0  0  0  0  0  0  0  0
  137.1674   68.9802  223.8580 H   0  0  0  0  0  0  0  0  0  0  0  0
  139.3966   68.2462  225.4367 H   0  0  0  0  0  0  0  0  0  0  0  0
  139.3686   68.1795  223.6831 H   0  0  0  0  0  0  0  0  0  0  0  0
  141.1608   69.8132  224.1185 H   0  0  0  0  0  0  0  0  0  0  0  0
  139.4439   68.9562  226.8160 H   0  0  0  0  0  0  0  0  0  0  0  0
  139.8192   69.8270  229.1087 H   0  0  0  0  0  0  0  0  0  0  0  0
  141.7742   73.2240  227.5754 H   0  0  0  0  0  0  0  0  0  0  0  0
  141.4342   72.4126  225.2703 H   0  0  0  0  0  0  0  0  0  0  0  0
  142.0463   75.9712  219.5179 H   0  0  0  0  0  0  0  0  0  0  0  0
  142.8452   78.3045  219.7105 H   0  0  0  0  0  0  0  0  0  0  0  0
  142.8892   80.4416  220.9581 H   0  0  0  0  0  0  0  0  0  0  0  0
  140.6464   80.7450  224.6211 H   0  0  0  0  0  0  0  0  0  0  0  0
  139.8865   78.3954  224.3570 H   0  0  0  0  0  0  0  0  0  0  0  0
  1  2  2  0
  2  3  1  0
  3  4  1  0
  4  5  1  0
  5  6  2  0
  5  7  1  0
  7  8  1  0
  8  9  1  0
  9 10  1  0
 10 11  1  0
 11 12  1  0
 12 13  2  0
 13 14  1  0
 14 15  2  0
 15 16  1  0
 16 17  2  0
  2 18  1  0
 18 19  2  0
 19 20  1  0
 20 21  2  0
 21 22  1  0
 22 23  2  0
 23 24  1  0
 23 25  1  0
 25 26  2  0
 26 27  1  0
 27 28  2  0
 11  7  1  0
 17 12  1  0
 28 18  1  0
 27 21  1  0
  3 29  1  0
  4 30  1  0
  4 31  1  0
  8 32  1  0
  8 33  1  0
  9 34  1  0
  9 35  1  0
 10 36  1  0
 10 37  1  0
 11 38  1  6
 13 39  1  0
 14 40  1  0
 16 41  1  0
 17 42  1  0
 19 43  1  0
 20 44  1  0
 22 45  1  0
 25 46  1  0
 26 47  1  0
M  END
>  <smiles>  (4) 
O=C(NCC(=O)N1CCCC1c1ccncc1)c1ccc2cc(F)ccc2n1

>  <score_type>  (4) 
oracle

>  <origin>  (4) 
autodockgpu

>  <m_score__min__energy>  (4) 
-8.6199999999999992

>  <m_primary>  (4) 
energy

>  <rmsd>  (4) 
8.666192150470648

>  <m_score__min__rmsd>  (4) 
8.666192150470648

>  <meeko>  (4) 
{"free_energy": -8.38, "intermolecular_energy": -9.87, "internal_energy": -1.38, "cluster_size": 18, "cluster_id": 3, "rank_in_cluster": 9}

>  <energy>  (4) 
-8.6

>  <cluster_rmsd>  (4) 
0.11

>  <cluster>  (4) 
1

$$$$

     RDKit          3D

 47 50  0  0  0  0  0  0  0  0999 V2000
  141.7340   73.4860  220.6080 O   0  0  0  0  0  0  0  0  0  0  0  0
  141.0930   74.2550  221.3420 C   0  0  0  0  0  0  0  0  0  0  0  0
  140.1150   73.7310  222.2270 N   0  0  0  0  0  0  0  0  0  0  0  0
  139.9030   72.3130  222.2390 C   0  0  0  0  0  0  0  0  0  0  0  0
  138.6140   71.9040  222.8310 C   0  0  0  0  0  0  0  0  0  0  0  0
  137.5010   72.4080  222.5180 O   0  0  0  0  0  0  0  0  0  0  0  0
  138.5940   70.8790  223.8160 N   0  0  0  0  0  0  0  0  0  0  0  0
  137.4620   70.3860  224.5990 C   0  0  0  0  0  0  0  0  0  0  0  0
  137.6860   68.8790  224.7260 C   0  0  0  0  0  0  0  0  0  0  0  0
  139.1130   68.6450  224.3100 C   0  0  0  0  0  0  0  0  0  0  0  0
  139.7190   70.0560  224.2900 C   0  0  2  0  0  0  0  0  0  0  0  0
  140.1570   70.5080  225.6270 C   0  0  0  0  0  0  0  0  0  0  0  0
  140.8200   71.7290  225.7240 C   0  0  0  0  0  0  0  0  0  0  0  0
  141.2560   72.1950  226.9690 C   0  0  0  0  0  0  0  0  0  0  0  0
  141.0560   71.4960  228.1010 N   0  0  0  0  0  0  0  0  0  0  0  0
  140.4210   70.3220  228.0190 C   0  0  0  0  0  0  0  0  0  0  0  0
  139.9710   69.8230  226.7980 C   0  0  0  0  0  0  0  0  0  0  0  0
  141.3170   75.7030  221.3230 C   0  0  0  0  0  0  0  0  0  0  0  0
  141.9190   76.2990  220.2330 C   0  0  0  0  0  0  0  0  0  0  0  0
  142.1340   77.6630  220.2050 C   0  0  0  0  0  0  0  0  0  0  0  0
  141.7470   78.4550  221.2780 C   0  0  0  0  0  0  0  0  0  0  0  0
  141.9440   79.8260  221.2900 C   0  0  0  0  0  0  0  0  0  0  0  0
  141.5320   80.5530  222.3960 C   0  0  0  0  0  0  0  0  0  0  0  0
  141.7080   81.9050  222.4500 F   0  0  0  0  0  0  0  0  0  0  0  0
  140.9350   79.9410  223.4710 C   0  0  0  0  0  0  0  0  0  0  0  0
  140.7400   78.5760  223.4550 C   0  0  0  0  0  0  0  0  0  0  0  0
  141.1480   77.8320  222.3510 C   0  0  0  0  0  0  0  0  0  0  0  0
  140.9510   76.4990  222.3510 N   0  0  0  0  0  0  0  0  0  0  0  0
  139.5640   74.3810  222.8570 H   0  0  0  0  0  0  0  0  0  0  0  0
  139.9382   71.9491  221.2015 H   0  0  0  0  0  0  0  0  0  0  0  0
  140.6942   71.8780  222.8673 H   0  0  0  0  0  0  0  0  0  0  0  0
  137.4456   70.8583  225.5923 H   0  0  0  0  0  0  0  0  0  0  0  0
  136.4994   70.6189  224.1203 H   0  0  0  0  0  0  0  0  0  0  0  0
  137.5310   68.5541  225.7654 H   0  0  0  0  0  0  0  0  0  0  0  0
  136.9817   68.3090  224.1022 H   0  0  0  0  0  0  0  0  0  0  0  0
  139.6339   68.0041  225.0365 H   0  0  0  0  0  0  0  0  0  0  0  0
  139.1971   68.1298  223.3417 H   0  0  0  0  0  0  0  0  0  0  0  0
  140.6228   70.1125  223.6655 H   0  0  0  0  0  0  0  0  0  0  0  0
  141.0013   72.3283  224.8196 H   0  0  0  0  0  0  0  0  0  0  0  0
  141.7779   73.1618  227.0240 H   0  0  0  0  0  0  0  0  0  0  0  0
  140.2502   69.7375  228.9351 H   0  0  0  0  0  0  0  0  0  0  0  0
  139.4526   68.8531  226.7743 H   0  0  0  0  0  0  0  0  0  0  0  0
  142.2307   75.6812  219.3779 H   0  0  0  0  0  0  0  0  0  0  0  0
  142.6138   78.1239  219.3290 H   0  0  0  0  0  0  0  0  0  0  0  0
  142.4197   80.3297  220.4356 H   0  0  0  0  0  0  0  0  0  0  0  0
  140.6145   80.5359  224.3390 H   0  0  0  0  0  0  0  0  0  0  0  0
  140.2637   78.0765  224.3116 H   0  0  0  0  0  0  0  0  0  0  0  0
  1  2  2  0
  2  3  1  0
  3  4  1  0
  4  5  1  0
  5  6  2  0
  5  7  1  0
  7  8  1  0
  8  9  1  0
  9 10  1  0
 10 11  1  0
 11 12  1  0
 12 13  2  0
 13 14  1  0
 14 15  2  0
 15 16  1  0
 16 17  2  0
  2 18  1  0
 18 19  2  0
 19 20  1  0
 20 21  2  0
 21 22  1  0
 22 23  2  0
 23 24  1  0
 23 25  1  0
 25 26  2  0
 26 27  1  0
 27 28  2  0
 11  7  1  0
 17 12  1  0
 28 18  1  0
 27 21  1  0
  3 29  1  0
  4 30  1  0
  4 31  1  0
  8 32  1  0
  8 33  1  0
  9 34  1  0
  9 35  1  0
 10 36  1  0
 10 37  1  0
 11 38  1  6
 13 39  1  0
 14 40  1  0
 16 41  1  0
 17 42  1  0
 19 43  1  0
 20 44  1  0
 22 45  1  0
 25 46  1  0
 26 47  1  0
M  END
>  <smiles>  (5) 
O=C(NCC(=O)N1CCCC1c1ccncc1)c1ccc2cc(F)ccc2n1

>  <score_type>  (5) 
oracle

>  <origin>  (5) 
autodockgpu

>  <m_score__min__energy>  (5) 
-8.6199999999999992

>  <m_primary>  (5) 
energy

>  <rmsd>  (5) 
8.749839216539442

>  <m_score__min__rmsd>  (5) 
8.749839216539442

>  <meeko>  (5) 
{"free_energy": -7.77, "intermolecular_energy": -9.26, "internal_energy": -1.39, "cluster_size": 18, "cluster_id": 3, "rank_in_cluster": 17}

>  <energy>  (5) 
-8.6

>  <cluster_rmsd>  (5) 
0.1

>  <cluster>  (5) 
1

$$$$

     RDKit          3D

 47 50  0  0  0  0  0  0  0  0999 V2000
  140.9050   73.8650  220.2850 O   0  0  0  0  0  0  0  0  0  0  0  0
  140.4910   74.6080  221.1900 C   0  0  0  0  0  0  0  0  0  0  0  0
  139.5570   74.1120  222.1350 N   0  0  0  0  0  0  0  0  0  0  0  0
  139.1220   72.7510  222.0070 C   0  0  0  0  0  0  0  0  0  0  0  0
  139.9920   71.7770  222.6950 C   0  0  0  0  0  0  0  0  0  0  0  0
  141.2100   71.6000  222.4210 O   0  0  0  0  0  0  0  0  0  0  0  0
  139.4520   70.9750  223.7370 N   0  0  0  0  0  0  0  0  0  0  0  0
  138.0760   70.9170  224.2270 C   0  0  0  0  0  0  0  0  0  0  0  0
  137.8300   69.4460  224.5650 C   0  0  0  0  0  0  0  0  0  0  0  0
  139.1900   68.8020  224.5830 C   0  0  0  0  0  0  0  0  0  0  0  0
  140.1550   69.9960  224.5840 C   0  0  2  0  0  0  0  0  0  0  0  0
  140.3740   70.5520  225.9350 C   0  0  0  0  0  0  0  0  0  0  0  0
  141.0920   71.7390  226.0500 C   0  0  0  0  0  0  0  0  0  0  0  0
  141.3270   72.3000  227.3100 C   0  0  0  0  0  0  0  0  0  0  0  0
  140.8760   71.7260  228.4400 N   0  0  0  0  0  0  0  0  0  0  0  0
  140.1860   70.5850  228.3420 C   0  0  0  0  0  0  0  0  0  0  0  0
  139.9300   69.9950  227.1050 C   0  0  0  0  0  0  0  0  0  0  0  0
  140.9420   75.9970  221.3120 C   0  0  0  0  0  0  0  0  0  0  0  0
  141.7610   76.5500  220.3480 C   0  0  0  0  0  0  0  0  0  0  0  0
  142.1910   77.8580  220.4540 C   0  0  0  0  0  0  0  0  0  0  0  0
  141.8030   78.6370  221.5370 C   0  0  0  0  0  0  0  0  0  0  0  0
  142.2120   79.9530  221.6810 C   0  0  0  0  0  0  0  0  0  0  0  0
  141.7850   80.6700  222.7890 C   0  0  0  0  0  0  0  0  0  0  0  0
  142.1650   81.9670  222.9710 F   0  0  0  0  0  0  0  0  0  0  0  0
  140.9710   80.1000  223.7370 C   0  0  0  0  0  0  0  0  0  0  0  0
  140.5660   78.7910  223.5900 C   0  0  0  0  0  0  0  0  0  0  0  0
  140.9860   78.0580  222.4830 C   0  0  0  0  0  0  0  0  0  0  0  0
  140.5820   76.7790  222.3530 N   0  0  0  0  0  0  0  0  0  0  0  0
  139.1990   74.7400  222.9100 H   0  0  0  0  0  0  0  0  0  0  0  0
  138.1097   72.6699  222.4296 H   0  0  0  0  0  0  0  0  0  0  0  0
  139.1536   72.5055  220.9352 H   0  0  0  0  0  0  0  0  0  0  0  0
  137.9596   71.5431  225.1239 H   0  0  0  0  0  0  0  0  0  0  0  0
  137.3590   71.2922  223.4819 H   0  0  0  0  0  0  0  0  0  0  0  0
  137.3483   69.3536  225.5496 H   0  0  0  0  0  0  0  0  0  0  0  0
  137.1623   68.9666  223.8341 H   0  0  0  0  0  0  0  0  0  0  0  0
  139.3224   68.1893  225.4869 H   0  0  0  0  0  0  0  0  0  0  0  0
  139.3522   68.1221  223.7336 H   0  0  0  0  0  0  0  0  0  0  0  0
  141.1588   69.7201  224.2287 H   0  0  0  0  0  0  0  0  0  0  0  0
  141.4757   72.2374  225.1476 H   0  0  0  0  0  0  0  0  0  0  0  0
  141.8973   73.2381  227.3787 H   0  0  0  0  0  0  0  0  0  0  0  0
  139.8124   70.1015  229.2567 H   0  0  0  0  0  0  0  0  0  0  0  0
  139.3562   69.0573  227.0676 H   0  0  0  0  0  0  0  0  0  0  0  0
  142.0744   75.9423  219.4863 H   0  0  0  0  0  0  0  0  0  0  0  0
  142.8433   78.2848  219.6779 H   0  0  0  0  0  0  0  0  0  0  0  0
  142.8644   80.4213  220.9293 H   0  0  0  0  0  0  0  0  0  0  0  0
  140.6440   80.6853  224.6091 H   0  0  0  0  0  0  0  0  0  0  0  0
  139.9135   78.3269  224.3442 H   0  0  0  0  0  0  0  0  0  0  0  0
  1  2  2  0
  2  3  1  0
  3  4  1  0
  4  5  1  0
  5  6  2  0
  5  7  1  0
  7  8  1  0
  8  9  1  0
  9 10  1  0
 10 11  1  0
 11 12  1  0
 12 13  2  0
 13 14  1  0
 14 15  2  0
 15 16  1  0
 16 17  2  0
  2 18  1  0
 18 19  2  0
 19 20  1  0
 20 21  2  0
 21 22  1  0
 22 23  2  0
 23 24  1  0
 23 25  1  0
 25 26  2  0
 26 27  1  0
 27 28  2  0
 11  7  1  0
 17 12  1  0
 28 18  1  0
 27 21  1  0
  3 29  1  0
  4 30  1  0
  4 31  1  0
  8 32  1  0
  8 33  1  0
  9 34  1  0
  9 35  1  0
 10 36  1  0
 10 37  1  0
 11 38  1  6
 13 39  1  0
 14 40  1  0
 16 41  1  0
 17 42  1  0
 19 43  1  0
 20 44  1  0
 22 45  1  0
 25 46  1  0
 26 47  1  0
M  END
>  <smiles>  (6) 
O=C(NCC(=O)N1CCCC1c1ccncc1)c1ccc2cc(F)ccc2n1

>  <score_type>  (6) 
oracle

>  <origin>  (6) 
autodockgpu

>  <m_score__min__energy>  (6) 
-8.6199999999999992

>  <m_primary>  (6) 
energy

>  <rmsd>  (6) 
8.675660299678846

>  <m_score__min__rmsd>  (6) 
8.675660299678846

>  <meeko>  (6) 
{"free_energy": -8.4, "intermolecular_energy": -9.89, "internal_energy": -1.41, "cluster_size": 18, "cluster_id": 3, "rank_in_cluster": 4}

>  <energy>  (6) 
-8.56

>  <cluster_rmsd>  (6) 
0.15

>  <cluster>  (6) 
1

$$$$

     RDKit          3D

 47 50  0  0  0  0  0  0  0  0999 V2000
  141.4950   72.7020  221.9490 O   0  0  0  0  0  0  0  0  0  0  0  0
  140.4260   72.6370  222.5770 C   0  0  0  0  0  0  0  0  0  0  0  0
  139.3630   73.5170  222.2480 N   0  0  0  0  0  0  0  0  0  0  0  0
  139.5680   74.4600  221.1870 C   0  0  0  0  0  0  0  0  0  0  0  0
  140.2450   73.8940  220.0040 C   0  0  0  0  0  0  0  0  0  0  0  0
  139.8380   72.8810  219.3730 O   0  0  0  0  0  0  0  0  0  0  0  0
  141.4320   74.5100  219.5200 N   0  0  0  0  0  0  0  0  0  0  0  0
  141.7750   74.8800  218.1470 C   0  0  0  0  0  0  0  0  0  0  0  0
  142.5450   76.1960  218.2660 C   0  0  0  0  0  0  0  0  0  0  0  0
  142.9030   76.3260  219.7210 C   0  0  0  0  0  0  0  0  0  0  0  0
  142.6150   74.9290  220.2910 C   0  0  2  0  0  0  0  0  0  0  0  0
  143.7290   73.9830  220.0750 C   0  0  0  0  0  0  0  0  0  0  0  0
  145.0080   74.3740  220.4620 C   0  0  0  0  0  0  0  0  0  0  0  0
  146.0940   73.5120  220.2730 C   0  0  0  0  0  0  0  0  0  0  0  0
  145.9490   72.2940  219.7210 N   0  0  0  0  0  0  0  0  0  0  0  0
  144.7250   71.9090  219.3450 C   0  0  0  0  0  0  0  0  0  0  0  0
  143.6180   72.7380  219.5160 C   0  0  0  0  0  0  0  0  0  0  0  0
  140.2250   71.6690  223.6580 C   0  0  0  0  0  0  0  0  0  0  0  0
  139.5560   70.4860  223.4180 C   0  0  0  0  0  0  0  0  0  0  0  0
  139.3630   69.5670  224.4300 C   0  0  0  0  0  0  0  0  0  0  0  0
  139.8420   69.8230  225.7100 C   0  0  0  0  0  0  0  0  0  0  0  0
  139.6690   68.9280  226.7530 C   0  0  0  0  0  0  0  0  0  0  0  0
  140.1740   69.2510  228.0030 C   0  0  0  0  0  0  0  0  0  0  0  0
  140.0250   68.4000  229.0590 F   0  0  0  0  0  0  0  0  0  0  0  0
  140.8370   70.4340  228.2210 C   0  0  0  0  0  0  0  0  0  0  0  0
  141.0060   71.3220  227.1800 C   0  0  0  0  0  0  0  0  0  0  0  0
  140.5060   71.0120  225.9190 C   0  0  0  0  0  0  0  0  0  0  0  0
  140.6790   71.8900  224.9110 N   0  0  0  0  0  0  0  0  0  0  0  0
  138.4470   73.4680  222.7790 H   0  0  0  0  0  0  0  0  0  0  0  0
  138.5870   74.8458  220.8727 H   0  0  0  0  0  0  0  0  0  0  0  0
  140.2254   75.2478  221.5836 H   0  0  0  0  0  0  0  0  0  0  0  0
  142.4045   74.1054  217.6847 H   0  0  0  0  0  0  0  0  0  0  0  0
  140.8814   74.9827  217.5138 H   0  0  0  0  0  0  0  0  0  0  0  0
  143.4546   76.1657  217.6482 H   0  0  0  0  0  0  0  0  0  0  0  0
  141.9466   77.0503  217.9165 H   0  0  0  0  0  0  0  0  0  0  0  0
  143.9644   76.5883  219.8422 H   0  0  0  0  0  0  0  0  0  0  0  0
  142.3376   77.1201  220.2306 H   0  0  0  0  0  0  0  0  0  0  0  0
  142.4700   74.9451  221.3813 H   0  0  0  0  0  0  0  0  0  0  0  0
  145.1652   75.3629  220.9174 H   0  0  0  0  0  0  0  0  0  0  0  0
  147.0964   73.8403  220.5852 H   0  0  0  0  0  0  0  0  0  0  0  0
  144.5889   70.9164  218.8909 H   0  0  0  0  0  0  0  0  0  0  0  0
  142.6283   72.3826  219.1932 H   0  0  0  0  0  0  0  0  0  0  0  0
  139.1723   70.2730  222.4093 H   0  0  0  0  0  0  0  0  0  0  0  0
  138.8281   68.6284  224.2229 H   0  0  0  0  0  0  0  0  0  0  0  0
  139.1399   67.9771  226.5921 H   0  0  0  0  0  0  0  0  0  0  0  0
  141.2308   70.6715  229.2202 H   0  0  0  0  0  0  0  0  0  0  0  0
  141.5344   72.2725  227.3457 H   0  0  0  0  0  0  0  0  0  0  0  0
  1  2  2  0
  2  3  1  0
  3  4  1  0
  4  5  1  0
  5  6  2  0
  5  7  1  0
  7  8  1  0
  8  9  1  0
  9 10  1  0
 10 11  1  0
 11 12  1  0
 12 13  2  0
 13 14  1  0
 14 15  2  0
 15 16  1  0
 16 17  2  0
  2 18  1  0
 18 19  2  0
 19 20  1  0
 20 21  2  0
 21 22  1  0
 22 23  2  0
 23 24  1  0
 23 25  1  0
 25 26  2  0
 26 27  1  0
 27 28  2  0
 11  7  1  0
 17 12  1  0
 28 18  1  0
 27 21  1  0
  3 29  1  0
  4 30  1  0
  4 31  1  0
  8 32  1  0
  8 33  1  0
  9 34  1  0
  9 35  1  0
 10 36  1  0
 10 37  1  0
 11 38  1  1
 13 39  1  0
 14 40  1  0
 16 41  1  0
 17 42  1  0
 19 43  1  0
 20 44  1  0
 22 45  1  0
 25 46  1  0
 26 47  1  0
M  END
>  <smiles>  (7) 
O=C(NCC(=O)N1CCCC1c1ccncc1)c1ccc2cc(F)ccc2n1

>  <score_type>  (7) 
oracle

>  <origin>  (7) 
autodockgpu

>  <m_score__min__energy>  (7) 
-8.6199999999999992

>  <m_primary>  (7) 
energy

>  <rmsd>  (7) 
2.15190388646166

>  <m_score__min__rmsd>  (7) 
2.15190388646166

>  <meeko>  (7) 
{"free_energy": -8.06, "intermolecular_energy": -9.55, "internal_energy": -1.18, "cluster_size": 9, "cluster_id": 2, "rank_in_cluster": 9}

>  <energy>  (7) 
-8.52

>  <cluster_rmsd>  (7) 
0.26

>  <cluster>  (7) 
1

$$$$

     RDKit          3D

 47 50  0  0  0  0  0  0  0  0999 V2000
  141.3140   71.8730  221.8050 O   0  0  0  0  0  0  0  0  0  0  0  0
  140.3350   71.9630  222.5630 C   0  0  0  0  0  0  0  0  0  0  0  0
  139.3360   72.9380  222.3070 N   0  0  0  0  0  0  0  0  0  0  0  0
  139.4990   73.7910  221.1660 C   0  0  0  0  0  0  0  0  0  0  0  0
  140.5720   74.7940  221.3160 C   0  0  0  0  0  0  0  0  0  0  0  0
  140.6890   75.5610  222.3090 O   0  0  0  0  0  0  0  0  0  0  0  0
  141.5510   74.9240  220.2930 N   0  0  0  0  0  0  0  0  0  0  0  0
  141.3950   74.7470  218.8500 C   0  0  0  0  0  0  0  0  0  0  0  0
  142.2900   75.8110  218.2140 C   0  0  0  0  0  0  0  0  0  0  0  0
  143.1780   76.3080  219.3220 C   0  0  0  0  0  0  0  0  0  0  0  0
  142.9740   75.2750  220.4400 C   0  0  2  0  0  0  0  0  0  0  0  0
  143.8180   74.0750  220.2690 C   0  0  0  0  0  0  0  0  0  0  0  0
  145.1890   74.1990  220.4780 C   0  0  0  0  0  0  0  0  0  0  0  0
  146.0270   73.0900  220.3220 C   0  0  0  0  0  0  0  0  0  0  0  0
  145.5520   71.8810  219.9730 N   0  0  0  0  0  0  0  0  0  0  0  0
  144.2370   71.7500  219.7690 C   0  0  0  0  0  0  0  0  0  0  0  0
  143.3680   72.8310  219.9140 C   0  0  0  0  0  0  0  0  0  0  0  0
  140.1780   71.0860  223.7260 C   0  0  0  0  0  0  0  0  0  0  0  0
  139.5100   69.8840  223.6050 C   0  0  0  0  0  0  0  0  0  0  0  0
  139.3570   69.0500  224.6940 C   0  0  0  0  0  0  0  0  0  0  0  0
  139.8750   69.4110  225.9320 C   0  0  0  0  0  0  0  0  0  0  0  0
  139.7430   68.6040  227.0500 C   0  0  0  0  0  0  0  0  0  0  0  0
  140.2860   69.0300  228.2520 C   0  0  0  0  0  0  0  0  0  0  0  0
  140.1790   68.2670  229.3780 F   0  0  0  0  0  0  0  0  0  0  0  0
  140.9470   70.2300  228.3510 C   0  0  0  0  0  0  0  0  0  0  0  0
  141.0760   71.0310  227.2360 C   0  0  0  0  0  0  0  0  0  0  0  0
  140.5360   70.6160  226.0220 C   0  0  0  0  0  0  0  0  0  0  0  0
  140.6700   71.4110  224.9410 N   0  0  0  0  0  0  0  0  0  0  0  0
  138.4970   73.0210  222.9490 H   0  0  0  0  0  0  0  0  0  0  0  0
  139.7324   73.1621  220.2942 H   0  0  0  0  0  0  0  0  0  0  0  0
  138.5574   74.3469  221.0464 H   0  0  0  0  0  0  0  0  0  0  0  0
  141.7192   73.7402  218.5480 H   0  0  0  0  0  0  0  0  0  0  0  0
  140.3463   74.8515  218.5350 H   0  0  0  0  0  0  0  0  0  0  0  0
  142.8935   75.3720  217.4059 H   0  0  0  0  0  0  0  0  0  0  0  0
  141.7001   76.6258  217.7688 H   0  0  0  0  0  0  0  0  0  0  0  0
  144.2295   76.3356  219.0000 H   0  0  0  0  0  0  0  0  0  0  0  0
  142.9340   77.3331  219.6378 H   0  0  0  0  0  0  0  0  0  0  0  0
  143.2484   75.6713  221.4288 H   0  0  0  0  0  0  0  0  0  0  0  0
  145.6142   75.1716  220.7665 H   0  0  0  0  0  0  0  0  0  0  0  0
  147.1074   73.2103  220.4899 H   0  0  0  0  0  0  0  0  0  0  0  0
  143.8321   70.7687  219.4807 H   0  0  0  0  0  0  0  0  0  0  0  0
  142.2925   72.6806  219.7386 H   0  0  0  0  0  0  0  0  0  0  0  0
  139.0952   69.5877  222.6302 H   0  0  0  0  0  0  0  0  0  0  0  0
  138.8226   68.0952  224.5815 H   0  0  0  0  0  0  0  0  0  0  0  0
  139.2158   67.6407  226.9850 H   0  0  0  0  0  0  0  0  0  0  0  0
  141.3710   70.5502  229.3142 H   0  0  0  0  0  0  0  0  0  0  0  0
  141.6034   71.9938  227.3056 H   0  0  0  0  0  0  0  0  0  0  0  0
  1  2  2  0
  2  3  1  0
  3  4  1  0
  4  5  1  0
  5  6  2  0
  5  7  1  0
  7  8  1  0
  8  9  1  0
  9 10  1  0
 10 11  1  0
 11 12  1  0
 12 13  2  0
 13 14  1  0
 14 15  2  0
 15 16  1  0
 16 17  2  0
  2 18  1  0
 18 19  2  0
 19 20  1  0
 20 21  2  0
 21 22  1  0
 22 23  2  0
 23 24  1  0
 23 25  1  0
 25 26  2  0
 26 27  1  0
 27 28  2  0
 11  7  1  0
 17 12  1  0
 28 18  1  0
 27 21  1  0
  3 29  1  0
  4 30  1  0
  4 31  1  0
  8 32  1  0
  8 33  1  0
  9 34  1  0
  9 35  1  0
 10 36  1  0
 10 37  1  0
 11 38  1  1
 13 39  1  0
 14 40  1  0
 16 41  1  0
 17 42  1  0
 19 43  1  0
 20 44  1  0
 22 45  1  0
 25 46  1  0
 26 47  1  0
M  END
>  <smiles>  (8) 
O=C(NCC(=O)N1CCCC1c1ccncc1)c1ccc2cc(F)ccc2n1

>  <score_type>  (8) 
oracle

>  <origin>  (8) 
autodockgpu

>  <m_score__min__energy>  (8) 
-8.6199999999999992

>  <m_primary>  (8) 
energy

>  <rmsd>  (8) 
1.8380870473045763

>  <m_score__min__rmsd>  (8) 
1.8380870473045763

>  <meeko>  (8) 
{"free_energy": -8.09, "intermolecular_energy": -9.58, "internal_energy": -1.26, "cluster_size": 9, "cluster_id": 2, "rank_in_cluster": 8}

>  <energy>  (8) 
-8.51

>  <cluster_rmsd>  (8) 
0.27

>  <cluster>  (8) 
1

$$$$

     RDKit          3D

 47 50  0  0  0  0  0  0  0  0999 V2000
  141.7370   73.4650  220.6530 O   0  0  0  0  0  0  0  0  0  0  0  0
  141.0820   74.2320  221.3780 C   0  0  0  0  0  0  0  0  0  0  0  0
  140.1250   73.7000  222.2800 N   0  0  0  0  0  0  0  0  0  0  0  0
  139.9500   72.2770  222.3200 C   0  0  0  0  0  0  0  0  0  0  0  0
  138.6200   71.8500  222.7970 C   0  0  0  0  0  0  0  0  0  0  0  0
  137.5310   72.3260  222.3760 O   0  0  0  0  0  0  0  0  0  0  0  0
  138.5280   70.8390  223.7920 N   0  0  0  0  0  0  0  0  0  0  0  0
  137.3620   70.4250  224.5710 C   0  0  0  0  0  0  0  0  0  0  0  0
  137.4920   68.9080  224.7150 C   0  0  0  0  0  0  0  0  0  0  0  0
  138.9050   68.5830  224.3140 C   0  0  0  0  0  0  0  0  0  0  0  0
  139.5970   69.9530  224.2850 C   0  0  2  0  0  0  0  0  0  0  0  0
  140.0510   70.3920  225.6210 C   0  0  0  0  0  0  0  0  0  0  0  0
  140.7190   71.6100  225.7220 C   0  0  0  0  0  0  0  0  0  0  0  0
  141.1700   72.0630  226.9660 C   0  0  0  0  0  0  0  0  0  0  0  0
  140.9800   71.3550  228.0940 N   0  0  0  0  0  0  0  0  0  0  0  0
  140.3410   70.1840  228.0090 C   0  0  0  0  0  0  0  0  0  0  0  0
  139.8750   69.6980  226.7880 C   0  0  0  0  0  0  0  0  0  0  0  0
  141.2690   75.6840  221.3290 C   0  0  0  0  0  0  0  0  0  0  0  0
  141.8200   76.2780  220.2120 C   0  0  0  0  0  0  0  0  0  0  0  0
  141.9990   77.6460  220.1560 C   0  0  0  0  0  0  0  0  0  0  0  0
  141.6280   78.4460  221.2300 C   0  0  0  0  0  0  0  0  0  0  0  0
  141.7910   79.8210  221.2150 C   0  0  0  0  0  0  0  0  0  0  0  0
  141.3970   80.5540  222.3240 C   0  0  0  0  0  0  0  0  0  0  0  0
  141.5410   81.9110  222.3520 F   0  0  0  0  0  0  0  0  0  0  0  0
  140.8520   79.9440  223.4270 C   0  0  0  0  0  0  0  0  0  0  0  0
  140.6910   78.5750  223.4380 C   0  0  0  0  0  0  0  0  0  0  0  0
  141.0810   77.8240  222.3320 C   0  0  0  0  0  0  0  0  0  0  0  0
  140.9180   76.4870  222.3580 N   0  0  0  0  0  0  0  0  0  0  0  0
  139.5630   74.3470  222.9020 H   0  0  0  0  0  0  0  0  0  0  0  0
  140.0967   71.8815  221.3041 H   0  0  0  0  0  0  0  0  0  0  0  0
  140.6866   71.8853  223.0369 H   0  0  0  0  0  0  0  0  0  0  0  0
  137.3675   70.9079  225.5593 H   0  0  0  0  0  0  0  0  0  0  0  0
  136.4191   70.7116  224.0824 H   0  0  0  0  0  0  0  0  0  0  0  0
  137.3088   68.6041  225.7562 H   0  0  0  0  0  0  0  0  0  0  0  0
  136.7592   68.3757  224.0908 H   0  0  0  0  0  0  0  0  0  0  0  0
  139.3795   67.9190  225.0515 H   0  0  0  0  0  0  0  0  0  0  0  0
  138.9649   68.0538  223.3515 H   0  0  0  0  0  0  0  0  0  0  0  0
  140.5079   69.9467  223.6684 H   0  0  0  0  0  0  0  0  0  0  0  0
  140.8923   72.2171  224.8212 H   0  0  0  0  0  0  0  0  0  0  0  0
  141.6960   73.0274  227.0238 H   0  0  0  0  0  0  0  0  0  0  0  0
  140.1794   69.5913  228.9215 H   0  0  0  0  0  0  0  0  0  0  0  0
  139.3518   68.7308  226.7616 H   0  0  0  0  0  0  0  0  0  0  0  0
  142.1200   75.6548  219.3567 H   0  0  0  0  0  0  0  0  0  0  0  0
  142.4372   78.1046  219.2573 H   0  0  0  0  0  0  0  0  0  0  0  0
  142.2257   80.3232  220.3382 H   0  0  0  0  0  0  0  0  0  0  0  0
  140.5458   80.5442  224.2965 H   0  0  0  0  0  0  0  0  0  0  0  0
  140.2560   78.0775  224.3173 H   0  0  0  0  0  0  0  0  0  0  0  0
  1  2  2  0
  2  3  1  0
  3  4  1  0
  4  5  1  0
  5  6  2  0
  5  7  1  0
  7  8  1  0
  8  9  1  0
  9 10  1  0
 10 11  1  0
 11 12  1  0
 12 13  2  0
 13 14  1  0
 14 15  2  0
 15 16  1  0
 16 17  2  0
  2 18  1  0
 18 19  2  0
 19 20  1  0
 20 21  2  0
 21 22  1  0
 22 23  2  0
 23 24  1  0
 23 25  1  0
 25 26  2  0
 26 27  1  0
 27 28  2  0
 11  7  1  0
 17 12  1  0
 28 18  1  0
 27 21  1  0
  3 29  1  0
  4 30  1  0
  4 31  1  0
  8 32  1  0
  8 33  1  0
  9 34  1  0
  9 35  1  0
 10 36  1  0
 10 37  1  0
 11 38  1  6
 13 39  1  0
 14 40  1  0
 16 41  1  0
 17 42  1  0
 19 43  1  0
 20 44  1  0
 22 45  1  0
 25 46  1  0
 26 47  1  0
M  END
>  <smiles>  (9) 
O=C(NCC(=O)N1CCCC1c1ccncc1)c1ccc2cc(F)ccc2n1

>  <score_type>  (9) 
oracle

>  <origin>  (9) 
autodockgpu

>  <m_score__min__energy>  (9) 
-8.6199999999999992

>  <m_primary>  (9) 
energy

>  <rmsd>  (9) 
8.768183637647935

>  <m_score__min__rmsd>  (9) 
8.768183637647935

>  <meeko>  (9) 
{"free_energy": -7.75, "intermolecular_energy": -9.24, "internal_energy": -1.38, "cluster_size": 18, "cluster_id": 3, "rank_in_cluster": 18}

>  <energy>  (9) 
-8.49

>  <cluster_rmsd>  (9) 
0.31

>  <cluster>  (9) 
1

$$$$

     RDKit          3D

 47 50  0  0  0  0  0  0  0  0999 V2000
  140.5400   71.9080  221.0970 O   0  0  0  0  0  0  0  0  0  0  0  0
  140.1710   72.3570  222.1930 C   0  0  0  0  0  0  0  0  0  0  0  0
  139.8620   73.7360  222.3200 N   0  0  0  0  0  0  0  0  0  0  0  0
  139.9900   74.5680  221.1590 C   0  0  0  0  0  0  0  0  0  0  0  0
  141.3860   74.8850  220.8000 C   0  0  0  0  0  0  0  0  0  0  0  0
  142.3320   74.0520  220.8360 O   0  0  0  0  0  0  0  0  0  0  0  0
  141.7160   76.2030  220.3800 N   0  0  0  0  0  0  0  0  0  0  0  0
  142.9570   76.6870  219.7770 C   0  0  0  0  0  0  0  0  0  0  0  0
  142.5240   77.7310  218.7470 C   0  0  0  0  0  0  0  0  0  0  0  0
  141.0860   78.0400  219.0650 C   0  0  0  0  0  0  0  0  0  0  0  0
  140.8780   77.4120  220.4500 C   0  0  2  0  0  0  0  0  0  0  0  0
  141.3340   78.2880  221.5480 C   0  0  0  0  0  0  0  0  0  0  0  0
  141.7890   79.5650  221.2260 C   0  0  0  0  0  0  0  0  0  0  0  0
  142.2350   80.4270  222.2330 C   0  0  0  0  0  0  0  0  0  0  0  0
  142.2410   80.0660  223.5290 N   0  0  0  0  0  0  0  0  0  0  0  0
  141.8060   78.8430  223.8500 C   0  0  0  0  0  0  0  0  0  0  0  0
  141.3540   77.9540  222.8760 C   0  0  0  0  0  0  0  0  0  0  0  0
  140.0420   71.4980  223.3740 C   0  0  0  0  0  0  0  0  0  0  0  0
  139.4700   70.2470  223.2640 C   0  0  0  0  0  0  0  0  0  0  0  0
  139.3450   69.4300  224.3700 C   0  0  0  0  0  0  0  0  0  0  0  0
  139.7950   69.8590  225.6130 C   0  0  0  0  0  0  0  0  0  0  0  0
  139.6880   69.0710  226.7470 C   0  0  0  0  0  0  0  0  0  0  0  0
  140.1590   69.5660  227.9530 C   0  0  0  0  0  0  0  0  0  0  0  0
  140.0730   68.8240  229.0950 F   0  0  0  0  0  0  0  0  0  0  0  0
  140.7250   70.8150  228.0410 C   0  0  0  0  0  0  0  0  0  0  0  0
  140.8290   71.5960  226.9100 C   0  0  0  0  0  0  0  0  0  0  0  0
  140.3610   71.1130  225.6910 C   0  0  0  0  0  0  0  0  0  0  0  0
  140.4700   71.8880  224.5940 N   0  0  0  0  0  0  0  0  0  0  0  0
  139.5460   74.1270  223.2520 H   0  0  0  0  0  0  0  0  0  0  0  0
  139.5231   74.0496  220.3085 H   0  0  0  0  0  0  0  0  0  0  0  0
  139.4969   75.5226  221.3950 H   0  0  0  0  0  0  0  0  0  0  0  0
  143.6038   77.1439  220.5404 H   0  0  0  0  0  0  0  0  0  0  0  0
  143.5349   75.8718  219.3170 H   0  0  0  0  0  0  0  0  0  0  0  0
  143.1405   78.6376  218.8365 H   0  0  0  0  0  0  0  0  0  0  0  0
  142.6433   77.3616  217.7178 H   0  0  0  0  0  0  0  0  0  0  0  0
  140.9158   79.1263  219.0970 H   0  0  0  0  0  0  0  0  0  0  0  0
  140.3883   77.6488  218.3099 H   0  0  0  0  0  0  0  0  0  0  0  0
  139.8163   77.2220  220.6662 H   0  0  0  0  0  0  0  0  0  0  0  0
  141.7974   79.8960  220.1770 H   0  0  0  0  0  0  0  0  0  0  0  0
  142.5916   81.4303  221.9571 H   0  0  0  0  0  0  0  0  0  0  0  0
  141.8048   78.5318  224.9051 H   0  0  0  0  0  0  0  0  0  0  0  0
  141.0039   76.9572  223.1824 H   0  0  0  0  0  0  0  0  0  0  0  0
  139.1100   69.8971  222.2852 H   0  0  0  0  0  0  0  0  0  0  0  0
  138.8872   68.4351  224.2669 H   0  0  0  0  0  0  0  0  0  0  0  0
  139.2369   68.0693  226.6915 H   0  0  0  0  0  0  0  0  0  0  0  0
  141.0928   71.1892  229.0078 H   0  0  0  0  0  0  0  0  0  0  0  0
  141.2802   72.5974  226.9704 H   0  0  0  0  0  0  0  0  0  0  0  0
  1  2  2  0
  2  3  1  0
  3  4  1  0
  4  5  1  0
  5  6  2  0
  5  7  1  0
  7  8  1  0
  8  9  1  0
  9 10  1  0
 10 11  1  0
 11 12  1  0
 12 13  2  0
 13 14  1  0
 14 15  2  0
 15 16  1  0
 16 17  2  0
  2 18  1  0
 18 19  2  0
 19 20  1  0
 20 21  2  0
 21 22  1  0
 22 23  2  0
 23 24  1  0
 23 25  1  0
 25 26  2  0
 26 27  1  0
 27 28  2  0
 11  7  1  0
 17 12  1  0
 28 18  1  0
 27 21  1  0
  3 29  1  0
  4 30  1  0
  4 31  1  0
  8 32  1  0
  8 33  1  0
  9 34  1  0
  9 35  1  0
 10 36  1  0
 10 37  1  0
 11 38  1  1
 13 39  1  0
 14 40  1  0
 16 41  1  0
 17 42  1  0
 19 43  1  0
 20 44  1  0
 22 45  1  0
 25 46  1  0
 26 47  1  0
M  END
>  <smiles>  (10) 
O=C(NCC(=O)N1CCCC1c1ccncc1)c1ccc2cc(F)ccc2n1

>  <score_type>  (10) 
oracle

>  <origin>  (10) 
autodockgpu

>  <m_score__min__energy>  (10) 
-8.6199999999999992

>  <m_primary>  (10) 
energy

>  <rmsd>  (10) 
2.1488555273872167

>  <m_score__min__rmsd>  (10) 
2.1488555273872167

>  <meeko>  (10) 
{"free_energy": -8.35, "intermolecular_energy": -9.84, "internal_energy": -1.19, "cluster_size": 22, "cluster_id": 1, "rank_in_cluster": 18}

>  <energy>  (10) 
-8.46

>  <cluster_rmsd>  (10) 
1.21

>  <cluster>  (10) 
1

$$$$

     RDKit          3D

 47 50  0  0  0  0  0  0  0  0999 V2000
  141.3760   71.9110  221.5090 O   0  0  0  0  0  0  0  0  0  0  0  0
  140.6320   72.3200  222.4150 C   0  0  0  0  0  0  0  0  0  0  0  0
  140.0650   73.6180  222.3270 N   0  0  0  0  0  0  0  0  0  0  0  0
  140.3770   74.4160  221.1770 C   0  0  0  0  0  0  0  0  0  0  0  0
  139.8610   75.7980  221.2490 C   0  0  0  0  0  0  0  0  0  0  0  0
  138.7320   76.1070  221.7160 O   0  0  0  0  0  0  0  0  0  0  0  0
  140.6660   76.8670  220.7710 N   0  0  0  0  0  0  0  0  0  0  0  0
  141.9790   76.8090  220.1290 C   0  0  0  0  0  0  0  0  0  0  0  0
  141.9560   77.9070  219.0640 C   0  0  0  0  0  0  0  0  0  0  0  0
  140.7640   78.7640  219.3930 C   0  0  0  0  0  0  0  0  0  0  0  0
  140.3700   78.3100  220.8060 C   0  0  2  0  0  0  0  0  0  0  0  0
  141.1670   78.9710  221.8600 C   0  0  0  0  0  0  0  0  0  0  0  0
  141.1030   78.4560  223.1530 C   0  0  0  0  0  0  0  0  0  0  0  0
  141.8370   79.0520  224.1840 C   0  0  0  0  0  0  0  0  0  0  0  0
  142.6200   80.1260  223.9720 N   0  0  0  0  0  0  0  0  0  0  0  0
  142.6880   80.6290  222.7350 C   0  0  0  0  0  0  0  0  0  0  0  0
  141.9720   80.0640  221.6810 C   0  0  0  0  0  0  0  0  0  0  0  0
  140.3190   71.4960  223.5850 C   0  0  0  0  0  0  0  0  0  0  0  0
  139.6020   70.3270  223.4400 C   0  0  0  0  0  0  0  0  0  0  0  0
  139.3020   69.5430  224.5370 C   0  0  0  0  0  0  0  0  0  0  0  0
  139.7210   69.9230  225.8060 C   0  0  0  0  0  0  0  0  0  0  0  0
  139.4410   69.1660  226.9320 C   0  0  0  0  0  0  0  0  0  0  0  0
  139.8920   69.6090  228.1660 C   0  0  0  0  0  0  0  0  0  0  0  0
  139.6380   68.8950  229.3000 F   0  0  0  0  0  0  0  0  0  0  0  0
  140.6050   70.7770  228.2890 C   0  0  0  0  0  0  0  0  0  0  0  0
  140.8810   71.5280  227.1660 C   0  0  0  0  0  0  0  0  0  0  0  0
  140.4360   71.0960  225.9190 C   0  0  0  0  0  0  0  0  0  0  0  0
  140.7130   71.8410  224.8310 N   0  0  0  0  0  0  0  0  0  0  0  0
  139.4290   73.9750  223.0960 H   0  0  0  0  0  0  0  0  0  0  0  0
  141.4711   74.4600  221.0726 H   0  0  0  0  0  0  0  0  0  0  0  0
  139.8890   73.9378  220.3149 H   0  0  0  0  0  0  0  0  0  0  0  0
  142.7756   77.0006  220.8629 H   0  0  0  0  0  0  0  0  0  0  0  0
  142.1793   75.8190  219.6933 H   0  0  0  0  0  0  0  0  0  0  0  0
  142.8802   78.5021  219.1058 H   0  0  0  0  0  0  0  0  0  0  0  0
  141.8890   77.4885  218.0489 H   0  0  0  0  0  0  0  0  0  0  0  0
  141.0330   79.8306  219.3842 H   0  0  0  0  0  0  0  0  0  0  0  0
  139.9459   78.6546  218.6659 H   0  0  0  0  0  0  0  0  0  0  0  0
  139.3258   78.5575  221.0475 H   0  0  0  0  0  0  0  0  0  0  0  0
  140.4738   77.5787  223.3636 H   0  0  0  0  0  0  0  0  0  0  0  0
  141.7723   78.6304  225.1980 H   0  0  0  0  0  0  0  0  0  0  0  0
  143.3225   81.5073  222.5451 H   0  0  0  0  0  0  0  0  0  0  0  0
  142.0559   80.5083  220.6782 H   0  0  0  0  0  0  0  0  0  0  0  0
  139.2654   70.0155  222.4402 H   0  0  0  0  0  0  0  0  0  0  0  0
  138.7287   68.6135  224.4053 H   0  0  0  0  0  0  0  0  0  0  0  0
  138.8705   68.2292  226.8485 H   0  0  0  0  0  0  0  0  0  0  0  0
  140.9536   71.1110  229.2774 H   0  0  0  0  0  0  0  0  0  0  0  0
  141.4506   72.4649  227.2547 H   0  0  0  0  0  0  0  0  0  0  0  0
  1  2  2  0
  2  3  1  0
  3  4  1  0
  4  5  1  0
  5  6  2  0
  5  7  1  0
  7  8  1  0
  8  9  1  0
  9 10  1  0
 10 11  1  0
 11 12  1  0
 12 13  2  0
 13 14  1  0
 14 15  2  0
 15 16  1  0
 16 17  2  0
  2 18  1  0
 18 19  2  0
 19 20  1  0
 20 21  2  0
 21 22  1  0
 22 23  2  0
 23 24  1  0
 23 25  1  0
 25 26  2  0
 26 27  1  0
 27 28  2  0
 11  7  1  0
 17 12  1  0
 28 18  1  0
 27 21  1  0
  3 29  1  0
  4 30  1  0
  4 31  1  0
  8 32  1  0
  8 33  1  0
  9 34  1  0
  9 35  1  0
 10 36  1  0
 10 37  1  0
 11 38  1  1
 13 39  1  0
 14 40  1  0
 16 41  1  0
 17 42  1  0
 19 43  1  0
 20 44  1  0
 22 45  1  0
 25 46  1  0
 26 47  1  0
M  END
>  <smiles>  (11) 
O=C(NCC(=O)N1CCCC1c1ccncc1)c1ccc2cc(F)ccc2n1

>  <score_type>  (11) 
oracle

>  <origin>  (11) 
autodockgpu

>  <m_score__min__energy>  (11) 
-8.6199999999999992

>  <m_primary>  (11) 
energy

>  <rmsd>  (11) 
2.247450707634848

>  <m_score__min__rmsd>  (11) 
2.247450707634848

>  <meeko>  (11) 
{"free_energy": -8.31, "intermolecular_energy": -9.8, "internal_energy": -1.29, "cluster_size": 22, "cluster_id": 1, "rank_in_cluster": 19}

>  <energy>  (11) 
-8.45

>  <cluster_rmsd>  (11) 
0.8

>  <cluster>  (11) 
1

$$$$

     RDKit          3D

 47 50  0  0  0  0  0  0  0  0999 V2000
  140.7090   71.9500  221.1060 O   0  0  0  0  0  0  0  0  0  0  0  0
  140.1880   72.3480  222.1610 C   0  0  0  0  0  0  0  0  0  0  0  0
  139.6530   73.6590  222.2300 N   0  0  0  0  0  0  0  0  0  0  0  0
  139.7360   74.4870  221.0610 C   0  0  0  0  0  0  0  0  0  0  0  0
  140.5980   75.6730  221.2250 C   0  0  0  0  0  0  0  0  0  0  0  0
  141.8580   75.6410  221.1980 O   0  0  0  0  0  0  0  0  0  0  0  0
  139.9990   76.9470  221.4260 N   0  0  0  0  0  0  0  0  0  0  0  0
  139.4960   77.8890  220.4270 C   0  0  0  0  0  0  0  0  0  0  0  0
  138.2470   78.5100  221.0530 C   0  0  0  0  0  0  0  0  0  0  0  0
  138.3030   78.1500  222.5130 C   0  0  0  0  0  0  0  0  0  0  0  0
  139.7370   77.6340  222.7030 C   0  0  2  0  0  0  0  0  0  0  0  0
  140.7130   78.7230  222.9090 C   0  0  0  0  0  0  0  0  0  0  0  0
  140.2860   79.8740  223.5670 C   0  0  0  0  0  0  0  0  0  0  0  0
  141.1750   80.9330  223.7800 C   0  0  0  0  0  0  0  0  0  0  0  0
  142.4550   80.8820  223.3670 N   0  0  0  0  0  0  0  0  0  0  0  0
  142.8750   79.7820  222.7350 C   0  0  0  0  0  0  0  0  0  0  0  0
  142.0210   78.7060  222.5030 C   0  0  0  0  0  0  0  0  0  0  0  0
  140.1090   71.4940  223.3500 C   0  0  0  0  0  0  0  0  0  0  0  0
  139.5350   70.2420  223.2700 C   0  0  0  0  0  0  0  0  0  0  0  0
  139.4550   69.4300  224.3840 C   0  0  0  0  0  0  0  0  0  0  0  0
  139.9540   69.8660  225.6050 C   0  0  0  0  0  0  0  0  0  0  0  0
  139.8950   69.0840  226.7470 C   0  0  0  0  0  0  0  0  0  0  0  0
  140.4130   69.5860  227.9310 C   0  0  0  0  0  0  0  0  0  0  0  0
  140.3740   68.8490  229.0790 F   0  0  0  0  0  0  0  0  0  0  0  0
  140.9800   70.8350  227.9890 C   0  0  0  0  0  0  0  0  0  0  0  0
  141.0380   71.6110  226.8510 C   0  0  0  0  0  0  0  0  0  0  0  0
  140.5220   71.1210  225.6540 C   0  0  0  0  0  0  0  0  0  0  0  0
  140.5850   71.8910  224.5500 N   0  0  0  0  0  0  0  0  0  0  0  0
  139.2070   74.0070  223.1260 H   0  0  0  0  0  0  0  0  0  0  0  0
  140.1360   73.8803  220.2352 H   0  0  0  0  0  0  0  0  0  0  0  0
  138.7198   74.8577  220.8611 H   0  0  0  0  0  0  0  0  0  0  0  0
  140.2472   78.6641  220.2153 H   0  0  0  0  0  0  0  0  0  0  0  0
  139.2729   77.3933  219.4707 H   0  0  0  0  0  0  0  0  0  0  0  0
  138.2571   79.6027  220.9265 H   0  0  0  0  0  0  0  0  0  0  0  0
  137.3268   78.1392  220.5778 H   0  0  0  0  0  0  0  0  0  0  0  0
  138.1165   79.0326  223.1425 H   0  0  0  0  0  0  0  0  0  0  0  0
  137.5411   77.4105  222.8004 H   0  0  0  0  0  0  0  0  0  0  0  0
  139.8366   76.9977  223.5947 H   0  0  0  0  0  0  0  0  0  0  0  0
  139.2470   79.9505  223.9201 H   0  0  0  0  0  0  0  0  0  0  0  0
  140.8174   81.8338  224.3003 H   0  0  0  0  0  0  0  0  0  0  0  0
  143.9180   79.7249  222.3903 H   0  0  0  0  0  0  0  0  0  0  0  0
  142.4075   77.8190  221.9797 H   0  0  0  0  0  0  0  0  0  0  0  0
  139.1367   69.8867  222.3082 H   0  0  0  0  0  0  0  0  0  0  0  0
  138.9945   68.4342  224.3043 H   0  0  0  0  0  0  0  0  0  0  0  0
  139.4445   68.0810  226.7149 H   0  0  0  0  0  0  0  0  0  0  0  0
  141.3858   71.2145  228.9384 H   0  0  0  0  0  0  0  0  0  0  0  0
  141.4900   72.6131  226.8884 H   0  0  0  0  0  0  0  0  0  0  0  0
  1  2  2  0
  2  3  1  0
  3  4  1  0
  4  5  1  0
  5  6  2  0
  5  7  1  0
  7  8  1  0
  8  9  1  0
  9 10  1  0
 10 11  1  0
 11 12  1  0
 12 13  2  0
 13 14  1  0
 14 15  2  0
 15 16  1  0
 16 17  2  0
  2 18  1  0
 18 19  2  0
 19 20  1  0
 20 21  2  0
 21 22  1  0
 22 23  2  0
 23 24  1  0
 23 25  1  0
 25 26  2  0
 26 27  1  0
 27 28  2  0
 11  7  1  0
 17 12  1  0
 28 18  1  0
 27 21  1  0
  3 29  1  0
  4 30  1  0
  4 31  1  0
  8 32  1  0
  8 33  1  0
  9 34  1  0
  9 35  1  0
 10 36  1  0
 10 37  1  0
 11 38  1  1
 13 39  1  0
 14 40  1  0
 16 41  1  0
 17 42  1  0
 19 43  1  0
 20 44  1  0
 22 45  1  0
 25 46  1  0
 26 47  1  0
M  END
>  <smiles>  (12) 
O=C(NCC(=O)N1CCCC1c1ccncc1)c1ccc2cc(F)ccc2n1

>  <score_type>  (12) 
oracle

>  <origin>  (12) 
autodockgpu

>  <m_score__min__energy>  (12) 
-8.6199999999999992

>  <m_primary>  (12) 
energy

>  <rmsd>  (12) 
2.677758887426338

>  <m_score__min__rmsd>  (12) 
2.677758887426338

>  <meeko>  (12) 
{"free_energy": -8.21, "intermolecular_energy": -9.7, "internal_energy": -1.2, "cluster_size": 22, "cluster_id": 1, "rank_in_cluster": 20}

>  <energy>  (12) 
-8.44

>  <cluster_rmsd>  (12) 
0.81

>  <cluster>  (12) 
1

$$$$

     RDKit          3D

 47 50  0  0  0  0  0  0  0  0999 V2000
  141.2260   71.9860  221.4700 O   0  0  0  0  0  0  0  0  0  0  0  0
  140.4060   72.2300  222.3690 C   0  0  0  0  0  0  0  0  0  0  0  0
  139.5980   73.3930  222.2870 N   0  0  0  0  0  0  0  0  0  0  0  0
  139.7630   74.2540  221.1520 C   0  0  0  0  0  0  0  0  0  0  0  0
  140.9730   75.0960  221.2080 C   0  0  0  0  0  0  0  0  0  0  0  0
  141.3750   75.6880  222.2460 O   0  0  0  0  0  0  0  0  0  0  0  0
  141.7580   75.2680  220.0350 N   0  0  0  0  0  0  0  0  0  0  0  0
  141.4010   74.9810  218.6460 C   0  0  0  0  0  0  0  0  0  0  0  0
  142.0520   76.0950  217.8250 C   0  0  0  0  0  0  0  0  0  0  0  0
  143.0360   76.7580  218.7500 C   0  0  0  0  0  0  0  0  0  0  0  0
  143.1340   75.7830  219.9320 C   0  0  2  0  0  0  0  0  0  0  0  0
  144.0780   74.6750  219.6820 C   0  0  0  0  0  0  0  0  0  0  0  0
  144.7800   74.1510  220.7650 C   0  0  0  0  0  0  0  0  0  0  0  0
  145.6880   73.1040  220.5740 C   0  0  0  0  0  0  0  0  0  0  0  0
  145.9150   72.5710  219.3600 N   0  0  0  0  0  0  0  0  0  0  0  0
  145.2480   73.0660  218.3130 C   0  0  0  0  0  0  0  0  0  0  0  0
  144.3340   74.1090  218.4620 C   0  0  0  0  0  0  0  0  0  0  0  0
  140.2450   71.3440  223.5250 C   0  0  0  0  0  0  0  0  0  0  0  0
  139.6080   70.1280  223.3860 C   0  0  0  0  0  0  0  0  0  0  0  0
  139.4520   69.2860  224.4690 C   0  0  0  0  0  0  0  0  0  0  0  0
  139.9350   69.6540  225.7180 C   0  0  0  0  0  0  0  0  0  0  0  0
  139.7990   68.8390  226.8300 C   0  0  0  0  0  0  0  0  0  0  0  0
  140.3070   69.2730  228.0450 C   0  0  0  0  0  0  0  0  0  0  0  0
  140.1940   68.5020  229.1650 F   0  0  0  0  0  0  0  0  0  0  0  0
  140.9380   70.4870  228.1620 C   0  0  0  0  0  0  0  0  0  0  0  0
  141.0710   71.2950  227.0530 C   0  0  0  0  0  0  0  0  0  0  0  0
  140.5670   70.8740  225.8260 C   0  0  0  0  0  0  0  0  0  0  0  0
  140.7050   71.6750  224.7520 N   0  0  0  0  0  0  0  0  0  0  0  0
  138.8950   73.6080  223.0500 H   0  0  0  0  0  0  0  0  0  0  0  0
  139.8183   73.6287  220.2487 H   0  0  0  0  0  0  0  0  0  0  0  0
  138.9006   74.9367  221.1426 H   0  0  0  0  0  0  0  0  0  0  0  0
  141.7927   73.9990  218.3423 H   0  0  0  0  0  0  0  0  0  0  0  0
  140.3112   74.9471  218.5007 H   0  0  0  0  0  0  0  0  0  0  0  0
  142.5703   75.6746  216.9506 H   0  0  0  0  0  0  0  0  0  0  0  0
  141.3065   76.8089  217.4448 H   0  0  0  0  0  0  0  0  0  0  0  0
  144.0134   76.8814  218.2606 H   0  0  0  0  0  0  0  0  0  0  0  0
  142.7233   77.7679  219.0538 H   0  0  0  0  0  0  0  0  0  0  0  0
  143.5104   76.2704  220.8435 H   0  0  0  0  0  0  0  0  0  0  0  0
  144.6200   74.5615  221.7729 H   0  0  0  0  0  0  0  0  0  0  0  0
  146.2325   72.7047  221.4424 H   0  0  0  0  0  0  0  0  0  0  0  0
  145.4234   72.6422  217.3132 H   0  0  0  0  0  0  0  0  0  0  0  0
  143.8044   74.4871  217.5751 H   0  0  0  0  0  0  0  0  0  0  0  0
  139.2203   69.8262  222.4018 H   0  0  0  0  0  0  0  0  0  0  0  0
  138.9428   68.3193  224.3420 H   0  0  0  0  0  0  0  0  0  0  0  0
  139.2964   67.8638  226.7504 H   0  0  0  0  0  0  0  0  0  0  0  0
  141.3350   70.8128  229.1348 H   0  0  0  0  0  0  0  0  0  0  0  0
  141.5740   72.2696  227.1377 H   0  0  0  0  0  0  0  0  0  0  0  0
  1  2  2  0
  2  3  1  0
  3  4  1  0
  4  5  1  0
  5  6  2  0
  5  7  1  0
  7  8  1  0
  8  9  1  0
  9 10  1  0
 10 11  1  0
 11 12  1  0
 12 13  2  0
 13 14  1  0
 14 15  2  0
 15 16  1  0
 16 17  2  0
  2 18  1  0
 18 19  2  0
 19 20  1  0
 20 21  2  0
 21 22  1  0
 22 23  2  0
 23 24  1  0
 23 25  1  0
 25 26  2  0
 26 27  1  0
 27 28  2  0
 11  7  1  0
 17 12  1  0
 28 18  1  0
 27 21  1  0
  3 29  1  0
  4 30  1  0
  4 31  1  0
  8 32  1  0
  8 33  1  0
  9 34  1  0
  9 35  1  0
 10 36  1  0
 10 37  1  0
 11 38  1  1
 13 39  1  0
 14 40  1  0
 16 41  1  0
 17 42  1  0
 19 43  1  0
 20 44  1  0
 22 45  1  0
 25 46  1  0
 26 47  1  0
M  END
>  <smiles>  (13) 
O=C(NCC(=O)N1CCCC1c1ccncc1)c1ccc2cc(F)ccc2n1

>  <score_type>  (13) 
oracle

>  <origin>  (13) 
autodockgpu

>  <m_score__min__energy>  (13) 
-8.6199999999999992

>  <m_primary>  (13) 
energy

>  <rmsd>  (13) 
1.786953994605946

>  <m_score__min__rmsd>  (13) 
1.786953994605946

>  <meeko>  (13) 
{"free_energy": -8.51, "intermolecular_energy": -10.0, "internal_energy": -1.2, "cluster_size": 9, "cluster_id": 2, "rank_in_cluster": 2}

>  <energy>  (13) 
-8.43

>  <cluster_rmsd>  (13) 
0.82

>  <cluster>  (13) 
1

$$$$

     RDKit          3D

 47 50  0  0  0  0  0  0  0  0999 V2000
  141.2700   72.2500  221.5290 O   0  0  0  0  0  0  0  0  0  0  0  0
  140.4000   72.4250  222.3970 C   0  0  0  0  0  0  0  0  0  0  0  0
  139.5240   73.5370  222.3010 N   0  0  0  0  0  0  0  0  0  0  0  0
  139.6810   74.4280  221.1880 C   0  0  0  0  0  0  0  0  0  0  0  0
  140.9670   75.1520  221.1750 C   0  0  0  0  0  0  0  0  0  0  0  0
  141.4410   75.7680  222.1680 O   0  0  0  0  0  0  0  0  0  0  0  0
  141.7430   75.1720  219.9840 N   0  0  0  0  0  0  0  0  0  0  0  0
  141.4010   74.6540  218.6600 C   0  0  0  0  0  0  0  0  0  0  0  0
  142.0010   75.6530  217.6700 C   0  0  0  0  0  0  0  0  0  0  0  0
  142.9530   76.4970  218.4730 C   0  0  0  0  0  0  0  0  0  0  0  0
  143.0950   75.7260  219.7930 C   0  0  2  0  0  0  0  0  0  0  0  0
  144.0890   74.6360  219.7140 C   0  0  0  0  0  0  0  0  0  0  0  0
  144.4340   74.1510  218.4550 C   0  0  0  0  0  0  0  0  0  0  0  0
  145.3680   73.1170  218.3320 C   0  0  0  0  0  0  0  0  0  0  0  0
  145.9590   72.5600  219.4040 N   0  0  0  0  0  0  0  0  0  0  0  0
  145.6350   73.0180  220.6180 C   0  0  0  0  0  0  0  0  0  0  0  0
  144.7100   74.0470  220.7830 C   0  0  0  0  0  0  0  0  0  0  0  0
  140.2480   71.5090  223.5310 C   0  0  0  0  0  0  0  0  0  0  0  0
  139.6250   70.2890  223.3600 C   0  0  0  0  0  0  0  0  0  0  0  0
  139.4780   69.4180  224.4220 C   0  0  0  0  0  0  0  0  0  0  0  0
  139.9560   69.7610  225.6810 C   0  0  0  0  0  0  0  0  0  0  0  0
  139.8280   68.9170  226.7720 C   0  0  0  0  0  0  0  0  0  0  0  0
  140.3290   69.3260  227.9980 C   0  0  0  0  0  0  0  0  0  0  0  0
  140.2230   68.5270  229.0990 F   0  0  0  0  0  0  0  0  0  0  0  0
  140.9440   70.5450  228.1470 C   0  0  0  0  0  0  0  0  0  0  0  0
  141.0700   71.3820  227.0580 C   0  0  0  0  0  0  0  0  0  0  0  0
  140.5720   70.9850  225.8200 C   0  0  0  0  0  0  0  0  0  0  0  0
  140.7020   71.8150  224.7660 N   0  0  0  0  0  0  0  0  0  0  0  0
  138.7790   73.6930  223.0380 H   0  0  0  0  0  0  0  0  0  0  0  0
  139.6056   73.8403  220.2612 H   0  0  0  0  0  0  0  0  0  0  0  0
  138.8895   75.1870  221.2740 H   0  0  0  0  0  0  0  0  0  0  0  0
  141.8376   73.6552  218.5122 H   0  0  0  0  0  0  0  0  0  0  0  0
  140.3140   74.5482  218.5287 H   0  0  0  0  0  0  0  0  0  0  0  0
  142.5387   75.1241  216.8692 H   0  0  0  0  0  0  0  0  0  0  0  0
  141.2240   76.2637  217.1870 H   0  0  0  0  0  0  0  0  0  0  0  0
  143.9240   76.5860  217.9639 H   0  0  0  0  0  0  0  0  0  0  0  0
  142.5940   77.5268  218.6164 H   0  0  0  0  0  0  0  0  0  0  0  0
  143.4483   76.3669  220.6142 H   0  0  0  0  0  0  0  0  0  0  0  0
  143.9709   74.5821  217.5551 H   0  0  0  0  0  0  0  0  0  0  0  0
  145.6268   72.7484  217.3284 H   0  0  0  0  0  0  0  0  0  0  0  0
  146.1089   72.5729  221.5053 H   0  0  0  0  0  0  0  0  0  0  0  0
  144.4723   74.3954  221.7989 H   0  0  0  0  0  0  0  0  0  0  0  0
  139.2418   70.0077  222.3680 H   0  0  0  0  0  0  0  0  0  0  0  0
  138.9804   68.4487  224.2705 H   0  0  0  0  0  0  0  0  0  0  0  0
  139.3369   67.9383  226.6671 H   0  0  0  0  0  0  0  0  0  0  0  0
  141.3337   70.8519  229.1288 H   0  0  0  0  0  0  0  0  0  0  0  0
  141.5622   72.3597  227.1672 H   0  0  0  0  0  0  0  0  0  0  0  0
  1  2  2  0
  2  3  1  0
  3  4  1  0
  4  5  1  0
  5  6  2  0
  5  7  1  0
  7  8  1  0
  8  9  1  0
  9 10  1  0
 10 11  1  0
 11 12  1  0
 12 13  2  0
 13 14  1  0
 14 15  2  0
 15 16  1  0
 16 17  2  0
  2 18  1  0
 18 19  2  0
 19 20  1  0
 20 21  2  0
 21 22  1  0
 22 23  2  0
 23 24  1  0
 23 25  1  0
 25 26  2  0
 26 27  1  0
 27 28  2  0
 11  7  1  0
 17 12  1  0
 28 18  1  0
 27 21  1  0
  3 29  1  0
  4 30  1  0
  4 31  1  0
  8 32  1  0
  8 33  1  0
  9 34  1  0
  9 35  1  0
 10 36  1  0
 10 37  1  0
 11 38  1  1
 13 39  1  0
 14 40  1  0
 16 41  1  0
 17 42  1  0
 19 43  1  0
 20 44  1  0
 22 45  1  0
 25 46  1  0
 26 47  1  0
M  END
>  <smiles>  (14) 
O=C(NCC(=O)N1CCCC1c1ccncc1)c1ccc2cc(F)ccc2n1

>  <score_type>  (14) 
oracle

>  <origin>  (14) 
autodockgpu

>  <m_score__min__energy>  (14) 
-8.6199999999999992

>  <m_primary>  (14) 
energy

>  <rmsd>  (14) 
1.8113805580650653

>  <m_score__min__rmsd>  (14) 
1.8113805580650653

>  <meeko>  (14) 
{"free_energy": -8.49, "intermolecular_energy": -9.98, "internal_energy": -1.13, "cluster_size": 9, "cluster_id": 2, "rank_in_cluster": 3}

>  <energy>  (14) 
-8.42

>  <cluster_rmsd>  (14) 
0.83

>  <cluster>  (14) 
1

$$$$

     RDKit          3D

 47 50  0  0  0  0  0  0  0  0999 V2000
  138.1100   71.5030  222.2920 O   0  0  0  0  0  0  0  0  0  0  0  0
  139.2410   71.2850  222.7570 C   0  0  0  0  0  0  0  0  0  0  0  0
  140.3760   71.8840  222.1540 N   0  0  0  0  0  0  0  0  0  0  0  0
  140.1710   72.7300  221.0140 C   0  0  0  0  0  0  0  0  0  0  0  0
  140.6830   74.1030  221.1860 C   0  0  0  0  0  0  0  0  0  0  0  0
  140.4210   74.8370  222.1770 O   0  0  0  0  0  0  0  0  0  0  0  0
  141.5290   74.6610  220.1890 N   0  0  0  0  0  0  0  0  0  0  0  0
  141.2970   74.7720  218.7490 C   0  0  0  0  0  0  0  0  0  0  0  0
  141.9030   76.1170  218.3460 C   0  0  0  0  0  0  0  0  0  0  0  0
  142.7580   76.5410  219.5090 C   0  0  0  0  0  0  0  0  0  0  0  0
  142.8590   75.2700  220.3660 C   0  0  2  0  0  0  0  0  0  0  0  0
  143.9120   74.3480  219.8970 C   0  0  0  0  0  0  0  0  0  0  0  0
  144.6920   73.6990  220.8520 C   0  0  0  0  0  0  0  0  0  0  0  0
  145.7040   72.8190  220.4530 C   0  0  0  0  0  0  0  0  0  0  0  0
  145.9590   72.5680  219.1560 N   0  0  0  0  0  0  0  0  0  0  0  0
  145.2170   73.1850  218.2310 C   0  0  0  0  0  0  0  0  0  0  0  0
  144.2000   74.0690  218.5870 C   0  0  0  0  0  0  0  0  0  0  0  0
  139.4400   70.4200  223.9230 C   0  0  0  0  0  0  0  0  0  0  0  0
  138.9940   69.1150  223.9040 C   0  0  0  0  0  0  0  0  0  0  0  0
  139.1780   68.2910  224.9980 C   0  0  0  0  0  0  0  0  0  0  0  0
  139.8160   68.7690  226.1350 C   0  0  0  0  0  0  0  0  0  0  0  0
  140.0210   67.9760  227.2530 C   0  0  0  0  0  0  0  0  0  0  0  0
  140.6660   68.5220  228.3520 C   0  0  0  0  0  0  0  0  0  0  0  0
  140.8860   67.7780  229.4740 F   0  0  0  0  0  0  0  0  0  0  0  0
  141.1020   69.8250  228.3500 C   0  0  0  0  0  0  0  0  0  0  0  0
  140.8970   70.6100  227.2360 C   0  0  0  0  0  0  0  0  0  0  0  0
  140.2510   70.0770  226.1240 C   0  0  0  0  0  0  0  0  0  0  0  0
  140.0570   70.8570  225.0430 N   0  0  0  0  0  0  0  0  0  0  0  0
  141.3440   71.7040  222.5450 H   0  0  0  0  0  0  0  0  0  0  0  0
  140.6801   72.2766  220.1507 H   0  0  0  0  0  0  0  0  0  0  0  0
  139.0836   72.8115  220.8695 H   0  0  0  0  0  0  0  0  0  0  0  0
  141.7941   73.9494  218.2139 H   0  0  0  0  0  0  0  0  0  0  0  0
  140.2272   74.7127  218.4998 H   0  0  0  0  0  0  0  0  0  0  0  0
  142.5160   76.0056  217.4394 H   0  0  0  0  0  0  0  0  0  0  0  0
  141.1258   76.8618  218.1196 H   0  0  0  0  0  0  0  0  0  0  0  0
  143.7524   76.8646  219.1679 H   0  0  0  0  0  0  0  0  0  0  0  0
  142.3372   77.3952  220.0596 H   0  0  0  0  0  0  0  0  0  0  0  0
  143.1263   75.4908  221.4099 H   0  0  0  0  0  0  0  0  0  0  0  0
  144.5117   73.8789  221.9221 H   0  0  0  0  0  0  0  0  0  0  0  0
  146.3091   72.3175  221.2226 H   0  0  0  0  0  0  0  0  0  0  0  0
  145.4132   72.9909  217.1662 H   0  0  0  0  0  0  0  0  0  0  0  0
  143.6126   74.5559  217.7946 H   0  0  0  0  0  0  0  0  0  0  0  0
  138.4866   68.7261  223.0088 H   0  0  0  0  0  0  0  0  0  0  0  0
  138.8176   67.2522  224.9680 H   0  0  0  0  0  0  0  0  0  0  0  0
  139.6777   66.9310  227.2681 H   0  0  0  0  0  0  0  0  0  0  0  0
  141.6117   70.2392  229.2324 H   0  0  0  0  0  0  0  0  0  0  0  0
  141.2427   71.6542  227.2255 H   0  0  0  0  0  0  0  0  0  0  0  0
  1  2  2  0
  2  3  1  0
  3  4  1  0
  4  5  1  0
  5  6  2  0
  5  7  1  0
  7  8  1  0
  8  9  1  0
  9 10  1  0
 10 11  1  0
 11 12  1  0
 12 13  2  0
 13 14  1  0
 14 15  2  0
 15 16  1  0
 16 17  2  0
  2 18  1  0
 18 19  2  0
 19 20  1  0
 20 21  2  0
 21 22  1  0
 22 23  2  0
 23 24  1  0
 23 25  1  0
 25 26  2  0
 26 27  1  0
 27 28  2  0
 11  7  1  0
 17 12  1  0
 28 18  1  0
 27 21  1  0
  3 29  1  0
  4 30  1  0
  4 31  1  0
  8 32  1  0
  8 33  1  0
  9 34  1  0
  9 35  1  0
 10 36  1  0
 10 37  1  0
 11 38  1  1
 13 39  1  0
 14 40  1  0
 16 41  1  0
 17 42  1  0
 19 43  1  0
 20 44  1  0
 22 45  1  0
 25 46  1  0
 26 47  1  0
M  END
>  <smiles>  (15) 
O=C(NCC(=O)N1CCCC1c1ccncc1)c1ccc2cc(F)ccc2n1

>  <score_type>  (15) 
oracle

>  <origin>  (15) 
autodockgpu

>  <m_score__min__energy>  (15) 
-8.6199999999999992

>  <m_primary>  (15) 
energy

>  <rmsd>  (15) 
1.8810914224138933

>  <m_score__min__rmsd>  (15) 
1.8810914224138933

>  <meeko>  (15) 
{"free_energy": -8.16, "intermolecular_energy": -9.65, "internal_energy": -0.94, "cluster_size": 9, "cluster_id": 2, "rank_in_cluster": 7}

>  <energy>  (15) 
-8.42

>  <cluster_rmsd>  (15) 
0.76

>  <cluster>  (15) 
1

$$$$

     RDKit          3D

 47 50  0  0  0  0  0  0  0  0999 V2000
  140.7330   73.9880  220.2880 O   0  0  0  0  0  0  0  0  0  0  0  0
  140.3870   74.7120  221.2360 C   0  0  0  0  0  0  0  0  0  0  0  0
  139.5060   74.2030  222.2240 N   0  0  0  0  0  0  0  0  0  0  0  0
  139.0430   72.8530  222.0880 C   0  0  0  0  0  0  0  0  0  0  0  0
  139.9360   71.8480  222.6980 C   0  0  0  0  0  0  0  0  0  0  0  0
  141.1340   71.6650  222.3530 O   0  0  0  0  0  0  0  0  0  0  0  0
  139.4430   71.0230  223.7460 N   0  0  0  0  0  0  0  0  0  0  0  0
  138.0750   70.9010  224.2470 C   0  0  0  0  0  0  0  0  0  0  0  0
  137.9010   69.4200  224.5880 C   0  0  0  0  0  0  0  0  0  0  0  0
  139.2900   68.8410  224.5950 C   0  0  0  0  0  0  0  0  0  0  0  0
  140.1980   70.0790  224.5880 C   0  0  2  0  0  0  0  0  0  0  0  0
  140.4020   70.6450  225.9360 C   0  0  0  0  0  0  0  0  0  0  0  0
  139.9070   69.9370  227.0290 C   0  0  0  0  0  0  0  0  0  0  0  0
  140.0730   70.4380  228.3250 C   0  0  0  0  0  0  0  0  0  0  0  0
  140.7060   71.6010  228.5630 N   0  0  0  0  0  0  0  0  0  0  0  0
  141.1850   72.2890  227.5220 C   0  0  0  0  0  0  0  0  0  0  0  0
  141.0400   71.8240  226.2160 C   0  0  0  0  0  0  0  0  0  0  0  0
  140.8670   76.0900  221.3660 C   0  0  0  0  0  0  0  0  0  0  0  0
  141.7070   76.6270  220.4120 C   0  0  0  0  0  0  0  0  0  0  0  0
  142.1640   77.9260  220.5260 C   0  0  0  0  0  0  0  0  0  0  0  0
  141.7810   78.7110  221.6060 C   0  0  0  0  0  0  0  0  0  0  0  0
  142.2170   80.0170  221.7580 C   0  0  0  0  0  0  0  0  0  0  0  0
  141.7940   80.7410  222.8620 C   0  0  0  0  0  0  0  0  0  0  0  0
  142.1990   82.0300  223.0520 F   0  0  0  0  0  0  0  0  0  0  0  0
  140.9570   80.1870  223.8010 C   0  0  0  0  0  0  0  0  0  0  0  0
  140.5260   78.8870  223.6460 C   0  0  0  0  0  0  0  0  0  0  0  0
  140.9420   78.1470  222.5420 C   0  0  0  0  0  0  0  0  0  0  0  0
  140.5120   76.8770  222.4050 N   0  0  0  0  0  0  0  0  0  0  0  0
  139.2060   74.8140  223.0360 H   0  0  0  0  0  0  0  0  0  0  0  0
  138.0562   72.7757  222.5679 H   0  0  0  0  0  0  0  0  0  0  0  0
  139.0079   72.6354  221.0103 H   0  0  0  0  0  0  0  0  0  0  0  0
  137.9364   71.5219  225.1444 H   0  0  0  0  0  0  0  0  0  0  0  0
  137.3353   71.2413  223.5073 H   0  0  0  0  0  0  0  0  0  0  0  0
  137.4324   69.3060  225.5766 H   0  0  0  0  0  0  0  0  0  0  0  0
  137.2504   68.9089  223.8631 H   0  0  0  0  0  0  0  0  0  0  0  0
  139.4585   68.2356  225.4979 H   0  0  0  0  0  0  0  0  0  0  0  0
  139.4770   68.1693  223.7442 H   0  0  0  0  0  0  0  0  0  0  0  0
  141.2109   69.8505  224.2249 H   0  0  0  0  0  0  0  0  0  0  0  0
  139.3844   68.9818  226.8729 H   0  0  0  0  0  0  0  0  0  0  0  0
  139.6741   69.8639  229.1743 H   0  0  0  0  0  0  0  0  0  0  0  0
  141.7045   73.2422  227.6996 H   0  0  0  0  0  0  0  0  0  0  0  0
  141.4493   72.4205  225.3874 H   0  0  0  0  0  0  0  0  0  0  0  0
  142.0160   76.0147  219.5520 H   0  0  0  0  0  0  0  0  0  0  0  0
  142.8340   78.3402  219.7582 H   0  0  0  0  0  0  0  0  0  0  0  0
  142.8880   80.4723  221.0147 H   0  0  0  0  0  0  0  0  0  0  0  0
  140.6331   80.7774  224.6708 H   0  0  0  0  0  0  0  0  0  0  0  0
  139.8555   78.4354  224.3920 H   0  0  0  0  0  0  0  0  0  0  0  0
  1  2  2  0
  2  3  1  0
  3  4  1  0
  4  5  1  0
  5  6  2  0
  5  7  1  0
  7  8  1  0
  8  9  1  0
  9 10  1  0
 10 11  1  0
 11 12  1  0
 12 13  2  0
 13 14  1  0
 14 15  2  0
 15 16  1  0
 16 17  2  0
  2 18  1  0
 18 19  2  0
 19 20  1  0
 20 21  2  0
 21 22  1  0
 22 23  2  0
 23 24  1  0
 23 25  1  0
 25 26  2  0
 26 27  1  0
 27 28  2  0
 11  7  1  0
 17 12  1  0
 28 18  1  0
 27 21  1  0
  3 29  1  0
  4 30  1  0
  4 31  1  0
  8 32  1  0
  8 33  1  0
  9 34  1  0
  9 35  1  0
 10 36  1  0
 10 37  1  0
 11 38  1  6
 13 39  1  0
 14 40  1  0
 16 41  1  0
 17 42  1  0
 19 43  1  0
 20 44  1  0
 22 45  1  0
 25 46  1  0
 26 47  1  0
M  END
>  <smiles>  (16) 
O=C(NCC(=O)N1CCCC1c1ccncc1)c1ccc2cc(F)ccc2n1

>  <score_type>  (16) 
oracle

>  <origin>  (16) 
autodockgpu

>  <m_score__min__energy>  (16) 
-8.6199999999999992

>  <m_primary>  (16) 
energy

>  <rmsd>  (16) 
8.686607535135584

>  <m_score__min__rmsd>  (16) 
8.686607535135584

>  <meeko>  (16) 
{"free_energy": -8.38, "intermolecular_energy": -9.87, "internal_energy": -1.38, "cluster_size": 18, "cluster_id": 3, "rank_in_cluster": 8}

>  <energy>  (16) 
-8.4

>  <cluster_rmsd>  (16) 
1.15

>  <cluster>  (16) 
1

$$$$

     RDKit          3D

 47 50  0  0  0  0  0  0  0  0999 V2000
  140.9550   71.7890  221.1830 O   0  0  0  0  0  0  0  0  0  0  0  0
  140.4160   72.2550  222.2000 C   0  0  0  0  0  0  0  0  0  0  0  0
  140.0160   73.6160  222.2230 N   0  0  0  0  0  0  0  0  0  0  0  0
  140.2540   74.4120  221.0530 C   0  0  0  0  0  0  0  0  0  0  0  0
  139.7510   75.7950  221.1570 C   0  0  0  0  0  0  0  0  0  0  0  0
  138.6090   76.1020  221.5950 O   0  0  0  0  0  0  0  0  0  0  0  0
  140.5850   76.8720  220.7490 N   0  0  0  0  0  0  0  0  0  0  0  0
  141.9160   76.8200  220.1460 C   0  0  0  0  0  0  0  0  0  0  0  0
  141.9420   77.9600  219.1270 C   0  0  0  0  0  0  0  0  0  0  0  0
  140.7510   78.8200  219.4520 C   0  0  0  0  0  0  0  0  0  0  0  0
  140.3070   78.3160  220.8330 C   0  0  2  0  0  0  0  0  0  0  0  0
  141.0780   78.9230  221.9370 C   0  0  0  0  0  0  0  0  0  0  0  0
  141.8300   80.0640  221.6660 C   0  0  0  0  0  0  0  0  0  0  0  0
  142.5790   80.6690  222.6810 C   0  0  0  0  0  0  0  0  0  0  0  0
  142.6020   80.1840  223.9350 N   0  0  0  0  0  0  0  0  0  0  0  0
  141.8850   79.0890  224.2070 C   0  0  0  0  0  0  0  0  0  0  0  0
  141.1250   78.4570  223.2240 C   0  0  0  0  0  0  0  0  0  0  0  0
  140.1760   71.4340  223.3900 C   0  0  0  0  0  0  0  0  0  0  0  0
  139.5280   70.2210  223.2780 C   0  0  0  0  0  0  0  0  0  0  0  0
  139.2980   69.4390  224.3930 C   0  0  0  0  0  0  0  0  0  0  0  0
  139.7180   69.8660  225.6470 C   0  0  0  0  0  0  0  0  0  0  0  0
  139.5080   69.1130  226.7900 C   0  0  0  0  0  0  0  0  0  0  0  0
  139.9550   69.6030  228.0070 C   0  0  0  0  0  0  0  0  0  0  0  0
  139.7680   68.8950  229.1580 F   0  0  0  0  0  0  0  0  0  0  0  0
  140.5980   70.8140  228.0970 C   0  0  0  0  0  0  0  0  0  0  0  0
  140.8060   71.5600  226.9560 C   0  0  0  0  0  0  0  0  0  0  0  0
  140.3630   71.0810  225.7260 C   0  0  0  0  0  0  0  0  0  0  0  0
  140.5730   71.8230  224.6210 N   0  0  0  0  0  0  0  0  0  0  0  0
  139.5550   74.0210  223.0860 H   0  0  0  0  0  0  0  0  0  0  0  0
  141.3389   74.4507  220.8755 H   0  0  0  0  0  0  0  0  0  0  0  0
  139.7069   73.9352  220.2264 H   0  0  0  0  0  0  0  0  0  0  0  0
  142.6919   76.9695  220.9113 H   0  0  0  0  0  0  0  0  0  0  0  0
  142.1158   75.8455  219.6765 H   0  0  0  0  0  0  0  0  0  0  0  0
  142.8719   78.5397  219.2229 H   0  0  0  0  0  0  0  0  0  0  0  0
  141.9028   77.5838  218.0941 H   0  0  0  0  0  0  0  0  0  0  0  0
  141.0335   79.8823  219.4939 H   0  0  0  0  0  0  0  0  0  0  0  0
  139.9551   78.7509  218.6958 H   0  0  0  0  0  0  0  0  0  0  0  0
  139.2591   78.5688  221.0519 H   0  0  0  0  0  0  0  0  0  0  0  0
  141.8349   80.4901  220.6519 H   0  0  0  0  0  0  0  0  0  0  0  0
  143.1668   81.5686  222.4462 H   0  0  0  0  0  0  0  0  0  0  0  0
  141.8949   78.6783  225.2274 H   0  0  0  0  0  0  0  0  0  0  0  0
  140.5472   77.5594  223.4893 H   0  0  0  0  0  0  0  0  0  0  0  0
  139.1910   69.8731  222.2904 H   0  0  0  0  0  0  0  0  0  0  0  0
  138.7802   68.4742  224.2880 H   0  0  0  0  0  0  0  0  0  0  0  0
  138.9948   68.1417  226.7330 H   0  0  0  0  0  0  0  0  0  0  0  0
  140.9445   71.1859  229.0725 H   0  0  0  0  0  0  0  0  0  0  0  0
  141.3203   72.5304  227.0174 H   0  0  0  0  0  0  0  0  0  0  0  0
  1  2  2  0
  2  3  1  0
  3  4  1  0
  4  5  1  0
  5  6  2  0
  5  7  1  0
  7  8  1  0
  8  9  1  0
  9 10  1  0
 10 11  1  0
 11 12  1  0
 12 13  2  0
 13 14  1  0
 14 15  2  0
 15 16  1  0
 16 17  2  0
  2 18  1  0
 18 19  2  0
 19 20  1  0
 20 21  2  0
 21 22  1  0
 22 23  2  0
 23 24  1  0
 23 25  1  0
 25 26  2  0
 26 27  1  0
 27 28  2  0
 11  7  1  0
 17 12  1  0
 28 18  1  0
 27 21  1  0
  3 29  1  0
  4 30  1  0
  4 31  1  0
  8 32  1  0
  8 33  1  0
  9 34  1  0
  9 35  1  0
 10 36  1  0
 10 37  1  0
 11 38  1  1
 13 39  1  0
 14 40  1  0
 16 41  1  0
 17 42  1  0
 19 43  1  0
 20 44  1  0
 22 45  1  0
 25 46  1  0
 26 47  1  0
M  END
>  <smiles>  (17) 
O=C(NCC(=O)N1CCCC1c1ccncc1)c1ccc2cc(F)ccc2n1

>  <score_type>  (17) 
oracle

>  <origin>  (17) 
autodockgpu

>  <m_score__min__energy>  (17) 
-8.6199999999999992

>  <m_primary>  (17) 
energy

>  <rmsd>  (17) 
2.1951730384134973

>  <m_score__min__rmsd>  (17) 
2.1951730384134973

>  <meeko>  (17) 
{"free_energy": -8.2, "intermolecular_energy": -9.69, "internal_energy": -1.27, "cluster_size": 22, "cluster_id": 1, "rank_in_cluster": 21}

>  <energy>  (17) 
-8.38

>  <cluster_rmsd>  (17) 
0.48

>  <cluster>  (17) 
1

$$$$

     RDKit          3D

 47 50  0  0  0  0  0  0  0  0999 V2000
  139.3310   71.7090  221.0580 O   0  0  0  0  0  0  0  0  0  0  0  0
  139.4700   72.2080  222.1860 C   0  0  0  0  0  0  0  0  0  0  0  0
  139.4370   73.6170  222.3410 N   0  0  0  0  0  0  0  0  0  0  0  0
  139.2400   74.4230  221.1710 C   0  0  0  0  0  0  0  0  0  0  0  0
  139.3210   75.8750  221.4220 C   0  0  0  0  0  0  0  0  0  0  0  0
  138.4190   76.5450  221.9930 O   0  0  0  0  0  0  0  0  0  0  0  0
  140.4770   76.5900  221.0070 N   0  0  0  0  0  0  0  0  0  0  0  0
  141.8340   76.0890  220.7900 C   0  0  0  0  0  0  0  0  0  0  0  0
  142.3610   76.8630  219.5810 C   0  0  0  0  0  0  0  0  0  0  0  0
  141.4090   78.0130  219.3910 C   0  0  0  0  0  0  0  0  0  0  0  0
  140.5910   78.0240  220.6900 C   0  0  2  0  0  0  0  0  0  0  0  0
  141.2730   78.7390  221.7880 C   0  0  0  0  0  0  0  0  0  0  0  0
  140.9800   78.3660  223.0980 C   0  0  0  0  0  0  0  0  0  0  0  0
  141.5990   79.0180  224.1700 C   0  0  0  0  0  0  0  0  0  0  0  0
  142.4860   80.0120  223.9830 N   0  0  0  0  0  0  0  0  0  0  0  0
  142.7750   80.3780  222.7300 C   0  0  0  0  0  0  0  0  0  0  0  0
  142.1800   79.7530  221.6350 C   0  0  0  0  0  0  0  0  0  0  0  0
  139.6710   71.3760  223.3760 C   0  0  0  0  0  0  0  0  0  0  0  0
  139.3590   70.0320  223.3450 C   0  0  0  0  0  0  0  0  0  0  0  0
  139.5450   69.2390  224.4610 C   0  0  0  0  0  0  0  0  0  0  0  0
  140.0500   69.7880  225.6340 C   0  0  0  0  0  0  0  0  0  0  0  0
  140.2510   69.0290  226.7750 C   0  0  0  0  0  0  0  0  0  0  0  0
  140.7570   69.6450  227.9080 C   0  0  0  0  0  0  0  0  0  0  0  0
  140.9700   68.9350  229.0540 F   0  0  0  0  0  0  0  0  0  0  0  0
  141.0600   70.9850  227.9180 C   0  0  0  0  0  0  0  0  0  0  0  0
  140.8590   71.7370  226.7810 C   0  0  0  0  0  0  0  0  0  0  0  0
  140.3510   71.1320  225.6340 C   0  0  0  0  0  0  0  0  0  0  0  0
  140.1590   71.8810  224.5300 N   0  0  0  0  0  0  0  0  0  0  0  0
  139.5550   74.0510  223.3000 H   0  0  0  0  0  0  0  0  0  0  0  0
  140.0109   74.1560  220.4332 H   0  0  0  0  0  0  0  0  0  0  0  0
  138.2207   74.2185  220.8115 H   0  0  0  0  0  0  0  0  0  0  0  0
  142.4612   76.2802  221.6732 H   0  0  0  0  0  0  0  0  0  0  0  0
  141.8477   75.0024  220.6192 H   0  0  0  0  0  0  0  0  0  0  0  0
  143.3778   77.2344  219.7762 H   0  0  0  0  0  0  0  0  0  0  0  0
  142.4172   76.2285  218.6842 H   0  0  0  0  0  0  0  0  0  0  0  0
  141.9562   78.9587  219.2636 H   0  0  0  0  0  0  0  0  0  0  0  0
  140.7829   77.9053  218.4930 H   0  0  0  0  0  0  0  0  0  0  0  0
  139.6293   78.5448  220.5722 H   0  0  0  0  0  0  0  0  0  0  0  0
  140.2601   77.5567  223.2900 H   0  0  0  0  0  0  0  0  0  0  0  0
  141.3530   78.7086  225.1965 H   0  0  0  0  0  0  0  0  0  0  0  0
  143.4977   81.1896  222.5594 H   0  0  0  0  0  0  0  0  0  0  0  0
  142.4466   80.0837  220.6203 H   0  0  0  0  0  0  0  0  0  0  0  0
  138.9580   69.5875  222.4222 H   0  0  0  0  0  0  0  0  0  0  0  0
  139.2925   68.1691  224.4211 H   0  0  0  0  0  0  0  0  0  0  0  0
  140.0129   67.9551  226.7814 H   0  0  0  0  0  0  0  0  0  0  0  0
  141.4607   71.4548  228.8283 H   0  0  0  0  0  0  0  0  0  0  0  0
  141.0987   72.8106  226.7793 H   0  0  0  0  0  0  0  0  0  0  0  0
  1  2  2  0
  2  3  1  0
  3  4  1  0
  4  5  1  0
  5  6  2  0
  5  7  1  0
  7  8  1  0
  8  9  1  0
  9 10  1  0
 10 11  1  0
 11 12  1  0
 12 13  2  0
 13 14  1  0
 14 15  2  0
 15 16  1  0
 16 17  2  0
  2 18  1  0
 18 19  2  0
 19 20  1  0
 20 21  2  0
 21 22  1  0
 22 23  2  0
 23 24  1  0
 23 25  1  0
 25 26  2  0
 26 27  1  0
 27 28  2  0
 11  7  1  0
 17 12  1  0
 28 18  1  0
 27 21  1  0
  3 29  1  0
  4 30  1  0
  4 31  1  0
  8 32  1  0
  8 33  1  0
  9 34  1  0
  9 35  1  0
 10 36  1  0
 10 37  1  0
 11 38  1  6
 13 39  1  0
 14 40  1  0
 16 41  1  0
 17 42  1  0
 19 43  1  0
 20 44  1  0
 22 45  1  0
 25 46  1  0
 26 47  1  0
M  END
>  <smiles>  (18) 
O=C(NCC(=O)N1CCCC1c1ccncc1)c1ccc2cc(F)ccc2n1

>  <score_type>  (18) 
oracle

>  <origin>  (18) 
autodockgpu

>  <m_score__min__energy>  (18) 
-8.6199999999999992

>  <m_primary>  (18) 
energy

>  <rmsd>  (18) 
1.9655337684859968

>  <m_score__min__rmsd>  (18) 
1.9655337684859968

>  <meeko>  (18) 
{"free_energy": -8.11, "intermolecular_energy": -9.6, "internal_energy": -1.37, "cluster_size": 22, "cluster_id": 1, "rank_in_cluster": 22}

>  <energy>  (18) 
-8.35

>  <cluster_rmsd>  (18) 
0.83

>  <cluster>  (18) 
1

$$$$

     RDKit          3D

 47 50  0  0  0  0  0  0  0  0999 V2000
  140.4890   71.8790  221.0750 O   0  0  0  0  0  0  0  0  0  0  0  0
  140.0730   72.2930  222.1690 C   0  0  0  0  0  0  0  0  0  0  0  0
  139.6170   73.6310  222.2870 N   0  0  0  0  0  0  0  0  0  0  0  0
  139.6540   74.4650  221.1200 C   0  0  0  0  0  0  0  0  0  0  0  0
  139.5620   75.9090  221.4120 C   0  0  0  0  0  0  0  0  0  0  0  0
  138.6310   76.4380  222.0790 O   0  0  0  0  0  0  0  0  0  0  0  0
  140.5720   76.7830  220.9270 N   0  0  0  0  0  0  0  0  0  0  0  0
  141.9220   76.4570  220.4700 C   0  0  0  0  0  0  0  0  0  0  0  0
  142.1900   77.4000  219.2970 C   0  0  0  0  0  0  0  0  0  0  0  0
  141.1170   78.4530  219.3710 C   0  0  0  0  0  0  0  0  0  0  0  0
  140.5020   78.2460  220.7630 C   0  0  2  0  0  0  0  0  0  0  0  0
  141.2700   78.9180  221.8310 C   0  0  0  0  0  0  0  0  0  0  0  0
  141.1020   78.4740  223.1410 C   0  0  0  0  0  0  0  0  0  0  0  0
  141.8050   79.0840  224.1850 C   0  0  0  0  0  0  0  0  0  0  0  0
  142.6560   80.1040  223.9710 N   0  0  0  0  0  0  0  0  0  0  0  0
  142.8240   80.5380  222.7170 C   0  0  0  0  0  0  0  0  0  0  0  0
  142.1430   79.9570  221.6490 C   0  0  0  0  0  0  0  0  0  0  0  0
  140.0390   71.4330  223.3550 C   0  0  0  0  0  0  0  0  0  0  0  0
  139.5670   70.1400  223.2630 C   0  0  0  0  0  0  0  0  0  0  0  0
  139.5320   69.3210  224.3740 C   0  0  0  0  0  0  0  0  0  0  0  0
  139.9720   69.7920  225.6050 C   0  0  0  0  0  0  0  0  0  0  0  0
  139.9530   69.0040  226.7450 C   0  0  0  0  0  0  0  0  0  0  0  0
  140.4090   69.5420  227.9380 C   0  0  0  0  0  0  0  0  0  0  0  0
  140.4070   68.8020  229.0850 F   0  0  0  0  0  0  0  0  0  0  0  0
  140.8740   70.8320  228.0090 C   0  0  0  0  0  0  0  0  0  0  0  0
  140.8920   71.6130  226.8730 C   0  0  0  0  0  0  0  0  0  0  0  0
  140.4380   71.0870  225.6660 C   0  0  0  0  0  0  0  0  0  0  0  0
  140.4610   71.8630  224.5640 N   0  0  0  0  0  0  0  0  0  0  0  0
  139.2600   73.9920  223.2170 H   0  0  0  0  0  0  0  0  0  0  0  0
  140.6003   74.2785  220.5912 H   0  0  0  0  0  0  0  0  0  0  0  0
  138.7729   74.2055  220.5148 H   0  0  0  0  0  0  0  0  0  0  0  0
  142.6525   76.6261  221.2749 H   0  0  0  0  0  0  0  0  0  0  0  0
  142.0112   75.4009  220.1756 H   0  0  0  0  0  0  0  0  0  0  0  0
  143.1853   77.8586  219.3926 H   0  0  0  0  0  0  0  0  0  0  0  0
  142.1723   76.8677  218.3345 H   0  0  0  0  0  0  0  0  0  0  0  0
  141.5486   79.4605  219.2784 H   0  0  0  0  0  0  0  0  0  0  0  0
  140.3781   78.3675  218.5606 H   0  0  0  0  0  0  0  0  0  0  0  0
  139.4889   78.6678  220.8384 H   0  0  0  0  0  0  0  0  0  0  0  0
  140.4150   77.6419  223.3546 H   0  0  0  0  0  0  0  0  0  0  0  0
  141.6577   78.7188  225.2121 H   0  0  0  0  0  0  0  0  0  0  0  0
  143.5150   81.3720  222.5245 H   0  0  0  0  0  0  0  0  0  0  0  0
  142.3112   80.3433  220.6329 H   0  0  0  0  0  0  0  0  0  0  0  0
  139.2146   69.7573  222.2938 H   0  0  0  0  0  0  0  0  0  0  0  0
  139.1544   68.2918  224.2843 H   0  0  0  0  0  0  0  0  0  0  0  0
  139.5823   67.9692  226.7036 H   0  0  0  0  0  0  0  0  0  0  0  0
  141.2300   71.2399  228.9665 H   0  0  0  0  0  0  0  0  0  0  0  0
  141.2634   72.6473  226.9198 H   0  0  0  0  0  0  0  0  0  0  0  0
  1  2  2  0
  2  3  1  0
  3  4  1  0
  4  5  1  0
  5  6  2  0
  5  7  1  0
  7  8  1  0
  8  9  1  0
  9 10  1  0
 10 11  1  0
 11 12  1  0
 12 13  2  0
 13 14  1  0
 14 15  2  0
 15 16  1  0
 16 17  2  0
  2 18  1  0
 18 19  2  0
 19 20  1  0
 20 21  2  0
 21 22  1  0
 22 23  2  0
 23 24  1  0
 23 25  1  0
 25 26  2  0
 26 27  1  0
 27 28  2  0
 11  7  1  0
 17 12  1  0
 28 18  1  0
 27 21  1  0
  3 29  1  0
  4 30  1  0
  4 31  1  0
  8 32  1  0
  8 33  1  0
  9 34  1  0
  9 35  1  0
 10 36  1  0
 10 37  1  0
 11 38  1  6
 13 39  1  0
 14 40  1  0
 16 41  1  0
 17 42  1  0
 19 43  1  0
 20 44  1  0
 22 45  1  0
 25 46  1  0
 26 47  1  0
M  END
>  <smiles>  (19) 
O=C(NCC(=O)N1CCCC1c1ccncc1)c1ccc2cc(F)ccc2n1

>  <score_type>  (19) 
oracle

>  <origin>  (19) 
autodockgpu

>  <m_score__min__energy>  (19) 
-8.6199999999999992

>  <m_primary>  (19) 
energy

>  <rmsd>  (19) 
2.0479213952097717

>  <m_score__min__rmsd>  (19) 
2.0479213952097717

>  <meeko>  (19) 
{"free_energy": -8.38, "intermolecular_energy": -9.87, "internal_energy": -1.32, "cluster_size": 22, "cluster_id": 1, "rank_in_cluster": 17}

>  <energy>  (19) 
-8.31

>  <cluster_rmsd>  (19) 
0.61

>  <cluster>  (19) 
1

$$$$

     RDKit          3D

 47 50  0  0  0  0  0  0  0  0999 V2000
  141.0230   74.3630  221.4040 O   0  0  0  0  0  0  0  0  0  0  0  0
  140.0020   74.8000  221.9590 C   0  0  0  0  0  0  0  0  0  0  0  0
  138.9160   73.9260  222.2220 N   0  0  0  0  0  0  0  0  0  0  0  0
  139.0440   72.5510  221.8320 C   0  0  0  0  0  0  0  0  0  0  0  0
  139.9580   71.7680  222.6870 C   0  0  0  0  0  0  0  0  0  0  0  0
  141.2120   71.7580  222.5570 O   0  0  0  0  0  0  0  0  0  0  0  0
  139.4200   70.9670  223.7310 N   0  0  0  0  0  0  0  0  0  0  0  0
  138.0450   70.9120  224.2260 C   0  0  0  0  0  0  0  0  0  0  0  0
  137.7980   69.4410  224.5650 C   0  0  0  0  0  0  0  0  0  0  0  0
  139.1570   68.7950  224.5780 C   0  0  0  0  0  0  0  0  0  0  0  0
  140.1250   69.9870  224.5760 C   0  0  2  0  0  0  0  0  0  0  0  0
  140.3500   70.5420  225.9260 C   0  0  0  0  0  0  0  0  0  0  0  0
  141.0790   71.7240  226.0380 C   0  0  0  0  0  0  0  0  0  0  0  0
  141.3200   72.2840  227.2980 C   0  0  0  0  0  0  0  0  0  0  0  0
  140.8650   71.7150  228.4290 N   0  0  0  0  0  0  0  0  0  0  0  0
  140.1640   70.5810  228.3320 C   0  0  0  0  0  0  0  0  0  0  0  0
  139.9020   69.9910  227.0970 C   0  0  0  0  0  0  0  0  0  0  0  0
  139.8820   76.2060  222.3530 C   0  0  0  0  0  0  0  0  0  0  0  0
  141.0120   76.9760  222.5370 C   0  0  0  0  0  0  0  0  0  0  0  0
  140.9100   78.3020  222.9090 C   0  0  0  0  0  0  0  0  0  0  0  0
  139.6610   78.8810  223.1030 C   0  0  0  0  0  0  0  0  0  0  0  0
  139.5140   80.2070  223.4760 C   0  0  0  0  0  0  0  0  0  0  0  0
  138.2370   80.7150  223.6530 C   0  0  0  0  0  0  0  0  0  0  0  0
  138.0460   82.0150  224.0210 F   0  0  0  0  0  0  0  0  0  0  0  0
  137.1240   79.9320  223.4650 C   0  0  0  0  0  0  0  0  0  0  0  0
  137.2750   78.6120  223.0940 C   0  0  0  0  0  0  0  0  0  0  0  0
  138.5510   78.0870  222.9130 C   0  0  0  0  0  0  0  0  0  0  0  0
  138.6820   76.7960  222.5500 N   0  0  0  0  0  0  0  0  0  0  0  0
  138.0410   74.2910  222.6950 H   0  0  0  0  0  0  0  0  0  0  0  0
  138.0482   72.0856  221.8727 H   0  0  0  0  0  0  0  0  0  0  0  0
  139.4724   72.5456  220.8188 H   0  0  0  0  0  0  0  0  0  0  0  0
  137.9329   71.5385  225.1232 H   0  0  0  0  0  0  0  0  0  0  0  0
  137.3259   71.2886  223.4836 H   0  0  0  0  0  0  0  0  0  0  0  0
  137.3198   69.3493  225.5514 H   0  0  0  0  0  0  0  0  0  0  0  0
  137.1269   68.9626  223.8365 H   0  0  0  0  0  0  0  0  0  0  0  0
  139.2914   68.1817  225.4812 H   0  0  0  0  0  0  0  0  0  0  0  0
  139.3148   68.1155  223.7275 H   0  0  0  0  0  0  0  0  0  0  0  0
  141.1273   69.7097  224.2176 H   0  0  0  0  0  0  0  0  0  0  0  0
  141.4659   72.2181  225.1345 H   0  0  0  0  0  0  0  0  0  0  0  0
  141.8986   73.2171  227.3654 H   0  0  0  0  0  0  0  0  0  0  0  0
  139.7855   70.1028  229.2475 H   0  0  0  0  0  0  0  0  0  0  0  0
  139.3200   69.0582  227.0618 H   0  0  0  0  0  0  0  0  0  0  0  0
  142.0054   76.5286  222.3857 H   0  0  0  0  0  0  0  0  0  0  0  0
  141.8205   78.9024  223.0524 H   0  0  0  0  0  0  0  0  0  0  0  0
  140.3962   80.8460  223.6291 H   0  0  0  0  0  0  0  0  0  0  0  0
  136.1189   80.3549  223.6094 H   0  0  0  0  0  0  0  0  0  0  0  0
  136.3900   77.9767  222.9418 H   0  0  0  0  0  0  0  0  0  0  0  0
  1  2  2  0
  2  3  1  0
  3  4  1  0
  4  5  1  0
  5  6  2  0
  5  7  1  0
  7  8  1  0
  8  9  1  0
  9 10  1  0
 10 11  1  0
 11 12  1  0
 12 13  2  0
 13 14  1  0
 14 15  2  0
 15 16  1  0
 16 17  2  0
  2 18  1  0
 18 19  2  0
 19 20  1  0
 20 21  2  0
 21 22  1  0
 22 23  2  0
 23 24  1  0
 23 25  1  0
 25 26  2  0
 26 27  1  0
 27 28  2  0
 11  7  1  0
 17 12  1  0
 28 18  1  0
 27 21  1  0
  3 29  1  0
  4 30  1  0
  4 31  1  0
  8 32  1  0
  8 33  1  0
  9 34  1  0
  9 35  1  0
 10 36  1  0
 10 37  1  0
 11 38  1  6
 13 39  1  0
 14 40  1  0
 16 41  1  0
 17 42  1  0
 19 43  1  0
 20 44  1  0
 22 45  1  0
 25 46  1  0
 26 47  1  0
M  END
>  <smiles>  (20) 
O=C(NCC(=O)N1CCCC1c1ccncc1)c1ccc2cc(F)ccc2n1

>  <score_type>  (20) 
oracle

>  <origin>  (20) 
autodockgpu

>  <m_score__min__energy>  (20) 
-8.6199999999999992

>  <m_primary>  (20) 
energy

>  <rmsd>  (20) 
8.661142249329545

>  <m_score__min__rmsd>  (20) 
8.661142249329545

>  <meeko>  (20) 
{"free_energy": -7.87, "intermolecular_energy": -9.37, "internal_energy": -1.42, "cluster_size": 18, "cluster_id": 3, "rank_in_cluster": 12}

>  <energy>  (20) 
-8.21

>  <cluster_rmsd>  (20) 
1.23

>  <cluster>  (20) 
1

$$$$

     RDKit          3D

 47 50  0  0  0  0  0  0  0  0999 V2000
  141.0990   73.7920  220.4800 O   0  0  0  0  0  0  0  0  0  0  0  0
  140.5540   74.5840  221.2660 C   0  0  0  0  0  0  0  0  0  0  0  0
  139.5000   74.1320  222.1000 N   0  0  0  0  0  0  0  0  0  0  0  0
  139.1000   72.7580  222.0020 C   0  0  0  0  0  0  0  0  0  0  0  0
  139.9890   71.8220  222.7180 C   0  0  0  0  0  0  0  0  0  0  0  0
  141.2180   71.6880  222.4730 O   0  0  0  0  0  0  0  0  0  0  0  0
  139.4550   71.0090  223.7550 N   0  0  0  0  0  0  0  0  0  0  0  0
  138.0830   70.9520  224.2580 C   0  0  0  0  0  0  0  0  0  0  0  0
  137.8320   69.4780  224.5790 C   0  0  0  0  0  0  0  0  0  0  0  0
  139.1890   68.8270  224.5740 C   0  0  0  0  0  0  0  0  0  0  0  0
  140.1610   70.0150  224.5820 C   0  0  2  0  0  0  0  0  0  0  0  0
  140.3960   70.5520  225.9380 C   0  0  0  0  0  0  0  0  0  0  0  0
  141.1330   71.7270  226.0620 C   0  0  0  0  0  0  0  0  0  0  0  0
  141.3840   72.2700  227.3270 C   0  0  0  0  0  0  0  0  0  0  0  0
  140.9320   71.6890  228.4530 N   0  0  0  0  0  0  0  0  0  0  0  0
  140.2240   70.5600  228.3460 C   0  0  0  0  0  0  0  0  0  0  0  0
  139.9520   69.9880  227.1040 C   0  0  0  0  0  0  0  0  0  0  0  0
  140.9710   75.9850  221.3590 C   0  0  0  0  0  0  0  0  0  0  0  0
  141.6580   76.5770  220.3190 C   0  0  0  0  0  0  0  0  0  0  0  0
  142.0540   77.8980  220.3970 C   0  0  0  0  0  0  0  0  0  0  0  0
  141.7650   78.6510  221.5280 C   0  0  0  0  0  0  0  0  0  0  0  0
  142.1450   79.9770  221.6470 C   0  0  0  0  0  0  0  0  0  0  0  0
  141.8220   80.6660  222.8060 C   0  0  0  0  0  0  0  0  0  0  0  0
  142.1770   81.9730  222.9650 F   0  0  0  0  0  0  0  0  0  0  0  0
  141.1370   80.0580  223.8300 C   0  0  0  0  0  0  0  0  0  0  0  0
  140.7610   78.7370  223.7080 C   0  0  0  0  0  0  0  0  0  0  0  0
  141.0780   78.0320  222.5500 C   0  0  0  0  0  0  0  0  0  0  0  0
  140.7040   76.7420  222.4460 N   0  0  0  0  0  0  0  0  0  0  0  0
  139.0300   74.8010  222.7740 H   0  0  0  0  0  0  0  0  0  0  0  0
  138.0872   72.6618  222.4203 H   0  0  0  0  0  0  0  0  0  0  0  0
  139.1452   72.4883  220.9365 H   0  0  0  0  0  0  0  0  0  0  0  0
  137.9789   71.5668  225.1642 H   0  0  0  0  0  0  0  0  0  0  0  0
  137.3609   71.3409  223.5250 H   0  0  0  0  0  0  0  0  0  0  0  0
  137.3602   69.3750  225.5673 H   0  0  0  0  0  0  0  0  0  0  0  0
  137.1538   69.0118  223.8491 H   0  0  0  0  0  0  0  0  0  0  0  0
  139.3272   68.2008  225.4677 H   0  0  0  0  0  0  0  0  0  0  0  0
  139.3387   68.1588  223.7131 H   0  0  0  0  0  0  0  0  0  0  0  0
  141.1599   69.7381  224.2139 H   0  0  0  0  0  0  0  0  0  0  0  0
  141.5190   72.2297  225.1630 H   0  0  0  0  0  0  0  0  0  0  0  0
  141.9680   73.1991  227.4029 H   0  0  0  0  0  0  0  0  0  0  0  0
  139.8481   70.0720  229.2573 H   0  0  0  0  0  0  0  0  0  0  0  0
  139.3650   69.0588  227.0596 H   0  0  0  0  0  0  0  0  0  0  0  0
  141.8928   75.9908  219.4183 H   0  0  0  0  0  0  0  0  0  0  0  0
  142.6008   78.3559  219.5595 H   0  0  0  0  0  0  0  0  0  0  0  0
  142.6944   80.4759  220.8350 H   0  0  0  0  0  0  0  0  0  0  0  0
  140.8900   80.6216  224.7417 H   0  0  0  0  0  0  0  0  0  0  0  0
  140.2125   78.2418  224.5228 H   0  0  0  0  0  0  0  0  0  0  0  0
  1  2  2  0
  2  3  1  0
  3  4  1  0
  4  5  1  0
  5  6  2  0
  5  7  1  0
  7  8  1  0
  8  9  1  0
  9 10  1  0
 10 11  1  0
 11 12  1  0
 12 13  2  0
 13 14  1  0
 14 15  2  0
 15 16  1  0
 16 17  2  0
  2 18  1  0
 18 19  2  0
 19 20  1  0
 20 21  2  0
 21 22  1  0
 22 23  2  0
 23 24  1  0
 23 25  1  0
 25 26  2  0
 26 27  1  0
 27 28  2  0
 11  7  1  0
 17 12  1  0
 28 18  1  0
 27 21  1  0
  3 29  1  0
  4 30  1  0
  4 31  1  0
  8 32  1  0
  8 33  1  0
  9 34  1  0
  9 35  1  0
 10 36  1  0
 10 37  1  0
 11 38  1  6
 13 39  1  0
 14 40  1  0
 16 41  1  0
 17 42  1  0
 19 43  1  0
 20 44  1  0
 22 45  1  0
 25 46  1  0
 26 47  1  0
M  END
>  <smiles>  (21) 
O=C(NCC(=O)N1CCCC1c1ccncc1)c1ccc2cc(F)ccc2n1

>  <score_type>  (21) 
oracle

>  <origin>  (21) 
autodockgpu

>  <m_score__min__energy>  (21) 
-8.6199999999999992

>  <m_primary>  (21) 
energy

>  <rmsd>  (21) 
8.662076166913725

>  <m_score__min__rmsd>  (21) 
8.662076166913725

>  <meeko>  (21) 
{"free_energy": -8.43, "intermolecular_energy": -9.93, "internal_energy": -1.37, "cluster_size": 18, "cluster_id": 3, "rank_in_cluster": 1}

>  <energy>  (21) 
-8.2

>  <cluster_rmsd>  (21) 
0.64

>  <cluster>  (21) 
1

$$$$

     RDKit          3D

 47 50  0  0  0  0  0  0  0  0999 V2000
  141.3620   72.2560  221.5460 O   0  0  0  0  0  0  0  0  0  0  0  0
  140.4300   72.4140  222.3510 C   0  0  0  0  0  0  0  0  0  0  0  0
  139.5190   73.4860  222.1700 N   0  0  0  0  0  0  0  0  0  0  0  0
  139.7140   74.3580  221.0480 C   0  0  0  0  0  0  0  0  0  0  0  0
  140.9680   75.1330  221.1010 C   0  0  0  0  0  0  0  0  0  0  0  0
  141.4110   75.6910  222.1420 O   0  0  0  0  0  0  0  0  0  0  0  0
  141.7500   75.2760  219.9230 N   0  0  0  0  0  0  0  0  0  0  0  0
  141.3980   74.9350  218.5450 C   0  0  0  0  0  0  0  0  0  0  0  0
  142.0320   76.0300  217.6850 C   0  0  0  0  0  0  0  0  0  0  0  0
  143.0070   76.7380  218.5860 C   0  0  0  0  0  0  0  0  0  0  0  0
  143.1190   75.8070  219.8020 C   0  0  2  0  0  0  0  0  0  0  0  0
  144.0790   74.7050  219.5890 C   0  0  0  0  0  0  0  0  0  0  0  0
  144.7410   74.1850  220.7000 C   0  0  0  0  0  0  0  0  0  0  0  0
  145.6620   73.1440  220.5460 C   0  0  0  0  0  0  0  0  0  0  0  0
  145.9410   72.6120  219.3420 N   0  0  0  0  0  0  0  0  0  0  0  0
  145.3120   73.1030  218.2690 C   0  0  0  0  0  0  0  0  0  0  0  0
  144.3870   74.1400  218.3800 C   0  0  0  0  0  0  0  0  0  0  0  0
  140.2390   71.5170  223.4940 C   0  0  0  0  0  0  0  0  0  0  0  0
  139.5840   70.3130  223.3310 C   0  0  0  0  0  0  0  0  0  0  0  0
  139.4000   69.4600  224.4020 C   0  0  0  0  0  0  0  0  0  0  0  0
  139.8730   69.8060  225.6620 C   0  0  0  0  0  0  0  0  0  0  0  0
  139.7090   68.9800  226.7620 C   0  0  0  0  0  0  0  0  0  0  0  0
  140.2080   69.3910  227.9880 C   0  0  0  0  0  0  0  0  0  0  0  0
  140.0680   68.6090  229.0980 F   0  0  0  0  0  0  0  0  0  0  0  0
  140.8570   70.5940  228.1290 C   0  0  0  0  0  0  0  0  0  0  0  0
  141.0180   71.4130  227.0320 C   0  0  0  0  0  0  0  0  0  0  0  0
  140.5230   71.0140  225.7930 C   0  0  0  0  0  0  0  0  0  0  0  0
  140.6880   71.8260  224.7300 N   0  0  0  0  0  0  0  0  0  0  0  0
  138.7200   73.6270  222.8510 H   0  0  0  0  0  0  0  0  0  0  0  0
  139.7231   73.7475  220.1330 H   0  0  0  0  0  0  0  0  0  0  0  0
  138.8893   75.0858  221.0636 H   0  0  0  0  0  0  0  0  0  0  0  0
  141.8051   73.9492  218.2758 H   0  0  0  0  0  0  0  0  0  0  0  0
  140.3089   74.8790  218.4013 H   0  0  0  0  0  0  0  0  0  0  0  0
  142.5556   75.5877  216.8247 H   0  0  0  0  0  0  0  0  0  0  0  0
  141.2760   76.7196  217.2814 H   0  0  0  0  0  0  0  0  0  0  0  0
  143.9825   76.8574  218.0919 H   0  0  0  0  0  0  0  0  0  0  0  0
  142.6801   77.7534  218.8546 H   0  0  0  0  0  0  0  0  0  0  0  0
  143.4877   76.3308  220.6962 H   0  0  0  0  0  0  0  0  0  0  0  0
  144.5384   74.5946  221.7006 H   0  0  0  0  0  0  0  0  0  0  0  0
  146.1736   72.7483  221.4357 H   0  0  0  0  0  0  0  0  0  0  0  0
  145.5292   72.6795  217.2773 H   0  0  0  0  0  0  0  0  0  0  0  0
  143.8912   74.5145  217.4723 H   0  0  0  0  0  0  0  0  0  0  0  0
  139.2046   70.0298  222.3381 H   0  0  0  0  0  0  0  0  0  0  0  0
  138.8770   68.5032  224.2568 H   0  0  0  0  0  0  0  0  0  0  0  0
  139.1915   68.0143  226.6641 H   0  0  0  0  0  0  0  0  0  0  0  0
  141.2456   70.9015  229.1111 H   0  0  0  0  0  0  0  0  0  0  0  0
  141.5356   72.3782  227.1349 H   0  0  0  0  0  0  0  0  0  0  0  0
  1  2  2  0
  2  3  1  0
  3  4  1  0
  4  5  1  0
  5  6  2  0
  5  7  1  0
  7  8  1  0
  8  9  1  0
  9 10  1  0
 10 11  1  0
 11 12  1  0
 12 13  2  0
 13 14  1  0
 14 15  2  0
 15 16  1  0
 16 17  2  0
  2 18  1  0
 18 19  2  0
 19 20  1  0
 20 21  2  0
 21 22  1  0
 22 23  2  0
 23 24  1  0
 23 25  1  0
 25 26  2  0
 26 27  1  0
 27 28  2  0
 11  7  1  0
 17 12  1  0
 28 18  1  0
 27 21  1  0
  3 29  1  0
  4 30  1  0
  4 31  1  0
  8 32  1  0
  8 33  1  0
  9 34  1  0
  9 35  1  0
 10 36  1  0
 10 37  1  0
 11 38  1  1
 13 39  1  0
 14 40  1  0
 16 41  1  0
 17 42  1  0
 19 43  1  0
 20 44  1  0
 22 45  1  0
 25 46  1  0
 26 47  1  0
M  END
>  <smiles>  (22) 
O=C(NCC(=O)N1CCCC1c1ccncc1)c1ccc2cc(F)ccc2n1

>  <score_type>  (22) 
oracle

>  <origin>  (22) 
autodockgpu

>  <m_score__min__energy>  (22) 
-8.6199999999999992

>  <m_primary>  (22) 
energy

>  <rmsd>  (22) 
1.809490085302186

>  <m_score__min__rmsd>  (22) 
1.809490085302186

>  <meeko>  (22) 
{"free_energy": -8.52, "intermolecular_energy": -10.01, "internal_energy": -1.21, "cluster_size": 9, "cluster_id": 2, "rank_in_cluster": 1}

>  <energy>  (22) 
-8.11

>  <cluster_rmsd>  (22) 
0.67

>  <cluster>  (22) 
1

$$$$

     RDKit          3D

 47 50  0  0  0  0  0  0  0  0999 V2000
  140.8440   71.9520  221.1240 O   0  0  0  0  0  0  0  0  0  0  0  0
  140.3200   72.3820  222.1640 C   0  0  0  0  0  0  0  0  0  0  0  0
  139.8820   73.7300  222.2250 N   0  0  0  0  0  0  0  0  0  0  0  0
  140.0630   74.5540  221.0660 C   0  0  0  0  0  0  0  0  0  0  0  0
  141.4620   74.9600  220.8310 C   0  0  0  0  0  0  0  0  0  0  0  0
  142.4560   74.2040  221.0060 O   0  0  0  0  0  0  0  0  0  0  0  0
  141.7380   76.2780  220.3760 N   0  0  0  0  0  0  0  0  0  0  0  0
  142.9320   76.7800  219.6960 C   0  0  0  0  0  0  0  0  0  0  0  0
  142.4170   77.8000  218.6800 C   0  0  0  0  0  0  0  0  0  0  0  0
  140.9940   78.0840  219.0760 C   0  0  0  0  0  0  0  0  0  0  0  0
  140.8800   77.4710  220.4800 C   0  0  2  0  0  0  0  0  0  0  0  0
  141.3800   78.3720  221.5380 C   0  0  0  0  0  0  0  0  0  0  0  0
  141.3530   77.9180  222.8550 C   0  0  0  0  0  0  0  0  0  0  0  0
  141.8130   78.7390  223.8900 C   0  0  0  0  0  0  0  0  0  0  0  0
  142.2900   79.9750  223.6610 N   0  0  0  0  0  0  0  0  0  0  0  0
  142.3200   80.4210  222.4010 C   0  0  0  0  0  0  0  0  0  0  0  0
  141.8720   79.6340  221.3410 C   0  0  0  0  0  0  0  0  0  0  0  0
  140.1390   71.5310  223.3440 C   0  0  0  0  0  0  0  0  0  0  0  0
  139.4730   70.3270  223.2370 C   0  0  0  0  0  0  0  0  0  0  0  0
  139.2980   69.5180  224.3420 C   0  0  0  0  0  0  0  0  0  0  0  0
  139.7920   69.9080  225.5810 C   0  0  0  0  0  0  0  0  0  0  0  0
  139.6370   69.1260  226.7140 C   0  0  0  0  0  0  0  0  0  0  0  0
  140.1560   69.5800  227.9170 C   0  0  0  0  0  0  0  0  0  0  0  0
  140.0260   68.8430  229.0580 F   0  0  0  0  0  0  0  0  0  0  0  0
  140.8160   70.7830  228.0020 C   0  0  0  0  0  0  0  0  0  0  0  0
  140.9670   71.5570  226.8720 C   0  0  0  0  0  0  0  0  0  0  0  0
  140.4520   71.1150  225.6560 C   0  0  0  0  0  0  0  0  0  0  0  0
  140.6080   71.8840  224.5610 N   0  0  0  0  0  0  0  0  0  0  0  0
  139.4330   74.1040  223.1090 H   0  0  0  0  0  0  0  0  0  0  0  0
  139.7126   73.9949  220.1859 H   0  0  0  0  0  0  0  0  0  0  0  0
  139.4886   75.4762  221.2382 H   0  0  0  0  0  0  0  0  0  0  0  0
  143.6115   77.2612  220.4149 H   0  0  0  0  0  0  0  0  0  0  0  0
  143.5007   75.9712  219.2138 H   0  0  0  0  0  0  0  0  0  0  0  0
  143.0180   78.7204  218.7218 H   0  0  0  0  0  0  0  0  0  0  0  0
  142.4841   77.4180  217.6506 H   0  0  0  0  0  0  0  0  0  0  0  0
  140.8028   79.1669  219.1036 H   0  0  0  0  0  0  0  0  0  0  0  0
  140.2623   77.6683  218.3676 H   0  0  0  0  0  0  0  0  0  0  0  0
  139.8372   77.2622  220.7610 H   0  0  0  0  0  0  0  0  0  0  0  0
  140.9693   76.9122  223.0813 H   0  0  0  0  0  0  0  0  0  0  0  0
  141.7836   78.3618  224.9229 H   0  0  0  0  0  0  0  0  0  0  0  0
  142.7064   81.4304  222.1963 H   0  0  0  0  0  0  0  0  0  0  0  0
  141.9151   80.0381  220.3188 H   0  0  0  0  0  0  0  0  0  0  0  0
  139.0775   70.0086  222.2612 H   0  0  0  0  0  0  0  0  0  0  0  0
  138.7654   68.5608  224.2413 H   0  0  0  0  0  0  0  0  0  0  0  0
  139.1111   68.1613  226.6602 H   0  0  0  0  0  0  0  0  0  0  0  0
  141.2209   71.1254  228.9657 H   0  0  0  0  0  0  0  0  0  0  0  0
  141.4929   72.5214  226.9303 H   0  0  0  0  0  0  0  0  0  0  0  0
  1  2  2  0
  2  3  1  0
  3  4  1  0
  4  5  1  0
  5  6  2  0
  5  7  1  0
  7  8  1  0
  8  9  1  0
  9 10  1  0
 10 11  1  0
 11 12  1  0
 12 13  2  0
 13 14  1  0
 14 15  2  0
 15 16  1  0
 16 17  2  0
  2 18  1  0
 18 19  2  0
 19 20  1  0
 20 21  2  0
 21 22  1  0
 22 23  2  0
 23 24  1  0
 23 25  1  0
 25 26  2  0
 26 27  1  0
 27 28  2  0
 11  7  1  0
 17 12  1  0
 28 18  1  0
 27 21  1  0
  3 29  1  0
  4 30  1  0
  4 31  1  0
  8 32  1  0
  8 33  1  0
  9 34  1  0
  9 35  1  0
 10 36  1  0
 10 37  1  0
 11 38  1  1
 13 39  1  0
 14 40  1  0
 16 41  1  0
 17 42  1  0
 19 43  1  0
 20 44  1  0
 22 45  1  0
 25 46  1  0
 26 47  1  0
M  END
>  <smiles>  (23) 
O=C(NCC(=O)N1CCCC1c1ccncc1)c1ccc2cc(F)ccc2n1

>  <score_type>  (23) 
oracle

>  <origin>  (23) 
autodockgpu

>  <m_score__min__energy>  (23) 
-8.6199999999999992

>  <m_primary>  (23) 
energy

>  <rmsd>  (23) 
2.16920345497953

>  <m_score__min__rmsd>  (23) 
2.16920345497953

>  <meeko>  (23) 
{"free_energy": -8.44, "intermolecular_energy": -9.93, "internal_energy": -1.18, "cluster_size": 22, "cluster_id": 1, "rank_in_cluster": 12}

>  <energy>  (23) 
-8.52

>  <cluster_rmsd>  (23) 
0.0

>  <cluster>  (23) 
2

$$$$

     RDKit          3D

 47 50  0  0  0  0  0  0  0  0999 V2000
  137.6210   75.1660  222.2710 O   0  0  0  0  0  0  0  0  0  0  0  0
  138.8150   75.5070  222.2810 C   0  0  0  0  0  0  0  0  0  0  0  0
  139.8230   74.5460  222.0110 N   0  0  0  0  0  0  0  0  0  0  0  0
  139.4170   73.1990  221.7320 C   0  0  0  0  0  0  0  0  0  0  0  0
  140.1890   72.1760  222.4640 C   0  0  0  0  0  0  0  0  0  0  0  0
  141.4170   71.9540  222.2850 O   0  0  0  0  0  0  0  0  0  0  0  0
  139.5340   71.3770  223.4410 N   0  0  0  0  0  0  0  0  0  0  0  0
  138.1420   71.4310  223.8840 C   0  0  0  0  0  0  0  0  0  0  0  0
  137.7400   69.9760  224.1290 C   0  0  0  0  0  0  0  0  0  0  0  0
  139.0280   69.1980  224.1500 C   0  0  0  0  0  0  0  0  0  0  0  0
  140.1060   70.2870  224.2510 C   0  0  2  0  0  0  0  0  0  0  0  0
  140.3300   70.7430  225.6380 C   0  0  0  0  0  0  0  0  0  0  0  0
  139.8390   69.9550  226.6770 C   0  0  0  0  0  0  0  0  0  0  0  0
  140.0240   70.3500  228.0060 C   0  0  0  0  0  0  0  0  0  0  0  0
  140.6710   71.4840  228.3290 N   0  0  0  0  0  0  0  0  0  0  0  0
  141.1450   72.2480  227.3400 C   0  0  0  0  0  0  0  0  0  0  0  0
  140.9830   71.8900  226.0030 C   0  0  0  0  0  0  0  0  0  0  0  0
  139.2200   76.8860  222.5670 C   0  0  0  0  0  0  0  0  0  0  0  0
  138.2670   77.8720  222.7220 C   0  0  0  0  0  0  0  0  0  0  0  0
  138.6390   79.1750  222.9920 C   0  0  0  0  0  0  0  0  0  0  0  0
  139.9820   79.5100  223.1100 C   0  0  0  0  0  0  0  0  0  0  0  0
  140.3960   80.8040  223.3800 C   0  0  0  0  0  0  0  0  0  0  0  0
  141.7540   81.0650  223.4840 C   0  0  0  0  0  0  0  0  0  0  0  0
  142.2060   82.3250  223.7470 F   0  0  0  0  0  0  0  0  0  0  0  0
  142.6860   80.0680  223.3250 C   0  0  0  0  0  0  0  0  0  0  0  0
  142.2690   78.7820  223.0570 C   0  0  0  0  0  0  0  0  0  0  0  0
  140.9090   78.5040  222.9500 C   0  0  0  0  0  0  0  0  0  0  0  0
  140.5180   77.2420  222.6870 N   0  0  0  0  0  0  0  0  0  0  0  0
  140.8440   74.8290  222.0160 H   0  0  0  0  0  0  0  0  0  0  0  0
  138.3567   73.0936  222.0053 H   0  0  0  0  0  0  0  0  0  0  0  0
  139.5971   73.0276  220.6605 H   0  0  0  0  0  0  0  0  0  0  0  0
  138.0552   72.0161  224.8114 H   0  0  0  0  0  0  0  0  0  0  0  0
  137.4932   71.9161  223.1398 H   0  0  0  0  0  0  0  0  0  0  0  0
  137.2172   69.8791  225.0919 H   0  0  0  0  0  0  0  0  0  0  0  0
  137.0543   69.6070  223.3520 H   0  0  0  0  0  0  0  0  0  0  0  0
  139.0665   68.5254  225.0196 H   0  0  0  0  0  0  0  0  0  0  0  0
  139.1527   68.5537  223.2672 H   0  0  0  0  0  0  0  0  0  0  0  0
  141.0901   69.9313  223.9118 H   0  0  0  0  0  0  0  0  0  0  0  0
  139.3047   69.0203  226.4516 H   0  0  0  0  0  0  0  0  0  0  0  0
  139.6283   69.7138  228.8114 H   0  0  0  0  0  0  0  0  0  0  0  0
  141.6747   73.1799  227.5869 H   0  0  0  0  0  0  0  0  0  0  0  0
  141.3905   72.5463  225.2199 H   0  0  0  0  0  0  0  0  0  0  0  0
  137.2007   77.6181  222.6297 H   0  0  0  0  0  0  0  0  0  0  0  0
  137.8684   79.9504  223.1141 H   0  0  0  0  0  0  0  0  0  0  0  0
  139.6599   81.6110  223.5098 H   0  0  0  0  0  0  0  0  0  0  0  0
  143.7589   80.2949  223.4111 H   0  0  0  0  0  0  0  0  0  0  0  0
  143.0084   77.9778  222.9281 H   0  0  0  0  0  0  0  0  0  0  0  0
  1  2  2  0
  2  3  1  0
  3  4  1  0
  4  5  1  0
  5  6  2  0
  5  7  1  0
  7  8  1  0
  8  9  1  0
  9 10  1  0
 10 11  1  0
 11 12  1  0
 12 13  2  0
 13 14  1  0
 14 15  2  0
 15 16  1  0
 16 17  2  0
  2 18  1  0
 18 19  2  0
 19 20  1  0
 20 21  2  0
 21 22  1  0
 22 23  2  0
 23 24  1  0
 23 25  1  0
 25 26  2  0
 26 27  1  0
 27 28  2  0
 11  7  1  0
 17 12  1  0
 28 18  1  0
 27 21  1  0
  3 29  1  0
  4 30  1  0
  4 31  1  0
  8 32  1  0
  8 33  1  0
  9 34  1  0
  9 35  1  0
 10 36  1  0
 10 37  1  0
 11 38  1  6
 13 39  1  0
 14 40  1  0
 16 41  1  0
 17 42  1  0
 19 43  1  0
 20 44  1  0
 22 45  1  0
 25 46  1  0
 26 47  1  0
M  END
>  <smiles>  (24) 
O=C(NCC(=O)N1CCCC1c1ccncc1)c1ccc2cc(F)ccc2n1

>  <score_type>  (24) 
oracle

>  <origin>  (24) 
autodockgpu

>  <m_score__min__energy>  (24) 
-8.6199999999999992

>  <m_primary>  (24) 
energy

>  <rmsd>  (24) 
8.639484607748349

>  <m_score__min__rmsd>  (24) 
8.639484607748349

>  <meeko>  (24) 
{"free_energy": -7.85, "intermolecular_energy": -9.34, "internal_energy": -1.5, "cluster_size": 18, "cluster_id": 3, "rank_in_cluster": 15}

>  <energy>  (24) 
-8.51

>  <cluster_rmsd>  (24) 
0.16

>  <cluster>  (24) 
2

$$$$

     RDKit          3D

 47 50  0  0  0  0  0  0  0  0999 V2000
  140.7630   73.9790  220.3590 O   0  0  0  0  0  0  0  0  0  0  0  0
  140.3990   74.7160  221.2890 C   0  0  0  0  0  0  0  0  0  0  0  0
  139.5000   74.2210  222.2680 N   0  0  0  0  0  0  0  0  0  0  0  0
  139.0410   72.8680  222.1430 C   0  0  0  0  0  0  0  0  0  0  0  0
  139.9530   71.8680  222.7310 C   0  0  0  0  0  0  0  0  0  0  0  0
  141.1530   71.7110  222.3780 O   0  0  0  0  0  0  0  0  0  0  0  0
  139.4790   71.0160  223.7650 N   0  0  0  0  0  0  0  0  0  0  0  0
  138.1110   70.8410  224.2510 C   0  0  0  0  0  0  0  0  0  0  0  0
  137.9870   69.3520  224.5770 C   0  0  0  0  0  0  0  0  0  0  0  0
  139.3950   68.8220  224.5930 C   0  0  0  0  0  0  0  0  0  0  0  0
  140.2590   70.0910  224.6070 C   0  0  2  0  0  0  0  0  0  0  0  0
  140.4280   70.6520  225.9630 C   0  0  0  0  0  0  0  0  0  0  0  0
  139.8920   69.9470  227.0380 C   0  0  0  0  0  0  0  0  0  0  0  0
  140.0250   70.4420  228.3400 C   0  0  0  0  0  0  0  0  0  0  0  0
  140.6640   71.5970  228.6010 N   0  0  0  0  0  0  0  0  0  0  0  0
  141.1820   72.2820  227.5760 C   0  0  0  0  0  0  0  0  0  0  0  0
  141.0710   71.8230  226.2650 C   0  0  0  0  0  0  0  0  0  0  0  0
  140.8740   76.0970  221.4090 C   0  0  0  0  0  0  0  0  0  0  0  0
  141.7020   76.6340  220.4440 C   0  0  0  0  0  0  0  0  0  0  0  0
  142.1550   77.9350  220.5470 C   0  0  0  0  0  0  0  0  0  0  0  0
  141.7810   78.7230  221.6290 C   0  0  0  0  0  0  0  0  0  0  0  0
  142.2130   80.0310  221.7700 C   0  0  0  0  0  0  0  0  0  0  0  0
  141.7990   80.7570  222.8760 C   0  0  0  0  0  0  0  0  0  0  0  0
  142.2010   82.0490  223.0560 F   0  0  0  0  0  0  0  0  0  0  0  0
  140.9750   80.2040  223.8260 C   0  0  0  0  0  0  0  0  0  0  0  0
  140.5470   78.9020  223.6810 C   0  0  0  0  0  0  0  0  0  0  0  0
  140.9540   78.1600  222.5760 C   0  0  0  0  0  0  0  0  0  0  0  0
  140.5280   76.8870  222.4490 N   0  0  0  0  0  0  0  0  0  0  0  0
  139.1840   74.8430  223.0650 H   0  0  0  0  0  0  0  0  0  0  0  0
  138.0664   72.7855  222.6463 H   0  0  0  0  0  0  0  0  0  0  0  0
  138.9816   72.6503  221.0664 H   0  0  0  0  0  0  0  0  0  0  0  0
  137.9415   71.4483  225.1523 H   0  0  0  0  0  0  0  0  0  0  0  0
  137.3669   71.1617  223.5071 H   0  0  0  0  0  0  0  0  0  0  0  0
  137.5131   69.2124  225.5598 H   0  0  0  0  0  0  0  0  0  0  0  0
  137.3624   68.8251  223.8407 H   0  0  0  0  0  0  0  0  0  0  0  0
  139.5755   68.2142  225.4919 H   0  0  0  0  0  0  0  0  0  0  0  0
  139.6141   68.1655  223.7380 H   0  0  0  0  0  0  0  0  0  0  0  0
  141.2832   69.9017  224.2532 H   0  0  0  0  0  0  0  0  0  0  0  0
  139.3628   68.9987  226.8630 H   0  0  0  0  0  0  0  0  0  0  0  0
  139.5943   69.8699  229.1750 H   0  0  0  0  0  0  0  0  0  0  0  0
  141.7072   73.2284  227.7720 H   0  0  0  0  0  0  0  0  0  0  0  0
  141.5116   72.4171  225.4508 H   0  0  0  0  0  0  0  0  0  0  0  0
  142.0045   76.0192  219.5834 H   0  0  0  0  0  0  0  0  0  0  0  0
  142.8142   78.3488  219.7697 H   0  0  0  0  0  0  0  0  0  0  0  0
  142.8734   80.4862  221.0173 H   0  0  0  0  0  0  0  0  0  0  0  0
  140.6588   80.7967  224.6970 H   0  0  0  0  0  0  0  0  0  0  0  0
  139.8861   78.4509  224.4358 H   0  0  0  0  0  0  0  0  0  0  0  0
  1  2  2  0
  2  3  1  0
  3  4  1  0
  4  5  1  0
  5  6  2  0
  5  7  1  0
  7  8  1  0
  8  9  1  0
  9 10  1  0
 10 11  1  0
 11 12  1  0
 12 13  2  0
 13 14  1  0
 14 15  2  0
 15 16  1  0
 16 17  2  0
  2 18  1  0
 18 19  2  0
 19 20  1  0
 20 21  2  0
 21 22  1  0
 22 23  2  0
 23 24  1  0
 23 25  1  0
 25 26  2  0
 26 27  1  0
 27 28  2  0
 11  7  1  0
 17 12  1  0
 28 18  1  0
 27 21  1  0
  3 29  1  0
  4 30  1  0
  4 31  1  0
  8 32  1  0
  8 33  1  0
  9 34  1  0
  9 35  1  0
 10 36  1  0
 10 37  1  0
 11 38  1  6
 13 39  1  0
 14 40  1  0
 16 41  1  0
 17 42  1  0
 19 43  1  0
 20 44  1  0
 22 45  1  0
 25 46  1  0
 26 47  1  0
M  END
>  <smiles>  (25) 
O=C(NCC(=O)N1CCCC1c1ccncc1)c1ccc2cc(F)ccc2n1

>  <score_type>  (25) 
oracle

>  <origin>  (25) 
autodockgpu

>  <m_score__min__energy>  (25) 
-8.6199999999999992

>  <m_primary>  (25) 
energy

>  <rmsd>  (25) 
8.691256499313479

>  <m_score__min__rmsd>  (25) 
8.691256499313479

>  <meeko>  (25) 
{"free_energy": -8.4, "intermolecular_energy": -9.89, "internal_energy": -1.37, "cluster_size": 18, "cluster_id": 3, "rank_in_cluster": 6}

>  <energy>  (25) 
-8.49

>  <cluster_rmsd>  (25) 
0.15

>  <cluster>  (25) 
2

$$$$

     RDKit          3D

 47 50  0  0  0  0  0  0  0  0999 V2000
  141.1180   72.9670  222.1310 O   0  0  0  0  0  0  0  0  0  0  0  0
  140.0600   72.6670  222.7070 C   0  0  0  0  0  0  0  0  0  0  0  0
  138.8510   73.3080  222.3340 N   0  0  0  0  0  0  0  0  0  0  0  0
  138.9000   74.2920  221.2910 C   0  0  0  0  0  0  0  0  0  0  0  0
  139.1840   75.6590  221.7700 C   0  0  0  0  0  0  0  0  0  0  0  0
  138.4890   76.2670  222.6280 O   0  0  0  0  0  0  0  0  0  0  0  0
  140.3070   76.3590  221.2500 N   0  0  0  0  0  0  0  0  0  0  0  0
  141.6580   75.8610  220.9960 C   0  0  0  0  0  0  0  0  0  0  0  0
  142.1120   76.5620  219.7150 C   0  0  0  0  0  0  0  0  0  0  0  0
  141.1340   77.6860  219.5010 C   0  0  0  0  0  0  0  0  0  0  0  0
  140.3830   77.7720  220.8370 C   0  0  2  0  0  0  0  0  0  0  0  0
  141.1090   78.5630  221.8510 C   0  0  0  0  0  0  0  0  0  0  0  0
  141.8560   79.6580  221.4200 C   0  0  0  0  0  0  0  0  0  0  0  0
  142.5630   80.4340  222.3440 C   0  0  0  0  0  0  0  0  0  0  0  0
  142.5510   80.1610  223.6610 N   0  0  0  0  0  0  0  0  0  0  0  0
  141.8380   79.1130  224.0860 C   0  0  0  0  0  0  0  0  0  0  0  0
  141.1190   78.3150  223.1970 C   0  0  0  0  0  0  0  0  0  0  0  0
  140.0200   71.6590  223.7700 C   0  0  0  0  0  0  0  0  0  0  0  0
  139.4410   70.4280  223.5410 C   0  0  0  0  0  0  0  0  0  0  0  0
  139.3990   69.4720  224.5370 C   0  0  0  0  0  0  0  0  0  0  0  0
  139.9420   69.7390  225.7870 C   0  0  0  0  0  0  0  0  0  0  0  0
  139.9200   68.8080  226.8130 C   0  0  0  0  0  0  0  0  0  0  0  0
  140.4810   69.1450  228.0350 C   0  0  0  0  0  0  0  0  0  0  0  0
  140.4810   68.2600  229.0730 F   0  0  0  0  0  0  0  0  0  0  0  0
  141.0530   70.3770  228.2430 C   0  0  0  0  0  0  0  0  0  0  0  0
  141.0720   71.3000  227.2200 C   0  0  0  0  0  0  0  0  0  0  0  0
  140.5130   70.9770  225.9860 C   0  0  0  0  0  0  0  0  0  0  0  0
  140.5390   71.8900  224.9960 N   0  0  0  0  0  0  0  0  0  0  0  0
  137.9430   73.0580  222.8190 H   0  0  0  0  0  0  0  0  0  0  0  0
  139.6881   74.0037  220.5798 H   0  0  0  0  0  0  0  0  0  0  0  0
  137.9020   74.3169  220.8290 H   0  0  0  0  0  0  0  0  0  0  0  0
  142.3260   76.1155  221.8320 H   0  0  0  0  0  0  0  0  0  0  0  0
  141.6791   74.7660  220.8939 H   0  0  0  0  0  0  0  0  0  0  0  0
  143.1315   76.9574  219.8342 H   0  0  0  0  0  0  0  0  0  0  0  0
  142.1331   75.8719  218.8586 H   0  0  0  0  0  0  0  0  0  0  0  0
  141.6596   78.6278  219.2848 H   0  0  0  0  0  0  0  0  0  0  0  0
  140.4647   77.5125  218.6454 H   0  0  0  0  0  0  0  0  0  0  0  0
  139.4094   78.2738  220.7360 H   0  0  0  0  0  0  0  0  0  0  0  0
  141.8895   79.9124  220.3504 H   0  0  0  0  0  0  0  0  0  0  0  0
  143.1466   81.2936  221.9828 H   0  0  0  0  0  0  0  0  0  0  0  0
  141.8182   78.8752  225.1598 H   0  0  0  0  0  0  0  0  0  0  0  0
  140.5440   77.4627  223.5882 H   0  0  0  0  0  0  0  0  0  0  0  0
  139.0081   70.2054  222.5546 H   0  0  0  0  0  0  0  0  0  0  0  0
  138.9335   68.4951  224.3393 H   0  0  0  0  0  0  0  0  0  0  0  0
  139.4650   67.8182  226.6604 H   0  0  0  0  0  0  0  0  0  0  0  0
  141.4930   70.6249  229.2202 H   0  0  0  0  0  0  0  0  0  0  0  0
  141.5273   72.2889  227.3776 H   0  0  0  0  0  0  0  0  0  0  0  0
  1  2  2  0
  2  3  1  0
  3  4  1  0
  4  5  1  0
  5  6  2  0
  5  7  1  0
  7  8  1  0
  8  9  1  0
  9 10  1  0
 10 11  1  0
 11 12  1  0
 12 13  2  0
 13 14  1  0
 14 15  2  0
 15 16  1  0
 16 17  2  0
  2 18  1  0
 18 19  2  0
 19 20  1  0
 20 21  2  0
 21 22  1  0
 22 23  2  0
 23 24  1  0
 23 25  1  0
 25 26  2  0
 26 27  1  0
 27 28  2  0
 11  7  1  0
 17 12  1  0
 28 18  1  0
 27 21  1  0
  3 29  1  0
  4 30  1  0
  4 31  1  0
  8 32  1  0
  8 33  1  0
  9 34  1  0
  9 35  1  0
 10 36  1  0
 10 37  1  0
 11 38  1  6
 13 39  1  0
 14 40  1  0
 16 41  1  0
 17 42  1  0
 19 43  1  0
 20 44  1  0
 22 45  1  0
 25 46  1  0
 26 47  1  0
M  END
>  <smiles>  (26) 
O=C(NCC(=O)N1CCCC1c1ccncc1)c1ccc2cc(F)ccc2n1

>  <score_type>  (26) 
oracle

>  <origin>  (26) 
autodockgpu

>  <m_score__min__energy>  (26) 
-8.6199999999999992

>  <m_primary>  (26) 
energy

>  <rmsd>  (26) 
2.0078656396798604

>  <m_score__min__rmsd>  (26) 
2.0078656396798604

>  <meeko>  (26) 
{"free_energy": -8.52, "intermolecular_energy": -10.01, "internal_energy": -1.26, "cluster_size": 22, "cluster_id": 1, "rank_in_cluster": 7}

>  <energy>  (26) 
-8.46

>  <cluster_rmsd>  (26) 
0.17

>  <cluster>  (26) 
2

$$$$

     RDKit          3D

 47 50  0  0  0  0  0  0  0  0999 V2000
  141.3690   72.6980  221.9330 O   0  0  0  0  0  0  0  0  0  0  0  0
  140.3160   72.6100  222.5850 C   0  0  0  0  0  0  0  0  0  0  0  0
  139.2240   73.4610  222.2760 N   0  0  0  0  0  0  0  0  0  0  0  0
  139.3820   74.4030  221.2070 C   0  0  0  0  0  0  0  0  0  0  0  0
  139.4820   75.8060  221.6540 C   0  0  0  0  0  0  0  0  0  0  0  0
  138.7240   76.3300  222.5150 O   0  0  0  0  0  0  0  0  0  0  0  0
  140.4870   76.6450  221.0980 N   0  0  0  0  0  0  0  0  0  0  0  0
  141.8260   76.2830  220.6350 C   0  0  0  0  0  0  0  0  0  0  0  0
  142.0750   77.1550  219.4040 C   0  0  0  0  0  0  0  0  0  0  0  0
  141.0100   78.2170  219.4370 C   0  0  0  0  0  0  0  0  0  0  0  0
  140.4220   78.0960  220.8510 C   0  0  2  0  0  0  0  0  0  0  0  0
  141.2140   78.8230  221.8630 C   0  0  0  0  0  0  0  0  0  0  0  0
  141.1060   78.4260  223.1940 C   0  0  0  0  0  0  0  0  0  0  0  0
  141.8350   79.0900  224.1860 C   0  0  0  0  0  0  0  0  0  0  0  0
  142.6540   80.1180  223.9020 N   0  0  0  0  0  0  0  0  0  0  0  0
  142.7650   80.5080  222.6280 C   0  0  0  0  0  0  0  0  0  0  0  0
  142.0570   79.8730  221.6090 C   0  0  0  0  0  0  0  0  0  0  0  0
  140.1650   71.6430  223.6760 C   0  0  0  0  0  0  0  0  0  0  0  0
  139.5010   70.4520  223.4630 C   0  0  0  0  0  0  0  0  0  0  0  0
  139.3530   69.5340  224.4840 C   0  0  0  0  0  0  0  0  0  0  0  0
  139.8730   69.7990  225.7450 C   0  0  0  0  0  0  0  0  0  0  0  0
  139.7470   68.9060  226.7960 C   0  0  0  0  0  0  0  0  0  0  0  0
  140.2920   69.2390  228.0260 C   0  0  0  0  0  0  0  0  0  0  0  0
  140.1900   68.3890  229.0890 F   0  0  0  0  0  0  0  0  0  0  0  0
  140.9490   70.4300  228.2180 C   0  0  0  0  0  0  0  0  0  0  0  0
  141.0720   71.3160  227.1690 C   0  0  0  0  0  0  0  0  0  0  0  0
  140.5310   70.9960  225.9270 C   0  0  0  0  0  0  0  0  0  0  0  0
  140.6590   71.8730  224.9120 N   0  0  0  0  0  0  0  0  0  0  0  0
  138.3220   73.3920  222.8280 H   0  0  0  0  0  0  0  0  0  0  0  0
  140.2991   74.1495  220.6551 H   0  0  0  0  0  0  0  0  0  0  0  0
  138.4790   74.3311  220.5830 H   0  0  0  0  0  0  0  0  0  0  0  0
  142.5734   76.4935  221.4142 H   0  0  0  0  0  0  0  0  0  0  0  0
  141.9039   75.2109  220.4015 H   0  0  0  0  0  0  0  0  0  0  0  0
  143.0744   77.6120  219.4532 H   0  0  0  0  0  0  0  0  0  0  0  0
  142.0348   76.5676  218.4748 H   0  0  0  0  0  0  0  0  0  0  0  0
  141.4451   79.2145  219.2767 H   0  0  0  0  0  0  0  0  0  0  0  0
  140.2545   78.0890  218.6478 H   0  0  0  0  0  0  0  0  0  0  0  0
  139.4133   78.5292  220.9216 H   0  0  0  0  0  0  0  0  0  0  0  0
  140.4462   77.5888  223.4653 H   0  0  0  0  0  0  0  0  0  0  0  0
  141.7353   78.7610  225.2309 H   0  0  0  0  0  0  0  0  0  0  0  0
  143.4295   81.3483  222.3786 H   0  0  0  0  0  0  0  0  0  0  0  0
  142.1782   80.2240  220.5736 H   0  0  0  0  0  0  0  0  0  0  0  0
  139.0850   70.2315  222.4688 H   0  0  0  0  0  0  0  0  0  0  0  0
  138.8213   68.5891  224.2982 H   0  0  0  0  0  0  0  0  0  0  0  0
  139.2233   67.9487  226.6569 H   0  0  0  0  0  0  0  0  0  0  0  0
  141.3742   70.6752  229.2024 H   0  0  0  0  0  0  0  0  0  0  0  0
  141.5958   72.2725  227.3130 H   0  0  0  0  0  0  0  0  0  0  0  0
  1  2  2  0
  2  3  1  0
  3  4  1  0
  4  5  1  0
  5  6  2  0
  5  7  1  0
  7  8  1  0
  8  9  1  0
  9 10  1  0
 10 11  1  0
 11 12  1  0
 12 13  2  0
 13 14  1  0
 14 15  2  0
 15 16  1  0
 16 17  2  0
  2 18  1  0
 18 19  2  0
 19 20  1  0
 20 21  2  0
 21 22  1  0
 22 23  2  0
 23 24  1  0
 23 25  1  0
 25 26  2  0
 26 27  1  0
 27 28  2  0
 11  7  1  0
 17 12  1  0
 28 18  1  0
 27 21  1  0
  3 29  1  0
  4 30  1  0
  4 31  1  0
  8 32  1  0
  8 33  1  0
  9 34  1  0
  9 35  1  0
 10 36  1  0
 10 37  1  0
 11 38  1  6
 13 39  1  0
 14 40  1  0
 16 41  1  0
 17 42  1  0
 19 43  1  0
 20 44  1  0
 22 45  1  0
 25 46  1  0
 26 47  1  0
M  END
>  <smiles>  (27) 
O=C(NCC(=O)N1CCCC1c1ccncc1)c1ccc2cc(F)ccc2n1

>  <score_type>  (27) 
oracle

>  <origin>  (27) 
autodockgpu

>  <m_score__min__energy>  (27) 
-8.6199999999999992

>  <m_primary>  (27) 
energy

>  <rmsd>  (27) 
2.0700201977883066

>  <m_score__min__rmsd>  (27) 
2.0700201977883066

>  <meeko>  (27) 
{"free_energy": -8.6, "intermolecular_energy": -10.09, "internal_energy": -1.23, "cluster_size": 22, "cluster_id": 1, "rank_in_cluster": 4}

>  <energy>  (27) 
-8.45

>  <cluster_rmsd>  (27) 
0.18

>  <cluster>  (27) 
2

$$$$

     RDKit          3D

 47 50  0  0  0  0  0  0  0  0999 V2000
  140.8160   71.9480  221.1250 O   0  0  0  0  0  0  0  0  0  0  0  0
  140.3110   72.3850  222.1720 C   0  0  0  0  0  0  0  0  0  0  0  0
  139.8960   73.7390  222.2400 N   0  0  0  0  0  0  0  0  0  0  0  0
  140.0800   74.5630  221.0800 C   0  0  0  0  0  0  0  0  0  0  0  0
  141.4810   74.9590  220.8420 C   0  0  0  0  0  0  0  0  0  0  0  0
  142.4710   74.1990  221.0210 O   0  0  0  0  0  0  0  0  0  0  0  0
  141.7650   76.2730  220.3780 N   0  0  0  0  0  0  0  0  0  0  0  0
  142.9620   76.7640  219.6980 C   0  0  0  0  0  0  0  0  0  0  0  0
  142.4550   77.7800  218.6730 C   0  0  0  0  0  0  0  0  0  0  0  0
  141.0320   78.0730  219.0640 C   0  0  0  0  0  0  0  0  0  0  0  0
  140.9120   77.4710  220.4710 C   0  0  2  0  0  0  0  0  0  0  0  0
  141.4130   78.3760  221.5240 C   0  0  0  0  0  0  0  0  0  0  0  0
  141.3580   77.9420  222.8470 C   0  0  0  0  0  0  0  0  0  0  0  0
  141.8180   78.7690  223.8780 C   0  0  0  0  0  0  0  0  0  0  0  0
  142.3230   79.9920  223.6380 N   0  0  0  0  0  0  0  0  0  0  0  0
  142.3800   80.4200  222.3720 C   0  0  0  0  0  0  0  0  0  0  0  0
  141.9330   79.6270  221.3170 C   0  0  0  0  0  0  0  0  0  0  0  0
  140.1270   71.5350  223.3510 C   0  0  0  0  0  0  0  0  0  0  0  0
  139.4870   70.3170  223.2380 C   0  0  0  0  0  0  0  0  0  0  0  0
  139.3090   69.5090  224.3430 C   0  0  0  0  0  0  0  0  0  0  0  0
  139.7740   69.9130  225.5890 C   0  0  0  0  0  0  0  0  0  0  0  0
  139.6160   69.1320  226.7220 C   0  0  0  0  0  0  0  0  0  0  0  0
  140.1060   69.6010  227.9320 C   0  0  0  0  0  0  0  0  0  0  0  0
  139.9710   68.8660  229.0730 F   0  0  0  0  0  0  0  0  0  0  0  0
  140.7390   70.8160  228.0230 C   0  0  0  0  0  0  0  0  0  0  0  0
  140.8940   71.5900  226.8930 C   0  0  0  0  0  0  0  0  0  0  0  0
  140.4080   71.1330  225.6700 C   0  0  0  0  0  0  0  0  0  0  0  0
  140.5680   71.9010  224.5740 N   0  0  0  0  0  0  0  0  0  0  0  0
  139.4630   74.1200  223.1290 H   0  0  0  0  0  0  0  0  0  0  0  0
  139.7235   74.0069  220.2005 H   0  0  0  0  0  0  0  0  0  0  0  0
  139.5125   75.4891  221.2539 H   0  0  0  0  0  0  0  0  0  0  0  0
  143.6421   77.2467  220.4153 H   0  0  0  0  0  0  0  0  0  0  0  0
  143.5275   75.9489  219.2228 H   0  0  0  0  0  0  0  0  0  0  0  0
  143.0602   78.6978  218.7102 H   0  0  0  0  0  0  0  0  0  0  0  0
  142.5233   77.3913  217.6463 H   0  0  0  0  0  0  0  0  0  0  0  0
  140.8455   79.1569  219.0835 H   0  0  0  0  0  0  0  0  0  0  0  0
  140.3002   77.6553  218.3569 H   0  0  0  0  0  0  0  0  0  0  0  0
  139.8673   77.2694  220.7502 H   0  0  0  0  0  0  0  0  0  0  0  0
  140.9520   76.9469  223.0816 H   0  0  0  0  0  0  0  0  0  0  0  0
  141.7649   78.4079  224.9157 H   0  0  0  0  0  0  0  0  0  0  0  0
  142.7883   81.4190  222.1592 H   0  0  0  0  0  0  0  0  0  0  0  0
  141.9993   80.0157  220.2901 H   0  0  0  0  0  0  0  0  0  0  0  0
  139.1149   69.9868  222.2569 H   0  0  0  0  0  0  0  0  0  0  0  0
  138.7970   68.5412  224.2370 H   0  0  0  0  0  0  0  0  0  0  0  0
  139.1107   68.1567  226.6632 H   0  0  0  0  0  0  0  0  0  0  0  0
  141.1203   71.1698  228.9923 H   0  0  0  0  0  0  0  0  0  0  0  0
  141.3995   72.5649  226.9567 H   0  0  0  0  0  0  0  0  0  0  0  0
  1  2  2  0
  2  3  1  0
  3  4  1  0
  4  5  1  0
  5  6  2  0
  5  7  1  0
  7  8  1  0
  8  9  1  0
  9 10  1  0
 10 11  1  0
 11 12  1  0
 12 13  2  0
 13 14  1  0
 14 15  2  0
 15 16  1  0
 16 17  2  0
  2 18  1  0
 18 19  2  0
 19 20  1  0
 20 21  2  0
 21 22  1  0
 22 23  2  0
 23 24  1  0
 23 25  1  0
 25 26  2  0
 26 27  1  0
 27 28  2  0
 11  7  1  0
 17 12  1  0
 28 18  1  0
 27 21  1  0
  3 29  1  0
  4 30  1  0
  4 31  1  0
  8 32  1  0
  8 33  1  0
  9 34  1  0
  9 35  1  0
 10 36  1  0
 10 37  1  0
 11 38  1  1
 13 39  1  0
 14 40  1  0
 16 41  1  0
 17 42  1  0
 19 43  1  0
 20 44  1  0
 22 45  1  0
 25 46  1  0
 26 47  1  0
M  END
>  <smiles>  (28) 
O=C(NCC(=O)N1CCCC1c1ccncc1)c1ccc2cc(F)ccc2n1

>  <score_type>  (28) 
oracle

>  <origin>  (28) 
autodockgpu

>  <m_score__min__energy>  (28) 
-8.6199999999999992

>  <m_primary>  (28) 
energy

>  <rmsd>  (28) 
2.1764177633815986

>  <m_score__min__rmsd>  (28) 
2.1764177633815986

>  <meeko>  (28) 
{"free_energy": -8.43, "intermolecular_energy": -9.92, "internal_energy": -1.19, "cluster_size": 22, "cluster_id": 1, "rank_in_cluster": 13}

>  <energy>  (28) 
-8.26

>  <cluster_rmsd>  (28) 
0.39

>  <cluster>  (28) 
2

$$$$

     RDKit          3D

 47 50  0  0  0  0  0  0  0  0999 V2000
  141.1640   72.3040  221.4900 O   0  0  0  0  0  0  0  0  0  0  0  0
  140.3240   72.4980  222.3830 C   0  0  0  0  0  0  0  0  0  0  0  0
  139.4720   73.6300  222.3130 N   0  0  0  0  0  0  0  0  0  0  0  0
  139.6160   74.5170  221.1960 C   0  0  0  0  0  0  0  0  0  0  0  0
  140.5300   75.6490  221.4430 C   0  0  0  0  0  0  0  0  0  0  0  0
  141.7750   75.5310  221.6010 O   0  0  0  0  0  0  0  0  0  0  0  0
  140.0030   76.9680  221.5110 N   0  0  0  0  0  0  0  0  0  0  0  0
  139.6410   77.8660  220.4150 C   0  0  0  0  0  0  0  0  0  0  0  0
  138.3920   78.6050  220.8960 C   0  0  0  0  0  0  0  0  0  0  0  0
  138.3120   78.3460  222.3760 C   0  0  0  0  0  0  0  0  0  0  0  0
  139.6900   77.7580  222.7150 C   0  0  2  0  0  0  0  0  0  0  0  0
  140.7170   78.7980  222.9270 C   0  0  0  0  0  0  0  0  0  0  0  0
  140.3430   79.9690  223.5820 C   0  0  0  0  0  0  0  0  0  0  0  0
  141.2820   80.9830  223.8010 C   0  0  0  0  0  0  0  0  0  0  0  0
  142.5600   80.8690  223.3970 N   0  0  0  0  0  0  0  0  0  0  0  0
  142.9300   79.7500  222.7670 C   0  0  0  0  0  0  0  0  0  0  0  0
  142.0250   78.7160  222.5290 C   0  0  0  0  0  0  0  0  0  0  0  0
  140.1840   71.5840  223.5210 C   0  0  0  0  0  0  0  0  0  0  0  0
  139.5570   70.3660  223.3610 C   0  0  0  0  0  0  0  0  0  0  0  0
  139.4210   69.4980  224.4260 C   0  0  0  0  0  0  0  0  0  0  0  0
  139.9150   69.8420  225.6780 C   0  0  0  0  0  0  0  0  0  0  0  0
  139.7990   69.0010  226.7720 C   0  0  0  0  0  0  0  0  0  0  0  0
  140.3160   69.4120  227.9910 C   0  0  0  0  0  0  0  0  0  0  0  0
  140.2230   68.6150  229.0950 F   0  0  0  0  0  0  0  0  0  0  0  0
  140.9360   70.6290  228.1300 C   0  0  0  0  0  0  0  0  0  0  0  0
  141.0500   71.4640  227.0380 C   0  0  0  0  0  0  0  0  0  0  0  0
  140.5360   71.0650  225.8070 C   0  0  0  0  0  0  0  0  0  0  0  0
  140.6540   71.8920  224.7490 N   0  0  0  0  0  0  0  0  0  0  0  0
  138.7520   73.8020  223.0710 H   0  0  0  0  0  0  0  0  0  0  0  0
  140.0028   73.9396  220.3433 H   0  0  0  0  0  0  0  0  0  0  0  0
  138.6225   74.9467  221.0004 H   0  0  0  0  0  0  0  0  0  0  0  0
  140.4560   78.5769  220.2139 H   0  0  0  0  0  0  0  0  0  0  0  0
  139.4588   77.3182  219.4787 H   0  0  0  0  0  0  0  0  0  0  0  0
  138.4846   79.6834  220.6996 H   0  0  0  0  0  0  0  0  0  0  0  0
  137.4882   78.2588  220.3732 H   0  0  0  0  0  0  0  0  0  0  0  0
  138.1368   79.2804  222.9293 H   0  0  0  0  0  0  0  0  0  0  0  0
  137.4829   77.6764  222.6485 H   0  0  0  0  0  0  0  0  0  0  0  0
  139.6788   77.1810  223.6515 H   0  0  0  0  0  0  0  0  0  0  0  0
  139.3067   80.0970  223.9280 H   0  0  0  0  0  0  0  0  0  0  0  0
  140.9658   81.9005  224.3188 H   0  0  0  0  0  0  0  0  0  0  0  0
  143.9711   79.6422  222.4288 H   0  0  0  0  0  0  0  0  0  0  0  0
  142.3706   77.8109  222.0081 H   0  0  0  0  0  0  0  0  0  0  0  0
  139.1611   70.0832  222.3744 H   0  0  0  0  0  0  0  0  0  0  0  0
  138.9192   68.5297  224.2825 H   0  0  0  0  0  0  0  0  0  0  0  0
  139.3048   68.0230  226.6755 H   0  0  0  0  0  0  0  0  0  0  0  0
  141.3394   70.9363  229.1062 H   0  0  0  0  0  0  0  0  0  0  0  0
  141.5450   72.4411  227.1392 H   0  0  0  0  0  0  0  0  0  0  0  0
  1  2  2  0
  2  3  1  0
  3  4  1  0
  4  5  1  0
  5  6  2  0
  5  7  1  0
  7  8  1  0
  8  9  1  0
  9 10  1  0
 10 11  1  0
 11 12  1  0
 12 13  2  0
 13 14  1  0
 14 15  2  0
 15 16  1  0
 16 17  2  0
  2 18  1  0
 18 19  2  0
 19 20  1  0
 20 21  2  0
 21 22  1  0
 22 23  2  0
 23 24  1  0
 23 25  1  0
 25 26  2  0
 26 27  1  0
 27 28  2  0
 11  7  1  0
 17 12  1  0
 28 18  1  0
 27 21  1  0
  3 29  1  0
  4 30  1  0
  4 31  1  0
  8 32  1  0
  8 33  1  0
  9 34  1  0
  9 35  1  0
 10 36  1  0
 10 37  1  0
 11 38  1  1
 13 39  1  0
 14 40  1  0
 16 41  1  0
 17 42  1  0
 19 43  1  0
 20 44  1  0
 22 45  1  0
 25 46  1  0
 26 47  1  0
M  END
>  <smiles>  (29) 
O=C(NCC(=O)N1CCCC1c1ccncc1)c1ccc2cc(F)ccc2n1

>  <score_type>  (29) 
oracle

>  <origin>  (29) 
autodockgpu

>  <m_score__min__energy>  (29) 
-8.6199999999999992

>  <m_primary>  (29) 
energy

>  <rmsd>  (29) 
2.6719268060692456

>  <m_score__min__rmsd>  (29) 
2.6719268060692456

>  <meeko>  (29) 
{"free_energy": -8.4, "intermolecular_energy": -9.89, "internal_energy": -1.14, "cluster_size": 22, "cluster_id": 1, "rank_in_cluster": 16}

>  <energy>  (29) 
-8.16

>  <cluster_rmsd>  (29) 
1.27

>  <cluster>  (29) 
2

$$$$

     RDKit          3D

 47 50  0  0  0  0  0  0  0  0999 V2000
  141.0600   73.9090  220.3490 O   0  0  0  0  0  0  0  0  0  0  0  0
  140.5720   74.6700  221.2000 C   0  0  0  0  0  0  0  0  0  0  0  0
  139.5790   74.1850  222.0900 N   0  0  0  0  0  0  0  0  0  0  0  0
  139.1720   72.8150  221.9690 C   0  0  0  0  0  0  0  0  0  0  0  0
  140.0380   71.8660  222.6950 C   0  0  0  0  0  0  0  0  0  0  0  0
  141.2660   71.7060  222.4580 O   0  0  0  0  0  0  0  0  0  0  0  0
  139.4820   71.0690  223.7330 N   0  0  0  0  0  0  0  0  0  0  0  0
  138.1060   71.0390  224.2250 C   0  0  0  0  0  0  0  0  0  0  0  0
  137.8280   69.5720  224.5550 C   0  0  0  0  0  0  0  0  0  0  0  0
  139.1730   68.8980  224.5660 C   0  0  0  0  0  0  0  0  0  0  0  0
  140.1650   70.0700  224.5730 C   0  0  2  0  0  0  0  0  0  0  0  0
  140.3980   70.6130  225.9270 C   0  0  0  0  0  0  0  0  0  0  0  0
  141.1230   71.7960  226.0460 C   0  0  0  0  0  0  0  0  0  0  0  0
  141.3710   72.3440  227.3090 C   0  0  0  0  0  0  0  0  0  0  0  0
  140.9280   71.7620  228.4380 N   0  0  0  0  0  0  0  0  0  0  0  0
  140.2320   70.6250  228.3360 C   0  0  0  0  0  0  0  0  0  0  0  0
  139.9630   70.0470  227.0960 C   0  0  0  0  0  0  0  0  0  0  0  0
  140.9960   76.0680  221.3160 C   0  0  0  0  0  0  0  0  0  0  0  0
  141.7260   76.6590  220.3060 C   0  0  0  0  0  0  0  0  0  0  0  0
  142.1290   77.9760  220.4060 C   0  0  0  0  0  0  0  0  0  0  0  0
  141.8030   78.7260  221.5290 C   0  0  0  0  0  0  0  0  0  0  0  0
  142.1880   80.0490  221.6690 C   0  0  0  0  0  0  0  0  0  0  0  0
  141.8260   80.7340  222.8180 C   0  0  0  0  0  0  0  0  0  0  0  0
  142.1850   82.0390  222.9970 F   0  0  0  0  0  0  0  0  0  0  0  0
  141.0990   80.1270  223.8130 C   0  0  0  0  0  0  0  0  0  0  0  0
  140.7180   78.8100  223.6700 C   0  0  0  0  0  0  0  0  0  0  0  0
  141.0730   78.1080  222.5210 C   0  0  0  0  0  0  0  0  0  0  0  0
  140.6930   76.8210  222.3960 N   0  0  0  0  0  0  0  0  0  0  0  0
  139.1580   74.8280  222.8200 H   0  0  0  0  0  0  0  0  0  0  0  0
  138.1494   72.7217  222.3634 H   0  0  0  0  0  0  0  0  0  0  0  0
  139.2394   72.5557  220.9021 H   0  0  0  0  0  0  0  0  0  0  0  0
  138.0051   71.6624  225.1256 H   0  0  0  0  0  0  0  0  0  0  0  0
  137.3963   71.4344  223.4834 H   0  0  0  0  0  0  0  0  0  0  0  0
  137.3466   69.4846  225.5402 H   0  0  0  0  0  0  0  0  0  0  0  0
  137.1481   69.1119  223.8229 H   0  0  0  0  0  0  0  0  0  0  0  0
  139.2933   68.2764  225.4655 H   0  0  0  0  0  0  0  0  0  0  0  0
  139.3183   68.2206  223.7116 H   0  0  0  0  0  0  0  0  0  0  0  0
  141.1622   69.7742  224.2150 H   0  0  0  0  0  0  0  0  0  0  0  0
  141.5015   72.3007  225.1449 H   0  0  0  0  0  0  0  0  0  0  0  0
  141.9457   73.2792  227.3811 H   0  0  0  0  0  0  0  0  0  0  0  0
  139.8638   70.1353  229.2496 H   0  0  0  0  0  0  0  0  0  0  0  0
  139.3860   69.1114  227.0554 H   0  0  0  0  0  0  0  0  0  0  0  0
  141.9899   76.0753  219.4117 H   0  0  0  0  0  0  0  0  0  0  0  0
  142.7110   78.4335  219.5924 H   0  0  0  0  0  0  0  0  0  0  0  0
  142.7715   80.5478  220.8812 H   0  0  0  0  0  0  0  0  0  0  0  0
  140.8227   80.6882  224.7179 H   0  0  0  0  0  0  0  0  0  0  0  0
  140.1354   78.3152  224.4610 H   0  0  0  0  0  0  0  0  0  0  0  0
  1  2  2  0
  2  3  1  0
  3  4  1  0
  4  5  1  0
  5  6  2  0
  5  7  1  0
  7  8  1  0
  8  9  1  0
  9 10  1  0
 10 11  1  0
 11 12  1  0
 12 13  2  0
 13 14  1  0
 14 15  2  0
 15 16  1  0
 16 17  2  0
  2 18  1  0
 18 19  2  0
 19 20  1  0
 20 21  2  0
 21 22  1  0
 22 23  2  0
 23 24  1  0
 23 25  1  0
 25 26  2  0
 26 27  1  0
 27 28  2  0
 11  7  1  0
 17 12  1  0
 28 18  1  0
 27 21  1  0
  3 29  1  0
  4 30  1  0
  4 31  1  0
  8 32  1  0
  8 33  1  0
  9 34  1  0
  9 35  1  0
 10 36  1  0
 10 37  1  0
 11 38  1  6
 13 39  1  0
 14 40  1  0
 16 41  1  0
 17 42  1  0
 19 43  1  0
 20 44  1  0
 22 45  1  0
 25 46  1  0
 26 47  1  0
M  END
>  <smiles>  (30) 
O=C(NCC(=O)N1CCCC1c1ccncc1)c1ccc2cc(F)ccc2n1

>  <score_type>  (30) 
oracle

>  <origin>  (30) 
autodockgpu

>  <m_score__min__energy>  (30) 
-8.6199999999999992

>  <m_primary>  (30) 
energy

>  <rmsd>  (30) 
8.681384582675165

>  <m_score__min__rmsd>  (30) 
8.681384582675165

>  <meeko>  (30) 
{"free_energy": -8.4, "intermolecular_energy": -9.89, "internal_energy": -1.4, "cluster_size": 18, "cluster_id": 3, "rank_in_cluster": 5}

>  <energy>  (30) 
-8.09

>  <cluster_rmsd>  (30) 
0.79

>  <cluster>  (30) 
2

$$$$

     RDKit          3D

 47 50  0  0  0  0  0  0  0  0999 V2000
  141.7860   73.5120  220.6490 O   0  0  0  0  0  0  0  0  0  0  0  0
  141.0900   74.2790  221.3340 C   0  0  0  0  0  0  0  0  0  0  0  0
  140.0880   73.7480  222.1860 N   0  0  0  0  0  0  0  0  0  0  0  0
  139.9160   72.3240  222.2220 C   0  0  0  0  0  0  0  0  0  0  0  0
  138.6250   71.8910  222.7930 C   0  0  0  0  0  0  0  0  0  0  0  0
  137.5060   72.3570  222.4460 O   0  0  0  0  0  0  0  0  0  0  0  0
  138.6110   70.8860  223.7980 N   0  0  0  0  0  0  0  0  0  0  0  0
  137.4810   70.4000  224.5900 C   0  0  0  0  0  0  0  0  0  0  0  0
  137.7160   68.8970  224.7470 C   0  0  0  0  0  0  0  0  0  0  0  0
  139.1450   68.6660  224.3370 C   0  0  0  0  0  0  0  0  0  0  0  0
  139.7420   70.0800  224.2900 C   0  0  2  0  0  0  0  0  0  0  0  0
  140.1740   70.5610  225.6180 C   0  0  0  0  0  0  0  0  0  0  0  0
  140.0580   69.6940  226.7020 C   0  0  0  0  0  0  0  0  0  0  0  0
  140.4510   70.1080  227.9790 C   0  0  0  0  0  0  0  0  0  0  0  0
  140.9500   71.3370  228.2070 N   0  0  0  0  0  0  0  0  0  0  0  0
  141.0660   72.1770  227.1740 C   0  0  0  0  0  0  0  0  0  0  0  0
  140.6850   71.8030  225.8860 C   0  0  0  0  0  0  0  0  0  0  0  0
  141.2750   75.7320  221.2900 C   0  0  0  0  0  0  0  0  0  0  0  0
  141.7550   76.3380  220.1470 C   0  0  0  0  0  0  0  0  0  0  0  0
  141.9320   77.7070  220.0950 C   0  0  0  0  0  0  0  0  0  0  0  0
  141.6280   78.4940  221.1990 C   0  0  0  0  0  0  0  0  0  0  0  0
  141.7910   79.8700  221.1890 C   0  0  0  0  0  0  0  0  0  0  0  0
  141.4670   80.5910  222.3270 C   0  0  0  0  0  0  0  0  0  0  0  0
  141.6130   81.9470  222.3610 F   0  0  0  0  0  0  0  0  0  0  0  0
  140.9910   79.9690  223.4560 C   0  0  0  0  0  0  0  0  0  0  0  0
  140.8300   78.6000  223.4610 C   0  0  0  0  0  0  0  0  0  0  0  0
  141.1510   77.8610  222.3250 C   0  0  0  0  0  0  0  0  0  0  0  0
  140.9880   76.5230  222.3470 N   0  0  0  0  0  0  0  0  0  0  0  0
  139.4910   74.3950  222.7740 H   0  0  0  0  0  0  0  0  0  0  0  0
  139.9856   71.9407  221.1933 H   0  0  0  0  0  0  0  0  0  0  0  0
  140.7045   71.9238  222.8763 H   0  0  0  0  0  0  0  0  0  0  0  0
  137.4600   70.8917  225.5738 H   0  0  0  0  0  0  0  0  0  0  0  0
  136.5173   70.6163  224.1058 H   0  0  0  0  0  0  0  0  0  0  0  0
  137.5623   68.5915  225.7925 H   0  0  0  0  0  0  0  0  0  0  0  0
  137.0166   68.3094  224.1341 H   0  0  0  0  0  0  0  0  0  0  0  0
  139.6696   68.0429  225.0763 H   0  0  0  0  0  0  0  0  0  0  0  0
  139.2333   68.1334  223.3786 H   0  0  0  0  0  0  0  0  0  0  0  0
  140.6466   70.1304  223.6661 H   0  0  0  0  0  0  0  0  0  0  0  0
  139.6562   68.6809  226.5534 H   0  0  0  0  0  0  0  0  0  0  0  0
  140.3492   69.4085  228.8218 H   0  0  0  0  0  0  0  0  0  0  0  0
  141.4709   73.1856  227.3437 H   0  0  0  0  0  0  0  0  0  0  0  0
  140.7978   72.5246  225.0634 H   0  0  0  0  0  0  0  0  0  0  0  0
  141.9994   75.7242  219.2675 H   0  0  0  0  0  0  0  0  0  0  0  0
  142.3149   78.1757  219.1765 H   0  0  0  0  0  0  0  0  0  0  0  0
  142.1713   80.3815  220.2925 H   0  0  0  0  0  0  0  0  0  0  0  0
  140.7402   80.5594  224.3496 H   0  0  0  0  0  0  0  0  0  0  0  0
  140.4491   78.0927  224.3596 H   0  0  0  0  0  0  0  0  0  0  0  0
  1  2  2  0
  2  3  1  0
  3  4  1  0
  4  5  1  0
  5  6  2  0
  5  7  1  0
  7  8  1  0
  8  9  1  0
  9 10  1  0
 10 11  1  0
 11 12  1  0
 12 13  2  0
 13 14  1  0
 14 15  2  0
 15 16  1  0
 16 17  2  0
  2 18  1  0
 18 19  2  0
 19 20  1  0
 20 21  2  0
 21 22  1  0
 22 23  2  0
 23 24  1  0
 23 25  1  0
 25 26  2  0
 26 27  1  0
 27 28  2  0
 11  7  1  0
 17 12  1  0
 28 18  1  0
 27 21  1  0
  3 29  1  0
  4 30  1  0
  4 31  1  0
  8 32  1  0
  8 33  1  0
  9 34  1  0
  9 35  1  0
 10 36  1  0
 10 37  1  0
 11 38  1  6
 13 39  1  0
 14 40  1  0
 16 41  1  0
 17 42  1  0
 19 43  1  0
 20 44  1  0
 22 45  1  0
 25 46  1  0
 26 47  1  0
M  END
>  <smiles>  (31) 
O=C(NCC(=O)N1CCCC1c1ccncc1)c1ccc2cc(F)ccc2n1

>  <score_type>  (31) 
oracle

>  <origin>  (31) 
autodockgpu

>  <m_score__min__energy>  (31) 
-8.6199999999999992

>  <m_primary>  (31) 
energy

>  <rmsd>  (31) 
8.762502331768404

>  <m_score__min__rmsd>  (31) 
8.762502331768404

>  <meeko>  (31) 
{"free_energy": -7.84, "intermolecular_energy": -9.33, "internal_energy": -1.32, "cluster_size": 18, "cluster_id": 3, "rank_in_cluster": 16}

>  <energy>  (31) 
-8.06

>  <cluster_rmsd>  (31) 
0.87

>  <cluster>  (31) 
2

$$$$

     RDKit          3D

 47 50  0  0  0  0  0  0  0  0999 V2000
  141.2840   72.8100  222.0270 O   0  0  0  0  0  0  0  0  0  0  0  0
  140.2300   72.6140  222.6530 C   0  0  0  0  0  0  0  0  0  0  0  0
  139.0730   73.3710  222.3350 N   0  0  0  0  0  0  0  0  0  0  0  0
  139.1680   74.3450  221.2870 C   0  0  0  0  0  0  0  0  0  0  0  0
  139.3950   75.7220  221.7680 C   0  0  0  0  0  0  0  0  0  0  0  0
  138.7080   76.2810  222.6650 O   0  0  0  0  0  0  0  0  0  0  0  0
  140.4500   76.4910  221.2040 N   0  0  0  0  0  0  0  0  0  0  0  0
  141.7970   76.0620  220.8320 C   0  0  0  0  0  0  0  0  0  0  0  0
  142.1290   76.8370  219.5560 C   0  0  0  0  0  0  0  0  0  0  0  0
  141.0960   77.9270  219.4650 C   0  0  0  0  0  0  0  0  0  0  0  0
  140.4410   77.9220  220.8540 C   0  0  2  0  0  0  0  0  0  0  0  0
  141.2070   78.6980  221.8490 C   0  0  0  0  0  0  0  0  0  0  0  0
  141.1140   78.3260  223.1880 C   0  0  0  0  0  0  0  0  0  0  0  0
  141.8190   79.0350  224.1660 C   0  0  0  0  0  0  0  0  0  0  0  0
  142.6020   80.0850  223.8590 N   0  0  0  0  0  0  0  0  0  0  0  0
  142.6990   80.4520  222.5770 C   0  0  0  0  0  0  0  0  0  0  0  0
  142.0130   79.7710  221.5730 C   0  0  0  0  0  0  0  0  0  0  0  0
  140.1440   71.6160  223.7220 C   0  0  0  0  0  0  0  0  0  0  0  0
  139.5550   70.3910  223.4830 C   0  0  0  0  0  0  0  0  0  0  0  0
  139.4690   69.4420  224.4830 C   0  0  0  0  0  0  0  0  0  0  0  0
  139.9760   69.7110  225.7490 C   0  0  0  0  0  0  0  0  0  0  0  0
  139.9100   68.7880  226.7800 C   0  0  0  0  0  0  0  0  0  0  0  0
  140.4370   69.1270  228.0160 C   0  0  0  0  0  0  0  0  0  0  0  0
  140.3920   68.2490  229.0600 F   0  0  0  0  0  0  0  0  0  0  0  0
  141.0180   70.3520  228.2340 C   0  0  0  0  0  0  0  0  0  0  0  0
  141.0820   71.2680  227.2050 C   0  0  0  0  0  0  0  0  0  0  0  0
  140.5580   70.9430  225.9570 C   0  0  0  0  0  0  0  0  0  0  0  0
  140.6270   71.8490  224.9620 N   0  0  0  0  0  0  0  0  0  0  0  0
  138.1690   73.2100  222.8640 H   0  0  0  0  0  0  0  0  0  0  0  0
  140.0045   74.0656  220.6295 H   0  0  0  0  0  0  0  0  0  0  0  0
  138.2006   74.3455  220.7633 H   0  0  0  0  0  0  0  0  0  0  0  0
  142.5137   76.3076  221.6295 H   0  0  0  0  0  0  0  0  0  0  0  0
  141.8532   74.9743  220.6777 H   0  0  0  0  0  0  0  0  0  0  0  0
  143.1385   77.2690  219.6207 H   0  0  0  0  0  0  0  0  0  0  0  0
  142.1140   76.1866  218.6690 H   0  0  0  0  0  0  0  0  0  0  0  0
  141.5678   78.8986  219.2570 H   0  0  0  0  0  0  0  0  0  0  0  0
  140.3736   77.7639  218.6516 H   0  0  0  0  0  0  0  0  0  0  0  0
  139.4435   78.3857  220.8465 H   0  0  0  0  0  0  0  0  0  0  0  0
  140.4841   77.4719  223.4772 H   0  0  0  0  0  0  0  0  0  0  0  0
  141.7306   78.7248  225.2176 H   0  0  0  0  0  0  0  0  0  0  0  0
  143.3337   81.3096  222.3090 H   0  0  0  0  0  0  0  0  0  0  0  0
  142.1217   80.1042  220.5303 H   0  0  0  0  0  0  0  0  0  0  0  0
  139.1495   70.1679  222.4851 H   0  0  0  0  0  0  0  0  0  0  0  0
  138.9975   68.4698  224.2767 H   0  0  0  0  0  0  0  0  0  0  0  0
  139.4472   67.8030  226.6202 H   0  0  0  0  0  0  0  0  0  0  0  0
  141.4298   70.6011  229.2231 H   0  0  0  0  0  0  0  0  0  0  0  0
  141.5455   72.2519  227.3699 H   0  0  0  0  0  0  0  0  0  0  0  0
  1  2  2  0
  2  3  1  0
  3  4  1  0
  4  5  1  0
  5  6  2  0
  5  7  1  0
  7  8  1  0
  8  9  1  0
  9 10  1  0
 10 11  1  0
 11 12  1  0
 12 13  2  0
 13 14  1  0
 14 15  2  0
 15 16  1  0
 16 17  2  0
  2 18  1  0
 18 19  2  0
 19 20  1  0
 20 21  2  0
 21 22  1  0
 22 23  2  0
 23 24  1  0
 23 25  1  0
 25 26  2  0
 26 27  1  0
 27 28  2  0
 11  7  1  0
 17 12  1  0
 28 18  1  0
 27 21  1  0
  3 29  1  0
  4 30  1  0
  4 31  1  0
  8 32  1  0
  8 33  1  0
  9 34  1  0
  9 35  1  0
 10 36  1  0
 10 37  1  0
 11 38  1  6
 13 39  1  0
 14 40  1  0
 16 41  1  0
 17 42  1  0
 19 43  1  0
 20 44  1  0
 22 45  1  0
 25 46  1  0
 26 47  1  0
M  END
>  <smiles>  (32) 
O=C(NCC(=O)N1CCCC1c1ccncc1)c1ccc2cc(F)ccc2n1

>  <score_type>  (32) 
oracle

>  <origin>  (32) 
autodockgpu

>  <m_score__min__energy>  (32) 
-8.6199999999999992

>  <m_primary>  (32) 
energy

>  <rmsd>  (32) 
2.0339149800772183

>  <m_score__min__rmsd>  (32) 
2.0339149800772183

>  <meeko>  (32) 
{"free_energy": -8.6, "intermolecular_energy": -10.09, "internal_energy": -1.24, "cluster_size": 22, "cluster_id": 1, "rank_in_cluster": 5}

>  <energy>  (32) 
-8.43

>  <cluster_rmsd>  (32) 
0.0

>  <cluster>  (32) 
3

$$$$

     RDKit          3D

 47 50  0  0  0  0  0  0  0  0999 V2000
  140.7540   73.9450  220.3320 O   0  0  0  0  0  0  0  0  0  0  0  0
  140.3750   74.6880  221.2510 C   0  0  0  0  0  0  0  0  0  0  0  0
  139.4570   74.2000  222.2160 N   0  0  0  0  0  0  0  0  0  0  0  0
  138.9950   72.8480  222.0890 C   0  0  0  0  0  0  0  0  0  0  0  0
  139.8850   71.8500  222.7120 C   0  0  0  0  0  0  0  0  0  0  0  0
  141.0930   71.6830  222.3930 O   0  0  0  0  0  0  0  0  0  0  0  0
  139.3780   71.0100  223.7410 N   0  0  0  0  0  0  0  0  0  0  0  0
  138.0070   70.8980  224.2380 C   0  0  0  0  0  0  0  0  0  0  0  0
  137.8100   69.4140  224.5480 C   0  0  0  0  0  0  0  0  0  0  0  0
  139.1900   68.8140  224.5450 C   0  0  0  0  0  0  0  0  0  0  0  0
  140.1170   70.0380  224.5650 C   0  0  2  0  0  0  0  0  0  0  0  0
  140.3260   70.5730  225.9250 C   0  0  0  0  0  0  0  0  0  0  0  0
  141.0620   71.7480  226.0640 C   0  0  0  0  0  0  0  0  0  0  0  0
  141.2900   72.2890  227.3340 C   0  0  0  0  0  0  0  0  0  0  0  0
  140.8140   71.7090  228.4510 N   0  0  0  0  0  0  0  0  0  0  0  0
  140.1070   70.5810  228.3300 C   0  0  0  0  0  0  0  0  0  0  0  0
  139.8590   70.0100  227.0830 C   0  0  0  0  0  0  0  0  0  0  0  0
  140.8540   76.0680  221.3730 C   0  0  0  0  0  0  0  0  0  0  0  0
  141.6800   76.6050  220.4070 C   0  0  0  0  0  0  0  0  0  0  0  0
  142.1350   77.9040  220.5120 C   0  0  0  0  0  0  0  0  0  0  0  0
  141.7660   78.6900  221.5970 C   0  0  0  0  0  0  0  0  0  0  0  0
  142.2010   79.9980  221.7400 C   0  0  0  0  0  0  0  0  0  0  0  0
  141.7920   80.7220  222.8500 C   0  0  0  0  0  0  0  0  0  0  0  0
  142.1970   82.0120  223.0310 F   0  0  0  0  0  0  0  0  0  0  0  0
  140.9690   80.1680  223.8000 C   0  0  0  0  0  0  0  0  0  0  0  0
  140.5390   78.8670  223.6530 C   0  0  0  0  0  0  0  0  0  0  0  0
  140.9410   78.1260  222.5450 C   0  0  0  0  0  0  0  0  0  0  0  0
  140.5120   76.8550  222.4160 N   0  0  0  0  0  0  0  0  0  0  0  0
  139.1290   74.8280  223.0040 H   0  0  0  0  0  0  0  0  0  0  0  0
  138.0058   72.7742  222.5644 H   0  0  0  0  0  0  0  0  0  0  0  0
  138.9652   72.6210  221.0131 H   0  0  0  0  0  0  0  0  0  0  0  0
  137.8765   71.5023  225.1479 H   0  0  0  0  0  0  0  0  0  0  0  0
  137.2738   71.2645  223.5045 H   0  0  0  0  0  0  0  0  0  0  0  0
  137.3380   69.2868  225.5334 H   0  0  0  0  0  0  0  0  0  0  0  0
  137.1529   68.9279  223.8119 H   0  0  0  0  0  0  0  0  0  0  0  0
  139.3477   68.1875  225.4353 H   0  0  0  0  0  0  0  0  0  0  0  0
  139.3683   68.1574  223.6807 H   0  0  0  0  0  0  0  0  0  0  0  0
  141.1273   69.8020  224.1994 H   0  0  0  0  0  0  0  0  0  0  0  0
  141.4648   72.2516  225.1729 H   0  0  0  0  0  0  0  0  0  0  0  0
  141.8757   73.2159  227.4220 H   0  0  0  0  0  0  0  0  0  0  0  0
  139.7126   70.0932  229.2336 H   0  0  0  0  0  0  0  0  0  0  0  0
  139.2719   69.0814  227.0273 H   0  0  0  0  0  0  0  0  0  0  0  0
  141.9790   75.9916  219.5443 H   0  0  0  0  0  0  0  0  0  0  0  0
  142.7924   78.3187  219.7336 H   0  0  0  0  0  0  0  0  0  0  0  0
  142.8594   80.4542  220.9861 H   0  0  0  0  0  0  0  0  0  0  0  0
  140.6550   80.7592  224.6728 H   0  0  0  0  0  0  0  0  0  0  0  0
  139.8800   78.4152  224.4090 H   0  0  0  0  0  0  0  0  0  0  0  0
  1  2  2  0
  2  3  1  0
  3  4  1  0
  4  5  1  0
  5  6  2  0
  5  7  1  0
  7  8  1  0
  8  9  1  0
  9 10  1  0
 10 11  1  0
 11 12  1  0
 12 13  2  0
 13 14  1  0
 14 15  2  0
 15 16  1  0
 16 17  2  0
  2 18  1  0
 18 19  2  0
 19 20  1  0
 20 21  2  0
 21 22  1  0
 22 23  2  0
 23 24  1  0
 23 25  1  0
 25 26  2  0
 26 27  1  0
 27 28  2  0
 11  7  1  0
 17 12  1  0
 28 18  1  0
 27 21  1  0
  3 29  1  0
  4 30  1  0
  4 31  1  0
  8 32  1  0
  8 33  1  0
  9 34  1  0
  9 35  1  0
 10 36  1  0
 10 37  1  0
 11 38  1  6
 13 39  1  0
 14 40  1  0
 16 41  1  0
 17 42  1  0
 19 43  1  0
 20 44  1  0
 22 45  1  0
 25 46  1  0
 26 47  1  0
M  END
>  <smiles>  (33) 
O=C(NCC(=O)N1CCCC1c1ccncc1)c1ccc2cc(F)ccc2n1

>  <score_type>  (33) 
oracle

>  <origin>  (33) 
autodockgpu

>  <m_score__min__energy>  (33) 
-8.6199999999999992

>  <m_primary>  (33) 
energy

>  <rmsd>  (33) 
8.679803285215828

>  <m_score__min__rmsd>  (33) 
8.679803285215828

>  <meeko>  (33) 
{"free_energy": -8.41, "intermolecular_energy": -9.9, "internal_energy": -1.41, "cluster_size": 18, "cluster_id": 3, "rank_in_cluster": 3}

>  <energy>  (33) 
-8.43

>  <cluster_rmsd>  (33) 
0.09

>  <cluster>  (33) 
3

$$$$

     RDKit          3D

 47 50  0  0  0  0  0  0  0  0999 V2000
  140.8670   71.9800  221.1580 O   0  0  0  0  0  0  0  0  0  0  0  0
  140.3190   72.3970  222.1910 C   0  0  0  0  0  0  0  0  0  0  0  0
  139.8590   73.7380  222.2510 N   0  0  0  0  0  0  0  0  0  0  0  0
  140.0450   74.5700  221.0980 C   0  0  0  0  0  0  0  0  0  0  0  0
  141.4170   75.0950  220.9530 C   0  0  0  0  0  0  0  0  0  0  0  0
  142.4590   74.4280  221.1950 O   0  0  0  0  0  0  0  0  0  0  0  0
  141.6080   76.4330  220.5120 N   0  0  0  0  0  0  0  0  0  0  0  0
  142.7070   76.9890  219.7240 C   0  0  0  0  0  0  0  0  0  0  0  0
  142.0590   78.0220  218.8010 C   0  0  0  0  0  0  0  0  0  0  0  0
  140.6790   78.2520  219.3570 C   0  0  0  0  0  0  0  0  0  0  0  0
  140.7340   77.5970  220.7450 C   0  0  2  0  0  0  0  0  0  0  0  0
  141.3220   78.4820  221.7700 C   0  0  0  0  0  0  0  0  0  0  0  0
  141.2960   78.0590  223.0970 C   0  0  0  0  0  0  0  0  0  0  0  0
  141.8370   78.8670  224.1030 C   0  0  0  0  0  0  0  0  0  0  0  0
  142.3950   80.0610  223.8350 N   0  0  0  0  0  0  0  0  0  0  0  0
  142.4250   80.4770  222.5650 C   0  0  0  0  0  0  0  0  0  0  0  0
  141.8970   79.7020  221.5340 C   0  0  0  0  0  0  0  0  0  0  0  0
  140.1330   71.5390  223.3640 C   0  0  0  0  0  0  0  0  0  0  0  0
  139.4870   70.3260  223.2420 C   0  0  0  0  0  0  0  0  0  0  0  0
  139.3070   69.5090  224.3410 C   0  0  0  0  0  0  0  0  0  0  0  0
  139.7750   69.9010  225.5890 C   0  0  0  0  0  0  0  0  0  0  0  0
  139.6140   69.1120  226.7170 C   0  0  0  0  0  0  0  0  0  0  0  0
  140.1070   69.5690  227.9300 C   0  0  0  0  0  0  0  0  0  0  0  0
  139.9700   68.8250  229.0650 F   0  0  0  0  0  0  0  0  0  0  0  0
  140.7460   70.7810  228.0300 C   0  0  0  0  0  0  0  0  0  0  0  0
  140.9040   71.5620  226.9050 C   0  0  0  0  0  0  0  0  0  0  0  0
  140.4150   71.1180  225.6800 C   0  0  0  0  0  0  0  0  0  0  0  0
  140.5760   71.8940  224.5900 N   0  0  0  0  0  0  0  0  0  0  0  0
  139.3900   74.1020  223.1290 H   0  0  0  0  0  0  0  0  0  0  0  0
  139.8041   73.9789  220.2021 H   0  0  0  0  0  0  0  0  0  0  0  0
  139.3824   75.4393  221.2219 H   0  0  0  0  0  0  0  0  0  0  0  0
  143.4473   77.4695  220.3805 H   0  0  0  0  0  0  0  0  0  0  0  0
  143.2408   76.2111  219.1584 H   0  0  0  0  0  0  0  0  0  0  0  0
  142.6364   78.9582  218.8071 H   0  0  0  0  0  0  0  0  0  0  0  0
  142.0249   77.6721  217.7587 H   0  0  0  0  0  0  0  0  0  0  0  0
  140.4629   79.3275  219.4387 H   0  0  0  0  0  0  0  0  0  0  0  0
  139.8864   77.8343  218.7188 H   0  0  0  0  0  0  0  0  0  0  0  0
  139.7337   77.3496  221.1298 H   0  0  0  0  0  0  0  0  0  0  0  0
  140.8491   77.0874  223.3545 H   0  0  0  0  0  0  0  0  0  0  0  0
  141.8050   78.5150  225.1447 H   0  0  0  0  0  0  0  0  0  0  0  0
  142.8761   81.4520  222.3286 H   0  0  0  0  0  0  0  0  0  0  0  0
  141.9435   80.0808  220.5023 H   0  0  0  0  0  0  0  0  0  0  0  0
  139.1113   70.0061  222.2589 H   0  0  0  0  0  0  0  0  0  0  0  0
  138.7911   68.5441  224.2277 H   0  0  0  0  0  0  0  0  0  0  0  0
  139.1038   68.1397  226.6512 H   0  0  0  0  0  0  0  0  0  0  0  0
  141.1292   71.1261  229.0016 H   0  0  0  0  0  0  0  0  0  0  0  0
  141.4152   72.5335  226.9754 H   0  0  0  0  0  0  0  0  0  0  0  0
  1  2  2  0
  2  3  1  0
  3  4  1  0
  4  5  1  0
  5  6  2  0
  5  7  1  0
  7  8  1  0
  8  9  1  0
  9 10  1  0
 10 11  1  0
 11 12  1  0
 12 13  2  0
 13 14  1  0
 14 15  2  0
 15 16  1  0
 16 17  2  0
  2 18  1  0
 18 19  2  0
 19 20  1  0
 20 21  2  0
 21 22  1  0
 22 23  2  0
 23 24  1  0
 23 25  1  0
 25 26  2  0
 26 27  1  0
 27 28  2  0
 11  7  1  0
 17 12  1  0
 28 18  1  0
 27 21  1  0
  3 29  1  0
  4 30  1  0
  4 31  1  0
  8 32  1  0
  8 33  1  0
  9 34  1  0
  9 35  1  0
 10 36  1  0
 10 37  1  0
 11 38  1  1
 13 39  1  0
 14 40  1  0
 16 41  1  0
 17 42  1  0
 19 43  1  0
 20 44  1  0
 22 45  1  0
 25 46  1  0
 26 47  1  0
M  END
>  <smiles>  (34) 
O=C(NCC(=O)N1CCCC1c1ccncc1)c1ccc2cc(F)ccc2n1

>  <score_type>  (34) 
oracle

>  <origin>  (34) 
autodockgpu

>  <m_score__min__energy>  (34) 
-8.6199999999999992

>  <m_primary>  (34) 
energy

>  <rmsd>  (34) 
2.1741334892064796

>  <m_score__min__rmsd>  (34) 
2.1741334892064796

>  <meeko>  (34) 
{"free_energy": -8.42, "intermolecular_energy": -9.91, "internal_energy": -1.16, "cluster_size": 22, "cluster_id": 1, "rank_in_cluster": 15}

>  <energy>  (34) 
-8.41

>  <cluster_rmsd>  (34) 
0.16

>  <cluster>  (34) 
3

$$$$

     RDKit          3D

 47 50  0  0  0  0  0  0  0  0999 V2000
  141.2500   72.2660  221.5320 O   0  0  0  0  0  0  0  0  0  0  0  0
  140.3910   72.4420  222.4110 C   0  0  0  0  0  0  0  0  0  0  0  0
  139.5160   73.5550  222.3260 N   0  0  0  0  0  0  0  0  0  0  0  0
  139.6590   74.4460  221.2110 C   0  0  0  0  0  0  0  0  0  0  0  0
  140.9480   75.1630  221.1790 C   0  0  0  0  0  0  0  0  0  0  0  0
  141.4330   75.7920  222.1590 O   0  0  0  0  0  0  0  0  0  0  0  0
  141.7170   75.1610  219.9830 N   0  0  0  0  0  0  0  0  0  0  0  0
  141.3710   74.6090  218.6740 C   0  0  0  0  0  0  0  0  0  0  0  0
  141.9550   75.5890  217.6560 C   0  0  0  0  0  0  0  0  0  0  0  0
  142.9050   76.4600  218.4320 C   0  0  0  0  0  0  0  0  0  0  0  0
  143.0620   75.7220  219.7690 C   0  0  2  0  0  0  0  0  0  0  0  0
  144.0650   74.6400  219.7090 C   0  0  0  0  0  0  0  0  0  0  0  0
  144.4290   74.1470  218.4580 C   0  0  0  0  0  0  0  0  0  0  0  0
  145.3710   73.1190  218.3540 C   0  0  0  0  0  0  0  0  0  0  0  0
  145.9550   72.5750  219.4370 N   0  0  0  0  0  0  0  0  0  0  0  0
  145.6140   73.0400  220.6430 C   0  0  0  0  0  0  0  0  0  0  0  0
  144.6790   74.0630  220.7900 C   0  0  0  0  0  0  0  0  0  0  0  0
  140.2520   71.5250  223.5460 C   0  0  0  0  0  0  0  0  0  0  0  0
  139.6570   70.2920  223.3740 C   0  0  0  0  0  0  0  0  0  0  0  0
  139.5220   69.4200  224.4370 C   0  0  0  0  0  0  0  0  0  0  0  0
  139.9850   69.7760  225.6980 C   0  0  0  0  0  0  0  0  0  0  0  0
  139.8690   68.9320  226.7900 C   0  0  0  0  0  0  0  0  0  0  0  0
  140.3540   69.3550  228.0180 C   0  0  0  0  0  0  0  0  0  0  0  0
  140.2600   68.5570  229.1200 F   0  0  0  0  0  0  0  0  0  0  0  0
  140.9430   70.5880  228.1680 C   0  0  0  0  0  0  0  0  0  0  0  0
  141.0570   71.4240  227.0780 C   0  0  0  0  0  0  0  0  0  0  0  0
  140.5750   71.0140  225.8380 C   0  0  0  0  0  0  0  0  0  0  0  0
  140.6930   71.8440  224.7820 N   0  0  0  0  0  0  0  0  0  0  0  0
  138.7800   73.7120  223.0720 H   0  0  0  0  0  0  0  0  0  0  0  0
  139.5661   73.8595  220.2851 H   0  0  0  0  0  0  0  0  0  0  0  0
  138.8723   75.2085  221.3093 H   0  0  0  0  0  0  0  0  0  0  0  0
  141.8156   73.6109  218.5470 H   0  0  0  0  0  0  0  0  0  0  0  0
  140.2841   74.4909  218.5529 H   0  0  0  0  0  0  0  0  0  0  0  0
  142.4917   75.0458  216.8642 H   0  0  0  0  0  0  0  0  0  0  0  0
  141.1694   76.1812  217.1640 H   0  0  0  0  0  0  0  0  0  0  0  0
  143.8719   76.5448  217.9144 H   0  0  0  0  0  0  0  0  0  0  0  0
  142.5383   77.4900  218.5531 H   0  0  0  0  0  0  0  0  0  0  0  0
  143.4144   76.3856  220.5724 H   0  0  0  0  0  0  0  0  0  0  0  0
  143.9740   74.5677  217.5492 H   0  0  0  0  0  0  0  0  0  0  0  0
  145.6428   72.7437  217.3564 H   0  0  0  0  0  0  0  0  0  0  0  0
  146.0816   72.6057  221.5390 H   0  0  0  0  0  0  0  0  0  0  0  0
  144.4271   74.4168  221.8006 H   0  0  0  0  0  0  0  0  0  0  0  0
  139.2863   70.0004  222.3802 H   0  0  0  0  0  0  0  0  0  0  0  0
  139.0462   68.4400  224.2846 H   0  0  0  0  0  0  0  0  0  0  0  0
  139.3999   67.9426  226.6847 H   0  0  0  0  0  0  0  0  0  0  0  0
  141.3207   70.9053  229.1512 H   0  0  0  0  0  0  0  0  0  0  0  0
  141.5275   72.4122  227.1876 H   0  0  0  0  0  0  0  0  0  0  0  0
  1  2  2  0
  2  3  1  0
  3  4  1  0
  4  5  1  0
  5  6  2  0
  5  7  1  0
  7  8  1  0
  8  9  1  0
  9 10  1  0
 10 11  1  0
 11 12  1  0
 12 13  2  0
 13 14  1  0
 14 15  2  0
 15 16  1  0
 16 17  2  0
  2 18  1  0
 18 19  2  0
 19 20  1  0
 20 21  2  0
 21 22  1  0
 22 23  2  0
 23 24  1  0
 23 25  1  0
 25 26  2  0
 26 27  1  0
 27 28  2  0
 11  7  1  0
 17 12  1  0
 28 18  1  0
 27 21  1  0
  3 29  1  0
  4 30  1  0
  4 31  1  0
  8 32  1  0
  8 33  1  0
  9 34  1  0
  9 35  1  0
 10 36  1  0
 10 37  1  0
 11 38  1  1
 13 39  1  0
 14 40  1  0
 16 41  1  0
 17 42  1  0
 19 43  1  0
 20 44  1  0
 22 45  1  0
 25 46  1  0
 26 47  1  0
M  END
>  <smiles>  (35) 
O=C(NCC(=O)N1CCCC1c1ccncc1)c1ccc2cc(F)ccc2n1

>  <score_type>  (35) 
oracle

>  <origin>  (35) 
autodockgpu

>  <m_score__min__energy>  (35) 
-8.6199999999999992

>  <m_primary>  (35) 
energy

>  <rmsd>  (35) 
1.8014703085348993

>  <m_score__min__rmsd>  (35) 
1.8014703085348993

>  <meeko>  (35) 
{"free_energy": -8.46, "intermolecular_energy": -9.95, "internal_energy": -1.15, "cluster_size": 9, "cluster_id": 2, "rank_in_cluster": 4}

>  <energy>  (35) 
-8.4

>  <cluster_rmsd>  (35) 
0.11

>  <cluster>  (35) 
3

$$$$

     RDKit          3D

 47 50  0  0  0  0  0  0  0  0999 V2000
  141.1160   73.0260  222.2260 O   0  0  0  0  0  0  0  0  0  0  0  0
  140.0470   72.6740  222.7520 C   0  0  0  0  0  0  0  0  0  0  0  0
  138.8290   73.2660  222.3310 N   0  0  0  0  0  0  0  0  0  0  0  0
  138.8800   74.2620  221.3000 C   0  0  0  0  0  0  0  0  0  0  0  0
  139.2360   75.6100  221.7860 C   0  0  0  0  0  0  0  0  0  0  0  0
  138.6100   76.2240  222.6920 O   0  0  0  0  0  0  0  0  0  0  0  0
  140.3510   76.2830  221.2160 N   0  0  0  0  0  0  0  0  0  0  0  0
  141.6960   75.7690  220.9580 C   0  0  0  0  0  0  0  0  0  0  0  0
  142.1270   76.4130  219.6400 C   0  0  0  0  0  0  0  0  0  0  0  0
  141.1490   77.5310  219.3970 C   0  0  0  0  0  0  0  0  0  0  0  0
  140.4240   77.6760  220.7420 C   0  0  2  0  0  0  0  0  0  0  0  0
  141.1710   78.5080  221.7070 C   0  0  0  0  0  0  0  0  0  0  0  0
  141.1290   78.1530  223.0530 C   0  0  0  0  0  0  0  0  0  0  0  0
  141.8180   78.9140  224.0030 C   0  0  0  0  0  0  0  0  0  0  0  0
  142.5370   79.9980  223.6610 N   0  0  0  0  0  0  0  0  0  0  0  0
  142.5850   80.3480  222.3720 C   0  0  0  0  0  0  0  0  0  0  0  0
  141.9120   79.6160  221.3950 C   0  0  0  0  0  0  0  0  0  0  0  0
  140.0060   71.6550  223.8040 C   0  0  0  0  0  0  0  0  0  0  0  0
  139.4100   70.4340  223.5660 C   0  0  0  0  0  0  0  0  0  0  0  0
  139.3660   69.4670  224.5510 C   0  0  0  0  0  0  0  0  0  0  0  0
  139.9230   69.7130  225.7990 C   0  0  0  0  0  0  0  0  0  0  0  0
  139.9000   68.7700  226.8140 C   0  0  0  0  0  0  0  0  0  0  0  0
  140.4760   69.0860  228.0350 C   0  0  0  0  0  0  0  0  0  0  0  0
  140.4750   68.1890  229.0620 F   0  0  0  0  0  0  0  0  0  0  0  0
  141.0640   70.3090  228.2520 C   0  0  0  0  0  0  0  0  0  0  0  0
  141.0850   71.2440  227.2390 C   0  0  0  0  0  0  0  0  0  0  0  0
  140.5110   70.9410  226.0070 C   0  0  0  0  0  0  0  0  0  0  0  0
  140.5390   71.8660  225.0270 N   0  0  0  0  0  0  0  0  0  0  0  0
  137.9120   72.9710  222.7740 H   0  0  0  0  0  0  0  0  0  0  0  0
  139.6297   73.9528  220.5568 H   0  0  0  0  0  0  0  0  0  0  0  0
  137.8678   74.3333  220.8752 H   0  0  0  0  0  0  0  0  0  0  0  0
  142.3807   76.0564  221.7695 H   0  0  0  0  0  0  0  0  0  0  0  0
  141.7120   74.6705  220.9027 H   0  0  0  0  0  0  0  0  0  0  0  0
  143.1500   76.8089  219.7225 H   0  0  0  0  0  0  0  0  0  0  0  0
  142.1288   75.6870  218.8136 H   0  0  0  0  0  0  0  0  0  0  0  0
  141.6735   78.4607  219.1315 H   0  0  0  0  0  0  0  0  0  0  0  0
  140.4631   77.3246  218.5621 H   0  0  0  0  0  0  0  0  0  0  0  0
  139.4498   78.1761  220.6384 H   0  0  0  0  0  0  0  0  0  0  0  0
  140.5523   77.2715  223.3699 H   0  0  0  0  0  0  0  0  0  0  0  0
  141.7704   78.6172  225.0611 H   0  0  0  0  0  0  0  0  0  0  0  0
  143.1680   81.2325  222.0757 H   0  0  0  0  0  0  0  0  0  0  0  0
  141.9781   79.9373  220.3451 H   0  0  0  0  0  0  0  0  0  0  0  0
  138.9651   70.2283  222.5812 H   0  0  0  0  0  0  0  0  0  0  0  0
  138.8877   68.4979  224.3461 H   0  0  0  0  0  0  0  0  0  0  0  0
  139.4326   67.7872  226.6538 H   0  0  0  0  0  0  0  0  0  0  0  0
  141.5152   70.5406  229.2281 H   0  0  0  0  0  0  0  0  0  0  0  0
  141.5534   72.2256  227.4034 H   0  0  0  0  0  0  0  0  0  0  0  0
  1  2  2  0
  2  3  1  0
  3  4  1  0
  4  5  1  0
  5  6  2  0
  5  7  1  0
  7  8  1  0
  8  9  1  0
  9 10  1  0
 10 11  1  0
 11 12  1  0
 12 13  2  0
 13 14  1  0
 14 15  2  0
 15 16  1  0
 16 17  2  0
  2 18  1  0
 18 19  2  0
 19 20  1  0
 20 21  2  0
 21 22  1  0
 22 23  2  0
 23 24  1  0
 23 25  1  0
 25 26  2  0
 26 27  1  0
 27 28  2  0
 11  7  1  0
 17 12  1  0
 28 18  1  0
 27 21  1  0
  3 29  1  0
  4 30  1  0
  4 31  1  0
  8 32  1  0
  8 33  1  0
  9 34  1  0
  9 35  1  0
 10 36  1  0
 10 37  1  0
 11 38  1  6
 13 39  1  0
 14 40  1  0
 16 41  1  0
 17 42  1  0
 19 43  1  0
 20 44  1  0
 22 45  1  0
 25 46  1  0
 26 47  1  0
M  END
>  <smiles>  (36) 
O=C(NCC(=O)N1CCCC1c1ccncc1)c1ccc2cc(F)ccc2n1

>  <score_type>  (36) 
oracle

>  <origin>  (36) 
autodockgpu

>  <m_score__min__energy>  (36) 
-8.6199999999999992

>  <m_primary>  (36) 
energy

>  <rmsd>  (36) 
1.9799457564863376

>  <m_score__min__rmsd>  (36) 
1.9799457564863376

>  <meeko>  (36) 
{"free_energy": -8.49, "intermolecular_energy": -9.99, "internal_energy": -1.24, "cluster_size": 22, "cluster_id": 1, "rank_in_cluster": 9}

>  <energy>  (36) 
-8.4

>  <cluster_rmsd>  (36) 
0.09

>  <cluster>  (36) 
3

$$$$

     RDKit          3D

 47 50  0  0  0  0  0  0  0  0999 V2000
  140.9070   73.9310  220.2860 O   0  0  0  0  0  0  0  0  0  0  0  0
  140.4850   74.6690  221.1910 C   0  0  0  0  0  0  0  0  0  0  0  0
  139.5430   74.1680  222.1250 N   0  0  0  0  0  0  0  0  0  0  0  0
  139.1090   72.8080  221.9850 C   0  0  0  0  0  0  0  0  0  0  0  0
  139.9840   71.8270  222.6570 C   0  0  0  0  0  0  0  0  0  0  0  0
  141.1920   71.6340  222.3550 O   0  0  0  0  0  0  0  0  0  0  0  0
  139.4600   71.0370  223.7170 N   0  0  0  0  0  0  0  0  0  0  0  0
  138.0900   70.9830  224.2270 C   0  0  0  0  0  0  0  0  0  0  0  0
  137.8530   69.5160  224.5880 C   0  0  0  0  0  0  0  0  0  0  0  0
  139.2140   68.8760  224.5950 C   0  0  0  0  0  0  0  0  0  0  0  0
  140.1770   70.0720  224.5680 C   0  0  2  0  0  0  0  0  0  0  0  0
  140.4130   70.6460  225.9080 C   0  0  0  0  0  0  0  0  0  0  0  0
  139.9370   69.9480  227.0160 C   0  0  0  0  0  0  0  0  0  0  0  0
  140.1340   70.4560  228.3040 C   0  0  0  0  0  0  0  0  0  0  0  0
  140.7780   71.6160  228.5220 N   0  0  0  0  0  0  0  0  0  0  0  0
  141.2380   72.2950  227.4660 C   0  0  0  0  0  0  0  0  0  0  0  0
  141.0630   71.8230  226.1660 C   0  0  0  0  0  0  0  0  0  0  0  0
  140.9350   76.0570  221.3250 C   0  0  0  0  0  0  0  0  0  0  0  0
  141.7120   76.6340  220.3420 C   0  0  0  0  0  0  0  0  0  0  0  0
  142.1410   77.9420  220.4590 C   0  0  0  0  0  0  0  0  0  0  0  0
  141.7950   78.6960  221.5730 C   0  0  0  0  0  0  0  0  0  0  0  0
  142.2040   80.0100  221.7290 C   0  0  0  0  0  0  0  0  0  0  0  0
  141.8200   80.7000  222.8690 C   0  0  0  0  0  0  0  0  0  0  0  0
  142.2010   81.9950  223.0640 F   0  0  0  0  0  0  0  0  0  0  0  0
  141.0460   80.1070  223.8370 C   0  0  0  0  0  0  0  0  0  0  0  0
  140.6410   78.7990  223.6770 C   0  0  0  0  0  0  0  0  0  0  0  0
  141.0180   78.0920  222.5380 C   0  0  0  0  0  0  0  0  0  0  0  0
  140.6140   76.8140  222.3970 N   0  0  0  0  0  0  0  0  0  0  0  0
  139.1780   74.7910  222.9000 H   0  0  0  0  0  0  0  0  0  0  0  0
  138.0993   72.7212  222.4128 H   0  0  0  0  0  0  0  0  0  0  0  0
  139.1348   72.5744  220.9104 H   0  0  0  0  0  0  0  0  0  0  0  0
  137.9844   71.6210  225.1169 H   0  0  0  0  0  0  0  0  0  0  0  0
  137.3617   71.3468  223.4872 H   0  0  0  0  0  0  0  0  0  0  0  0
  137.3858   69.4355  225.5806 H   0  0  0  0  0  0  0  0  0  0  0  0
  137.1762   69.0252  223.8731 H   0  0  0  0  0  0  0  0  0  0  0  0
  139.3603   68.2747  225.5044 H   0  0  0  0  0  0  0  0  0  0  0  0
  139.3659   68.1865  223.7515 H   0  0  0  0  0  0  0  0  0  0  0  0
  141.1771   69.7941  224.2040 H   0  0  0  0  0  0  0  0  0  0  0  0
  139.4050   68.9952  226.8773 H   0  0  0  0  0  0  0  0  0  0  0  0
  139.7503   69.8892  229.1651 H   0  0  0  0  0  0  0  0  0  0  0  0
  141.7659   73.2466  227.6265 H   0  0  0  0  0  0  0  0  0  0  0  0
  141.4577   72.4120  225.3250 H   0  0  0  0  0  0  0  0  0  0  0  0
  141.9930   76.0464  219.4556 H   0  0  0  0  0  0  0  0  0  0  0  0
  142.7594   78.3884  219.6663 H   0  0  0  0  0  0  0  0  0  0  0  0
  142.8229   80.4980  220.9617 H   0  0  0  0  0  0  0  0  0  0  0  0
  140.7515   80.6721  224.7336 H   0  0  0  0  0  0  0  0  0  0  0  0
  140.0219   78.3152  224.4468 H   0  0  0  0  0  0  0  0  0  0  0  0
  1  2  2  0
  2  3  1  0
  3  4  1  0
  4  5  1  0
  5  6  2  0
  5  7  1  0
  7  8  1  0
  8  9  1  0
  9 10  1  0
 10 11  1  0
 11 12  1  0
 12 13  2  0
 13 14  1  0
 14 15  2  0
 15 16  1  0
 16 17  2  0
  2 18  1  0
 18 19  2  0
 19 20  1  0
 20 21  2  0
 21 22  1  0
 22 23  2  0
 23 24  1  0
 23 25  1  0
 25 26  2  0
 26 27  1  0
 27 28  2  0
 11  7  1  0
 17 12  1  0
 28 18  1  0
 27 21  1  0
  3 29  1  0
  4 30  1  0
  4 31  1  0
  8 32  1  0
  8 33  1  0
  9 34  1  0
  9 35  1  0
 10 36  1  0
 10 37  1  0
 11 38  1  6
 13 39  1  0
 14 40  1  0
 16 41  1  0
 17 42  1  0
 19 43  1  0
 20 44  1  0
 22 45  1  0
 25 46  1  0
 26 47  1  0
M  END
>  <smiles>  (37) 
O=C(NCC(=O)N1CCCC1c1ccncc1)c1ccc2cc(F)ccc2n1

>  <score_type>  (37) 
oracle

>  <origin>  (37) 
autodockgpu

>  <m_score__min__energy>  (37) 
-8.6199999999999992

>  <m_primary>  (37) 
energy

>  <rmsd>  (37) 
8.66689115033069

>  <m_score__min__rmsd>  (37) 
8.66689115033069

>  <meeko>  (37) 
{"free_energy": -8.4, "intermolecular_energy": -9.89, "internal_energy": -1.39, "cluster_size": 18, "cluster_id": 3, "rank_in_cluster": 7}

>  <energy>  (37) 
-8.4

>  <cluster_rmsd>  (37) 
0.2

>  <cluster>  (37) 
3

$$$$

     RDKit          3D

 47 50  0  0  0  0  0  0  0  0999 V2000
  141.2670   72.2880  221.5130 O   0  0  0  0  0  0  0  0  0  0  0  0
  140.3990   72.4530  222.3850 C   0  0  0  0  0  0  0  0  0  0  0  0
  139.5120   73.5560  222.2960 N   0  0  0  0  0  0  0  0  0  0  0  0
  139.6550   74.4510  221.1840 C   0  0  0  0  0  0  0  0  0  0  0  0
  140.9490   75.1590  221.1470 C   0  0  0  0  0  0  0  0  0  0  0  0
  141.4420   75.7850  222.1240 O   0  0  0  0  0  0  0  0  0  0  0  0
  141.7130   75.1510  219.9480 N   0  0  0  0  0  0  0  0  0  0  0  0
  141.3630   74.5900  218.6430 C   0  0  0  0  0  0  0  0  0  0  0  0
  141.9430   75.5640  217.6170 C   0  0  0  0  0  0  0  0  0  0  0  0
  142.8950   76.4410  218.3840 C   0  0  0  0  0  0  0  0  0  0  0  0
  143.0580   75.7110  219.7260 C   0  0  2  0  0  0  0  0  0  0  0  0
  144.0610   74.6290  219.6680 C   0  0  0  0  0  0  0  0  0  0  0  0
  144.4420   74.1500  218.4170 C   0  0  0  0  0  0  0  0  0  0  0  0
  145.3860   73.1220  218.3150 C   0  0  0  0  0  0  0  0  0  0  0  0
  145.9540   72.5670  219.4010 N   0  0  0  0  0  0  0  0  0  0  0  0
  145.5960   73.0190  220.6070 C   0  0  0  0  0  0  0  0  0  0  0  0
  144.6590   74.0410  220.7510 C   0  0  0  0  0  0  0  0  0  0  0  0
  140.2610   71.5320  223.5170 C   0  0  0  0  0  0  0  0  0  0  0  0
  139.6620   70.3010  223.3420 C   0  0  0  0  0  0  0  0  0  0  0  0
  139.5280   69.4260  224.4020 C   0  0  0  0  0  0  0  0  0  0  0  0
  139.9950   69.7760  225.6630 C   0  0  0  0  0  0  0  0  0  0  0  0
  139.8800   68.9280  226.7530 C   0  0  0  0  0  0  0  0  0  0  0  0
  140.3690   69.3450  227.9810 C   0  0  0  0  0  0  0  0  0  0  0  0
  140.2760   68.5420  229.0800 F   0  0  0  0  0  0  0  0  0  0  0  0
  140.9610   70.5750  228.1330 C   0  0  0  0  0  0  0  0  0  0  0  0
  141.0740   71.4160  227.0460 C   0  0  0  0  0  0  0  0  0  0  0  0
  140.5880   71.0110  225.8060 C   0  0  0  0  0  0  0  0  0  0  0  0
  140.7050   71.8450  224.7540 N   0  0  0  0  0  0  0  0  0  0  0  0
  138.7680   73.7030  223.0360 H   0  0  0  0  0  0  0  0  0  0  0  0
  139.5522   73.8692  220.2561 H   0  0  0  0  0  0  0  0  0  0  0  0
  138.8746   75.2189  221.2907 H   0  0  0  0  0  0  0  0  0  0  0  0
  141.8080   73.5915  218.5209 H   0  0  0  0  0  0  0  0  0  0  0  0
  140.2758   74.4702  218.5261 H   0  0  0  0  0  0  0  0  0  0  0  0
  142.4775   75.0161  216.8270 H   0  0  0  0  0  0  0  0  0  0  0  0
  141.1551   76.1525  217.1240 H   0  0  0  0  0  0  0  0  0  0  0  0
  143.8598   76.5236  217.8622 H   0  0  0  0  0  0  0  0  0  0  0  0
  142.5276   77.4713  218.5000 H   0  0  0  0  0  0  0  0  0  0  0  0
  143.4136   76.3790  220.5244 H   0  0  0  0  0  0  0  0  0  0  0  0
  143.9997   74.5809  217.5067 H   0  0  0  0  0  0  0  0  0  0  0  0
  145.6721   72.7570  217.3175 H   0  0  0  0  0  0  0  0  0  0  0  0
  146.0505   72.5750  221.5049 H   0  0  0  0  0  0  0  0  0  0  0  0
  144.3927   74.3845  221.7615 H   0  0  0  0  0  0  0  0  0  0  0  0
  139.2876   70.0140  222.3483 H   0  0  0  0  0  0  0  0  0  0  0  0
  139.0495   68.4477  224.2474 H   0  0  0  0  0  0  0  0  0  0  0  0
  139.4083   67.9401  226.6454 H   0  0  0  0  0  0  0  0  0  0  0  0
  141.3428   70.8874  229.1162 H   0  0  0  0  0  0  0  0  0  0  0  0
  141.5464   72.4031  227.1583 H   0  0  0  0  0  0  0  0  0  0  0  0
  1  2  2  0
  2  3  1  0
  3  4  1  0
  4  5  1  0
  5  6  2  0
  5  7  1  0
  7  8  1  0
  8  9  1  0
  9 10  1  0
 10 11  1  0
 11 12  1  0
 12 13  2  0
 13 14  1  0
 14 15  2  0
 15 16  1  0
 16 17  2  0
  2 18  1  0
 18 19  2  0
 19 20  1  0
 20 21  2  0
 21 22  1  0
 22 23  2  0
 23 24  1  0
 23 25  1  0
 25 26  2  0
 26 27  1  0
 27 28  2  0
 11  7  1  0
 17 12  1  0
 28 18  1  0
 27 21  1  0
  3 29  1  0
  4 30  1  0
  4 31  1  0
  8 32  1  0
  8 33  1  0
  9 34  1  0
  9 35  1  0
 10 36  1  0
 10 37  1  0
 11 38  1  1
 13 39  1  0
 14 40  1  0
 16 41  1  0
 17 42  1  0
 19 43  1  0
 20 44  1  0
 22 45  1  0
 25 46  1  0
 26 47  1  0
M  END
>  <smiles>  (38) 
O=C(NCC(=O)N1CCCC1c1ccncc1)c1ccc2cc(F)ccc2n1

>  <score_type>  (38) 
oracle

>  <origin>  (38) 
autodockgpu

>  <m_score__min__energy>  (38) 
-8.6199999999999992

>  <m_primary>  (38) 
energy

>  <rmsd>  (38) 
1.8004660349424926

>  <m_score__min__rmsd>  (38) 
1.8004660349424926

>  <meeko>  (38) 
{"free_energy": -8.45, "intermolecular_energy": -9.94, "internal_energy": -1.17, "cluster_size": 9, "cluster_id": 2, "rank_in_cluster": 5}

>  <energy>  (38) 
-8.4

>  <cluster_rmsd>  (38) 
0.12

>  <cluster>  (38) 
3

$$$$

     RDKit          3D

 47 50  0  0  0  0  0  0  0  0999 V2000
  140.5890   74.0930  220.1450 O   0  0  0  0  0  0  0  0  0  0  0  0
  140.3490   74.7530  221.1680 C   0  0  0  0  0  0  0  0  0  0  0  0
  139.5830   74.1770  222.2130 N   0  0  0  0  0  0  0  0  0  0  0  0
  139.1090   72.8330  222.0450 C   0  0  0  0  0  0  0  0  0  0  0  0
  139.9680   71.8110  222.6750 C   0  0  0  0  0  0  0  0  0  0  0  0
  141.1610   71.5830  222.3350 O   0  0  0  0  0  0  0  0  0  0  0  0
  139.4470   71.0210  223.7350 N   0  0  0  0  0  0  0  0  0  0  0  0
  138.0780   70.9650  224.2470 C   0  0  0  0  0  0  0  0  0  0  0  0
  137.8430   69.4980  224.6070 C   0  0  0  0  0  0  0  0  0  0  0  0
  139.2050   68.8590  224.6130 C   0  0  0  0  0  0  0  0  0  0  0  0
  140.1660   70.0560  224.5840 C   0  0  2  0  0  0  0  0  0  0  0  0
  140.4030   70.6290  225.9240 C   0  0  0  0  0  0  0  0  0  0  0  0
  139.9210   69.9350  227.0320 C   0  0  0  0  0  0  0  0  0  0  0  0
  140.1190   70.4430  228.3200 C   0  0  0  0  0  0  0  0  0  0  0  0
  140.7710   71.6000  228.5380 N   0  0  0  0  0  0  0  0  0  0  0  0
  141.2370   72.2750  227.4820 C   0  0  0  0  0  0  0  0  0  0  0  0
  141.0610   71.8030  226.1820 C   0  0  0  0  0  0  0  0  0  0  0  0
  140.8370   76.1250  221.3320 C   0  0  0  0  0  0  0  0  0  0  0  0
  141.7040   76.6690  220.4060 C   0  0  0  0  0  0  0  0  0  0  0  0
  142.1700   77.9620  220.5510 C   0  0  0  0  0  0  0  0  0  0  0  0
  141.7700   78.7330  221.6350 C   0  0  0  0  0  0  0  0  0  0  0  0
  142.2140   80.0330  221.8170 C   0  0  0  0  0  0  0  0  0  0  0  0
  141.7720   80.7420  222.9240 C   0  0  0  0  0  0  0  0  0  0  0  0
  142.1850   82.0240  223.1430 F   0  0  0  0  0  0  0  0  0  0  0  0
  140.9090   80.1810  223.8340 C   0  0  0  0  0  0  0  0  0  0  0  0
  140.4700   78.8880  223.6480 C   0  0  0  0  0  0  0  0  0  0  0  0
  140.9040   78.1620  222.5420 C   0  0  0  0  0  0  0  0  0  0  0  0
  140.4660   76.8990  222.3750 N   0  0  0  0  0  0  0  0  0  0  0  0
  139.3730   74.7330  223.0900 H   0  0  0  0  0  0  0  0  0  0  0  0
  138.1048   72.7622  222.4885 H   0  0  0  0  0  0  0  0  0  0  0  0
  139.1097   72.6277  220.9643 H   0  0  0  0  0  0  0  0  0  0  0  0
  137.9731   71.6021  225.1376 H   0  0  0  0  0  0  0  0  0  0  0  0
  137.3483   71.3285  223.5085 H   0  0  0  0  0  0  0  0  0  0  0  0
  137.3763   69.4164  225.5997 H   0  0  0  0  0  0  0  0  0  0  0  0
  137.1665   69.0070  223.8919 H   0  0  0  0  0  0  0  0  0  0  0  0
  139.3530   68.2586  225.5227 H   0  0  0  0  0  0  0  0  0  0  0  0
  139.3568   68.1687  223.7701 H   0  0  0  0  0  0  0  0  0  0  0  0
  141.1655   69.7796  224.2172 H   0  0  0  0  0  0  0  0  0  0  0  0
  139.3835   68.9853  226.8934 H   0  0  0  0  0  0  0  0  0  0  0  0
  139.7300   69.8797  229.1810 H   0  0  0  0  0  0  0  0  0  0  0  0
  141.7708   73.2233  227.6424 H   0  0  0  0  0  0  0  0  0  0  0  0
  141.4610   72.3886  225.3411 H   0  0  0  0  0  0  0  0  0  0  0  0
  142.0273   76.0673  219.5438 H   0  0  0  0  0  0  0  0  0  0  0  0
  142.8605   78.3823  219.8049 H   0  0  0  0  0  0  0  0  0  0  0  0
  142.9049   80.4945  221.0961 H   0  0  0  0  0  0  0  0  0  0  0  0
  140.5705   80.7603  224.7057 H   0  0  0  0  0  0  0  0  0  0  0  0
  139.7787   78.4308  224.3712 H   0  0  0  0  0  0  0  0  0  0  0  0
  1  2  2  0
  2  3  1  0
  3  4  1  0
  4  5  1  0
  5  6  2  0
  5  7  1  0
  7  8  1  0
  8  9  1  0
  9 10  1  0
 10 11  1  0
 11 12  1  0
 12 13  2  0
 13 14  1  0
 14 15  2  0
 15 16  1  0
 16 17  2  0
  2 18  1  0
 18 19  2  0
 19 20  1  0
 20 21  2  0
 21 22  1  0
 22 23  2  0
 23 24  1  0
 23 25  1  0
 25 26  2  0
 26 27  1  0
 27 28  2  0
 11  7  1  0
 17 12  1  0
 28 18  1  0
 27 21  1  0
  3 29  1  0
  4 30  1  0
  4 31  1  0
  8 32  1  0
  8 33  1  0
  9 34  1  0
  9 35  1  0
 10 36  1  0
 10 37  1  0
 11 38  1  6
 13 39  1  0
 14 40  1  0
 16 41  1  0
 17 42  1  0
 19 43  1  0
 20 44  1  0
 22 45  1  0
 25 46  1  0
 26 47  1  0
M  END
>  <smiles>  (39) 
O=C(NCC(=O)N1CCCC1c1ccncc1)c1ccc2cc(F)ccc2n1

>  <score_type>  (39) 
oracle

>  <origin>  (39) 
autodockgpu

>  <m_score__min__energy>  (39) 
-8.6199999999999992

>  <m_primary>  (39) 
energy

>  <rmsd>  (39) 
8.688694889203386

>  <m_score__min__rmsd>  (39) 
8.688694889203386

>  <meeko>  (39) 
{"free_energy": -8.35, "intermolecular_energy": -9.84, "internal_energy": -1.38, "cluster_size": 18, "cluster_id": 3, "rank_in_cluster": 11}

>  <energy>  (39) 
-8.38

>  <cluster_rmsd>  (39) 
0.19

>  <cluster>  (39) 
3

$$$$

     RDKit          3D

 47 50  0  0  0  0  0  0  0  0999 V2000
  140.3860   71.5390  221.0810 O   0  0  0  0  0  0  0  0  0  0  0  0
  140.0620   71.9880  222.1920 C   0  0  0  0  0  0  0  0  0  0  0  0
  139.7370   73.3620  222.3280 N   0  0  0  0  0  0  0  0  0  0  0  0
  139.7960   74.1910  221.1590 C   0  0  0  0  0  0  0  0  0  0  0  0
  140.9800   75.0720  221.1080 C   0  0  0  0  0  0  0  0  0  0  0  0
  141.3900   75.7620  222.0800 O   0  0  0  0  0  0  0  0  0  0  0  0
  141.7250   75.1670  219.9010 N   0  0  0  0  0  0  0  0  0  0  0  0
  141.3440   74.7420  218.5550 C   0  0  0  0  0  0  0  0  0  0  0  0
  141.9260   75.8020  217.6180 C   0  0  0  0  0  0  0  0  0  0  0  0
  142.9060   76.5830  218.4510 C   0  0  0  0  0  0  0  0  0  0  0  0
  143.0760   75.7240  219.7120 C   0  0  2  0  0  0  0  0  0  0  0  0
  144.0580   74.6360  219.5330 C   0  0  0  0  0  0  0  0  0  0  0  0
  144.7040   74.1400  220.6640 C   0  0  0  0  0  0  0  0  0  0  0  0
  145.6450   73.1120  220.5410 C   0  0  0  0  0  0  0  0  0  0  0  0
  145.9580   72.5710  219.3500 N   0  0  0  0  0  0  0  0  0  0  0  0
  145.3450   73.0400  218.2590 C   0  0  0  0  0  0  0  0  0  0  0  0
  144.4010   74.0620  218.3380 C   0  0  0  0  0  0  0  0  0  0  0  0
  140.0040   71.1330  223.3810 C   0  0  0  0  0  0  0  0  0  0  0  0
  139.4790   69.8600  223.2970 C   0  0  0  0  0  0  0  0  0  0  0  0
  139.4200   69.0460  224.4110 C   0  0  0  0  0  0  0  0  0  0  0  0
  139.8920   69.5000  225.6360 C   0  0  0  0  0  0  0  0  0  0  0  0
  139.8510   68.7160  226.7780 C   0  0  0  0  0  0  0  0  0  0  0  0
  140.3400   69.2370  227.9660 C   0  0  0  0  0  0  0  0  0  0  0  0
  140.3190   68.5000  229.1140 F   0  0  0  0  0  0  0  0  0  0  0  0
  140.8590   70.5080  228.0280 C   0  0  0  0  0  0  0  0  0  0  0  0
  140.8970   71.2850  226.8900 C   0  0  0  0  0  0  0  0  0  0  0  0
  140.4110   70.7750  225.6890 C   0  0  0  0  0  0  0  0  0  0  0  0
  140.4550   71.5470  224.5850 N   0  0  0  0  0  0  0  0  0  0  0  0
  139.4590   73.7530  223.2730 H   0  0  0  0  0  0  0  0  0  0  0  0
  139.8111   73.5393  220.2729 H   0  0  0  0  0  0  0  0  0  0  0  0
  138.9125   74.8457  221.1875 H   0  0  0  0  0  0  0  0  0  0  0  0
  141.7683   73.7527  218.3286 H   0  0  0  0  0  0  0  0  0  0  0  0
  140.2530   74.6525  218.4462 H   0  0  0  0  0  0  0  0  0  0  0  0
  142.4378   75.3250  216.7692 H   0  0  0  0  0  0  0  0  0  0  0  0
  141.1419   76.4491  217.1979 H   0  0  0  0  0  0  0  0  0  0  0  0
  143.8642   76.6995  217.9234 H   0  0  0  0  0  0  0  0  0  0  0  0
  142.5594   77.6031  218.6732 H   0  0  0  0  0  0  0  0  0  0  0  0
  143.4557   76.3057  220.5649 H   0  0  0  0  0  0  0  0  0  0  0  0
  144.4736   74.5576  221.6552 H   0  0  0  0  0  0  0  0  0  0  0  0
  146.1440   72.7347  221.4458 H   0  0  0  0  0  0  0  0  0  0  0  0
  145.5911   72.6098  217.2770 H   0  0  0  0  0  0  0  0  0  0  0  0
  143.9184   74.4172  217.4156 H   0  0  0  0  0  0  0  0  0  0  0  0
  139.1032   69.4892  222.3319 H   0  0  0  0  0  0  0  0  0  0  0  0
  138.9974   68.0338  224.3279 H   0  0  0  0  0  0  0  0  0  0  0  0
  139.4374   67.6974  226.7424 H   0  0  0  0  0  0  0  0  0  0  0  0
  141.2420   70.9031  228.9805 H   0  0  0  0  0  0  0  0  0  0  0  0
  141.3096   72.3039  226.9305 H   0  0  0  0  0  0  0  0  0  0  0  0
  1  2  2  0
  2  3  1  0
  3  4  1  0
  4  5  1  0
  5  6  2  0
  5  7  1  0
  7  8  1  0
  8  9  1  0
  9 10  1  0
 10 11  1  0
 11 12  1  0
 12 13  2  0
 13 14  1  0
 14 15  2  0
 15 16  1  0
 16 17  2  0
  2 18  1  0
 18 19  2  0
 19 20  1  0
 20 21  2  0
 21 22  1  0
 22 23  2  0
 23 24  1  0
 23 25  1  0
 25 26  2  0
 26 27  1  0
 27 28  2  0
 11  7  1  0
 17 12  1  0
 28 18  1  0
 27 21  1  0
  3 29  1  0
  4 30  1  0
  4 31  1  0
  8 32  1  0
  8 33  1  0
  9 34  1  0
  9 35  1  0
 10 36  1  0
 10 37  1  0
 11 38  1  1
 13 39  1  0
 14 40  1  0
 16 41  1  0
 17 42  1  0
 19 43  1  0
 20 44  1  0
 22 45  1  0
 25 46  1  0
 26 47  1  0
M  END
>  <smiles>  (40) 
O=C(NCC(=O)N1CCCC1c1ccncc1)c1ccc2cc(F)ccc2n1

>  <score_type>  (40) 
oracle

>  <origin>  (40) 
autodockgpu

>  <m_score__min__energy>  (40) 
-8.6199999999999992

>  <m_primary>  (40) 
energy

>  <rmsd>  (40) 
1.6830940694398036

>  <m_score__min__rmsd>  (40) 
1.6830940694398036

>  <meeko>  (40) 
{"free_energy": -8.26, "intermolecular_energy": -9.75, "internal_energy": -1.27, "cluster_size": 9, "cluster_id": 2, "rank_in_cluster": 6}

>  <energy>  (40) 
-8.38

>  <cluster_rmsd>  (40) 
0.15

>  <cluster>  (40) 
3

$$$$

     RDKit          3D

 47 50  0  0  0  0  0  0  0  0999 V2000
  140.9130   71.9260  221.1880 O   0  0  0  0  0  0  0  0  0  0  0  0
  140.3480   72.3550  222.2070 C   0  0  0  0  0  0  0  0  0  0  0  0
  139.8690   73.6890  222.2370 N   0  0  0  0  0  0  0  0  0  0  0  0
  140.0580   74.5030  221.0710 C   0  0  0  0  0  0  0  0  0  0  0  0
  141.4570   74.9160  220.8490 C   0  0  0  0  0  0  0  0  0  0  0  0
  142.4530   74.1620  221.0200 O   0  0  0  0  0  0  0  0  0  0  0  0
  141.7310   76.2410  220.4120 N   0  0  0  0  0  0  0  0  0  0  0  0
  142.9310   76.7580  219.7550 C   0  0  0  0  0  0  0  0  0  0  0  0
  142.4240   77.7860  218.7420 C   0  0  0  0  0  0  0  0  0  0  0  0
  140.9930   78.0560  219.1220 C   0  0  0  0  0  0  0  0  0  0  0  0
  140.8630   77.4280  220.5170 C   0  0  2  0  0  0  0  0  0  0  0  0
  141.3420   78.3200  221.5920 C   0  0  0  0  0  0  0  0  0  0  0  0
  141.8210   79.5790  221.2370 C   0  0  0  0  0  0  0  0  0  0  0  0
  142.2890   80.4560  222.2220 C   0  0  0  0  0  0  0  0  0  0  0  0
  142.2950   80.1250  223.5260 N   0  0  0  0  0  0  0  0  0  0  0  0
  141.8380   78.9190  223.8770 C   0  0  0  0  0  0  0  0  0  0  0  0
  141.3630   78.0170  222.9270 C   0  0  0  0  0  0  0  0  0  0  0  0
  140.1590   71.5150  223.3930 C   0  0  0  0  0  0  0  0  0  0  0  0
  139.4960   70.3090  223.2930 C   0  0  0  0  0  0  0  0  0  0  0  0
  139.3130   69.5100  224.4040 C   0  0  0  0  0  0  0  0  0  0  0  0
  139.7960   69.9120  225.6430 C   0  0  0  0  0  0  0  0  0  0  0  0
  139.6340   69.1410  226.7820 C   0  0  0  0  0  0  0  0  0  0  0  0
  140.1430   69.6070  227.9850 C   0  0  0  0  0  0  0  0  0  0  0  0
  140.0050   68.8810  229.1310 F   0  0  0  0  0  0  0  0  0  0  0  0
  140.8000   70.8110  228.0630 C   0  0  0  0  0  0  0  0  0  0  0  0
  140.9590   71.5750  226.9270 C   0  0  0  0  0  0  0  0  0  0  0  0
  140.4540   71.1210  225.7120 C   0  0  0  0  0  0  0  0  0  0  0  0
  140.6170   71.8800  224.6100 N   0  0  0  0  0  0  0  0  0  0  0  0
  139.3850   74.0620  223.1030 H   0  0  0  0  0  0  0  0  0  0  0  0
  139.7220   73.9326  220.1925 H   0  0  0  0  0  0  0  0  0  0  0  0
  139.4750   75.4228  221.2265 H   0  0  0  0  0  0  0  0  0  0  0  0
  143.5967   77.2358  220.4888 H   0  0  0  0  0  0  0  0  0  0  0  0
  143.5119   75.9581  219.2725 H   0  0  0  0  0  0  0  0  0  0  0  0
  143.0182   78.7098  218.8021 H   0  0  0  0  0  0  0  0  0  0  0  0
  142.5084   77.4162  217.7095 H   0  0  0  0  0  0  0  0  0  0  0  0
  140.7940   79.1372  219.1583 H   0  0  0  0  0  0  0  0  0  0  0  0
  140.2744   77.6422  218.3993 H   0  0  0  0  0  0  0  0  0  0  0  0
  139.8176   77.2102  220.7809 H   0  0  0  0  0  0  0  0  0  0  0  0
  141.8314   79.8844  220.1803 H   0  0  0  0  0  0  0  0  0  0  0  0
  142.6632   81.4457  221.9211 H   0  0  0  0  0  0  0  0  0  0  0  0
  141.8368   78.6323  224.9390 H   0  0  0  0  0  0  0  0  0  0  0  0
  140.9949   77.0349  223.2587 H   0  0  0  0  0  0  0  0  0  0  0  0
  139.1089   69.9805  222.3172 H   0  0  0  0  0  0  0  0  0  0  0  0
  138.7826   68.5512  224.3077 H   0  0  0  0  0  0  0  0  0  0  0  0
  139.1102   68.1749  226.7333 H   0  0  0  0  0  0  0  0  0  0  0  0
  141.1969   71.1632  229.0266 H   0  0  0  0  0  0  0  0  0  0  0  0
  141.4833   72.5405  226.9804 H   0  0  0  0  0  0  0  0  0  0  0  0
  1  2  2  0
  2  3  1  0
  3  4  1  0
  4  5  1  0
  5  6  2  0
  5  7  1  0
  7  8  1  0
  8  9  1  0
  9 10  1  0
 10 11  1  0
 11 12  1  0
 12 13  2  0
 13 14  1  0
 14 15  2  0
 15 16  1  0
 16 17  2  0
  2 18  1  0
 18 19  2  0
 19 20  1  0
 20 21  2  0
 21 22  1  0
 22 23  2  0
 23 24  1  0
 23 25  1  0
 25 26  2  0
 26 27  1  0
 27 28  2  0
 11  7  1  0
 17 12  1  0
 28 18  1  0
 27 21  1  0
  3 29  1  0
  4 30  1  0
  4 31  1  0
  8 32  1  0
  8 33  1  0
  9 34  1  0
  9 35  1  0
 10 36  1  0
 10 37  1  0
 11 38  1  1
 13 39  1  0
 14 40  1  0
 16 41  1  0
 17 42  1  0
 19 43  1  0
 20 44  1  0
 22 45  1  0
 25 46  1  0
 26 47  1  0
M  END
>  <smiles>  (41) 
O=C(NCC(=O)N1CCCC1c1ccncc1)c1ccc2cc(F)ccc2n1

>  <score_type>  (41) 
oracle

>  <origin>  (41) 
autodockgpu

>  <m_score__min__energy>  (41) 
-8.6199999999999992

>  <m_primary>  (41) 
energy

>  <rmsd>  (41) 
2.1720753779215842

>  <m_score__min__rmsd>  (41) 
2.1720753779215842

>  <meeko>  (41) 
{"free_energy": -8.45, "intermolecular_energy": -9.94, "internal_energy": -1.1, "cluster_size": 22, "cluster_id": 1, "rank_in_cluster": 11}

>  <energy>  (41) 
-8.37

>  <cluster_rmsd>  (41) 
0.13

>  <cluster>  (41) 
3

$$$$

     RDKit          3D

 47 50  0  0  0  0  0  0  0  0999 V2000
  141.1190   72.9800  222.1750 O   0  0  0  0  0  0  0  0  0  0  0  0
  140.0470   72.6600  222.7130 C   0  0  0  0  0  0  0  0  0  0  0  0
  138.8430   73.2930  222.3100 N   0  0  0  0  0  0  0  0  0  0  0  0
  138.9120   74.2900  221.2820 C   0  0  0  0  0  0  0  0  0  0  0  0
  139.2450   75.6400  221.7770 C   0  0  0  0  0  0  0  0  0  0  0  0
  138.6150   76.2320  222.6950 O   0  0  0  0  0  0  0  0  0  0  0  0
  140.3410   76.3410  221.2050 N   0  0  0  0  0  0  0  0  0  0  0  0
  141.6860   75.8510  220.9080 C   0  0  0  0  0  0  0  0  0  0  0  0
  142.0840   76.5350  219.5990 C   0  0  0  0  0  0  0  0  0  0  0  0
  141.0890   77.6460  219.4040 C   0  0  0  0  0  0  0  0  0  0  0  0
  140.3880   77.7470  220.7660 C   0  0  2  0  0  0  0  0  0  0  0  0
  141.1450   78.5620  221.7380 C   0  0  0  0  0  0  0  0  0  0  0  0
  141.0940   78.1990  223.0820 C   0  0  0  0  0  0  0  0  0  0  0  0
  141.7910   78.9440  224.0390 C   0  0  0  0  0  0  0  0  0  0  0  0
  142.5260   80.0210  223.7060 N   0  0  0  0  0  0  0  0  0  0  0  0
  142.5810   80.3790  222.4190 C   0  0  0  0  0  0  0  0  0  0  0  0
  141.9010   79.6620  221.4360 C   0  0  0  0  0  0  0  0  0  0  0  0
  139.9860   71.6390  223.7620 C   0  0  0  0  0  0  0  0  0  0  0  0
  139.3630   70.4320  223.5220 C   0  0  0  0  0  0  0  0  0  0  0  0
  139.3010   69.4630  224.5050 C   0  0  0  0  0  0  0  0  0  0  0  0
  139.8670   69.6930  225.7520 C   0  0  0  0  0  0  0  0  0  0  0  0
  139.8260   68.7490  226.7650 C   0  0  0  0  0  0  0  0  0  0  0  0
  140.4130   69.0490  227.9850 C   0  0  0  0  0  0  0  0  0  0  0  0
  140.3950   68.1480  229.0090 F   0  0  0  0  0  0  0  0  0  0  0  0
  141.0280   70.2580  228.2030 C   0  0  0  0  0  0  0  0  0  0  0  0
  141.0660   71.1950  227.1930 C   0  0  0  0  0  0  0  0  0  0  0  0
  140.4820   70.9080  225.9620 C   0  0  0  0  0  0  0  0  0  0  0  0
  140.5270   71.8350  224.9850 N   0  0  0  0  0  0  0  0  0  0  0  0
  137.9230   73.0260  222.7640 H   0  0  0  0  0  0  0  0  0  0  0  0
  139.6825   73.9873  220.5576 H   0  0  0  0  0  0  0  0  0  0  0  0
  137.9101   74.3538  220.8325 H   0  0  0  0  0  0  0  0  0  0  0  0
  142.3828   76.1254  221.7137 H   0  0  0  0  0  0  0  0  0  0  0  0
  141.7140   74.7546  220.8232 H   0  0  0  0  0  0  0  0  0  0  0  0
  143.1036   76.9413  219.6727 H   0  0  0  0  0  0  0  0  0  0  0  0
  142.0785   75.8309  218.7539 H   0  0  0  0  0  0  0  0  0  0  0  0
  141.5973   78.5887  219.1532 H   0  0  0  0  0  0  0  0  0  0  0  0
  140.3898   77.4529  218.5770 H   0  0  0  0  0  0  0  0  0  0  0  0
  139.4060   78.2375  220.6940 H   0  0  0  0  0  0  0  0  0  0  0  0
  140.5038   77.3239  223.3916 H   0  0  0  0  0  0  0  0  0  0  0  0
  141.7367   78.6406  225.0949 H   0  0  0  0  0  0  0  0  0  0  0  0
  143.1755   81.2581  222.1298 H   0  0  0  0  0  0  0  0  0  0  0  0
  141.9741   79.9894  220.3884 H   0  0  0  0  0  0  0  0  0  0  0  0
  138.9109   70.2389  222.5380 H   0  0  0  0  0  0  0  0  0  0  0  0
  138.8010   68.5051  224.2989 H   0  0  0  0  0  0  0  0  0  0  0  0
  139.3359   67.7774  226.6043 H   0  0  0  0  0  0  0  0  0  0  0  0
  141.4875   70.4769  229.1782 H   0  0  0  0  0  0  0  0  0  0  0  0
  141.5558   72.1659  227.3587 H   0  0  0  0  0  0  0  0  0  0  0  0
  1  2  2  0
  2  3  1  0
  3  4  1  0
  4  5  1  0
  5  6  2  0
  5  7  1  0
  7  8  1  0
  8  9  1  0
  9 10  1  0
 10 11  1  0
 11 12  1  0
 12 13  2  0
 13 14  1  0
 14 15  2  0
 15 16  1  0
 16 17  2  0
  2 18  1  0
 18 19  2  0
 19 20  1  0
 20 21  2  0
 21 22  1  0
 22 23  2  0
 23 24  1  0
 23 25  1  0
 25 26  2  0
 26 27  1  0
 27 28  2  0
 11  7  1  0
 17 12  1  0
 28 18  1  0
 27 21  1  0
  3 29  1  0
  4 30  1  0
  4 31  1  0
  8 32  1  0
  8 33  1  0
  9 34  1  0
  9 35  1  0
 10 36  1  0
 10 37  1  0
 11 38  1  6
 13 39  1  0
 14 40  1  0
 16 41  1  0
 17 42  1  0
 19 43  1  0
 20 44  1  0
 22 45  1  0
 25 46  1  0
 26 47  1  0
M  END
>  <smiles>  (42) 
O=C(NCC(=O)N1CCCC1c1ccncc1)c1ccc2cc(F)ccc2n1

>  <score_type>  (42) 
oracle

>  <origin>  (42) 
autodockgpu

>  <m_score__min__energy>  (42) 
-8.6199999999999992

>  <m_primary>  (42) 
energy

>  <rmsd>  (42) 
1.9755711592526024

>  <m_score__min__rmsd>  (42) 
1.9755711592526024

>  <meeko>  (42) 
{"free_energy": -8.51, "intermolecular_energy": -10.0, "internal_energy": -1.25, "cluster_size": 22, "cluster_id": 1, "rank_in_cluster": 8}

>  <energy>  (42) 
-8.35

>  <cluster_rmsd>  (42) 
0.23

>  <cluster>  (42) 
3

$$$$

     RDKit          3D

 47 50  0  0  0  0  0  0  0  0999 V2000
  141.2650   72.7300  221.9130 O   0  0  0  0  0  0  0  0  0  0  0  0
  140.2430   72.6050  222.6070 C   0  0  0  0  0  0  0  0  0  0  0  0
  139.1150   73.4250  222.3510 N   0  0  0  0  0  0  0  0  0  0  0  0
  139.2000   74.3800  221.2840 C   0  0  0  0  0  0  0  0  0  0  0  0
  139.4070   75.7690  221.7380 C   0  0  0  0  0  0  0  0  0  0  0  0
  138.6870   76.3470  222.5960 O   0  0  0  0  0  0  0  0  0  0  0  0
  140.4790   76.5270  221.1930 N   0  0  0  0  0  0  0  0  0  0  0  0
  141.8300   76.0850  220.8490 C   0  0  0  0  0  0  0  0  0  0  0  0
  142.1940   76.8530  219.5780 C   0  0  0  0  0  0  0  0  0  0  0  0
  141.1730   77.9520  219.4630 C   0  0  0  0  0  0  0  0  0  0  0  0
  140.4900   77.9570  220.8380 C   0  0  2  0  0  0  0  0  0  0  0  0
  141.2430   78.7300  221.8460 C   0  0  0  0  0  0  0  0  0  0  0  0
  141.1400   78.3460  223.1810 C   0  0  0  0  0  0  0  0  0  0  0  0
  141.8320   79.0520  224.1710 C   0  0  0  0  0  0  0  0  0  0  0  0
  142.6110   80.1090  223.8790 N   0  0  0  0  0  0  0  0  0  0  0  0
  142.7170   80.4860  222.6010 C   0  0  0  0  0  0  0  0  0  0  0  0
  142.0430   79.8100  221.5850 C   0  0  0  0  0  0  0  0  0  0  0  0
  140.1660   71.6250  223.6950 C   0  0  0  0  0  0  0  0  0  0  0  0
  139.5990   70.3870  223.4760 C   0  0  0  0  0  0  0  0  0  0  0  0
  139.5220   69.4570  224.4940 C   0  0  0  0  0  0  0  0  0  0  0  0
  140.0170   69.7580  225.7570 C   0  0  0  0  0  0  0  0  0  0  0  0
  139.9590   68.8540  226.8050 C   0  0  0  0  0  0  0  0  0  0  0  0
  140.4730   69.2250  228.0380 C   0  0  0  0  0  0  0  0  0  0  0  0
  140.4360   68.3670  229.0980 F   0  0  0  0  0  0  0  0  0  0  0  0
  141.0330   70.4640  228.2350 C   0  0  0  0  0  0  0  0  0  0  0  0
  141.0890   71.3600  227.1890 C   0  0  0  0  0  0  0  0  0  0  0  0
  140.5770   71.0020  225.9450 C   0  0  0  0  0  0  0  0  0  0  0  0
  140.6390   71.8900  224.9320 N   0  0  0  0  0  0  0  0  0  0  0  0
  138.2390   73.3240  222.9380 H   0  0  0  0  0  0  0  0  0  0  0  0
  140.0421   74.0991  220.6344 H   0  0  0  0  0  0  0  0  0  0  0  0
  138.2341   74.3572  220.7581 H   0  0  0  0  0  0  0  0  0  0  0  0
  142.5328   76.3268  221.6600 H   0  0  0  0  0  0  0  0  0  0  0  0
  141.8798   74.9964  220.6990 H   0  0  0  0  0  0  0  0  0  0  0  0
  143.2059   77.2762  219.6616 H   0  0  0  0  0  0  0  0  0  0  0  0
  142.1906   76.2000  218.6928 H   0  0  0  0  0  0  0  0  0  0  0  0
  141.6578   78.9187  219.2619 H   0  0  0  0  0  0  0  0  0  0  0  0
  140.4659   77.7930  218.6355 H   0  0  0  0  0  0  0  0  0  0  0  0
  139.4969   78.4291  220.8087 H   0  0  0  0  0  0  0  0  0  0  0  0
  140.5130   77.4855  223.4576 H   0  0  0  0  0  0  0  0  0  0  0  0
  141.7362   78.7332  225.2194 H   0  0  0  0  0  0  0  0  0  0  0  0
  143.3499   81.3486  222.3453 H   0  0  0  0  0  0  0  0  0  0  0  0
  142.1569   80.1534  220.5462 H   0  0  0  0  0  0  0  0  0  0  0  0
  139.2040   70.1378  222.4801 H   0  0  0  0  0  0  0  0  0  0  0  0
  139.0669   68.4737  224.3042 H   0  0  0  0  0  0  0  0  0  0  0  0
  139.5128   67.8589  226.6614 H   0  0  0  0  0  0  0  0  0  0  0  0
  141.4343   70.7393  229.2215 H   0  0  0  0  0  0  0  0  0  0  0  0
  141.5365   72.3540  227.3367 H   0  0  0  0  0  0  0  0  0  0  0  0
  1  2  2  0
  2  3  1  0
  3  4  1  0
  4  5  1  0
  5  6  2  0
  5  7  1  0
  7  8  1  0
  8  9  1  0
  9 10  1  0
 10 11  1  0
 11 12  1  0
 12 13  2  0
 13 14  1  0
 14 15  2  0
 15 16  1  0
 16 17  2  0
  2 18  1  0
 18 19  2  0
 19 20  1  0
 20 21  2  0
 21 22  1  0
 22 23  2  0
 23 24  1  0
 23 25  1  0
 25 26  2  0
 26 27  1  0
 27 28  2  0
 11  7  1  0
 17 12  1  0
 28 18  1  0
 27 21  1  0
  3 29  1  0
  4 30  1  0
  4 31  1  0
  8 32  1  0
  8 33  1  0
  9 34  1  0
  9 35  1  0
 10 36  1  0
 10 37  1  0
 11 38  1  6
 13 39  1  0
 14 40  1  0
 16 41  1  0
 17 42  1  0
 19 43  1  0
 20 44  1  0
 22 45  1  0
 25 46  1  0
 26 47  1  0
M  END
>  <smiles>  (43) 
O=C(NCC(=O)N1CCCC1c1ccncc1)c1ccc2cc(F)ccc2n1

>  <score_type>  (43) 
oracle

>  <origin>  (43) 
autodockgpu

>  <m_score__min__energy>  (43) 
-8.6199999999999992

>  <m_primary>  (43) 
energy

>  <rmsd>  (43) 
2.0506791924284142

>  <m_score__min__rmsd>  (43) 
2.0506791924284142

>  <meeko>  (43) 
{"free_energy": -8.62, "intermolecular_energy": -10.11, "internal_energy": -1.24, "cluster_size": 22, "cluster_id": 1, "rank_in_cluster": 2}

>  <energy>  (43) 
-7.87

>  <cluster_rmsd>  (43) 
1.62

>  <cluster>  (43) 
3

$$$$

     RDKit          3D

 47 50  0  0  0  0  0  0  0  0999 V2000
  141.0540   74.3880  221.3860 O   0  0  0  0  0  0  0  0  0  0  0  0
  140.0330   74.8150  221.9490 C   0  0  0  0  0  0  0  0  0  0  0  0
  138.9550   73.9320  222.2150 N   0  0  0  0  0  0  0  0  0  0  0  0
  139.0900   72.5600  221.8190 C   0  0  0  0  0  0  0  0  0  0  0  0
  139.9980   71.7740  222.6780 C   0  0  0  0  0  0  0  0  0  0  0  0
  141.2520   71.7550  222.5500 O   0  0  0  0  0  0  0  0  0  0  0  0
  139.4540   70.9810  223.7240 N   0  0  0  0  0  0  0  0  0  0  0  0
  138.0790   70.9400  224.2210 C   0  0  0  0  0  0  0  0  0  0  0  0
  137.8190   69.4730  224.5650 C   0  0  0  0  0  0  0  0  0  0  0  0
  139.1720   68.8140  224.5780 C   0  0  0  0  0  0  0  0  0  0  0  0
  140.1510   69.9970  224.5720 C   0  0  2  0  0  0  0  0  0  0  0  0
  140.3820   70.5540  225.9200 C   0  0  0  0  0  0  0  0  0  0  0  0
  141.1080   71.7380  226.0270 C   0  0  0  0  0  0  0  0  0  0  0  0
  141.3550   72.2990  227.2840 C   0  0  0  0  0  0  0  0  0  0  0  0
  140.9080   71.7300  228.4190 N   0  0  0  0  0  0  0  0  0  0  0  0
  140.2110   70.5930  228.3280 C   0  0  0  0  0  0  0  0  0  0  0  0
  139.9430   70.0020  227.0940 C   0  0  0  0  0  0  0  0  0  0  0  0
  139.9050   76.2180  222.3500 C   0  0  0  0  0  0  0  0  0  0  0  0
  141.0320   76.9910  222.5470 C   0  0  0  0  0  0  0  0  0  0  0  0
  140.9220   78.3150  222.9250 C   0  0  0  0  0  0  0  0  0  0  0  0
  139.6700   78.8880  223.1130 C   0  0  0  0  0  0  0  0  0  0  0  0
  139.5160   80.2110  223.4930 C   0  0  0  0  0  0  0  0  0  0  0  0
  138.2360   80.7140  223.6620 C   0  0  0  0  0  0  0  0  0  0  0  0
  138.0380   82.0120  224.0360 F   0  0  0  0  0  0  0  0  0  0  0  0
  137.1270   79.9280  223.4620 C   0  0  0  0  0  0  0  0  0  0  0  0
  137.2850   78.6120  223.0850 C   0  0  0  0  0  0  0  0  0  0  0  0
  138.5640   78.0920  222.9100 C   0  0  0  0  0  0  0  0  0  0  0  0
  138.7020   76.8030  222.5420 N   0  0  0  0  0  0  0  0  0  0  0  0
  138.0810   74.2880  222.6960 H   0  0  0  0  0  0  0  0  0  0  0  0
  138.0949   72.0920  221.8479 H   0  0  0  0  0  0  0  0  0  0  0  0
  139.5280   72.5614  220.8100 H   0  0  0  0  0  0  0  0  0  0  0  0
  137.9738   71.5704  225.1163 H   0  0  0  0  0  0  0  0  0  0  0  0
  137.3625   71.3207  223.4782 H   0  0  0  0  0  0  0  0  0  0  0  0
  137.3416   69.3890  225.5524 H   0  0  0  0  0  0  0  0  0  0  0  0
  137.1423   68.9986  223.8390 H   0  0  0  0  0  0  0  0  0  0  0  0
  139.3017   68.2016  225.4825 H   0  0  0  0  0  0  0  0  0  0  0  0
  139.3224   68.1309  223.7291 H   0  0  0  0  0  0  0  0  0  0  0  0
  141.1507   69.7096  224.2141 H   0  0  0  0  0  0  0  0  0  0  0  0
  141.4878   72.2327  225.1209 H   0  0  0  0  0  0  0  0  0  0  0  0
  141.9319   73.2334  227.3471 H   0  0  0  0  0  0  0  0  0  0  0  0
  139.8410   70.1134  229.2462 H   0  0  0  0  0  0  0  0  0  0  0  0
  139.3635   69.0675  227.0625 H   0  0  0  0  0  0  0  0  0  0  0  0
  142.0281   76.5477  222.4013 H   0  0  0  0  0  0  0  0  0  0  0  0
  141.8291   78.9182  223.0778 H   0  0  0  0  0  0  0  0  0  0  0  0
  140.3950   80.8515  223.6578 H   0  0  0  0  0  0  0  0  0  0  0  0
  136.1194   80.3465  223.6019 H   0  0  0  0  0  0  0  0  0  0  0  0
  136.4032   77.9747  222.9229 H   0  0  0  0  0  0  0  0  0  0  0  0
  1  2  2  0
  2  3  1  0
  3  4  1  0
  4  5  1  0
  5  6  2  0
  5  7  1  0
  7  8  1  0
  8  9  1  0
  9 10  1  0
 10 11  1  0
 11 12  1  0
 12 13  2  0
 13 14  1  0
 14 15  2  0
 15 16  1  0
 16 17  2  0
  2 18  1  0
 18 19  2  0
 19 20  1  0
 20 21  2  0
 21 22  1  0
 22 23  2  0
 23 24  1  0
 23 25  1  0
 25 26  2  0
 26 27  1  0
 27 28  2  0
 11  7  1  0
 17 12  1  0
 28 18  1  0
 27 21  1  0
  3 29  1  0
  4 30  1  0
  4 31  1  0
  8 32  1  0
  8 33  1  0
  9 34  1  0
  9 35  1  0
 10 36  1  0
 10 37  1  0
 11 38  1  6
 13 39  1  0
 14 40  1  0
 16 41  1  0
 17 42  1  0
 19 43  1  0
 20 44  1  0
 22 45  1  0
 25 46  1  0
 26 47  1  0
M  END
>  <smiles>  (44) 
O=C(NCC(=O)N1CCCC1c1ccncc1)c1ccc2cc(F)ccc2n1

>  <score_type>  (44) 
oracle

>  <origin>  (44) 
autodockgpu

>  <m_score__min__energy>  (44) 
-8.6199999999999992

>  <m_primary>  (44) 
energy

>  <rmsd>  (44) 
8.657636931879418

>  <m_score__min__rmsd>  (44) 
8.657636931879418

>  <meeko>  (44) 
{"free_energy": -7.87, "intermolecular_energy": -9.36, "internal_energy": -1.42, "cluster_size": 18, "cluster_id": 3, "rank_in_cluster": 13}

>  <energy>  (44) 
-7.87

>  <cluster_rmsd>  (44) 
1.62

>  <cluster>  (44) 
3

$$$$

     RDKit          3D

 47 50  0  0  0  0  0  0  0  0999 V2000
  141.0430   73.8140  220.4590 O   0  0  0  0  0  0  0  0  0  0  0  0
  140.5150   74.6080  221.2550 C   0  0  0  0  0  0  0  0  0  0  0  0
  139.4630   74.1640  222.0960 N   0  0  0  0  0  0  0  0  0  0  0  0
  139.0440   72.7960  221.9930 C   0  0  0  0  0  0  0  0  0  0  0  0
  139.9480   71.8400  222.6630 C   0  0  0  0  0  0  0  0  0  0  0  0
  141.1630   71.6890  222.3650 O   0  0  0  0  0  0  0  0  0  0  0  0
  139.4450   71.0270  223.7160 N   0  0  0  0  0  0  0  0  0  0  0  0
  138.0790   70.9340  224.2270 C   0  0  0  0  0  0  0  0  0  0  0  0
  137.8780   69.4580  224.5730 C   0  0  0  0  0  0  0  0  0  0  0  0
  139.2550   68.8520  224.5720 C   0  0  0  0  0  0  0  0  0  0  0  0
  140.1880   70.0710  224.5560 C   0  0  2  0  0  0  0  0  0  0  0  0
  140.4110   70.6370  225.9010 C   0  0  0  0  0  0  0  0  0  0  0  0
  139.9090   69.9430  226.9990 C   0  0  0  0  0  0  0  0  0  0  0  0
  140.0930   70.4430  228.2920 C   0  0  0  0  0  0  0  0  0  0  0  0
  140.7510   71.5940  228.5240 N   0  0  0  0  0  0  0  0  0  0  0  0
  141.2380   72.2690  227.4770 C   0  0  0  0  0  0  0  0  0  0  0  0
  141.0750   71.8030  226.1730 C   0  0  0  0  0  0  0  0  0  0  0  0
  140.9500   76.0040  221.3530 C   0  0  0  0  0  0  0  0  0  0  0  0
  141.6810   76.5780  220.3330 C   0  0  0  0  0  0  0  0  0  0  0  0
  142.0950   77.8920  220.4160 C   0  0  0  0  0  0  0  0  0  0  0  0
  141.7810   78.6570  221.5330 C   0  0  0  0  0  0  0  0  0  0  0  0
  142.1770   79.9790  221.6550 C   0  0  0  0  0  0  0  0  0  0  0  0
  141.8270   80.6800  222.7990 C   0  0  0  0  0  0  0  0  0  0  0  0
  142.1970   81.9830  222.9620 F   0  0  0  0  0  0  0  0  0  0  0  0
  141.0990   80.0890  223.8030 C   0  0  0  0  0  0  0  0  0  0  0  0
  140.7060   78.7740  223.6770 C   0  0  0  0  0  0  0  0  0  0  0  0
  141.0500   78.0570  222.5350 C   0  0  0  0  0  0  0  0  0  0  0  0
  140.6600   76.7710  222.4260 N   0  0  0  0  0  0  0  0  0  0  0  0
  139.0070   74.8350  222.7790 H   0  0  0  0  0  0  0  0  0  0  0  0
  138.0460   72.7046  222.4465 H   0  0  0  0  0  0  0  0  0  0  0  0
  139.0473   72.5414  220.9229 H   0  0  0  0  0  0  0  0  0  0  0  0
  137.9595   71.5598  225.1237 H   0  0  0  0  0  0  0  0  0  0  0  0
  137.3409   71.2874  223.4920 H   0  0  0  0  0  0  0  0  0  0  0  0
  137.4140   69.3557  225.5651 H   0  0  0  0  0  0  0  0  0  0  0  0
  137.2124   68.9580  223.8540 H   0  0  0  0  0  0  0  0  0  0  0  0
  139.4174   68.2454  225.4751 H   0  0  0  0  0  0  0  0  0  0  0  0
  139.4227   68.1752  223.7212 H   0  0  0  0  0  0  0  0  0  0  0  0
  141.1942   69.8217  224.1879 H   0  0  0  0  0  0  0  0  0  0  0  0
  139.3659   68.9983  226.8488 H   0  0  0  0  0  0  0  0  0  0  0  0
  139.6879   69.8788  229.1449 H   0  0  0  0  0  0  0  0  0  0  0  0
  141.7785   73.2116  227.6483 H   0  0  0  0  0  0  0  0  0  0  0  0
  141.4913   72.3883  225.3399 H   0  0  0  0  0  0  0  0  0  0  0  0
  141.9364   75.9820  219.4444 H   0  0  0  0  0  0  0  0  0  0  0  0
  142.6762   78.3358  219.5943 H   0  0  0  0  0  0  0  0  0  0  0  0
  142.7592   80.4643  220.8578 H   0  0  0  0  0  0  0  0  0  0  0  0
  140.8312   80.6623  224.7028 H   0  0  0  0  0  0  0  0  0  0  0  0
  140.1227   78.2931  224.4760 H   0  0  0  0  0  0  0  0  0  0  0  0
  1  2  2  0
  2  3  1  0
  3  4  1  0
  4  5  1  0
  5  6  2  0
  5  7  1  0
  7  8  1  0
  8  9  1  0
  9 10  1  0
 10 11  1  0
 11 12  1  0
 12 13  2  0
 13 14  1  0
 14 15  2  0
 15 16  1  0
 16 17  2  0
  2 18  1  0
 18 19  2  0
 19 20  1  0
 20 21  2  0
 21 22  1  0
 22 23  2  0
 23 24  1  0
 23 25  1  0
 25 26  2  0
 26 27  1  0
 27 28  2  0
 11  7  1  0
 17 12  1  0
 28 18  1  0
 27 21  1  0
  3 29  1  0
  4 30  1  0
  4 31  1  0
  8 32  1  0
  8 33  1  0
  9 34  1  0
  9 35  1  0
 10 36  1  0
 10 37  1  0
 11 38  1  6
 13 39  1  0
 14 40  1  0
 16 41  1  0
 17 42  1  0
 19 43  1  0
 20 44  1  0
 22 45  1  0
 25 46  1  0
 26 47  1  0
M  END
>  <smiles>  (45) 
O=C(NCC(=O)N1CCCC1c1ccncc1)c1ccc2cc(F)ccc2n1

>  <score_type>  (45) 
oracle

>  <origin>  (45) 
autodockgpu

>  <m_score__min__energy>  (45) 
-8.6199999999999992

>  <m_primary>  (45) 
energy

>  <rmsd>  (45) 
8.657598795846624

>  <m_score__min__rmsd>  (45) 
8.657598795846624

>  <meeko>  (45) 
{"free_energy": -8.43, "intermolecular_energy": -9.92, "internal_energy": -1.34, "cluster_size": 18, "cluster_id": 3, "rank_in_cluster": 2}

>  <energy>  (45) 
-7.85

>  <cluster_rmsd>  (45) 
1.62

>  <cluster>  (45) 
3

$$$$

     RDKit          3D

 47 50  0  0  0  0  0  0  0  0999 V2000
  141.0880   74.4430  221.3750 O   0  0  0  0  0  0  0  0  0  0  0  0
  140.0670   74.8550  221.9480 C   0  0  0  0  0  0  0  0  0  0  0  0
  138.9990   73.9590  222.2110 N   0  0  0  0  0  0  0  0  0  0  0  0
  139.1440   72.5930  221.7990 C   0  0  0  0  0  0  0  0  0  0  0  0
  140.0470   71.8010  222.6570 C   0  0  0  0  0  0  0  0  0  0  0  0
  141.3000   71.7640  222.5200 O   0  0  0  0  0  0  0  0  0  0  0  0
  139.5000   71.0230  223.7140 N   0  0  0  0  0  0  0  0  0  0  0  0
  138.1260   70.9950  224.2130 C   0  0  0  0  0  0  0  0  0  0  0  0
  137.8580   69.5340  224.5740 C   0  0  0  0  0  0  0  0  0  0  0  0
  139.2070   68.8680  224.5930 C   0  0  0  0  0  0  0  0  0  0  0  0
  140.1920   70.0450  224.5710 C   0  0  2  0  0  0  0  0  0  0  0  0
  140.4280   70.6160  225.9130 C   0  0  0  0  0  0  0  0  0  0  0  0
  139.9470   69.9190  227.0190 C   0  0  0  0  0  0  0  0  0  0  0  0
  140.1440   70.4250  228.3080 C   0  0  0  0  0  0  0  0  0  0  0  0
  140.7940   71.5820  228.5280 N   0  0  0  0  0  0  0  0  0  0  0  0
  141.2590   72.2600  227.4740 C   0  0  0  0  0  0  0  0  0  0  0  0
  141.0840   71.7900  226.1730 C   0  0  0  0  0  0  0  0  0  0  0  0
  139.9280   76.2530  222.3650 C   0  0  0  0  0  0  0  0  0  0  0  0
  141.0490   77.0260  222.5880 C   0  0  0  0  0  0  0  0  0  0  0  0
  140.9300   78.3450  222.9810 C   0  0  0  0  0  0  0  0  0  0  0  0
  139.6740   78.9120  223.1570 C   0  0  0  0  0  0  0  0  0  0  0  0
  139.5100   80.2300  223.5500 C   0  0  0  0  0  0  0  0  0  0  0  0
  138.2250   80.7270  223.7060 C   0  0  0  0  0  0  0  0  0  0  0  0
  138.0170   82.0190  224.0930 F   0  0  0  0  0  0  0  0  0  0  0  0
  137.1220   79.9410  223.4800 C   0  0  0  0  0  0  0  0  0  0  0  0
  137.2900   78.6290  223.0880 C   0  0  0  0  0  0  0  0  0  0  0  0
  138.5730   78.1150  222.9270 C   0  0  0  0  0  0  0  0  0  0  0  0
  138.7210   76.8310  222.5450 N   0  0  0  0  0  0  0  0  0  0  0  0
  138.1230   74.3030  222.6990 H   0  0  0  0  0  0  0  0  0  0  0  0
  138.1509   72.1202  221.8123 H   0  0  0  0  0  0  0  0  0  0  0  0
  139.5915   72.6089  220.7942 H   0  0  0  0  0  0  0  0  0  0  0  0
  138.0255   71.6361  225.1012 H   0  0  0  0  0  0  0  0  0  0  0  0
  137.4108   71.3710  223.4666 H   0  0  0  0  0  0  0  0  0  0  0  0
  137.3813   69.4640  225.5629 H   0  0  0  0  0  0  0  0  0  0  0  0
  137.1777   69.0551  223.8544 H   0  0  0  0  0  0  0  0  0  0  0  0
  139.3348   68.2661  225.5048 H   0  0  0  0  0  0  0  0  0  0  0  0
  139.3524   68.1737  223.7523 H   0  0  0  0  0  0  0  0  0  0  0  0
  141.1891   69.7479  224.2139 H   0  0  0  0  0  0  0  0  0  0  0  0
  139.4112   68.9687  226.8784 H   0  0  0  0  0  0  0  0  0  0  0  0
  139.7556   69.8597  229.1680 H   0  0  0  0  0  0  0  0  0  0  0  0
  141.7911   73.2090  227.6365 H   0  0  0  0  0  0  0  0  0  0  0  0
  141.4833   72.3776  225.3332 H   0  0  0  0  0  0  0  0  0  0  0  0
  142.0484   76.5872  222.4513 H   0  0  0  0  0  0  0  0  0  0  0  0
  141.8330   78.9485  223.1552 H   0  0  0  0  0  0  0  0  0  0  0  0
  140.3842   80.8715  223.7352 H   0  0  0  0  0  0  0  0  0  0  0  0
  136.1112   80.3547  223.6106 H   0  0  0  0  0  0  0  0  0  0  0  0
  136.4128   77.9915  222.9034 H   0  0  0  0  0  0  0  0  0  0  0  0
  1  2  2  0
  2  3  1  0
  3  4  1  0
  4  5  1  0
  5  6  2  0
  5  7  1  0
  7  8  1  0
  8  9  1  0
  9 10  1  0
 10 11  1  0
 11 12  1  0
 12 13  2  0
 13 14  1  0
 14 15  2  0
 15 16  1  0
 16 17  2  0
  2 18  1  0
 18 19  2  0
 19 20  1  0
 20 21  2  0
 21 22  1  0
 22 23  2  0
 23 24  1  0
 23 25  1  0
 25 26  2  0
 26 27  1  0
 27 28  2  0
 11  7  1  0
 17 12  1  0
 28 18  1  0
 27 21  1  0
  3 29  1  0
  4 30  1  0
  4 31  1  0
  8 32  1  0
  8 33  1  0
  9 34  1  0
  9 35  1  0
 10 36  1  0
 10 37  1  0
 11 38  1  6
 13 39  1  0
 14 40  1  0
 16 41  1  0
 17 42  1  0
 19 43  1  0
 20 44  1  0
 22 45  1  0
 25 46  1  0
 26 47  1  0
M  END
>  <smiles>  (46) 
O=C(NCC(=O)N1CCCC1c1ccncc1)c1ccc2cc(F)ccc2n1

>  <score_type>  (46) 
oracle

>  <origin>  (46) 
autodockgpu

>  <m_score__min__energy>  (46) 
-8.6199999999999992

>  <m_primary>  (46) 
energy

>  <rmsd>  (46) 
8.651155701294762

>  <m_score__min__rmsd>  (46) 
8.651155701294762

>  <meeko>  (46) 
{"free_energy": -7.85, "intermolecular_energy": -9.35, "internal_energy": -1.39, "cluster_size": 18, "cluster_id": 3, "rank_in_cluster": 14}

>  <energy>  (46) 
-7.85

>  <cluster_rmsd>  (46) 
1.39

>  <cluster>  (46) 
3

$$$$

     RDKit          3D

 47 50  0  0  0  0  0  0  0  0999 V2000
  140.7830   71.8960  221.1110 O   0  0  0  0  0  0  0  0  0  0  0  0
  140.2920   72.3440  222.1590 C   0  0  0  0  0  0  0  0  0  0  0  0
  139.8930   73.7030  222.2240 N   0  0  0  0  0  0  0  0  0  0  0  0
  140.0750   74.5180  221.0570 C   0  0  0  0  0  0  0  0  0  0  0  0
  141.4750   74.9200  220.8180 C   0  0  0  0  0  0  0  0  0  0  0  0
  142.4660   74.1570  220.9750 O   0  0  0  0  0  0  0  0  0  0  0  0
  141.7550   76.2440  220.3820 N   0  0  0  0  0  0  0  0  0  0  0  0
  142.9550   76.7540  219.7210 C   0  0  0  0  0  0  0  0  0  0  0  0
  142.4510   77.7850  218.7100 C   0  0  0  0  0  0  0  0  0  0  0  0
  141.0230   78.0630  219.0940 C   0  0  0  0  0  0  0  0  0  0  0  0
  140.8940   77.4350  220.4890 C   0  0  2  0  0  0  0  0  0  0  0  0
  141.3820   78.3240  221.5630 C   0  0  0  0  0  0  0  0  0  0  0  0
  141.8430   79.5900  221.2110 C   0  0  0  0  0  0  0  0  0  0  0  0
  142.3180   80.4640  222.1940 C   0  0  0  0  0  0  0  0  0  0  0  0
  142.3470   80.1240  223.4950 N   0  0  0  0  0  0  0  0  0  0  0  0
  141.9080   78.9110  223.8450 C   0  0  0  0  0  0  0  0  0  0  0  0
  141.4270   78.0110  222.8960 C   0  0  0  0  0  0  0  0  0  0  0  0
  140.1100   71.5030  223.3460 C   0  0  0  0  0  0  0  0  0  0  0  0
  139.4740   70.2830  223.2420 C   0  0  0  0  0  0  0  0  0  0  0  0
  139.2980   69.4830  224.3540 C   0  0  0  0  0  0  0  0  0  0  0  0
  139.7610   69.8980  225.5960 C   0  0  0  0  0  0  0  0  0  0  0  0
  139.6050   69.1260  226.7360 C   0  0  0  0  0  0  0  0  0  0  0  0
  140.0930   69.6060  227.9420 C   0  0  0  0  0  0  0  0  0  0  0  0
  139.9600   68.8790  229.0890 F   0  0  0  0  0  0  0  0  0  0  0  0
  140.7230   70.8230  228.0230 C   0  0  0  0  0  0  0  0  0  0  0  0
  140.8770   71.5880  226.8870 C   0  0  0  0  0  0  0  0  0  0  0  0
  140.3920   71.1200  225.6680 C   0  0  0  0  0  0  0  0  0  0  0  0
  140.5500   71.8800  224.5660 N   0  0  0  0  0  0  0  0  0  0  0  0
  139.4730   74.0940  223.1140 H   0  0  0  0  0  0  0  0  0  0  0  0
  139.7233   73.9522  220.1817 H   0  0  0  0  0  0  0  0  0  0  0  0
  139.5021   75.4424  221.2219 H   0  0  0  0  0  0  0  0  0  0  0  0
  143.6261   77.2277  220.4526 H   0  0  0  0  0  0  0  0  0  0  0  0
  143.5292   75.9507  219.2362 H   0  0  0  0  0  0  0  0  0  0  0  0
  143.0506   78.7053  218.7687 H   0  0  0  0  0  0  0  0  0  0  0  0
  142.5303   77.4150  217.6771 H   0  0  0  0  0  0  0  0  0  0  0  0
  140.8302   79.1453  219.1314 H   0  0  0  0  0  0  0  0  0  0  0  0
  140.2997   77.6540  218.3732 H   0  0  0  0  0  0  0  0  0  0  0  0
  139.8480   77.2228  220.7552 H   0  0  0  0  0  0  0  0  0  0  0  0
  141.8335   79.9035  220.1567 H   0  0  0  0  0  0  0  0  0  0  0  0
  142.6786   81.4591  221.8943 H   0  0  0  0  0  0  0  0  0  0  0  0
  141.9268   78.6169  224.9048 H   0  0  0  0  0  0  0  0  0  0  0  0
  141.0740   77.0228  223.2260 H   0  0  0  0  0  0  0  0  0  0  0  0
  139.1033   69.9440  222.2634 H   0  0  0  0  0  0  0  0  0  0  0  0
  138.7889   68.5129  224.2556 H   0  0  0  0  0  0  0  0  0  0  0  0
  139.1025   68.1488  226.6852 H   0  0  0  0  0  0  0  0  0  0  0  0
  141.1029   71.1857  228.9895 H   0  0  0  0  0  0  0  0  0  0  0  0
  141.3809   72.5642  226.9427 H   0  0  0  0  0  0  0  0  0  0  0  0
  1  2  2  0
  2  3  1  0
  3  4  1  0
  4  5  1  0
  5  6  2  0
  5  7  1  0
  7  8  1  0
  8  9  1  0
  9 10  1  0
 10 11  1  0
 11 12  1  0
 12 13  2  0
 13 14  1  0
 14 15  2  0
 15 16  1  0
 16 17  2  0
  2 18  1  0
 18 19  2  0
 19 20  1  0
 20 21  2  0
 21 22  1  0
 22 23  2  0
 23 24  1  0
 23 25  1  0
 25 26  2  0
 26 27  1  0
 27 28  2  0
 11  7  1  0
 17 12  1  0
 28 18  1  0
 27 21  1  0
  3 29  1  0
  4 30  1  0
  4 31  1  0
  8 32  1  0
  8 33  1  0
  9 34  1  0
  9 35  1  0
 10 36  1  0
 10 37  1  0
 11 38  1  1
 13 39  1  0
 14 40  1  0
 16 41  1  0
 17 42  1  0
 19 43  1  0
 20 44  1  0
 22 45  1  0
 25 46  1  0
 26 47  1  0
M  END
>  <smiles>  (47) 
O=C(NCC(=O)N1CCCC1c1ccncc1)c1ccc2cc(F)ccc2n1

>  <score_type>  (47) 
oracle

>  <origin>  (47) 
autodockgpu

>  <m_score__min__energy>  (47) 
-8.6199999999999992

>  <m_primary>  (47) 
energy

>  <rmsd>  (47) 
2.1687861611496615

>  <m_score__min__rmsd>  (47) 
2.1687861611496615

>  <meeko>  (47) 
{"free_energy": -8.42, "intermolecular_energy": -9.91, "internal_energy": -1.15, "cluster_size": 22, "cluster_id": 1, "rank_in_cluster": 14}

>  <energy>  (47) 
-7.84

>  <cluster_rmsd>  (47) 
0.91

>  <cluster>  (47) 
3

$$$$

     RDKit          3D

 47 50  0  0  0  0  0  0  0  0999 V2000
  141.2650   72.7500  221.9450 O   0  0  0  0  0  0  0  0  0  0  0  0
  140.2340   72.6150  222.6230 C   0  0  0  0  0  0  0  0  0  0  0  0
  139.1040   73.4300  222.3540 N   0  0  0  0  0  0  0  0  0  0  0  0
  139.1990   74.3910  221.2940 C   0  0  0  0  0  0  0  0  0  0  0  0
  139.4070   75.7770  221.7580 C   0  0  0  0  0  0  0  0  0  0  0  0
  138.6970   76.3440  222.6320 O   0  0  0  0  0  0  0  0  0  0  0  0
  140.4680   76.5450  221.2050 N   0  0  0  0  0  0  0  0  0  0  0  0
  141.8140   76.1110  220.8330 C   0  0  0  0  0  0  0  0  0  0  0  0
  142.1540   76.8960  219.5650 C   0  0  0  0  0  0  0  0  0  0  0  0
  141.1280   77.9920  219.4810 C   0  0  0  0  0  0  0  0  0  0  0  0
  140.4680   77.9790  220.8670 C   0  0  2  0  0  0  0  0  0  0  0  0
  141.2360   78.7410  221.8720 C   0  0  0  0  0  0  0  0  0  0  0  0
  141.1360   78.3570  223.2070 C   0  0  0  0  0  0  0  0  0  0  0  0
  141.8420   79.0530  224.1940 C   0  0  0  0  0  0  0  0  0  0  0  0
  142.6320   80.1020  223.8990 N   0  0  0  0  0  0  0  0  0  0  0  0
  142.7350   80.4790  222.6210 C   0  0  0  0  0  0  0  0  0  0  0  0
  142.0480   79.8120  221.6080 C   0  0  0  0  0  0  0  0  0  0  0  0
  140.1470   71.6300  223.7040 C   0  0  0  0  0  0  0  0  0  0  0  0
  139.5810   70.3920  223.4730 C   0  0  0  0  0  0  0  0  0  0  0  0
  139.4960   69.4560  224.4850 C   0  0  0  0  0  0  0  0  0  0  0  0
  139.9790   69.7500  225.7540 C   0  0  0  0  0  0  0  0  0  0  0  0
  139.9120   68.8400  226.7960 C   0  0  0  0  0  0  0  0  0  0  0  0
  140.4150   69.2040  228.0360 C   0  0  0  0  0  0  0  0  0  0  0  0
  140.3690   68.3390  229.0900 F   0  0  0  0  0  0  0  0  0  0  0  0
  140.9740   70.4410  228.2450 C   0  0  0  0  0  0  0  0  0  0  0  0
  141.0390   71.3430  227.2050 C   0  0  0  0  0  0  0  0  0  0  0  0
  140.5380   70.9930  225.9540 C   0  0  0  0  0  0  0  0  0  0  0  0
  140.6090   71.8870  224.9470 N   0  0  0  0  0  0  0  0  0  0  0  0
  138.2200   73.3200  222.9280 H   0  0  0  0  0  0  0  0  0  0  0  0
  140.0447   74.1116  220.6484 H   0  0  0  0  0  0  0  0  0  0  0  0
  138.2366   74.3743  220.7616 H   0  0  0  0  0  0  0  0  0  0  0  0
  142.5298   76.3449  221.6348 H   0  0  0  0  0  0  0  0  0  0  0  0
  141.8643   75.0245  220.6690 H   0  0  0  0  0  0  0  0  0  0  0  0
  143.1657   77.3218  219.6366 H   0  0  0  0  0  0  0  0  0  0  0  0
  142.1379   76.2539  218.6720 H   0  0  0  0  0  0  0  0  0  0  0  0
  141.6061   78.9627  219.2832 H   0  0  0  0  0  0  0  0  0  0  0  0
  140.4073   77.8398  218.6640 H   0  0  0  0  0  0  0  0  0  0  0  0
  139.4734   78.4489  220.8595 H   0  0  0  0  0  0  0  0  0  0  0  0
  140.5001   77.5040  223.4861 H   0  0  0  0  0  0  0  0  0  0  0  0
  141.7487   78.7334  225.2424 H   0  0  0  0  0  0  0  0  0  0  0  0
  143.3762   81.3347  222.3627 H   0  0  0  0  0  0  0  0  0  0  0  0
  142.1610   80.1549  220.5689 H   0  0  0  0  0  0  0  0  0  0  0  0
  139.1937   70.1487  222.4726 H   0  0  0  0  0  0  0  0  0  0  0  0
  139.0438   68.4733  224.2854 H   0  0  0  0  0  0  0  0  0  0  0  0
  139.4674   67.8456  226.6426 H   0  0  0  0  0  0  0  0  0  0  0  0
  141.3674   70.7101  229.2364 H   0  0  0  0  0  0  0  0  0  0  0  0
  141.4852   72.3360  227.3627 H   0  0  0  0  0  0  0  0  0  0  0  0
  1  2  2  0
  2  3  1  0
  3  4  1  0
  4  5  1  0
  5  6  2  0
  5  7  1  0
  7  8  1  0
  8  9  1  0
  9 10  1  0
 10 11  1  0
 11 12  1  0
 12 13  2  0
 13 14  1  0
 14 15  2  0
 15 16  1  0
 16 17  2  0
  2 18  1  0
 18 19  2  0
 19 20  1  0
 20 21  2  0
 21 22  1  0
 22 23  2  0
 23 24  1  0
 23 25  1  0
 25 26  2  0
 26 27  1  0
 27 28  2  0
 11  7  1  0
 17 12  1  0
 28 18  1  0
 27 21  1  0
  3 29  1  0
  4 30  1  0
  4 31  1  0
  8 32  1  0
  8 33  1  0
  9 34  1  0
  9 35  1  0
 10 36  1  0
 10 37  1  0
 11 38  1  6
 13 39  1  0
 14 40  1  0
 16 41  1  0
 17 42  1  0
 19 43  1  0
 20 44  1  0
 22 45  1  0
 25 46  1  0
 26 47  1  0
M  END
>  <smiles>  (48) 
O=C(NCC(=O)N1CCCC1c1ccncc1)c1ccc2cc(F)ccc2n1

>  <score_type>  (48) 
oracle

>  <origin>  (48) 
autodockgpu

>  <m_score__min__energy>  (48) 
-8.6199999999999992

>  <m_primary>  (48) 
energy

>  <rmsd>  (48) 
2.0515571514841757

>  <m_score__min__rmsd>  (48) 
2.0515571514841757

>  <meeko>  (48) 
{"free_energy": -8.61, "intermolecular_energy": -10.1, "internal_energy": -1.24, "cluster_size": 22, "cluster_id": 1, "rank_in_cluster": 3}

>  <energy>  (48) 
-7.77

>  <cluster_rmsd>  (48) 
0.91

>  <cluster>  (48) 
3

$$$$

     RDKit          3D

 47 50  0  0  0  0  0  0  0  0999 V2000
  141.3380   72.7130  221.9190 O   0  0  0  0  0  0  0  0  0  0  0  0
  140.3070   72.6290  222.6050 C   0  0  0  0  0  0  0  0  0  0  0  0
  139.2180   73.5000  222.3460 N   0  0  0  0  0  0  0  0  0  0  0  0
  139.3520   74.4560  221.2850 C   0  0  0  0  0  0  0  0  0  0  0  0
  140.2140   75.6070  221.6220 C   0  0  0  0  0  0  0  0  0  0  0  0
  141.4280   75.5090  221.9470 O   0  0  0  0  0  0  0  0  0  0  0  0
  139.6700   76.9200  221.5820 N   0  0  0  0  0  0  0  0  0  0  0  0
  139.3760   77.7530  220.4170 C   0  0  0  0  0  0  0  0  0  0  0  0
  138.0880   78.4980  220.7710 C   0  0  0  0  0  0  0  0  0  0  0  0
  137.9090   78.3170  222.2540 C   0  0  0  0  0  0  0  0  0  0  0  0
  139.2660   77.7680  222.7170 C   0  0  2  0  0  0  0  0  0  0  0  0
  140.2660   78.8310  222.9430 C   0  0  0  0  0  0  0  0  0  0  0  0
  141.6150   78.4970  222.8500 C   0  0  0  0  0  0  0  0  0  0  0  0
  142.5960   79.4720  223.0600 C   0  0  0  0  0  0  0  0  0  0  0  0
  142.2830   80.7470  223.3550 N   0  0  0  0  0  0  0  0  0  0  0  0
  140.9910   81.0780  223.4480 C   0  0  0  0  0  0  0  0  0  0  0  0
  139.9830   80.1370  223.2450 C   0  0  0  0  0  0  0  0  0  0  0  0
  140.1790   71.6480  223.6850 C   0  0  0  0  0  0  0  0  0  0  0  0
  139.5630   70.4350  223.4540 C   0  0  0  0  0  0  0  0  0  0  0  0
  139.4380   69.5030  224.4660 C   0  0  0  0  0  0  0  0  0  0  0  0
  139.9320   69.7760  225.7350 C   0  0  0  0  0  0  0  0  0  0  0  0
  139.8270   68.8700  226.7770 C   0  0  0  0  0  0  0  0  0  0  0  0
  140.3440   69.2120  228.0170 C   0  0  0  0  0  0  0  0  0  0  0  0
  140.2620   68.3500  229.0710 F   0  0  0  0  0  0  0  0  0  0  0  0
  140.9540   70.4250  228.2270 C   0  0  0  0  0  0  0  0  0  0  0  0
  141.0560   71.3250  227.1870 C   0  0  0  0  0  0  0  0  0  0  0  0
  140.5420   70.9960  225.9350 C   0  0  0  0  0  0  0  0  0  0  0  0
  140.6500   71.8860  224.9290 N   0  0  0  0  0  0  0  0  0  0  0  0
  138.3340   73.4340  222.9260 H   0  0  0  0  0  0  0  0  0  0  0  0
  139.7822   73.9453  220.4109 H   0  0  0  0  0  0  0  0  0  0  0  0
  138.3469   74.8568  221.0875 H   0  0  0  0  0  0  0  0  0  0  0  0
  140.1952   78.4641  220.2347 H   0  0  0  0  0  0  0  0  0  0  0  0
  139.2659   77.1542  219.5009 H   0  0  0  0  0  0  0  0  0  0  0  0
  138.1817   79.5656  220.5232 H   0  0  0  0  0  0  0  0  0  0  0  0
  137.2264   78.1109  220.2073 H   0  0  0  0  0  0  0  0  0  0  0  0
  137.6862   79.2769  222.7428 H   0  0  0  0  0  0  0  0  0  0  0  0
  137.0703   77.6511  222.5052 H   0  0  0  0  0  0  0  0  0  0  0  0
  139.1953   77.2419  223.6804 H   0  0  0  0  0  0  0  0  0  0  0  0
  141.9096   77.4645  222.6110 H   0  0  0  0  0  0  0  0  0  0  0  0
  143.6557   79.1876  222.9816 H   0  0  0  0  0  0  0  0  0  0  0  0
  140.7175   82.1156  223.6900 H   0  0  0  0  0  0  0  0  0  0  0  0
  138.9323   80.4513  223.3295 H   0  0  0  0  0  0  0  0  0  0  0  0
  139.1672   70.2077  222.4532 H   0  0  0  0  0  0  0  0  0  0  0  0
  138.9450   68.5403  224.2658 H   0  0  0  0  0  0  0  0  0  0  0  0
  139.3414   67.8950  226.6233 H   0  0  0  0  0  0  0  0  0  0  0  0
  141.3585   70.6768  229.2185 H   0  0  0  0  0  0  0  0  0  0  0  0
  141.5416   72.2992  227.3457 H   0  0  0  0  0  0  0  0  0  0  0  0
  1  2  2  0
  2  3  1  0
  3  4  1  0
  4  5  1  0
  5  6  2  0
  5  7  1  0
  7  8  1  0
  8  9  1  0
  9 10  1  0
 10 11  1  0
 11 12  1  0
 12 13  2  0
 13 14  1  0
 14 15  2  0
 15 16  1  0
 16 17  2  0
  2 18  1  0
 18 19  2  0
 19 20  1  0
 20 21  2  0
 21 22  1  0
 22 23  2  0
 23 24  1  0
 23 25  1  0
 25 26  2  0
 26 27  1  0
 27 28  2  0
 11  7  1  0
 17 12  1  0
 28 18  1  0
 27 21  1  0
  3 29  1  0
  4 30  1  0
  4 31  1  0
  8 32  1  0
  8 33  1  0
  9 34  1  0
  9 35  1  0
 10 36  1  0
 10 37  1  0
 11 38  1  1
 13 39  1  0
 14 40  1  0
 16 41  1  0
 17 42  1  0
 19 43  1  0
 20 44  1  0
 22 45  1  0
 25 46  1  0
 26 47  1  0
M  END
>  <smiles>  (49) 
O=C(NCC(=O)N1CCCC1c1ccncc1)c1ccc2cc(F)ccc2n1

>  <score_type>  (49) 
oracle

>  <origin>  (49) 
autodockgpu

>  <m_score__min__energy>  (49) 
-8.6199999999999992

>  <m_primary>  (49) 
energy

>  <rmsd>  (49) 
2.6886598217295496

>  <m_score__min__rmsd>  (49) 
2.6886598217295496

>  <meeko>  (49) 
{"free_energy": -8.46, "intermolecular_energy": -9.95, "internal_energy": -1.12, "cluster_size": 22, "cluster_id": 1, "rank_in_cluster": 10}

>  <energy>  (49) 
-7.75

>  <cluster_rmsd>  (49) 
0.93

>  <cluster>  (49) 
3

$$$$

     RDKit          3D

 47 50  0  0  0  0  0  0  0  0999 V2000
  141.3470   72.6390  221.8730 O   0  0  0  0  0  0  0  0  0  0  0  0
  140.3220   72.5840  222.5710 C   0  0  0  0  0  0  0  0  0  0  0  0
  139.2420   73.4650  222.3050 N   0  0  0  0  0  0  0  0  0  0  0  0
  139.3790   74.3980  221.2250 C   0  0  0  0  0  0  0  0  0  0  0  0
  139.4040   75.8110  221.6520 C   0  0  0  0  0  0  0  0  0  0  0  0
  138.5790   76.3200  222.4580 O   0  0  0  0  0  0  0  0  0  0  0  0
  140.4100   76.6760  221.1410 N   0  0  0  0  0  0  0  0  0  0  0  0
  141.7680   76.3460  220.7120 C   0  0  0  0  0  0  0  0  0  0  0  0
  142.0380   77.2440  219.5040 C   0  0  0  0  0  0  0  0  0  0  0  0
  140.9540   78.2860  219.5250 C   0  0  0  0  0  0  0  0  0  0  0  0
  140.3270   78.1300  220.9180 C   0  0  2  0  0  0  0  0  0  0  0  0
  141.0760   78.8530  221.9650 C   0  0  0  0  0  0  0  0  0  0  0  0
  141.8370   79.9560  221.5870 C   0  0  0  0  0  0  0  0  0  0  0  0
  142.5660   80.6690  222.5450 C   0  0  0  0  0  0  0  0  0  0  0  0
  142.5610   80.3240  223.8460 N   0  0  0  0  0  0  0  0  0  0  0  0
  141.8340   79.2660  224.2200 C   0  0  0  0  0  0  0  0  0  0  0  0
  141.0940   78.5300  223.2960 C   0  0  0  0  0  0  0  0  0  0  0  0
  140.1910   71.6260  223.6720 C   0  0  0  0  0  0  0  0  0  0  0  0
  139.5750   70.4090  223.4650 C   0  0  0  0  0  0  0  0  0  0  0  0
  139.4470   69.4990  224.4970 C   0  0  0  0  0  0  0  0  0  0  0  0
  139.9380   69.8000  225.7610 C   0  0  0  0  0  0  0  0  0  0  0  0
  139.8310   68.9160  226.8220 C   0  0  0  0  0  0  0  0  0  0  0  0
  140.3450   69.2850  228.0560 C   0  0  0  0  0  0  0  0  0  0  0  0
  140.2590   68.4460  229.1280 F   0  0  0  0  0  0  0  0  0  0  0  0
  140.9540   70.5020  228.2410 C   0  0  0  0  0  0  0  0  0  0  0  0
  141.0590   71.3790  227.1820 C   0  0  0  0  0  0  0  0  0  0  0  0
  140.5480   71.0230  225.9370 C   0  0  0  0  0  0  0  0  0  0  0  0
  140.6580   71.8910  224.9120 N   0  0  0  0  0  0  0  0  0  0  0  0
  138.3630   73.4240  222.8960 H   0  0  0  0  0  0  0  0  0  0  0  0
  140.3186   74.1797  220.6963 H   0  0  0  0  0  0  0  0  0  0  0  0
  138.4938   74.2749  220.5837 H   0  0  0  0  0  0  0  0  0  0  0  0
  142.4881   76.5556  221.5167 H   0  0  0  0  0  0  0  0  0  0  0  0
  141.8719   75.2798  220.4622 H   0  0  0  0  0  0  0  0  0  0  0  0
  143.0273   77.7171  219.5906 H   0  0  0  0  0  0  0  0  0  0  0  0
  142.0360   76.6732  218.5637 H   0  0  0  0  0  0  0  0  0  0  0  0
  141.3757   79.2936  219.3952 H   0  0  0  0  0  0  0  0  0  0  0  0
  140.2241   78.1586  218.7120 H   0  0  0  0  0  0  0  0  0  0  0  0
  139.3092   78.5443  220.9669 H   0  0  0  0  0  0  0  0  0  0  0  0
  141.8652   80.2677  220.5325 H   0  0  0  0  0  0  0  0  0  0  0  0
  143.1609   81.5373  222.2254 H   0  0  0  0  0  0  0  0  0  0  0  0
  141.8196   78.9701  225.2794 H   0  0  0  0  0  0  0  0  0  0  0  0
  140.5087   77.6665  223.6451 H   0  0  0  0  0  0  0  0  0  0  0  0
  139.1817   70.1605  222.4682 H   0  0  0  0  0  0  0  0  0  0  0  0
  138.9542   68.5322  224.3168 H   0  0  0  0  0  0  0  0  0  0  0  0
  139.3464   67.9376  226.6880 H   0  0  0  0  0  0  0  0  0  0  0  0
  141.3555   70.7755  229.2279 H   0  0  0  0  0  0  0  0  0  0  0  0
  141.5447   72.3562  227.3205 H   0  0  0  0  0  0  0  0  0  0  0  0
  1  2  2  0
  2  3  1  0
  3  4  1  0
  4  5  1  0
  5  6  2  0
  5  7  1  0
  7  8  1  0
  8  9  1  0
  9 10  1  0
 10 11  1  0
 11 12  1  0
 12 13  2  0
 13 14  1  0
 14 15  2  0
 15 16  1  0
 16 17  2  0
  2 18  1  0
 18 19  2  0
 19 20  1  0
 20 21  2  0
 21 22  1  0
 22 23  2  0
 23 24  1  0
 23 25  1  0
 25 26  2  0
 26 27  1  0
 27 28  2  0
 11  7  1  0
 17 12  1  0
 28 18  1  0
 27 21  1  0
  3 29  1  0
  4 30  1  0
  4 31  1  0
  8 32  1  0
  8 33  1  0
  9 34  1  0
  9 35  1  0
 10 36  1  0
 10 37  1  0
 11 38  1  6
 13 39  1  0
 14 40  1  0
 16 41  1  0
 17 42  1  0
 19 43  1  0
 20 44  1  0
 22 45  1  0
 25 46  1  0
 26 47  1  0
M  END
>  <smiles>  (50) 
O=C(NCC(=O)N1CCCC1c1ccncc1)c1ccc2cc(F)ccc2n1

>  <score_type>  (50) 
oracle

>  <origin>  (50) 
autodockgpu

>  <m_score__min__energy>  (50) 
-8.6199999999999992

>  <m_primary>  (50) 
energy

>  <rmsd>  (50) 
2.09455950268255

>  <m_score__min__rmsd>  (50) 
2.09455950268255

>  <meeko>  (50) 
{"free_energy": -8.56, "intermolecular_energy": -10.05, "internal_energy": -1.23, "cluster_size": 22, "cluster_id": 1, "rank_in_cluster": 6}

>  <energy>  (50) 
-7.05

>  <cluster_rmsd>  (50) 
0.0

>  <cluster>  (50) 
4

$$$$

     RDKit          3D

 47 50  0  0  0  0  0  0  0  0999 V2000
  140.3810   71.5650  220.9990 O   0  0  0  0  0  0  0  0  0  0  0  0
  140.0800   72.1330  222.1020 C   0  0  0  0  0  0  0  0  0  0  0  0
  139.8260   73.5310  222.1680 N   0  0  0  0  0  0  0  0  0  0  0  0
  139.9060   74.3400  220.9660 C   0  0  0  0  0  0  0  0  0  0  0  0
  140.7910   75.5280  221.1930 C   0  0  0  0  0  0  0  0  0  0  0  0
  140.9600   75.9160  222.3780 O   0  0  0  0  0  0  0  0  0  0  0  0
  141.3890   76.1550  220.0670 N   0  0  0  0  0  0  0  0  0  0  0  0
  141.1190   77.5140  219.5750 C   0  0  0  0  0  0  0  0  0  0  0  0
  142.2630   77.8730  218.6890 C   0  0  0  0  0  0  0  0  0  0  0  0
  143.2920   76.7990  218.9710 C   0  0  0  0  0  0  0  0  0  0  0  0
  142.3680   75.5930  219.1890 C   0  0  1  0  0  0  0  0  0  0  0  0
  143.2020   74.5270  219.7980 C   0  0  0  0  0  0  0  0  0  0  0  0
  144.4640   74.8170  220.3010 C   0  0  0  0  0  0  0  0  0  0  0  0
  145.2410   73.8270  220.8680 C   0  0  0  0  0  0  0  0  0  0  0  0
  144.8170   72.5490  220.9610 N   0  0  0  0  0  0  0  0  0  0  0  0
  143.6040   72.2620  220.4790 C   0  0  0  0  0  0  0  0  0  0  0  0
  142.7900   73.2150  219.9030 C   0  0  0  0  0  0  0  0  0  0  0  0
  139.9900   71.3420  223.3450 C   0  0  0  0  0  0  0  0  0  0  0  0
  139.4110   70.0900  223.2920 C   0  0  0  0  0  0  0  0  0  0  0  0
  139.2780   69.2710  224.3940 C   0  0  0  0  0  0  0  0  0  0  0  0
  139.7670   69.7780  225.5990 C   0  0  0  0  0  0  0  0  0  0  0  0
  139.6870   69.0460  226.7740 C   0  0  0  0  0  0  0  0  0  0  0  0
  140.1650   69.5320  227.9720 C   0  0  0  0  0  0  0  0  0  0  0  0
  140.0710   68.7850  229.1040 F   0  0  0  0  0  0  0  0  0  0  0  0
  140.7430   70.8040  227.9800 C   0  0  0  0  0  0  0  0  0  0  0  0
  140.8310   71.5490  226.8230 C   0  0  0  0  0  0  0  0  0  0  0  0
  140.3460   71.0470  225.6280 C   0  0  0  0  0  0  0  0  0  0  0  0
  140.4520   71.8060  224.5190 N   0  0  0  0  0  0  0  0  0  0  0  0
  139.5780   73.9980  223.0770 H   0  0  0  0  0  0  0  0  0  0  0  0
  140.3183   73.7323  220.1470 H   0  0  0  0  0  0  0  0  0  0  0  0
  138.8969   74.6918  220.7052 H   0  0  0  0  0  0  0  0  0  0  0  0
  140.1769   77.5335  219.0074 H   0  0  0  0  0  0  0  0  0  0  0  0
  141.0177   78.2274  220.4061 H   0  0  0  0  0  0  0  0  0  0  0  0
  141.9596   77.8565  217.6318 H   0  0  0  0  0  0  0  0  0  0  0  0
  142.6449   78.8870  218.8786 H   0  0  0  0  0  0  0  0  0  0  0  0
  143.9672   76.6464  218.1161 H   0  0  0  0  0  0  0  0  0  0  0  0
  143.9721   77.0180  219.8074 H   0  0  0  0  0  0  0  0  0  0  0  0
  141.8906   75.1344  218.3104 H   0  0  0  0  0  0  0  0  0  0  0  0
  144.8481   75.8463  220.2469 H   0  0  0  0  0  0  0  0  0  0  0  0
  146.2367   74.0877  221.2561 H   0  0  0  0  0  0  0  0  0  0  0  0
  143.2407   71.2258  220.5441 H   0  0  0  0  0  0  0  0  0  0  0  0
  141.7995   72.9248  219.5225 H   0  0  0  0  0  0  0  0  0  0  0  0
  139.0372   69.7275  222.3231 H   0  0  0  0  0  0  0  0  0  0  0  0
  138.8135   68.2761  224.3270 H   0  0  0  0  0  0  0  0  0  0  0  0
  139.2279   68.0467  226.7493 H   0  0  0  0  0  0  0  0  0  0  0  0
  141.1331   71.2167  228.9220 H   0  0  0  0  0  0  0  0  0  0  0  0
  141.2895   72.5485  226.8500 H   0  0  0  0  0  0  0  0  0  0  0  0
  1  2  2  0
  2  3  1  0
  3  4  1  0
  4  5  1  0
  5  6  2  0
  5  7  1  0
  7  8  1  0
  8  9  1  0
  9 10  1  0
 10 11  1  0
 11 12  1  0
 12 13  2  0
 13 14  1  0
 14 15  2  0
 15 16  1  0
 16 17  2  0
  2 18  1  0
 18 19  2  0
 19 20  1  0
 20 21  2  0
 21 22  1  0
 22 23  2  0
 23 24  1  0
 23 25  1  0
 25 26  2  0
 26 27  1  0
 27 28  2  0
 11  7  1  0
 17 12  1  0
 28 18  1  0
 27 21  1  0
  3 29  1  0
  4 30  1  0
  4 31  1  0
  8 32  1  0
  8 33  1  0
  9 34  1  0
  9 35  1  0
 10 36  1  0
 10 37  1  0
 11 38  1  6
 13 39  1  0
 14 40  1  0
 16 41  1  0
 17 42  1  0
 19 43  1  0
 20 44  1  0
 22 45  1  0
 25 46  1  0
 26 47  1  0
M  END
>  <smiles>  (51) 
O=C(NCC(=O)N1CCCC1c1ccncc1)c1ccc2cc(F)ccc2n1

>  <score_type>  (51) 
oracle

>  <origin>  (51) 
autodockgpu

>  <m_score__min__energy>  (51) 
-8.2200000000000006

>  <m_primary>  (51) 
energy

>  <rmsd>  (51) 
2.038557626709892

>  <m_score__min__rmsd>  (51) 
2.038557626709892

>  <meeko>  (51) 
{"free_energy": -7.93, "intermolecular_energy": -9.42, "internal_energy": -1.88, "cluster_size": 32, "cluster_id": 1, "rank_in_cluster": 13}

>  <energy>  (51) 
-8.22

>  <cluster_rmsd>  (51) 
0.0

>  <cluster>  (51) 
1

$$$$

     RDKit          3D

 47 50  0  0  0  0  0  0  0  0999 V2000
  140.0040   70.9270  221.3610 O   0  0  0  0  0  0  0  0  0  0  0  0
  139.9800   71.5020  222.5010 C   0  0  0  0  0  0  0  0  0  0  0  0
  139.9680   72.9200  222.6130 N   0  0  0  0  0  0  0  0  0  0  0  0
  139.9820   73.7420  221.4170 C   0  0  0  0  0  0  0  0  0  0  0  0
  141.3750   73.8560  220.8770 C   0  0  0  0  0  0  0  0  0  0  0  0
  142.1520   72.8810  221.0450 O   0  0  0  0  0  0  0  0  0  0  0  0
  141.7490   75.0530  220.2080 N   0  0  0  0  0  0  0  0  0  0  0  0
  141.0990   76.3660  220.3340 C   0  0  0  0  0  0  0  0  0  0  0  0
  142.0770   77.3670  219.8200 C   0  0  0  0  0  0  0  0  0  0  0  0
  143.3700   76.5890  219.7110 C   0  0  0  0  0  0  0  0  0  0  0  0
  142.8250   75.2200  219.2820 C   0  0  1  0  0  0  0  0  0  0  0  0
  143.9380   74.2510  219.4480 C   0  0  0  0  0  0  0  0  0  0  0  0
  144.1030   73.2040  218.5500 C   0  0  0  0  0  0  0  0  0  0  0  0
  145.1370   72.3020  218.7030 C   0  0  0  0  0  0  0  0  0  0  0  0
  146.0240   72.3950  219.7150 N   0  0  0  0  0  0  0  0  0  0  0  0
  145.8720   73.3990  220.5820 C   0  0  0  0  0  0  0  0  0  0  0  0
  144.8550   74.3250  220.4740 C   0  0  0  0  0  0  0  0  0  0  0  0
  139.9660   70.6990  223.7390 C   0  0  0  0  0  0  0  0  0  0  0  0
  139.3590   69.4590  223.7160 C   0  0  0  0  0  0  0  0  0  0  0  0
  139.2900   68.6300  224.8170 C   0  0  0  0  0  0  0  0  0  0  0  0
  139.8780   69.1120  225.9870 C   0  0  0  0  0  0  0  0  0  0  0  0
  139.8710   68.3680  227.1570 C   0  0  0  0  0  0  0  0  0  0  0  0
  140.4470   68.8300  228.3210 C   0  0  0  0  0  0  0  0  0  0  0  0
  140.4210   68.0710  229.4490 F   0  0  0  0  0  0  0  0  0  0  0  0
  141.0510   70.0900  228.2990 C   0  0  0  0  0  0  0  0  0  0  0  0
  141.0680   70.8460  227.1470 C   0  0  0  0  0  0  0  0  0  0  0  0
  140.4850   70.3680  225.9860 C   0  0  0  0  0  0  0  0  0  0  0  0
  140.5240   71.1390  224.8800 N   0  0  0  0  0  0  0  0  0  0  0  0
  139.9490   73.3930  223.5520 H   0  0  0  0  0  0  0  0  0  0  0  0
  139.3343   73.2839  220.6549 H   0  0  0  0  0  0  0  0  0  0  0  0
  139.6147   74.7473  221.6710 H   0  0  0  0  0  0  0  0  0  0  0  0
  140.1761   76.3932  219.7362 H   0  0  0  0  0  0  0  0  0  0  0  0
  140.8216   76.5767  221.3774 H   0  0  0  0  0  0  0  0  0  0  0  0
  141.7659   77.7490  218.8365 H   0  0  0  0  0  0  0  0  0  0  0  0
  142.1655   78.2479  220.4729 H   0  0  0  0  0  0  0  0  0  0  0  0
  144.0407   77.0171  218.9515 H   0  0  0  0  0  0  0  0  0  0  0  0
  143.9811   76.5774  220.6256 H   0  0  0  0  0  0  0  0  0  0  0  0
  142.4744   75.0977  218.2466 H   0  0  0  0  0  0  0  0  0  0  0  0
  143.4030   73.0925  217.7088 H   0  0  0  0  0  0  0  0  0  0  0  0
  145.2407   71.4821  217.9771 H   0  0  0  0  0  0  0  0  0  0  0  0
  146.5851   73.4914  221.4144 H   0  0  0  0  0  0  0  0  0  0  0  0
  144.7751   75.1327  221.2164 H   0  0  0  0  0  0  0  0  0  0  0  0
  138.9081   69.1150  222.7735 H   0  0  0  0  0  0  0  0  0  0  0  0
  138.7998   67.6462  224.7747 H   0  0  0  0  0  0  0  0  0  0  0  0
  139.3909   67.3783  227.1563 H   0  0  0  0  0  0  0  0  0  0  0  0
  141.5190   70.4835  229.2134 H   0  0  0  0  0  0  0  0  0  0  0  0
  141.5479   71.8358  227.1500 H   0  0  0  0  0  0  0  0  0  0  0  0
  1  2  2  0
  2  3  1  0
  3  4  1  0
  4  5  1  0
  5  6  2  0
  5  7  1  0
  7  8  1  0
  8  9  1  0
  9 10  1  0
 10 11  1  0
 11 12  1  0
 12 13  2  0
 13 14  1  0
 14 15  2  0
 15 16  1  0
 16 17  2  0
  2 18  1  0
 18 19  2  0
 19 20  1  0
 20 21  2  0
 21 22  1  0
 22 23  2  0
 23 24  1  0
 23 25  1  0
 25 26  2  0
 26 27  1  0
 27 28  2  0
 11  7  1  0
 17 12  1  0
 28 18  1  0
 27 21  1  0
  3 29  1  0
  4 30  1  0
  4 31  1  0
  8 32  1  0
  8 33  1  0
  9 34  1  0
  9 35  1  0
 10 36  1  0
 10 37  1  0
 11 38  1  6
 13 39  1  0
 14 40  1  0
 16 41  1  0
 17 42  1  0
 19 43  1  0
 20 44  1  0
 22 45  1  0
 25 46  1  0
 26 47  1  0
M  END
>  <smiles>  (52) 
O=C(NCC(=O)N1CCCC1c1ccncc1)c1ccc2cc(F)ccc2n1

>  <score_type>  (52) 
oracle

>  <origin>  (52) 
autodockgpu

>  <m_score__min__energy>  (52) 
-8.2200000000000006

>  <m_primary>  (52) 
energy

>  <rmsd>  (52) 
2.1390525293827585

>  <m_score__min__rmsd>  (52) 
2.1390525293827585

>  <meeko>  (52) 
{"free_energy": -8.17, "intermolecular_energy": -9.67, "internal_energy": -1.28, "cluster_size": 32, "cluster_id": 1, "rank_in_cluster": 3}

>  <energy>  (52) 
-8.19

>  <cluster_rmsd>  (52) 
0.05

>  <cluster>  (52) 
1

$$$$

     RDKit          3D

 47 50  0  0  0  0  0  0  0  0999 V2000
  140.3680   71.5660  220.9950 O   0  0  0  0  0  0  0  0  0  0  0  0
  140.0630   72.1360  222.0960 C   0  0  0  0  0  0  0  0  0  0  0  0
  139.8090   73.5340  222.1590 N   0  0  0  0  0  0  0  0  0  0  0  0
  139.8920   74.3410  220.9560 C   0  0  0  0  0  0  0  0  0  0  0  0
  140.7950   75.5170  221.1770 C   0  0  0  0  0  0  0  0  0  0  0  0
  140.9800   75.9000  222.3610 O   0  0  0  0  0  0  0  0  0  0  0  0
  141.3910   76.1380  220.0460 N   0  0  0  0  0  0  0  0  0  0  0  0
  141.1180   77.4930  219.5450 C   0  0  0  0  0  0  0  0  0  0  0  0
  142.2610   77.8480  218.6560 C   0  0  0  0  0  0  0  0  0  0  0  0
  143.2920   76.7780  218.9460 C   0  0  0  0  0  0  0  0  0  0  0  0
  142.3700   75.5720  219.1720 C   0  0  1  0  0  0  0  0  0  0  0  0
  143.2070   74.5110  219.7880 C   0  0  0  0  0  0  0  0  0  0  0  0
  144.4690   74.8070  220.2860 C   0  0  0  0  0  0  0  0  0  0  0  0
  145.2490   73.8220  220.8590 C   0  0  0  0  0  0  0  0  0  0  0  0
  144.8270   72.5450  220.9620 N   0  0  0  0  0  0  0  0  0  0  0  0
  143.6140   72.2530  220.4850 C   0  0  0  0  0  0  0  0  0  0  0  0
  142.7980   73.2000  219.9030 C   0  0  0  0  0  0  0  0  0  0  0  0
  139.9690   71.3470  223.3400 C   0  0  0  0  0  0  0  0  0  0  0  0
  139.3920   70.0940  223.2870 C   0  0  0  0  0  0  0  0  0  0  0  0
  139.2560   69.2760  224.3900 C   0  0  0  0  0  0  0  0  0  0  0  0
  139.7400   69.7860  225.5960 C   0  0  0  0  0  0  0  0  0  0  0  0
  139.6570   69.0560  226.7710 C   0  0  0  0  0  0  0  0  0  0  0  0
  140.1300   69.5440  227.9710 C   0  0  0  0  0  0  0  0  0  0  0  0
  140.0330   68.7980  229.1040 F   0  0  0  0  0  0  0  0  0  0  0  0
  140.7070   70.8170  227.9790 C   0  0  0  0  0  0  0  0  0  0  0  0
  140.7980   71.5600  226.8210 C   0  0  0  0  0  0  0  0  0  0  0  0
  140.3180   71.0550  225.6250 C   0  0  0  0  0  0  0  0  0  0  0  0
  140.4270   71.8130  224.5150 N   0  0  0  0  0  0  0  0  0  0  0  0
  139.5580   74.0020  223.0670 H   0  0  0  0  0  0  0  0  0  0  0  0
  140.2905   73.7273  220.1346 H   0  0  0  0  0  0  0  0  0  0  0  0
  138.8862   74.7063  220.7012 H   0  0  0  0  0  0  0  0  0  0  0  0
  140.1756   77.5068  218.9778 H   0  0  0  0  0  0  0  0  0  0  0  0
  141.0155   78.2119  220.3712 H   0  0  0  0  0  0  0  0  0  0  0  0
  141.9574   77.8231  217.5990 H   0  0  0  0  0  0  0  0  0  0  0  0
  142.6408   78.8642  218.8378 H   0  0  0  0  0  0  0  0  0  0  0  0
  143.9679   76.6206  218.0925 H   0  0  0  0  0  0  0  0  0  0  0  0
  143.9714   77.0041  219.7810 H   0  0  0  0  0  0  0  0  0  0  0  0
  141.8928   75.1067  218.2969 H   0  0  0  0  0  0  0  0  0  0  0  0
  144.8512   75.8365  220.2234 H   0  0  0  0  0  0  0  0  0  0  0  0
  146.2451   74.0869  221.2432 H   0  0  0  0  0  0  0  0  0  0  0  0
  143.2520   71.2169  220.5593 H   0  0  0  0  0  0  0  0  0  0  0  0
  141.8077   72.9052  219.5256 H   0  0  0  0  0  0  0  0  0  0  0  0
  139.0222   69.7295  222.3173 H   0  0  0  0  0  0  0  0  0  0  0  0
  138.7933   68.2803  224.3229 H   0  0  0  0  0  0  0  0  0  0  0  0
  139.1995   68.0560  226.7457 H   0  0  0  0  0  0  0  0  0  0  0  0
  141.0936   71.2317  228.9216 H   0  0  0  0  0  0  0  0  0  0  0  0
  141.2549   72.5603  226.8478 H   0  0  0  0  0  0  0  0  0  0  0  0
  1  2  2  0
  2  3  1  0
  3  4  1  0
  4  5  1  0
  5  6  2  0
  5  7  1  0
  7  8  1  0
  8  9  1  0
  9 10  1  0
 10 11  1  0
 11 12  1  0
 12 13  2  0
 13 14  1  0
 14 15  2  0
 15 16  1  0
 16 17  2  0
  2 18  1  0
 18 19  2  0
 19 20  1  0
 20 21  2  0
 21 22  1  0
 22 23  2  0
 23 24  1  0
 23 25  1  0
 25 26  2  0
 26 27  1  0
 27 28  2  0
 11  7  1  0
 17 12  1  0
 28 18  1  0
 27 21  1  0
  3 29  1  0
  4 30  1  0
  4 31  1  0
  8 32  1  0
  8 33  1  0
  9 34  1  0
  9 35  1  0
 10 36  1  0
 10 37  1  0
 11 38  1  6
 13 39  1  0
 14 40  1  0
 16 41  1  0
 17 42  1  0
 19 43  1  0
 20 44  1  0
 22 45  1  0
 25 46  1  0
 26 47  1  0
M  END
>  <smiles>  (53) 
O=C(NCC(=O)N1CCCC1c1ccncc1)c1ccc2cc(F)ccc2n1

>  <score_type>  (53) 
oracle

>  <origin>  (53) 
autodockgpu

>  <m_score__min__energy>  (53) 
-8.2200000000000006

>  <m_primary>  (53) 
energy

>  <rmsd>  (53) 
2.0324020227100714

>  <m_score__min__rmsd>  (53) 
2.0324020227100714

>  <meeko>  (53) 
{"free_energy": -7.94, "intermolecular_energy": -9.43, "internal_energy": -1.88, "cluster_size": 32, "cluster_id": 1, "rank_in_cluster": 10}

>  <energy>  (53) 
-8.17

>  <cluster_rmsd>  (53) 
0.09

>  <cluster>  (53) 
1

$$$$

     RDKit          3D

 47 50  0  0  0  0  0  0  0  0999 V2000
  140.3380   71.6410  221.0120 O   0  0  0  0  0  0  0  0  0  0  0  0
  140.0530   72.2020  222.1230 C   0  0  0  0  0  0  0  0  0  0  0  0
  139.7920   73.5980  222.2010 N   0  0  0  0  0  0  0  0  0  0  0  0
  139.8450   74.4130  221.0030 C   0  0  0  0  0  0  0  0  0  0  0  0
  140.8200   75.5390  221.1790 C   0  0  0  0  0  0  0  0  0  0  0  0
  141.0670   75.9230  222.3510 O   0  0  0  0  0  0  0  0  0  0  0  0
  141.4110   76.1130  220.0210 N   0  0  0  0  0  0  0  0  0  0  0  0
  141.1220   77.4390  219.4550 C   0  0  0  0  0  0  0  0  0  0  0  0
  142.2620   77.7670  218.5530 C   0  0  0  0  0  0  0  0  0  0  0  0
  143.3070   76.7250  218.8950 C   0  0  0  0  0  0  0  0  0  0  0  0
  142.4010   75.5190  219.1770 C   0  0  1  0  0  0  0  0  0  0  0  0
  143.2490   74.5000  219.8440 C   0  0  0  0  0  0  0  0  0  0  0  0
  144.5210   74.8270  220.2990 C   0  0  0  0  0  0  0  0  0  0  0  0
  145.3120   73.8810  220.9200 C   0  0  0  0  0  0  0  0  0  0  0  0
  144.8930   72.6130  221.1130 N   0  0  0  0  0  0  0  0  0  0  0  0
  143.6710   72.2910  220.6790 C   0  0  0  0  0  0  0  0  0  0  0  0
  142.8430   73.2000  220.0530 C   0  0  0  0  0  0  0  0  0  0  0  0
  139.9900   71.4040  223.3630 C   0  0  0  0  0  0  0  0  0  0  0  0
  139.4530   70.1330  223.3060 C   0  0  0  0  0  0  0  0  0  0  0  0
  139.3480   69.3060  224.4050 C   0  0  0  0  0  0  0  0  0  0  0  0
  139.8210   69.8240  225.6120 C   0  0  0  0  0  0  0  0  0  0  0  0
  139.7670   69.0860  226.7830 C   0  0  0  0  0  0  0  0  0  0  0  0
  140.2300   69.5820  227.9830 C   0  0  0  0  0  0  0  0  0  0  0  0
  140.1620   68.8280  229.1130 F   0  0  0  0  0  0  0  0  0  0  0  0
  140.7660   70.8730  227.9960 C   0  0  0  0  0  0  0  0  0  0  0  0
  140.8280   71.6240  226.8410 C   0  0  0  0  0  0  0  0  0  0  0  0
  140.3590   71.1110  225.6450 C   0  0  0  0  0  0  0  0  0  0  0  0
  140.4380   71.8780  224.5390 N   0  0  0  0  0  0  0  0  0  0  0  0
  139.5580   74.0580  223.1170 H   0  0  0  0  0  0  0  0  0  0  0  0
  140.1613   73.7892  220.1540 H   0  0  0  0  0  0  0  0  0  0  0  0
  138.8462   74.8326  220.8126 H   0  0  0  0  0  0  0  0  0  0  0  0
  140.1812   77.4131  218.8856 H   0  0  0  0  0  0  0  0  0  0  0  0
  141.0081   78.1949  220.2460 H   0  0  0  0  0  0  0  0  0  0  0  0
  141.9615   77.6886  217.4977 H   0  0  0  0  0  0  0  0  0  0  0  0
  142.6279   78.7956  218.6877 H   0  0  0  0  0  0  0  0  0  0  0  0
  143.9864   76.5362  218.0508 H   0  0  0  0  0  0  0  0  0  0  0  0
  143.9817   76.9996  219.7193 H   0  0  0  0  0  0  0  0  0  0  0  0
  141.9329   75.0060  218.3239 H   0  0  0  0  0  0  0  0  0  0  0  0
  144.9014   75.8501  220.1629 H   0  0  0  0  0  0  0  0  0  0  0  0
  146.3147   74.1699  221.2681 H   0  0  0  0  0  0  0  0  0  0  0  0
  143.3114   71.2620  220.8264 H   0  0  0  0  0  0  0  0  0  0  0  0
  141.8451   72.8825  219.7162 H   0  0  0  0  0  0  0  0  0  0  0  0
  139.0910   69.7616  222.3359 H   0  0  0  0  0  0  0  0  0  0  0  0
  138.9165   68.2966  224.3344 H   0  0  0  0  0  0  0  0  0  0  0  0
  139.3412   68.0721  226.7545 H   0  0  0  0  0  0  0  0  0  0  0  0
  141.1430   71.2951  228.9392 H   0  0  0  0  0  0  0  0  0  0  0  0
  141.2534   72.6380  226.8710 H   0  0  0  0  0  0  0  0  0  0  0  0
  1  2  2  0
  2  3  1  0
  3  4  1  0
  4  5  1  0
  5  6  2  0
  5  7  1  0
  7  8  1  0
  8  9  1  0
  9 10  1  0
 10 11  1  0
 11 12  1  0
 12 13  2  0
 13 14  1  0
 14 15  2  0
 15 16  1  0
 16 17  2  0
  2 18  1  0
 18 19  2  0
 19 20  1  0
 20 21  2  0
 21 22  1  0
 22 23  2  0
 23 24  1  0
 23 25  1  0
 25 26  2  0
 26 27  1  0
 27 28  2  0
 11  7  1  0
 17 12  1  0
 28 18  1  0
 27 21  1  0
  3 29  1  0
  4 30  1  0
  4 31  1  0
  8 32  1  0
  8 33  1  0
  9 34  1  0
  9 35  1  0
 10 36  1  0
 10 37  1  0
 11 38  1  6
 13 39  1  0
 14 40  1  0
 16 41  1  0
 17 42  1  0
 19 43  1  0
 20 44  1  0
 22 45  1  0
 25 46  1  0
 26 47  1  0
M  END
>  <smiles>  (54) 
O=C(NCC(=O)N1CCCC1c1ccncc1)c1ccc2cc(F)ccc2n1

>  <score_type>  (54) 
oracle

>  <origin>  (54) 
autodockgpu

>  <m_score__min__energy>  (54) 
-8.2200000000000006

>  <m_primary>  (54) 
energy

>  <rmsd>  (54) 
2.023306820891446

>  <m_score__min__rmsd>  (54) 
2.023306820891446

>  <meeko>  (54) 
{"free_energy": -7.93, "intermolecular_energy": -9.42, "internal_energy": -1.86, "cluster_size": 32, "cluster_id": 1, "rank_in_cluster": 15}

>  <energy>  (54) 
-7.99

>  <cluster_rmsd>  (54) 
1.18

>  <cluster>  (54) 
1

$$$$

     RDKit          3D

 47 50  0  0  0  0  0  0  0  0999 V2000
  140.3320   71.6580  221.0010 O   0  0  0  0  0  0  0  0  0  0  0  0
  140.0600   72.2190  222.1160 C   0  0  0  0  0  0  0  0  0  0  0  0
  139.8060   73.6160  222.1980 N   0  0  0  0  0  0  0  0  0  0  0  0
  139.8530   74.4330  221.0000 C   0  0  0  0  0  0  0  0  0  0  0  0
  140.8220   75.5630  221.1760 C   0  0  0  0  0  0  0  0  0  0  0  0
  141.0690   75.9480  222.3470 O   0  0  0  0  0  0  0  0  0  0  0  0
  141.4090   76.1400  220.0180 N   0  0  0  0  0  0  0  0  0  0  0  0
  141.1330   77.4760  219.4690 C   0  0  0  0  0  0  0  0  0  0  0  0
  142.2680   77.7980  218.5580 C   0  0  0  0  0  0  0  0  0  0  0  0
  143.3010   76.7380  218.8780 C   0  0  0  0  0  0  0  0  0  0  0  0
  142.3810   75.5410  219.1570 C   0  0  1  0  0  0  0  0  0  0  0  0
  143.2220   74.5040  219.8040 C   0  0  0  0  0  0  0  0  0  0  0  0
  144.5080   74.8040  220.2340 C   0  0  0  0  0  0  0  0  0  0  0  0
  145.2930   73.8410  220.8370 C   0  0  0  0  0  0  0  0  0  0  0  0
  144.8530   72.5810  221.0350 N   0  0  0  0  0  0  0  0  0  0  0  0
  143.6160   72.2840  220.6240 C   0  0  0  0  0  0  0  0  0  0  0  0
  142.7950   73.2110  220.0160 C   0  0  0  0  0  0  0  0  0  0  0  0
  140.0040   71.4190  223.3550 C   0  0  0  0  0  0  0  0  0  0  0  0
  139.4450   70.1580  223.3040 C   0  0  0  0  0  0  0  0  0  0  0  0
  139.3430   69.3300  224.4040 C   0  0  0  0  0  0  0  0  0  0  0  0
  139.8450   69.8380  225.6030 C   0  0  0  0  0  0  0  0  0  0  0  0
  139.7970   69.0980  226.7740 C   0  0  0  0  0  0  0  0  0  0  0  0
  140.2880   69.5840  227.9670 C   0  0  0  0  0  0  0  0  0  0  0  0
  140.2250   68.8290  229.0960 F   0  0  0  0  0  0  0  0  0  0  0  0
  140.8460   70.8660  227.9730 C   0  0  0  0  0  0  0  0  0  0  0  0
  140.9010   71.6180  226.8200 C   0  0  0  0  0  0  0  0  0  0  0  0
  140.4040   71.1150  225.6300 C   0  0  0  0  0  0  0  0  0  0  0  0
  140.4780   71.8830  224.5240 N   0  0  0  0  0  0  0  0  0  0  0  0
  139.5830   74.0760  223.1170 H   0  0  0  0  0  0  0  0  0  0  0  0
  140.1712   73.8117  220.1498 H   0  0  0  0  0  0  0  0  0  0  0  0
  138.8518   74.8476  220.8113 H   0  0  0  0  0  0  0  0  0  0  0  0
  140.1859   77.4694  218.9095 H   0  0  0  0  0  0  0  0  0  0  0  0
  141.0385   78.2248  220.2692 H   0  0  0  0  0  0  0  0  0  0  0  0
  141.9553   77.7351  217.5052 H   0  0  0  0  0  0  0  0  0  0  0  0
  142.6497   78.8199  218.6993 H   0  0  0  0  0  0  0  0  0  0  0  0
  143.9690   76.5488  218.0248 H   0  0  0  0  0  0  0  0  0  0  0  0
  143.9877   76.9944  219.6982 H   0  0  0  0  0  0  0  0  0  0  0  0
  141.8966   75.0434  218.3039 H   0  0  0  0  0  0  0  0  0  0  0  0
  144.9057   75.8198  220.0927 H   0  0  0  0  0  0  0  0  0  0  0  0
  146.3078   74.1094  221.1659 H   0  0  0  0  0  0  0  0  0  0  0  0
  143.2387   71.2620  220.7763 H   0  0  0  0  0  0  0  0  0  0  0  0
  141.7854   72.9139  219.6960 H   0  0  0  0  0  0  0  0  0  0  0  0
  139.0618   69.7948  222.3390 H   0  0  0  0  0  0  0  0  0  0  0  0
  138.8925   68.3286  224.3392 H   0  0  0  0  0  0  0  0  0  0  0  0
  139.3534   68.0917  226.7507 H   0  0  0  0  0  0  0  0  0  0  0  0
  141.2462   71.2795  228.9105 H   0  0  0  0  0  0  0  0  0  0  0  0
  141.3429   72.6250  226.8452 H   0  0  0  0  0  0  0  0  0  0  0  0
  1  2  2  0
  2  3  1  0
  3  4  1  0
  4  5  1  0
  5  6  2  0
  5  7  1  0
  7  8  1  0
  8  9  1  0
  9 10  1  0
 10 11  1  0
 11 12  1  0
 12 13  2  0
 13 14  1  0
 14 15  2  0
 15 16  1  0
 16 17  2  0
  2 18  1  0
 18 19  2  0
 19 20  1  0
 20 21  2  0
 21 22  1  0
 22 23  2  0
 23 24  1  0
 23 25  1  0
 25 26  2  0
 26 27  1  0
 27 28  2  0
 11  7  1  0
 17 12  1  0
 28 18  1  0
 27 21  1  0
  3 29  1  0
  4 30  1  0
  4 31  1  0
  8 32  1  0
  8 33  1  0
  9 34  1  0
  9 35  1  0
 10 36  1  0
 10 37  1  0
 11 38  1  6
 13 39  1  0
 14 40  1  0
 16 41  1  0
 17 42  1  0
 19 43  1  0
 20 44  1  0
 22 45  1  0
 25 46  1  0
 26 47  1  0
M  END
>  <smiles>  (55) 
O=C(NCC(=O)N1CCCC1c1ccncc1)c1ccc2cc(F)ccc2n1

>  <score_type>  (55) 
oracle

>  <origin>  (55) 
autodockgpu

>  <m_score__min__energy>  (55) 
-8.2200000000000006

>  <m_primary>  (55) 
energy

>  <rmsd>  (55) 
2.0339675642100667

>  <m_score__min__rmsd>  (55) 
2.0339675642100667

>  <meeko>  (55) 
{"free_energy": -7.95, "intermolecular_energy": -9.44, "internal_energy": -1.86, "cluster_size": 32, "cluster_id": 1, "rank_in_cluster": 7}

>  <energy>  (55) 
-7.98

>  <cluster_rmsd>  (55) 
1.12

>  <cluster>  (55) 
1

$$$$

     RDKit          3D

 47 50  0  0  0  0  0  0  0  0999 V2000
  140.3890   71.4900  220.9980 O   0  0  0  0  0  0  0  0  0  0  0  0
  140.0860   72.0730  222.0930 C   0  0  0  0  0  0  0  0  0  0  0  0
  139.8460   73.4740  222.1410 N   0  0  0  0  0  0  0  0  0  0  0  0
  139.9430   74.2690  220.9320 C   0  0  0  0  0  0  0  0  0  0  0  0
  140.7750   75.4920  221.1750 C   0  0  0  0  0  0  0  0  0  0  0  0
  140.8890   75.8980  222.3600 O   0  0  0  0  0  0  0  0  0  0  0  0
  141.3880   76.1280  220.0620 N   0  0  0  0  0  0  0  0  0  0  0  0
  141.1280   77.4920  219.5800 C   0  0  0  0  0  0  0  0  0  0  0  0
  142.2830   77.8580  218.7120 C   0  0  0  0  0  0  0  0  0  0  0  0
  143.3060   76.7790  218.9970 C   0  0  0  0  0  0  0  0  0  0  0  0
  142.3770   75.5720  219.1920 C   0  0  1  0  0  0  0  0  0  0  0  0
  143.2020   74.4990  219.8010 C   0  0  0  0  0  0  0  0  0  0  0  0
  144.4520   74.7840  220.3330 C   0  0  0  0  0  0  0  0  0  0  0  0
  145.2210   73.7870  220.9010 C   0  0  0  0  0  0  0  0  0  0  0  0
  144.7980   72.5070  220.9650 N   0  0  0  0  0  0  0  0  0  0  0  0
  143.5960   72.2250  220.4550 C   0  0  0  0  0  0  0  0  0  0  0  0
  142.7910   73.1850  219.8770 C   0  0  0  0  0  0  0  0  0  0  0  0
  139.9790   71.2970  223.3430 C   0  0  0  0  0  0  0  0  0  0  0  0
  139.3830   70.0520  223.3000 C   0  0  0  0  0  0  0  0  0  0  0  0
  139.2330   69.2460  224.4100 C   0  0  0  0  0  0  0  0  0  0  0  0
  139.7230   69.7590  225.6120 C   0  0  0  0  0  0  0  0  0  0  0  0
  139.6280   69.0410  226.7940 C   0  0  0  0  0  0  0  0  0  0  0  0
  140.1060   69.5320  227.9900 C   0  0  0  0  0  0  0  0  0  0  0  0
  139.9960   68.7980  229.1290 F   0  0  0  0  0  0  0  0  0  0  0  0
  140.7030   70.7960  227.9870 C   0  0  0  0  0  0  0  0  0  0  0  0
  140.8060   71.5270  226.8230 C   0  0  0  0  0  0  0  0  0  0  0  0
  140.3200   71.0200  225.6310 C   0  0  0  0  0  0  0  0  0  0  0  0
  140.4420   71.7660  224.5150 N   0  0  0  0  0  0  0  0  0  0  0  0
  139.5970   73.9530  223.0440 H   0  0  0  0  0  0  0  0  0  0  0  0
  140.4084   73.6661  220.1383 H   0  0  0  0  0  0  0  0  0  0  0  0
  138.9326   74.5799  220.6279 H   0  0  0  0  0  0  0  0  0  0  0  0
  140.1931   77.5193  219.0010 H   0  0  0  0  0  0  0  0  0  0  0  0
  141.0187   78.1971  220.4172 H   0  0  0  0  0  0  0  0  0  0  0  0
  141.9929   77.8524  217.6510 H   0  0  0  0  0  0  0  0  0  0  0  0
  142.6641   78.8696  218.9157 H   0  0  0  0  0  0  0  0  0  0  0  0
  143.9917   76.6331  218.1494 H   0  0  0  0  0  0  0  0  0  0  0  0
  143.9755   76.9888  219.8442 H   0  0  0  0  0  0  0  0  0  0  0  0
  141.9098   75.1218  218.3037 H   0  0  0  0  0  0  0  0  0  0  0  0
  144.8343   75.8149  220.3019 H   0  0  0  0  0  0  0  0  0  0  0  0
  146.2078   74.0440  221.3136 H   0  0  0  0  0  0  0  0  0  0  0  0
  143.2339   71.1872  220.4975 H   0  0  0  0  0  0  0  0  0  0  0  0
  141.8093   72.8986  219.4718 H   0  0  0  0  0  0  0  0  0  0  0  0
  139.0093   69.6846  222.3329 H   0  0  0  0  0  0  0  0  0  0  0  0
  138.7552   68.2570  224.3510 H   0  0  0  0  0  0  0  0  0  0  0  0
  139.1560   68.0476  226.7769 H   0  0  0  0  0  0  0  0  0  0  0  0
  141.0958   71.2128  228.9261 H   0  0  0  0  0  0  0  0  0  0  0  0
  141.2779   72.5205  226.8419 H   0  0  0  0  0  0  0  0  0  0  0  0
  1  2  2  0
  2  3  1  0
  3  4  1  0
  4  5  1  0
  5  6  2  0
  5  7  1  0
  7  8  1  0
  8  9  1  0
  9 10  1  0
 10 11  1  0
 11 12  1  0
 12 13  2  0
 13 14  1  0
 14 15  2  0
 15 16  1  0
 16 17  2  0
  2 18  1  0
 18 19  2  0
 19 20  1  0
 20 21  2  0
 21 22  1  0
 22 23  2  0
 23 24  1  0
 23 25  1  0
 25 26  2  0
 26 27  1  0
 27 28  2  0
 11  7  1  0
 17 12  1  0
 28 18  1  0
 27 21  1  0
  3 29  1  0
  4 30  1  0
  4 31  1  0
  8 32  1  0
  8 33  1  0
  9 34  1  0
  9 35  1  0
 10 36  1  0
 10 37  1  0
 11 38  1  6
 13 39  1  0
 14 40  1  0
 16 41  1  0
 17 42  1  0
 19 43  1  0
 20 44  1  0
 22 45  1  0
 25 46  1  0
 26 47  1  0
M  END
>  <smiles>  (56) 
O=C(NCC(=O)N1CCCC1c1ccncc1)c1ccc2cc(F)ccc2n1

>  <score_type>  (56) 
oracle

>  <origin>  (56) 
autodockgpu

>  <m_score__min__energy>  (56) 
-8.2200000000000006

>  <m_primary>  (56) 
energy

>  <rmsd>  (56) 
2.0411990549334527

>  <m_score__min__rmsd>  (56) 
2.0411990549334527

>  <meeko>  (56) 
{"free_energy": -7.9, "intermolecular_energy": -9.39, "internal_energy": -1.9, "cluster_size": 32, "cluster_id": 1, "rank_in_cluster": 23}

>  <energy>  (56) 
-7.95

>  <cluster_rmsd>  (56) 
1.2

>  <cluster>  (56) 
1

$$$$

     RDKit          3D

 47 50  0  0  0  0  0  0  0  0999 V2000
  140.3750   71.5470  220.9930 O   0  0  0  0  0  0  0  0  0  0  0  0
  140.0750   72.1210  222.0940 C   0  0  0  0  0  0  0  0  0  0  0  0
  139.8260   73.5200  222.1540 N   0  0  0  0  0  0  0  0  0  0  0  0
  139.9110   74.3240  220.9500 C   0  0  0  0  0  0  0  0  0  0  0  0
  140.8010   75.5090  221.1740 C   0  0  0  0  0  0  0  0  0  0  0  0
  140.9830   75.8910  222.3580 O   0  0  0  0  0  0  0  0  0  0  0  0
  141.3900   76.1390  220.0440 N   0  0  0  0  0  0  0  0  0  0  0  0
  141.0970   77.4900  219.5430 C   0  0  0  0  0  0  0  0  0  0  0  0
  142.2350   77.8640  218.6560 C   0  0  0  0  0  0  0  0  0  0  0  0
  143.2830   76.8100  218.9480 C   0  0  0  0  0  0  0  0  0  0  0  0
  142.3800   75.5890  219.1720 C   0  0  1  0  0  0  0  0  0  0  0  0
  143.2330   74.5420  219.7890 C   0  0  0  0  0  0  0  0  0  0  0  0
  142.7960   73.2260  219.8590 C   0  0  0  0  0  0  0  0  0  0  0  0
  143.5870   72.2500  220.4330 C   0  0  0  0  0  0  0  0  0  0  0  0
  144.8050   72.5260  220.9440 N   0  0  0  0  0  0  0  0  0  0  0  0
  145.2320   73.7900  220.8800 C   0  0  0  0  0  0  0  0  0  0  0  0
  144.4790   74.8000  220.3180 C   0  0  0  0  0  0  0  0  0  0  0  0
  139.9800   71.3350  223.3400 C   0  0  0  0  0  0  0  0  0  0  0  0
  139.4130   70.0770  223.2870 C   0  0  0  0  0  0  0  0  0  0  0  0
  139.2760   69.2620  224.3920 C   0  0  0  0  0  0  0  0  0  0  0  0
  139.7490   69.7790  225.5990 C   0  0  0  0  0  0  0  0  0  0  0  0
  139.6650   69.0520  226.7760 C   0  0  0  0  0  0  0  0  0  0  0  0
  140.1260   69.5480  227.9770 C   0  0  0  0  0  0  0  0  0  0  0  0
  140.0280   68.8050  229.1120 F   0  0  0  0  0  0  0  0  0  0  0  0
  140.6930   70.8250  227.9850 C   0  0  0  0  0  0  0  0  0  0  0  0
  140.7850   71.5650  226.8250 C   0  0  0  0  0  0  0  0  0  0  0  0
  140.3170   71.0530  225.6280 C   0  0  0  0  0  0  0  0  0  0  0  0
  140.4260   71.8090  224.5160 N   0  0  0  0  0  0  0  0  0  0  0  0
  139.5790   73.9910  223.0620 H   0  0  0  0  0  0  0  0  0  0  0  0
  140.3216   73.7116  220.1336 H   0  0  0  0  0  0  0  0  0  0  0  0
  138.9038   74.6793  220.6867 H   0  0  0  0  0  0  0  0  0  0  0  0
  140.1554   77.4893  218.9744 H   0  0  0  0  0  0  0  0  0  0  0  0
  140.9826   78.2066  220.3697 H   0  0  0  0  0  0  0  0  0  0  0  0
  141.9336   77.8344  217.5985 H   0  0  0  0  0  0  0  0  0  0  0  0
  142.5979   78.8863  218.8382 H   0  0  0  0  0  0  0  0  0  0  0  0
  143.9630   76.6637  218.0958 H   0  0  0  0  0  0  0  0  0  0  0  0
  143.9570   77.0468  219.7845 H   0  0  0  0  0  0  0  0  0  0  0  0
  141.9119   75.1160  218.2961 H   0  0  0  0  0  0  0  0  0  0  0  0
  141.8095   72.9578  219.4530 H   0  0  0  0  0  0  0  0  0  0  0  0
  143.2127   71.2165  220.4748 H   0  0  0  0  0  0  0  0  0  0  0  0
  146.2223   74.0350  221.2913 H   0  0  0  0  0  0  0  0  0  0  0  0
  144.8784   75.8246  220.2918 H   0  0  0  0  0  0  0  0  0  0  0  0
  139.0528   69.7063  222.3160 H   0  0  0  0  0  0  0  0  0  0  0  0
  138.8205   68.2630  224.3254 H   0  0  0  0  0  0  0  0  0  0  0  0
  139.2165   68.0479  226.7512 H   0  0  0  0  0  0  0  0  0  0  0  0
  141.0708   71.2454  228.9287 H   0  0  0  0  0  0  0  0  0  0  0  0
  141.2335   72.5691  226.8516 H   0  0  0  0  0  0  0  0  0  0  0  0
  1  2  2  0
  2  3  1  0
  3  4  1  0
  4  5  1  0
  5  6  2  0
  5  7  1  0
  7  8  1  0
  8  9  1  0
  9 10  1  0
 10 11  1  0
 11 12  1  0
 12 13  2  0
 13 14  1  0
 14 15  2  0
 15 16  1  0
 16 17  2  0
  2 18  1  0
 18 19  2  0
 19 20  1  0
 20 21  2  0
 21 22  1  0
 22 23  2  0
 23 24  1  0
 23 25  1  0
 25 26  2  0
 26 27  1  0
 27 28  2  0
 11  7  1  0
 17 12  1  0
 28 18  1  0
 27 21  1  0
  3 29  1  0
  4 30  1  0
  4 31  1  0
  8 32  1  0
  8 33  1  0
  9 34  1  0
  9 35  1  0
 10 36  1  0
 10 37  1  0
 11 38  1  6
 13 39  1  0
 14 40  1  0
 16 41  1  0
 17 42  1  0
 19 43  1  0
 20 44  1  0
 22 45  1  0
 25 46  1  0
 26 47  1  0
M  END
>  <smiles>  (57) 
O=C(NCC(=O)N1CCCC1c1ccncc1)c1ccc2cc(F)ccc2n1

>  <score_type>  (57) 
oracle

>  <origin>  (57) 
autodockgpu

>  <m_score__min__energy>  (57) 
-8.2200000000000006

>  <m_primary>  (57) 
energy

>  <rmsd>  (57) 
2.0272124748378255

>  <m_score__min__rmsd>  (57) 
2.0272124748378255

>  <meeko>  (57) 
{"free_energy": -7.9, "intermolecular_energy": -9.39, "internal_energy": -1.88, "cluster_size": 32, "cluster_id": 1, "rank_in_cluster": 22}

>  <energy>  (57) 
-7.95

>  <cluster_rmsd>  (57) 
1.21

>  <cluster>  (57) 
1

$$$$

     RDKit          3D

 47 50  0  0  0  0  0  0  0  0999 V2000
  140.7660   71.8000  221.1010 O   0  0  0  0  0  0  0  0  0  0  0  0
  140.3130   72.3220  222.1750 C   0  0  0  0  0  0  0  0  0  0  0  0
  139.9520   73.6960  222.2330 N   0  0  0  0  0  0  0  0  0  0  0  0
  140.0940   74.5330  221.0570 C   0  0  0  0  0  0  0  0  0  0  0  0
  140.6070   75.8890  221.4380 C   0  0  0  0  0  0  0  0  0  0  0  0
  140.3730   76.2980  222.6040 O   0  0  0  0  0  0  0  0  0  0  0  0
  141.3270   76.6400  220.4700 N   0  0  0  0  0  0  0  0  0  0  0  0
  141.5600   76.2660  219.0680 C   0  0  0  0  0  0  0  0  0  0  0  0
  141.9510   77.5190  218.3600 C   0  0  0  0  0  0  0  0  0  0  0  0
  141.6160   78.6140  219.3490 C   0  0  0  0  0  0  0  0  0  0  0  0
  141.9660   77.9040  220.6640 C   0  0  1  0  0  0  0  0  0  0  0  0
  141.3870   78.7270  221.7560 C   0  0  0  0  0  0  0  0  0  0  0  0
  142.1600   79.0990  222.8480 C   0  0  0  0  0  0  0  0  0  0  0  0
  141.6240   79.8640  223.8640 C   0  0  0  0  0  0  0  0  0  0  0  0
  140.3410   80.2830  223.8430 N   0  0  0  0  0  0  0  0  0  0  0  0
  139.5910   79.9290  222.7960 C   0  0  0  0  0  0  0  0  0  0  0  0
  140.0800   79.1660  221.7560 C   0  0  0  0  0  0  0  0  0  0  0  0
  140.1550   71.5010  223.3910 C   0  0  0  0  0  0  0  0  0  0  0  0
  139.4960   70.2920  223.2930 C   0  0  0  0  0  0  0  0  0  0  0  0
  139.2940   69.4500  224.3670 C   0  0  0  0  0  0  0  0  0  0  0  0
  139.8000   69.8860  225.5930 C   0  0  0  0  0  0  0  0  0  0  0  0
  139.6580   69.1260  226.7430 C   0  0  0  0  0  0  0  0  0  0  0  0
  140.1520   69.5410  227.9610 C   0  0  0  0  0  0  0  0  0  0  0  0
  139.9940   68.7680  229.0680 F   0  0  0  0  0  0  0  0  0  0  0  0
  140.8130   70.7720  228.0150 C   0  0  0  0  0  0  0  0  0  0  0  0
  140.9640   71.5440  226.8830 C   0  0  0  0  0  0  0  0  0  0  0  0
  140.4620   71.1120  225.6670 C   0  0  0  0  0  0  0  0  0  0  0  0
  140.6320   71.8970  224.5840 N   0  0  0  0  0  0  0  0  0  0  0  0
  139.5790   74.1250  223.1180 H   0  0  0  0  0  0  0  0  0  0  0  0
  140.8016   74.0608  220.3597 H   0  0  0  0  0  0  0  0  0  0  0  0
  139.1097   74.6458  220.5791 H   0  0  0  0  0  0  0  0  0  0  0  0
  142.3682   75.5228  219.0013 H   0  0  0  0  0  0  0  0  0  0  0  0
  140.6616   75.8170  218.6194 H   0  0  0  0  0  0  0  0  0  0  0  0
  143.0259   77.5177  218.1265 H   0  0  0  0  0  0  0  0  0  0  0  0
  141.4325   77.6426  217.3978 H   0  0  0  0  0  0  0  0  0  0  0  0
  142.2352   79.5094  219.1915 H   0  0  0  0  0  0  0  0  0  0  0  0
  140.5852   78.9930  219.2880 H   0  0  0  0  0  0  0  0  0  0  0  0
  143.0275   77.7718  220.9203 H   0  0  0  0  0  0  0  0  0  0  0  0
  143.2114   78.7804  222.9039 H   0  0  0  0  0  0  0  0  0  0  0  0
  142.2616   80.1406  224.7166 H   0  0  0  0  0  0  0  0  0  0  0  0
  138.5422   80.2589  222.7617 H   0  0  0  0  0  0  0  0  0  0  0  0
  139.4191   78.9046  220.9164 H   0  0  0  0  0  0  0  0  0  0  0  0
  139.1126   69.9844  222.3089 H   0  0  0  0  0  0  0  0  0  0  0  0
  138.7651   68.4911  224.2634 H   0  0  0  0  0  0  0  0  0  0  0  0
  139.1343   68.1606  226.6819 H   0  0  0  0  0  0  0  0  0  0  0  0
  141.2178   71.1291  228.9734 H   0  0  0  0  0  0  0  0  0  0  0  0
  141.4868   72.5097  226.9461 H   0  0  0  0  0  0  0  0  0  0  0  0
  1  2  2  0
  2  3  1  0
  3  4  1  0
  4  5  1  0
  5  6  2  0
  5  7  1  0
  7  8  1  0
  8  9  1  0
  9 10  1  0
 10 11  1  0
 11 12  1  0
 12 13  2  0
 13 14  1  0
 14 15  2  0
 15 16  1  0
 16 17  2  0
  2 18  1  0
 18 19  2  0
 19 20  1  0
 20 21  2  0
 21 22  1  0
 22 23  2  0
 23 24  1  0
 23 25  1  0
 25 26  2  0
 26 27  1  0
 27 28  2  0
 11  7  1  0
 17 12  1  0
 28 18  1  0
 27 21  1  0
  3 29  1  0
  4 30  1  0
  4 31  1  0
  8 32  1  0
  8 33  1  0
  9 34  1  0
  9 35  1  0
 10 36  1  0
 10 37  1  0
 11 38  1  1
 13 39  1  0
 14 40  1  0
 16 41  1  0
 17 42  1  0
 19 43  1  0
 20 44  1  0
 22 45  1  0
 25 46  1  0
 26 47  1  0
M  END
>  <smiles>  (58) 
O=C(NCC(=O)N1CCCC1c1ccncc1)c1ccc2cc(F)ccc2n1

>  <score_type>  (58) 
oracle

>  <origin>  (58) 
autodockgpu

>  <m_score__min__energy>  (58) 
-8.2200000000000006

>  <m_primary>  (58) 
energy

>  <rmsd>  (58) 
1.8043953209681391

>  <m_score__min__rmsd>  (58) 
1.8043953209681391

>  <meeko>  (58) 
{"free_energy": -8.12, "intermolecular_energy": -9.61, "internal_energy": -1.52, "cluster_size": 12, "cluster_id": 2, "rank_in_cluster": 7}

>  <energy>  (58) 
-7.95

>  <cluster_rmsd>  (58) 
1.19

>  <cluster>  (58) 
1

$$$$

     RDKit          3D

 47 50  0  0  0  0  0  0  0  0999 V2000
  140.3340   71.6620  220.9930 O   0  0  0  0  0  0  0  0  0  0  0  0
  140.0490   72.2250  222.1030 C   0  0  0  0  0  0  0  0  0  0  0  0
  139.7920   73.6220  222.1790 N   0  0  0  0  0  0  0  0  0  0  0  0
  139.8500   74.4350  220.9800 C   0  0  0  0  0  0  0  0  0  0  0  0
  140.8150   75.5670  221.1610 C   0  0  0  0  0  0  0  0  0  0  0  0
  141.0650   75.9430  222.3350 O   0  0  0  0  0  0  0  0  0  0  0  0
  141.3960   76.1570  220.0060 N   0  0  0  0  0  0  0  0  0  0  0  0
  141.1160   77.4970  219.4710 C   0  0  0  0  0  0  0  0  0  0  0  0
  142.2460   77.8290  218.5580 C   0  0  0  0  0  0  0  0  0  0  0  0
  143.2820   76.7680  218.8630 C   0  0  0  0  0  0  0  0  0  0  0  0
  142.3650   75.5670  219.1350 C   0  0  1  0  0  0  0  0  0  0  0  0
  143.2110   74.5250  219.7690 C   0  0  0  0  0  0  0  0  0  0  0  0
  142.7470   73.2220  219.9000 C   0  0  0  0  0  0  0  0  0  0  0  0
  143.5320   72.2510  220.4890 C   0  0  0  0  0  0  0  0  0  0  0  0
  144.7690   72.5170  220.9560 N   0  0  0  0  0  0  0  0  0  0  0  0
  145.2220   73.7680  220.8340 C   0  0  0  0  0  0  0  0  0  0  0  0
  144.4770   74.7730  220.2540 C   0  0  0  0  0  0  0  0  0  0  0  0
  139.9820   71.4280  223.3440 C   0  0  0  0  0  0  0  0  0  0  0  0
  139.4150   70.1710  223.2940 C   0  0  0  0  0  0  0  0  0  0  0  0
  139.3030   69.3460  224.3940 C   0  0  0  0  0  0  0  0  0  0  0  0
  139.8020   69.8540  225.5950 C   0  0  0  0  0  0  0  0  0  0  0  0
  139.7450   69.1170  226.7670 C   0  0  0  0  0  0  0  0  0  0  0  0
  140.2330   69.6020  227.9620 C   0  0  0  0  0  0  0  0  0  0  0  0
  140.1600   68.8500  229.0920 F   0  0  0  0  0  0  0  0  0  0  0  0
  140.7990   70.8800  227.9670 C   0  0  0  0  0  0  0  0  0  0  0  0
  140.8650   71.6300  226.8120 C   0  0  0  0  0  0  0  0  0  0  0  0
  140.3700   71.1270  225.6210 C   0  0  0  0  0  0  0  0  0  0  0  0
  140.4550   71.8920  224.5140 N   0  0  0  0  0  0  0  0  0  0  0  0
  139.5590   74.0840  223.0940 H   0  0  0  0  0  0  0  0  0  0  0  0
  140.1775   73.8114  220.1351 H   0  0  0  0  0  0  0  0  0  0  0  0
  138.8500   74.8477  220.7807 H   0  0  0  0  0  0  0  0  0  0  0  0
  140.1663   77.4944  218.9159 H   0  0  0  0  0  0  0  0  0  0  0  0
  141.0244   78.2382  220.2786 H   0  0  0  0  0  0  0  0  0  0  0  0
  141.9284   77.7754  217.5062 H   0  0  0  0  0  0  0  0  0  0  0  0
  142.6269   78.8501  218.7072 H   0  0  0  0  0  0  0  0  0  0  0  0
  143.9462   76.5879  218.0049 H   0  0  0  0  0  0  0  0  0  0  0  0
  143.9722   77.0177  219.6823 H   0  0  0  0  0  0  0  0  0  0  0  0
  141.8774   75.0763  218.2797 H   0  0  0  0  0  0  0  0  0  0  0  0
  141.7441   72.9614  219.5307 H   0  0  0  0  0  0  0  0  0  0  0  0
  143.1363   71.2287  220.5802 H   0  0  0  0  0  0  0  0  0  0  0  0
  146.2279   74.0054  221.2107 H   0  0  0  0  0  0  0  0  0  0  0  0
  144.8987   75.7861  220.1774 H   0  0  0  0  0  0  0  0  0  0  0  0
  139.0330   69.8085  222.3283 H   0  0  0  0  0  0  0  0  0  0  0  0
  138.8474   68.3469  224.3288 H   0  0  0  0  0  0  0  0  0  0  0  0
  139.2961   68.1130  226.7434 H   0  0  0  0  0  0  0  0  0  0  0  0
  141.1973   71.2931  228.9054 H   0  0  0  0  0  0  0  0  0  0  0  0
  141.3137   72.6340  226.8370 H   0  0  0  0  0  0  0  0  0  0  0  0
  1  2  2  0
  2  3  1  0
  3  4  1  0
  4  5  1  0
  5  6  2  0
  5  7  1  0
  7  8  1  0
  8  9  1  0
  9 10  1  0
 10 11  1  0
 11 12  1  0
 12 13  2  0
 13 14  1  0
 14 15  2  0
 15 16  1  0
 16 17  2  0
  2 18  1  0
 18 19  2  0
 19 20  1  0
 20 21  2  0
 21 22  1  0
 22 23  2  0
 23 24  1  0
 23 25  1  0
 25 26  2  0
 26 27  1  0
 27 28  2  0
 11  7  1  0
 17 12  1  0
 28 18  1  0
 27 21  1  0
  3 29  1  0
  4 30  1  0
  4 31  1  0
  8 32  1  0
  8 33  1  0
  9 34  1  0
  9 35  1  0
 10 36  1  0
 10 37  1  0
 11 38  1  6
 13 39  1  0
 14 40  1  0
 16 41  1  0
 17 42  1  0
 19 43  1  0
 20 44  1  0
 22 45  1  0
 25 46  1  0
 26 47  1  0
M  END
>  <smiles>  (59) 
O=C(NCC(=O)N1CCCC1c1ccncc1)c1ccc2cc(F)ccc2n1

>  <score_type>  (59) 
oracle

>  <origin>  (59) 
autodockgpu

>  <m_score__min__energy>  (59) 
-8.2200000000000006

>  <m_primary>  (59) 
energy

>  <rmsd>  (59) 
2.032306665989778

>  <m_score__min__rmsd>  (59) 
2.032306665989778

>  <meeko>  (59) 
{"free_energy": -7.93, "intermolecular_energy": -9.42, "internal_energy": -1.86, "cluster_size": 32, "cluster_id": 1, "rank_in_cluster": 12}

>  <energy>  (59) 
-7.94

>  <cluster_rmsd>  (59) 
1.21

>  <cluster>  (59) 
1

$$$$

     RDKit          3D

 47 50  0  0  0  0  0  0  0  0999 V2000
  140.4100   71.5810  221.0120 O   0  0  0  0  0  0  0  0  0  0  0  0
  140.0940   72.1510  222.1100 C   0  0  0  0  0  0  0  0  0  0  0  0
  139.8340   73.5480  222.1690 N   0  0  0  0  0  0  0  0  0  0  0  0
  139.9230   74.3530  220.9660 C   0  0  0  0  0  0  0  0  0  0  0  0
  140.8470   75.5140  221.1820 C   0  0  0  0  0  0  0  0  0  0  0  0
  141.0590   75.8840  222.3650 O   0  0  0  0  0  0  0  0  0  0  0  0
  141.4320   76.1370  220.0460 N   0  0  0  0  0  0  0  0  0  0  0  0
  141.1530   77.4920  219.5480 C   0  0  0  0  0  0  0  0  0  0  0  0
  142.2860   77.8500  218.6490 C   0  0  0  0  0  0  0  0  0  0  0  0
  143.3220   76.7820  218.9290 C   0  0  0  0  0  0  0  0  0  0  0  0
  142.4050   75.5730  219.1620 C   0  0  1  0  0  0  0  0  0  0  0  0
  143.2490   74.5140  219.7700 C   0  0  0  0  0  0  0  0  0  0  0  0
  142.8030   73.2000  219.8250 C   0  0  0  0  0  0  0  0  0  0  0  0
  143.5860   72.2130  220.3890 C   0  0  0  0  0  0  0  0  0  0  0  0
  144.8050   72.4740  220.9040 N   0  0  0  0  0  0  0  0  0  0  0  0
  145.2410   73.7360  220.8550 C   0  0  0  0  0  0  0  0  0  0  0  0
  144.4960   74.7570  220.3020 C   0  0  0  0  0  0  0  0  0  0  0  0
  139.9940   71.3630  223.3540 C   0  0  0  0  0  0  0  0  0  0  0  0
  139.4100   70.1130  223.3010 C   0  0  0  0  0  0  0  0  0  0  0  0
  139.2670   69.2970  224.4040 C   0  0  0  0  0  0  0  0  0  0  0  0
  139.7520   69.8050  225.6110 C   0  0  0  0  0  0  0  0  0  0  0  0
  139.6630   69.0760  226.7860 C   0  0  0  0  0  0  0  0  0  0  0  0
  140.1360   69.5620  227.9860 C   0  0  0  0  0  0  0  0  0  0  0  0
  140.0330   68.8180  229.1190 F   0  0  0  0  0  0  0  0  0  0  0  0
  140.7200   70.8320  227.9950 C   0  0  0  0  0  0  0  0  0  0  0  0
  140.8170   71.5740  226.8370 C   0  0  0  0  0  0  0  0  0  0  0  0
  140.3370   71.0710  225.6400 C   0  0  0  0  0  0  0  0  0  0  0  0
  140.4520   71.8280  224.5300 N   0  0  0  0  0  0  0  0  0  0  0  0
  139.5750   74.0160  223.0740 H   0  0  0  0  0  0  0  0  0  0  0  0
  140.3064   73.7329  220.1423 H   0  0  0  0  0  0  0  0  0  0  0  0
  138.9219   74.7348  220.7169 H   0  0  0  0  0  0  0  0  0  0  0  0
  140.2053   77.5047  218.9896 H   0  0  0  0  0  0  0  0  0  0  0  0
  141.0580   78.2100  220.3759 H   0  0  0  0  0  0  0  0  0  0  0  0
  141.9726   77.8249  217.5949 H   0  0  0  0  0  0  0  0  0  0  0  0
  142.6651   78.8670  218.8275 H   0  0  0  0  0  0  0  0  0  0  0  0
  143.9908   76.6271  218.0695 H   0  0  0  0  0  0  0  0  0  0  0  0
  144.0079   77.0090  219.7584 H   0  0  0  0  0  0  0  0  0  0  0  0
  141.9217   75.1070  218.2906 H   0  0  0  0  0  0  0  0  0  0  0  0
  141.8153   72.9430  219.4147 H   0  0  0  0  0  0  0  0  0  0  0  0
  143.2041   71.1819  220.4194 H   0  0  0  0  0  0  0  0  0  0  0  0
  146.2319   73.9699  221.2715 H   0  0  0  0  0  0  0  0  0  0  0  0
  144.9033   75.7787  220.2857 H   0  0  0  0  0  0  0  0  0  0  0  0
  139.0403   69.7497  222.3308 H   0  0  0  0  0  0  0  0  0  0  0  0
  138.7983   68.3041  224.3367 H   0  0  0  0  0  0  0  0  0  0  0  0
  139.2004   68.0783  226.7603 H   0  0  0  0  0  0  0  0  0  0  0  0
  141.1072   71.2448  228.9382 H   0  0  0  0  0  0  0  0  0  0  0  0
  141.2787   72.5720  226.8645 H   0  0  0  0  0  0  0  0  0  0  0  0
  1  2  2  0
  2  3  1  0
  3  4  1  0
  4  5  1  0
  5  6  2  0
  5  7  1  0
  7  8  1  0
  8  9  1  0
  9 10  1  0
 10 11  1  0
 11 12  1  0
 12 13  2  0
 13 14  1  0
 14 15  2  0
 15 16  1  0
 16 17  2  0
  2 18  1  0
 18 19  2  0
 19 20  1  0
 20 21  2  0
 21 22  1  0
 22 23  2  0
 23 24  1  0
 23 25  1  0
 25 26  2  0
 26 27  1  0
 27 28  2  0
 11  7  1  0
 17 12  1  0
 28 18  1  0
 27 21  1  0
  3 29  1  0
  4 30  1  0
  4 31  1  0
  8 32  1  0
  8 33  1  0
  9 34  1  0
  9 35  1  0
 10 36  1  0
 10 37  1  0
 11 38  1  6
 13 39  1  0
 14 40  1  0
 16 41  1  0
 17 42  1  0
 19 43  1  0
 20 44  1  0
 22 45  1  0
 25 46  1  0
 26 47  1  0
M  END
>  <smiles>  (60) 
O=C(NCC(=O)N1CCCC1c1ccncc1)c1ccc2cc(F)ccc2n1

>  <score_type>  (60) 
oracle

>  <origin>  (60) 
autodockgpu

>  <m_score__min__energy>  (60) 
-8.2200000000000006

>  <m_primary>  (60) 
energy

>  <rmsd>  (60) 
2.0515251798574248

>  <m_score__min__rmsd>  (60) 
2.0515251798574248

>  <meeko>  (60) 
{"free_energy": -7.92, "intermolecular_energy": -9.41, "internal_energy": -1.86, "cluster_size": 32, "cluster_id": 1, "rank_in_cluster": 17}

>  <energy>  (60) 
-7.94

>  <cluster_rmsd>  (60) 
1.18

>  <cluster>  (60) 
1

$$$$

     RDKit          3D

 47 50  0  0  0  0  0  0  0  0999 V2000
  140.3600   71.6490  220.9770 O   0  0  0  0  0  0  0  0  0  0  0  0
  140.0790   72.2080  222.0910 C   0  0  0  0  0  0  0  0  0  0  0  0
  139.8310   73.6060  222.1740 N   0  0  0  0  0  0  0  0  0  0  0  0
  139.8940   74.4260  220.9800 C   0  0  0  0  0  0  0  0  0  0  0  0
  140.8330   75.5770  221.1840 C   0  0  0  0  0  0  0  0  0  0  0  0
  141.0500   75.9540  222.3640 O   0  0  0  0  0  0  0  0  0  0  0  0
  141.4250   76.1820  220.0430 N   0  0  0  0  0  0  0  0  0  0  0  0
  141.1480   77.5290  219.5220 C   0  0  0  0  0  0  0  0  0  0  0  0
  142.2870   77.8730  218.6250 C   0  0  0  0  0  0  0  0  0  0  0  0
  143.3210   76.8100  218.9280 C   0  0  0  0  0  0  0  0  0  0  0  0
  142.4030   75.6050  219.1740 C   0  0  1  0  0  0  0  0  0  0  0  0
  143.2440   74.5560  219.8040 C   0  0  0  0  0  0  0  0  0  0  0  0
  144.5270   74.8500  220.2480 C   0  0  0  0  0  0  0  0  0  0  0  0
  145.3110   73.8760  220.8330 C   0  0  0  0  0  0  0  0  0  0  0  0
  144.8730   72.6110  221.0010 N   0  0  0  0  0  0  0  0  0  0  0  0
  143.6390   72.3200  220.5770 C   0  0  0  0  0  0  0  0  0  0  0  0
  142.8190   73.2570  219.9850 C   0  0  0  0  0  0  0  0  0  0  0  0
  140.0070   71.4050  223.3270 C   0  0  0  0  0  0  0  0  0  0  0  0
  139.4480   70.1440  223.2660 C   0  0  0  0  0  0  0  0  0  0  0  0
  139.3320   69.3140  224.3610 C   0  0  0  0  0  0  0  0  0  0  0  0
  139.8170   69.8180  225.5690 C   0  0  0  0  0  0  0  0  0  0  0  0
  139.7540   69.0750  226.7370 C   0  0  0  0  0  0  0  0  0  0  0  0
  140.2290   69.5580  227.9380 C   0  0  0  0  0  0  0  0  0  0  0  0
  140.1520   68.8000  229.0640 F   0  0  0  0  0  0  0  0  0  0  0  0
  140.7870   70.8400  227.9550 C   0  0  0  0  0  0  0  0  0  0  0  0
  140.8580   71.5950  226.8040 C   0  0  0  0  0  0  0  0  0  0  0  0
  140.3770   71.0960  225.6060 C   0  0  0  0  0  0  0  0  0  0  0  0
  140.4660   71.8660  224.5040 N   0  0  0  0  0  0  0  0  0  0  0  0
  139.6000   74.0650  223.0920 H   0  0  0  0  0  0  0  0  0  0  0  0
  140.2493   73.8135  220.1382 H   0  0  0  0  0  0  0  0  0  0  0  0
  138.8896   74.8194  220.7645 H   0  0  0  0  0  0  0  0  0  0  0  0
  140.2040   77.5322  218.9573 H   0  0  0  0  0  0  0  0  0  0  0  0
  141.0466   78.2600  220.3377 H   0  0  0  0  0  0  0  0  0  0  0  0
  141.9805   77.8316  217.5694 H   0  0  0  0  0  0  0  0  0  0  0  0
  142.6650   78.8927  218.7904 H   0  0  0  0  0  0  0  0  0  0  0  0
  143.9951   76.6418  218.0752 H   0  0  0  0  0  0  0  0  0  0  0  0
  144.0017   77.0500  219.7581 H   0  0  0  0  0  0  0  0  0  0  0  0
  141.9250   75.1255  218.3071 H   0  0  0  0  0  0  0  0  0  0  0  0
  144.9225   75.8699  220.1322 H   0  0  0  0  0  0  0  0  0  0  0  0
  146.3237   74.1392  221.1725 H   0  0  0  0  0  0  0  0  0  0  0  0
  143.2636   71.2940  220.7053 H   0  0  0  0  0  0  0  0  0  0  0  0
  141.8121   72.9642  219.6526 H   0  0  0  0  0  0  0  0  0  0  0  0
  139.0766   69.7835  222.2954 H   0  0  0  0  0  0  0  0  0  0  0  0
  138.8832   68.3125  224.2868 H   0  0  0  0  0  0  0  0  0  0  0  0
  139.3113   68.0685  226.7051 H   0  0  0  0  0  0  0  0  0  0  0  0
  141.1742   71.2512  228.8989 H   0  0  0  0  0  0  0  0  0  0  0  0
  141.3002   72.6016  226.8378 H   0  0  0  0  0  0  0  0  0  0  0  0
  1  2  2  0
  2  3  1  0
  3  4  1  0
  4  5  1  0
  5  6  2  0
  5  7  1  0
  7  8  1  0
  8  9  1  0
  9 10  1  0
 10 11  1  0
 11 12  1  0
 12 13  2  0
 13 14  1  0
 14 15  2  0
 15 16  1  0
 16 17  2  0
  2 18  1  0
 18 19  2  0
 19 20  1  0
 20 21  2  0
 21 22  1  0
 22 23  2  0
 23 24  1  0
 23 25  1  0
 25 26  2  0
 26 27  1  0
 27 28  2  0
 11  7  1  0
 17 12  1  0
 28 18  1  0
 27 21  1  0
  3 29  1  0
  4 30  1  0
  4 31  1  0
  8 32  1  0
  8 33  1  0
  9 34  1  0
  9 35  1  0
 10 36  1  0
 10 37  1  0
 11 38  1  6
 13 39  1  0
 14 40  1  0
 16 41  1  0
 17 42  1  0
 19 43  1  0
 20 44  1  0
 22 45  1  0
 25 46  1  0
 26 47  1  0
M  END
>  <smiles>  (61) 
O=C(NCC(=O)N1CCCC1c1ccncc1)c1ccc2cc(F)ccc2n1

>  <score_type>  (61) 
oracle

>  <origin>  (61) 
autodockgpu

>  <m_score__min__energy>  (61) 
-8.2200000000000006

>  <m_primary>  (61) 
energy

>  <rmsd>  (61) 
2.0523769499581053

>  <m_score__min__rmsd>  (61) 
2.0523769499581053

>  <meeko>  (61) 
{"free_energy": -7.93, "intermolecular_energy": -9.42, "internal_energy": -1.86, "cluster_size": 32, "cluster_id": 1, "rank_in_cluster": 14}

>  <energy>  (61) 
-7.94

>  <cluster_rmsd>  (61) 
1.22

>  <cluster>  (61) 
1

$$$$

     RDKit          3D

 47 50  0  0  0  0  0  0  0  0999 V2000
  140.4870   71.3430  221.0500 O   0  0  0  0  0  0  0  0  0  0  0  0
  140.1770   71.9530  222.1290 C   0  0  0  0  0  0  0  0  0  0  0  0
  139.9510   73.3570  222.1440 N   0  0  0  0  0  0  0  0  0  0  0  0
  140.0710   74.1240  220.9190 C   0  0  0  0  0  0  0  0  0  0  0  0
  140.7890   75.4140  221.1780 C   0  0  0  0  0  0  0  0  0  0  0  0
  140.8150   75.8450  222.3590 O   0  0  0  0  0  0  0  0  0  0  0  0
  141.3990   76.0840  220.0830 N   0  0  0  0  0  0  0  0  0  0  0  0
  141.1290   77.4580  219.6350 C   0  0  0  0  0  0  0  0  0  0  0  0
  142.2830   77.8540  218.7780 C   0  0  0  0  0  0  0  0  0  0  0  0
  143.3130   76.7750  219.0370 C   0  0  0  0  0  0  0  0  0  0  0  0
  142.3920   75.5570  219.1990 C   0  0  1  0  0  0  0  0  0  0  0  0
  143.2230   74.4740  219.7810 C   0  0  0  0  0  0  0  0  0  0  0  0
  144.4540   74.7600  220.3580 C   0  0  0  0  0  0  0  0  0  0  0  0
  145.2290   73.7540  220.9000 C   0  0  0  0  0  0  0  0  0  0  0  0
  144.8320   72.4640  220.8960 N   0  0  0  0  0  0  0  0  0  0  0  0
  143.6490   72.1820  220.3440 C   0  0  0  0  0  0  0  0  0  0  0  0
  142.8390   73.1500  219.7890 C   0  0  0  0  0  0  0  0  0  0  0  0
  140.0480   71.2050  223.3940 C   0  0  0  0  0  0  0  0  0  0  0  0
  139.4350   69.9670  223.3720 C   0  0  0  0  0  0  0  0  0  0  0  0
  139.2640   69.1880  224.4970 C   0  0  0  0  0  0  0  0  0  0  0  0
  139.7490   69.7190  225.6930 C   0  0  0  0  0  0  0  0  0  0  0  0
  139.6330   69.0280  226.8880 C   0  0  0  0  0  0  0  0  0  0  0  0
  140.1070   69.5380  228.0780 C   0  0  0  0  0  0  0  0  0  0  0  0
  139.9760   68.8300  229.2320 F   0  0  0  0  0  0  0  0  0  0  0  0
  140.7200   70.7940  228.0550 C   0  0  0  0  0  0  0  0  0  0  0  0
  140.8450   71.4990  226.8770 C   0  0  0  0  0  0  0  0  0  0  0  0
  140.3630   70.9720  225.6900 C   0  0  0  0  0  0  0  0  0  0  0  0
  140.5050   71.6930  224.5600 N   0  0  0  0  0  0  0  0  0  0  0  0
  139.6970   73.8580  223.0330 H   0  0  0  0  0  0  0  0  0  0  0  0
  140.6347   73.5379  220.1782 H   0  0  0  0  0  0  0  0  0  0  0  0
  139.0636   74.3469  220.5376 H   0  0  0  0  0  0  0  0  0  0  0  0
  140.1947   77.4928  219.0554 H   0  0  0  0  0  0  0  0  0  0  0  0
  141.0129   78.1412  220.4893 H   0  0  0  0  0  0  0  0  0  0  0  0
  141.9944   77.8734  217.7167 H   0  0  0  0  0  0  0  0  0  0  0  0
  142.6569   78.8626  219.0079 H   0  0  0  0  0  0  0  0  0  0  0  0
  144.0012   76.6557  218.1872 H   0  0  0  0  0  0  0  0  0  0  0  0
  143.9796   76.9674  219.8906 H   0  0  0  0  0  0  0  0  0  0  0  0
  141.9288   75.1272  218.2986 H   0  0  0  0  0  0  0  0  0  0  0  0
  144.8150   75.7988  220.3833 H   0  0  0  0  0  0  0  0  0  0  0  0
  146.1997   74.0118  221.3488 H   0  0  0  0  0  0  0  0  0  0  0  0
  143.3075   71.1364  220.3316 H   0  0  0  0  0  0  0  0  0  0  0  0
  141.8738   72.8621  219.3469 H   0  0  0  0  0  0  0  0  0  0  0  0
  139.0651   69.5838  222.4095 H   0  0  0  0  0  0  0  0  0  0  0  0
  138.7734   68.2044  224.4541 H   0  0  0  0  0  0  0  0  0  0  0  0
  139.1473   68.0410  226.8875 H   0  0  0  0  0  0  0  0  0  0  0  0
  141.1079   71.2257  228.9895 H   0  0  0  0  0  0  0  0  0  0  0  0
  141.3305   72.4861  226.8796 H   0  0  0  0  0  0  0  0  0  0  0  0
  1  2  2  0
  2  3  1  0
  3  4  1  0
  4  5  1  0
  5  6  2  0
  5  7  1  0
  7  8  1  0
  8  9  1  0
  9 10  1  0
 10 11  1  0
 11 12  1  0
 12 13  2  0
 13 14  1  0
 14 15  2  0
 15 16  1  0
 16 17  2  0
  2 18  1  0
 18 19  2  0
 19 20  1  0
 20 21  2  0
 21 22  1  0
 22 23  2  0
 23 24  1  0
 23 25  1  0
 25 26  2  0
 26 27  1  0
 27 28  2  0
 11  7  1  0
 17 12  1  0
 28 18  1  0
 27 21  1  0
  3 29  1  0
  4 30  1  0
  4 31  1  0
  8 32  1  0
  8 33  1  0
  9 34  1  0
  9 35  1  0
 10 36  1  0
 10 37  1  0
 11 38  1  6
 13 39  1  0
 14 40  1  0
 16 41  1  0
 17 42  1  0
 19 43  1  0
 20 44  1  0
 22 45  1  0
 25 46  1  0
 26 47  1  0
M  END
>  <smiles>  (62) 
O=C(NCC(=O)N1CCCC1c1ccncc1)c1ccc2cc(F)ccc2n1

>  <score_type>  (62) 
oracle

>  <origin>  (62) 
autodockgpu

>  <m_score__min__energy>  (62) 
-8.2200000000000006

>  <m_primary>  (62) 
energy

>  <rmsd>  (62) 
2.0570334693130596

>  <m_score__min__rmsd>  (62) 
2.0570334693130596

>  <meeko>  (62) 
{"free_energy": -7.83, "intermolecular_energy": -9.32, "internal_energy": -1.9, "cluster_size": 32, "cluster_id": 1, "rank_in_cluster": 28}

>  <energy>  (62) 
-7.93

>  <cluster_rmsd>  (62) 
1.21

>  <cluster>  (62) 
1

$$$$

     RDKit          3D

 47 50  0  0  0  0  0  0  0  0999 V2000
  140.7790   71.7800  221.1230 O   0  0  0  0  0  0  0  0  0  0  0  0
  140.3170   72.3040  222.1920 C   0  0  0  0  0  0  0  0  0  0  0  0
  139.9530   73.6780  222.2420 N   0  0  0  0  0  0  0  0  0  0  0  0
  140.1030   74.5120  221.0650 C   0  0  0  0  0  0  0  0  0  0  0  0
  140.6510   75.8550  221.4410 C   0  0  0  0  0  0  0  0  0  0  0  0
  140.4530   76.2620  222.6140 O   0  0  0  0  0  0  0  0  0  0  0  0
  141.3630   76.5970  220.4600 N   0  0  0  0  0  0  0  0  0  0  0  0
  141.5690   76.2190  219.0540 C   0  0  0  0  0  0  0  0  0  0  0  0
  141.9600   77.4660  218.3370 C   0  0  0  0  0  0  0  0  0  0  0  0
  141.6530   78.5660  219.3300 C   0  0  0  0  0  0  0  0  0  0  0  0
  142.0180   77.8550  220.6410 C   0  0  1  0  0  0  0  0  0  0  0  0
  141.4650   78.6860  221.7400 C   0  0  0  0  0  0  0  0  0  0  0  0
  140.1460   79.1210  221.7030 C   0  0  0  0  0  0  0  0  0  0  0  0
  139.6300   79.8930  222.7240 C   0  0  0  0  0  0  0  0  0  0  0  0
  140.3700   80.2550  223.7920 N   0  0  0  0  0  0  0  0  0  0  0  0
  141.6400   79.8410  223.8350 C   0  0  0  0  0  0  0  0  0  0  0  0
  142.2020   79.0680  222.8400 C   0  0  0  0  0  0  0  0  0  0  0  0
  140.1520   71.4870  223.4100 C   0  0  0  0  0  0  0  0  0  0  0  0
  139.4640   70.2930  223.3170 C   0  0  0  0  0  0  0  0  0  0  0  0
  139.2530   69.4560  224.3930 C   0  0  0  0  0  0  0  0  0  0  0  0
  139.7810   69.8810  225.6140 C   0  0  0  0  0  0  0  0  0  0  0  0
  139.6310   69.1230  226.7650 C   0  0  0  0  0  0  0  0  0  0  0  0
  140.1460   69.5270  227.9790 C   0  0  0  0  0  0  0  0  0  0  0  0
  139.9800   68.7570  229.0870 F   0  0  0  0  0  0  0  0  0  0  0  0
  140.8350   70.7420  228.0270 C   0  0  0  0  0  0  0  0  0  0  0  0
  140.9940   71.5110  226.8940 C   0  0  0  0  0  0  0  0  0  0  0  0
  140.4710   71.0910  225.6830 C   0  0  0  0  0  0  0  0  0  0  0  0
  140.6490   71.8720  224.5980 N   0  0  0  0  0  0  0  0  0  0  0  0
  139.5730   74.1090  223.1230 H   0  0  0  0  0  0  0  0  0  0  0  0
  140.7925   74.0237  220.3606 H   0  0  0  0  0  0  0  0  0  0  0  0
  139.1169   74.6480  220.5968 H   0  0  0  0  0  0  0  0  0  0  0  0
  142.3687   75.4679  218.9750 H   0  0  0  0  0  0  0  0  0  0  0  0
  140.6585   75.7786  218.6215 H   0  0  0  0  0  0  0  0  0  0  0  0
  143.0306   77.4535  218.0849 H   0  0  0  0  0  0  0  0  0  0  0  0
  141.4264   77.5931  217.3835 H   0  0  0  0  0  0  0  0  0  0  0  0
  142.2785   79.4548  219.1603 H   0  0  0  0  0  0  0  0  0  0  0  0
  140.6250   78.9550  219.2858 H   0  0  0  0  0  0  0  0  0  0  0  0
  143.0822   77.7126  220.8803 H   0  0  0  0  0  0  0  0  0  0  0  0
  139.5063   78.8472  220.8510 H   0  0  0  0  0  0  0  0  0  0  0  0
  138.5825   80.2234  222.6649 H   0  0  0  0  0  0  0  0  0  0  0  0
  142.2609   80.1275  224.6966 H   0  0  0  0  0  0  0  0  0  0  0  0
  143.2523   78.7524  222.9258 H   0  0  0  0  0  0  0  0  0  0  0  0
  139.0646   69.9948  222.3364 H   0  0  0  0  0  0  0  0  0  0  0  0
  138.7013   68.5094  224.2950 H   0  0  0  0  0  0  0  0  0  0  0  0
  139.0844   68.1701  226.7083 H   0  0  0  0  0  0  0  0  0  0  0  0
  141.2562   71.0894  228.9819 H   0  0  0  0  0  0  0  0  0  0  0  0
  141.5398   72.4642  226.9525 H   0  0  0  0  0  0  0  0  0  0  0  0
  1  2  2  0
  2  3  1  0
  3  4  1  0
  4  5  1  0
  5  6  2  0
  5  7  1  0
  7  8  1  0
  8  9  1  0
  9 10  1  0
 10 11  1  0
 11 12  1  0
 12 13  2  0
 13 14  1  0
 14 15  2  0
 15 16  1  0
 16 17  2  0
  2 18  1  0
 18 19  2  0
 19 20  1  0
 20 21  2  0
 21 22  1  0
 22 23  2  0
 23 24  1  0
 23 25  1  0
 25 26  2  0
 26 27  1  0
 27 28  2  0
 11  7  1  0
 17 12  1  0
 28 18  1  0
 27 21  1  0
  3 29  1  0
  4 30  1  0
  4 31  1  0
  8 32  1  0
  8 33  1  0
  9 34  1  0
  9 35  1  0
 10 36  1  0
 10 37  1  0
 11 38  1  1
 13 39  1  0
 14 40  1  0
 16 41  1  0
 17 42  1  0
 19 43  1  0
 20 44  1  0
 22 45  1  0
 25 46  1  0
 26 47  1  0
M  END
>  <smiles>  (63) 
O=C(NCC(=O)N1CCCC1c1ccncc1)c1ccc2cc(F)ccc2n1

>  <score_type>  (63) 
oracle

>  <origin>  (63) 
autodockgpu

>  <m_score__min__energy>  (63) 
-8.2200000000000006

>  <m_primary>  (63) 
energy

>  <rmsd>  (63) 
1.7936123868964664

>  <m_score__min__rmsd>  (63) 
1.7936123868964664

>  <meeko>  (63) 
{"free_energy": -8.12, "intermolecular_energy": -9.61, "internal_energy": -1.5, "cluster_size": 12, "cluster_id": 2, "rank_in_cluster": 6}

>  <energy>  (63) 
-7.93

>  <cluster_rmsd>  (63) 
1.18

>  <cluster>  (63) 
1

$$$$

     RDKit          3D

 47 50  0  0  0  0  0  0  0  0999 V2000
  140.3820   71.4860  220.9840 O   0  0  0  0  0  0  0  0  0  0  0  0
  140.0830   72.0690  222.0800 C   0  0  0  0  0  0  0  0  0  0  0  0
  139.8480   73.4710  222.1300 N   0  0  0  0  0  0  0  0  0  0  0  0
  139.9470   74.2660  220.9200 C   0  0  0  0  0  0  0  0  0  0  0  0
  140.7940   75.4800  221.1590 C   0  0  0  0  0  0  0  0  0  0  0  0
  140.9370   75.8710  222.3460 O   0  0  0  0  0  0  0  0  0  0  0  0
  141.3900   76.1230  220.0410 N   0  0  0  0  0  0  0  0  0  0  0  0
  141.1150   77.4870  219.5660 C   0  0  0  0  0  0  0  0  0  0  0  0
  142.2570   77.8620  218.6850 C   0  0  0  0  0  0  0  0  0  0  0  0
  143.2900   76.7890  218.9540 C   0  0  0  0  0  0  0  0  0  0  0  0
  142.3710   75.5760  219.1560 C   0  0  1  0  0  0  0  0  0  0  0  0
  143.2100   74.5060  219.7520 C   0  0  0  0  0  0  0  0  0  0  0  0
  142.7660   73.1900  219.7730 C   0  0  0  0  0  0  0  0  0  0  0  0
  143.5440   72.1920  220.3260 C   0  0  0  0  0  0  0  0  0  0  0  0
  144.7560   72.4450  220.8620 N   0  0  0  0  0  0  0  0  0  0  0  0
  145.1900   73.7090  220.8450 C   0  0  0  0  0  0  0  0  0  0  0  0
  144.4500   74.7400  220.3060 C   0  0  0  0  0  0  0  0  0  0  0  0
  139.9740   71.2930  223.3300 C   0  0  0  0  0  0  0  0  0  0  0  0
  139.3680   70.0530  223.2880 C   0  0  0  0  0  0  0  0  0  0  0  0
  139.2160   69.2480  224.3980 C   0  0  0  0  0  0  0  0  0  0  0  0
  139.7150   69.7550  225.5990 C   0  0  0  0  0  0  0  0  0  0  0  0
  139.6190   69.0360  226.7800 C   0  0  0  0  0  0  0  0  0  0  0  0
  140.1060   69.5230  227.9740 C   0  0  0  0  0  0  0  0  0  0  0  0
  139.9950   68.7890  229.1130 F   0  0  0  0  0  0  0  0  0  0  0  0
  140.7130   70.7820  227.9710 C   0  0  0  0  0  0  0  0  0  0  0  0
  140.8180   71.5140  226.8070 C   0  0  0  0  0  0  0  0  0  0  0  0
  140.3230   71.0110  225.6160 C   0  0  0  0  0  0  0  0  0  0  0  0
  140.4460   71.7570  224.5000 N   0  0  0  0  0  0  0  0  0  0  0  0
  139.6030   73.9510  223.0330 H   0  0  0  0  0  0  0  0  0  0  0  0
  140.4013   73.6584  220.1235 H   0  0  0  0  0  0  0  0  0  0  0  0
  138.9384   74.5882  220.6217 H   0  0  0  0  0  0  0  0  0  0  0  0
  140.1729   77.5099  218.9986 H   0  0  0  0  0  0  0  0  0  0  0  0
  141.0112   78.1893  220.4062 H   0  0  0  0  0  0  0  0  0  0  0  0
  141.9538   77.8574  217.6276 H   0  0  0  0  0  0  0  0  0  0  0  0
  142.6345   78.8753  218.8870 H   0  0  0  0  0  0  0  0  0  0  0  0
  143.9664   76.6502  218.0977 H   0  0  0  0  0  0  0  0  0  0  0  0
  143.9684   77.0002  219.7937 H   0  0  0  0  0  0  0  0  0  0  0  0
  141.8957   75.1263  218.2718 H   0  0  0  0  0  0  0  0  0  0  0  0
  141.7842   72.9401  219.3445 H   0  0  0  0  0  0  0  0  0  0  0  0
  143.1641   71.1597  220.3296 H   0  0  0  0  0  0  0  0  0  0  0  0
  146.1756   73.9355  221.2777 H   0  0  0  0  0  0  0  0  0  0  0  0
  144.8547   75.7628  220.3183 H   0  0  0  0  0  0  0  0  0  0  0  0
  138.9878   69.6892  222.3221 H   0  0  0  0  0  0  0  0  0  0  0  0
  138.7295   68.2631  224.3399 H   0  0  0  0  0  0  0  0  0  0  0  0
  139.1394   68.0462  226.7640 H   0  0  0  0  0  0  0  0  0  0  0  0
  141.1122   71.1944  228.9094 H   0  0  0  0  0  0  0  0  0  0  0  0
  141.2980   72.5036  226.8250 H   0  0  0  0  0  0  0  0  0  0  0  0
  1  2  2  0
  2  3  1  0
  3  4  1  0
  4  5  1  0
  5  6  2  0
  5  7  1  0
  7  8  1  0
  8  9  1  0
  9 10  1  0
 10 11  1  0
 11 12  1  0
 12 13  2  0
 13 14  1  0
 14 15  2  0
 15 16  1  0
 16 17  2  0
  2 18  1  0
 18 19  2  0
 19 20  1  0
 20 21  2  0
 21 22  1  0
 22 23  2  0
 23 24  1  0
 23 25  1  0
 25 26  2  0
 26 27  1  0
 27 28  2  0
 11  7  1  0
 17 12  1  0
 28 18  1  0
 27 21  1  0
  3 29  1  0
  4 30  1  0
  4 31  1  0
  8 32  1  0
  8 33  1  0
  9 34  1  0
  9 35  1  0
 10 36  1  0
 10 37  1  0
 11 38  1  6
 13 39  1  0
 14 40  1  0
 16 41  1  0
 17 42  1  0
 19 43  1  0
 20 44  1  0
 22 45  1  0
 25 46  1  0
 26 47  1  0
M  END
>  <smiles>  (64) 
O=C(NCC(=O)N1CCCC1c1ccncc1)c1ccc2cc(F)ccc2n1

>  <score_type>  (64) 
oracle

>  <origin>  (64) 
autodockgpu

>  <m_score__min__energy>  (64) 
-8.2200000000000006

>  <m_primary>  (64) 
energy

>  <rmsd>  (64) 
2.033565411644039

>  <m_score__min__rmsd>  (64) 
2.033565411644039

>  <meeko>  (64) 
{"free_energy": -7.88, "intermolecular_energy": -9.37, "internal_energy": -1.88, "cluster_size": 32, "cluster_id": 1, "rank_in_cluster": 26}

>  <energy>  (64) 
-7.93

>  <cluster_rmsd>  (64) 
1.19

>  <cluster>  (64) 
1

$$$$

     RDKit          3D

 47 50  0  0  0  0  0  0  0  0999 V2000
  134.7070   68.5090  224.8710 O   0  0  0  0  0  0  0  0  0  0  0  0
  135.2260   69.6760  224.9060 C   0  0  0  0  0  0  0  0  0  0  0  0
  136.4970   69.9370  224.3230 N   0  0  0  0  0  0  0  0  0  0  0  0
  137.2290   68.8680  223.6710 C   0  0  0  0  0  0  0  0  0  0  0  0
  138.5830   68.7070  224.2920 C   0  0  0  0  0  0  0  0  0  0  0  0
  138.8380   67.6200  224.8720 O   0  0  0  0  0  0  0  0  0  0  0  0
  139.5060   69.7840  224.1980 N   0  0  0  0  0  0  0  0  0  0  0  0
  139.4950   70.8620  223.1980 C   0  0  0  0  0  0  0  0  0  0  0  0
  140.3420   71.9560  223.7520 C   0  0  0  0  0  0  0  0  0  0  0  0
  140.5450   71.5590  225.1990 C   0  0  0  0  0  0  0  0  0  0  0  0
  140.6260   70.0340  225.0510 C   0  0  1  0  0  0  0  0  0  0  0  0
  140.4980   69.4690  226.4180 C   0  0  0  0  0  0  0  0  0  0  0  0
  141.1920   68.3210  226.7760 C   0  0  0  0  0  0  0  0  0  0  0  0
  141.0740   67.7940  228.0470 C   0  0  0  0  0  0  0  0  0  0  0  0
  140.2930   68.3630  228.9880 N   0  0  0  0  0  0  0  0  0  0  0  0
  139.6220   69.4690  228.6510 C   0  0  0  0  0  0  0  0  0  0  0  0
  139.7060   70.0330  227.3950 C   0  0  0  0  0  0  0  0  0  0  0  0
  134.5100   70.7880  225.5610 C   0  0  0  0  0  0  0  0  0  0  0  0
  133.5460   70.4910  226.5030 C   0  0  0  0  0  0  0  0  0  0  0  0
  132.8190   71.4540  227.1730 C   0  0  0  0  0  0  0  0  0  0  0  0
  133.1110   72.7800  226.8470 C   0  0  0  0  0  0  0  0  0  0  0  0
  132.4450   73.8330  227.4540 C   0  0  0  0  0  0  0  0  0  0  0  0
  132.7200   75.1480  227.1440 C   0  0  0  0  0  0  0  0  0  0  0  0
  132.0480   76.1560  227.7610 F   0  0  0  0  0  0  0  0  0  0  0  0
  133.7050   75.4040  226.1850 C   0  0  0  0  0  0  0  0  0  0  0  0
  134.3770   74.3700  225.5690 C   0  0  0  0  0  0  0  0  0  0  0  0
  134.0890   73.0550  225.8910 C   0  0  0  0  0  0  0  0  0  0  0  0
  134.7700   72.0740  225.2660 N   0  0  0  0  0  0  0  0  0  0  0  0
  136.9230   70.8980  224.3530 H   0  0  0  0  0  0  0  0  0  0  0  0
  136.6679   67.9278  223.7765 H   0  0  0  0  0  0  0  0  0  0  0  0
  137.3522   69.1176  222.6068 H   0  0  0  0  0  0  0  0  0  0  0  0
  139.9123   70.5024  222.2459 H   0  0  0  0  0  0  0  0  0  0  0  0
  138.4712   71.2114  222.9984 H   0  0  0  0  0  0  0  0  0  0  0  0
  141.3045   72.0126  223.2226 H   0  0  0  0  0  0  0  0  0  0  0  0
  139.8792   72.9481  223.6443 H   0  0  0  0  0  0  0  0  0  0  0  0
  141.4748   71.9787  225.6104 H   0  0  0  0  0  0  0  0  0  0  0  0
  139.7668   71.9157  225.8897 H   0  0  0  0  0  0  0  0  0  0  0  0
  141.5446   69.5972  224.6321 H   0  0  0  0  0  0  0  0  0  0  0  0
  141.8425   67.8262  226.0397 H   0  0  0  0  0  0  0  0  0  0  0  0
  141.6344   66.8818  228.2998 H   0  0  0  0  0  0  0  0  0  0  0  0
  138.9784   69.9475  229.4039 H   0  0  0  0  0  0  0  0  0  0  0  0
  139.1334   70.9449  227.1701 H   0  0  0  0  0  0  0  0  0  0  0  0
  133.3471   69.4335  226.7313 H   0  0  0  0  0  0  0  0  0  0  0  0
  132.0547   71.1924  227.9197 H   0  0  0  0  0  0  0  0  0  0  0  0
  131.6732   73.6128  228.2063 H   0  0  0  0  0  0  0  0  0  0  0  0
  133.9466   76.4436  225.9188 H   0  0  0  0  0  0  0  0  0  0  0  0
  135.1477   74.5915  224.8161 H   0  0  0  0  0  0  0  0  0  0  0  0
  1  2  2  0
  2  3  1  0
  3  4  1  0
  4  5  1  0
  5  6  2  0
  5  7  1  0
  7  8  1  0
  8  9  1  0
  9 10  1  0
 10 11  1  0
 11 12  1  0
 12 13  2  0
 13 14  1  0
 14 15  2  0
 15 16  1  0
 16 17  2  0
  2 18  1  0
 18 19  2  0
 19 20  1  0
 20 21  2  0
 21 22  1  0
 22 23  2  0
 23 24  1  0
 23 25  1  0
 25 26  2  0
 26 27  1  0
 27 28  2  0
 11  7  1  0
 17 12  1  0
 28 18  1  0
 27 21  1  0
  3 29  1  0
  4 30  1  0
  4 31  1  0
  8 32  1  0
  8 33  1  0
  9 34  1  0
  9 35  1  0
 10 36  1  0
 10 37  1  0
 11 38  1  6
 13 39  1  0
 14 40  1  0
 16 41  1  0
 17 42  1  0
 19 43  1  0
 20 44  1  0
 22 45  1  0
 25 46  1  0
 26 47  1  0
M  END
>  <smiles>  (65) 
O=C(NCC(=O)N1CCCC1c1ccncc1)c1ccc2cc(F)ccc2n1

>  <score_type>  (65) 
oracle

>  <origin>  (65) 
autodockgpu

>  <m_score__min__energy>  (65) 
-8.2200000000000006

>  <m_primary>  (65) 
energy

>  <rmsd>  (65) 
7.567263698657051

>  <m_score__min__rmsd>  (65) 
7.567263698657051

>  <meeko>  (65) 
{"free_energy": -7.92, "intermolecular_energy": -9.41, "internal_energy": -1.57, "cluster_size": 4, "cluster_id": 3, "rank_in_cluster": 2}

>  <energy>  (65) 
-7.93

>  <cluster_rmsd>  (65) 
1.2

>  <cluster>  (65) 
1

$$$$

     RDKit          3D

 47 50  0  0  0  0  0  0  0  0999 V2000
  138.2730   70.7810  221.2300 O   0  0  0  0  0  0  0  0  0  0  0  0
  138.5690   71.4810  222.2560 C   0  0  0  0  0  0  0  0  0  0  0  0
  138.4720   72.9000  222.2350 N   0  0  0  0  0  0  0  0  0  0  0  0
  138.0290   73.5790  221.0320 C   0  0  0  0  0  0  0  0  0  0  0  0
  139.1960   73.8790  220.1410 C   0  0  0  0  0  0  0  0  0  0  0  0
  138.9790   74.5390  219.0920 O   0  0  0  0  0  0  0  0  0  0  0  0
  140.4810   73.4060  220.5220 N   0  0  0  0  0  0  0  0  0  0  0  0
  141.0830   72.1150  220.1570 C   0  0  0  0  0  0  0  0  0  0  0  0
  142.5480   72.2530  220.3940 C   0  0  0  0  0  0  0  0  0  0  0  0
  142.7440   73.7410  220.5940 C   0  0  0  0  0  0  0  0  0  0  0  0
  141.4430   74.0860  221.3320 C   0  0  1  0  0  0  0  0  0  0  0  0
  141.3280   75.5660  221.3140 C   0  0  0  0  0  0  0  0  0  0  0  0
  141.8760   76.3050  220.2730 C   0  0  0  0  0  0  0  0  0  0  0  0
  141.7700   77.6810  220.2540 C   0  0  0  0  0  0  0  0  0  0  0  0
  141.1360   78.3640  221.2300 N   0  0  0  0  0  0  0  0  0  0  0  0
  140.6060   77.6600  222.2340 C   0  0  0  0  0  0  0  0  0  0  0  0
  140.6860   76.2840  222.2990 C   0  0  0  0  0  0  0  0  0  0  0  0
  139.0240   70.8250  223.4970 C   0  0  0  0  0  0  0  0  0  0  0  0
  138.8230   69.4660  223.6390 C   0  0  0  0  0  0  0  0  0  0  0  0
  139.2100   68.7570  224.7580 C   0  0  0  0  0  0  0  0  0  0  0  0
  139.8310   69.4940  225.7680 C   0  0  0  0  0  0  0  0  0  0  0  0
  140.2620   68.8900  226.9390 C   0  0  0  0  0  0  0  0  0  0  0  0
  140.8760   69.6030  227.9470 C   0  0  0  0  0  0  0  0  0  0  0  0
  141.2870   68.9760  229.0810 F   0  0  0  0  0  0  0  0  0  0  0  0
  141.0590   70.9760  227.7610 C   0  0  0  0  0  0  0  0  0  0  0  0
  140.6370   71.5960  226.6040 C   0  0  0  0  0  0  0  0  0  0  0  0
  140.0210   70.8660  225.6020 C   0  0  0  0  0  0  0  0  0  0  0  0
  139.6240   71.5100  224.4860 N   0  0  0  0  0  0  0  0  0  0  0  0
  138.7170   73.4750  223.0810 H   0  0  0  0  0  0  0  0  0  0  0  0
  137.3180   72.9352  220.4935 H   0  0  0  0  0  0  0  0  0  0  0  0
  137.5437   74.5248  221.3146 H   0  0  0  0  0  0  0  0  0  0  0  0
  140.6699   71.3115  220.7845 H   0  0  0  0  0  0  0  0  0  0  0  0
  140.8707   71.8576  219.1088 H   0  0  0  0  0  0  0  0  0  0  0  0
  142.8542   71.6936  221.2903 H   0  0  0  0  0  0  0  0  0  0  0  0
  143.1520   71.8522  219.5666 H   0  0  0  0  0  0  0  0  0  0  0  0
  143.6309   73.9568  221.2079 H   0  0  0  0  0  0  0  0  0  0  0  0
  142.9179   74.3130  219.6707 H   0  0  0  0  0  0  0  0  0  0  0  0
  141.3462   73.7907  222.3872 H   0  0  0  0  0  0  0  0  0  0  0  0
  142.3998   75.7881  219.4554 H   0  0  0  0  0  0  0  0  0  0  0  0
  142.2163   78.2383  219.4172 H   0  0  0  0  0  0  0  0  0  0  0  0
  140.0857   78.1980  223.0401 H   0  0  0  0  0  0  0  0  0  0  0  0
  140.2312   75.7534  223.1485 H   0  0  0  0  0  0  0  0  0  0  0  0
  138.3301   68.9219  222.8198 H   0  0  0  0  0  0  0  0  0  0  0  0
  139.0391   67.6742  224.8488 H   0  0  0  0  0  0  0  0  0  0  0  0
  140.1094   67.8083  227.0681 H   0  0  0  0  0  0  0  0  0  0  0  0
  141.5463   71.5700  228.5482 H   0  0  0  0  0  0  0  0  0  0  0  0
  140.7908   72.6777  226.4763 H   0  0  0  0  0  0  0  0  0  0  0  0
  1  2  2  0
  2  3  1  0
  3  4  1  0
  4  5  1  0
  5  6  2  0
  5  7  1  0
  7  8  1  0
  8  9  1  0
  9 10  1  0
 10 11  1  0
 11 12  1  0
 12 13  2  0
 13 14  1  0
 14 15  2  0
 15 16  1  0
 16 17  2  0
  2 18  1  0
 18 19  2  0
 19 20  1  0
 20 21  2  0
 21 22  1  0
 22 23  2  0
 23 24  1  0
 23 25  1  0
 25 26  2  0
 26 27  1  0
 27 28  2  0
 11  7  1  0
 17 12  1  0
 28 18  1  0
 27 21  1  0
  3 29  1  0
  4 30  1  0
  4 31  1  0
  8 32  1  0
  8 33  1  0
  9 34  1  0
  9 35  1  0
 10 36  1  0
 10 37  1  0
 11 38  1  1
 13 39  1  0
 14 40  1  0
 16 41  1  0
 17 42  1  0
 19 43  1  0
 20 44  1  0
 22 45  1  0
 25 46  1  0
 26 47  1  0
M  END
>  <smiles>  (66) 
O=C(NCC(=O)N1CCCC1c1ccncc1)c1ccc2cc(F)ccc2n1

>  <score_type>  (66) 
oracle

>  <origin>  (66) 
autodockgpu

>  <m_score__min__energy>  (66) 
-8.2200000000000006

>  <m_primary>  (66) 
energy

>  <rmsd>  (66) 
2.543183642779955

>  <m_score__min__rmsd>  (66) 
2.543183642779955

>  <meeko>  (66) 
{"free_energy": -6.53, "intermolecular_energy": -8.02, "internal_energy": -1.94, "cluster_size": 12, "cluster_id": 2, "rank_in_cluster": 12}

>  <energy>  (66) 
-7.92

>  <cluster_rmsd>  (66) 
1.21

>  <cluster>  (66) 
1

$$$$

     RDKit          3D

 47 50  0  0  0  0  0  0  0  0999 V2000
  141.2320   72.0740  221.4820 O   0  0  0  0  0  0  0  0  0  0  0  0
  140.3650   72.3730  222.3720 C   0  0  0  0  0  0  0  0  0  0  0  0
  139.5530   73.5340  222.2520 N   0  0  0  0  0  0  0  0  0  0  0  0
  139.7000   74.4060  221.1010 C   0  0  0  0  0  0  0  0  0  0  0  0
  140.2720   75.7280  221.5160 C   0  0  0  0  0  0  0  0  0  0  0  0
  139.9670   76.1680  222.6540 O   0  0  0  0  0  0  0  0  0  0  0  0
  141.1230   76.4150  220.6080 N   0  0  0  0  0  0  0  0  0  0  0  0
  141.4530   76.0050  219.2360 C   0  0  0  0  0  0  0  0  0  0  0  0
  141.9870   77.2170  218.5530 C   0  0  0  0  0  0  0  0  0  0  0  0
  141.6410   78.3480  219.4990 C   0  0  0  0  0  0  0  0  0  0  0  0
  141.8260   77.6370  220.8460 C   0  0  1  0  0  0  0  0  0  0  0  0
  141.2090   78.5130  221.8740 C   0  0  0  0  0  0  0  0  0  0  0  0
  141.8290   78.7070  223.1020 C   0  0  0  0  0  0  0  0  0  0  0  0
  141.2570   79.5210  224.0590 C   0  0  0  0  0  0  0  0  0  0  0  0
  140.0880   80.1600  223.8490 N   0  0  0  0  0  0  0  0  0  0  0  0
  139.4860   79.9790  222.6700 C   0  0  0  0  0  0  0  0  0  0  0  0
  140.0160   79.1750  221.6820 C   0  0  0  0  0  0  0  0  0  0  0  0
  140.1880   71.5100  223.5560 C   0  0  0  0  0  0  0  0  0  0  0  0
  139.4980   70.3230  223.4130 C   0  0  0  0  0  0  0  0  0  0  0  0
  139.2770   69.4460  224.4550 C   0  0  0  0  0  0  0  0  0  0  0  0
  139.7960   69.8220  225.6950 C   0  0  0  0  0  0  0  0  0  0  0  0
  139.6360   69.0210  226.8150 C   0  0  0  0  0  0  0  0  0  0  0  0
  140.1420   69.3770  228.0470 C   0  0  0  0  0  0  0  0  0  0  0  0
  139.9670   68.5660  229.1240 F   0  0  0  0  0  0  0  0  0  0  0  0
  140.8340   70.5870  228.1470 C   0  0  0  0  0  0  0  0  0  0  0  0
  141.0040   71.3980  227.0450 C   0  0  0  0  0  0  0  0  0  0  0  0
  140.4890   71.0260  225.8150 C   0  0  0  0  0  0  0  0  0  0  0  0
  140.6770   71.8480  224.7620 N   0  0  0  0  0  0  0  0  0  0  0  0
  138.8400   73.7800  222.9850 H   0  0  0  0  0  0  0  0  0  0  0  0
  140.3736   73.9327  220.3715 H   0  0  0  0  0  0  0  0  0  0  0  0
  138.7103   74.5714  220.6502 H   0  0  0  0  0  0  0  0  0  0  0  0
  142.2126   75.2095  219.2487 H   0  0  0  0  0  0  0  0  0  0  0  0
  140.5693   75.6093  218.7140 H   0  0  0  0  0  0  0  0  0  0  0  0
  143.0756   77.1411  218.4148 H   0  0  0  0  0  0  0  0  0  0  0  0
  141.5639   77.3594  217.5476 H   0  0  0  0  0  0  0  0  0  0  0  0
  142.3305   79.1979  219.3882 H   0  0  0  0  0  0  0  0  0  0  0  0
  140.6473   78.7935  219.3436 H   0  0  0  0  0  0  0  0  0  0  0  0
  142.8497   77.4392  221.1966 H   0  0  0  0  0  0  0  0  0  0  0  0
  142.7855   78.2068  223.3139 H   0  0  0  0  0  0  0  0  0  0  0  0
  141.7706   79.6526  225.0228 H   0  0  0  0  0  0  0  0  0  0  0  0
  138.5310   80.4907  222.4798 H   0  0  0  0  0  0  0  0  0  0  0  0
  139.4792   79.0610  220.7287 H   0  0  0  0  0  0  0  0  0  0  0  0
  139.1049   70.0634  222.4190 H   0  0  0  0  0  0  0  0  0  0  0  0
  138.7240   68.5053  224.3166 H   0  0  0  0  0  0  0  0  0  0  0  0
  139.0884   68.0720  226.7177 H   0  0  0  0  0  0  0  0  0  0  0  0
  141.2486   70.8965  229.1178 H   0  0  0  0  0  0  0  0  0  0  0  0
  141.5522   72.3465  227.1438 H   0  0  0  0  0  0  0  0  0  0  0  0
  1  2  2  0
  2  3  1  0
  3  4  1  0
  4  5  1  0
  5  6  2  0
  5  7  1  0
  7  8  1  0
  8  9  1  0
  9 10  1  0
 10 11  1  0
 11 12  1  0
 12 13  2  0
 13 14  1  0
 14 15  2  0
 15 16  1  0
 16 17  2  0
  2 18  1  0
 18 19  2  0
 19 20  1  0
 20 21  2  0
 21 22  1  0
 22 23  2  0
 23 24  1  0
 23 25  1  0
 25 26  2  0
 26 27  1  0
 27 28  2  0
 11  7  1  0
 17 12  1  0
 28 18  1  0
 27 21  1  0
  3 29  1  0
  4 30  1  0
  4 31  1  0
  8 32  1  0
  8 33  1  0
  9 34  1  0
  9 35  1  0
 10 36  1  0
 10 37  1  0
 11 38  1  1
 13 39  1  0
 14 40  1  0
 16 41  1  0
 17 42  1  0
 19 43  1  0
 20 44  1  0
 22 45  1  0
 25 46  1  0
 26 47  1  0
M  END
>  <smiles>  (67) 
O=C(NCC(=O)N1CCCC1c1ccncc1)c1ccc2cc(F)ccc2n1

>  <score_type>  (67) 
oracle

>  <origin>  (67) 
autodockgpu

>  <m_score__min__energy>  (67) 
-8.2200000000000006

>  <m_primary>  (67) 
energy

>  <rmsd>  (67) 
1.7141314509642065

>  <m_score__min__rmsd>  (67) 
1.7141314509642065

>  <meeko>  (67) 
{"free_energy": -8.19, "intermolecular_energy": -9.68, "internal_energy": -1.28, "cluster_size": 12, "cluster_id": 2, "rank_in_cluster": 2}

>  <energy>  (67) 
-7.92

>  <cluster_rmsd>  (67) 
1.17

>  <cluster>  (67) 
1

$$$$

     RDKit          3D

 47 50  0  0  0  0  0  0  0  0999 V2000
  139.6140   73.0440  222.6270 O   0  0  0  0  0  0  0  0  0  0  0  0
  139.7280   71.7750  222.7090 C   0  0  0  0  0  0  0  0  0  0  0  0
  139.5370   70.9410  221.5720 N   0  0  0  0  0  0  0  0  0  0  0  0
  139.2050   71.5310  220.2890 C   0  0  0  0  0  0  0  0  0  0  0  0
  140.3020   72.4470  219.8350 C   0  0  0  0  0  0  0  0  0  0  0  0
  139.9840   73.4370  219.1280 O   0  0  0  0  0  0  0  0  0  0  0  0
  141.6370   72.1520  220.2220 N   0  0  0  0  0  0  0  0  0  0  0  0
  142.3550   70.8880  220.0000 C   0  0  0  0  0  0  0  0  0  0  0  0
  143.8040   71.1960  220.1610 C   0  0  0  0  0  0  0  0  0  0  0  0
  143.8560   72.7090  220.1640 C   0  0  0  0  0  0  0  0  0  0  0  0
  142.5460   73.0200  220.9030 C   0  0  1  0  0  0  0  0  0  0  0  0
  142.2830   74.4680  220.7030 C   0  0  0  0  0  0  0  0  0  0  0  0
  141.3170   75.1210  221.4580 C   0  0  0  0  0  0  0  0  0  0  0  0
  141.0710   76.4670  221.2750 C   0  0  0  0  0  0  0  0  0  0  0  0
  141.7480   77.2010  220.3680 N   0  0  0  0  0  0  0  0  0  0  0  0
  142.6790   76.5790  219.6380 C   0  0  0  0  0  0  0  0  0  0  0  0
  142.9620   75.2370  219.7830 C   0  0  0  0  0  0  0  0  0  0  0  0
  140.0640   71.1400  223.9980 C   0  0  0  0  0  0  0  0  0  0  0  0
  140.6790   71.9020  224.9710 C   0  0  0  0  0  0  0  0  0  0  0  0
  141.0350   71.4060  226.2080 C   0  0  0  0  0  0  0  0  0  0  0  0
  140.7370   70.0630  226.4410 C   0  0  0  0  0  0  0  0  0  0  0  0
  141.0480   69.4540  227.6460 C   0  0  0  0  0  0  0  0  0  0  0  0
  140.7610   68.1280  227.8920 C   0  0  0  0  0  0  0  0  0  0  0  0
  141.0790   67.5650  229.0890 F   0  0  0  0  0  0  0  0  0  0  0  0
  140.1370   67.3940  226.8800 C   0  0  0  0  0  0  0  0  0  0  0  0
  139.8200   67.9800  225.6730 C   0  0  0  0  0  0  0  0  0  0  0  0
  140.1160   69.3120  225.4420 C   0  0  0  0  0  0  0  0  0  0  0  0
  139.7890   69.8480  224.2480 N   0  0  0  0  0  0  0  0  0  0  0  0
  139.6300   69.8960  221.6400 H   0  0  0  0  0  0  0  0  0  0  0  0
  139.0703   70.7309  219.5462 H   0  0  0  0  0  0  0  0  0  0  0  0
  138.2761   72.1110  220.3928 H   0  0  0  0  0  0  0  0  0  0  0  0
  142.0409   70.1366  220.7395 H   0  0  0  0  0  0  0  0  0  0  0  0
  142.1421   70.4773  219.0020 H   0  0  0  0  0  0  0  0  0  0  0  0
  144.1878   70.7893  221.1082 H   0  0  0  0  0  0  0  0  0  0  0  0
  144.4230   70.7516  219.3677 H   0  0  0  0  0  0  0  0  0  0  0  0
  144.7326   73.0862  220.7110 H   0  0  0  0  0  0  0  0  0  0  0  0
  143.9480   73.1712  219.1700 H   0  0  0  0  0  0  0  0  0  0  0  0
  142.5062   72.8555  221.9899 H   0  0  0  0  0  0  0  0  0  0  0  0
  140.7422   74.5598  222.2094 H   0  0  0  0  0  0  0  0  0  0  0  0
  140.2992   76.9560  221.8876 H   0  0  0  0  0  0  0  0  0  0  0  0
  143.2415   77.1602  218.8924 H   0  0  0  0  0  0  0  0  0  0  0  0
  143.7392   74.7749  219.1566 H   0  0  0  0  0  0  0  0  0  0  0  0
  140.8960   72.9573  224.7489 H   0  0  0  0  0  0  0  0  0  0  0  0
  141.5256   72.0331  226.9670 H   0  0  0  0  0  0  0  0  0  0  0  0
  141.5394   70.0471  228.4313 H   0  0  0  0  0  0  0  0  0  0  0  0
  139.8954   66.3342  227.0486 H   0  0  0  0  0  0  0  0  0  0  0  0
  139.3288   67.3852  224.8888 H   0  0  0  0  0  0  0  0  0  0  0  0
  1  2  2  0
  2  3  1  0
  3  4  1  0
  4  5  1  0
  5  6  2  0
  5  7  1  0
  7  8  1  0
  8  9  1  0
  9 10  1  0
 10 11  1  0
 11 12  1  0
 12 13  2  0
 13 14  1  0
 14 15  2  0
 15 16  1  0
 16 17  2  0
  2 18  1  0
 18 19  2  0
 19 20  1  0
 20 21  2  0
 21 22  1  0
 22 23  2  0
 23 24  1  0
 23 25  1  0
 25 26  2  0
 26 27  1  0
 27 28  2  0
 11  7  1  0
 17 12  1  0
 28 18  1  0
 27 21  1  0
  3 29  1  0
  4 30  1  0
  4 31  1  0
  8 32  1  0
  8 33  1  0
  9 34  1  0
  9 35  1  0
 10 36  1  0
 10 37  1  0
 11 38  1  1
 13 39  1  0
 14 40  1  0
 16 41  1  0
 17 42  1  0
 19 43  1  0
 20 44  1  0
 22 45  1  0
 25 46  1  0
 26 47  1  0
M  END
>  <smiles>  (68) 
O=C(NCC(=O)N1CCCC1c1ccncc1)c1ccc2cc(F)ccc2n1

>  <score_type>  (68) 
oracle

>  <origin>  (68) 
autodockgpu

>  <m_score__min__energy>  (68) 
-8.2200000000000006

>  <m_primary>  (68) 
energy

>  <rmsd>  (68) 
4.088661835387906

>  <m_score__min__rmsd>  (68) 
4.088661835387906

>  <meeko>  (68) 
{"free_energy": -6.71, "intermolecular_energy": -8.2, "internal_energy": -1.93, "cluster_size": 1, "cluster_id": 4, "rank_in_cluster": 1}

>  <energy>  (68) 
-7.91

>  <cluster_rmsd>  (68) 
1.21

>  <cluster>  (68) 
1

$$$$

     RDKit          3D

 47 50  0  0  0  0  0  0  0  0999 V2000
  139.2520   71.2870  221.1100 O   0  0  0  0  0  0  0  0  0  0  0  0
  139.4170   71.8600  222.2400 C   0  0  0  0  0  0  0  0  0  0  0  0
  139.4670   73.2770  222.3500 N   0  0  0  0  0  0  0  0  0  0  0  0
  139.3280   74.1010  221.1640 C   0  0  0  0  0  0  0  0  0  0  0  0
  140.1820   75.3280  221.2770 C   0  0  0  0  0  0  0  0  0  0  0  0
  140.8270   75.4980  222.3430 O   0  0  0  0  0  0  0  0  0  0  0  0
  140.2190   76.2330  220.1810 N   0  0  0  0  0  0  0  0  0  0  0  0
  139.7250   75.9800  218.8200 C   0  0  0  0  0  0  0  0  0  0  0  0
  139.5690   77.3160  218.1760 C   0  0  0  0  0  0  0  0  0  0  0  0
  139.6920   78.2900  219.3290 C   0  0  0  0  0  0  0  0  0  0  0  0
  140.7400   77.5640  220.1830 C   0  0  1  0  0  0  0  0  0  0  0  0
  140.7340   78.2270  221.5120 C   0  0  0  0  0  0  0  0  0  0  0  0
  139.5410   78.4470  222.1870 C   0  0  0  0  0  0  0  0  0  0  0  0
  139.5330   79.0630  223.4220 C   0  0  0  0  0  0  0  0  0  0  0  0
  140.6680   79.4730  224.0240 N   0  0  0  0  0  0  0  0  0  0  0  0
  141.8210   79.2650  223.3810 C   0  0  0  0  0  0  0  0  0  0  0  0
  141.8810   78.6550  222.1450 C   0  0  0  0  0  0  0  0  0  0  0  0
  139.5630   71.0530  223.4670 C   0  0  0  0  0  0  0  0  0  0  0  0
  139.1210   69.7450  223.4570 C   0  0  0  0  0  0  0  0  0  0  0  0
  139.2100   68.9070  224.5490 C   0  0  0  0  0  0  0  0  0  0  0  0
  139.7830   69.4550  225.6980 C   0  0  0  0  0  0  0  0  0  0  0  0
  139.9250   68.7090  226.8570 C   0  0  0  0  0  0  0  0  0  0  0  0
  140.4890   69.2340  228.0010 C   0  0  0  0  0  0  0  0  0  0  0  0
  140.6130   68.4710  229.1200 F   0  0  0  0  0  0  0  0  0  0  0  0
  140.9240   70.5620  227.9680 C   0  0  0  0  0  0  0  0  0  0  0  0
  140.7910   71.3210  226.8250 C   0  0  0  0  0  0  0  0  0  0  0  0
  140.2220   70.7790  225.6850 C   0  0  0  0  0  0  0  0  0  0  0  0
  140.1110   71.5550  224.5880 N   0  0  0  0  0  0  0  0  0  0  0  0
  139.6040   73.7470  223.2800 H   0  0  0  0  0  0  0  0  0  0  0  0
  139.6399   73.5223  220.2820 H   0  0  0  0  0  0  0  0  0  0  0  0
  138.2761   74.4065  221.0631 H   0  0  0  0  0  0  0  0  0  0  0  0
  140.4483   75.3693  218.2597 H   0  0  0  0  0  0  0  0  0  0  0  0
  138.7723   75.4304  218.8363 H   0  0  0  0  0  0  0  0  0  0  0  0
  140.3611   77.4873  217.4322 H   0  0  0  0  0  0  0  0  0  0  0  0
  138.6178   77.4178  217.6331 H   0  0  0  0  0  0  0  0  0  0  0  0
  140.0496   79.2750  218.9945 H   0  0  0  0  0  0  0  0  0  0  0  0
  138.7482   78.5149  219.8472 H   0  0  0  0  0  0  0  0  0  0  0  0
  141.7875   77.5756  219.8474 H   0  0  0  0  0  0  0  0  0  0  0  0
  138.5918   78.1269  221.7326 H   0  0  0  0  0  0  0  0  0  0  0  0
  138.5713   79.2245  223.9309 H   0  0  0  0  0  0  0  0  0  0  0  0
  142.7578   79.5926  223.8553 H   0  0  0  0  0  0  0  0  0  0  0  0
  142.8567   78.5084  221.6586 H   0  0  0  0  0  0  0  0  0  0  0  0
  138.6754   69.3514  222.5315 H   0  0  0  0  0  0  0  0  0  0  0  0
  138.8506   67.8679  224.5164 H   0  0  0  0  0  0  0  0  0  0  0  0
  139.5771   67.6655  226.8650 H   0  0  0  0  0  0  0  0  0  0  0  0
  141.3782   71.0071  228.8656 H   0  0  0  0  0  0  0  0  0  0  0  0
  141.1393   72.3644  226.8185 H   0  0  0  0  0  0  0  0  0  0  0  0
  1  2  2  0
  2  3  1  0
  3  4  1  0
  4  5  1  0
  5  6  2  0
  5  7  1  0
  7  8  1  0
  8  9  1  0
  9 10  1  0
 10 11  1  0
 11 12  1  0
 12 13  2  0
 13 14  1  0
 14 15  2  0
 15 16  1  0
 16 17  2  0
  2 18  1  0
 18 19  2  0
 19 20  1  0
 20 21  2  0
 21 22  1  0
 22 23  2  0
 23 24  1  0
 23 25  1  0
 25 26  2  0
 26 27  1  0
 27 28  2  0
 11  7  1  0
 17 12  1  0
 28 18  1  0
 27 21  1  0
  3 29  1  0
  4 30  1  0
  4 31  1  0
  8 32  1  0
  8 33  1  0
  9 34  1  0
  9 35  1  0
 10 36  1  0
 10 37  1  0
 11 38  1  6
 13 39  1  0
 14 40  1  0
 16 41  1  0
 17 42  1  0
 19 43  1  0
 20 44  1  0
 22 45  1  0
 25 46  1  0
 26 47  1  0
M  END
>  <smiles>  (69) 
O=C(NCC(=O)N1CCCC1c1ccncc1)c1ccc2cc(F)ccc2n1

>  <score_type>  (69) 
oracle

>  <origin>  (69) 
autodockgpu

>  <m_score__min__energy>  (69) 
-8.2200000000000006

>  <m_primary>  (69) 
energy

>  <rmsd>  (69) 
1.1170430704150702

>  <m_score__min__rmsd>  (69) 
1.1170430704150702

>  <meeko>  (69) 
{"free_energy": -7.32, "intermolecular_energy": -8.81, "internal_energy": -1.75, "cluster_size": 12, "cluster_id": 2, "rank_in_cluster": 11}

>  <energy>  (69) 
-7.91

>  <cluster_rmsd>  (69) 
1.17

>  <cluster>  (69) 
1

$$$$

     RDKit          3D

 47 50  0  0  0  0  0  0  0  0999 V2000
  141.2720   71.9320  221.3340 O   0  0  0  0  0  0  0  0  0  0  0  0
  140.4420   72.3100  222.2280 C   0  0  0  0  0  0  0  0  0  0  0  0
  139.6960   73.5130  222.0830 N   0  0  0  0  0  0  0  0  0  0  0  0
  139.8700   74.3350  220.9010 C   0  0  0  0  0  0  0  0  0  0  0  0
  140.9250   75.3740  221.1380 C   0  0  0  0  0  0  0  0  0  0  0  0
  141.2820   75.5890  222.3240 O   0  0  0  0  0  0  0  0  0  0  0  0
  141.4640   76.0620  220.0170 N   0  0  0  0  0  0  0  0  0  0  0  0
  141.1200   77.4210  219.5740 C   0  0  0  0  0  0  0  0  0  0  0  0
  142.2220   77.8590  218.6720 C   0  0  0  0  0  0  0  0  0  0  0  0
  143.3060   76.8260  218.8950 C   0  0  0  0  0  0  0  0  0  0  0  0
  142.4440   75.5720  219.0980 C   0  0  1  0  0  0  0  0  0  0  0  0
  143.3420   74.5280  219.6530 C   0  0  0  0  0  0  0  0  0  0  0  0
  144.4690   74.8810  220.3850 C   0  0  0  0  0  0  0  0  0  0  0  0
  145.3050   73.9120  220.9020 C   0  0  0  0  0  0  0  0  0  0  0  0
  145.0700   72.5950  220.7240 N   0  0  0  0  0  0  0  0  0  0  0  0
  143.9880   72.2480  220.0210 C   0  0  0  0  0  0  0  0  0  0  0  0
  143.1230   73.1780  219.4840 C   0  0  0  0  0  0  0  0  0  0  0  0
  140.2400   71.4990  223.4450 C   0  0  0  0  0  0  0  0  0  0  0  0
  139.5250   70.3220  223.3440 C   0  0  0  0  0  0  0  0  0  0  0  0
  139.2790   69.4920  224.4170 C   0  0  0  0  0  0  0  0  0  0  0  0
  139.7980   69.9050  225.6450 C   0  0  0  0  0  0  0  0  0  0  0  0
  139.6140   69.1530  226.7950 C   0  0  0  0  0  0  0  0  0  0  0  0
  140.1200   69.5470  228.0160 C   0  0  0  0  0  0  0  0  0  0  0  0
  139.9210   68.7820  229.1220 F   0  0  0  0  0  0  0  0  0  0  0  0
  140.8370   70.7450  228.0720 C   0  0  0  0  0  0  0  0  0  0  0  0
  141.0310   71.5080  226.9410 C   0  0  0  0  0  0  0  0  0  0  0  0
  140.5160   71.0990  225.7230 C   0  0  0  0  0  0  0  0  0  0  0  0
  140.7280   71.8740  224.6400 N   0  0  0  0  0  0  0  0  0  0  0  0
  139.0140   73.8230  222.8210 H   0  0  0  0  0  0  0  0  0  0  0  0
  140.1723   73.6973  220.0572 H   0  0  0  0  0  0  0  0  0  0  0  0
  138.9187   74.8378  220.6726 H   0  0  0  0  0  0  0  0  0  0  0  0
  140.1635   77.4137  219.0308 H   0  0  0  0  0  0  0  0  0  0  0  0
  141.0084   78.1038  220.4292 H   0  0  0  0  0  0  0  0  0  0  0  0
  141.8920   77.8600  217.6226 H   0  0  0  0  0  0  0  0  0  0  0  0
  142.5619   78.8836  218.8834 H   0  0  0  0  0  0  0  0  0  0  0  0
  143.9650   76.7307  218.0194 H   0  0  0  0  0  0  0  0  0  0  0  0
  143.9968   77.0512  219.7209 H   0  0  0  0  0  0  0  0  0  0  0  0
  141.9652   75.1178  218.2180 H   0  0  0  0  0  0  0  0  0  0  0  0
  144.6973   75.9436  220.5542 H   0  0  0  0  0  0  0  0  0  0  0  0
  146.1899   74.2227  221.4767 H   0  0  0  0  0  0  0  0  0  0  0  0
  143.7792   71.1794  219.8646 H   0  0  0  0  0  0  0  0  0  0  0  0
  142.2465   72.8377  218.9131 H   0  0  0  0  0  0  0  0  0  0  0  0
  139.1321   70.0322  222.3583 H   0  0  0  0  0  0  0  0  0  0  0  0
  138.7069   68.5584  224.3114 H   0  0  0  0  0  0  0  0  0  0  0  0
  139.0467   68.2127  226.7317 H   0  0  0  0  0  0  0  0  0  0  0  0
  141.2525   71.0839  229.0325 H   0  0  0  0  0  0  0  0  0  0  0  0
  141.5987   72.4479  227.0065 H   0  0  0  0  0  0  0  0  0  0  0  0
  1  2  2  0
  2  3  1  0
  3  4  1  0
  4  5  1  0
  5  6  2  0
  5  7  1  0
  7  8  1  0
  8  9  1  0
  9 10  1  0
 10 11  1  0
 11 12  1  0
 12 13  2  0
 13 14  1  0
 14 15  2  0
 15 16  1  0
 16 17  2  0
  2 18  1  0
 18 19  2  0
 19 20  1  0
 20 21  2  0
 21 22  1  0
 22 23  2  0
 23 24  1  0
 23 25  1  0
 25 26  2  0
 26 27  1  0
 27 28  2  0
 11  7  1  0
 17 12  1  0
 28 18  1  0
 27 21  1  0
  3 29  1  0
  4 30  1  0
  4 31  1  0
  8 32  1  0
  8 33  1  0
  9 34  1  0
  9 35  1  0
 10 36  1  0
 10 37  1  0
 11 38  1  6
 13 39  1  0
 14 40  1  0
 16 41  1  0
 17 42  1  0
 19 43  1  0
 20 44  1  0
 22 45  1  0
 25 46  1  0
 26 47  1  0
M  END
>  <smiles>  (70) 
O=C(NCC(=O)N1CCCC1c1ccncc1)c1ccc2cc(F)ccc2n1

>  <score_type>  (70) 
oracle

>  <origin>  (70) 
autodockgpu

>  <m_score__min__energy>  (70) 
-8.2200000000000006

>  <m_primary>  (70) 
energy

>  <rmsd>  (70) 
2.0918133169222184

>  <m_score__min__rmsd>  (70) 
2.0918133169222184

>  <meeko>  (70) 
{"free_energy": -7.98, "intermolecular_energy": -9.47, "internal_energy": -1.6, "cluster_size": 32, "cluster_id": 1, "rank_in_cluster": 5}

>  <energy>  (70) 
-7.91

>  <cluster_rmsd>  (70) 
1.19

>  <cluster>  (70) 
1

$$$$

     RDKit          3D

 47 50  0  0  0  0  0  0  0  0999 V2000
  140.3060   71.6630  220.9930 O   0  0  0  0  0  0  0  0  0  0  0  0
  140.0230   72.2250  222.1050 C   0  0  0  0  0  0  0  0  0  0  0  0
  139.7640   73.6210  222.1810 N   0  0  0  0  0  0  0  0  0  0  0  0
  139.8180   74.4360  220.9820 C   0  0  0  0  0  0  0  0  0  0  0  0
  140.7770   75.5730  221.1650 C   0  0  0  0  0  0  0  0  0  0  0  0
  141.0140   75.9580  222.3390 O   0  0  0  0  0  0  0  0  0  0  0  0
  141.3660   76.1570  220.0110 N   0  0  0  0  0  0  0  0  0  0  0  0
  141.1020   77.5010  219.4780 C   0  0  0  0  0  0  0  0  0  0  0  0
  142.2380   77.8210  218.5660 C   0  0  0  0  0  0  0  0  0  0  0  0
  143.2610   76.7480  218.8720 C   0  0  0  0  0  0  0  0  0  0  0  0
  142.3300   75.5580  219.1410 C   0  0  1  0  0  0  0  0  0  0  0  0
  143.1630   74.5050  219.7750 C   0  0  0  0  0  0  0  0  0  0  0  0
  144.4370   74.7990  220.2430 C   0  0  0  0  0  0  0  0  0  0  0  0
  145.2140   73.8220  220.8330 C   0  0  0  0  0  0  0  0  0  0  0  0
  144.7770   72.5540  220.9820 N   0  0  0  0  0  0  0  0  0  0  0  0
  143.5520   72.2640  220.5350 C   0  0  0  0  0  0  0  0  0  0  0  0
  142.7380   73.2040  219.9380 C   0  0  0  0  0  0  0  0  0  0  0  0
  139.9600   71.4280  223.3450 C   0  0  0  0  0  0  0  0  0  0  0  0
  139.3950   70.1690  223.2950 C   0  0  0  0  0  0  0  0  0  0  0  0
  139.2860   69.3440  224.3960 C   0  0  0  0  0  0  0  0  0  0  0  0
  139.7860   69.8520  225.5960 C   0  0  0  0  0  0  0  0  0  0  0  0
  139.7320   69.1150  226.7680 C   0  0  0  0  0  0  0  0  0  0  0  0
  140.2210   69.6010  227.9620 C   0  0  0  0  0  0  0  0  0  0  0  0
  140.1520   68.8480  229.0920 F   0  0  0  0  0  0  0  0  0  0  0  0
  140.7850   70.8800  227.9670 C   0  0  0  0  0  0  0  0  0  0  0  0
  140.8480   71.6300  226.8120 C   0  0  0  0  0  0  0  0  0  0  0  0
  140.3520   71.1270  225.6220 C   0  0  0  0  0  0  0  0  0  0  0  0
  140.4330   71.8930  224.5150 N   0  0  0  0  0  0  0  0  0  0  0  0
  139.5320   74.0830  223.0970 H   0  0  0  0  0  0  0  0  0  0  0  0
  140.1492   73.8151  220.1365 H   0  0  0  0  0  0  0  0  0  0  0  0
  138.8159   74.8434  220.7825 H   0  0  0  0  0  0  0  0  0  0  0  0
  140.1530   77.5104  218.9219 H   0  0  0  0  0  0  0  0  0  0  0  0
  141.0179   78.2420  220.2866 H   0  0  0  0  0  0  0  0  0  0  0  0
  141.9214   77.7717  217.5137 H   0  0  0  0  0  0  0  0  0  0  0  0
  142.6304   78.8376  218.7162 H   0  0  0  0  0  0  0  0  0  0  0  0
  143.9247   76.5610  218.0150 H   0  0  0  0  0  0  0  0  0  0  0  0
  143.9525   76.9889  219.6928 H   0  0  0  0  0  0  0  0  0  0  0  0
  141.8382   75.0746  218.2840 H   0  0  0  0  0  0  0  0  0  0  0  0
  144.8312   75.8210  220.1426 H   0  0  0  0  0  0  0  0  0  0  0  0
  146.2197   74.0852  221.1925 H   0  0  0  0  0  0  0  0  0  0  0  0
  143.1779   71.2357  220.6474 H   0  0  0  0  0  0  0  0  0  0  0  0
  141.7371   72.9117  219.5876 H   0  0  0  0  0  0  0  0  0  0  0  0
  139.0128   69.8056  222.3297 H   0  0  0  0  0  0  0  0  0  0  0  0
  138.8315   68.3443  224.3315 H   0  0  0  0  0  0  0  0  0  0  0  0
  139.2848   68.1103  226.7452 H   0  0  0  0  0  0  0  0  0  0  0  0
  141.1839   71.2935  228.9050 H   0  0  0  0  0  0  0  0  0  0  0  0
  141.2954   72.6346  226.8364 H   0  0  0  0  0  0  0  0  0  0  0  0
  1  2  2  0
  2  3  1  0
  3  4  1  0
  4  5  1  0
  5  6  2  0
  5  7  1  0
  7  8  1  0
  8  9  1  0
  9 10  1  0
 10 11  1  0
 11 12  1  0
 12 13  2  0
 13 14  1  0
 14 15  2  0
 15 16  1  0
 16 17  2  0
  2 18  1  0
 18 19  2  0
 19 20  1  0
 20 21  2  0
 21 22  1  0
 22 23  2  0
 23 24  1  0
 23 25  1  0
 25 26  2  0
 26 27  1  0
 27 28  2  0
 11  7  1  0
 17 12  1  0
 28 18  1  0
 27 21  1  0
  3 29  1  0
  4 30  1  0
  4 31  1  0
  8 32  1  0
  8 33  1  0
  9 34  1  0
  9 35  1  0
 10 36  1  0
 10 37  1  0
 11 38  1  6
 13 39  1  0
 14 40  1  0
 16 41  1  0
 17 42  1  0
 19 43  1  0
 20 44  1  0
 22 45  1  0
 25 46  1  0
 26 47  1  0
M  END
>  <smiles>  (71) 
O=C(NCC(=O)N1CCCC1c1ccncc1)c1ccc2cc(F)ccc2n1

>  <score_type>  (71) 
oracle

>  <origin>  (71) 
autodockgpu

>  <m_score__min__energy>  (71) 
-8.2200000000000006

>  <m_primary>  (71) 
energy

>  <rmsd>  (71) 
2.023432481132088

>  <m_score__min__rmsd>  (71) 
2.023432481132088

>  <meeko>  (71) 
{"free_energy": -7.94, "intermolecular_energy": -9.43, "internal_energy": -1.86, "cluster_size": 32, "cluster_id": 1, "rank_in_cluster": 11}

>  <energy>  (71) 
-7.91

>  <cluster_rmsd>  (71) 
1.16

>  <cluster>  (71) 
1

$$$$

     RDKit          3D

 47 50  0  0  0  0  0  0  0  0999 V2000
  140.4040   71.6310  220.9920 O   0  0  0  0  0  0  0  0  0  0  0  0
  140.0930   72.1920  222.0970 C   0  0  0  0  0  0  0  0  0  0  0  0
  139.8230   73.5870  222.1670 N   0  0  0  0  0  0  0  0  0  0  0  0
  139.8970   74.4000  220.9680 C   0  0  0  0  0  0  0  0  0  0  0  0
  140.8310   75.5550  221.1770 C   0  0  0  0  0  0  0  0  0  0  0  0
  141.0450   75.9300  222.3580 O   0  0  0  0  0  0  0  0  0  0  0  0
  141.4210   76.1660  220.0380 N   0  0  0  0  0  0  0  0  0  0  0  0
  141.1650   77.5260  219.5410 C   0  0  0  0  0  0  0  0  0  0  0  0
  142.3010   77.8610  218.6360 C   0  0  0  0  0  0  0  0  0  0  0  0
  143.3170   76.7730  218.9090 C   0  0  0  0  0  0  0  0  0  0  0  0
  142.3770   75.5830  219.1490 C   0  0  1  0  0  0  0  0  0  0  0  0
  143.2040   74.5070  219.7520 C   0  0  0  0  0  0  0  0  0  0  0  0
  144.4610   74.7890  220.2720 C   0  0  0  0  0  0  0  0  0  0  0  0
  145.2310   73.7900  220.8330 C   0  0  0  0  0  0  0  0  0  0  0  0
  144.8050   72.5120  220.9030 N   0  0  0  0  0  0  0  0  0  0  0  0
  143.5980   72.2330  220.4050 C   0  0  0  0  0  0  0  0  0  0  0  0
  142.7910   73.1950  219.8340 C   0  0  0  0  0  0  0  0  0  0  0  0
  140.0090   71.3960  223.3360 C   0  0  0  0  0  0  0  0  0  0  0  0
  139.4380   70.1400  223.2790 C   0  0  0  0  0  0  0  0  0  0  0  0
  139.3100   69.3160  224.3780 C   0  0  0  0  0  0  0  0  0  0  0  0
  139.7960   69.8210  225.5840 C   0  0  0  0  0  0  0  0  0  0  0  0
  139.7220   69.0840  226.7560 C   0  0  0  0  0  0  0  0  0  0  0  0
  140.1980   69.5670  227.9560 C   0  0  0  0  0  0  0  0  0  0  0  0
  140.1090   68.8150  229.0850 F   0  0  0  0  0  0  0  0  0  0  0  0
  140.7680   70.8430  227.9690 C   0  0  0  0  0  0  0  0  0  0  0  0
  140.8510   71.5930  226.8150 C   0  0  0  0  0  0  0  0  0  0  0  0
  140.3680   71.0920  225.6180 C   0  0  0  0  0  0  0  0  0  0  0  0
  140.4690   71.8570  224.5120 N   0  0  0  0  0  0  0  0  0  0  0  0
  139.5680   74.0470  223.0770 H   0  0  0  0  0  0  0  0  0  0  0  0
  140.2637   73.7835  220.1340 H   0  0  0  0  0  0  0  0  0  0  0  0
  138.8941   74.7889  220.7378 H   0  0  0  0  0  0  0  0  0  0  0  0
  140.2150   77.5567  218.9873 H   0  0  0  0  0  0  0  0  0  0  0  0
  141.0872   78.2463  220.3687 H   0  0  0  0  0  0  0  0  0  0  0  0
  141.9814   77.8429  217.5836 H   0  0  0  0  0  0  0  0  0  0  0  0
  142.7017   78.8699  218.8138 H   0  0  0  0  0  0  0  0  0  0  0  0
  143.9764   76.6043  218.0448 H   0  0  0  0  0  0  0  0  0  0  0  0
  144.0135   76.9863  219.7333 H   0  0  0  0  0  0  0  0  0  0  0  0
  141.8786   75.1266  218.2811 H   0  0  0  0  0  0  0  0  0  0  0  0
  144.8466   75.8186  220.2364 H   0  0  0  0  0  0  0  0  0  0  0  0
  146.2227   74.0440  221.2354 H   0  0  0  0  0  0  0  0  0  0  0  0
  143.2332   71.1963  220.4518 H   0  0  0  0  0  0  0  0  0  0  0  0
  141.8045   72.9109  219.4388 H   0  0  0  0  0  0  0  0  0  0  0  0
  139.0666   69.7784  222.3088 H   0  0  0  0  0  0  0  0  0  0  0  0
  138.8513   68.3187  224.3074 H   0  0  0  0  0  0  0  0  0  0  0  0
  139.2690   68.0820  226.7273 H   0  0  0  0  0  0  0  0  0  0  0  0
  141.1557   71.2545  228.9126 H   0  0  0  0  0  0  0  0  0  0  0  0
  141.3035   72.5951  226.8455 H   0  0  0  0  0  0  0  0  0  0  0  0
  1  2  2  0
  2  3  1  0
  3  4  1  0
  4  5  1  0
  5  6  2  0
  5  7  1  0
  7  8  1  0
  8  9  1  0
  9 10  1  0
 10 11  1  0
 11 12  1  0
 12 13  2  0
 13 14  1  0
 14 15  2  0
 15 16  1  0
 16 17  2  0
  2 18  1  0
 18 19  2  0
 19 20  1  0
 20 21  2  0
 21 22  1  0
 22 23  2  0
 23 24  1  0
 23 25  1  0
 25 26  2  0
 26 27  1  0
 27 28  2  0
 11  7  1  0
 17 12  1  0
 28 18  1  0
 27 21  1  0
  3 29  1  0
  4 30  1  0
  4 31  1  0
  8 32  1  0
  8 33  1  0
  9 34  1  0
  9 35  1  0
 10 36  1  0
 10 37  1  0
 11 38  1  6
 13 39  1  0
 14 40  1  0
 16 41  1  0
 17 42  1  0
 19 43  1  0
 20 44  1  0
 22 45  1  0
 25 46  1  0
 26 47  1  0
M  END
>  <smiles>  (72) 
O=C(NCC(=O)N1CCCC1c1ccncc1)c1ccc2cc(F)ccc2n1

>  <score_type>  (72) 
oracle

>  <origin>  (72) 
autodockgpu

>  <m_score__min__energy>  (72) 
-8.2200000000000006

>  <m_primary>  (72) 
energy

>  <rmsd>  (72) 
2.057819226388383

>  <m_score__min__rmsd>  (72) 
2.057819226388383

>  <meeko>  (72) 
{"free_energy": -7.95, "intermolecular_energy": -9.44, "internal_energy": -1.87, "cluster_size": 32, "cluster_id": 1, "rank_in_cluster": 8}

>  <energy>  (72) 
-7.9

>  <cluster_rmsd>  (72) 
1.18

>  <cluster>  (72) 
1

$$$$

     RDKit          3D

 47 50  0  0  0  0  0  0  0  0999 V2000
  140.6050   71.6700  221.0560 O   0  0  0  0  0  0  0  0  0  0  0  0
  140.1550   72.2150  222.1190 C   0  0  0  0  0  0  0  0  0  0  0  0
  139.7700   73.5840  222.1410 N   0  0  0  0  0  0  0  0  0  0  0  0
  139.8840   74.3890  220.9400 C   0  0  0  0  0  0  0  0  0  0  0  0
  140.8360   75.5260  221.1600 C   0  0  0  0  0  0  0  0  0  0  0  0
  141.0750   75.8690  222.3460 O   0  0  0  0  0  0  0  0  0  0  0  0
  141.4170   76.1550  220.0260 N   0  0  0  0  0  0  0  0  0  0  0  0
  141.1280   77.5090  219.5320 C   0  0  0  0  0  0  0  0  0  0  0  0
  142.2590   77.8780  218.6340 C   0  0  0  0  0  0  0  0  0  0  0  0
  143.3020   76.8160  218.9100 C   0  0  0  0  0  0  0  0  0  0  0  0
  142.3940   75.6010  219.1410 C   0  0  1  0  0  0  0  0  0  0  0  0
  143.2450   74.5460  219.7460 C   0  0  0  0  0  0  0  0  0  0  0  0
  144.4930   74.8590  220.2690 C   0  0  0  0  0  0  0  0  0  0  0  0
  145.2870   73.8800  220.8320 C   0  0  0  0  0  0  0  0  0  0  0  0
  144.8930   72.5910  220.9010 N   0  0  0  0  0  0  0  0  0  0  0  0
  143.6940   72.2820  220.3990 C   0  0  0  0  0  0  0  0  0  0  0  0
  142.8650   73.2240  219.8260 C   0  0  0  0  0  0  0  0  0  0  0  0
  140.0250   71.4280  223.3600 C   0  0  0  0  0  0  0  0  0  0  0  0
  139.3550   70.2210  223.3120 C   0  0  0  0  0  0  0  0  0  0  0  0
  139.1770   69.4100  224.4130 C   0  0  0  0  0  0  0  0  0  0  0  0
  139.7210   69.8740  225.6120 C   0  0  0  0  0  0  0  0  0  0  0  0
  139.6050   69.1440  226.7850 C   0  0  0  0  0  0  0  0  0  0  0  0
  140.1350   69.5880  227.9780 C   0  0  0  0  0  0  0  0  0  0  0  0
  140.0030   68.8440  229.1090 F   0  0  0  0  0  0  0  0  0  0  0  0
  140.8060   70.8140  227.9820 C   0  0  0  0  0  0  0  0  0  0  0  0
  140.9320   71.5550  226.8260 C   0  0  0  0  0  0  0  0  0  0  0  0
  140.3930   71.0950  225.6360 C   0  0  0  0  0  0  0  0  0  0  0  0
  140.5380   71.8510  224.5290 N   0  0  0  0  0  0  0  0  0  0  0  0
  139.3990   74.0320  223.0170 H   0  0  0  0  0  0  0  0  0  0  0  0
  140.2543   73.7607  220.1166 H   0  0  0  0  0  0  0  0  0  0  0  0
  138.8937   74.7969  220.6891 H   0  0  0  0  0  0  0  0  0  0  0  0
  140.1804   77.5163  218.9734 H   0  0  0  0  0  0  0  0  0  0  0  0
  141.0273   78.2239  220.3619 H   0  0  0  0  0  0  0  0  0  0  0  0
  141.9458   77.8547  217.5798 H   0  0  0  0  0  0  0  0  0  0  0  0
  142.6314   78.8969  218.8163 H   0  0  0  0  0  0  0  0  0  0  0  0
  143.9707   76.6676  218.0493 H   0  0  0  0  0  0  0  0  0  0  0  0
  143.9873   77.0454  219.7393 H   0  0  0  0  0  0  0  0  0  0  0  0
  141.9139   75.1342  218.2683 H   0  0  0  0  0  0  0  0  0  0  0  0
  144.8526   75.8980  220.2342 H   0  0  0  0  0  0  0  0  0  0  0  0
  146.2710   74.1591  221.2368 H   0  0  0  0  0  0  0  0  0  0  0  0
  143.3550   71.2365  220.4443 H   0  0  0  0  0  0  0  0  0  0  0  0
  141.8872   72.9155  219.4275 H   0  0  0  0  0  0  0  0  0  0  0  0
  138.9428   69.8902  222.3473 H   0  0  0  0  0  0  0  0  0  0  0  0
  138.6378   68.4533  224.3501 H   0  0  0  0  0  0  0  0  0  0  0  0
  139.0738   68.1810  226.7633 H   0  0  0  0  0  0  0  0  0  0  0  0
  141.2392   71.1927  228.9195 H   0  0  0  0  0  0  0  0  0  0  0  0
  141.4640   72.5175  226.8491 H   0  0  0  0  0  0  0  0  0  0  0  0
  1  2  2  0
  2  3  1  0
  3  4  1  0
  4  5  1  0
  5  6  2  0
  5  7  1  0
  7  8  1  0
  8  9  1  0
  9 10  1  0
 10 11  1  0
 11 12  1  0
 12 13  2  0
 13 14  1  0
 14 15  2  0
 15 16  1  0
 16 17  2  0
  2 18  1  0
 18 19  2  0
 19 20  1  0
 20 21  2  0
 21 22  1  0
 22 23  2  0
 23 24  1  0
 23 25  1  0
 25 26  2  0
 26 27  1  0
 27 28  2  0
 11  7  1  0
 17 12  1  0
 28 18  1  0
 27 21  1  0
  3 29  1  0
  4 30  1  0
  4 31  1  0
  8 32  1  0
  8 33  1  0
  9 34  1  0
  9 35  1  0
 10 36  1  0
 10 37  1  0
 11 38  1  6
 13 39  1  0
 14 40  1  0
 16 41  1  0
 17 42  1  0
 19 43  1  0
 20 44  1  0
 22 45  1  0
 25 46  1  0
 26 47  1  0
M  END
>  <smiles>  (73) 
O=C(NCC(=O)N1CCCC1c1ccncc1)c1ccc2cc(F)ccc2n1

>  <score_type>  (73) 
oracle

>  <origin>  (73) 
autodockgpu

>  <m_score__min__energy>  (73) 
-8.2200000000000006

>  <m_primary>  (73) 
energy

>  <rmsd>  (73) 
2.059377055698466

>  <m_score__min__rmsd>  (73) 
2.059377055698466

>  <meeko>  (73) 
{"free_energy": -7.99, "intermolecular_energy": -9.48, "internal_energy": -1.76, "cluster_size": 32, "cluster_id": 1, "rank_in_cluster": 4}

>  <energy>  (73) 
-7.9

>  <cluster_rmsd>  (73) 
1.17

>  <cluster>  (73) 
1

$$$$

     RDKit          3D

 47 50  0  0  0  0  0  0  0  0999 V2000
  141.3290   77.8630  217.3220 O   0  0  0  0  0  0  0  0  0  0  0  0
  142.0840   77.6260  218.3240 C   0  0  0  0  0  0  0  0  0  0  0  0
  142.2040   78.5560  219.3940 N   0  0  0  0  0  0  0  0  0  0  0  0
  141.4610   79.8010  219.3600 C   0  0  0  0  0  0  0  0  0  0  0  0
  140.8040   80.0540  220.6840 C   0  0  0  0  0  0  0  0  0  0  0  0
  139.6000   80.4160  220.6810 O   0  0  0  0  0  0  0  0  0  0  0  0
  141.5710   79.8760  221.8670 N   0  0  0  0  0  0  0  0  0  0  0  0
  142.2740   80.9240  222.6220 C   0  0  0  0  0  0  0  0  0  0  0  0
  142.5420   80.3580  223.9750 C   0  0  0  0  0  0  0  0  0  0  0  0
  141.6900   79.1070  224.0190 C   0  0  0  0  0  0  0  0  0  0  0  0
  141.8100   78.6480  222.5590 C   0  0  1  0  0  0  0  0  0  0  0  0
  140.7670   77.6110  222.3560 C   0  0  0  0  0  0  0  0  0  0  0  0
  141.0890   76.3880  221.7830 C   0  0  0  0  0  0  0  0  0  0  0  0
  140.1210   75.4220  221.5930 C   0  0  0  0  0  0  0  0  0  0  0  0
  138.8350   75.6180  221.9500 N   0  0  0  0  0  0  0  0  0  0  0  0
  138.5180   76.7930  222.5020 C   0  0  0  0  0  0  0  0  0  0  0  0
  139.4480   77.7890  222.7130 C   0  0  0  0  0  0  0  0  0  0  0  0
  142.8560   76.3700  218.3930 C   0  0  0  0  0  0  0  0  0  0  0  0
  142.9810   75.6070  217.2490 C   0  0  0  0  0  0  0  0  0  0  0  0
  143.6800   74.4180  217.2050 C   0  0  0  0  0  0  0  0  0  0  0  0
  144.2710   74.0090  218.4020 C   0  0  0  0  0  0  0  0  0  0  0  0
  144.9970   72.8310  218.4800 C   0  0  0  0  0  0  0  0  0  0  0  0
  145.5870   72.4110  219.6530 C   0  0  0  0  0  0  0  0  0  0  0  0
  146.2930   71.2500  219.6920 F   0  0  0  0  0  0  0  0  0  0  0  0
  145.4350   73.2140  220.7870 C   0  0  0  0  0  0  0  0  0  0  0  0
  144.7150   74.3890  220.7310 C   0  0  0  0  0  0  0  0  0  0  0  0
  144.1290   74.7960  219.5450 C   0  0  0  0  0  0  0  0  0  0  0  0
  143.4340   75.9510  219.5320 N   0  0  0  0  0  0  0  0  0  0  0  0
  142.8270   78.3590  220.2190 H   0  0  0  0  0  0  0  0  0  0  0  0
  142.1498   80.6281  219.1333 H   0  0  0  0  0  0  0  0  0  0  0  0
  140.6846   79.7321  218.5838 H   0  0  0  0  0  0  0  0  0  0  0  0
  143.2197   81.1829  222.1235 H   0  0  0  0  0  0  0  0  0  0  0  0
  141.6721   81.8426  222.6853 H   0  0  0  0  0  0  0  0  0  0  0  0
  143.6074   80.1107  224.0922 H   0  0  0  0  0  0  0  0  0  0  0  0
  142.3046   81.0629  224.7854 H   0  0  0  0  0  0  0  0  0  0  0  0
  142.0978   78.3602  224.7161 H   0  0  0  0  0  0  0  0  0  0  0  0
  140.6596   79.2616  224.3718 H   0  0  0  0  0  0  0  0  0  0  0  0
  142.7545   78.1901  222.2299 H   0  0  0  0  0  0  0  0  0  0  0  0
  142.1263   76.1866  221.4772 H   0  0  0  0  0  0  0  0  0  0  0  0
  140.4073   74.4630  221.1365 H   0  0  0  0  0  0  0  0  0  0  0  0
  137.4744   76.9727  222.7997 H   0  0  0  0  0  0  0  0  0  0  0  0
  139.1330   78.7377  223.1721 H   0  0  0  0  0  0  0  0  0  0  0  0
  142.4995   75.9647  216.3269 H   0  0  0  0  0  0  0  0  0  0  0  0
  143.7665   73.8272  216.2812 H   0  0  0  0  0  0  0  0  0  0  0  0
  145.1059   72.2116  217.5775 H   0  0  0  0  0  0  0  0  0  0  0  0
  145.8958   72.9046  221.7367 H   0  0  0  0  0  0  0  0  0  0  0  0
  144.6058   75.0066  221.6347 H   0  0  0  0  0  0  0  0  0  0  0  0
  1  2  2  0
  2  3  1  0
  3  4  1  0
  4  5  1  0
  5  6  2  0
  5  7  1  0
  7  8  1  0
  8  9  1  0
  9 10  1  0
 10 11  1  0
 11 12  1  0
 12 13  2  0
 13 14  1  0
 14 15  2  0
 15 16  1  0
 16 17  2  0
  2 18  1  0
 18 19  2  0
 19 20  1  0
 20 21  2  0
 21 22  1  0
 22 23  2  0
 23 24  1  0
 23 25  1  0
 25 26  2  0
 26 27  1  0
 27 28  2  0
 11  7  1  0
 17 12  1  0
 28 18  1  0
 27 21  1  0
  3 29  1  0
  4 30  1  0
  4 31  1  0
  8 32  1  0
  8 33  1  0
  9 34  1  0
  9 35  1  0
 10 36  1  0
 10 37  1  0
 11 38  1  1
 13 39  1  0
 14 40  1  0
 16 41  1  0
 17 42  1  0
 19 43  1  0
 20 44  1  0
 22 45  1  0
 25 46  1  0
 26 47  1  0
M  END
>  <smiles>  (74) 
O=C(NCC(=O)N1CCCC1c1ccncc1)c1ccc2cc(F)ccc2n1

>  <score_type>  (74) 
oracle

>  <origin>  (74) 
autodockgpu

>  <m_score__min__energy>  (74) 
-8.2200000000000006

>  <m_primary>  (74) 
energy

>  <rmsd>  (74) 
8.156139635089534

>  <m_score__min__rmsd>  (74) 
8.156139635089534

>  <meeko>  (74) 
{"free_energy": -6.67, "intermolecular_energy": -8.16, "internal_energy": -2.12, "cluster_size": 1, "cluster_id": 5, "rank_in_cluster": 1}

>  <energy>  (74) 
-7.89

>  <cluster_rmsd>  (74) 
1.18

>  <cluster>  (74) 
1

$$$$

     RDKit          3D

 47 50  0  0  0  0  0  0  0  0999 V2000
  139.9570   71.4400  221.0320 O   0  0  0  0  0  0  0  0  0  0  0  0
  139.8150   72.0000  222.1710 C   0  0  0  0  0  0  0  0  0  0  0  0
  139.6480   73.4080  222.2850 N   0  0  0  0  0  0  0  0  0  0  0  0
  139.6360   74.2360  221.0940 C   0  0  0  0  0  0  0  0  0  0  0  0
  140.6760   75.3110  221.1930 C   0  0  0  0  0  0  0  0  0  0  0  0
  141.0480   75.6640  222.3410 O   0  0  0  0  0  0  0  0  0  0  0  0
  141.1870   75.8740  219.9920 N   0  0  0  0  0  0  0  0  0  0  0  0
  140.7700   77.1400  219.3720 C   0  0  0  0  0  0  0  0  0  0  0  0
  141.8550   77.5190  218.4230 C   0  0  0  0  0  0  0  0  0  0  0  0
  142.9950   76.5900  218.7850 C   0  0  0  0  0  0  0  0  0  0  0  0
  142.2050   75.3260  219.1500 C   0  0  1  0  0  0  0  0  0  0  0  0
  143.1550   74.4190  219.8420 C   0  0  0  0  0  0  0  0  0  0  0  0
  144.4180   74.8660  220.2090 C   0  0  0  0  0  0  0  0  0  0  0  0
  145.3040   74.0250  220.8530 C   0  0  0  0  0  0  0  0  0  0  0  0
  144.9880   72.7480  221.1520 N   0  0  0  0  0  0  0  0  0  0  0  0
  143.7750   72.3100  220.8020 C   0  0  0  0  0  0  0  0  0  0  0  0
  142.8550   73.1110  220.1580 C   0  0  0  0  0  0  0  0  0  0  0  0
  139.8230   71.1900  223.4040 C   0  0  0  0  0  0  0  0  0  0  0  0
  139.3440   69.8960  223.3490 C   0  0  0  0  0  0  0  0  0  0  0  0
  139.3070   69.0560  224.4430 C   0  0  0  0  0  0  0  0  0  0  0  0
  139.7880   69.5860  225.6410 C   0  0  0  0  0  0  0  0  0  0  0  0
  139.8000   68.8360  226.8070 C   0  0  0  0  0  0  0  0  0  0  0  0
  140.2710   69.3440  227.9990 C   0  0  0  0  0  0  0  0  0  0  0  0
  140.2690   68.5780  229.1220 F   0  0  0  0  0  0  0  0  0  0  0  0
  140.7470   70.6580  228.0090 C   0  0  0  0  0  0  0  0  0  0  0  0
  140.7430   71.4210  226.8610 C   0  0  0  0  0  0  0  0  0  0  0  0
  140.2660   70.8960  225.6720 C   0  0  0  0  0  0  0  0  0  0  0  0
  140.2800   71.6750  224.5720 N   0  0  0  0  0  0  0  0  0  0  0  0
  139.5320   73.8690  223.2230 H   0  0  0  0  0  0  0  0  0  0  0  0
  139.8457   73.6090  220.2148 H   0  0  0  0  0  0  0  0  0  0  0  0
  138.6461   74.7058  220.9966 H   0  0  0  0  0  0  0  0  0  0  0  0
  139.8214   77.0051  218.8316 H   0  0  0  0  0  0  0  0  0  0  0  0
  140.6100   77.9220  220.1289 H   0  0  0  0  0  0  0  0  0  0  0  0
  141.5371   77.3615  217.3818 H   0  0  0  0  0  0  0  0  0  0  0  0
  142.1325   78.5808  218.4974 H   0  0  0  0  0  0  0  0  0  0  0  0
  143.6680   76.4184  217.9320 H   0  0  0  0  0  0  0  0  0  0  0  0
  143.6626   76.9629  219.5757 H   0  0  0  0  0  0  0  0  0  0  0  0
  141.7637   74.7323  218.3359 H   0  0  0  0  0  0  0  0  0  0  0  0
  144.7155   75.9009  219.9842 H   0  0  0  0  0  0  0  0  0  0  0  0
  146.2972   74.4078  221.1305 H   0  0  0  0  0  0  0  0  0  0  0  0
  143.4997   71.2711  221.0364 H   0  0  0  0  0  0  0  0  0  0  0  0
  141.8693   72.7009  219.8932 H   0  0  0  0  0  0  0  0  0  0  0  0
  138.9736   69.5161  222.3854 H   0  0  0  0  0  0  0  0  0  0  0  0
  138.9208   68.0283  224.3748 H   0  0  0  0  0  0  0  0  0  0  0  0
  139.4219   67.8034  226.7802 H   0  0  0  0  0  0  0  0  0  0  0  0
  141.1300   71.0892  228.9457 H   0  0  0  0  0  0  0  0  0  0  0  0
  141.1212   72.4535  226.8897 H   0  0  0  0  0  0  0  0  0  0  0  0
  1  2  2  0
  2  3  1  0
  3  4  1  0
  4  5  1  0
  5  6  2  0
  5  7  1  0
  7  8  1  0
  8  9  1  0
  9 10  1  0
 10 11  1  0
 11 12  1  0
 12 13  2  0
 13 14  1  0
 14 15  2  0
 15 16  1  0
 16 17  2  0
  2 18  1  0
 18 19  2  0
 19 20  1  0
 20 21  2  0
 21 22  1  0
 22 23  2  0
 23 24  1  0
 23 25  1  0
 25 26  2  0
 26 27  1  0
 27 28  2  0
 11  7  1  0
 17 12  1  0
 28 18  1  0
 27 21  1  0
  3 29  1  0
  4 30  1  0
  4 31  1  0
  8 32  1  0
  8 33  1  0
  9 34  1  0
  9 35  1  0
 10 36  1  0
 10 37  1  0
 11 38  1  6
 13 39  1  0
 14 40  1  0
 16 41  1  0
 17 42  1  0
 19 43  1  0
 20 44  1  0
 22 45  1  0
 25 46  1  0
 26 47  1  0
M  END
>  <smiles>  (75) 
O=C(NCC(=O)N1CCCC1c1ccncc1)c1ccc2cc(F)ccc2n1

>  <score_type>  (75) 
oracle

>  <origin>  (75) 
autodockgpu

>  <m_score__min__energy>  (75) 
-8.2200000000000006

>  <m_primary>  (75) 
energy

>  <rmsd>  (75) 
1.7980056954189214

>  <m_score__min__rmsd>  (75) 
1.7980056954189214

>  <meeko>  (75) 
{"free_energy": -7.78, "intermolecular_energy": -9.28, "internal_energy": -1.86, "cluster_size": 32, "cluster_id": 1, "rank_in_cluster": 30}

>  <energy>  (75) 
-7.89

>  <cluster_rmsd>  (75) 
1.16

>  <cluster>  (75) 
1

$$$$

     RDKit          3D

 47 50  0  0  0  0  0  0  0  0999 V2000
  134.8160   68.5100  225.1070 O   0  0  0  0  0  0  0  0  0  0  0  0
  135.2160   69.7170  224.9850 C   0  0  0  0  0  0  0  0  0  0  0  0
  136.3930   70.0340  224.2520 N   0  0  0  0  0  0  0  0  0  0  0  0
  137.1630   68.9770  223.6240 C   0  0  0  0  0  0  0  0  0  0  0  0
  138.4850   68.8140  224.3110 C   0  0  0  0  0  0  0  0  0  0  0  0
  138.6690   67.7710  224.9890 O   0  0  0  0  0  0  0  0  0  0  0  0
  139.4580   69.8400  224.1640 N   0  0  0  0  0  0  0  0  0  0  0  0
  139.4680   70.8990  223.1450 C   0  0  0  0  0  0  0  0  0  0  0  0
  140.3880   71.9570  223.6480 C   0  0  0  0  0  0  0  0  0  0  0  0
  140.6200   71.5770  225.0950 C   0  0  0  0  0  0  0  0  0  0  0  0
  140.6180   70.0470  224.9750 C   0  0  1  0  0  0  0  0  0  0  0  0
  140.5080   69.5150  226.3560 C   0  0  0  0  0  0  0  0  0  0  0  0
  141.1900   68.3640  226.7270 C   0  0  0  0  0  0  0  0  0  0  0  0
  141.0890   67.8670  228.0110 C   0  0  0  0  0  0  0  0  0  0  0  0
  140.3350   68.4700  228.9540 N   0  0  0  0  0  0  0  0  0  0  0  0
  139.6760   69.5780  228.6050 C   0  0  0  0  0  0  0  0  0  0  0  0
  139.7440   70.1130  227.3360 C   0  0  0  0  0  0  0  0  0  0  0  0
  134.4590   70.8180  225.6110 C   0  0  0  0  0  0  0  0  0  0  0  0
  133.4260   70.5050  226.4730 C   0  0  0  0  0  0  0  0  0  0  0  0
  132.6570   71.4570  227.1090 C   0  0  0  0  0  0  0  0  0  0  0  0
  132.9760   72.7880  226.8360 C   0  0  0  0  0  0  0  0  0  0  0  0
  132.2720   73.8320  227.4160 C   0  0  0  0  0  0  0  0  0  0  0  0
  132.5750   75.1520  227.1570 C   0  0  0  0  0  0  0  0  0  0  0  0
  131.8620   76.1490  227.7460 F   0  0  0  0  0  0  0  0  0  0  0  0
  133.6280   75.4230  226.2790 C   0  0  0  0  0  0  0  0  0  0  0  0
  134.3400   74.4000  225.6900 C   0  0  0  0  0  0  0  0  0  0  0  0
  134.0230   73.0790  225.9610 C   0  0  0  0  0  0  0  0  0  0  0  0
  134.7450   72.1080  225.3650 N   0  0  0  0  0  0  0  0  0  0  0  0
  136.7230   71.0280  224.1530 H   0  0  0  0  0  0  0  0  0  0  0  0
  136.6023   68.0329  223.6886 H   0  0  0  0  0  0  0  0  0  0  0  0
  137.3387   69.2414  222.5708 H   0  0  0  0  0  0  0  0  0  0  0  0
  139.8331   70.5014  222.1865 H   0  0  0  0  0  0  0  0  0  0  0  0
  138.4572   71.2976  222.9738 H   0  0  0  0  0  0  0  0  0  0  0  0
  141.3334   71.9537  223.0857 H   0  0  0  0  0  0  0  0  0  0  0  0
  139.9731   72.9696  223.5357 H   0  0  0  0  0  0  0  0  0  0  0  0
  141.5836   71.9557  225.4666 H   0  0  0  0  0  0  0  0  0  0  0  0
  139.8852   71.9861  225.8040 H   0  0  0  0  0  0  0  0  0  0  0  0
  141.4981   69.5553  224.5350 H   0  0  0  0  0  0  0  0  0  0  0  0
  141.8178   67.8423  225.9897 H   0  0  0  0  0  0  0  0  0  0  0  0
  141.6398   66.9517  228.2734 H   0  0  0  0  0  0  0  0  0  0  0  0
  139.0549   70.0834  229.3592 H   0  0  0  0  0  0  0  0  0  0  0  0
  139.1814   71.0289  227.1023 H   0  0  0  0  0  0  0  0  0  0  0  0
  133.2058   69.4439  226.6615 H   0  0  0  0  0  0  0  0  0  0  0  0
  131.8394   71.1831  227.7920 H   0  0  0  0  0  0  0  0  0  0  0  0
  131.4459   73.6001  228.1043 H   0  0  0  0  0  0  0  0  0  0  0  0
  133.8923   76.4670  226.0549 H   0  0  0  0  0  0  0  0  0  0  0  0
  135.1647   74.6341  225.0008 H   0  0  0  0  0  0  0  0  0  0  0  0
  1  2  2  0
  2  3  1  0
  3  4  1  0
  4  5  1  0
  5  6  2  0
  5  7  1  0
  7  8  1  0
  8  9  1  0
  9 10  1  0
 10 11  1  0
 11 12  1  0
 12 13  2  0
 13 14  1  0
 14 15  2  0
 15 16  1  0
 16 17  2  0
  2 18  1  0
 18 19  2  0
 19 20  1  0
 20 21  2  0
 21 22  1  0
 22 23  2  0
 23 24  1  0
 23 25  1  0
 25 26  2  0
 26 27  1  0
 27 28  2  0
 11  7  1  0
 17 12  1  0
 28 18  1  0
 27 21  1  0
  3 29  1  0
  4 30  1  0
  4 31  1  0
  8 32  1  0
  8 33  1  0
  9 34  1  0
  9 35  1  0
 10 36  1  0
 10 37  1  0
 11 38  1  6
 13 39  1  0
 14 40  1  0
 16 41  1  0
 17 42  1  0
 19 43  1  0
 20 44  1  0
 22 45  1  0
 25 46  1  0
 26 47  1  0
M  END
>  <smiles>  (76) 
O=C(NCC(=O)N1CCCC1c1ccncc1)c1ccc2cc(F)ccc2n1

>  <score_type>  (76) 
oracle

>  <origin>  (76) 
autodockgpu

>  <m_score__min__energy>  (76) 
-8.2200000000000006

>  <m_primary>  (76) 
energy

>  <rmsd>  (76) 
7.573568944366264

>  <m_score__min__rmsd>  (76) 
7.573568944366264

>  <meeko>  (76) 
{"free_energy": -7.81, "intermolecular_energy": -9.31, "internal_energy": -1.59, "cluster_size": 4, "cluster_id": 3, "rank_in_cluster": 4}

>  <energy>  (76) 
-7.88

>  <cluster_rmsd>  (76) 
1.16

>  <cluster>  (76) 
1

$$$$

     RDKit          3D

 47 50  0  0  0  0  0  0  0  0999 V2000
  140.3280   71.5000  220.9860 O   0  0  0  0  0  0  0  0  0  0  0  0
  140.0430   72.0820  222.0860 C   0  0  0  0  0  0  0  0  0  0  0  0
  139.8160   73.4850  222.1440 N   0  0  0  0  0  0  0  0  0  0  0  0
  139.9070   74.2840  220.9370 C   0  0  0  0  0  0  0  0  0  0  0  0
  140.7740   75.4850  221.1680 C   0  0  0  0  0  0  0  0  0  0  0  0
  140.9240   75.8800  222.3530 O   0  0  0  0  0  0  0  0  0  0  0  0
  141.3760   76.1140  220.0460 N   0  0  0  0  0  0  0  0  0  0  0  0
  141.1120   77.4750  219.5570 C   0  0  0  0  0  0  0  0  0  0  0  0
  142.2590   77.8350  218.6760 C   0  0  0  0  0  0  0  0  0  0  0  0
  143.2840   76.7580  218.9580 C   0  0  0  0  0  0  0  0  0  0  0  0
  142.3570   75.5530  219.1690 C   0  0  1  0  0  0  0  0  0  0  0  0
  143.1870   74.4830  219.7770 C   0  0  0  0  0  0  0  0  0  0  0  0
  144.4450   74.7700  220.2920 C   0  0  0  0  0  0  0  0  0  0  0  0
  145.2190   73.7770  220.8580 C   0  0  0  0  0  0  0  0  0  0  0  0
  144.7950   72.4990  220.9380 N   0  0  0  0  0  0  0  0  0  0  0  0
  143.5860   72.2140  220.4450 C   0  0  0  0  0  0  0  0  0  0  0  0
  142.7760   73.1710  219.8700 C   0  0  0  0  0  0  0  0  0  0  0  0
  139.9420   71.3010  223.3350 C   0  0  0  0  0  0  0  0  0  0  0  0
  139.3420   70.0580  223.2920 C   0  0  0  0  0  0  0  0  0  0  0  0
  139.1970   69.2490  224.4000 C   0  0  0  0  0  0  0  0  0  0  0  0
  139.6970   69.7560  225.6000 C   0  0  0  0  0  0  0  0  0  0  0  0
  139.6080   69.0330  226.7800 C   0  0  0  0  0  0  0  0  0  0  0  0
  140.0970   69.5190  227.9740 C   0  0  0  0  0  0  0  0  0  0  0  0
  139.9930   68.7810  229.1110 F   0  0  0  0  0  0  0  0  0  0  0  0
  140.6970   70.7810  227.9720 C   0  0  0  0  0  0  0  0  0  0  0  0
  140.7940   71.5170  226.8100 C   0  0  0  0  0  0  0  0  0  0  0  0
  140.2980   71.0150  225.6190 C   0  0  0  0  0  0  0  0  0  0  0  0
  140.4140   71.7650  224.5050 N   0  0  0  0  0  0  0  0  0  0  0  0
  139.5810   73.9620  223.0510 H   0  0  0  0  0  0  0  0  0  0  0  0
  140.3404   73.6741  220.1307 H   0  0  0  0  0  0  0  0  0  0  0  0
  138.8984   74.6214  220.6561 H   0  0  0  0  0  0  0  0  0  0  0  0
  140.1719   77.4986  218.9864 H   0  0  0  0  0  0  0  0  0  0  0  0
  141.0107   78.1857  220.3904 H   0  0  0  0  0  0  0  0  0  0  0  0
  141.9590   77.8228  217.6178 H   0  0  0  0  0  0  0  0  0  0  0  0
  142.6423   78.8477  218.8698 H   0  0  0  0  0  0  0  0  0  0  0  0
  143.9618   76.6067  218.1049 H   0  0  0  0  0  0  0  0  0  0  0  0
  143.9614   76.9729  219.7976 H   0  0  0  0  0  0  0  0  0  0  0  0
  141.8816   75.0984  218.2873 H   0  0  0  0  0  0  0  0  0  0  0  0
  144.8286   75.8000  220.2483 H   0  0  0  0  0  0  0  0  0  0  0  0
  146.2114   74.0357  221.2558 H   0  0  0  0  0  0  0  0  0  0  0  0
  143.2231   71.1770  220.4999 H   0  0  0  0  0  0  0  0  0  0  0  0
  141.7885   72.8829  219.4804 H   0  0  0  0  0  0  0  0  0  0  0  0
  138.9607   69.6949  222.3262 H   0  0  0  0  0  0  0  0  0  0  0  0
  138.7153   68.2618  224.3409 H   0  0  0  0  0  0  0  0  0  0  0  0
  139.1326   68.0412  226.7629 H   0  0  0  0  0  0  0  0  0  0  0  0
  141.0974   71.1929  228.9101 H   0  0  0  0  0  0  0  0  0  0  0  0
  141.2685   72.5092  226.8295 H   0  0  0  0  0  0  0  0  0  0  0  0
  1  2  2  0
  2  3  1  0
  3  4  1  0
  4  5  1  0
  5  6  2  0
  5  7  1  0
  7  8  1  0
  8  9  1  0
  9 10  1  0
 10 11  1  0
 11 12  1  0
 12 13  2  0
 13 14  1  0
 14 15  2  0
 15 16  1  0
 16 17  2  0
  2 18  1  0
 18 19  2  0
 19 20  1  0
 20 21  2  0
 21 22  1  0
 22 23  2  0
 23 24  1  0
 23 25  1  0
 25 26  2  0
 26 27  1  0
 27 28  2  0
 11  7  1  0
 17 12  1  0
 28 18  1  0
 27 21  1  0
  3 29  1  0
  4 30  1  0
  4 31  1  0
  8 32  1  0
  8 33  1  0
  9 34  1  0
  9 35  1  0
 10 36  1  0
 10 37  1  0
 11 38  1  6
 13 39  1  0
 14 40  1  0
 16 41  1  0
 17 42  1  0
 19 43  1  0
 20 44  1  0
 22 45  1  0
 25 46  1  0
 26 47  1  0
M  END
>  <smiles>  (77) 
O=C(NCC(=O)N1CCCC1c1ccncc1)c1ccc2cc(F)ccc2n1

>  <score_type>  (77) 
oracle

>  <origin>  (77) 
autodockgpu

>  <m_score__min__energy>  (77) 
-8.2200000000000006

>  <m_primary>  (77) 
energy

>  <rmsd>  (77) 
2.0241821296094074

>  <m_score__min__rmsd>  (77) 
2.0241821296094074

>  <meeko>  (77) 
{"free_energy": -7.91, "intermolecular_energy": -9.4, "internal_energy": -1.89, "cluster_size": 32, "cluster_id": 1, "rank_in_cluster": 19}

>  <energy>  (77) 
-7.86

>  <cluster_rmsd>  (77) 
1.17

>  <cluster>  (77) 
1

$$$$

     RDKit          3D

 47 50  0  0  0  0  0  0  0  0999 V2000
  140.9000   71.5000  221.2240 O   0  0  0  0  0  0  0  0  0  0  0  0
  140.3980   72.0490  222.2620 C   0  0  0  0  0  0  0  0  0  0  0  0
  140.0020   73.4160  222.2560 N   0  0  0  0  0  0  0  0  0  0  0  0
  140.1650   74.2120  221.0550 C   0  0  0  0  0  0  0  0  0  0  0  0
  140.4360   75.6430  221.4090 C   0  0  0  0  0  0  0  0  0  0  0  0
  139.9670   76.0780  222.4920 O   0  0  0  0  0  0  0  0  0  0  0  0
  141.2010   76.4330  220.5090 N   0  0  0  0  0  0  0  0  0  0  0  0
  141.5080   76.1140  219.1070 C   0  0  0  0  0  0  0  0  0  0  0  0
  141.9300   77.3940  218.4690 C   0  0  0  0  0  0  0  0  0  0  0  0
  141.5400   78.4490  219.4820 C   0  0  0  0  0  0  0  0  0  0  0  0
  141.8250   77.6900  220.7850 C   0  0  1  0  0  0  0  0  0  0  0  0
  141.1870   78.4690  221.8750 C   0  0  0  0  0  0  0  0  0  0  0  0
  139.9250   79.0230  221.7040 C   0  0  0  0  0  0  0  0  0  0  0  0
  139.3290   79.7470  222.7170 C   0  0  0  0  0  0  0  0  0  0  0  0
  139.9360   79.9470  223.9050 N   0  0  0  0  0  0  0  0  0  0  0  0
  141.1500   79.4170  224.0780 C   0  0  0  0  0  0  0  0  0  0  0  0
  141.7870   78.6860  223.0970 C   0  0  0  0  0  0  0  0  0  0  0  0
  140.2180   71.2700  223.5020 C   0  0  0  0  0  0  0  0  0  0  0  0
  139.5580   70.0590  223.4330 C   0  0  0  0  0  0  0  0  0  0  0  0
  139.3360   69.2540  224.5310 C   0  0  0  0  0  0  0  0  0  0  0  0
  139.8230   69.7300  225.7500 C   0  0  0  0  0  0  0  0  0  0  0  0
  139.6600   69.0090  226.9220 C   0  0  0  0  0  0  0  0  0  0  0  0
  140.1340   69.4640  228.1330 C   0  0  0  0  0  0  0  0  0  0  0  0
  139.9570   68.7280  229.2630 F   0  0  0  0  0  0  0  0  0  0  0  0
  140.7970   70.6940  228.1580 C   0  0  0  0  0  0  0  0  0  0  0  0
  140.9690   71.4280  227.0030 C   0  0  0  0  0  0  0  0  0  0  0  0
  140.4870   70.9570  225.7940 C   0  0  0  0  0  0  0  0  0  0  0  0
  140.6760   71.7040  224.6890 N   0  0  0  0  0  0  0  0  0  0  0  0
  139.5900   73.8670  223.1110 H   0  0  0  0  0  0  0  0  0  0  0  0
  141.0090   73.8172  220.4704 H   0  0  0  0  0  0  0  0  0  0  0  0
  139.2386   74.1600  220.4642 H   0  0  0  0  0  0  0  0  0  0  0  0
  142.3216   75.3756  219.0538 H   0  0  0  0  0  0  0  0  0  0  0  0
  140.6358   75.6809  218.5954 H   0  0  0  0  0  0  0  0  0  0  0  0
  143.0155   77.4039  218.2912 H   0  0  0  0  0  0  0  0  0  0  0  0
  141.4615   77.5541  217.4867 H   0  0  0  0  0  0  0  0  0  0  0  0
  142.1626   79.3513  219.3912 H   0  0  0  0  0  0  0  0  0  0  0  0
  140.5118   78.8272  219.3829 H   0  0  0  0  0  0  0  0  0  0  0  0
  142.8722   77.5500  221.0911 H   0  0  0  0  0  0  0  0  0  0  0  0
  139.3944   78.8833  220.7506 H   0  0  0  0  0  0  0  0  0  0  0  0
  138.3289   80.1737  222.5505 H   0  0  0  0  0  0  0  0  0  0  0  0
  141.6613   79.5694  225.0399 H   0  0  0  0  0  0  0  0  0  0  0  0
  142.7867   78.2708  223.2923 H   0  0  0  0  0  0  0  0  0  0  0  0
  139.1909   69.7192  222.4533 H   0  0  0  0  0  0  0  0  0  0  0  0
  138.8063   68.2933  224.4509 H   0  0  0  0  0  0  0  0  0  0  0  0
  139.1356   68.0428  226.8843 H   0  0  0  0  0  0  0  0  0  0  0  0
  141.1866   71.0816  229.1109 H   0  0  0  0  0  0  0  0  0  0  0  0
  141.4929   72.3944  227.0430 H   0  0  0  0  0  0  0  0  0  0  0  0
  1  2  2  0
  2  3  1  0
  3  4  1  0
  4  5  1  0
  5  6  2  0
  5  7  1  0
  7  8  1  0
  8  9  1  0
  9 10  1  0
 10 11  1  0
 11 12  1  0
 12 13  2  0
 13 14  1  0
 14 15  2  0
 15 16  1  0
 16 17  2  0
  2 18  1  0
 18 19  2  0
 19 20  1  0
 20 21  2  0
 21 22  1  0
 22 23  2  0
 23 24  1  0
 23 25  1  0
 25 26  2  0
 26 27  1  0
 27 28  2  0
 11  7  1  0
 17 12  1  0
 28 18  1  0
 27 21  1  0
  3 29  1  0
  4 30  1  0
  4 31  1  0
  8 32  1  0
  8 33  1  0
  9 34  1  0
  9 35  1  0
 10 36  1  0
 10 37  1  0
 11 38  1  1
 13 39  1  0
 14 40  1  0
 16 41  1  0
 17 42  1  0
 19 43  1  0
 20 44  1  0
 22 45  1  0
 25 46  1  0
 26 47  1  0
M  END
>  <smiles>  (78) 
O=C(NCC(=O)N1CCCC1c1ccncc1)c1ccc2cc(F)ccc2n1

>  <score_type>  (78) 
oracle

>  <origin>  (78) 
autodockgpu

>  <m_score__min__energy>  (78) 
-8.2200000000000006

>  <m_primary>  (78) 
energy

>  <rmsd>  (78) 
1.7405857129449904

>  <m_score__min__rmsd>  (78) 
1.7405857129449904

>  <meeko>  (78) 
{"free_energy": -7.98, "intermolecular_energy": -9.47, "internal_energy": -1.56, "cluster_size": 12, "cluster_id": 2, "rank_in_cluster": 9}

>  <energy>  (78) 
-7.83

>  <cluster_rmsd>  (78) 
1.13

>  <cluster>  (78) 
1

$$$$

     RDKit          3D

 47 50  0  0  0  0  0  0  0  0999 V2000
  140.2280   71.4510  220.9510 O   0  0  0  0  0  0  0  0  0  0  0  0
  139.9970   72.0210  222.0700 C   0  0  0  0  0  0  0  0  0  0  0  0
  139.7960   73.4270  222.1550 N   0  0  0  0  0  0  0  0  0  0  0  0
  139.8500   74.2410  220.9550 C   0  0  0  0  0  0  0  0  0  0  0  0
  140.7510   75.4200  221.1640 C   0  0  0  0  0  0  0  0  0  0  0  0
  140.9400   75.8130  222.3440 O   0  0  0  0  0  0  0  0  0  0  0  0
  141.3430   76.0330  220.0260 N   0  0  0  0  0  0  0  0  0  0  0  0
  141.0340   77.3660  219.4890 C   0  0  0  0  0  0  0  0  0  0  0  0
  142.1760   77.7380  218.6070 C   0  0  0  0  0  0  0  0  0  0  0  0
  143.2370   76.7090  218.9350 C   0  0  0  0  0  0  0  0  0  0  0  0
  142.3520   75.4790  219.1790 C   0  0  1  0  0  0  0  0  0  0  0  0
  143.2140   74.4610  219.8310 C   0  0  0  0  0  0  0  0  0  0  0  0
  144.5020   74.7830  220.2410 C   0  0  0  0  0  0  0  0  0  0  0  0
  145.3050   73.8390  220.8470 C   0  0  0  0  0  0  0  0  0  0  0  0
  144.8830   72.5760  221.0690 N   0  0  0  0  0  0  0  0  0  0  0  0
  143.6460   72.2590  220.6770 C   0  0  0  0  0  0  0  0  0  0  0  0
  142.8050   73.1660  220.0670 C   0  0  0  0  0  0  0  0  0  0  0  0
  139.9360   71.2250  223.3110 C   0  0  0  0  0  0  0  0  0  0  0  0
  139.4290   69.9420  223.2500 C   0  0  0  0  0  0  0  0  0  0  0  0
  139.3280   69.1150  224.3500 C   0  0  0  0  0  0  0  0  0  0  0  0
  139.7720   69.6480  225.5610 C   0  0  0  0  0  0  0  0  0  0  0  0
  139.7180   68.9110  226.7340 C   0  0  0  0  0  0  0  0  0  0  0  0
  140.1520   69.4210  227.9390 C   0  0  0  0  0  0  0  0  0  0  0  0
  140.0850   68.6690  229.0700 F   0  0  0  0  0  0  0  0  0  0  0  0
  140.6580   70.7240  227.9550 C   0  0  0  0  0  0  0  0  0  0  0  0
  140.7180   71.4740  226.8000 C   0  0  0  0  0  0  0  0  0  0  0  0
  140.2780   70.9470  225.5980 C   0  0  0  0  0  0  0  0  0  0  0  0
  140.3550   71.7130  224.4910 N   0  0  0  0  0  0  0  0  0  0  0  0
  139.6070   73.8950  223.0770 H   0  0  0  0  0  0  0  0  0  0  0  0
  140.2346   73.6340  220.1222 H   0  0  0  0  0  0  0  0  0  0  0  0
  138.8373   74.6024  220.7229 H   0  0  0  0  0  0  0  0  0  0  0  0
  140.0996   77.3357  218.9094 H   0  0  0  0  0  0  0  0  0  0  0  0
  140.8977   78.1001  220.2968 H   0  0  0  0  0  0  0  0  0  0  0  0
  141.8877   77.6792  217.5471 H   0  0  0  0  0  0  0  0  0  0  0  0
  142.5201   78.7700  218.7698 H   0  0  0  0  0  0  0  0  0  0  0  0
  143.9284   76.5536  218.0937 H   0  0  0  0  0  0  0  0  0  0  0  0
  143.8978   76.9768  219.7726 H   0  0  0  0  0  0  0  0  0  0  0  0
  141.9025   74.9774  218.3093 H   0  0  0  0  0  0  0  0  0  0  0  0
  144.8854   75.8015  220.0807 H   0  0  0  0  0  0  0  0  0  0  0  0
  146.3205   74.1242  221.1590 H   0  0  0  0  0  0  0  0  0  0  0  0
  143.2839   71.2344  220.8474 H   0  0  0  0  0  0  0  0  0  0  0  0
  141.7950   72.8520  219.7650 H   0  0  0  0  0  0  0  0  0  0  0  0
  139.0887   69.5602  222.2761 H   0  0  0  0  0  0  0  0  0  0  0  0
  138.9214   68.0955  224.2767 H   0  0  0  0  0  0  0  0  0  0  0  0
  139.3164   67.8874  226.7022 H   0  0  0  0  0  0  0  0  0  0  0  0
  141.0131   71.1566  228.9020 H   0  0  0  0  0  0  0  0  0  0  0  0
  141.1182   72.4981  226.8337 H   0  0  0  0  0  0  0  0  0  0  0  0
  1  2  2  0
  2  3  1  0
  3  4  1  0
  4  5  1  0
  5  6  2  0
  5  7  1  0
  7  8  1  0
  8  9  1  0
  9 10  1  0
 10 11  1  0
 11 12  1  0
 12 13  2  0
 13 14  1  0
 14 15  2  0
 15 16  1  0
 16 17  2  0
  2 18  1  0
 18 19  2  0
 19 20  1  0
 20 21  2  0
 21 22  1  0
 22 23  2  0
 23 24  1  0
 23 25  1  0
 25 26  2  0
 26 27  1  0
 27 28  2  0
 11  7  1  0
 17 12  1  0
 28 18  1  0
 27 21  1  0
  3 29  1  0
  4 30  1  0
  4 31  1  0
  8 32  1  0
  8 33  1  0
  9 34  1  0
  9 35  1  0
 10 36  1  0
 10 37  1  0
 11 38  1  6
 13 39  1  0
 14 40  1  0
 16 41  1  0
 17 42  1  0
 19 43  1  0
 20 44  1  0
 22 45  1  0
 25 46  1  0
 26 47  1  0
M  END
>  <smiles>  (79) 
O=C(NCC(=O)N1CCCC1c1ccncc1)c1ccc2cc(F)ccc2n1

>  <score_type>  (79) 
oracle

>  <origin>  (79) 
autodockgpu

>  <m_score__min__energy>  (79) 
-8.2200000000000006

>  <m_primary>  (79) 
energy

>  <rmsd>  (79) 
1.9579152238121287

>  <m_score__min__rmsd>  (79) 
1.9579152238121287

>  <meeko>  (79) 
{"free_energy": -7.86, "intermolecular_energy": -9.35, "internal_energy": -1.89, "cluster_size": 32, "cluster_id": 1, "rank_in_cluster": 27}

>  <energy>  (79) 
-7.8

>  <cluster_rmsd>  (79) 
1.11

>  <cluster>  (79) 
1

$$$$

     RDKit          3D

 47 50  0  0  0  0  0  0  0  0999 V2000
  140.4510   71.5200  221.0010 O   0  0  0  0  0  0  0  0  0  0  0  0
  140.1150   72.0980  222.0900 C   0  0  0  0  0  0  0  0  0  0  0  0
  139.8470   73.4940  222.1330 N   0  0  0  0  0  0  0  0  0  0  0  0
  139.9520   74.2900  220.9250 C   0  0  0  0  0  0  0  0  0  0  0  0
  140.8130   75.4940  221.1650 C   0  0  0  0  0  0  0  0  0  0  0  0
  140.9690   75.8770  222.3520 O   0  0  0  0  0  0  0  0  0  0  0  0
  141.4060   76.1390  220.0450 N   0  0  0  0  0  0  0  0  0  0  0  0
  141.1280   77.5020  219.5710 C   0  0  0  0  0  0  0  0  0  0  0  0
  142.2680   77.8800  218.6880 C   0  0  0  0  0  0  0  0  0  0  0  0
  143.3030   76.8080  218.9560 C   0  0  0  0  0  0  0  0  0  0  0  0
  142.3870   75.5940  219.1590 C   0  0  1  0  0  0  0  0  0  0  0  0
  143.2290   74.5250  219.7530 C   0  0  0  0  0  0  0  0  0  0  0  0
  142.8140   73.2000  219.7220 C   0  0  0  0  0  0  0  0  0  0  0  0
  143.5950   72.2040  220.2740 C   0  0  0  0  0  0  0  0  0  0  0  0
  144.7820   72.4670  220.8590 N   0  0  0  0  0  0  0  0  0  0  0  0
  145.1880   73.7390  220.8920 C   0  0  0  0  0  0  0  0  0  0  0  0
  144.4430   74.7700  220.3560 C   0  0  0  0  0  0  0  0  0  0  0  0
  139.9990   71.3200  223.3390 C   0  0  0  0  0  0  0  0  0  0  0  0
  139.3920   70.0810  223.2930 C   0  0  0  0  0  0  0  0  0  0  0  0
  139.2320   69.2750  224.4010 C   0  0  0  0  0  0  0  0  0  0  0  0
  139.7250   69.7810  225.6050 C   0  0  0  0  0  0  0  0  0  0  0  0
  139.6210   69.0610  226.7850 C   0  0  0  0  0  0  0  0  0  0  0  0
  140.1020   69.5460  227.9820 C   0  0  0  0  0  0  0  0  0  0  0  0
  139.9840   68.8110  229.1200 F   0  0  0  0  0  0  0  0  0  0  0  0
  140.7100   70.8050  227.9830 C   0  0  0  0  0  0  0  0  0  0  0  0
  140.8220   71.5370  226.8210 C   0  0  0  0  0  0  0  0  0  0  0  0
  140.3340   71.0360  225.6260 C   0  0  0  0  0  0  0  0  0  0  0  0
  140.4640   71.7840  224.5120 N   0  0  0  0  0  0  0  0  0  0  0  0
  139.5720   73.9690  223.0300 H   0  0  0  0  0  0  0  0  0  0  0  0
  140.3978   73.6792  220.1261 H   0  0  0  0  0  0  0  0  0  0  0  0
  138.9464   74.6239  220.6294 H   0  0  0  0  0  0  0  0  0  0  0  0
  140.1849   77.5233  219.0052 H   0  0  0  0  0  0  0  0  0  0  0  0
  141.0245   78.2037  220.4117 H   0  0  0  0  0  0  0  0  0  0  0  0
  141.9634   77.8752  217.6310 H   0  0  0  0  0  0  0  0  0  0  0  0
  142.6439   78.8941  218.8891 H   0  0  0  0  0  0  0  0  0  0  0  0
  143.9787   76.6702  218.0990 H   0  0  0  0  0  0  0  0  0  0  0  0
  143.9818   77.0203  219.7951 H   0  0  0  0  0  0  0  0  0  0  0  0
  141.9111   75.1435  218.2755 H   0  0  0  0  0  0  0  0  0  0  0  0
  141.8533   72.9413  219.2529 H   0  0  0  0  0  0  0  0  0  0  0  0
  143.2384   71.1641  220.2356 H   0  0  0  0  0  0  0  0  0  0  0  0
  146.1532   73.9740  221.3645 H   0  0  0  0  0  0  0  0  0  0  0  0
  144.8237   75.8006  220.4111 H   0  0  0  0  0  0  0  0  0  0  0  0
  139.0172   69.7183  222.3245 H   0  0  0  0  0  0  0  0  0  0  0  0
  138.7443   68.2909  224.3394 H   0  0  0  0  0  0  0  0  0  0  0  0
  139.1397   68.0721  226.7654 H   0  0  0  0  0  0  0  0  0  0  0  0
  141.1042   71.2166  228.9239 H   0  0  0  0  0  0  0  0  0  0  0  0
  141.3025   72.5263  226.8429 H   0  0  0  0  0  0  0  0  0  0  0  0
  1  2  2  0
  2  3  1  0
  3  4  1  0
  4  5  1  0
  5  6  2  0
  5  7  1  0
  7  8  1  0
  8  9  1  0
  9 10  1  0
 10 11  1  0
 11 12  1  0
 12 13  2  0
 13 14  1  0
 14 15  2  0
 15 16  1  0
 16 17  2  0
  2 18  1  0
 18 19  2  0
 19 20  1  0
 20 21  2  0
 21 22  1  0
 22 23  2  0
 23 24  1  0
 23 25  1  0
 25 26  2  0
 26 27  1  0
 27 28  2  0
 11  7  1  0
 17 12  1  0
 28 18  1  0
 27 21  1  0
  3 29  1  0
  4 30  1  0
  4 31  1  0
  8 32  1  0
  8 33  1  0
  9 34  1  0
  9 35  1  0
 10 36  1  0
 10 37  1  0
 11 38  1  6
 13 39  1  0
 14 40  1  0
 16 41  1  0
 17 42  1  0
 19 43  1  0
 20 44  1  0
 22 45  1  0
 25 46  1  0
 26 47  1  0
M  END
>  <smiles>  (80) 
O=C(NCC(=O)N1CCCC1c1ccncc1)c1ccc2cc(F)ccc2n1

>  <score_type>  (80) 
oracle

>  <origin>  (80) 
autodockgpu

>  <m_score__min__energy>  (80) 
-8.2200000000000006

>  <m_primary>  (80) 
energy

>  <rmsd>  (80) 
2.047285611528687

>  <m_score__min__rmsd>  (80) 
2.047285611528687

>  <meeko>  (80) 
{"free_energy": -7.89, "intermolecular_energy": -9.38, "internal_energy": -1.88, "cluster_size": 32, "cluster_id": 1, "rank_in_cluster": 25}

>  <energy>  (80) 
-7.78

>  <cluster_rmsd>  (80) 
1.15

>  <cluster>  (80) 
1

$$$$

     RDKit          3D

 47 50  0  0  0  0  0  0  0  0999 V2000
  140.7780   71.8160  221.1540 O   0  0  0  0  0  0  0  0  0  0  0  0
  140.3170   72.3290  222.2290 C   0  0  0  0  0  0  0  0  0  0  0  0
  139.9450   73.7010  222.2910 N   0  0  0  0  0  0  0  0  0  0  0  0
  140.0870   74.5440  221.1200 C   0  0  0  0  0  0  0  0  0  0  0  0
  140.7060   75.8570  221.4930 C   0  0  0  0  0  0  0  0  0  0  0  0
  140.6160   76.2290  222.6910 O   0  0  0  0  0  0  0  0  0  0  0  0
  141.3590   76.6120  220.4820 N   0  0  0  0  0  0  0  0  0  0  0  0
  141.5210   76.2310  219.0710 C   0  0  0  0  0  0  0  0  0  0  0  0
  141.8510   77.4840  218.3340 C   0  0  0  0  0  0  0  0  0  0  0  0
  141.5520   78.5820  219.3330 C   0  0  0  0  0  0  0  0  0  0  0  0
  141.9870   77.8880  220.6310 C   0  0  1  0  0  0  0  0  0  0  0  0
  141.4540   78.7100  221.7470 C   0  0  0  0  0  0  0  0  0  0  0  0
  140.1330   79.1370  221.7430 C   0  0  0  0  0  0  0  0  0  0  0  0
  139.6360   79.9020  222.7790 C   0  0  0  0  0  0  0  0  0  0  0  0
  140.3990   80.2640  223.8310 N   0  0  0  0  0  0  0  0  0  0  0  0
  141.6720   79.8570  223.8430 C   0  0  0  0  0  0  0  0  0  0  0  0
  142.2150   79.0930  222.8310 C   0  0  0  0  0  0  0  0  0  0  0  0
  140.1590   71.5010  223.4400 C   0  0  0  0  0  0  0  0  0  0  0  0
  139.4650   70.3110  223.3430 C   0  0  0  0  0  0  0  0  0  0  0  0
  139.2610   69.4650  224.4130 C   0  0  0  0  0  0  0  0  0  0  0  0
  139.8020   69.8750  225.6330 C   0  0  0  0  0  0  0  0  0  0  0  0
  139.6600   69.1080  226.7780 C   0  0  0  0  0  0  0  0  0  0  0  0
  140.1870   69.4980  227.9910 C   0  0  0  0  0  0  0  0  0  0  0  0
  140.0290   68.7180  229.0940 F   0  0  0  0  0  0  0  0  0  0  0  0
  140.8820   70.7100  228.0440 C   0  0  0  0  0  0  0  0  0  0  0  0
  141.0330   71.4890  226.9170 C   0  0  0  0  0  0  0  0  0  0  0  0
  140.4980   71.0820  225.7070 C   0  0  0  0  0  0  0  0  0  0  0  0
  140.6680   71.8720  224.6280 N   0  0  0  0  0  0  0  0  0  0  0  0
  139.5650   74.1220  223.1770 H   0  0  0  0  0  0  0  0  0  0  0  0
  140.7284   74.0370  220.3841 H   0  0  0  0  0  0  0  0  0  0  0  0
  139.0913   74.7283  220.6903 H   0  0  0  0  0  0  0  0  0  0  0  0
  142.3368   75.5008  218.9650 H   0  0  0  0  0  0  0  0  0  0  0  0
  140.6069   75.7639  218.6757 H   0  0  0  0  0  0  0  0  0  0  0  0
  142.9113   77.4987  218.0417 H   0  0  0  0  0  0  0  0  0  0  0  0
  141.2784   77.5913  217.4009 H   0  0  0  0  0  0  0  0  0  0  0  0
  142.1458   79.4866  219.1351 H   0  0  0  0  0  0  0  0  0  0  0  0
  140.5130   78.9433  219.3268 H   0  0  0  0  0  0  0  0  0  0  0  0
  143.0632   77.7752  220.8284 H   0  0  0  0  0  0  0  0  0  0  0  0
  139.4752   78.8627  220.9051 H   0  0  0  0  0  0  0  0  0  0  0  0
  138.5855   80.2264  222.7458 H   0  0  0  0  0  0  0  0  0  0  0  0
  142.3108   80.1420  224.6919 H   0  0  0  0  0  0  0  0  0  0  0  0
  143.2694   78.7852  222.8896 H   0  0  0  0  0  0  0  0  0  0  0  0
  139.0545   70.0236  222.3638 H   0  0  0  0  0  0  0  0  0  0  0  0
  138.7043   68.5218  224.3110 H   0  0  0  0  0  0  0  0  0  0  0  0
  139.1093   68.1577  226.7175 H   0  0  0  0  0  0  0  0  0  0  0  0
  141.3141   71.0464  228.9980 H   0  0  0  0  0  0  0  0  0  0  0  0
  141.5821   72.4401  226.9795 H   0  0  0  0  0  0  0  0  0  0  0  0
  1  2  2  0
  2  3  1  0
  3  4  1  0
  4  5  1  0
  5  6  2  0
  5  7  1  0
  7  8  1  0
  8  9  1  0
  9 10  1  0
 10 11  1  0
 11 12  1  0
 12 13  2  0
 13 14  1  0
 14 15  2  0
 15 16  1  0
 16 17  2  0
  2 18  1  0
 18 19  2  0
 19 20  1  0
 20 21  2  0
 21 22  1  0
 22 23  2  0
 23 24  1  0
 23 25  1  0
 25 26  2  0
 26 27  1  0
 27 28  2  0
 11  7  1  0
 17 12  1  0
 28 18  1  0
 27 21  1  0
  3 29  1  0
  4 30  1  0
  4 31  1  0
  8 32  1  0
  8 33  1  0
  9 34  1  0
  9 35  1  0
 10 36  1  0
 10 37  1  0
 11 38  1  1
 13 39  1  0
 14 40  1  0
 16 41  1  0
 17 42  1  0
 19 43  1  0
 20 44  1  0
 22 45  1  0
 25 46  1  0
 26 47  1  0
M  END
>  <smiles>  (81) 
O=C(NCC(=O)N1CCCC1c1ccncc1)c1ccc2cc(F)ccc2n1

>  <score_type>  (81) 
oracle

>  <origin>  (81) 
autodockgpu

>  <m_score__min__energy>  (81) 
-8.2200000000000006

>  <m_primary>  (81) 
energy

>  <rmsd>  (81) 
1.7825939558319526

>  <m_score__min__rmsd>  (81) 
1.7825939558319526

>  <meeko>  (81) 
{"free_energy": -8.11, "intermolecular_energy": -9.6, "internal_energy": -1.5, "cluster_size": 12, "cluster_id": 2, "rank_in_cluster": 8}

>  <energy>  (81) 
-7.72

>  <cluster_rmsd>  (81) 
1.07

>  <cluster>  (81) 
1

$$$$

     RDKit          3D

 47 50  0  0  0  0  0  0  0  0999 V2000
  140.2740   71.2900  221.0030 O   0  0  0  0  0  0  0  0  0  0  0  0
  140.0960   71.9070  222.1070 C   0  0  0  0  0  0  0  0  0  0  0  0
  140.0030   73.3260  222.1540 N   0  0  0  0  0  0  0  0  0  0  0  0
  140.1110   74.0990  220.9320 C   0  0  0  0  0  0  0  0  0  0  0  0
  140.9040   75.3480  221.1710 C   0  0  0  0  0  0  0  0  0  0  0  0
  141.0360   75.7410  222.3590 O   0  0  0  0  0  0  0  0  0  0  0  0
  141.4630   76.0240  220.0520 N   0  0  0  0  0  0  0  0  0  0  0  0
  141.1110   77.3690  219.5750 C   0  0  0  0  0  0  0  0  0  0  0  0
  142.2300   77.8070  218.6940 C   0  0  0  0  0  0  0  0  0  0  0  0
  143.3230   76.7950  218.9660 C   0  0  0  0  0  0  0  0  0  0  0  0
  142.4750   75.5320  219.1700 C   0  0  1  0  0  0  0  0  0  0  0  0
  143.3730   74.5130  219.7670 C   0  0  0  0  0  0  0  0  0  0  0  0
  143.0630   73.1610  219.6840 C   0  0  0  0  0  0  0  0  0  0  0  0
  143.8970   72.2110  220.2390 C   0  0  0  0  0  0  0  0  0  0  0  0
  145.0370   72.5460  220.8780 N   0  0  0  0  0  0  0  0  0  0  0  0
  145.3420   73.8440  220.9630 C   0  0  0  0  0  0  0  0  0  0  0  0
  144.5420   74.8300  220.4250 C   0  0  0  0  0  0  0  0  0  0  0  0
  139.9830   71.1530  223.3710 C   0  0  0  0  0  0  0  0  0  0  0  0
  139.3830   69.9090  223.3480 C   0  0  0  0  0  0  0  0  0  0  0  0
  139.2260   69.1240  224.4710 C   0  0  0  0  0  0  0  0  0  0  0  0
  139.7150   69.6550  225.6650 C   0  0  0  0  0  0  0  0  0  0  0  0
  139.6140   68.9580  226.8590 C   0  0  0  0  0  0  0  0  0  0  0  0
  140.0920   69.4680  228.0470 C   0  0  0  0  0  0  0  0  0  0  0  0
  139.9760   68.7540  229.1990 F   0  0  0  0  0  0  0  0  0  0  0  0
  140.6920   70.7300  228.0250 C   0  0  0  0  0  0  0  0  0  0  0  0
  140.8020   71.4400  226.8490 C   0  0  0  0  0  0  0  0  0  0  0  0
  140.3170   70.9140  225.6640 C   0  0  0  0  0  0  0  0  0  0  0  0
  140.4440   71.6410  224.5350 N   0  0  0  0  0  0  0  0  0  0  0  0
  139.8570   73.8330  223.0630 H   0  0  0  0  0  0  0  0  0  0  0  0
  140.6126   73.4930  220.1632 H   0  0  0  0  0  0  0  0  0  0  0  0
  139.1012   74.3769  220.5957 H   0  0  0  0  0  0  0  0  0  0  0  0
  140.1694   77.3373  219.0073 H   0  0  0  0  0  0  0  0  0  0  0  0
  140.9669   78.0656  220.4141 H   0  0  0  0  0  0  0  0  0  0  0  0
  141.9283   77.7829  217.6365 H   0  0  0  0  0  0  0  0  0  0  0  0
  142.5487   78.8406  218.8941 H   0  0  0  0  0  0  0  0  0  0  0  0
  144.0069   76.6933  218.1104 H   0  0  0  0  0  0  0  0  0  0  0  0
  143.9876   77.0465  219.8057 H   0  0  0  0  0  0  0  0  0  0  0  0
  142.0267   75.0535  218.2868 H   0  0  0  0  0  0  0  0  0  0  0  0
  142.1432   72.8442  219.1706 H   0  0  0  0  0  0  0  0  0  0  0  0
  143.6237   71.1486  220.1577 H   0  0  0  0  0  0  0  0  0  0  0  0
  146.2665   74.1373  221.4819 H   0  0  0  0  0  0  0  0  0  0  0  0
  144.8409   75.8841  220.5223 H   0  0  0  0  0  0  0  0  0  0  0  0
  139.0120   69.5254  222.3861 H   0  0  0  0  0  0  0  0  0  0  0  0
  138.7433   68.1365  224.4279 H   0  0  0  0  0  0  0  0  0  0  0  0
  139.1374   67.9666  226.8584 H   0  0  0  0  0  0  0  0  0  0  0  0
  141.0815   71.1622  228.9585 H   0  0  0  0  0  0  0  0  0  0  0  0
  141.2785   72.4315  226.8520 H   0  0  0  0  0  0  0  0  0  0  0  0
  1  2  2  0
  2  3  1  0
  3  4  1  0
  4  5  1  0
  5  6  2  0
  5  7  1  0
  7  8  1  0
  8  9  1  0
  9 10  1  0
 10 11  1  0
 11 12  1  0
 12 13  2  0
 13 14  1  0
 14 15  2  0
 15 16  1  0
 16 17  2  0
  2 18  1  0
 18 19  2  0
 19 20  1  0
 20 21  2  0
 21 22  1  0
 22 23  2  0
 23 24  1  0
 23 25  1  0
 25 26  2  0
 26 27  1  0
 27 28  2  0
 11  7  1  0
 17 12  1  0
 28 18  1  0
 27 21  1  0
  3 29  1  0
  4 30  1  0
  4 31  1  0
  8 32  1  0
  8 33  1  0
  9 34  1  0
  9 35  1  0
 10 36  1  0
 10 37  1  0
 11 38  1  6
 13 39  1  0
 14 40  1  0
 16 41  1  0
 17 42  1  0
 19 43  1  0
 20 44  1  0
 22 45  1  0
 25 46  1  0
 26 47  1  0
M  END
>  <smiles>  (82) 
O=C(NCC(=O)N1CCCC1c1ccncc1)c1ccc2cc(F)ccc2n1

>  <score_type>  (82) 
oracle

>  <origin>  (82) 
autodockgpu

>  <m_score__min__energy>  (82) 
-8.2200000000000006

>  <m_primary>  (82) 
energy

>  <rmsd>  (82) 
2.025956537704288

>  <m_score__min__rmsd>  (82) 
2.025956537704288

>  <meeko>  (82) 
{"free_energy": -7.72, "intermolecular_energy": -9.21, "internal_energy": -1.98, "cluster_size": 32, "cluster_id": 1, "rank_in_cluster": 31}

>  <energy>  (82) 
-7.39

>  <cluster_rmsd>  (82) 
1.05

>  <cluster>  (82) 
1

$$$$

     RDKit          3D

 47 50  0  0  0  0  0  0  0  0999 V2000
  140.7410   71.7770  221.1350 O   0  0  0  0  0  0  0  0  0  0  0  0
  140.2900   72.3120  222.2030 C   0  0  0  0  0  0  0  0  0  0  0  0
  139.9390   73.6900  222.2470 N   0  0  0  0  0  0  0  0  0  0  0  0
  140.0910   74.5150  221.0640 C   0  0  0  0  0  0  0  0  0  0  0  0
  140.5980   75.8760  221.4380 C   0  0  0  0  0  0  0  0  0  0  0  0
  140.3470   76.2980  222.5950 O   0  0  0  0  0  0  0  0  0  0  0  0
  141.3300   76.6170  220.4710 N   0  0  0  0  0  0  0  0  0  0  0  0
  141.5650   76.2370  219.0700 C   0  0  0  0  0  0  0  0  0  0  0  0
  141.9730   77.4830  218.3610 C   0  0  0  0  0  0  0  0  0  0  0  0
  141.6450   78.5850  219.3460 C   0  0  0  0  0  0  0  0  0  0  0  0
  141.9820   77.8740  220.6650 C   0  0  1  0  0  0  0  0  0  0  0  0
  141.4060   78.7060  221.7510 C   0  0  0  0  0  0  0  0  0  0  0  0
  142.1820   79.0830  222.8400 C   0  0  0  0  0  0  0  0  0  0  0  0
  141.6490   79.8560  223.8520 C   0  0  0  0  0  0  0  0  0  0  0  0
  140.3680   80.2790  223.8300 N   0  0  0  0  0  0  0  0  0  0  0  0
  139.6150   79.9210  222.7850 C   0  0  0  0  0  0  0  0  0  0  0  0
  140.1010   79.1490  221.7510 C   0  0  0  0  0  0  0  0  0  0  0  0
  140.1220   71.5030  223.4260 C   0  0  0  0  0  0  0  0  0  0  0  0
  139.4280   70.3120  223.3420 C   0  0  0  0  0  0  0  0  0  0  0  0
  139.2150   69.4830  224.4240 C   0  0  0  0  0  0  0  0  0  0  0  0
  139.7460   69.9130  225.6410 C   0  0  0  0  0  0  0  0  0  0  0  0
  139.5950   69.1630  226.7970 C   0  0  0  0  0  0  0  0  0  0  0  0
  140.1130   69.5720  228.0080 C   0  0  0  0  0  0  0  0  0  0  0  0
  139.9460   68.8100  229.1210 F   0  0  0  0  0  0  0  0  0  0  0  0
  140.8090   70.7840  228.0470 C   0  0  0  0  0  0  0  0  0  0  0  0
  140.9690   71.5450  226.9090 C   0  0  0  0  0  0  0  0  0  0  0  0
  140.4430   71.1200  225.7010 C   0  0  0  0  0  0  0  0  0  0  0  0
  140.6220   71.8930  224.6110 N   0  0  0  0  0  0  0  0  0  0  0  0
  139.5680   74.1300  223.1280 H   0  0  0  0  0  0  0  0  0  0  0  0
  140.8064   74.0374  220.3784 H   0  0  0  0  0  0  0  0  0  0  0  0
  139.1117   74.6209  220.5743 H   0  0  0  0  0  0  0  0  0  0  0  0
  142.3650   75.4845  219.0086 H   0  0  0  0  0  0  0  0  0  0  0  0
  140.6634   75.7973  218.6186 H   0  0  0  0  0  0  0  0  0  0  0  0
  143.0490   77.4692  218.1328 H   0  0  0  0  0  0  0  0  0  0  0  0
  141.4606   77.6097  217.3959 H   0  0  0  0  0  0  0  0  0  0  0  0
  142.2744   79.4734  219.1889 H   0  0  0  0  0  0  0  0  0  0  0  0
  140.6186   78.9751  219.2794 H   0  0  0  0  0  0  0  0  0  0  0  0
  143.0408   77.7307  220.9267 H   0  0  0  0  0  0  0  0  0  0  0  0
  143.2326   78.7620  222.8964 H   0  0  0  0  0  0  0  0  0  0  0  0
  142.2883   80.1356  224.7024 H   0  0  0  0  0  0  0  0  0  0  0  0
  138.5676   80.2551  222.7486 H   0  0  0  0  0  0  0  0  0  0  0  0
  139.4379   78.8831  220.9146 H   0  0  0  0  0  0  0  0  0  0  0  0
  139.0252   70.0094  222.3642 H   0  0  0  0  0  0  0  0  0  0  0  0
  138.6591   68.5382  224.3328 H   0  0  0  0  0  0  0  0  0  0  0  0
  139.0448   68.2118  226.7469 H   0  0  0  0  0  0  0  0  0  0  0  0
  141.2346   71.1349  228.9987 H   0  0  0  0  0  0  0  0  0  0  0  0
  141.5184   72.4966  226.9610 H   0  0  0  0  0  0  0  0  0  0  0  0
  1  2  2  0
  2  3  1  0
  3  4  1  0
  4  5  1  0
  5  6  2  0
  5  7  1  0
  7  8  1  0
  8  9  1  0
  9 10  1  0
 10 11  1  0
 11 12  1  0
 12 13  2  0
 13 14  1  0
 14 15  2  0
 15 16  1  0
 16 17  2  0
  2 18  1  0
 18 19  2  0
 19 20  1  0
 20 21  2  0
 21 22  1  0
 22 23  2  0
 23 24  1  0
 23 25  1  0
 25 26  2  0
 26 27  1  0
 27 28  2  0
 11  7  1  0
 17 12  1  0
 28 18  1  0
 27 21  1  0
  3 29  1  0
  4 30  1  0
  4 31  1  0
  8 32  1  0
  8 33  1  0
  9 34  1  0
  9 35  1  0
 10 36  1  0
 10 37  1  0
 11 38  1  1
 13 39  1  0
 14 40  1  0
 16 41  1  0
 17 42  1  0
 19 43  1  0
 20 44  1  0
 22 45  1  0
 25 46  1  0
 26 47  1  0
M  END
>  <smiles>  (83) 
O=C(NCC(=O)N1CCCC1c1ccncc1)c1ccc2cc(F)ccc2n1

>  <score_type>  (83) 
oracle

>  <origin>  (83) 
autodockgpu

>  <m_score__min__energy>  (83) 
-8.2200000000000006

>  <m_primary>  (83) 
energy

>  <rmsd>  (83) 
1.803105663641845

>  <m_score__min__rmsd>  (83) 
1.803105663641845

>  <meeko>  (83) 
{"free_energy": -8.14, "intermolecular_energy": -9.63, "internal_energy": -1.52, "cluster_size": 12, "cluster_id": 2, "rank_in_cluster": 4}

>  <energy>  (83) 
-8.21

>  <cluster_rmsd>  (83) 
0.0

>  <cluster>  (83) 
2

$$$$

     RDKit          3D

 47 50  0  0  0  0  0  0  0  0999 V2000
  139.9700   70.9260  221.3490 O   0  0  0  0  0  0  0  0  0  0  0  0
  139.9590   71.5090  222.4850 C   0  0  0  0  0  0  0  0  0  0  0  0
  139.9620   72.9280  222.5870 N   0  0  0  0  0  0  0  0  0  0  0  0
  139.9760   73.7410  221.3860 C   0  0  0  0  0  0  0  0  0  0  0  0
  141.3800   73.9260  220.8950 C   0  0  0  0  0  0  0  0  0  0  0  0
  142.2020   72.9990  221.1070 O   0  0  0  0  0  0  0  0  0  0  0  0
  141.7100   75.1330  220.2210 N   0  0  0  0  0  0  0  0  0  0  0  0
  141.0210   76.4250  220.3490 C   0  0  0  0  0  0  0  0  0  0  0  0
  141.9630   77.4560  219.8260 C   0  0  0  0  0  0  0  0  0  0  0  0
  143.2800   76.7180  219.7100 C   0  0  0  0  0  0  0  0  0  0  0  0
  142.7750   75.3320  219.2870 C   0  0  1  0  0  0  0  0  0  0  0  0
  143.9180   74.3990  219.4470 C   0  0  0  0  0  0  0  0  0  0  0  0
  144.1220   73.3680  218.5380 C   0  0  0  0  0  0  0  0  0  0  0  0
  145.1850   72.5000  218.6850 C   0  0  0  0  0  0  0  0  0  0  0  0
  146.0640   72.6110  219.7020 N   0  0  0  0  0  0  0  0  0  0  0  0
  145.8750   73.6000  220.5800 C   0  0  0  0  0  0  0  0  0  0  0  0
  144.8290   74.4930  220.4770 C   0  0  0  0  0  0  0  0  0  0  0  0
  139.9460   70.7150  223.7280 C   0  0  0  0  0  0  0  0  0  0  0  0
  139.3580   69.4650  223.7090 C   0  0  0  0  0  0  0  0  0  0  0  0
  139.2920   68.6430  224.8150 C   0  0  0  0  0  0  0  0  0  0  0  0
  139.8620   69.1430  225.9870 C   0  0  0  0  0  0  0  0  0  0  0  0
  139.8550   68.4070  227.1620 C   0  0  0  0  0  0  0  0  0  0  0  0
  140.4120   68.8860  228.3280 C   0  0  0  0  0  0  0  0  0  0  0  0
  140.3880   68.1350  229.4620 F   0  0  0  0  0  0  0  0  0  0  0  0
  140.9970   70.1550  228.3030 C   0  0  0  0  0  0  0  0  0  0  0  0
  141.0140   70.9040  227.1450 C   0  0  0  0  0  0  0  0  0  0  0  0
  140.4490   70.4080  225.9820 C   0  0  0  0  0  0  0  0  0  0  0  0
  140.4860   71.1720  224.8710 N   0  0  0  0  0  0  0  0  0  0  0  0
  139.9540   73.4070  223.5230 H   0  0  0  0  0  0  0  0  0  0  0  0
  139.3818   73.2439  220.6051 H   0  0  0  0  0  0  0  0  0  0  0  0
  139.5470   74.7269  221.6182 H   0  0  0  0  0  0  0  0  0  0  0  0
  140.0933   76.4220  219.7579 H   0  0  0  0  0  0  0  0  0  0  0  0
  140.7454   76.6290  221.3942 H   0  0  0  0  0  0  0  0  0  0  0  0
  141.6333   77.8255  218.8438 H   0  0  0  0  0  0  0  0  0  0  0  0
  142.0277   78.3411  220.4759 H   0  0  0  0  0  0  0  0  0  0  0  0
  143.9322   77.1653  218.9455 H   0  0  0  0  0  0  0  0  0  0  0  0
  143.8971   76.7273  220.6205 H   0  0  0  0  0  0  0  0  0  0  0  0
  142.4215   75.1971  218.2541 H   0  0  0  0  0  0  0  0  0  0  0  0
  143.4293   73.2423  217.6928 H   0  0  0  0  0  0  0  0  0  0  0  0
  145.3195   71.6927  217.9500 H   0  0  0  0  0  0  0  0  0  0  0  0
  146.5806   73.7062  221.4171 H   0  0  0  0  0  0  0  0  0  0  0  0
  144.7204   75.2906  221.2267 H   0  0  0  0  0  0  0  0  0  0  0  0
  138.9207   69.1074  222.7651 H   0  0  0  0  0  0  0  0  0  0  0  0
  138.8178   67.6512  224.7756 H   0  0  0  0  0  0  0  0  0  0  0  0
  139.3905   67.4099  227.1636 H   0  0  0  0  0  0  0  0  0  0  0  0
  141.4499   70.5619  229.2191 H   0  0  0  0  0  0  0  0  0  0  0  0
  141.4790   71.9009  227.1452 H   0  0  0  0  0  0  0  0  0  0  0  0
  1  2  2  0
  2  3  1  0
  3  4  1  0
  4  5  1  0
  5  6  2  0
  5  7  1  0
  7  8  1  0
  8  9  1  0
  9 10  1  0
 10 11  1  0
 11 12  1  0
 12 13  2  0
 13 14  1  0
 14 15  2  0
 15 16  1  0
 16 17  2  0
  2 18  1  0
 18 19  2  0
 19 20  1  0
 20 21  2  0
 21 22  1  0
 22 23  2  0
 23 24  1  0
 23 25  1  0
 25 26  2  0
 26 27  1  0
 27 28  2  0
 11  7  1  0
 17 12  1  0
 28 18  1  0
 27 21  1  0
  3 29  1  0
  4 30  1  0
  4 31  1  0
  8 32  1  0
  8 33  1  0
  9 34  1  0
  9 35  1  0
 10 36  1  0
 10 37  1  0
 11 38  1  6
 13 39  1  0
 14 40  1  0
 16 41  1  0
 17 42  1  0
 19 43  1  0
 20 44  1  0
 22 45  1  0
 25 46  1  0
 26 47  1  0
M  END
>  <smiles>  (84) 
O=C(NCC(=O)N1CCCC1c1ccncc1)c1ccc2cc(F)ccc2n1

>  <score_type>  (84) 
oracle

>  <origin>  (84) 
autodockgpu

>  <m_score__min__energy>  (84) 
-8.2200000000000006

>  <m_primary>  (84) 
energy

>  <rmsd>  (84) 
2.0989082031086705

>  <m_score__min__rmsd>  (84) 
2.0989082031086705

>  <meeko>  (84) 
{"free_energy": -8.19, "intermolecular_energy": -9.68, "internal_energy": -1.3, "cluster_size": 32, "cluster_id": 1, "rank_in_cluster": 2}

>  <energy>  (84) 
-8.19

>  <cluster_rmsd>  (84) 
0.2

>  <cluster>  (84) 
2

$$$$

     RDKit          3D

 47 50  0  0  0  0  0  0  0  0999 V2000
  141.0030   71.8810  221.2480 O   0  0  0  0  0  0  0  0  0  0  0  0
  140.3620   72.3350  222.2550 C   0  0  0  0  0  0  0  0  0  0  0  0
  139.8110   73.6460  222.2500 N   0  0  0  0  0  0  0  0  0  0  0  0
  139.9710   74.4950  221.0850 C   0  0  0  0  0  0  0  0  0  0  0  0
  140.5790   75.8090  221.4750 C   0  0  0  0  0  0  0  0  0  0  0  0
  140.3940   76.2150  222.6510 O   0  0  0  0  0  0  0  0  0  0  0  0
  141.3270   76.5260  220.5030 N   0  0  0  0  0  0  0  0  0  0  0  0
  141.5550   76.1310  219.1060 C   0  0  0  0  0  0  0  0  0  0  0  0
  141.9890   77.3620  218.3870 C   0  0  0  0  0  0  0  0  0  0  0  0
  141.6850   78.4780  219.3630 C   0  0  0  0  0  0  0  0  0  0  0  0
  142.0060   77.7720  220.6870 C   0  0  1  0  0  0  0  0  0  0  0  0
  141.4480   78.6240  221.7670 C   0  0  0  0  0  0  0  0  0  0  0  0
  140.1330   79.0690  221.7080 C   0  0  0  0  0  0  0  0  0  0  0  0
  139.6120   79.8610  222.7110 C   0  0  0  0  0  0  0  0  0  0  0  0
  140.3440   80.2350  223.7810 N   0  0  0  0  0  0  0  0  0  0  0  0
  141.6090   79.8110  223.8450 C   0  0  0  0  0  0  0  0  0  0  0  0
  142.1760   79.0190  222.8680 C   0  0  0  0  0  0  0  0  0  0  0  0
  140.1800   71.4990  223.4580 C   0  0  0  0  0  0  0  0  0  0  0  0
  139.4590   70.3270  223.3470 C   0  0  0  0  0  0  0  0  0  0  0  0
  139.2300   69.4760  224.4080 C   0  0  0  0  0  0  0  0  0  0  0  0
  139.7750   69.8620  225.6340 C   0  0  0  0  0  0  0  0  0  0  0  0
  139.6110   69.0880  226.7720 C   0  0  0  0  0  0  0  0  0  0  0  0
  140.1420   69.4540  227.9900 C   0  0  0  0  0  0  0  0  0  0  0  0
  139.9610   68.6680  229.0850 F   0  0  0  0  0  0  0  0  0  0  0  0
  140.8650   70.6480  228.0570 C   0  0  0  0  0  0  0  0  0  0  0  0
  141.0390   71.4340  226.9380 C   0  0  0  0  0  0  0  0  0  0  0  0
  140.4990   71.0510  225.7220 C   0  0  0  0  0  0  0  0  0  0  0  0
  140.6930   71.8480  224.6510 N   0  0  0  0  0  0  0  0  0  0  0  0
  139.2840   74.0190  223.0800 H   0  0  0  0  0  0  0  0  0  0  0  0
  140.6272   73.9935  220.3585 H   0  0  0  0  0  0  0  0  0  0  0  0
  138.9825   74.6779  220.6385 H   0  0  0  0  0  0  0  0  0  0  0  0
  142.3394   75.3617  219.0512 H   0  0  0  0  0  0  0  0  0  0  0  0
  140.6445   75.7069  218.6575 H   0  0  0  0  0  0  0  0  0  0  0  0
  143.0643   77.3236  218.1586 H   0  0  0  0  0  0  0  0  0  0  0  0
  141.4791   77.4918  217.4210 H   0  0  0  0  0  0  0  0  0  0  0  0
  142.3334   79.3513  219.1988 H   0  0  0  0  0  0  0  0  0  0  0  0
  140.6671   78.8890  219.2930 H   0  0  0  0  0  0  0  0  0  0  0  0
  143.0617   77.6094  220.9499 H   0  0  0  0  0  0  0  0  0  0  0  0
  139.5008   78.7871  220.8531 H   0  0  0  0  0  0  0  0  0  0  0  0
  138.5675   80.1978  222.6358 H   0  0  0  0  0  0  0  0  0  0  0  0
  142.2221   80.1045  224.7098 H   0  0  0  0  0  0  0  0  0  0  0  0
  143.2234   78.6986  222.9694 H   0  0  0  0  0  0  0  0  0  0  0  0
  139.0465   70.0584  222.3633 H   0  0  0  0  0  0  0  0  0  0  0  0
  138.6516   68.5472  224.2948 H   0  0  0  0  0  0  0  0  0  0  0  0
  139.0386   68.1514  226.7007 H   0  0  0  0  0  0  0  0  0  0  0  0
  141.3012   70.9650  229.0158 H   0  0  0  0  0  0  0  0  0  0  0  0
  141.6103   72.3711  227.0116 H   0  0  0  0  0  0  0  0  0  0  0  0
  1  2  2  0
  2  3  1  0
  3  4  1  0
  4  5  1  0
  5  6  2  0
  5  7  1  0
  7  8  1  0
  8  9  1  0
  9 10  1  0
 10 11  1  0
 11 12  1  0
 12 13  2  0
 13 14  1  0
 14 15  2  0
 15 16  1  0
 16 17  2  0
  2 18  1  0
 18 19  2  0
 19 20  1  0
 20 21  2  0
 21 22  1  0
 22 23  2  0
 23 24  1  0
 23 25  1  0
 25 26  2  0
 26 27  1  0
 27 28  2  0
 11  7  1  0
 17 12  1  0
 28 18  1  0
 27 21  1  0
  3 29  1  0
  4 30  1  0
  4 31  1  0
  8 32  1  0
  8 33  1  0
  9 34  1  0
  9 35  1  0
 10 36  1  0
 10 37  1  0
 11 38  1  1
 13 39  1  0
 14 40  1  0
 16 41  1  0
 17 42  1  0
 19 43  1  0
 20 44  1  0
 22 45  1  0
 25 46  1  0
 26 47  1  0
M  END
>  <smiles>  (85) 
O=C(NCC(=O)N1CCCC1c1ccncc1)c1ccc2cc(F)ccc2n1

>  <score_type>  (85) 
oracle

>  <origin>  (85) 
autodockgpu

>  <m_score__min__energy>  (85) 
-8.2200000000000006

>  <m_primary>  (85) 
energy

>  <rmsd>  (85) 
1.7691394594363594

>  <m_score__min__rmsd>  (85) 
1.7691394594363594

>  <meeko>  (85) 
{"free_energy": -8.18, "intermolecular_energy": -9.68, "internal_energy": -1.36, "cluster_size": 12, "cluster_id": 2, "rank_in_cluster": 3}

>  <energy>  (85) 
-8.18

>  <cluster_rmsd>  (85) 
0.22

>  <cluster>  (85) 
2

$$$$

     RDKit          3D

 47 50  0  0  0  0  0  0  0  0999 V2000
  140.3370   71.6640  221.0030 O   0  0  0  0  0  0  0  0  0  0  0  0
  140.0600   72.2260  222.1160 C   0  0  0  0  0  0  0  0  0  0  0  0
  139.8080   73.6240  222.1950 N   0  0  0  0  0  0  0  0  0  0  0  0
  139.8610   74.4390  220.9970 C   0  0  0  0  0  0  0  0  0  0  0  0
  140.8270   75.5720  221.1770 C   0  0  0  0  0  0  0  0  0  0  0  0
  141.0700   75.9540  222.3500 O   0  0  0  0  0  0  0  0  0  0  0  0
  141.4140   76.1540  220.0210 N   0  0  0  0  0  0  0  0  0  0  0  0
  141.1280   77.4860  219.4700 C   0  0  0  0  0  0  0  0  0  0  0  0
  142.2640   77.8180  218.5650 C   0  0  0  0  0  0  0  0  0  0  0  0
  143.3060   76.7700  218.8910 C   0  0  0  0  0  0  0  0  0  0  0  0
  142.3970   75.5640  219.1670 C   0  0  1  0  0  0  0  0  0  0  0  0
  143.2450   74.5360  219.8200 C   0  0  0  0  0  0  0  0  0  0  0  0
  144.5280   74.8480  220.2510 C   0  0  0  0  0  0  0  0  0  0  0  0
  145.3190   73.8930  220.8590 C   0  0  0  0  0  0  0  0  0  0  0  0
  144.8880   72.6310  221.0610 N   0  0  0  0  0  0  0  0  0  0  0  0
  143.6550   72.3230  220.6490 C   0  0  0  0  0  0  0  0  0  0  0  0
  142.8270   73.2400  220.0360 C   0  0  0  0  0  0  0  0  0  0  0  0
  139.9980   71.4280  223.3560 C   0  0  0  0  0  0  0  0  0  0  0  0
  139.4560   70.1590  223.3000 C   0  0  0  0  0  0  0  0  0  0  0  0
  139.3500   69.3330  224.3990 C   0  0  0  0  0  0  0  0  0  0  0  0
  139.8290   69.8490  225.6050 C   0  0  0  0  0  0  0  0  0  0  0  0
  139.7750   69.1110  226.7770 C   0  0  0  0  0  0  0  0  0  0  0  0
  140.2430   69.6060  227.9750 C   0  0  0  0  0  0  0  0  0  0  0  0
  140.1750   68.8520  229.1050 F   0  0  0  0  0  0  0  0  0  0  0  0
  140.7840   70.8940  227.9860 C   0  0  0  0  0  0  0  0  0  0  0  0
  140.8450   71.6460  226.8320 C   0  0  0  0  0  0  0  0  0  0  0  0
  140.3710   71.1340  225.6360 C   0  0  0  0  0  0  0  0  0  0  0  0
  140.4500   71.9010  224.5300 N   0  0  0  0  0  0  0  0  0  0  0  0
  139.5810   74.0850  223.1120 H   0  0  0  0  0  0  0  0  0  0  0  0
  140.1857   73.8171  220.1498 H   0  0  0  0  0  0  0  0  0  0  0  0
  138.8601   74.8514  220.8018 H   0  0  0  0  0  0  0  0  0  0  0  0
  140.1839   77.4699  218.9057 H   0  0  0  0  0  0  0  0  0  0  0  0
  141.0221   78.2345  220.2691 H   0  0  0  0  0  0  0  0  0  0  0  0
  141.9574   77.7506  217.5108 H   0  0  0  0  0  0  0  0  0  0  0  0
  142.6345   78.8439  218.7074 H   0  0  0  0  0  0  0  0  0  0  0  0
  143.9800   76.5867  218.0412 H   0  0  0  0  0  0  0  0  0  0  0  0
  143.9862   77.0344  219.7141 H   0  0  0  0  0  0  0  0  0  0  0  0
  141.9226   75.0600  218.3121 H   0  0  0  0  0  0  0  0  0  0  0  0
  144.9181   75.8663  220.1066 H   0  0  0  0  0  0  0  0  0  0  0  0
  146.3313   74.1700  221.1885 H   0  0  0  0  0  0  0  0  0  0  0  0
  143.2859   71.2985  220.8047 H   0  0  0  0  0  0  0  0  0  0  0  0
  141.8204   72.9335  219.7154 H   0  0  0  0  0  0  0  0  0  0  0  0
  139.0908   69.7888  222.3307 H   0  0  0  0  0  0  0  0  0  0  0  0
  138.9134   68.3258  224.3298 H   0  0  0  0  0  0  0  0  0  0  0  0
  139.3452   68.0988  226.7501 H   0  0  0  0  0  0  0  0  0  0  0  0
  141.1665   71.3138  228.9280 H   0  0  0  0  0  0  0  0  0  0  0  0
  141.2729   72.6589  226.8616 H   0  0  0  0  0  0  0  0  0  0  0  0
  1  2  2  0
  2  3  1  0
  3  4  1  0
  4  5  1  0
  5  6  2  0
  5  7  1  0
  7  8  1  0
  8  9  1  0
  9 10  1  0
 10 11  1  0
 11 12  1  0
 12 13  2  0
 13 14  1  0
 14 15  2  0
 15 16  1  0
 16 17  2  0
  2 18  1  0
 18 19  2  0
 19 20  1  0
 20 21  2  0
 21 22  1  0
 22 23  2  0
 23 24  1  0
 23 25  1  0
 25 26  2  0
 26 27  1  0
 27 28  2  0
 11  7  1  0
 17 12  1  0
 28 18  1  0
 27 21  1  0
  3 29  1  0
  4 30  1  0
  4 31  1  0
  8 32  1  0
  8 33  1  0
  9 34  1  0
  9 35  1  0
 10 36  1  0
 10 37  1  0
 11 38  1  6
 13 39  1  0
 14 40  1  0
 16 41  1  0
 17 42  1  0
 19 43  1  0
 20 44  1  0
 22 45  1  0
 25 46  1  0
 26 47  1  0
M  END
>  <smiles>  (86) 
O=C(NCC(=O)N1CCCC1c1ccncc1)c1ccc2cc(F)ccc2n1

>  <score_type>  (86) 
oracle

>  <origin>  (86) 
autodockgpu

>  <m_score__min__energy>  (86) 
-8.2200000000000006

>  <m_primary>  (86) 
energy

>  <rmsd>  (86) 
2.037684044120242

>  <m_score__min__rmsd>  (86) 
2.037684044120242

>  <meeko>  (86) 
{"free_energy": -7.94, "intermolecular_energy": -9.43, "internal_energy": -1.86, "cluster_size": 32, "cluster_id": 1, "rank_in_cluster": 9}

>  <energy>  (86) 
-8.14

>  <cluster_rmsd>  (86) 
0.32

>  <cluster>  (86) 
2

$$$$

     RDKit          3D

 47 50  0  0  0  0  0  0  0  0999 V2000
  141.3060   72.2900  221.5290 O   0  0  0  0  0  0  0  0  0  0  0  0
  140.3760   72.5130  222.3750 C   0  0  0  0  0  0  0  0  0  0  0  0
  139.4950   73.6200  222.2300 N   0  0  0  0  0  0  0  0  0  0  0  0
  139.6430   74.5210  221.1030 C   0  0  0  0  0  0  0  0  0  0  0  0
  140.3910   75.7540  221.5130 C   0  0  0  0  0  0  0  0  0  0  0  0
  140.3100   76.1170  222.7140 O   0  0  0  0  0  0  0  0  0  0  0  0
  141.1490   76.4470  220.5300 N   0  0  0  0  0  0  0  0  0  0  0  0
  141.3580   76.0360  219.1350 C   0  0  0  0  0  0  0  0  0  0  0  0
  141.8150   77.2520  218.4040 C   0  0  0  0  0  0  0  0  0  0  0  0
  141.5430   78.3820  219.3740 C   0  0  0  0  0  0  0  0  0  0  0  0
  141.8570   77.6770  220.7010 C   0  0  1  0  0  0  0  0  0  0  0  0
  141.3260   78.5500  221.7780 C   0  0  0  0  0  0  0  0  0  0  0  0
  139.9970   78.9520  221.7710 C   0  0  0  0  0  0  0  0  0  0  0  0
  139.5000   79.7640  222.7720 C   0  0  0  0  0  0  0  0  0  0  0  0
  140.2720   80.1970  223.7900 N   0  0  0  0  0  0  0  0  0  0  0  0
  141.5520   79.8140  223.8040 C   0  0  0  0  0  0  0  0  0  0  0  0
  142.0950   79.0050  222.8280 C   0  0  0  0  0  0  0  0  0  0  0  0
  140.1960   71.6180  223.5350 C   0  0  0  0  0  0  0  0  0  0  0  0
  139.4900   70.4440  223.3610 C   0  0  0  0  0  0  0  0  0  0  0  0
  139.2640   69.5390  224.3780 C   0  0  0  0  0  0  0  0  0  0  0  0
  139.7950   69.8720  225.6250 C   0  0  0  0  0  0  0  0  0  0  0  0
  139.6320   69.0400  226.7220 C   0  0  0  0  0  0  0  0  0  0  0  0
  140.1500   69.3540  227.9610 C   0  0  0  0  0  0  0  0  0  0  0  0
  139.9710   68.5130  229.0150 F   0  0  0  0  0  0  0  0  0  0  0  0
  140.8580   70.5520  228.0920 C   0  0  0  0  0  0  0  0  0  0  0  0
  141.0310   71.3930  227.0130 C   0  0  0  0  0  0  0  0  0  0  0  0
  140.5040   71.0640  225.7760 C   0  0  0  0  0  0  0  0  0  0  0  0
  140.6960   71.9140  224.7470 N   0  0  0  0  0  0  0  0  0  0  0  0
  138.7300   73.8030  222.9270 H   0  0  0  0  0  0  0  0  0  0  0  0
  140.1974   74.0107  220.3016 H   0  0  0  0  0  0  0  0  0  0  0  0
  138.6441   74.8123  220.7461 H   0  0  0  0  0  0  0  0  0  0  0  0
  142.1242   75.2486  219.0807 H   0  0  0  0  0  0  0  0  0  0  0  0
  140.4352   75.6290  218.6958 H   0  0  0  0  0  0  0  0  0  0  0  0
  142.8876   77.1875  218.1688 H   0  0  0  0  0  0  0  0  0  0  0  0
  141.3016   77.3864  217.4405 H   0  0  0  0  0  0  0  0  0  0  0  0
  142.2101   79.2391  219.1994 H   0  0  0  0  0  0  0  0  0  0  0  0
  140.5345   78.8162  219.3078 H   0  0  0  0  0  0  0  0  0  0  0  0
  142.9101   77.4909  220.9585 H   0  0  0  0  0  0  0  0  0  0  0  0
  139.3326   78.6203  220.9595 H   0  0  0  0  0  0  0  0  0  0  0  0
  138.4430   80.0666  222.7380 H   0  0  0  0  0  0  0  0  0  0  0  0
  142.1976   80.1573  224.6258 H   0  0  0  0  0  0  0  0  0  0  0  0
  143.1555   78.7190  222.8880 H   0  0  0  0  0  0  0  0  0  0  0  0
  139.0878   70.2191  222.3622 H   0  0  0  0  0  0  0  0  0  0  0  0
  138.6985   68.6096  224.2154 H   0  0  0  0  0  0  0  0  0  0  0  0
  139.0725   68.1008  226.6004 H   0  0  0  0  0  0  0  0  0  0  0  0
  141.2827   70.8275  229.0686 H   0  0  0  0  0  0  0  0  0  0  0  0
  141.5915   72.3315  227.1361 H   0  0  0  0  0  0  0  0  0  0  0  0
  1  2  2  0
  2  3  1  0
  3  4  1  0
  4  5  1  0
  5  6  2  0
  5  7  1  0
  7  8  1  0
  8  9  1  0
  9 10  1  0
 10 11  1  0
 11 12  1  0
 12 13  2  0
 13 14  1  0
 14 15  2  0
 15 16  1  0
 16 17  2  0
  2 18  1  0
 18 19  2  0
 19 20  1  0
 20 21  2  0
 21 22  1  0
 22 23  2  0
 23 24  1  0
 23 25  1  0
 25 26  2  0
 26 27  1  0
 27 28  2  0
 11  7  1  0
 17 12  1  0
 28 18  1  0
 27 21  1  0
  3 29  1  0
  4 30  1  0
  4 31  1  0
  8 32  1  0
  8 33  1  0
  9 34  1  0
  9 35  1  0
 10 36  1  0
 10 37  1  0
 11 38  1  1
 13 39  1  0
 14 40  1  0
 16 41  1  0
 17 42  1  0
 19 43  1  0
 20 44  1  0
 22 45  1  0
 25 46  1  0
 26 47  1  0
M  END
>  <smiles>  (87) 
O=C(NCC(=O)N1CCCC1c1ccncc1)c1ccc2cc(F)ccc2n1

>  <score_type>  (87) 
oracle

>  <origin>  (87) 
autodockgpu

>  <m_score__min__energy>  (87) 
-8.2200000000000006

>  <m_primary>  (87) 
energy

>  <rmsd>  (87) 
1.6895862833483044

>  <m_score__min__rmsd>  (87) 
1.6895862833483044

>  <meeko>  (87) 
{"free_energy": -8.21, "intermolecular_energy": -9.7, "internal_energy": -1.2, "cluster_size": 12, "cluster_id": 2, "rank_in_cluster": 1}

>  <energy>  (87) 
-8.13

>  <cluster_rmsd>  (87) 
0.32

>  <cluster>  (87) 
2

$$$$

     RDKit          3D

 47 50  0  0  0  0  0  0  0  0999 V2000
  140.2770   71.6800  221.0120 O   0  0  0  0  0  0  0  0  0  0  0  0
  140.0230   72.2300  222.1360 C   0  0  0  0  0  0  0  0  0  0  0  0
  139.7720   73.6270  222.2360 N   0  0  0  0  0  0  0  0  0  0  0  0
  139.8010   74.4550  221.0460 C   0  0  0  0  0  0  0  0  0  0  0  0
  140.8140   75.5510  221.1960 C   0  0  0  0  0  0  0  0  0  0  0  0
  141.0990   75.9300  222.3600 O   0  0  0  0  0  0  0  0  0  0  0  0
  141.3950   76.1030  220.0230 N   0  0  0  0  0  0  0  0  0  0  0  0
  141.0970   77.4160  219.4320 C   0  0  0  0  0  0  0  0  0  0  0  0
  142.2300   77.7310  218.5160 C   0  0  0  0  0  0  0  0  0  0  0  0
  143.2810   76.7010  218.8730 C   0  0  0  0  0  0  0  0  0  0  0  0
  142.3820   75.4970  219.1840 C   0  0  1  0  0  0  0  0  0  0  0  0
  143.2390   74.4950  219.8670 C   0  0  0  0  0  0  0  0  0  0  0  0
  144.5290   74.8240  220.2660 C   0  0  0  0  0  0  0  0  0  0  0  0
  145.3280   73.8940  220.9010 C   0  0  0  0  0  0  0  0  0  0  0  0
  144.9000   72.6420  221.1620 N   0  0  0  0  0  0  0  0  0  0  0  0
  143.6610   72.3180  220.7810 C   0  0  0  0  0  0  0  0  0  0  0  0
  142.8240   73.2110  220.1430 C   0  0  0  0  0  0  0  0  0  0  0  0
  139.9860   71.4180  223.3680 C   0  0  0  0  0  0  0  0  0  0  0  0
  139.4710   70.1390  223.3030 C   0  0  0  0  0  0  0  0  0  0  0  0
  139.3900   69.2990  224.3940 C   0  0  0  0  0  0  0  0  0  0  0  0
  139.8650   69.8140  225.6020 C   0  0  0  0  0  0  0  0  0  0  0  0
  139.8350   69.0620  226.7660 C   0  0  0  0  0  0  0  0  0  0  0  0
  140.3000   69.5550  227.9670 C   0  0  0  0  0  0  0  0  0  0  0  0
  140.2560   68.7880  229.0890 F   0  0  0  0  0  0  0  0  0  0  0  0
  140.8140   70.8550  227.9880 C   0  0  0  0  0  0  0  0  0  0  0  0
  140.8520   71.6190  226.8410 C   0  0  0  0  0  0  0  0  0  0  0  0
  140.3800   71.1090  225.6430 C   0  0  0  0  0  0  0  0  0  0  0  0
  140.4360   71.8890  224.5450 N   0  0  0  0  0  0  0  0  0  0  0  0
  139.5640   74.0780  223.1630 H   0  0  0  0  0  0  0  0  0  0  0  0
  140.0657   73.8331  220.1781 H   0  0  0  0  0  0  0  0  0  0  0  0
  138.8078   74.9047  220.9000 H   0  0  0  0  0  0  0  0  0  0  0  0
  140.1528   77.3746  218.8692 H   0  0  0  0  0  0  0  0  0  0  0  0
  140.9851   78.1871  220.2084 H   0  0  0  0  0  0  0  0  0  0  0  0
  141.9234   77.6297  217.4645 H   0  0  0  0  0  0  0  0  0  0  0  0
  142.5919   78.7638  218.6270 H   0  0  0  0  0  0  0  0  0  0  0  0
  143.9568   76.4983  218.0290 H   0  0  0  0  0  0  0  0  0  0  0  0
  143.9588   76.9950  219.6880 H   0  0  0  0  0  0  0  0  0  0  0  0
  141.9112   74.9657  218.3437 H   0  0  0  0  0  0  0  0  0  0  0  0
  144.9173   75.8351  220.0741 H   0  0  0  0  0  0  0  0  0  0  0  0
  146.3453   74.1833  221.2034 H   0  0  0  0  0  0  0  0  0  0  0  0
  143.2941   71.3010  220.9835 H   0  0  0  0  0  0  0  0  0  0  0  0
  141.8122   72.8930  219.8511 H   0  0  0  0  0  0  0  0  0  0  0  0
  139.1069   69.7712  222.3324 H   0  0  0  0  0  0  0  0  0  0  0  0
  138.9755   68.2830  224.3170 H   0  0  0  0  0  0  0  0  0  0  0  0
  139.4278   68.0407  226.7307 H   0  0  0  0  0  0  0  0  0  0  0  0
  141.1930   71.2737  228.9320 H   0  0  0  0  0  0  0  0  0  0  0  0
  141.2598   72.6400  226.8776 H   0  0  0  0  0  0  0  0  0  0  0  0
  1  2  2  0
  2  3  1  0
  3  4  1  0
  4  5  1  0
  5  6  2  0
  5  7  1  0
  7  8  1  0
  8  9  1  0
  9 10  1  0
 10 11  1  0
 11 12  1  0
 12 13  2  0
 13 14  1  0
 14 15  2  0
 15 16  1  0
 16 17  2  0
  2 18  1  0
 18 19  2  0
 19 20  1  0
 20 21  2  0
 21 22  1  0
 22 23  2  0
 23 24  1  0
 23 25  1  0
 25 26  2  0
 26 27  1  0
 27 28  2  0
 11  7  1  0
 17 12  1  0
 28 18  1  0
 27 21  1  0
  3 29  1  0
  4 30  1  0
  4 31  1  0
  8 32  1  0
  8 33  1  0
  9 34  1  0
  9 35  1  0
 10 36  1  0
 10 37  1  0
 11 38  1  6
 13 39  1  0
 14 40  1  0
 16 41  1  0
 17 42  1  0
 19 43  1  0
 20 44  1  0
 22 45  1  0
 25 46  1  0
 26 47  1  0
M  END
>  <smiles>  (88) 
O=C(NCC(=O)N1CCCC1c1ccncc1)c1ccc2cc(F)ccc2n1

>  <score_type>  (88) 
oracle

>  <origin>  (88) 
autodockgpu

>  <m_score__min__energy>  (88) 
-8.2200000000000006

>  <m_primary>  (88) 
energy

>  <rmsd>  (88) 
2.0042785633642652

>  <m_score__min__rmsd>  (88) 
2.0042785633642652

>  <meeko>  (88) 
{"free_energy": -7.91, "intermolecular_energy": -9.41, "internal_energy": -1.85, "cluster_size": 32, "cluster_id": 1, "rank_in_cluster": 18}

>  <energy>  (88) 
-8.12

>  <cluster_rmsd>  (88) 
0.32

>  <cluster>  (88) 
2

$$$$

     RDKit          3D

 47 50  0  0  0  0  0  0  0  0999 V2000
  141.3720   72.6350  221.6180 O   0  0  0  0  0  0  0  0  0  0  0  0
  140.3500   72.7110  222.3800 C   0  0  0  0  0  0  0  0  0  0  0  0
  139.3600   73.7140  222.1910 N   0  0  0  0  0  0  0  0  0  0  0  0
  139.4990   74.6770  221.1150 C   0  0  0  0  0  0  0  0  0  0  0  0
  140.4870   75.7400  221.4890 C   0  0  0  0  0  0  0  0  0  0  0  0
  140.6720   75.9650  222.7130 O   0  0  0  0  0  0  0  0  0  0  0  0
  141.1600   76.4380  220.4500 N   0  0  0  0  0  0  0  0  0  0  0  0
  141.2780   76.0180  219.0460 C   0  0  0  0  0  0  0  0  0  0  0  0
  141.6590   77.2350  218.2750 C   0  0  0  0  0  0  0  0  0  0  0  0
  141.4340   78.3690  219.2530 C   0  0  0  0  0  0  0  0  0  0  0  0
  141.8540   77.6830  220.5600 C   0  0  1  0  0  0  0  0  0  0  0  0
  141.3840   78.5560  221.6650 C   0  0  0  0  0  0  0  0  0  0  0  0
  142.2730   79.0230  222.6240 C   0  0  0  0  0  0  0  0  0  0  0  0
  141.8380   79.8350  223.6530 C   0  0  0  0  0  0  0  0  0  0  0  0
  140.5470   80.2090  223.7710 N   0  0  0  0  0  0  0  0  0  0  0  0
  139.6860   79.7640  222.8520 C   0  0  0  0  0  0  0  0  0  0  0  0
  140.0710   78.9510  221.8070 C   0  0  0  0  0  0  0  0  0  0  0  0
  140.1750   71.7490  223.4860 C   0  0  0  0  0  0  0  0  0  0  0  0
  139.4830   70.5790  223.2420 C   0  0  0  0  0  0  0  0  0  0  0  0
  139.2630   69.6150  224.2040 C   0  0  0  0  0  0  0  0  0  0  0  0
  139.7860   69.8820  225.4710 C   0  0  0  0  0  0  0  0  0  0  0  0
  139.6270   68.9880  226.5180 C   0  0  0  0  0  0  0  0  0  0  0  0
  140.1360   69.2350  227.7750 C   0  0  0  0  0  0  0  0  0  0  0  0
  139.9620   68.3340  228.7780 F   0  0  0  0  0  0  0  0  0  0  0  0
  140.8300   70.4320  227.9780 C   0  0  0  0  0  0  0  0  0  0  0  0
  140.9970   71.3350  226.9500 C   0  0  0  0  0  0  0  0  0  0  0  0
  140.4800   71.0710  225.6940 C   0  0  0  0  0  0  0  0  0  0  0  0
  140.6660   71.9810  224.7150 N   0  0  0  0  0  0  0  0  0  0  0  0
  138.5190   73.7760  222.8200 H   0  0  0  0  0  0  0  0  0  0  0  0
  139.8484   74.1602  220.2090 H   0  0  0  0  0  0  0  0  0  0  0  0
  138.5222   75.1475  220.9291 H   0  0  0  0  0  0  0  0  0  0  0  0
  142.0533   75.2444  218.9439 H   0  0  0  0  0  0  0  0  0  0  0  0
  140.3344   75.5902  218.6764 H   0  0  0  0  0  0  0  0  0  0  0  0
  142.7135   77.1883  217.9654 H   0  0  0  0  0  0  0  0  0  0  0  0
  141.0768   77.3508  217.3489 H   0  0  0  0  0  0  0  0  0  0  0  0
  142.0704   79.2368  219.0249 H   0  0  0  0  0  0  0  0  0  0  0  0
  140.4150   78.7834  219.2546 H   0  0  0  0  0  0  0  0  0  0  0  0
  142.9261   77.5194  220.7437 H   0  0  0  0  0  0  0  0  0  0  0  0
  143.3351   78.7432  222.5635 H   0  0  0  0  0  0  0  0  0  0  0  0
  142.5658   80.1874  224.3987 H   0  0  0  0  0  0  0  0  0  0  0  0
  138.6289   80.0574  222.9319 H   0  0  0  0  0  0  0  0  0  0  0  0
  139.3206   78.6132  221.0771 H   0  0  0  0  0  0  0  0  0  0  0  0
  139.0875   70.4072  222.2301 H   0  0  0  0  0  0  0  0  0  0  0  0
  138.7083   68.6905  223.9859 H   0  0  0  0  0  0  0  0  0  0  0  0
  139.0773   68.0519  226.3404 H   0  0  0  0  0  0  0  0  0  0  0  0
  141.2479   70.6558  228.9706 H   0  0  0  0  0  0  0  0  0  0  0  0
  141.5450   72.2718  227.1294 H   0  0  0  0  0  0  0  0  0  0  0  0
  1  2  2  0
  2  3  1  0
  3  4  1  0
  4  5  1  0
  5  6  2  0
  5  7  1  0
  7  8  1  0
  8  9  1  0
  9 10  1  0
 10 11  1  0
 11 12  1  0
 12 13  2  0
 13 14  1  0
 14 15  2  0
 15 16  1  0
 16 17  2  0
  2 18  1  0
 18 19  2  0
 19 20  1  0
 20 21  2  0
 21 22  1  0
 22 23  2  0
 23 24  1  0
 23 25  1  0
 25 26  2  0
 26 27  1  0
 27 28  2  0
 11  7  1  0
 17 12  1  0
 28 18  1  0
 27 21  1  0
  3 29  1  0
  4 30  1  0
  4 31  1  0
  8 32  1  0
  8 33  1  0
  9 34  1  0
  9 35  1  0
 10 36  1  0
 10 37  1  0
 11 38  1  6
 13 39  1  0
 14 40  1  0
 16 41  1  0
 17 42  1  0
 19 43  1  0
 20 44  1  0
 22 45  1  0
 25 46  1  0
 26 47  1  0
M  END
>  <smiles>  (89) 
O=C(NCC(=O)N1CCCC1c1ccncc1)c1ccc2cc(F)ccc2n1

>  <score_type>  (89) 
oracle

>  <origin>  (89) 
autodockgpu

>  <m_score__min__energy>  (89) 
-8.2200000000000006

>  <m_primary>  (89) 
energy

>  <rmsd>  (89) 
1.6639901624178233

>  <m_score__min__rmsd>  (89) 
1.6639901624178233

>  <meeko>  (89) 
{"free_energy": -7.98, "intermolecular_energy": -9.47, "internal_energy": -1.24, "cluster_size": 12, "cluster_id": 2, "rank_in_cluster": 10}

>  <energy>  (89) 
-8.12

>  <cluster_rmsd>  (89) 
0.33

>  <cluster>  (89) 
2

$$$$

     RDKit          3D

 47 50  0  0  0  0  0  0  0  0999 V2000
  138.8070   71.4610  221.2830 O   0  0  0  0  0  0  0  0  0  0  0  0
  139.5560   71.8430  222.2440 C   0  0  0  0  0  0  0  0  0  0  0  0
  140.2930   73.0570  222.1670 N   0  0  0  0  0  0  0  0  0  0  0  0
  140.2020   73.8870  220.9810 C   0  0  0  0  0  0  0  0  0  0  0  0
  140.9780   75.1560  221.1690 C   0  0  0  0  0  0  0  0  0  0  0  0
  141.1300   75.5820  222.3420 O   0  0  0  0  0  0  0  0  0  0  0  0
  141.4980   75.8100  220.0200 N   0  0  0  0  0  0  0  0  0  0  0  0
  141.0520   77.0970  219.4670 C   0  0  0  0  0  0  0  0  0  0  0  0
  142.1460   77.5720  218.5730 C   0  0  0  0  0  0  0  0  0  0  0  0
  143.3090   76.6620  218.9090 C   0  0  0  0  0  0  0  0  0  0  0  0
  142.5560   75.3510  219.1740 C   0  0  1  0  0  0  0  0  0  0  0  0
  143.5210   74.4370  219.8350 C   0  0  0  0  0  0  0  0  0  0  0  0
  143.2700   73.0720  219.9010 C   0  0  0  0  0  0  0  0  0  0  0  0
  144.1650   72.2200  220.5150 C   0  0  0  0  0  0  0  0  0  0  0  0
  145.3120   72.6650  221.0690 N   0  0  0  0  0  0  0  0  0  0  0  0
  145.5610   73.9760  221.0090 C   0  0  0  0  0  0  0  0  0  0  0  0
  144.6970   74.8680  220.4080 C   0  0  0  0  0  0  0  0  0  0  0  0
  139.6740   71.0240  223.4650 C   0  0  0  0  0  0  0  0  0  0  0  0
  139.1960   69.7290  223.4430 C   0  0  0  0  0  0  0  0  0  0  0  0
  139.2570   68.8810  224.5290 C   0  0  0  0  0  0  0  0  0  0  0  0
  139.8400   69.4030  225.6850 C   0  0  0  0  0  0  0  0  0  0  0  0
  139.9570   68.6450  226.8390 C   0  0  0  0  0  0  0  0  0  0  0  0
  140.5290   69.1460  227.9890 C   0  0  0  0  0  0  0  0  0  0  0  0
  140.6280   68.3720  229.1020 F   0  0  0  0  0  0  0  0  0  0  0  0
  141.0010   70.4620  227.9670 C   0  0  0  0  0  0  0  0  0  0  0  0
  140.8940   71.2330  226.8300 C   0  0  0  0  0  0  0  0  0  0  0  0
  140.3150   70.7150  225.6830 C   0  0  0  0  0  0  0  0  0  0  0  0
  140.2300   71.5020  224.5920 N   0  0  0  0  0  0  0  0  0  0  0  0
  140.9110   73.3710  222.9580 H   0  0  0  0  0  0  0  0  0  0  0  0
  140.6111   73.3362  220.1212 H   0  0  0  0  0  0  0  0  0  0  0  0
  139.1461   74.1382  220.8020 H   0  0  0  0  0  0  0  0  0  0  0  0
  140.1229   76.9633  218.8935 H   0  0  0  0  0  0  0  0  0  0  0  0
  140.8453   77.8244  220.2658 H   0  0  0  0  0  0  0  0  0  0  0  0
  141.8605   77.4687  217.5157 H   0  0  0  0  0  0  0  0  0  0  0  0
  142.3828   78.6362  218.7195 H   0  0  0  0  0  0  0  0  0  0  0  0
  144.0094   76.5670  218.0661 H   0  0  0  0  0  0  0  0  0  0  0  0
  143.9422   77.0078  219.7394 H   0  0  0  0  0  0  0  0  0  0  0  0
  142.1567   74.7941  218.3135 H   0  0  0  0  0  0  0  0  0  0  0  0
  142.3480   72.6663  219.4591 H   0  0  0  0  0  0  0  0  0  0  0  0
  143.9363   71.1447  220.5540 H   0  0  0  0  0  0  0  0  0  0  0  0
  146.4904   74.3590  221.4558 H   0  0  0  0  0  0  0  0  0  0  0  0
  144.9508   75.9381  220.3861 H   0  0  0  0  0  0  0  0  0  0  0  0
  138.7438   69.3547  222.5127 H   0  0  0  0  0  0  0  0  0  0  0  0
  138.8687   67.8527  224.4867 H   0  0  0  0  0  0  0  0  0  0  0  0
  139.5817   67.6110  226.8375 H   0  0  0  0  0  0  0  0  0  0  0  0
  141.4640   70.8875  228.8695 H   0  0  0  0  0  0  0  0  0  0  0  0
  141.2707   72.2665  226.8331 H   0  0  0  0  0  0  0  0  0  0  0  0
  1  2  2  0
  2  3  1  0
  3  4  1  0
  4  5  1  0
  5  6  2  0
  5  7  1  0
  7  8  1  0
  8  9  1  0
  9 10  1  0
 10 11  1  0
 11 12  1  0
 12 13  2  0
 13 14  1  0
 14 15  2  0
 15 16  1  0
 16 17  2  0
  2 18  1  0
 18 19  2  0
 19 20  1  0
 20 21  2  0
 21 22  1  0
 22 23  2  0
 23 24  1  0
 23 25  1  0
 25 26  2  0
 26 27  1  0
 27 28  2  0
 11  7  1  0
 17 12  1  0
 28 18  1  0
 27 21  1  0
  3 29  1  0
  4 30  1  0
  4 31  1  0
  8 32  1  0
  8 33  1  0
  9 34  1  0
  9 35  1  0
 10 36  1  0
 10 37  1  0
 11 38  1  6
 13 39  1  0
 14 40  1  0
 16 41  1  0
 17 42  1  0
 19 43  1  0
 20 44  1  0
 22 45  1  0
 25 46  1  0
 26 47  1  0
M  END
>  <smiles>  (90) 
O=C(NCC(=O)N1CCCC1c1ccncc1)c1ccc2cc(F)ccc2n1

>  <score_type>  (90) 
oracle

>  <origin>  (90) 
autodockgpu

>  <m_score__min__energy>  (90) 
-8.2200000000000006

>  <m_primary>  (90) 
energy

>  <rmsd>  (90) 
1.9578440983790095

>  <m_score__min__rmsd>  (90) 
1.9578440983790095

>  <meeko>  (90) 
{"free_energy": -7.39, "intermolecular_energy": -8.88, "internal_energy": -1.98, "cluster_size": 32, "cluster_id": 1, "rank_in_cluster": 32}

>  <energy>  (90) 
-8.11

>  <cluster_rmsd>  (90) 
0.32

>  <cluster>  (90) 
2

$$$$

     RDKit          3D

 47 50  0  0  0  0  0  0  0  0999 V2000
  140.3170   71.6390  220.9990 O   0  0  0  0  0  0  0  0  0  0  0  0
  140.0340   72.2050  222.1080 C   0  0  0  0  0  0  0  0  0  0  0  0
  139.7860   73.6040  222.1810 N   0  0  0  0  0  0  0  0  0  0  0  0
  139.8520   74.4150  220.9810 C   0  0  0  0  0  0  0  0  0  0  0  0
  140.8010   75.5600  221.1750 C   0  0  0  0  0  0  0  0  0  0  0  0
  141.0330   75.9360  222.3520 O   0  0  0  0  0  0  0  0  0  0  0  0
  141.3860   76.1600  220.0270 N   0  0  0  0  0  0  0  0  0  0  0  0
  141.1040   77.5030  219.5010 C   0  0  0  0  0  0  0  0  0  0  0  0
  142.2380   77.8450  218.5950 C   0  0  0  0  0  0  0  0  0  0  0  0
  143.2760   76.7840  218.8980 C   0  0  0  0  0  0  0  0  0  0  0  0
  142.3600   75.5790  219.1560 C   0  0  1  0  0  0  0  0  0  0  0  0
  143.2060   74.5340  219.7860 C   0  0  0  0  0  0  0  0  0  0  0  0
  142.7500   73.2270  219.8960 C   0  0  0  0  0  0  0  0  0  0  0  0
  143.5340   72.2540  220.4810 C   0  0  0  0  0  0  0  0  0  0  0  0
  144.7640   72.5220  220.9660 N   0  0  0  0  0  0  0  0  0  0  0  0
  145.2100   73.7770  220.8640 C   0  0  0  0  0  0  0  0  0  0  0  0
  144.4650   74.7850  220.2880 C   0  0  0  0  0  0  0  0  0  0  0  0
  139.9580   71.4110  223.3500 C   0  0  0  0  0  0  0  0  0  0  0  0
  139.4030   70.1480  223.2950 C   0  0  0  0  0  0  0  0  0  0  0  0
  139.2840   69.3260  224.3960 C   0  0  0  0  0  0  0  0  0  0  0  0
  139.7630   69.8400  225.6020 C   0  0  0  0  0  0  0  0  0  0  0  0
  139.6970   69.1060  226.7760 C   0  0  0  0  0  0  0  0  0  0  0  0
  140.1650   69.5990  227.9750 C   0  0  0  0  0  0  0  0  0  0  0  0
  140.0850   68.8480  229.1060 F   0  0  0  0  0  0  0  0  0  0  0  0
  140.7200   70.8810  227.9850 C   0  0  0  0  0  0  0  0  0  0  0  0
  140.7940   71.6290  226.8290 C   0  0  0  0  0  0  0  0  0  0  0  0
  140.3190   71.1190  225.6330 C   0  0  0  0  0  0  0  0  0  0  0  0
  140.4110   71.8820  224.5250 N   0  0  0  0  0  0  0  0  0  0  0  0
  139.5530   74.0690  223.0950 H   0  0  0  0  0  0  0  0  0  0  0  0
  140.2001   73.7939  220.1425 H   0  0  0  0  0  0  0  0  0  0  0  0
  138.8502   74.8147  220.7651 H   0  0  0  0  0  0  0  0  0  0  0  0
  140.1568   77.5017  218.9417 H   0  0  0  0  0  0  0  0  0  0  0  0
  141.0062   78.2379  220.3136 H   0  0  0  0  0  0  0  0  0  0  0  0
  141.9256   77.7979  217.5413 H   0  0  0  0  0  0  0  0  0  0  0  0
  142.6152   78.8662  218.7528 H   0  0  0  0  0  0  0  0  0  0  0  0
  143.9453   76.6119  218.0422 H   0  0  0  0  0  0  0  0  0  0  0  0
  143.9615   77.0293  219.7226 H   0  0  0  0  0  0  0  0  0  0  0  0
  141.8771   75.0941  218.2948 H   0  0  0  0  0  0  0  0  0  0  0  0
  141.7529   72.9646  219.5126 H   0  0  0  0  0  0  0  0  0  0  0  0
  143.1441   71.2280  220.5542 H   0  0  0  0  0  0  0  0  0  0  0  0
  146.2102   74.0160  221.2545 H   0  0  0  0  0  0  0  0  0  0  0  0
  144.8807   75.8017  220.2285 H   0  0  0  0  0  0  0  0  0  0  0  0
  139.0377   69.7792  222.3252 H   0  0  0  0  0  0  0  0  0  0  0  0
  138.8373   68.3231  224.3276 H   0  0  0  0  0  0  0  0  0  0  0  0
  139.2572   68.0981  226.7499 H   0  0  0  0  0  0  0  0  0  0  0  0
  141.1030   71.2992  228.9275 H   0  0  0  0  0  0  0  0  0  0  0  0
  141.2332   72.6371  226.8574 H   0  0  0  0  0  0  0  0  0  0  0  0
  1  2  2  0
  2  3  1  0
  3  4  1  0
  4  5  1  0
  5  6  2  0
  5  7  1  0
  7  8  1  0
  8  9  1  0
  9 10  1  0
 10 11  1  0
 11 12  1  0
 12 13  2  0
 13 14  1  0
 14 15  2  0
 15 16  1  0
 16 17  2  0
  2 18  1  0
 18 19  2  0
 19 20  1  0
 20 21  2  0
 21 22  1  0
 22 23  2  0
 23 24  1  0
 23 25  1  0
 25 26  2  0
 26 27  1  0
 27 28  2  0
 11  7  1  0
 17 12  1  0
 28 18  1  0
 27 21  1  0
  3 29  1  0
  4 30  1  0
  4 31  1  0
  8 32  1  0
  8 33  1  0
  9 34  1  0
  9 35  1  0
 10 36  1  0
 10 37  1  0
 11 38  1  6
 13 39  1  0
 14 40  1  0
 16 41  1  0
 17 42  1  0
 19 43  1  0
 20 44  1  0
 22 45  1  0
 25 46  1  0
 26 47  1  0
M  END
>  <smiles>  (91) 
O=C(NCC(=O)N1CCCC1c1ccncc1)c1ccc2cc(F)ccc2n1

>  <score_type>  (91) 
oracle

>  <origin>  (91) 
autodockgpu

>  <m_score__min__energy>  (91) 
-8.2200000000000006

>  <m_primary>  (91) 
energy

>  <rmsd>  (91) 
2.029338366507409

>  <m_score__min__rmsd>  (91) 
2.029338366507409

>  <meeko>  (91) 
{"free_energy": -7.92, "intermolecular_energy": -9.42, "internal_energy": -1.87, "cluster_size": 32, "cluster_id": 1, "rank_in_cluster": 16}

>  <energy>  (91) 
-7.98

>  <cluster_rmsd>  (91) 
0.39

>  <cluster>  (91) 
2

$$$$

     RDKit          3D

 47 50  0  0  0  0  0  0  0  0999 V2000
  140.3600   71.4770  220.9770 O   0  0  0  0  0  0  0  0  0  0  0  0
  140.0670   72.0630  222.0730 C   0  0  0  0  0  0  0  0  0  0  0  0
  139.8410   73.4670  222.1230 N   0  0  0  0  0  0  0  0  0  0  0  0
  139.9410   74.2610  220.9130 C   0  0  0  0  0  0  0  0  0  0  0  0
  140.7650   75.4890  221.1600 C   0  0  0  0  0  0  0  0  0  0  0  0
  140.8720   75.8950  222.3450 O   0  0  0  0  0  0  0  0  0  0  0  0
  141.3780   76.1300  220.0490 N   0  0  0  0  0  0  0  0  0  0  0  0
  141.1220   77.4980  219.5760 C   0  0  0  0  0  0  0  0  0  0  0  0
  142.2760   77.8640  218.7080 C   0  0  0  0  0  0  0  0  0  0  0  0
  143.2960   76.7800  218.9840 C   0  0  0  0  0  0  0  0  0  0  0  0
  142.3630   75.5760  219.1730 C   0  0  1  0  0  0  0  0  0  0  0  0
  143.1850   74.4950  219.7730 C   0  0  0  0  0  0  0  0  0  0  0  0
  144.4410   74.7710  220.2970 C   0  0  0  0  0  0  0  0  0  0  0  0
  145.2070   73.7670  220.8560 C   0  0  0  0  0  0  0  0  0  0  0  0
  144.7770   72.4910  220.9210 N   0  0  0  0  0  0  0  0  0  0  0  0
  143.5680   72.2180  220.4200 C   0  0  0  0  0  0  0  0  0  0  0  0
  142.7660   73.1840  219.8510 C   0  0  0  0  0  0  0  0  0  0  0  0
  139.9570   71.2880  223.3240 C   0  0  0  0  0  0  0  0  0  0  0  0
  139.3650   70.0420  223.2800 C   0  0  0  0  0  0  0  0  0  0  0  0
  139.2120   69.2370  224.3900 C   0  0  0  0  0  0  0  0  0  0  0  0
  139.6960   69.7530  225.5940 C   0  0  0  0  0  0  0  0  0  0  0  0
  139.5980   69.0350  226.7760 C   0  0  0  0  0  0  0  0  0  0  0  0
  140.0710   69.5290  227.9730 C   0  0  0  0  0  0  0  0  0  0  0  0
  139.9580   68.7960  229.1130 F   0  0  0  0  0  0  0  0  0  0  0  0
  140.6630   70.7950  227.9720 C   0  0  0  0  0  0  0  0  0  0  0  0
  140.7700   71.5250  226.8070 C   0  0  0  0  0  0  0  0  0  0  0  0
  140.2900   71.0150  225.6130 C   0  0  0  0  0  0  0  0  0  0  0  0
  140.4140   71.7610  224.4970 N   0  0  0  0  0  0  0  0  0  0  0  0
  139.6010   73.9490  223.0260 H   0  0  0  0  0  0  0  0  0  0  0  0
  140.4146   73.6596  220.1230 H   0  0  0  0  0  0  0  0  0  0  0  0
  138.9309   74.5658  220.6019 H   0  0  0  0  0  0  0  0  0  0  0  0
  140.1859   77.5325  218.9994 H   0  0  0  0  0  0  0  0  0  0  0  0
  141.0171   78.1986  220.4176 H   0  0  0  0  0  0  0  0  0  0  0  0
  141.9834   77.8655  217.6476 H   0  0  0  0  0  0  0  0  0  0  0  0
  142.6614   78.8729  218.9170 H   0  0  0  0  0  0  0  0  0  0  0  0
  143.9795   76.6370  218.1341 H   0  0  0  0  0  0  0  0  0  0  0  0
  143.9683   76.9819  219.8309 H   0  0  0  0  0  0  0  0  0  0  0  0
  141.8921   75.1338  218.2826 H   0  0  0  0  0  0  0  0  0  0  0  0
  144.8297   75.7996  220.2665 H   0  0  0  0  0  0  0  0  0  0  0  0
  146.1990   74.0163  221.2608 H   0  0  0  0  0  0  0  0  0  0  0  0
  143.1990   71.1827  220.4635 H   0  0  0  0  0  0  0  0  0  0  0  0
  141.7788   72.9051  219.4540 H   0  0  0  0  0  0  0  0  0  0  0  0
  138.9968   69.6723  222.3116 H   0  0  0  0  0  0  0  0  0  0  0  0
  138.7367   68.2468  224.3301 H   0  0  0  0  0  0  0  0  0  0  0  0
  139.1283   68.0405  226.7581 H   0  0  0  0  0  0  0  0  0  0  0  0
  141.0486   71.2146  228.9129 H   0  0  0  0  0  0  0  0  0  0  0  0
  141.2400   72.5193  226.8266 H   0  0  0  0  0  0  0  0  0  0  0  0
  1  2  2  0
  2  3  1  0
  3  4  1  0
  4  5  1  0
  5  6  2  0
  5  7  1  0
  7  8  1  0
  8  9  1  0
  9 10  1  0
 10 11  1  0
 11 12  1  0
 12 13  2  0
 13 14  1  0
 14 15  2  0
 15 16  1  0
 16 17  2  0
  2 18  1  0
 18 19  2  0
 19 20  1  0
 20 21  2  0
 21 22  1  0
 22 23  2  0
 23 24  1  0
 23 25  1  0
 25 26  2  0
 26 27  1  0
 27 28  2  0
 11  7  1  0
 17 12  1  0
 28 18  1  0
 27 21  1  0
  3 29  1  0
  4 30  1  0
  4 31  1  0
  8 32  1  0
  8 33  1  0
  9 34  1  0
  9 35  1  0
 10 36  1  0
 10 37  1  0
 11 38  1  6
 13 39  1  0
 14 40  1  0
 16 41  1  0
 17 42  1  0
 19 43  1  0
 20 44  1  0
 22 45  1  0
 25 46  1  0
 26 47  1  0
M  END
>  <smiles>  (92) 
O=C(NCC(=O)N1CCCC1c1ccncc1)c1ccc2cc(F)ccc2n1

>  <score_type>  (92) 
oracle

>  <origin>  (92) 
autodockgpu

>  <m_score__min__energy>  (92) 
-8.2200000000000006

>  <m_primary>  (92) 
energy

>  <rmsd>  (92) 
2.0374604965729874

>  <m_score__min__rmsd>  (92) 
2.0374604965729874

>  <meeko>  (92) 
{"free_energy": -7.89, "intermolecular_energy": -9.38, "internal_energy": -1.89, "cluster_size": 32, "cluster_id": 1, "rank_in_cluster": 24}

>  <energy>  (92) 
-7.98

>  <cluster_rmsd>  (92) 
0.21

>  <cluster>  (92) 
2

$$$$

     RDKit          3D

 47 50  0  0  0  0  0  0  0  0999 V2000
  140.0360   70.9020  221.3730 O   0  0  0  0  0  0  0  0  0  0  0  0
  139.9900   71.4850  222.5080 C   0  0  0  0  0  0  0  0  0  0  0  0
  139.9680   72.9040  222.6090 N   0  0  0  0  0  0  0  0  0  0  0  0
  139.9980   73.7170  221.4080 C   0  0  0  0  0  0  0  0  0  0  0  0
  141.4100   73.9160  220.9460 C   0  0  0  0  0  0  0  0  0  0  0  0
  142.2430   73.0080  221.1950 O   0  0  0  0  0  0  0  0  0  0  0  0
  141.7350   75.1150  220.2550 N   0  0  0  0  0  0  0  0  0  0  0  0
  141.0570   76.4130  220.3850 C   0  0  0  0  0  0  0  0  0  0  0  0
  141.9940   77.4330  219.8350 C   0  0  0  0  0  0  0  0  0  0  0  0
  143.3040   76.6850  219.7010 C   0  0  0  0  0  0  0  0  0  0  0  0
  142.7820   75.2990  219.2990 C   0  0  1  0  0  0  0  0  0  0  0  0
  143.9230   74.3600  219.4450 C   0  0  0  0  0  0  0  0  0  0  0  0
  144.1220   73.3410  218.5230 C   0  0  0  0  0  0  0  0  0  0  0  0
  145.1820   72.4660  218.6570 C   0  0  0  0  0  0  0  0  0  0  0  0
  146.0630   72.5610  219.6750 N   0  0  0  0  0  0  0  0  0  0  0  0
  145.8780   73.5390  220.5660 C   0  0  0  0  0  0  0  0  0  0  0  0
  144.8340   74.4360  220.4760 C   0  0  0  0  0  0  0  0  0  0  0  0
  139.9600   70.6910  223.7520 C   0  0  0  0  0  0  0  0  0  0  0  0
  139.3290   69.4630  223.7370 C   0  0  0  0  0  0  0  0  0  0  0  0
  139.2440   68.6430  224.8430 C   0  0  0  0  0  0  0  0  0  0  0  0
  139.8400   69.1220  226.0110 C   0  0  0  0  0  0  0  0  0  0  0  0
  139.8180   68.3870  227.1850 C   0  0  0  0  0  0  0  0  0  0  0  0
  140.4010   68.8450  228.3470 C   0  0  0  0  0  0  0  0  0  0  0  0
  140.3610   68.0950  229.4810 F   0  0  0  0  0  0  0  0  0  0  0  0
  141.0290   70.0940  228.3170 C   0  0  0  0  0  0  0  0  0  0  0  0
  141.0620   70.8410  227.1590 C   0  0  0  0  0  0  0  0  0  0  0  0
  140.4710   70.3670  226.0010 C   0  0  0  0  0  0  0  0  0  0  0  0
  140.5250   71.1290  224.8900 N   0  0  0  0  0  0  0  0  0  0  0  0
  139.9310   73.3830  223.5440 H   0  0  0  0  0  0  0  0  0  0  0  0
  139.4250   73.2137  220.6154 H   0  0  0  0  0  0  0  0  0  0  0  0
  139.5541   74.6985  221.6307 H   0  0  0  0  0  0  0  0  0  0  0  0
  140.1178   76.4109  219.8123 H   0  0  0  0  0  0  0  0  0  0  0  0
  140.8038   76.6278  221.4337 H   0  0  0  0  0  0  0  0  0  0  0  0
  141.6478   77.7956  218.8559 H   0  0  0  0  0  0  0  0  0  0  0  0
  142.0764   78.3239  220.4749 H   0  0  0  0  0  0  0  0  0  0  0  0
  143.9450   77.1215  218.9209 H   0  0  0  0  0  0  0  0  0  0  0  0
  143.9379   76.6976  220.5999 H   0  0  0  0  0  0  0  0  0  0  0  0
  142.4074   75.1575  218.2745 H   0  0  0  0  0  0  0  0  0  0  0  0
  143.4280   73.2295  217.6769 H   0  0  0  0  0  0  0  0  0  0  0  0
  145.3122   71.6676  217.9116 H   0  0  0  0  0  0  0  0  0  0  0  0
  146.5852   73.6326  221.4033 H   0  0  0  0  0  0  0  0  0  0  0  0
  144.7273   75.2226  221.2375 H   0  0  0  0  0  0  0  0  0  0  0  0
  138.8715   69.1217  222.7967 H   0  0  0  0  0  0  0  0  0  0  0  0
  138.7360   67.6680  224.8067 H   0  0  0  0  0  0  0  0  0  0  0  0
  139.3193   67.4065  227.1901 H   0  0  0  0  0  0  0  0  0  0  0  0
  141.5028   70.4855  229.2293 H   0  0  0  0  0  0  0  0  0  0  0  0
  141.5617   71.8209  227.1554 H   0  0  0  0  0  0  0  0  0  0  0  0
  1  2  2  0
  2  3  1  0
  3  4  1  0
  4  5  1  0
  5  6  2  0
  5  7  1  0
  7  8  1  0
  8  9  1  0
  9 10  1  0
 10 11  1  0
 11 12  1  0
 12 13  2  0
 13 14  1  0
 14 15  2  0
 15 16  1  0
 16 17  2  0
  2 18  1  0
 18 19  2  0
 19 20  1  0
 20 21  2  0
 21 22  1  0
 22 23  2  0
 23 24  1  0
 23 25  1  0
 25 26  2  0
 26 27  1  0
 27 28  2  0
 11  7  1  0
 17 12  1  0
 28 18  1  0
 27 21  1  0
  3 29  1  0
  4 30  1  0
  4 31  1  0
  8 32  1  0
  8 33  1  0
  9 34  1  0
  9 35  1  0
 10 36  1  0
 10 37  1  0
 11 38  1  6
 13 39  1  0
 14 40  1  0
 16 41  1  0
 17 42  1  0
 19 43  1  0
 20 44  1  0
 22 45  1  0
 25 46  1  0
 26 47  1  0
M  END
>  <smiles>  (93) 
O=C(NCC(=O)N1CCCC1c1ccncc1)c1ccc2cc(F)ccc2n1

>  <score_type>  (93) 
oracle

>  <origin>  (93) 
autodockgpu

>  <m_score__min__energy>  (93) 
-8.2200000000000006

>  <m_primary>  (93) 
energy

>  <rmsd>  (93) 
2.119213218916714

>  <m_score__min__rmsd>  (93) 
2.119213218916714

>  <meeko>  (93) 
{"free_energy": -8.22, "intermolecular_energy": -9.71, "internal_energy": -1.29, "cluster_size": 32, "cluster_id": 1, "rank_in_cluster": 1}

>  <energy>  (93) 
-7.32

>  <cluster_rmsd>  (93) 
1.02

>  <cluster>  (93) 
2

$$$$

     RDKit          3D

 47 50  0  0  0  0  0  0  0  0999 V2000
  140.6670   71.2800  221.1070 O   0  0  0  0  0  0  0  0  0  0  0  0
  140.2820   71.8940  222.1590 C   0  0  0  0  0  0  0  0  0  0  0  0
  140.0050   73.2890  222.1400 N   0  0  0  0  0  0  0  0  0  0  0  0
  140.1570   74.0420  220.9100 C   0  0  0  0  0  0  0  0  0  0  0  0
  140.8160   75.3610  221.1830 C   0  0  0  0  0  0  0  0  0  0  0  0
  140.8010   75.7910  222.3640 O   0  0  0  0  0  0  0  0  0  0  0  0
  141.4200   76.0550  220.0990 N   0  0  0  0  0  0  0  0  0  0  0  0
  141.1410   77.4360  219.6790 C   0  0  0  0  0  0  0  0  0  0  0  0
  142.2900   77.8550  218.8280 C   0  0  0  0  0  0  0  0  0  0  0  0
  143.3280   76.7780  219.0640 C   0  0  0  0  0  0  0  0  0  0  0  0
  142.4150   75.5520  219.2040 C   0  0  1  0  0  0  0  0  0  0  0  0
  143.2550   74.4630  219.7640 C   0  0  0  0  0  0  0  0  0  0  0  0
  144.4500   74.7530  220.4100 C   0  0  0  0  0  0  0  0  0  0  0  0
  145.2320   73.7420  220.9310 C   0  0  0  0  0  0  0  0  0  0  0  0
  144.8770   72.4440  220.8410 N   0  0  0  0  0  0  0  0  0  0  0  0
  143.7280   72.1570  220.2220 C   0  0  0  0  0  0  0  0  0  0  0  0
  142.9130   73.1310  219.6840 C   0  0  0  0  0  0  0  0  0  0  0  0
  140.1170   71.1600  223.4280 C   0  0  0  0  0  0  0  0  0  0  0  0
  139.4870   69.9310  223.4050 C   0  0  0  0  0  0  0  0  0  0  0  0
  139.2820   69.1650  224.5340 C   0  0  0  0  0  0  0  0  0  0  0  0
  139.7520   69.7010  225.7340 C   0  0  0  0  0  0  0  0  0  0  0  0
  139.6020   69.0230  226.9340 C   0  0  0  0  0  0  0  0  0  0  0  0
  140.0600   69.5380  228.1280 C   0  0  0  0  0  0  0  0  0  0  0  0
  139.8960   68.8430  229.2850 F   0  0  0  0  0  0  0  0  0  0  0  0
  140.6910   70.7850  228.1050 C   0  0  0  0  0  0  0  0  0  0  0  0
  140.8490   71.4760  226.9230 C   0  0  0  0  0  0  0  0  0  0  0  0
  140.3840   70.9450  225.7320 C   0  0  0  0  0  0  0  0  0  0  0  0
  140.5590   71.6530  224.5980 N   0  0  0  0  0  0  0  0  0  0  0  0
  139.6890   73.7930  223.0070 H   0  0  0  0  0  0  0  0  0  0  0  0
  140.7763   73.4661  220.2066 H   0  0  0  0  0  0  0  0  0  0  0  0
  139.1621   74.2229  220.4769 H   0  0  0  0  0  0  0  0  0  0  0  0
  140.2052   77.4769  219.1023 H   0  0  0  0  0  0  0  0  0  0  0  0
  141.0229   78.1015  220.5469 H   0  0  0  0  0  0  0  0  0  0  0  0
  141.9989   77.8927  217.7679 H   0  0  0  0  0  0  0  0  0  0  0  0
  142.6580   78.8614  219.0766 H   0  0  0  0  0  0  0  0  0  0  0  0
  144.0152   76.6797  218.2107 H   0  0  0  0  0  0  0  0  0  0  0  0
  143.9955   76.9581  219.9196 H   0  0  0  0  0  0  0  0  0  0  0  0
  141.9526   75.1368  218.2963 H   0  0  0  0  0  0  0  0  0  0  0  0
  144.7764   75.7989  220.5073 H   0  0  0  0  0  0  0  0  0  0  0  0
  146.1741   74.0031  221.4353 H   0  0  0  0  0  0  0  0  0  0  0  0
  143.4206   71.1042  220.1384 H   0  0  0  0  0  0  0  0  0  0  0  0
  141.9772   72.8402  219.1843 H   0  0  0  0  0  0  0  0  0  0  0  0
  139.1312   69.5439  222.4388 H   0  0  0  0  0  0  0  0  0  0  0  0
  138.7774   68.1885  224.4909 H   0  0  0  0  0  0  0  0  0  0  0  0
  139.1018   68.0433  226.9334 H   0  0  0  0  0  0  0  0  0  0  0  0
  141.0664   71.2206  229.0427 H   0  0  0  0  0  0  0  0  0  0  0  0
  141.3481   72.4563  226.9260 H   0  0  0  0  0  0  0  0  0  0  0  0
  1  2  2  0
  2  3  1  0
  3  4  1  0
  4  5  1  0
  5  6  2  0
  5  7  1  0
  7  8  1  0
  8  9  1  0
  9 10  1  0
 10 11  1  0
 11 12  1  0
 12 13  2  0
 13 14  1  0
 14 15  2  0
 15 16  1  0
 16 17  2  0
  2 18  1  0
 18 19  2  0
 19 20  1  0
 20 21  2  0
 21 22  1  0
 22 23  2  0
 23 24  1  0
 23 25  1  0
 25 26  2  0
 26 27  1  0
 27 28  2  0
 11  7  1  0
 17 12  1  0
 28 18  1  0
 27 21  1  0
  3 29  1  0
  4 30  1  0
  4 31  1  0
  8 32  1  0
  8 33  1  0
  9 34  1  0
  9 35  1  0
 10 36  1  0
 10 37  1  0
 11 38  1  6
 13 39  1  0
 14 40  1  0
 16 41  1  0
 17 42  1  0
 19 43  1  0
 20 44  1  0
 22 45  1  0
 25 46  1  0
 26 47  1  0
M  END
>  <smiles>  (94) 
O=C(NCC(=O)N1CCCC1c1ccncc1)c1ccc2cc(F)ccc2n1

>  <score_type>  (94) 
oracle

>  <origin>  (94) 
autodockgpu

>  <m_score__min__energy>  (94) 
-8.2200000000000006

>  <m_primary>  (94) 
energy

>  <rmsd>  (94) 
2.080491414688404

>  <m_score__min__rmsd>  (94) 
2.080491414688404

>  <meeko>  (94) 
{"free_energy": -7.8, "intermolecular_energy": -9.3, "internal_energy": -1.89, "cluster_size": 32, "cluster_id": 1, "rank_in_cluster": 29}

>  <energy>  (94) 
-6.53

>  <cluster_rmsd>  (94) 
2.0

>  <cluster>  (94) 
2

$$$$

     RDKit          3D

 47 50  0  0  0  0  0  0  0  0999 V2000
  140.3920   71.5360  220.9950 O   0  0  0  0  0  0  0  0  0  0  0  0
  140.0900   72.1080  222.0960 C   0  0  0  0  0  0  0  0  0  0  0  0
  139.8370   73.5070  222.1560 N   0  0  0  0  0  0  0  0  0  0  0  0
  139.9210   74.3110  220.9520 C   0  0  0  0  0  0  0  0  0  0  0  0
  140.8250   75.4860  221.1690 C   0  0  0  0  0  0  0  0  0  0  0  0
  141.0220   75.8650  222.3520 O   0  0  0  0  0  0  0  0  0  0  0  0
  141.4110   76.1110  220.0350 N   0  0  0  0  0  0  0  0  0  0  0  0
  141.1230   77.4630  219.5330 C   0  0  0  0  0  0  0  0  0  0  0  0
  142.2580   77.8290  218.6390 C   0  0  0  0  0  0  0  0  0  0  0  0
  143.3010   76.7700  218.9260 C   0  0  0  0  0  0  0  0  0  0  0  0
  142.3930   75.5540  219.1580 C   0  0  1  0  0  0  0  0  0  0  0  0
  143.2430   74.5030  219.7720 C   0  0  0  0  0  0  0  0  0  0  0  0
  142.8010   73.1880  219.8430 C   0  0  0  0  0  0  0  0  0  0  0  0
  143.5890   72.2090  220.4130 C   0  0  0  0  0  0  0  0  0  0  0  0
  144.8100   72.4790  220.9200 N   0  0  0  0  0  0  0  0  0  0  0  0
  145.2430   73.7420  220.8550 C   0  0  0  0  0  0  0  0  0  0  0  0
  144.4930   74.7550  220.2950 C   0  0  0  0  0  0  0  0  0  0  0  0
  139.9960   71.3220  223.3420 C   0  0  0  0  0  0  0  0  0  0  0  0
  139.4220   70.0680  223.2910 C   0  0  0  0  0  0  0  0  0  0  0  0
  139.2860   69.2530  224.3960 C   0  0  0  0  0  0  0  0  0  0  0  0
  139.7680   69.7660  225.6010 C   0  0  0  0  0  0  0  0  0  0  0  0
  139.6850   69.0390  226.7780 C   0  0  0  0  0  0  0  0  0  0  0  0
  140.1560   69.5310  227.9770 C   0  0  0  0  0  0  0  0  0  0  0  0
  140.0590   68.7880  229.1120 F   0  0  0  0  0  0  0  0  0  0  0  0
  140.7310   70.8050  227.9830 C   0  0  0  0  0  0  0  0  0  0  0  0
  140.8210   71.5450  226.8230 C   0  0  0  0  0  0  0  0  0  0  0  0
  140.3430   71.0370  225.6270 C   0  0  0  0  0  0  0  0  0  0  0  0
  140.4520   71.7920  224.5160 N   0  0  0  0  0  0  0  0  0  0  0  0
  139.5890   73.9780  223.0630 H   0  0  0  0  0  0  0  0  0  0  0  0
  140.3184   73.6948  220.1320 H   0  0  0  0  0  0  0  0  0  0  0  0
  138.9155   74.6773  220.6974 H   0  0  0  0  0  0  0  0  0  0  0  0
  140.1782   77.4667  218.9697 H   0  0  0  0  0  0  0  0  0  0  0  0
  141.0175   78.1817  220.3591 H   0  0  0  0  0  0  0  0  0  0  0  0
  141.9503   77.7998  217.5833 H   0  0  0  0  0  0  0  0  0  0  0  0
  142.6279   78.8494  218.8179 H   0  0  0  0  0  0  0  0  0  0  0  0
  143.9747   76.6185  218.0697 H   0  0  0  0  0  0  0  0  0  0  0  0
  143.9813   77.0045  219.7580 H   0  0  0  0  0  0  0  0  0  0  0  0
  141.9178   75.0820  218.2854 H   0  0  0  0  0  0  0  0  0  0  0  0
  141.8119   72.9242  219.4404 H   0  0  0  0  0  0  0  0  0  0  0  0
  143.2103   71.1771  220.4553 H   0  0  0  0  0  0  0  0  0  0  0  0
  146.2355   73.9826  221.2638 H   0  0  0  0  0  0  0  0  0  0  0  0
  144.8978   75.7774  220.2654 H   0  0  0  0  0  0  0  0  0  0  0  0
  139.0548   69.7001  222.3216 H   0  0  0  0  0  0  0  0  0  0  0  0
  138.8244   68.2567  224.3309 H   0  0  0  0  0  0  0  0  0  0  0  0
  139.2291   68.0382  226.7550 H   0  0  0  0  0  0  0  0  0  0  0  0
  141.1165   71.2225  228.9249 H   0  0  0  0  0  0  0  0  0  0  0  0
  141.2759   72.5462  226.8480 H   0  0  0  0  0  0  0  0  0  0  0  0
  1  2  2  0
  2  3  1  0
  3  4  1  0
  4  5  1  0
  5  6  2  0
  5  7  1  0
  7  8  1  0
  8  9  1  0
  9 10  1  0
 10 11  1  0
 11 12  1  0
 12 13  2  0
 13 14  1  0
 14 15  2  0
 15 16  1  0
 16 17  2  0
  2 18  1  0
 18 19  2  0
 19 20  1  0
 20 21  2  0
 21 22  1  0
 22 23  2  0
 23 24  1  0
 23 25  1  0
 25 26  2  0
 26 27  1  0
 27 28  2  0
 11  7  1  0
 17 12  1  0
 28 18  1  0
 27 21  1  0
  3 29  1  0
  4 30  1  0
  4 31  1  0
  8 32  1  0
  8 33  1  0
  9 34  1  0
  9 35  1  0
 10 36  1  0
 10 37  1  0
 11 38  1  6
 13 39  1  0
 14 40  1  0
 16 41  1  0
 17 42  1  0
 19 43  1  0
 20 44  1  0
 22 45  1  0
 25 46  1  0
 26 47  1  0
M  END
>  <smiles>  (95) 
O=C(NCC(=O)N1CCCC1c1ccncc1)c1ccc2cc(F)ccc2n1

>  <score_type>  (95) 
oracle

>  <origin>  (95) 
autodockgpu

>  <m_score__min__energy>  (95) 
-8.2200000000000006

>  <m_primary>  (95) 
energy

>  <rmsd>  (95) 
2.029987399143523

>  <m_score__min__rmsd>  (95) 
2.029987399143523

>  <meeko>  (95) 
{"free_energy": -7.91, "intermolecular_energy": -9.4, "internal_energy": -1.87, "cluster_size": 32, "cluster_id": 1, "rank_in_cluster": 21}

>  <energy>  (95) 
-7.93

>  <cluster_rmsd>  (95) 
0.0

>  <cluster>  (95) 
3

$$$$

     RDKit          3D

 47 50  0  0  0  0  0  0  0  0999 V2000
  140.3390   71.6250  220.9760 O   0  0  0  0  0  0  0  0  0  0  0  0
  140.0630   72.1840  222.0900 C   0  0  0  0  0  0  0  0  0  0  0  0
  139.8170   73.5830  222.1730 N   0  0  0  0  0  0  0  0  0  0  0  0
  139.8760   74.4020  220.9780 C   0  0  0  0  0  0  0  0  0  0  0  0
  140.8390   75.5350  221.1680 C   0  0  0  0  0  0  0  0  0  0  0  0
  141.0760   75.9130  222.3430 O   0  0  0  0  0  0  0  0  0  0  0  0
  141.4310   76.1230  220.0170 N   0  0  0  0  0  0  0  0  0  0  0  0
  141.1410   77.4560  219.4670 C   0  0  0  0  0  0  0  0  0  0  0  0
  142.2820   77.7960  218.5700 C   0  0  0  0  0  0  0  0  0  0  0  0
  143.3270   76.7510  218.9010 C   0  0  0  0  0  0  0  0  0  0  0  0
  142.4220   75.5400  219.1670 C   0  0  1  0  0  0  0  0  0  0  0  0
  143.2710   74.5150  219.8230 C   0  0  0  0  0  0  0  0  0  0  0  0
  142.8110   73.2150  219.9860 C   0  0  0  0  0  0  0  0  0  0  0  0
  143.5990   72.2590  220.5960 C   0  0  0  0  0  0  0  0  0  0  0  0
  144.8370   72.5390  221.0540 N   0  0  0  0  0  0  0  0  0  0  0  0
  145.2870   73.7870  220.9010 C   0  0  0  0  0  0  0  0  0  0  0  0
  144.5380   74.7770  220.2990 C   0  0  0  0  0  0  0  0  0  0  0  0
  139.9950   71.3820  223.3270 C   0  0  0  0  0  0  0  0  0  0  0  0
  139.4470   70.1160  223.2660 C   0  0  0  0  0  0  0  0  0  0  0  0
  139.3360   69.2860  224.3620 C   0  0  0  0  0  0  0  0  0  0  0  0
  139.8140   69.7970  225.5700 C   0  0  0  0  0  0  0  0  0  0  0  0
  139.7550   69.0550  226.7390 C   0  0  0  0  0  0  0  0  0  0  0  0
  140.2220   69.5430  227.9410 C   0  0  0  0  0  0  0  0  0  0  0  0
  140.1490   68.7860  229.0680 F   0  0  0  0  0  0  0  0  0  0  0  0
  140.7690   70.8290  227.9570 C   0  0  0  0  0  0  0  0  0  0  0  0
  140.8360   71.5840  226.8060 C   0  0  0  0  0  0  0  0  0  0  0  0
  140.3620   71.0790  225.6070 C   0  0  0  0  0  0  0  0  0  0  0  0
  140.4470   71.8490  224.5040 N   0  0  0  0  0  0  0  0  0  0  0  0
  139.5900   74.0420  223.0920 H   0  0  0  0  0  0  0  0  0  0  0  0
  140.2067   73.7834  220.1306 H   0  0  0  0  0  0  0  0  0  0  0  0
  138.8758   74.8136  220.7778 H   0  0  0  0  0  0  0  0  0  0  0  0
  140.2008   77.4363  218.8964 H   0  0  0  0  0  0  0  0  0  0  0  0
  141.0254   78.2020  220.2670 H   0  0  0  0  0  0  0  0  0  0  0  0
  141.9829   77.7299  217.5135 H   0  0  0  0  0  0  0  0  0  0  0  0
  142.6468   78.8233  218.7172 H   0  0  0  0  0  0  0  0  0  0  0  0
  144.0080   76.5733  218.0556 H   0  0  0  0  0  0  0  0  0  0  0  0
  143.9997   77.0163  219.7299 H   0  0  0  0  0  0  0  0  0  0  0  0
  141.9554   75.0364  218.3076 H   0  0  0  0  0  0  0  0  0  0  0  0
  141.8079   72.9437  219.6252 H   0  0  0  0  0  0  0  0  0  0  0  0
  143.2056   71.2383  220.7120 H   0  0  0  0  0  0  0  0  0  0  0  0
  146.2934   74.0352  221.2691 H   0  0  0  0  0  0  0  0  0  0  0  0
  144.9574   75.7888  220.1975 H   0  0  0  0  0  0  0  0  0  0  0  0
  139.0808   69.7513  222.2950 H   0  0  0  0  0  0  0  0  0  0  0  0
  138.8965   68.2803  224.2885 H   0  0  0  0  0  0  0  0  0  0  0  0
  139.3218   68.0444  226.7069 H   0  0  0  0  0  0  0  0  0  0  0  0
  141.1513   71.2442  228.9012 H   0  0  0  0  0  0  0  0  0  0  0  0
  141.2690   72.5946  226.8400 H   0  0  0  0  0  0  0  0  0  0  0  0
  1  2  2  0
  2  3  1  0
  3  4  1  0
  4  5  1  0
  5  6  2  0
  5  7  1  0
  7  8  1  0
  8  9  1  0
  9 10  1  0
 10 11  1  0
 11 12  1  0
 12 13  2  0
 13 14  1  0
 14 15  2  0
 15 16  1  0
 16 17  2  0
  2 18  1  0
 18 19  2  0
 19 20  1  0
 20 21  2  0
 21 22  1  0
 22 23  2  0
 23 24  1  0
 23 25  1  0
 25 26  2  0
 26 27  1  0
 27 28  2  0
 11  7  1  0
 17 12  1  0
 28 18  1  0
 27 21  1  0
  3 29  1  0
  4 30  1  0
  4 31  1  0
  8 32  1  0
  8 33  1  0
  9 34  1  0
  9 35  1  0
 10 36  1  0
 10 37  1  0
 11 38  1  6
 13 39  1  0
 14 40  1  0
 16 41  1  0
 17 42  1  0
 19 43  1  0
 20 44  1  0
 22 45  1  0
 25 46  1  0
 26 47  1  0
M  END
>  <smiles>  (96) 
O=C(NCC(=O)N1CCCC1c1ccncc1)c1ccc2cc(F)ccc2n1

>  <score_type>  (96) 
oracle

>  <origin>  (96) 
autodockgpu

>  <m_score__min__energy>  (96) 
-8.2200000000000006

>  <m_primary>  (96) 
energy

>  <rmsd>  (96) 
2.0315341952146846

>  <m_score__min__rmsd>  (96) 
2.0315341952146846

>  <meeko>  (96) 
{"free_energy": -7.91, "intermolecular_energy": -9.4, "internal_energy": -1.87, "cluster_size": 32, "cluster_id": 1, "rank_in_cluster": 20}

>  <energy>  (96) 
-7.92

>  <cluster_rmsd>  (96) 
0.08

>  <cluster>  (96) 
3

$$$$

     RDKit          3D

 47 50  0  0  0  0  0  0  0  0999 V2000
  134.7250   68.4970  224.9090 O   0  0  0  0  0  0  0  0  0  0  0  0
  135.2380   69.6660  224.9510 C   0  0  0  0  0  0  0  0  0  0  0  0
  136.5120   69.9350  224.3770 N   0  0  0  0  0  0  0  0  0  0  0  0
  137.2530   68.8710  223.7270 C   0  0  0  0  0  0  0  0  0  0  0  0
  138.6000   68.7060  224.3640 C   0  0  0  0  0  0  0  0  0  0  0  0
  138.8290   67.6370  224.9840 O   0  0  0  0  0  0  0  0  0  0  0  0
  139.5430   69.7620  224.2380 N   0  0  0  0  0  0  0  0  0  0  0  0
  139.5590   70.8040  223.2020 C   0  0  0  0  0  0  0  0  0  0  0  0
  140.4240   71.9010  223.7240 C   0  0  0  0  0  0  0  0  0  0  0  0
  140.6100   71.5510  225.1850 C   0  0  0  0  0  0  0  0  0  0  0  0
  140.6620   70.0200  225.0900 C   0  0  1  0  0  0  0  0  0  0  0  0
  140.5150   69.5060  226.4750 C   0  0  0  0  0  0  0  0  0  0  0  0
  141.2050   68.3730  226.8860 C   0  0  0  0  0  0  0  0  0  0  0  0
  141.0690   67.8930  228.1730 C   0  0  0  0  0  0  0  0  0  0  0  0
  140.2730   68.4950  229.0810 N   0  0  0  0  0  0  0  0  0  0  0  0
  139.6060   69.5860  228.6930 C   0  0  0  0  0  0  0  0  0  0  0  0
  139.7070   70.1030  227.4190 C   0  0  0  0  0  0  0  0  0  0  0  0
  134.5130   70.7730  225.6040 C   0  0  0  0  0  0  0  0  0  0  0  0
  133.5480   70.4690  226.5440 C   0  0  0  0  0  0  0  0  0  0  0  0
  132.8140   71.4270  227.2110 C   0  0  0  0  0  0  0  0  0  0  0  0
  133.0970   72.7550  226.8870 C   0  0  0  0  0  0  0  0  0  0  0  0
  132.4230   73.8040  227.4920 C   0  0  0  0  0  0  0  0  0  0  0  0
  132.6900   75.1210  227.1840 C   0  0  0  0  0  0  0  0  0  0  0  0
  132.0090   76.1240  227.7990 F   0  0  0  0  0  0  0  0  0  0  0  0
  133.6750   75.3830  226.2280 C   0  0  0  0  0  0  0  0  0  0  0  0
  134.3570   74.3550  225.6130 C   0  0  0  0  0  0  0  0  0  0  0  0
  134.0760   73.0370  225.9340 C   0  0  0  0  0  0  0  0  0  0  0  0
  134.7650   72.0610  225.3110 N   0  0  0  0  0  0  0  0  0  0  0  0
  136.9340   70.8970  224.4120 H   0  0  0  0  0  0  0  0  0  0  0  0
  136.6911   67.9298  223.8189 H   0  0  0  0  0  0  0  0  0  0  0  0
  137.3896   69.1284  222.6663 H   0  0  0  0  0  0  0  0  0  0  0  0
  139.9752   70.4037  222.2658 H   0  0  0  0  0  0  0  0  0  0  0  0
  138.5434   71.1657  222.9834 H   0  0  0  0  0  0  0  0  0  0  0  0
  141.3908   71.9207  223.1997 H   0  0  0  0  0  0  0  0  0  0  0  0
  139.9811   72.8973  223.5786 H   0  0  0  0  0  0  0  0  0  0  0  0
  141.5453   71.9667  225.5881 H   0  0  0  0  0  0  0  0  0  0  0  0
  139.8347   71.9466  225.8577 H   0  0  0  0  0  0  0  0  0  0  0  0
  141.5741   69.5509  224.6925 H   0  0  0  0  0  0  0  0  0  0  0  0
  141.8670   67.8525  226.1783 H   0  0  0  0  0  0  0  0  0  0  0  0
  141.6268   66.9918  228.4675 H   0  0  0  0  0  0  0  0  0  0  0  0
  138.9510   70.0911  229.4182 H   0  0  0  0  0  0  0  0  0  0  0  0
  139.1352   71.0040  227.1521 H   0  0  0  0  0  0  0  0  0  0  0  0
  133.3554   69.4103  226.7719 H   0  0  0  0  0  0  0  0  0  0  0  0
  132.0495   71.1601  227.9555 H   0  0  0  0  0  0  0  0  0  0  0  0
  131.6504   73.5786  228.2418 H   0  0  0  0  0  0  0  0  0  0  0  0
  133.9095   76.4244  225.9625 H   0  0  0  0  0  0  0  0  0  0  0  0
  135.1288   74.5825  224.8630 H   0  0  0  0  0  0  0  0  0  0  0  0
  1  2  2  0
  2  3  1  0
  3  4  1  0
  4  5  1  0
  5  6  2  0
  5  7  1  0
  7  8  1  0
  8  9  1  0
  9 10  1  0
 10 11  1  0
 11 12  1  0
 12 13  2  0
 13 14  1  0
 14 15  2  0
 15 16  1  0
 16 17  2  0
  2 18  1  0
 18 19  2  0
 19 20  1  0
 20 21  2  0
 21 22  1  0
 22 23  2  0
 23 24  1  0
 23 25  1  0
 25 26  2  0
 26 27  1  0
 27 28  2  0
 11  7  1  0
 17 12  1  0
 28 18  1  0
 27 21  1  0
  3 29  1  0
  4 30  1  0
  4 31  1  0
  8 32  1  0
  8 33  1  0
  9 34  1  0
  9 35  1  0
 10 36  1  0
 10 37  1  0
 11 38  1  6
 13 39  1  0
 14 40  1  0
 16 41  1  0
 17 42  1  0
 19 43  1  0
 20 44  1  0
 22 45  1  0
 25 46  1  0
 26 47  1  0
M  END
>  <smiles>  (97) 
O=C(NCC(=O)N1CCCC1c1ccncc1)c1ccc2cc(F)ccc2n1

>  <score_type>  (97) 
oracle

>  <origin>  (97) 
autodockgpu

>  <m_score__min__energy>  (97) 
-8.2200000000000006

>  <m_primary>  (97) 
energy

>  <rmsd>  (97) 
7.580643059104159

>  <m_score__min__rmsd>  (97) 
7.580643059104159

>  <meeko>  (97) 
{"free_energy": -7.93, "intermolecular_energy": -9.42, "internal_energy": -1.56, "cluster_size": 4, "cluster_id": 3, "rank_in_cluster": 1}

>  <energy>  (97) 
-7.92

>  <cluster_rmsd>  (97) 
0.07

>  <cluster>  (97) 
3

$$$$

     RDKit          3D

 47 50  0  0  0  0  0  0  0  0999 V2000
  134.7280   68.5080  224.9240 O   0  0  0  0  0  0  0  0  0  0  0  0
  135.2390   69.6780  224.9340 C   0  0  0  0  0  0  0  0  0  0  0  0
  136.5040   69.9370  224.3370 N   0  0  0  0  0  0  0  0  0  0  0  0
  137.2380   68.8620  223.6990 C   0  0  0  0  0  0  0  0  0  0  0  0
  138.5850   68.6980  224.3350 C   0  0  0  0  0  0  0  0  0  0  0  0
  138.8250   67.6180  224.9330 O   0  0  0  0  0  0  0  0  0  0  0  0
  139.5180   69.7660  224.2340 N   0  0  0  0  0  0  0  0  0  0  0  0
  139.5190   70.8360  223.2270 C   0  0  0  0  0  0  0  0  0  0  0  0
  140.3750   71.9270  223.7750 C   0  0  0  0  0  0  0  0  0  0  0  0
  140.5720   71.5390  225.2250 C   0  0  0  0  0  0  0  0  0  0  0  0
  140.6380   70.0120  225.0880 C   0  0  1  0  0  0  0  0  0  0  0  0
  140.5020   69.4590  226.4590 C   0  0  0  0  0  0  0  0  0  0  0  0
  141.2010   68.3190  226.8340 C   0  0  0  0  0  0  0  0  0  0  0  0
  141.0760   67.8030  228.1080 C   0  0  0  0  0  0  0  0  0  0  0  0
  140.2820   68.3750  229.0370 N   0  0  0  0  0  0  0  0  0  0  0  0
  139.6070   69.4720  228.6840 C   0  0  0  0  0  0  0  0  0  0  0  0
  139.6970   70.0250  227.4240 C   0  0  0  0  0  0  0  0  0  0  0  0
  134.5210   70.7970  225.5750 C   0  0  0  0  0  0  0  0  0  0  0  0
  133.5400   70.5090  226.5030 C   0  0  0  0  0  0  0  0  0  0  0  0
  132.8100   71.4790  227.1590 C   0  0  0  0  0  0  0  0  0  0  0  0
  133.1150   72.8020  226.8340 C   0  0  0  0  0  0  0  0  0  0  0  0
  132.4480   73.8610  227.4270 C   0  0  0  0  0  0  0  0  0  0  0  0
  132.7360   75.1740  227.1180 C   0  0  0  0  0  0  0  0  0  0  0  0
  132.0610   76.1880  227.7220 F   0  0  0  0  0  0  0  0  0  0  0  0
  133.7360   75.4200  226.1730 C   0  0  0  0  0  0  0  0  0  0  0  0
  134.4120   74.3800  225.5700 C   0  0  0  0  0  0  0  0  0  0  0  0
  134.1100   73.0680  225.8920 C   0  0  0  0  0  0  0  0  0  0  0  0
  134.7940   72.0800  225.2800 N   0  0  0  0  0  0  0  0  0  0  0  0
  136.9240   70.9010  224.3470 H   0  0  0  0  0  0  0  0  0  0  0  0
  136.6716   67.9248  223.8035 H   0  0  0  0  0  0  0  0  0  0  0  0
  137.3738   69.1058  222.6350 H   0  0  0  0  0  0  0  0  0  0  0  0
  139.9351   70.4657  222.2785 H   0  0  0  0  0  0  0  0  0  0  0  0
  138.4988   71.1932  223.0228 H   0  0  0  0  0  0  0  0  0  0  0  0
  141.3389   71.9713  223.2469 H   0  0  0  0  0  0  0  0  0  0  0  0
  139.9210   72.9222  223.6593 H   0  0  0  0  0  0  0  0  0  0  0  0
  141.5054   71.9525  225.6347 H   0  0  0  0  0  0  0  0  0  0  0  0
  139.7966   71.9086  225.9121 H   0  0  0  0  0  0  0  0  0  0  0  0
  141.5528   69.5630  224.6739 H   0  0  0  0  0  0  0  0  0  0  0  0
  141.8613   67.8221  226.1080 H   0  0  0  0  0  0  0  0  0  0  0  0
  141.6411   66.8976  228.3742 H   0  0  0  0  0  0  0  0  0  0  0  0
  138.9540   69.9530  229.4271 H   0  0  0  0  0  0  0  0  0  0  0  0
  139.1187   70.9299  227.1859 H   0  0  0  0  0  0  0  0  0  0  0  0
  133.3299   69.4536  226.7308 H   0  0  0  0  0  0  0  0  0  0  0  0
  132.0331   71.2247  227.8950 H   0  0  0  0  0  0  0  0  0  0  0  0
  131.6635   73.6482  228.1681 H   0  0  0  0  0  0  0  0  0  0  0  0
  133.9873   76.4572  225.9066 H   0  0  0  0  0  0  0  0  0  0  0  0
  135.1959   74.5944  224.8287 H   0  0  0  0  0  0  0  0  0  0  0  0
  1  2  2  0
  2  3  1  0
  3  4  1  0
  4  5  1  0
  5  6  2  0
  5  7  1  0
  7  8  1  0
  8  9  1  0
  9 10  1  0
 10 11  1  0
 11 12  1  0
 12 13  2  0
 13 14  1  0
 14 15  2  0
 15 16  1  0
 16 17  2  0
  2 18  1  0
 18 19  2  0
 19 20  1  0
 20 21  2  0
 21 22  1  0
 22 23  2  0
 23 24  1  0
 23 25  1  0
 25 26  2  0
 26 27  1  0
 27 28  2  0
 11  7  1  0
 17 12  1  0
 28 18  1  0
 27 21  1  0
  3 29  1  0
  4 30  1  0
  4 31  1  0
  8 32  1  0
  8 33  1  0
  9 34  1  0
  9 35  1  0
 10 36  1  0
 10 37  1  0
 11 38  1  6
 13 39  1  0
 14 40  1  0
 16 41  1  0
 17 42  1  0
 19 43  1  0
 20 44  1  0
 22 45  1  0
 25 46  1  0
 26 47  1  0
M  END
>  <smiles>  (98) 
O=C(NCC(=O)N1CCCC1c1ccncc1)c1ccc2cc(F)ccc2n1

>  <score_type>  (98) 
oracle

>  <origin>  (98) 
autodockgpu

>  <m_score__min__energy>  (98) 
-8.2200000000000006

>  <m_primary>  (98) 
energy

>  <rmsd>  (98) 
7.582761105180407

>  <m_score__min__rmsd>  (98) 
7.582761105180407

>  <meeko>  (98) 
{"free_energy": -7.92, "intermolecular_energy": -9.41, "internal_energy": -1.58, "cluster_size": 4, "cluster_id": 3, "rank_in_cluster": 3}

>  <energy>  (98) 
-7.81

>  <cluster_rmsd>  (98) 
0.15

>  <cluster>  (98) 
3

$$$$

     RDKit          3D

 47 50  0  0  0  0  0  0  0  0999 V2000
  140.7710   71.7940  221.1320 O   0  0  0  0  0  0  0  0  0  0  0  0
  140.3120   72.3180  222.2020 C   0  0  0  0  0  0  0  0  0  0  0  0
  139.9500   73.6930  222.2550 N   0  0  0  0  0  0  0  0  0  0  0  0
  140.0990   74.5270  221.0780 C   0  0  0  0  0  0  0  0  0  0  0  0
  140.6570   75.8670  221.4540 C   0  0  0  0  0  0  0  0  0  0  0  0
  140.4680   76.2730  222.6290 O   0  0  0  0  0  0  0  0  0  0  0  0
  141.3670   76.6070  220.4700 N   0  0  0  0  0  0  0  0  0  0  0  0
  141.5710   76.2260  219.0650 C   0  0  0  0  0  0  0  0  0  0  0  0
  141.9610   77.4720  218.3450 C   0  0  0  0  0  0  0  0  0  0  0  0
  141.6550   78.5740  219.3370 C   0  0  0  0  0  0  0  0  0  0  0  0
  142.0220   77.8650  220.6480 C   0  0  1  0  0  0  0  0  0  0  0  0
  141.4710   78.6980  221.7470 C   0  0  0  0  0  0  0  0  0  0  0  0
  140.1560   79.1430  221.7050 C   0  0  0  0  0  0  0  0  0  0  0  0
  139.6420   79.9170  222.7250 C   0  0  0  0  0  0  0  0  0  0  0  0
  140.3810   80.2720  223.7970 N   0  0  0  0  0  0  0  0  0  0  0  0
  141.6470   79.8470  223.8440 C   0  0  0  0  0  0  0  0  0  0  0  0
  142.2070   79.0730  222.8500 C   0  0  0  0  0  0  0  0  0  0  0  0
  140.1480   71.5000  223.4190 C   0  0  0  0  0  0  0  0  0  0  0  0
  139.4550   70.3090  223.3280 C   0  0  0  0  0  0  0  0  0  0  0  0
  139.2440   69.4710  224.4030 C   0  0  0  0  0  0  0  0  0  0  0  0
  139.7780   69.8910  225.6230 C   0  0  0  0  0  0  0  0  0  0  0  0
  139.6300   69.1330  226.7730 C   0  0  0  0  0  0  0  0  0  0  0  0
  140.1500   69.5330  227.9860 C   0  0  0  0  0  0  0  0  0  0  0  0
  139.9860   68.7620  229.0940 F   0  0  0  0  0  0  0  0  0  0  0  0
  140.8440   70.7450  228.0330 C   0  0  0  0  0  0  0  0  0  0  0  0
  141.0020   71.5150  226.9010 C   0  0  0  0  0  0  0  0  0  0  0  0
  140.4730   71.0990  225.6910 C   0  0  0  0  0  0  0  0  0  0  0  0
  140.6500   71.8810  224.6070 N   0  0  0  0  0  0  0  0  0  0  0  0
  139.5730   74.1230  223.1370 H   0  0  0  0  0  0  0  0  0  0  0  0
  140.7823   74.0356  220.3698 H   0  0  0  0  0  0  0  0  0  0  0  0
  139.1118   74.6690  220.6141 H   0  0  0  0  0  0  0  0  0  0  0  0
  142.3707   75.4748  218.9865 H   0  0  0  0  0  0  0  0  0  0  0  0
  140.6601   75.7844  218.6346 H   0  0  0  0  0  0  0  0  0  0  0  0
  143.0313   77.4592  218.0914 H   0  0  0  0  0  0  0  0  0  0  0  0
  141.4262   77.5974  217.3920 H   0  0  0  0  0  0  0  0  0  0  0  0
  142.2801   79.4627  219.1651 H   0  0  0  0  0  0  0  0  0  0  0  0
  140.6270   78.9629  219.2937 H   0  0  0  0  0  0  0  0  0  0  0  0
  143.0865   77.7227  220.8857 H   0  0  0  0  0  0  0  0  0  0  0  0
  139.5178   78.8757  220.8499 H   0  0  0  0  0  0  0  0  0  0  0  0
  138.5972   80.2553  222.6625 H   0  0  0  0  0  0  0  0  0  0  0  0
  142.2664   80.1255  224.7093 H   0  0  0  0  0  0  0  0  0  0  0  0
  143.2550   78.7506  222.9385 H   0  0  0  0  0  0  0  0  0  0  0  0
  139.0508   70.0137  222.3485 H   0  0  0  0  0  0  0  0  0  0  0  0
  138.6877   68.5271  224.3050 H   0  0  0  0  0  0  0  0  0  0  0  0
  139.0803   68.1819  226.7168 H   0  0  0  0  0  0  0  0  0  0  0  0
  141.2701   71.0893  228.9869 H   0  0  0  0  0  0  0  0  0  0  0  0
  141.5518   72.4660  226.9591 H   0  0  0  0  0  0  0  0  0  0  0  0
  1  2  2  0
  2  3  1  0
  3  4  1  0
  4  5  1  0
  5  6  2  0
  5  7  1  0
  7  8  1  0
  8  9  1  0
  9 10  1  0
 10 11  1  0
 11 12  1  0
 12 13  2  0
 13 14  1  0
 14 15  2  0
 15 16  1  0
 16 17  2  0
  2 18  1  0
 18 19  2  0
 19 20  1  0
 20 21  2  0
 21 22  1  0
 22 23  2  0
 23 24  1  0
 23 25  1  0
 25 26  2  0
 26 27  1  0
 27 28  2  0
 11  7  1  0
 17 12  1  0
 28 18  1  0
 27 21  1  0
  3 29  1  0
  4 30  1  0
  4 31  1  0
  8 32  1  0
  8 33  1  0
  9 34  1  0
  9 35  1  0
 10 36  1  0
 10 37  1  0
 11 38  1  1
 13 39  1  0
 14 40  1  0
 16 41  1  0
 17 42  1  0
 19 43  1  0
 20 44  1  0
 22 45  1  0
 25 46  1  0
 26 47  1  0
M  END
>  <smiles>  (99) 
O=C(NCC(=O)N1CCCC1c1ccncc1)c1ccc2cc(F)ccc2n1

>  <score_type>  (99) 
oracle

>  <origin>  (99) 
autodockgpu

>  <m_score__min__energy>  (99) 
-8.2200000000000006

>  <m_primary>  (99) 
energy

>  <rmsd>  (99) 
1.8005025506064727

>  <m_score__min__rmsd>  (99) 
1.8005025506064727

>  <meeko>  (99) 
{"free_energy": -8.13, "intermolecular_energy": -9.62, "internal_energy": -1.51, "cluster_size": 12, "cluster_id": 2, "rank_in_cluster": 5}

>  <energy>  (99) 
-6.71

>  <cluster_rmsd>  (99) 
0.0

>  <cluster>  (99) 
4

$$$$

     RDKit          3D

 47 50  0  0  0  0  0  0  0  0999 V2000
  140.3460   71.6620  220.9930 O   0  0  0  0  0  0  0  0  0  0  0  0
  140.0550   72.2160  222.1060 C   0  0  0  0  0  0  0  0  0  0  0  0
  139.7820   73.6090  222.1890 N   0  0  0  0  0  0  0  0  0  0  0  0
  139.8300   74.4300  220.9940 C   0  0  0  0  0  0  0  0  0  0  0  0
  140.7970   75.5600  221.1740 C   0  0  0  0  0  0  0  0  0  0  0  0
  141.0490   75.9360  222.3480 O   0  0  0  0  0  0  0  0  0  0  0  0
  141.3770   76.1500  220.0180 N   0  0  0  0  0  0  0  0  0  0  0  0
  141.0920   77.4880  219.4800 C   0  0  0  0  0  0  0  0  0  0  0  0
  142.2220   77.8220  218.5670 C   0  0  0  0  0  0  0  0  0  0  0  0
  143.2610   76.7650  218.8750 C   0  0  0  0  0  0  0  0  0  0  0  0
  142.3480   75.5620  219.1490 C   0  0  1  0  0  0  0  0  0  0  0  0
  143.1970   74.5240  219.7850 C   0  0  0  0  0  0  0  0  0  0  0  0
  144.4800   74.8300  220.2220 C   0  0  0  0  0  0  0  0  0  0  0  0
  145.2710   73.8660  220.8140 C   0  0  0  0  0  0  0  0  0  0  0  0
  144.8420   72.6000  220.9960 N   0  0  0  0  0  0  0  0  0  0  0  0
  143.6090   72.2980  220.5780 C   0  0  0  0  0  0  0  0  0  0  0  0
  142.7810   73.2250  219.9800 C   0  0  0  0  0  0  0  0  0  0  0  0
  139.9970   71.4130  223.3430 C   0  0  0  0  0  0  0  0  0  0  0  0
  139.4290   70.1560  223.2900 C   0  0  0  0  0  0  0  0  0  0  0  0
  139.3240   69.3260  224.3870 C   0  0  0  0  0  0  0  0  0  0  0  0
  139.8340   69.8260  225.5870 C   0  0  0  0  0  0  0  0  0  0  0  0
  139.7850   69.0830  226.7560 C   0  0  0  0  0  0  0  0  0  0  0  0
  140.2830   69.5610  227.9490 C   0  0  0  0  0  0  0  0  0  0  0  0
  140.2180   68.8030  229.0760 F   0  0  0  0  0  0  0  0  0  0  0  0
  140.8500   70.8390  227.9570 C   0  0  0  0  0  0  0  0  0  0  0  0
  140.9080   71.5950  226.8060 C   0  0  0  0  0  0  0  0  0  0  0  0
  140.4030   71.0990  225.6160 C   0  0  0  0  0  0  0  0  0  0  0  0
  140.4790   71.8700  224.5120 N   0  0  0  0  0  0  0  0  0  0  0  0
  139.5430   74.0650  223.1060 H   0  0  0  0  0  0  0  0  0  0  0  0
  140.1498   73.8117  220.1423 H   0  0  0  0  0  0  0  0  0  0  0  0
  138.8286   74.8445  220.8059 H   0  0  0  0  0  0  0  0  0  0  0  0
  140.1428   77.4806  218.9241 H   0  0  0  0  0  0  0  0  0  0  0  0
  140.9966   78.2306  220.2858 H   0  0  0  0  0  0  0  0  0  0  0  0
  141.9055   77.7653  217.5150 H   0  0  0  0  0  0  0  0  0  0  0  0
  142.5995   78.8446  218.7144 H   0  0  0  0  0  0  0  0  0  0  0  0
  143.9263   76.5851  218.0177 H   0  0  0  0  0  0  0  0  0  0  0  0
  143.9499   77.0187  219.6942 H   0  0  0  0  0  0  0  0  0  0  0  0
  141.8622   75.0682  218.2945 H   0  0  0  0  0  0  0  0  0  0  0  0
  144.8693   75.8509  220.0949 H   0  0  0  0  0  0  0  0  0  0  0  0
  146.2830   74.1387  221.1479 H   0  0  0  0  0  0  0  0  0  0  0  0
  143.2404   71.2708  220.7162 H   0  0  0  0  0  0  0  0  0  0  0  0
  141.7747   72.9231  219.6543 H   0  0  0  0  0  0  0  0  0  0  0  0
  139.0407   69.7983  222.3250 H   0  0  0  0  0  0  0  0  0  0  0  0
  138.8653   68.3284  224.3203 H   0  0  0  0  0  0  0  0  0  0  0  0
  139.3343   68.0799  226.7309 H   0  0  0  0  0  0  0  0  0  0  0  0
  141.2554   71.2467  228.8948 H   0  0  0  0  0  0  0  0  0  0  0  0
  141.3581   72.5983  226.8330 H   0  0  0  0  0  0  0  0  0  0  0  0
  1  2  2  0
  2  3  1  0
  3  4  1  0
  4  5  1  0
  5  6  2  0
  5  7  1  0
  7  8  1  0
  8  9  1  0
  9 10  1  0
 10 11  1  0
 11 12  1  0
 12 13  2  0
 13 14  1  0
 14 15  2  0
 15 16  1  0
 16 17  2  0
  2 18  1  0
 18 19  2  0
 19 20  1  0
 20 21  2  0
 21 22  1  0
 22 23  2  0
 23 24  1  0
 23 25  1  0
 25 26  2  0
 26 27  1  0
 27 28  2  0
 11  7  1  0
 17 12  1  0
 28 18  1  0
 27 21  1  0
  3 29  1  0
  4 30  1  0
  4 31  1  0
  8 32  1  0
  8 33  1  0
  9 34  1  0
  9 35  1  0
 10 36  1  0
 10 37  1  0
 11 38  1  6
 13 39  1  0
 14 40  1  0
 16 41  1  0
 17 42  1  0
 19 43  1  0
 20 44  1  0
 22 45  1  0
 25 46  1  0
 26 47  1  0
M  END
>  <smiles>  (100) 
O=C(NCC(=O)N1CCCC1c1ccncc1)c1ccc2cc(F)ccc2n1

>  <score_type>  (100) 
oracle

>  <origin>  (100) 
autodockgpu

>  <m_score__min__energy>  (100) 
-8.2200000000000006

>  <m_primary>  (100) 
energy

>  <rmsd>  (100) 
2.0179716478783343

>  <m_score__min__rmsd>  (100) 
2.0179716478783343

>  <meeko>  (100) 
{"free_energy": -7.95, "intermolecular_energy": -9.44, "internal_energy": -1.84, "cluster_size": 32, "cluster_id": 1, "rank_in_cluster": 6}

>  <energy>  (100) 
-6.67

>  <cluster_rmsd>  (100) 
0.0

>  <cluster>  (100) 
5

$$$$
