
     RDKit          3D

 62 65  0  0  0  0  0  0  0  0999 V2000
  136.8820   75.9350  222.3020 C   0  0  0  0  0  0  0  0  0  0  0  0
  138.2820   76.3050  222.7190 C   0  0  0  0  0  0  0  0  0  0  0  0
  138.7870   77.5350  222.0330 C   0  0  0  0  0  0  0  0  0  0  0  0
  137.9500   78.4770  221.9220 O   0  0  0  0  0  0  0  0  0  0  0  0
  140.1170   77.6100  221.5500 N   0  0  0  0  0  0  0  0  0  0  0  0
  140.9710   78.6270  222.1280 C   0  0  0  0  0  0  0  0  0  0  0  0
  141.4130   79.6340  221.2640 C   0  0  0  0  0  0  0  0  0  0  0  0
  142.2360   80.6150  221.8250 C   0  0  0  0  0  0  0  0  0  0  0  0
  142.5950   80.5920  223.1600 C   0  0  0  0  0  0  0  0  0  0  0  0
  142.1440   79.5860  223.9910 C   0  0  0  0  0  0  0  0  0  0  0  0
  141.3310   78.6150  223.4470 C   0  0  0  0  0  0  0  0  0  0  0  0
  140.6020   76.7080  220.5210 C   0  0  0  0  0  0  0  0  0  0  0  0
  139.5490   76.0580  219.7070 C   0  0  0  0  0  0  0  0  0  0  0  0
  139.2430   74.6220  219.9870 C   0  0  0  0  0  0  0  0  0  0  0  0
  140.4090   73.8970  220.4460 N   0  0  0  0  0  0  0  0  0  0  0  0
  140.4220   72.6870  221.1280 C   0  0  0  0  0  0  0  0  0  0  0  0
  141.5570   72.1820  221.4620 O   0  0  0  0  0  0  0  0  0  0  0  0
  139.2470   71.8830  221.5320 C   0  0  2  0  0  0  0  0  0  0  0  0
  138.5580   72.5430  222.6620 N   0  0  0  0  0  0  0  0  0  0  0  0
  139.5790   70.4860  221.9800 C   0  0  0  0  0  0  0  0  0  0  0  0
  139.6490   70.3500  223.4450 C   0  0  0  0  0  0  0  0  0  0  0  0
  138.9220   69.3290  224.0270 C   0  0  0  0  0  0  0  0  0  0  0  0
  138.9750   69.1900  225.3630 N   0  0  0  0  0  0  0  0  0  0  0  0
  139.6930   69.9830  226.1780 C   0  0  0  0  0  0  0  0  0  0  0  0
  139.6630   69.7320  227.5420 C   0  0  0  0  0  0  0  0  0  0  0  0
  140.4140   70.5700  228.3370 C   0  0  0  0  0  0  0  0  0  0  0  0
  141.1600   71.6050  227.8190 C   0  0  0  0  0  0  0  0  0  0  0  0
  141.1890   71.8560  226.4500 C   0  0  0  0  0  0  0  0  0  0  0  0
  140.4380   71.0200  225.6450 C   0  0  0  0  0  0  0  0  0  0  0  0
  140.3910   71.1740  224.2690 C   0  0  0  0  0  0  0  0  0  0  0  0
  141.6940   74.5680  220.1400 C   0  0  0  0  0  0  0  0  0  0  0  0
  141.6700   75.7850  221.0410 C   0  0  0  0  0  0  0  0  0  0  0  0
  136.2639   75.7716  223.1971 H   0  0  0  0  0  0  0  0  0  0  0  0
  136.4506   76.7500  221.7022 H   0  0  0  0  0  0  0  0  0  0  0  0
  136.9096   75.0133  221.7022 H   0  0  0  0  0  0  0  0  0  0  0  0
  138.2902   76.4801  223.8049 H   0  0  0  0  0  0  0  0  0  0  0  0
  138.9425   75.4729  222.4340 H   0  0  0  0  0  0  0  0  0  0  0  0
  141.1287   79.6531  220.2015 H   0  0  0  0  0  0  0  0  0  0  0  0
  142.6088   81.4288  221.1857 H   0  0  0  0  0  0  0  0  0  0  0  0
  143.2455   81.3820  223.5634 H   0  0  0  0  0  0  0  0  0  0  0  0
  142.4248   79.5602  225.0542 H   0  0  0  0  0  0  0  0  0  0  0  0
  140.9605   77.8059  224.0936 H   0  0  0  0  0  0  0  0  0  0  0  0
  141.0976   77.3457  219.7742 H   0  0  0  0  0  0  0  0  0  0  0  0
  138.6197   76.6273  219.8564 H   0  0  0  0  0  0  0  0  0  0  0  0
  139.9469   76.0631  218.6815 H   0  0  0  0  0  0  0  0  0  0  0  0
  138.4646   74.5697  220.7625 H   0  0  0  0  0  0  0  0  0  0  0  0
  138.9031   74.1586  219.0491 H   0  0  0  0  0  0  0  0  0  0  0  0
  138.6201   71.8136  220.6308 H   0  0  0  0  0  0  0  0  0  0  0  0
  137.6270   72.8910  222.4110 H   0  0  0  0  0  0  0  0  0  0  0  0
  139.1820   73.2440  223.1070 H   0  0  0  0  0  0  0  0  0  0  0  0
  138.8036   69.8036  221.6018 H   0  0  0  0  0  0  0  0  0  0  0  0
  140.5741   70.2412  221.5801 H   0  0  0  0  0  0  0  0  0  0  0  0
  138.3154   68.6474  223.4127 H   0  0  0  0  0  0  0  0  0  0  0  0
  139.0710   68.9077  227.9664 H   0  0  0  0  0  0  0  0  0  0  0  0
  140.4178   70.4063  229.4248 H   0  0  0  0  0  0  0  0  0  0  0  0
  141.7429   72.2443  228.4984 H   0  0  0  0  0  0  0  0  0  0  0  0
  141.7819   72.6811  226.0285 H   0  0  0  0  0  0  0  0  0  0  0  0
  140.9708   71.9894  223.8118 H   0  0  0  0  0  0  0  0  0  0  0  0
  142.5468   73.9159  220.3800 H   0  0  0  0  0  0  0  0  0  0  0  0
  141.8067   74.8207  219.0754 H   0  0  0  0  0  0  0  0  0  0  0  0
  141.4372   75.4842  222.0732 H   0  0  0  0  0  0  0  0  0  0  0  0
  142.6492   76.2861  221.0435 H   0  0  0  0  0  0  0  0  0  0  0  0
  1  2  1  0
  2  3  1  0
  3  4  2  0
  3  5  1  0
  5  6  1  0
  6  7  2  0
  7  8  1  0
  8  9  2  0
  9 10  1  0
 10 11  2  0
  5 12  1  0
 12 13  1  0
 13 14  1  0
 14 15  1  0
 15 16  1  0
 16 17  2  0
 16 18  1  0
 18 19  1  0
 18 20  1  0
 20 21  1  0
 21 22  2  0
 22 23  1  0
 23 24  2  0
 24 25  1  0
 25 26  2  0
 26 27  1  0
 27 28  2  0
 28 29  1  0
 29 30  2  0
 15 31  1  0
 31 32  1  0
 11  6  1  0
 32 12  1  0
 30 21  1  0
 29 24  1  0
  1 33  1  0
  1 34  1  0
  1 35  1  0
  2 36  1  0
  2 37  1  0
  7 38  1  0
  8 39  1  0
  9 40  1  0
 10 41  1  0
 11 42  1  0
 12 43  1  0
 13 44  1  0
 13 45  1  0
 14 46  1  0
 14 47  1  0
 18 48  1  6
 19 49  1  0
 19 50  1  0
 20 51  1  0
 20 52  1  0
 22 53  1  0
 25 54  1  0
 26 55  1  0
 27 56  1  0
 28 57  1  0
 30 58  1  0
 31 59  1  0
 31 60  1  0
 32 61  1  0
 32 62  1  0
M  END
>  <smiles>  (1) 
CCC(=O)N(c1ccccc1)C1CCN(C(=O)[C@H](N)Cc2cnc3ccccc3c2)CC1

>  <score_type>  (1) 
oracle

>  <origin>  (1) 
autodockgpu

>  <m_score__min__energy>  (1) 
-8.8699999999999992

>  <m_primary>  (1) 
energy

>  <rmsd>  (1) 
6.833851299450522

>  <m_score__min__rmsd>  (1) 
6.833851299450522

>  <meeko>  (1) 
{"free_energy": -8.33, "intermolecular_energy": -10.71, "internal_energy": -1.82, "cluster_size": 25, "cluster_id": 1, "rank_in_cluster": 13}

>  <energy>  (1) 
-8.87

>  <cluster_rmsd>  (1) 
0.0

>  <cluster>  (1) 
1

$$$$

     RDKit          3D

 62 65  0  0  0  0  0  0  0  0999 V2000
  145.5540   74.0650  220.8650 C   0  0  0  0  0  0  0  0  0  0  0  0
  144.8780   72.7180  220.8390 C   0  0  0  0  0  0  0  0  0  0  0  0
  144.9610   72.0520  219.5020 C   0  0  0  0  0  0  0  0  0  0  0  0
  145.8150   72.5370  218.7060 O   0  0  0  0  0  0  0  0  0  0  0  0
  144.1250   70.9530  219.1790 N   0  0  0  0  0  0  0  0  0  0  0  0
  144.7610   69.6580  219.0510 C   0  0  0  0  0  0  0  0  0  0  0  0
  145.6910   69.5200  218.0160 C   0  0  0  0  0  0  0  0  0  0  0  0
  146.3030   68.2680  217.8960 C   0  0  0  0  0  0  0  0  0  0  0  0
  146.0060   67.2240  218.7520 C   0  0  0  0  0  0  0  0  0  0  0  0
  145.0830   67.3880  219.7660 C   0  0  0  0  0  0  0  0  0  0  0  0
  144.4760   68.6190  219.8920 C   0  0  0  0  0  0  0  0  0  0  0  0
  142.6970   71.1200  218.9830 C   0  0  0  0  0  0  0  0  0  0  0  0
  142.2980   72.3660  218.2900 C   0  0  0  0  0  0  0  0  0  0  0  0
  141.7100   73.4630  219.1190 C   0  0  0  0  0  0  0  0  0  0  0  0
  140.9720   72.9510  220.2540 N   0  0  0  0  0  0  0  0  0  0  0  0
  140.6190   73.6490  221.4020 C   0  0  0  0  0  0  0  0  0  0  0  0
  139.9580   73.0320  222.3180 O   0  0  0  0  0  0  0  0  0  0  0  0
  140.9240   75.0640  221.7090 C   0  0  2  0  0  0  0  0  0  0  0  0
  139.8870   75.6130  222.6090 N   0  0  0  0  0  0  0  0  0  0  0  0
  140.9720   75.9600  220.5020 C   0  0  0  0  0  0  0  0  0  0  0  0
  141.1240   77.3850  220.8450 C   0  0  0  0  0  0  0  0  0  0  0  0
  140.9110   78.3100  219.8400 C   0  0  0  0  0  0  0  0  0  0  0  0
  141.0450   79.6150  220.1370 N   0  0  0  0  0  0  0  0  0  0  0  0
  141.3730   80.0840  221.3540 C   0  0  0  0  0  0  0  0  0  0  0  0
  141.4780   81.4560  221.5300 C   0  0  0  0  0  0  0  0  0  0  0  0
  141.8150   81.8900  222.7930 C   0  0  0  0  0  0  0  0  0  0  0  0
  142.0390   81.0190  223.8350 C   0  0  0  0  0  0  0  0  0  0  0  0
  141.9340   79.6420  223.6590 C   0  0  0  0  0  0  0  0  0  0  0  0
  141.5960   79.1980  222.3940 C   0  0  0  0  0  0  0  0  0  0  0  0
  141.4620   77.8510  222.1010 C   0  0  0  0  0  0  0  0  0  0  0  0
  140.5910   71.5250  220.1310 C   0  0  0  0  0  0  0  0  0  0  0  0
  141.9180   70.8030  220.2300 C   0  0  0  0  0  0  0  0  0  0  0  0
  145.7104   74.3767  221.9083 H   0  0  0  0  0  0  0  0  0  0  0  0
  146.5252   73.9978  220.3529 H   0  0  0  0  0  0  0  0  0  0  0  0
  144.9197   74.8035  220.3529 H   0  0  0  0  0  0  0  0  0  0  0  0
  145.3596   72.0689  221.5852 H   0  0  0  0  0  0  0  0  0  0  0  0
  143.8130   72.8782  221.0630 H   0  0  0  0  0  0  0  0  0  0  0  0
  145.9281   70.3499  217.3341 H   0  0  0  0  0  0  0  0  0  0  0  0
  147.0423   68.1095  217.0970 H   0  0  0  0  0  0  0  0  0  0  0  0
  146.5092   66.2542  218.6244 H   0  0  0  0  0  0  0  0  0  0  0  0
  144.8400   66.5626  220.4513 H   0  0  0  0  0  0  0  0  0  0  0  0
  143.7391   68.7700  220.6946 H   0  0  0  0  0  0  0  0  0  0  0  0
  142.4054   70.3556  218.2477 H   0  0  0  0  0  0  0  0  0  0  0  0
  143.1949   72.7703  217.7980 H   0  0  0  0  0  0  0  0  0  0  0  0
  141.4853   72.0611  217.6143 H   0  0  0  0  0  0  0  0  0  0  0  0
  142.5238   74.1058  219.4857 H   0  0  0  0  0  0  0  0  0  0  0  0
  141.0098   74.0281  218.4862 H   0  0  0  0  0  0  0  0  0  0  0  0
  141.9238   75.0518  222.1674 H   0  0  0  0  0  0  0  0  0  0  0  0
  140.2470   76.3410  223.2330 H   0  0  0  0  0  0  0  0  0  0  0  0
  139.3750   74.8430  223.0830 H   0  0  0  0  0  0  0  0  0  0  0  0
  141.8243   75.6580  219.8756 H   0  0  0  0  0  0  0  0  0  0  0  0
  140.0132   75.8504  219.9741 H   0  0  0  0  0  0  0  0  0  0  0  0
  140.6391   77.9873  218.8242 H   0  0  0  0  0  0  0  0  0  0  0  0
  141.3013   82.1606  220.7040 H   0  0  0  0  0  0  0  0  0  0  0  0
  141.9084   82.9707  222.9754 H   0  0  0  0  0  0  0  0  0  0  0  0
  142.3058   81.4182  224.8247 H   0  0  0  0  0  0  0  0  0  0  0  0
  142.1116   78.9403  224.4873 H   0  0  0  0  0  0  0  0  0  0  0  0
  141.6324   77.1192  222.9044 H   0  0  0  0  0  0  0  0  0  0  0  0
  139.9168   71.2250  220.9468 H   0  0  0  0  0  0  0  0  0  0  0  0
  140.0469   71.3024  219.2013 H   0  0  0  0  0  0  0  0  0  0  0  0
  142.4696   71.1500  221.1162 H   0  0  0  0  0  0  0  0  0  0  0  0
  141.7635   69.7181  220.3260 H   0  0  0  0  0  0  0  0  0  0  0  0
  1  2  1  0
  2  3  1  0
  3  4  2  0
  3  5  1  0
  5  6  1  0
  6  7  2  0
  7  8  1  0
  8  9  2  0
  9 10  1  0
 10 11  2  0
  5 12  1  0
 12 13  1  0
 13 14  1  0
 14 15  1  0
 15 16  1  0
 16 17  2  0
 16 18  1  0
 18 19  1  0
 18 20  1  0
 20 21  1  0
 21 22  2  0
 22 23  1  0
 23 24  2  0
 24 25  1  0
 25 26  2  0
 26 27  1  0
 27 28  2  0
 28 29  1  0
 29 30  2  0
 15 31  1  0
 31 32  1  0
 11  6  1  0
 32 12  1  0
 30 21  1  0
 29 24  1  0
  1 33  1  0
  1 34  1  0
  1 35  1  0
  2 36  1  0
  2 37  1  0
  7 38  1  0
  8 39  1  0
  9 40  1  0
 10 41  1  0
 11 42  1  0
 12 43  1  0
 13 44  1  0
 13 45  1  0
 14 46  1  0
 14 47  1  0
 18 48  1  1
 19 49  1  0
 19 50  1  0
 20 51  1  0
 20 52  1  0
 22 53  1  0
 25 54  1  0
 26 55  1  0
 27 56  1  0
 28 57  1  0
 30 58  1  0
 31 59  1  0
 31 60  1  0
 32 61  1  0
 32 62  1  0
M  END
>  <smiles>  (2) 
CCC(=O)N(c1ccccc1)C1CCN(C(=O)[C@H](N)Cc2cnc3ccccc3c2)CC1

>  <score_type>  (2) 
oracle

>  <origin>  (2) 
autodockgpu

>  <m_score__min__energy>  (2) 
-8.8699999999999992

>  <m_primary>  (2) 
energy

>  <rmsd>  (2) 
6.981892197210606

>  <m_score__min__rmsd>  (2) 
6.981892197210606

>  <meeko>  (2) 
{"free_energy": -8.2, "intermolecular_energy": -10.59, "internal_energy": -2.05, "cluster_size": 5, "cluster_id": 2, "rank_in_cluster": 2}

>  <energy>  (2) 
-8.69

>  <cluster_rmsd>  (2) 
0.88

>  <cluster>  (2) 
1

$$$$

     RDKit          3D

 62 65  0  0  0  0  0  0  0  0999 V2000
  142.5690   79.2050  218.3350 C   0  0  0  0  0  0  0  0  0  0  0  0
  142.2230   77.7390  218.3970 C   0  0  0  0  0  0  0  0  0  0  0  0
  142.2040   77.2050  219.7940 C   0  0  0  0  0  0  0  0  0  0  0  0
  143.1650   76.4400  220.0960 O   0  0  0  0  0  0  0  0  0  0  0  0
  141.1660   77.5490  220.6950 N   0  0  0  0  0  0  0  0  0  0  0  0
  141.4940   78.4840  221.7520 C   0  0  0  0  0  0  0  0  0  0  0  0
  141.5080   77.9730  223.0540 C   0  0  0  0  0  0  0  0  0  0  0  0
  141.8270   78.8780  224.0720 C   0  0  0  0  0  0  0  0  0  0  0  0
  142.1120   80.2040  223.8070 C   0  0  0  0  0  0  0  0  0  0  0  0
  142.0920   80.6820  222.5120 C   0  0  0  0  0  0  0  0  0  0  0  0
  141.7800   79.7980  221.5020 C   0  0  0  0  0  0  0  0  0  0  0  0
  139.8330   76.9890  220.5660 C   0  0  0  0  0  0  0  0  0  0  0  0
  139.1240   76.7500  221.8440 C   0  0  0  0  0  0  0  0  0  0  0  0
  139.0260   75.3390  222.3300 C   0  0  0  0  0  0  0  0  0  0  0  0
  138.9710   74.3910  221.2380 N   0  0  0  0  0  0  0  0  0  0  0  0
  139.2410   73.0290  221.3030 C   0  0  0  0  0  0  0  0  0  0  0  0
  139.1410   72.3320  220.2260 O   0  0  0  0  0  0  0  0  0  0  0  0
  139.6430   72.2610  222.5010 C   0  0  2  0  0  0  0  0  0  0  0  0
  140.6910   71.2840  222.1360 N   0  0  0  0  0  0  0  0  0  0  0  0
  138.5250   71.4820  223.1380 C   0  0  0  0  0  0  0  0  0  0  0  0
  138.9890   70.5570  224.1870 C   0  0  0  0  0  0  0  0  0  0  0  0
  138.7390   69.2100  224.0050 C   0  0  0  0  0  0  0  0  0  0  0  0
  139.1570   68.3520  224.9530 N   0  0  0  0  0  0  0  0  0  0  0  0
  139.8060   68.7180  226.0720 C   0  0  0  0  0  0  0  0  0  0  0  0
  140.1850   67.7320  226.9720 C   0  0  0  0  0  0  0  0  0  0  0  0
  140.8480   68.1550  228.1030 C   0  0  0  0  0  0  0  0  0  0  0  0
  141.1260   69.4810  228.3410 C   0  0  0  0  0  0  0  0  0  0  0  0
  140.7460   70.4710  227.4380 C   0  0  0  0  0  0  0  0  0  0  0  0
  140.0800   70.0560  226.3000 C   0  0  0  0  0  0  0  0  0  0  0  0
  139.6540   70.9500  225.3330 C   0  0  0  0  0  0  0  0  0  0  0  0
  138.5950   74.9920  219.9370 C   0  0  0  0  0  0  0  0  0  0  0  0
  139.7970   75.8440  219.5910 C   0  0  0  0  0  0  0  0  0  0  0  0
  142.6629   79.6031  219.3561 H   0  0  0  0  0  0  0  0  0  0  0  0
  143.5224   79.3345  217.8018 H   0  0  0  0  0  0  0  0  0  0  0  0
  141.7741   79.7471  217.8018 H   0  0  0  0  0  0  0  0  0  0  0  0
  141.2275   77.5940  217.9521 H   0  0  0  0  0  0  0  0  0  0  0  0
  143.0013   77.1921  217.8447 H   0  0  0  0  0  0  0  0  0  0  0  0
  141.2807   76.9178  223.2658 H   0  0  0  0  0  0  0  0  0  0  0  0
  141.8517   78.5240  225.1132 H   0  0  0  0  0  0  0  0  0  0  0  0
  142.3570   80.8849  224.6355 H   0  0  0  0  0  0  0  0  0  0  0  0
  142.3181   81.7360  222.2931 H   0  0  0  0  0  0  0  0  0  0  0  0
  141.7604   80.1600  220.4634 H   0  0  0  0  0  0  0  0  0  0  0  0
  139.2183   77.7829  220.1168 H   0  0  0  0  0  0  0  0  0  0  0  0
  139.6429   77.3302  222.6213 H   0  0  0  0  0  0  0  0  0  0  0  0
  138.0842   77.0492  221.6459 H   0  0  0  0  0  0  0  0  0  0  0  0
  139.9065   75.1153  222.9502 H   0  0  0  0  0  0  0  0  0  0  0  0
  138.0958   75.2435  222.9094 H   0  0  0  0  0  0  0  0  0  0  0  0
  139.9924   73.0131  223.2237 H   0  0  0  0  0  0  0  0  0  0  0  0
  141.6310   71.5900  222.4070 H   0  0  0  0  0  0  0  0  0  0  0  0
  140.5920   71.0010  221.1410 H   0  0  0  0  0  0  0  0  0  0  0  0
  137.8149   72.1922  223.5867 H   0  0  0  0  0  0  0  0  0  0  0  0
  138.0574   70.8748  222.3489 H   0  0  0  0  0  0  0  0  0  0  0  0
  138.2124   68.8492  223.1091 H   0  0  0  0  0  0  0  0  0  0  0  0
  139.9675   66.6689  226.7918 H   0  0  0  0  0  0  0  0  0  0  0  0
  141.1666   67.4055  228.8424 H   0  0  0  0  0  0  0  0  0  0  0  0
  141.6580   69.7646  229.2611 H   0  0  0  0  0  0  0  0  0  0  0  0
  140.9655   71.5331  227.6218 H   0  0  0  0  0  0  0  0  0  0  0  0
  139.8537   72.0212  225.4834 H   0  0  0  0  0  0  0  0  0  0  0  0
  138.4299   74.2148  219.1762 H   0  0  0  0  0  0  0  0  0  0  0  0
  137.6573   75.5655  219.9810 H   0  0  0  0  0  0  0  0  0  0  0  0
  140.7175   75.2480  219.6770 H   0  0  0  0  0  0  0  0  0  0  0  0
  139.7250   76.2157  218.5582 H   0  0  0  0  0  0  0  0  0  0  0  0
  1  2  1  0
  2  3  1  0
  3  4  2  0
  3  5  1  0
  5  6  1  0
  6  7  2  0
  7  8  1  0
  8  9  2  0
  9 10  1  0
 10 11  2  0
  5 12  1  0
 12 13  1  0
 13 14  1  0
 14 15  1  0
 15 16  1  0
 16 17  2  0
 16 18  1  0
 18 19  1  0
 18 20  1  0
 20 21  1  0
 21 22  2  0
 22 23  1  0
 23 24  2  0
 24 25  1  0
 25 26  2  0
 26 27  1  0
 27 28  2  0
 28 29  1  0
 29 30  2  0
 15 31  1  0
 31 32  1  0
 11  6  1  0
 32 12  1  0
 30 21  1  0
 29 24  1  0
  1 33  1  0
  1 34  1  0
  1 35  1  0
  2 36  1  0
  2 37  1  0
  7 38  1  0
  8 39  1  0
  9 40  1  0
 10 41  1  0
 11 42  1  0
 12 43  1  0
 13 44  1  0
 13 45  1  0
 14 46  1  0
 14 47  1  0
 18 48  1  1
 19 49  1  0
 19 50  1  0
 20 51  1  0
 20 52  1  0
 22 53  1  0
 25 54  1  0
 26 55  1  0
 27 56  1  0
 28 57  1  0
 30 58  1  0
 31 59  1  0
 31 60  1  0
 32 61  1  0
 32 62  1  0
M  END
>  <smiles>  (3) 
CCC(=O)N(c1ccccc1)C1CCN(C(=O)[C@H](N)Cc2cnc3ccccc3c2)CC1

>  <score_type>  (3) 
oracle

>  <origin>  (3) 
autodockgpu

>  <m_score__min__energy>  (3) 
-8.8699999999999992

>  <m_primary>  (3) 
energy

>  <rmsd>  (3) 
6.987475729471039

>  <m_score__min__rmsd>  (3) 
6.987475729471039

>  <meeko>  (3) 
{"free_energy": -8.16, "intermolecular_energy": -10.54, "internal_energy": -2.02, "cluster_size": 25, "cluster_id": 1, "rank_in_cluster": 23}

>  <energy>  (3) 
-8.69

>  <cluster_rmsd>  (3) 
1.01

>  <cluster>  (3) 
1

$$$$

     RDKit          3D

 62 65  0  0  0  0  0  0  0  0999 V2000
  142.4250   74.9620  220.4310 C   0  0  0  0  0  0  0  0  0  0  0  0
  142.9760   76.2620  219.9050 C   0  0  0  0  0  0  0  0  0  0  0  0
  141.9260   77.3130  219.7390 C   0  0  0  0  0  0  0  0  0  0  0  0
  141.9170   77.9010  218.6190 O   0  0  0  0  0  0  0  0  0  0  0  0
  141.0150   77.6100  220.7840 N   0  0  0  0  0  0  0  0  0  0  0  0
  141.4400   78.5820  221.7710 C   0  0  0  0  0  0  0  0  0  0  0  0
  141.8050   79.8430  221.2870 C   0  0  0  0  0  0  0  0  0  0  0  0
  142.2130   80.7780  222.2430 C   0  0  0  0  0  0  0  0  0  0  0  0
  142.2550   80.4760  223.5910 C   0  0  0  0  0  0  0  0  0  0  0  0
  141.8890   79.2230  224.0410 C   0  0  0  0  0  0  0  0  0  0  0  0
  141.4840   78.2940  223.1070 C   0  0  0  0  0  0  0  0  0  0  0  0
  139.7160   76.9670  220.8630 C   0  0  0  0  0  0  0  0  0  0  0  0
  139.3900   76.3660  222.1760 C   0  0  0  0  0  0  0  0  0  0  0  0
  139.4730   74.8780  222.2980 C   0  0  0  0  0  0  0  0  0  0  0  0
  139.1520   74.2120  221.0530 N   0  0  0  0  0  0  0  0  0  0  0  0
  139.4720   72.9070  220.7000 C   0  0  0  0  0  0  0  0  0  0  0  0
  139.1050   72.4770  219.5440 O   0  0  0  0  0  0  0  0  0  0  0  0
  140.2090   71.9220  221.5200 C   0  0  2  0  0  0  0  0  0  0  0  0
  141.0760   71.0990  220.6490 N   0  0  0  0  0  0  0  0  0  0  0  0
  139.3280   70.9700  222.2820 C   0  0  0  0  0  0  0  0  0  0  0  0
  139.7410   70.7970  223.6850 C   0  0  0  0  0  0  0  0  0  0  0  0
  140.3640   71.8640  224.3040 C   0  0  0  0  0  0  0  0  0  0  0  0
  140.7470   71.7230  225.5850 N   0  0  0  0  0  0  0  0  0  0  0  0
  140.5630   70.6050  226.3110 C   0  0  0  0  0  0  0  0  0  0  0  0
  141.0040   70.5880  227.6260 C   0  0  0  0  0  0  0  0  0  0  0  0
  140.7930   69.4220  228.3290 C   0  0  0  0  0  0  0  0  0  0  0  0
  140.1790   68.3250  227.7700 C   0  0  0  0  0  0  0  0  0  0  0  0
  139.7360   68.3420  226.4500 C   0  0  0  0  0  0  0  0  0  0  0  0
  139.9430   69.5080  225.7360 C   0  0  0  0  0  0  0  0  0  0  0  0
  139.5450   69.6410  224.4170 C   0  0  0  0  0  0  0  0  0  0  0  0
  138.4170   75.0620  220.0870 C   0  0  0  0  0  0  0  0  0  0  0  0
  139.4520   76.0870  219.6720 C   0  0  0  0  0  0  0  0  0  0  0  0
  142.4322   74.9790  221.5308 H   0  0  0  0  0  0  0  0  0  0  0  0
  141.3933   74.8295  220.0731 H   0  0  0  0  0  0  0  0  0  0  0  0
  143.0472   74.1285  220.0731 H   0  0  0  0  0  0  0  0  0  0  0  0
  143.7352   76.6323  220.6096 H   0  0  0  0  0  0  0  0  0  0  0  0
  143.4034   76.0619  218.9114 H   0  0  0  0  0  0  0  0  0  0  0  0
  141.7727   80.0852  220.2145 H   0  0  0  0  0  0  0  0  0  0  0  0
  142.5095   81.7843  221.9123 H   0  0  0  0  0  0  0  0  0  0  0  0
  142.5827   81.2401  224.3113 H   0  0  0  0  0  0  0  0  0  0  0  0
  141.9197   78.9739  225.1120 H   0  0  0  0  0  0  0  0  0  0  0  0
  141.1872   77.2907  223.4465 H   0  0  0  0  0  0  0  0  0  0  0  0
  138.9764   77.7790  220.8027 H   0  0  0  0  0  0  0  0  0  0  0  0
  140.0822   76.7956  222.9151 H   0  0  0  0  0  0  0  0  0  0  0  0
  138.3265   76.5994  222.3328 H   0  0  0  0  0  0  0  0  0  0  0  0
  140.4959   74.6027  222.5944 H   0  0  0  0  0  0  0  0  0  0  0  0
  138.7397   74.5580  223.0529 H   0  0  0  0  0  0  0  0  0  0  0  0
  140.7778   72.5195  222.2477 H   0  0  0  0  0  0  0  0  0  0  0  0
  140.8850   71.2390  219.6520 H   0  0  0  0  0  0  0  0  0  0  0  0
  141.0680   70.1080  220.9610 H   0  0  0  0  0  0  0  0  0  0  0  0
  138.2983   71.3566  222.2654 H   0  0  0  0  0  0  0  0  0  0  0  0
  139.4074   69.9876  221.7935 H   0  0  0  0  0  0  0  0  0  0  0  0
  140.5420   72.8047  223.7624 H   0  0  0  0  0  0  0  0  0  0  0  0
  141.4960   71.4591  228.0833 H   0  0  0  0  0  0  0  0  0  0  0  0
  141.1277   69.3661  229.3754 H   0  0  0  0  0  0  0  0  0  0  0  0
  140.0355   67.4186  228.3765 H   0  0  0  0  0  0  0  0  0  0  0  0
  139.2444   67.4688  225.9964 H   0  0  0  0  0  0  0  0  0  0  0  0
  139.0503   68.7881  223.9292 H   0  0  0  0  0  0  0  0  0  0  0  0
  138.0762   74.4730  219.2227 H   0  0  0  0  0  0  0  0  0  0  0  0
  137.5089   75.5135  220.5130 H   0  0  0  0  0  0  0  0  0  0  0  0
  140.3795   75.5817  219.3649 H   0  0  0  0  0  0  0  0  0  0  0  0
  139.0893   76.6829  218.8215 H   0  0  0  0  0  0  0  0  0  0  0  0
  1  2  1  0
  2  3  1  0
  3  4  2  0
  3  5  1  0
  5  6  1  0
  6  7  2  0
  7  8  1  0
  8  9  2  0
  9 10  1  0
 10 11  2  0
  5 12  1  0
 12 13  1  0
 13 14  1  0
 14 15  1  0
 15 16  1  0
 16 17  2  0
 16 18  1  0
 18 19  1  0
 18 20  1  0
 20 21  1  0
 21 22  2  0
 22 23  1  0
 23 24  2  0
 24 25  1  0
 25 26  2  0
 26 27  1  0
 27 28  2  0
 28 29  1  0
 29 30  2  0
 15 31  1  0
 31 32  1  0
 11  6  1  0
 32 12  1  0
 30 21  1  0
 29 24  1  0
  1 33  1  0
  1 34  1  0
  1 35  1  0
  2 36  1  0
  2 37  1  0
  7 38  1  0
  8 39  1  0
  9 40  1  0
 10 41  1  0
 11 42  1  0
 12 43  1  0
 13 44  1  0
 13 45  1  0
 14 46  1  0
 14 47  1  0
 18 48  1  1
 19 49  1  0
 19 50  1  0
 20 51  1  0
 20 52  1  0
 22 53  1  0
 25 54  1  0
 26 55  1  0
 27 56  1  0
 28 57  1  0
 30 58  1  0
 31 59  1  0
 31 60  1  0
 32 61  1  0
 32 62  1  0
M  END
>  <smiles>  (4) 
CCC(=O)N(c1ccccc1)C1CCN(C(=O)[C@H](N)Cc2cnc3ccccc3c2)CC1

>  <score_type>  (4) 
oracle

>  <origin>  (4) 
autodockgpu

>  <m_score__min__energy>  (4) 
-8.8699999999999992

>  <m_primary>  (4) 
energy

>  <rmsd>  (4) 
6.630557313337171

>  <m_score__min__rmsd>  (4) 
6.630557313337171

>  <meeko>  (4) 
{"free_energy": -7.66, "intermolecular_energy": -10.05, "internal_energy": -2.36, "cluster_size": 6, "cluster_id": 4, "rank_in_cluster": 3}

>  <energy>  (4) 
-8.67

>  <cluster_rmsd>  (4) 
0.82

>  <cluster>  (4) 
1

$$$$

     RDKit          3D

 62 65  0  0  0  0  0  0  0  0999 V2000
  141.1850   67.8090  227.9270 C   0  0  0  0  0  0  0  0  0  0  0  0
  140.8230   67.4170  226.5170 C   0  0  0  0  0  0  0  0  0  0  0  0
  139.5860   68.0970  226.0250 C   0  0  0  0  0  0  0  0  0  0  0  0
  138.5240   67.4140  226.1000 O   0  0  0  0  0  0  0  0  0  0  0  0
  139.6310   69.4180  225.5120 N   0  0  0  0  0  0  0  0  0  0  0  0
  140.2490   70.4270  226.3470 C   0  0  0  0  0  0  0  0  0  0  0  0
  141.2280   71.2230  225.7420 C   0  0  0  0  0  0  0  0  0  0  0  0
  141.8220   72.1970  226.5500 C   0  0  0  0  0  0  0  0  0  0  0  0
  141.4640   72.3640  227.8750 C   0  0  0  0  0  0  0  0  0  0  0  0
  140.4950   71.5650  228.4470 C   0  0  0  0  0  0  0  0  0  0  0  0
  139.9030   70.6030  227.6580 C   0  0  0  0  0  0  0  0  0  0  0  0
  139.0800   69.7450  224.2100 C   0  0  0  0  0  0  0  0  0  0  0  0
  137.9890   70.7450  224.2210 C   0  0  0  0  0  0  0  0  0  0  0  0
  136.5910   70.2490  224.0280 C   0  0  0  0  0  0  0  0  0  0  0  0
  136.5430   69.0760  223.1810 N   0  0  0  0  0  0  0  0  0  0  0  0
  135.5030   68.1590  223.0870 C   0  0  0  0  0  0  0  0  0  0  0  0
  135.6300   67.1680  222.2760 O   0  0  0  0  0  0  0  0  0  0  0  0
  134.2270   68.1860  223.8330 C   0  0  2  0  0  0  0  0  0  0  0  0
  133.6050   66.8440  223.8050 N   0  0  0  0  0  0  0  0  0  0  0  0
  133.2100   69.1480  223.2820 C   0  0  0  0  0  0  0  0  0  0  0  0
  133.5880   70.5590  223.4700 C   0  0  0  0  0  0  0  0  0  0  0  0
  133.9950   71.2650  222.3530 C   0  0  0  0  0  0  0  0  0  0  0  0
  134.3430   72.5550  222.5070 N   0  0  0  0  0  0  0  0  0  0  0  0
  134.3210   73.2090  223.6820 C   0  0  0  0  0  0  0  0  0  0  0  0
  134.7040   74.5430  223.7060 C   0  0  0  0  0  0  0  0  0  0  0  0
  134.6650   75.1710  224.9310 C   0  0  0  0  0  0  0  0  0  0  0  0
  134.2690   74.5240  226.0790 C   0  0  0  0  0  0  0  0  0  0  0  0
  133.8840   73.1860  226.0550 C   0  0  0  0  0  0  0  0  0  0  0  0
  133.9210   72.5470  224.8300 C   0  0  0  0  0  0  0  0  0  0  0  0
  133.5610   71.2180  224.6850 C   0  0  0  0  0  0  0  0  0  0  0  0
  137.7600   68.8740  222.3610 C   0  0  0  0  0  0  0  0  0  0  0  0
  138.8120   68.5130  223.3880 C   0  0  0  0  0  0  0  0  0  0  0  0
  140.6150   67.1917  228.6370 H   0  0  0  0  0  0  0  0  0  0  0  0
  142.2619   67.6513  228.0864 H   0  0  0  0  0  0  0  0  0  0  0  0
  140.9422   68.8700  228.0864 H   0  0  0  0  0  0  0  0  0  0  0  0
  141.6583   67.6838  225.8528 H   0  0  0  0  0  0  0  0  0  0  0  0
  140.6285   66.3343  226.5143 H   0  0  0  0  0  0  0  0  0  0  0  0
  141.5145   71.0897  224.6884 H   0  0  0  0  0  0  0  0  0  0  0  0
  142.5962   72.8490  226.1194 H   0  0  0  0  0  0  0  0  0  0  0  0
  141.9560   73.1408  228.4787 H   0  0  0  0  0  0  0  0  0  0  0  0
  140.2043   71.6922  229.5002 H   0  0  0  0  0  0  0  0  0  0  0  0
  139.1282   69.9567  228.0963 H   0  0  0  0  0  0  0  0  0  0  0  0
  139.8737   70.2907  223.6787 H   0  0  0  0  0  0  0  0  0  0  0  0
  138.0242   71.2593  225.1927 H   0  0  0  0  0  0  0  0  0  0  0  0
  138.1833   71.3791  223.3434 H   0  0  0  0  0  0  0  0  0  0  0  0
  136.1656   69.9953  225.0102 H   0  0  0  0  0  0  0  0  0  0  0  0
  136.0129   71.0458  223.5373 H   0  0  0  0  0  0  0  0  0  0  0  0
  134.4934   68.5125  224.8491 H   0  0  0  0  0  0  0  0  0  0  0  0
  133.9480   66.2320  224.5520 H   0  0  0  0  0  0  0  0  0  0  0  0
  133.6590   66.4400  222.8490 H   0  0  0  0  0  0  0  0  0  0  0  0
  133.0950   68.9569  222.2048 H   0  0  0  0  0  0  0  0  0  0  0  0
  132.2716   68.9838  223.8320 H   0  0  0  0  0  0  0  0  0  0  0  0
  134.0332   70.7842  221.3644 H   0  0  0  0  0  0  0  0  0  0  0  0
  135.0219   75.0707  222.7947 H   0  0  0  0  0  0  0  0  0  0  0  0
  134.9612   76.2285  224.9940 H   0  0  0  0  0  0  0  0  0  0  0  0
  134.2563   75.0731  227.0320 H   0  0  0  0  0  0  0  0  0  0  0  0
  133.5653   72.6621  226.9682 H   0  0  0  0  0  0  0  0  0  0  0  0
  133.2388   70.6611  225.5772 H   0  0  0  0  0  0  0  0  0  0  0  0
  137.6176   68.0572  221.6381 H   0  0  0  0  0  0  0  0  0  0  0  0
  138.0274   69.7561  221.7607 H   0  0  0  0  0  0  0  0  0  0  0  0
  138.4440   67.7025  224.0343 H   0  0  0  0  0  0  0  0  0  0  0  0
  139.7327   68.1667  222.8957 H   0  0  0  0  0  0  0  0  0  0  0  0
  1  2  1  0
  2  3  1  0
  3  4  2  0
  3  5  1  0
  5  6  1  0
  6  7  2  0
  7  8  1  0
  8  9  2  0
  9 10  1  0
 10 11  2  0
  5 12  1  0
 12 13  1  0
 13 14  1  0
 14 15  1  0
 15 16  1  0
 16 17  2  0
 16 18  1  0
 18 19  1  0
 18 20  1  0
 20 21  1  0
 21 22  2  0
 22 23  1  0
 23 24  2  0
 24 25  1  0
 25 26  2  0
 26 27  1  0
 27 28  2  0
 28 29  1  0
 29 30  2  0
 15 31  1  0
 31 32  1  0
 11  6  1  0
 32 12  1  0
 30 21  1  0
 29 24  1  0
  1 33  1  0
  1 34  1  0
  1 35  1  0
  2 36  1  0
  2 37  1  0
  7 38  1  0
  8 39  1  0
  9 40  1  0
 10 41  1  0
 11 42  1  0
 12 43  1  0
 13 44  1  0
 13 45  1  0
 14 46  1  0
 14 47  1  0
 18 48  1  1
 19 49  1  0
 19 50  1  0
 20 51  1  0
 20 52  1  0
 22 53  1  0
 25 54  1  0
 26 55  1  0
 27 56  1  0
 28 57  1  0
 30 58  1  0
 31 59  1  0
 31 60  1  0
 32 61  1  0
 32 62  1  0
M  END
>  <smiles>  (5) 
CCC(=O)N(c1ccccc1)C1CCN(C(=O)[C@H](N)Cc2cnc3ccccc3c2)CC1

>  <score_type>  (5) 
oracle

>  <origin>  (5) 
autodockgpu

>  <m_score__min__energy>  (5) 
-8.8699999999999992

>  <m_primary>  (5) 
energy

>  <rmsd>  (5) 
10.747814193385318

>  <m_score__min__rmsd>  (5) 
10.747814193385318

>  <meeko>  (5) 
{"free_energy": -7.11, "intermolecular_energy": -9.5, "internal_energy": -2.7, "cluster_size": 1, "cluster_id": 6, "rank_in_cluster": 1}

>  <energy>  (5) 
-8.52

>  <cluster_rmsd>  (5) 
0.85

>  <cluster>  (5) 
1

$$$$

     RDKit          3D

 62 65  0  0  0  0  0  0  0  0999 V2000
  146.4360   73.3290  221.7970 C   0  0  0  0  0  0  0  0  0  0  0  0
  145.6480   73.9630  220.6800 C   0  0  0  0  0  0  0  0  0  0  0  0
  145.4010   73.0280  219.5390 C   0  0  0  0  0  0  0  0  0  0  0  0
  146.2680   73.0530  218.6190 O   0  0  0  0  0  0  0  0  0  0  0  0
  144.2620   72.1840  219.5170 N   0  0  0  0  0  0  0  0  0  0  0  0
  144.5020   70.7580  219.4460 C   0  0  0  0  0  0  0  0  0  0  0  0
  145.7650   70.3590  218.9940 C   0  0  0  0  0  0  0  0  0  0  0  0
  145.9920   68.9810  218.9280 C   0  0  0  0  0  0  0  0  0  0  0  0
  145.0240   68.0620  219.2870 C   0  0  0  0  0  0  0  0  0  0  0  0
  143.7860   68.4830  219.7290 C   0  0  0  0  0  0  0  0  0  0  0  0
  143.5520   69.8390  219.7990 C   0  0  0  0  0  0  0  0  0  0  0  0
  142.9160   72.7260  219.5630 C   0  0  0  0  0  0  0  0  0  0  0  0
  142.3400   72.8660  220.9200 C   0  0  0  0  0  0  0  0  0  0  0  0
  141.3140   71.8640  221.3450 C   0  0  0  0  0  0  0  0  0  0  0  0
  140.5280   71.3840  220.2280 N   0  0  0  0  0  0  0  0  0  0  0  0
  139.7660   70.2240  220.1830 C   0  0  0  0  0  0  0  0  0  0  0  0
  139.1270   69.9500  219.1010 O   0  0  0  0  0  0  0  0  0  0  0  0
  139.5970   69.2310  221.2670 C   0  0  2  0  0  0  0  0  0  0  0  0
  139.1480   67.9430  220.6960 N   0  0  0  0  0  0  0  0  0  0  0  0
  138.5850   69.6220  222.3090 C   0  0  0  0  0  0  0  0  0  0  0  0
  139.0250   69.3250  223.6830 C   0  0  0  0  0  0  0  0  0  0  0  0
  138.8110   68.0450  224.1600 C   0  0  0  0  0  0  0  0  0  0  0  0
  139.2070   67.7570  225.4120 N   0  0  0  0  0  0  0  0  0  0  0  0
  139.8030   68.6360  226.2380 C   0  0  0  0  0  0  0  0  0  0  0  0
  140.1660   68.2110  227.5080 C   0  0  0  0  0  0  0  0  0  0  0  0
  140.7740   69.1460  228.3170 C   0  0  0  0  0  0  0  0  0  0  0  0
  141.0150   70.4350  227.9020 C   0  0  0  0  0  0  0  0  0  0  0  0
  140.6520   70.8610  226.6270 C   0  0  0  0  0  0  0  0  0  0  0  0
  140.0410   69.9300  225.8080 C   0  0  0  0  0  0  0  0  0  0  0  0
  139.6360   70.2400  224.5200 C   0  0  0  0  0  0  0  0  0  0  0  0
  140.5900   72.2540  219.0300 C   0  0  0  0  0  0  0  0  0  0  0  0
  142.0150   72.0770  218.5490 C   0  0  0  0  0  0  0  0  0  0  0  0
  146.0288   73.6566  222.7649 H   0  0  0  0  0  0  0  0  0  0  0  0
  146.3642   72.2340  221.7208 H   0  0  0  0  0  0  0  0  0  0  0  0
  147.4903   73.6336  221.7208 H   0  0  0  0  0  0  0  0  0  0  0  0
  144.6778   74.2942  221.0788 H   0  0  0  0  0  0  0  0  0  0  0  0
  146.2409   74.8054  220.2943 H   0  0  0  0  0  0  0  0  0  0  0  0
  146.5362   71.0889  218.7067 H   0  0  0  0  0  0  0  0  0  0  0  0
  146.9701   68.6174  218.5800 H   0  0  0  0  0  0  0  0  0  0  0  0
  145.2421   66.9859  219.2199 H   0  0  0  0  0  0  0  0  0  0  0  0
  143.0101   67.7582  220.0165 H   0  0  0  0  0  0  0  0  0  0  0  0
  142.5714   70.1935  220.1494 H   0  0  0  0  0  0  0  0  0  0  0  0
  143.0063   73.7772  219.2517 H   0  0  0  0  0  0  0  0  0  0  0  0
  143.1717   72.8096  221.6377 H   0  0  0  0  0  0  0  0  0  0  0  0
  141.8005   73.8243  220.8963 H   0  0  0  0  0  0  0  0  0  0  0  0
  141.8248   71.0095  221.8128 H   0  0  0  0  0  0  0  0  0  0  0  0
  140.6316   72.3566  222.0533 H   0  0  0  0  0  0  0  0  0  0  0  0
  140.5813   69.1626  221.7533 H   0  0  0  0  0  0  0  0  0  0  0  0
  139.9280   67.3430  220.4100 H   0  0  0  0  0  0  0  0  0  0  0  0
  138.4270   68.1020  219.9660 H   0  0  0  0  0  0  0  0  0  0  0  0
  138.3984   70.7030  222.2273 H   0  0  0  0  0  0  0  0  0  0  0  0
  137.6763   69.0313  222.1211 H   0  0  0  0  0  0  0  0  0  0  0  0
  138.3291   67.2819  223.5312 H   0  0  0  0  0  0  0  0  0  0  0  0
  139.9784   67.1827  227.8506 H   0  0  0  0  0  0  0  0  0  0  0  0
  141.0779   68.8507  229.3321 H   0  0  0  0  0  0  0  0  0  0  0  0
  141.5030   71.1417  228.5893 H   0  0  0  0  0  0  0  0  0  0  0  0
  140.8424   71.8898  226.2875 H   0  0  0  0  0  0  0  0  0  0  0  0
  139.8084   71.2602  224.1464 H   0  0  0  0  0  0  0  0  0  0  0  0
  139.8714   71.9243  218.2652 H   0  0  0  0  0  0  0  0  0  0  0  0
  140.3332   73.3021  219.2435 H   0  0  0  0  0  0  0  0  0  0  0  0
  142.2532   71.0064  218.4651 H   0  0  0  0  0  0  0  0  0  0  0  0
  142.1505   72.5364  217.5588 H   0  0  0  0  0  0  0  0  0  0  0  0
  1  2  1  0
  2  3  1  0
  3  4  2  0
  3  5  1  0
  5  6  1  0
  6  7  2  0
  7  8  1  0
  8  9  2  0
  9 10  1  0
 10 11  2  0
  5 12  1  0
 12 13  1  0
 13 14  1  0
 14 15  1  0
 15 16  1  0
 16 17  2  0
 16 18  1  0
 18 19  1  0
 18 20  1  0
 20 21  1  0
 21 22  2  0
 22 23  1  0
 23 24  2  0
 24 25  1  0
 25 26  2  0
 26 27  1  0
 27 28  2  0
 28 29  1  0
 29 30  2  0
 15 31  1  0
 31 32  1  0
 11  6  1  0
 32 12  1  0
 30 21  1  0
 29 24  1  0
  1 33  1  0
  1 34  1  0
  1 35  1  0
  2 36  1  0
  2 37  1  0
  7 38  1  0
  8 39  1  0
  9 40  1  0
 10 41  1  0
 11 42  1  0
 12 43  1  0
 13 44  1  0
 13 45  1  0
 14 46  1  0
 14 47  1  0
 18 48  1  1
 19 49  1  0
 19 50  1  0
 20 51  1  0
 20 52  1  0
 22 53  1  0
 25 54  1  0
 26 55  1  0
 27 56  1  0
 28 57  1  0
 30 58  1  0
 31 59  1  0
 31 60  1  0
 32 61  1  0
 32 62  1  0
M  END
>  <smiles>  (6) 
CCC(=O)N(c1ccccc1)C1CCN(C(=O)[C@H](N)Cc2cnc3ccccc3c2)CC1

>  <score_type>  (6) 
oracle

>  <origin>  (6) 
autodockgpu

>  <m_score__min__energy>  (6) 
-8.8699999999999992

>  <m_primary>  (6) 
energy

>  <rmsd>  (6) 
8.793911694794724

>  <m_score__min__rmsd>  (6) 
8.793911694794724

>  <meeko>  (6) 
{"free_energy": -8.34, "intermolecular_energy": -10.72, "internal_energy": -2.4, "cluster_size": 6, "cluster_id": 3, "rank_in_cluster": 1}

>  <energy>  (6) 
-8.47

>  <cluster_rmsd>  (6) 
0.88

>  <cluster>  (6) 
1

$$$$

     RDKit          3D

 62 65  0  0  0  0  0  0  0  0999 V2000
  146.6840   73.4100  221.8690 C   0  0  0  0  0  0  0  0  0  0  0  0
  146.0840   73.6840  220.5150 C   0  0  0  0  0  0  0  0  0  0  0  0
  144.9240   72.7930  220.2020 C   0  0  0  0  0  0  0  0  0  0  0  0
  144.3040   72.3360  221.2050 O   0  0  0  0  0  0  0  0  0  0  0  0
  144.5690   72.4970  218.8620 N   0  0  0  0  0  0  0  0  0  0  0  0
  145.1940   71.3410  218.2550 C   0  0  0  0  0  0  0  0  0  0  0  0
  145.5690   71.4670  216.9130 C   0  0  0  0  0  0  0  0  0  0  0  0
  146.1740   70.3490  216.3310 C   0  0  0  0  0  0  0  0  0  0  0  0
  146.3890   69.1820  217.0400 C   0  0  0  0  0  0  0  0  0  0  0  0
  146.0090   69.0840  218.3630 C   0  0  0  0  0  0  0  0  0  0  0  0
  145.4130   70.1820  218.9470 C   0  0  0  0  0  0  0  0  0  0  0  0
  143.6210   73.3180  218.1310 C   0  0  0  0  0  0  0  0  0  0  0  0
  143.6660   74.7640  218.4460 C   0  0  0  0  0  0  0  0  0  0  0  0
  142.5780   75.3210  219.3070 C   0  0  0  0  0  0  0  0  0  0  0  0
  141.3250   74.6190  219.1210 N   0  0  0  0  0  0  0  0  0  0  0  0
  140.2370   74.6140  219.9850 C   0  0  0  0  0  0  0  0  0  0  0  0
  139.1970   73.9300  219.6590 O   0  0  0  0  0  0  0  0  0  0  0  0
  140.1280   75.3240  221.2780 C   0  0  2  0  0  0  0  0  0  0  0  0
  139.6670   74.3850  222.3240 N   0  0  0  0  0  0  0  0  0  0  0  0
  139.1600   76.4760  221.2700 C   0  0  0  0  0  0  0  0  0  0  0  0
  139.7000   77.6890  221.9090 C   0  0  0  0  0  0  0  0  0  0  0  0
  138.7930   78.6000  222.4170 C   0  0  0  0  0  0  0  0  0  0  0  0
  139.2690   79.7120  223.0040 N   0  0  0  0  0  0  0  0  0  0  0  0
  140.5770   80.0000  223.1320 C   0  0  0  0  0  0  0  0  0  0  0  0
  140.9370   81.1830  223.7610 C   0  0  0  0  0  0  0  0  0  0  0  0
  142.2880   81.4340  223.8700 C   0  0  0  0  0  0  0  0  0  0  0  0
  143.2390   80.5660  223.3850 C   0  0  0  0  0  0  0  0  0  0  0  0
  142.8780   79.3790  222.7550 C   0  0  0  0  0  0  0  0  0  0  0  0
  141.5250   79.1190  222.6410 C   0  0  0  0  0  0  0  0  0  0  0  0
  141.0470   77.9700  222.0330 C   0  0  0  0  0  0  0  0  0  0  0  0
  141.2570   73.8300  217.8690 C   0  0  0  0  0  0  0  0  0  0  0  0
  142.2450   72.7090  218.1140 C   0  0  0  0  0  0  0  0  0  0  0  0
  145.9820   73.7306  222.6528 H   0  0  0  0  0  0  0  0  0  0  0  0
  146.8810   72.3327  221.9715 H   0  0  0  0  0  0  0  0  0  0  0  0
  147.6272   73.9666  221.9715 H   0  0  0  0  0  0  0  0  0  0  0  0
  145.7415   74.7290  220.4877 H   0  0  0  0  0  0  0  0  0  0  0  0
  146.8627   73.4890  219.7630 H   0  0  0  0  0  0  0  0  0  0  0  0
  145.3973   72.3945  216.3470 H   0  0  0  0  0  0  0  0  0  0  0  0
  146.4881   70.3995  215.2780 H   0  0  0  0  0  0  0  0  0  0  0  0
  146.8673   68.3238  216.5452 H   0  0  0  0  0  0  0  0  0  0  0  0
  146.1763   68.1588  218.9340 H   0  0  0  0  0  0  0  0  0  0  0  0
  145.1045   70.1238  220.0012 H   0  0  0  0  0  0  0  0  0  0  0  0
  143.9634   73.3086  217.0857 H   0  0  0  0  0  0  0  0  0  0  0  0
  144.6211   74.9599  218.9554 H   0  0  0  0  0  0  0  0  0  0  0  0
  143.5366   75.2646  217.4751 H   0  0  0  0  0  0  0  0  0  0  0  0
  142.8802   75.2347  220.3612 H   0  0  0  0  0  0  0  0  0  0  0  0
  142.4238   76.3721  219.0217 H   0  0  0  0  0  0  0  0  0  0  0  0
  141.1342   75.7227  221.4748 H   0  0  0  0  0  0  0  0  0  0  0  0
  139.1570   73.5830  221.9400 H   0  0  0  0  0  0  0  0  0  0  0  0
  139.1730   74.8980  223.0790 H   0  0  0  0  0  0  0  0  0  0  0  0
  138.9068   76.7133  220.2262 H   0  0  0  0  0  0  0  0  0  0  0  0
  138.2767   76.1663  221.8478 H   0  0  0  0  0  0  0  0  0  0  0  0
  137.7104   78.4199  222.3430 H   0  0  0  0  0  0  0  0  0  0  0  0
  140.1843   81.8835  224.1520 H   0  0  0  0  0  0  0  0  0  0  0  0
  142.6174   82.3610  224.3621 H   0  0  0  0  0  0  0  0  0  0  0  0
  144.3045   80.8151  223.4974 H   0  0  0  0  0  0  0  0  0  0  0  0
  143.6335   78.6805  222.3660 H   0  0  0  0  0  0  0  0  0  0  0  0
  141.7730   77.2482  221.6305 H   0  0  0  0  0  0  0  0  0  0  0  0
  140.2436   73.4344  217.7064 H   0  0  0  0  0  0  0  0  0  0  0  0
  141.4898   74.4225  216.9719 H   0  0  0  0  0  0  0  0  0  0  0  0
  142.0350   72.2272  219.0803 H   0  0  0  0  0  0  0  0  0  0  0  0
  142.1682   71.9445  217.3268 H   0  0  0  0  0  0  0  0  0  0  0  0
  1  2  1  0
  2  3  1  0
  3  4  2  0
  3  5  1  0
  5  6  1  0
  6  7  2  0
  7  8  1  0
  8  9  2  0
  9 10  1  0
 10 11  2  0
  5 12  1  0
 12 13  1  0
 13 14  1  0
 14 15  1  0
 15 16  1  0
 16 17  2  0
 16 18  1  0
 18 19  1  0
 18 20  1  0
 20 21  1  0
 21 22  2  0
 22 23  1  0
 23 24  2  0
 24 25  1  0
 25 26  2  0
 26 27  1  0
 27 28  2  0
 28 29  1  0
 29 30  2  0
 15 31  1  0
 31 32  1  0
 11  6  1  0
 32 12  1  0
 30 21  1  0
 29 24  1  0
  1 33  1  0
  1 34  1  0
  1 35  1  0
  2 36  1  0
  2 37  1  0
  7 38  1  0
  8 39  1  0
  9 40  1  0
 10 41  1  0
 11 42  1  0
 12 43  1  0
 13 44  1  0
 13 45  1  0
 14 46  1  0
 14 47  1  0
 18 48  1  1
 19 49  1  0
 19 50  1  0
 20 51  1  0
 20 52  1  0
 22 53  1  0
 25 54  1  0
 26 55  1  0
 27 56  1  0
 28 57  1  0
 30 58  1  0
 31 59  1  0
 31 60  1  0
 32 61  1  0
 32 62  1  0
M  END
>  <smiles>  (7) 
CCC(=O)N(c1ccccc1)C1CCN(C(=O)[C@H](N)Cc2cnc3ccccc3c2)CC1

>  <score_type>  (7) 
oracle

>  <origin>  (7) 
autodockgpu

>  <m_score__min__energy>  (7) 
-8.8699999999999992

>  <m_primary>  (7) 
energy

>  <rmsd>  (7) 
6.4836240451887415

>  <m_score__min__rmsd>  (7) 
6.4836240451887415

>  <meeko>  (7) 
{"free_energy": -7.34, "intermolecular_energy": -9.72, "internal_energy": -2.17, "cluster_size": 5, "cluster_id": 2, "rank_in_cluster": 5}

>  <energy>  (7) 
-8.47

>  <cluster_rmsd>  (7) 
0.82

>  <cluster>  (7) 
1

$$$$

     RDKit          3D

 62 65  0  0  0  0  0  0  0  0999 V2000
  136.9750   76.8840  222.7080 C   0  0  0  0  0  0  0  0  0  0  0  0
  138.3640   77.4680  222.6900 C   0  0  0  0  0  0  0  0  0  0  0  0
  139.4090   76.4710  222.3040 C   0  0  0  0  0  0  0  0  0  0  0  0
  139.2090   75.2890  222.7100 O   0  0  0  0  0  0  0  0  0  0  0  0
  140.5380   76.8530  221.5370 N   0  0  0  0  0  0  0  0  0  0  0  0
  141.1700   78.1100  221.8760 C   0  0  0  0  0  0  0  0  0  0  0  0
  141.4160   78.9910  220.8170 C   0  0  0  0  0  0  0  0  0  0  0  0
  142.0250   80.2050  221.1490 C   0  0  0  0  0  0  0  0  0  0  0  0
  142.3670   80.5190  222.4510 C   0  0  0  0  0  0  0  0  0  0  0  0
  142.1130   79.6320  223.4780 C   0  0  0  0  0  0  0  0  0  0  0  0
  141.5120   78.4330  223.1610 C   0  0  0  0  0  0  0  0  0  0  0  0
  141.0370   76.0210  220.4570 C   0  0  0  0  0  0  0  0  0  0  0  0
  139.9990   75.2960  219.6890 C   0  0  0  0  0  0  0  0  0  0  0  0
  139.8390   73.8320  219.9480 C   0  0  0  0  0  0  0  0  0  0  0  0
  141.0900   73.2060  220.3180 N   0  0  0  0  0  0  0  0  0  0  0  0
  141.2520   71.9870  220.9660 C   0  0  0  0  0  0  0  0  0  0  0  0
  142.4460   71.5800  221.2190 O   0  0  0  0  0  0  0  0  0  0  0  0
  140.1800   71.0730  221.4160 C   0  0  2  0  0  0  0  0  0  0  0  0
  139.2070   70.8700  220.3210 N   0  0  0  0  0  0  0  0  0  0  0  0
  139.4020   71.5720  222.6030 C   0  0  0  0  0  0  0  0  0  0  0  0
  139.6060   70.7560  223.8130 C   0  0  0  0  0  0  0  0  0  0  0  0
  139.1930   69.4380  223.7720 C   0  0  0  0  0  0  0  0  0  0  0  0
  139.3730   68.6800  224.8680 N   0  0  0  0  0  0  0  0  0  0  0  0
  139.9330   69.1200  226.0090 C   0  0  0  0  0  0  0  0  0  0  0  0
  140.0620   68.2340  227.0690 C   0  0  0  0  0  0  0  0  0  0  0  0
  140.6420   68.7310  228.2160 C   0  0  0  0  0  0  0  0  0  0  0  0
  141.0740   70.0330  228.3190 C   0  0  0  0  0  0  0  0  0  0  0  0
  140.9440   70.9220  227.2550 C   0  0  0  0  0  0  0  0  0  0  0  0
  140.3630   70.4330  226.1000 C   0  0  0  0  0  0  0  0  0  0  0  0
  140.1820   71.2240  224.9780 C   0  0  0  0  0  0  0  0  0  0  0  0
  142.2900   73.9960  219.9560 C   0  0  0  0  0  0  0  0  0  0  0  0
  142.2130   75.1860  220.8880 C   0  0  0  0  0  0  0  0  0  0  0  0
  136.6484   76.7467  223.7494 H   0  0  0  0  0  0  0  0  0  0  0  0
  136.2832   77.5674  222.1939 H   0  0  0  0  0  0  0  0  0  0  0  0
  136.9794   75.9116  222.1939 H   0  0  0  0  0  0  0  0  0  0  0  0
  138.3867   78.2976  221.9681 H   0  0  0  0  0  0  0  0  0  0  0  0
  138.5927   77.8076  223.7110 H   0  0  0  0  0  0  0  0  0  0  0  0
  141.1451   78.7421  219.7803 H   0  0  0  0  0  0  0  0  0  0  0  0
  142.2381   80.9314  220.3509 H   0  0  0  0  0  0  0  0  0  0  0  0
  142.8460   81.4845  222.6709 H   0  0  0  0  0  0  0  0  0  0  0  0
  142.3819   79.8747  224.5167 H   0  0  0  0  0  0  0  0  0  0  0  0
  141.3007   77.7135  223.9657 H   0  0  0  0  0  0  0  0  0  0  0  0
  141.4266   76.7179  219.7003 H   0  0  0  0  0  0  0  0  0  0  0  0
  139.0335   75.7758  219.9073 H   0  0  0  0  0  0  0  0  0  0  0  0
  140.3325   75.3586  218.6426 H   0  0  0  0  0  0  0  0  0  0  0  0
  139.1170   73.6931  220.7662 H   0  0  0  0  0  0  0  0  0  0  0  0
  139.4849   73.3599  219.0197 H   0  0  0  0  0  0  0  0  0  0  0  0
  140.6940   70.1454  221.7080 H   0  0  0  0  0  0  0  0  0  0  0  0
  139.6570   70.7350  219.4100 H   0  0  0  0  0  0  0  0  0  0  0  0
  138.4770   71.6080  220.3440 H   0  0  0  0  0  0  0  0  0  0  0  0
  139.7169   72.6035  222.8193 H   0  0  0  0  0  0  0  0  0  0  0  0
  138.3346   71.5127  222.3438 H   0  0  0  0  0  0  0  0  0  0  0  0
  138.7291   69.0198  222.8665 H   0  0  0  0  0  0  0  0  0  0  0  0
  139.7197   67.1910  226.9976 H   0  0  0  0  0  0  0  0  0  0  0  0
  140.7640   68.0622  229.0808 H   0  0  0  0  0  0  0  0  0  0  0  0
  141.5303   70.3780  229.2586 H   0  0  0  0  0  0  0  0  0  0  0  0
  141.2875   71.9643  227.3302 H   0  0  0  0  0  0  0  0  0  0  0  0
  140.5119   72.2727  225.0161 H   0  0  0  0  0  0  0  0  0  0  0  0
  143.2099   73.4181  220.1289 H   0  0  0  0  0  0  0  0  0  0  0  0
  142.3156   74.2803  218.8937 H   0  0  0  0  0  0  0  0  0  0  0  0
  142.0714   74.8437  221.9237 H   0  0  0  0  0  0  0  0  0  0  0  0
  143.1422   75.7731  220.8453 H   0  0  0  0  0  0  0  0  0  0  0  0
  1  2  1  0
  2  3  1  0
  3  4  2  0
  3  5  1  0
  5  6  1  0
  6  7  2  0
  7  8  1  0
  8  9  2  0
  9 10  1  0
 10 11  2  0
  5 12  1  0
 12 13  1  0
 13 14  1  0
 14 15  1  0
 15 16  1  0
 16 17  2  0
 16 18  1  0
 18 19  1  0
 18 20  1  0
 20 21  1  0
 21 22  2  0
 22 23  1  0
 23 24  2  0
 24 25  1  0
 25 26  2  0
 26 27  1  0
 27 28  2  0
 28 29  1  0
 29 30  2  0
 15 31  1  0
 31 32  1  0
 11  6  1  0
 32 12  1  0
 30 21  1  0
 29 24  1  0
  1 33  1  0
  1 34  1  0
  1 35  1  0
  2 36  1  0
  2 37  1  0
  7 38  1  0
  8 39  1  0
  9 40  1  0
 10 41  1  0
 11 42  1  0
 12 43  1  0
 13 44  1  0
 13 45  1  0
 14 46  1  0
 14 47  1  0
 18 48  1  1
 19 49  1  0
 19 50  1  0
 20 51  1  0
 20 52  1  0
 22 53  1  0
 25 54  1  0
 26 55  1  0
 27 56  1  0
 28 57  1  0
 30 58  1  0
 31 59  1  0
 31 60  1  0
 32 61  1  0
 32 62  1  0
M  END
>  <smiles>  (8) 
CCC(=O)N(c1ccccc1)C1CCN(C(=O)[C@H](N)Cc2cnc3ccccc3c2)CC1

>  <score_type>  (8) 
oracle

>  <origin>  (8) 
autodockgpu

>  <m_score__min__energy>  (8) 
-8.8699999999999992

>  <m_primary>  (8) 
energy

>  <rmsd>  (8) 
7.11659526385435

>  <m_score__min__rmsd>  (8) 
7.11659526385435

>  <meeko>  (8) 
{"free_energy": -8.16, "intermolecular_energy": -10.55, "internal_energy": -1.83, "cluster_size": 25, "cluster_id": 1, "rank_in_cluster": 21}

>  <energy>  (8) 
-8.43

>  <cluster_rmsd>  (8) 
0.85

>  <cluster>  (8) 
1

$$$$

     RDKit          3D

 62 65  0  0  0  0  0  0  0  0999 V2000
  142.2060   75.0210  220.7130 C   0  0  0  0  0  0  0  0  0  0  0  0
  142.8450   76.1650  219.9680 C   0  0  0  0  0  0  0  0  0  0  0  0
  141.9400   77.3470  219.8310 C   0  0  0  0  0  0  0  0  0  0  0  0
  142.0860   78.0230  218.7720 O   0  0  0  0  0  0  0  0  0  0  0  0
  140.9940   77.6650  220.8380 N   0  0  0  0  0  0  0  0  0  0  0  0
  141.4060   78.6110  221.8530 C   0  0  0  0  0  0  0  0  0  0  0  0
  141.7820   79.8820  221.4060 C   0  0  0  0  0  0  0  0  0  0  0  0
  142.1780   80.7940  222.3900 C   0  0  0  0  0  0  0  0  0  0  0  0
  142.1990   80.4580  223.7310 C   0  0  0  0  0  0  0  0  0  0  0  0
  141.8230   79.1960  224.1450 C   0  0  0  0  0  0  0  0  0  0  0  0
  141.4300   78.2910  223.1830 C   0  0  0  0  0  0  0  0  0  0  0  0
  139.6710   77.0680  220.8500 C   0  0  0  0  0  0  0  0  0  0  0  0
  139.2420   76.5140  222.1550 C   0  0  0  0  0  0  0  0  0  0  0  0
  139.2660   75.0290  222.3200 C   0  0  0  0  0  0  0  0  0  0  0  0
  139.0020   74.3390  221.0750 N   0  0  0  0  0  0  0  0  0  0  0  0
  139.2980   73.0150  220.7780 C   0  0  0  0  0  0  0  0  0  0  0  0
  138.9910   72.5630  219.6130 O   0  0  0  0  0  0  0  0  0  0  0  0
  139.9490   72.0290  221.6690 C   0  0  2  0  0  0  0  0  0  0  0  0
  140.9400   71.2440  220.9030 N   0  0  0  0  0  0  0  0  0  0  0  0
  139.0000   71.0430  222.2940 C   0  0  0  0  0  0  0  0  0  0  0  0
  139.3700   70.6790  223.6730 C   0  0  0  0  0  0  0  0  0  0  0  0
  139.0290   69.4140  224.1130 C   0  0  0  0  0  0  0  0  0  0  0  0
  139.3600   69.0660  225.3690 N   0  0  0  0  0  0  0  0  0  0  0  0
  140.0050   69.8710  226.2320 C   0  0  0  0  0  0  0  0  0  0  0  0
  140.2890   69.3890  227.5020 C   0  0  0  0  0  0  0  0  0  0  0  0
  140.9510   70.2490  228.3500 C   0  0  0  0  0  0  0  0  0  0  0  0
  141.3180   71.5200  227.9720 C   0  0  0  0  0  0  0  0  0  0  0  0
  141.0330   72.0030  226.6970 C   0  0  0  0  0  0  0  0  0  0  0  0
  140.3680   71.1470  225.8390 C   0  0  0  0  0  0  0  0  0  0  0  0
  140.0330   71.5180  224.5480 C   0  0  0  0  0  0  0  0  0  0  0  0
  138.3590   75.1850  220.0430 C   0  0  0  0  0  0  0  0  0  0  0  0
  139.4520   76.1620  219.6680 C   0  0  0  0  0  0  0  0  0  0  0  0
  142.3005   75.1902  221.7958 H   0  0  0  0  0  0  0  0  0  0  0  0
  141.1415   74.9570  220.4434 H   0  0  0  0  0  0  0  0  0  0  0  0
  142.7097   74.0810  220.4434 H   0  0  0  0  0  0  0  0  0  0  0  0
  143.7493   76.4763  220.5114 H   0  0  0  0  0  0  0  0  0  0  0  0
  143.0793   75.8090  218.9539 H   0  0  0  0  0  0  0  0  0  0  0  0
  141.7671   80.1497  220.3392 H   0  0  0  0  0  0  0  0  0  0  0  0
  142.4813   81.8074  222.0883 H   0  0  0  0  0  0  0  0  0  0  0  0
  142.5182   81.2030  224.4747 H   0  0  0  0  0  0  0  0  0  0  0  0
  141.8367   78.9212  225.2100 H   0  0  0  0  0  0  0  0  0  0  0  0
  141.1263   77.2805  223.4939 H   0  0  0  0  0  0  0  0  0  0  0  0
  138.9666   77.9029  220.7206 H   0  0  0  0  0  0  0  0  0  0  0  0
  139.9004   76.9410  222.9258 H   0  0  0  0  0  0  0  0  0  0  0  0
  138.1794   76.7861  222.2371 H   0  0  0  0  0  0  0  0  0  0  0  0
  140.2581   74.7289  222.6885 H   0  0  0  0  0  0  0  0  0  0  0  0
  138.4756   74.7544  223.0340 H   0  0  0  0  0  0  0  0  0  0  0  0
  140.4062   72.6230  222.4740 H   0  0  0  0  0  0  0  0  0  0  0  0
  141.9060   71.5280  221.0950 H   0  0  0  0  0  0  0  0  0  0  0  0
  140.6830   71.2190  219.8970 H   0  0  0  0  0  0  0  0  0  0  0  0
  137.9933   71.4861  222.3070 H   0  0  0  0  0  0  0  0  0  0  0  0
  139.0378   70.1239  221.6908 H   0  0  0  0  0  0  0  0  0  0  0  0
  138.5007   68.7102  223.4530 H   0  0  0  0  0  0  0  0  0  0  0  0
  140.0008   68.3745  227.8146 H   0  0  0  0  0  0  0  0  0  0  0  0
  141.1952   69.9072  229.3666 H   0  0  0  0  0  0  0  0  0  0  0  0
  141.8456   72.1660  228.6892 H   0  0  0  0  0  0  0  0  0  0  0  0
  141.3234   73.0178  226.3874 H   0  0  0  0  0  0  0  0  0  0  0  0
  140.3070   72.5260  224.2033 H   0  0  0  0  0  0  0  0  0  0  0  0
  138.0524   74.5835  219.1746 H   0  0  0  0  0  0  0  0  0  0  0  0
  137.4424   75.6782  220.3987 H   0  0  0  0  0  0  0  0  0  0  0  0
  140.3790   75.6177  219.4346 H   0  0  0  0  0  0  0  0  0  0  0  0
  139.1645   76.7444  218.7803 H   0  0  0  0  0  0  0  0  0  0  0  0
  1  2  1  0
  2  3  1  0
  3  4  2  0
  3  5  1  0
  5  6  1  0
  6  7  2  0
  7  8  1  0
  8  9  2  0
  9 10  1  0
 10 11  2  0
  5 12  1  0
 12 13  1  0
 13 14  1  0
 14 15  1  0
 15 16  1  0
 16 17  2  0
 16 18  1  0
 18 19  1  0
 18 20  1  0
 20 21  1  0
 21 22  2  0
 22 23  1  0
 23 24  2  0
 24 25  1  0
 25 26  2  0
 26 27  1  0
 27 28  2  0
 28 29  1  0
 29 30  2  0
 15 31  1  0
 31 32  1  0
 11  6  1  0
 32 12  1  0
 30 21  1  0
 29 24  1  0
  1 33  1  0
  1 34  1  0
  1 35  1  0
  2 36  1  0
  2 37  1  0
  7 38  1  0
  8 39  1  0
  9 40  1  0
 10 41  1  0
 11 42  1  0
 12 43  1  0
 13 44  1  0
 13 45  1  0
 14 46  1  0
 14 47  1  0
 18 48  1  1
 19 49  1  0
 19 50  1  0
 20 51  1  0
 20 52  1  0
 22 53  1  0
 25 54  1  0
 26 55  1  0
 27 56  1  0
 28 57  1  0
 30 58  1  0
 31 59  1  0
 31 60  1  0
 32 61  1  0
 32 62  1  0
M  END
>  <smiles>  (9) 
CCC(=O)N(c1ccccc1)C1CCN(C(=O)[C@H](N)Cc2cnc3ccccc3c2)CC1

>  <score_type>  (9) 
oracle

>  <origin>  (9) 
autodockgpu

>  <m_score__min__energy>  (9) 
-8.8699999999999992

>  <m_primary>  (9) 
energy

>  <rmsd>  (9) 
6.807736286665111

>  <m_score__min__rmsd>  (9) 
6.807736286665111

>  <meeko>  (9) 
{"free_energy": -7.81, "intermolecular_energy": -10.2, "internal_energy": -2.29, "cluster_size": 6, "cluster_id": 4, "rank_in_cluster": 2}

>  <energy>  (9) 
-8.38

>  <cluster_rmsd>  (9) 
1.22

>  <cluster>  (9) 
1

$$$$

     RDKit          3D

 62 65  0  0  0  0  0  0  0  0999 V2000
  142.2030   79.4370  218.5310 C   0  0  0  0  0  0  0  0  0  0  0  0
  142.1620   77.9320  218.4740 C   0  0  0  0  0  0  0  0  0  0  0  0
  142.0840   77.3000  219.8280 C   0  0  0  0  0  0  0  0  0  0  0  0
  143.0110   76.4850  220.1010 O   0  0  0  0  0  0  0  0  0  0  0  0
  141.0290   77.6140  220.7220 N   0  0  0  0  0  0  0  0  0  0  0  0
  141.3280   78.5430  221.7920 C   0  0  0  0  0  0  0  0  0  0  0  0
  141.4170   79.8930  221.4380 C   0  0  0  0  0  0  0  0  0  0  0  0
  141.7050   80.7870  222.4740 C   0  0  0  0  0  0  0  0  0  0  0  0
  141.8910   80.3620  223.7760 C   0  0  0  0  0  0  0  0  0  0  0  0
  141.7960   79.0230  224.0980 C   0  0  0  0  0  0  0  0  0  0  0  0
  141.5130   78.1340  223.0840 C   0  0  0  0  0  0  0  0  0  0  0  0
  139.7100   77.0280  220.5720 C   0  0  0  0  0  0  0  0  0  0  0  0
  138.9950   76.7540  221.8400 C   0  0  0  0  0  0  0  0  0  0  0  0
  138.9220   75.3340  222.3030 C   0  0  0  0  0  0  0  0  0  0  0  0
  138.8960   74.4020  221.1950 N   0  0  0  0  0  0  0  0  0  0  0  0
  139.1930   73.0460  221.2410 C   0  0  0  0  0  0  0  0  0  0  0  0
  139.1170   72.3640  220.1520 O   0  0  0  0  0  0  0  0  0  0  0  0
  139.6010   72.2670  222.4300 C   0  0  2  0  0  0  0  0  0  0  0  0
  140.6340   71.2800  222.0480 N   0  0  0  0  0  0  0  0  0  0  0  0
  138.4820   71.4980  223.0770 C   0  0  0  0  0  0  0  0  0  0  0  0
  138.9460   70.5780  224.1310 C   0  0  0  0  0  0  0  0  0  0  0  0
  138.7070   69.2290  223.9510 C   0  0  0  0  0  0  0  0  0  0  0  0
  139.1250   68.3760  224.9030 N   0  0  0  0  0  0  0  0  0  0  0  0
  139.7640   68.7500  226.0260 C   0  0  0  0  0  0  0  0  0  0  0  0
  140.1450   67.7690  226.9310 C   0  0  0  0  0  0  0  0  0  0  0  0
  140.7970   68.1990  228.0650 C   0  0  0  0  0  0  0  0  0  0  0  0
  141.0640   69.5280  228.3020 C   0  0  0  0  0  0  0  0  0  0  0  0
  140.6830   70.5120  227.3940 C   0  0  0  0  0  0  0  0  0  0  0  0
  140.0280   70.0900  226.2530 C   0  0  0  0  0  0  0  0  0  0  0  0
  139.6010   70.9790  225.2800 C   0  0  0  0  0  0  0  0  0  0  0  0
  138.5180   75.0160  219.9000 C   0  0  0  0  0  0  0  0  0  0  0  0
  139.7060   75.8980  219.5780 C   0  0  0  0  0  0  0  0  0  0  0  0
  142.2119   79.7640  219.5812 H   0  0  0  0  0  0  0  0  0  0  0  0
  143.1113   79.7984  218.0267 H   0  0  0  0  0  0  0  0  0  0  0  0
  141.3157   79.8473  218.0267 H   0  0  0  0  0  0  0  0  0  0  0  0
  141.2794   77.6267  217.8928 H   0  0  0  0  0  0  0  0  0  0  0  0
  143.0979   77.5938  218.0052 H   0  0  0  0  0  0  0  0  0  0  0  0
  141.2687   80.2327  220.4023 H   0  0  0  0  0  0  0  0  0  0  0  0
  141.7859   81.8601  222.2460 H   0  0  0  0  0  0  0  0  0  0  0  0
  142.1167   81.0972  224.5625 H   0  0  0  0  0  0  0  0  0  0  0  0
  141.9417   78.6765  225.1318 H   0  0  0  0  0  0  0  0  0  0  0  0
  141.4334   77.0627  223.3208 H   0  0  0  0  0  0  0  0  0  0  0  0
  139.0827   77.8158  220.1294 H   0  0  0  0  0  0  0  0  0  0  0  0
  139.4950   77.3323  222.6309 H   0  0  0  0  0  0  0  0  0  0  0  0
  137.9509   77.0347  221.6372 H   0  0  0  0  0  0  0  0  0  0  0  0
  139.8015   75.1186  222.9275 H   0  0  0  0  0  0  0  0  0  0  0  0
  137.9891   75.2102  222.8726 H   0  0  0  0  0  0  0  0  0  0  0  0
  139.9680   73.0115  223.1518 H   0  0  0  0  0  0  0  0  0  0  0  0
  140.7160   71.1650  221.0330 H   0  0  0  0  0  0  0  0  0  0  0  0
  140.5060   70.3970  222.5800 H   0  0  0  0  0  0  0  0  0  0  0  0
  137.7771   72.2148  223.5235 H   0  0  0  0  0  0  0  0  0  0  0  0
  138.0083   70.8875  222.2942 H   0  0  0  0  0  0  0  0  0  0  0  0
  138.1885   68.8625  223.0528 H   0  0  0  0  0  0  0  0  0  0  0  0
  139.9370   66.7038  226.7517 H   0  0  0  0  0  0  0  0  0  0  0  0
  141.1159   67.4534  228.8082 H   0  0  0  0  0  0  0  0  0  0  0  0
  141.5876   69.8178  229.2250 H   0  0  0  0  0  0  0  0  0  0  0  0
  140.8936   71.5761  227.5764 H   0  0  0  0  0  0  0  0  0  0  0  0
  139.7918   72.0521  225.4286 H   0  0  0  0  0  0  0  0  0  0  0  0
  138.3751   74.2479  219.1256 H   0  0  0  0  0  0  0  0  0  0  0  0
  137.5684   75.5693  219.9448 H   0  0  0  0  0  0  0  0  0  0  0  0
  140.6377   75.3195  219.6627 H   0  0  0  0  0  0  0  0  0  0  0  0
  139.6355   76.2847  218.5506 H   0  0  0  0  0  0  0  0  0  0  0  0
  1  2  1  0
  2  3  1  0
  3  4  2  0
  3  5  1  0
  5  6  1  0
  6  7  2  0
  7  8  1  0
  8  9  2  0
  9 10  1  0
 10 11  2  0
  5 12  1  0
 12 13  1  0
 13 14  1  0
 14 15  1  0
 15 16  1  0
 16 17  2  0
 16 18  1  0
 18 19  1  0
 18 20  1  0
 20 21  1  0
 21 22  2  0
 22 23  1  0
 23 24  2  0
 24 25  1  0
 25 26  2  0
 26 27  1  0
 27 28  2  0
 28 29  1  0
 29 30  2  0
 15 31  1  0
 31 32  1  0
 11  6  1  0
 32 12  1  0
 30 21  1  0
 29 24  1  0
  1 33  1  0
  1 34  1  0
  1 35  1  0
  2 36  1  0
  2 37  1  0
  7 38  1  0
  8 39  1  0
  9 40  1  0
 10 41  1  0
 11 42  1  0
 12 43  1  0
 13 44  1  0
 13 45  1  0
 14 46  1  0
 14 47  1  0
 18 48  1  1
 19 49  1  0
 19 50  1  0
 20 51  1  0
 20 52  1  0
 22 53  1  0
 25 54  1  0
 26 55  1  0
 27 56  1  0
 28 57  1  0
 30 58  1  0
 31 59  1  0
 31 60  1  0
 32 61  1  0
 32 62  1  0
M  END
>  <smiles>  (10) 
CCC(=O)N(c1ccccc1)C1CCN(C(=O)[C@H](N)Cc2cnc3ccccc3c2)CC1

>  <score_type>  (10) 
oracle

>  <origin>  (10) 
autodockgpu

>  <m_score__min__energy>  (10) 
-8.8699999999999992

>  <m_primary>  (10) 
energy

>  <rmsd>  (10) 
6.9642391548135985

>  <m_score__min__rmsd>  (10) 
6.9642391548135985

>  <meeko>  (10) 
{"free_energy": -8.05, "intermolecular_energy": -10.44, "internal_energy": -2.04, "cluster_size": 25, "cluster_id": 1, "rank_in_cluster": 24}

>  <energy>  (10) 
-8.36

>  <cluster_rmsd>  (10) 
0.84

>  <cluster>  (10) 
1

$$$$

     RDKit          3D

 62 65  0  0  0  0  0  0  0  0999 V2000
  136.6920   77.8050  222.6530 C   0  0  0  0  0  0  0  0  0  0  0  0
  138.1520   78.1750  222.7190 C   0  0  0  0  0  0  0  0  0  0  0  0
  139.0580   77.0230  222.4240 C   0  0  0  0  0  0  0  0  0  0  0  0
  138.6350   75.8910  222.7960 O   0  0  0  0  0  0  0  0  0  0  0  0
  140.3010   77.2180  221.7720 N   0  0  0  0  0  0  0  0  0  0  0  0
  141.0790   78.3740  222.1680 C   0  0  0  0  0  0  0  0  0  0  0  0
  141.3880   79.2930  221.1600 C   0  0  0  0  0  0  0  0  0  0  0  0
  142.1380   80.4080  221.5460 C   0  0  0  0  0  0  0  0  0  0  0  0
  142.5520   80.5930  222.8520 C   0  0  0  0  0  0  0  0  0  0  0  0
  142.2330   79.6700  223.8280 C   0  0  0  0  0  0  0  0  0  0  0  0
  141.4930   78.5680  223.4570 C   0  0  0  0  0  0  0  0  0  0  0  0
  140.7730   76.3010  220.7510 C   0  0  0  0  0  0  0  0  0  0  0  0
  139.7230   75.7540  219.8610 C   0  0  0  0  0  0  0  0  0  0  0  0
  139.2870   74.3420  220.0880 C   0  0  0  0  0  0  0  0  0  0  0  0
  140.3620   73.5170  220.5950 N   0  0  0  0  0  0  0  0  0  0  0  0
  140.2390   72.2960  221.2480 C   0  0  0  0  0  0  0  0  0  0  0  0
  141.3090   71.6950  221.6330 O   0  0  0  0  0  0  0  0  0  0  0  0
  138.9820   71.5820  221.5630 C   0  0  2  0  0  0  0  0  0  0  0  0
  138.2290   72.3320  222.5910 N   0  0  0  0  0  0  0  0  0  0  0  0
  139.1810   70.1900  222.0970 C   0  0  0  0  0  0  0  0  0  0  0  0
  139.3920   70.1550  223.5550 C   0  0  0  0  0  0  0  0  0  0  0  0
  138.7540   69.1570  224.2680 C   0  0  0  0  0  0  0  0  0  0  0  0
  138.9370   69.1100  225.6000 N   0  0  0  0  0  0  0  0  0  0  0  0
  139.7030   69.9740  226.2890 C   0  0  0  0  0  0  0  0  0  0  0  0
  139.8100   69.8150  227.6630 C   0  0  0  0  0  0  0  0  0  0  0  0
  140.6070   70.7230  228.3260 C   0  0  0  0  0  0  0  0  0  0  0  0
  141.2680   71.7380  227.6730 C   0  0  0  0  0  0  0  0  0  0  0  0
  141.1610   71.8970  226.2940 C   0  0  0  0  0  0  0  0  0  0  0  0
  140.3630   70.9910  225.6200 C   0  0  0  0  0  0  0  0  0  0  0  0
  140.1830   71.0500  224.2490 C   0  0  0  0  0  0  0  0  0  0  0  0
  141.7130   74.0870  220.3810 C   0  0  0  0  0  0  0  0  0  0  0  0
  141.7320   75.2840  221.3080 C   0  0  0  0  0  0  0  0  0  0  0  0
  136.2929   77.7039  223.6730 H   0  0  0  0  0  0  0  0  0  0  0  0
  136.1383   78.5912  222.1189 H   0  0  0  0  0  0  0  0  0  0  0  0
  136.5796   76.8500  222.1189 H   0  0  0  0  0  0  0  0  0  0  0  0
  138.3459   78.9710  221.9849 H   0  0  0  0  0  0  0  0  0  0  0  0
  138.3626   78.5058  223.7467 H   0  0  0  0  0  0  0  0  0  0  0  0
  141.0590   79.1466  220.1206 H   0  0  0  0  0  0  0  0  0  0  0  0
  142.4063   81.1595  220.7889 H   0  0  0  0  0  0  0  0  0  0  0  0
  143.1410   81.4838  223.1160 H   0  0  0  0  0  0  0  0  0  0  0  0
  142.5593   79.8098  224.8692 H   0  0  0  0  0  0  0  0  0  0  0  0
  141.2274   77.8221  224.2206 H   0  0  0  0  0  0  0  0  0  0  0  0
  141.3606   76.9130  220.0509 H   0  0  0  0  0  0  0  0  0  0  0  0
  138.8347   76.3937  219.9689 H   0  0  0  0  0  0  0  0  0  0  0  0
  140.1817   75.7464  218.8612 H   0  0  0  0  0  0  0  0  0  0  0  0
  138.4625   74.3377  220.8161 H   0  0  0  0  0  0  0  0  0  0  0  0
  138.9668   73.9260  219.1214 H   0  0  0  0  0  0  0  0  0  0  0  0
  138.4425   71.5085  220.6072 H   0  0  0  0  0  0  0  0  0  0  0  0
  137.2160   72.3130  222.4340 H   0  0  0  0  0  0  0  0  0  0  0  0
  138.6350   73.2800  222.7180 H   0  0  0  0  0  0  0  0  0  0  0  0
  138.2890   69.5924  221.8579 H   0  0  0  0  0  0  0  0  0  0  0  0
  140.0875   69.7839  221.6245 H   0  0  0  0  0  0  0  0  0  0  0  0
  138.1138   68.4210  223.7597 H   0  0  0  0  0  0  0  0  0  0  0  0
  139.2864   69.0070  228.1950 H   0  0  0  0  0  0  0  0  0  0  0  0
  140.7188   70.6331  229.4166 H   0  0  0  0  0  0  0  0  0  0  0  0
  141.8919   72.4359  228.2506 H   0  0  0  0  0  0  0  0  0  0  0  0
  141.6868   72.7057  225.7653 H   0  0  0  0  0  0  0  0  0  0  0  0
  140.6930   71.8458  223.6863 H   0  0  0  0  0  0  0  0  0  0  0  0
  142.4948   73.3632  220.6547 H   0  0  0  0  0  0  0  0  0  0  0  0
  141.9097   74.3502  219.3312 H   0  0  0  0  0  0  0  0  0  0  0  0
  141.4157   74.9826  222.3175 H   0  0  0  0  0  0  0  0  0  0  0  0
  142.7460   75.7045  221.3780 H   0  0  0  0  0  0  0  0  0  0  0  0
  1  2  1  0
  2  3  1  0
  3  4  2  0
  3  5  1  0
  5  6  1  0
  6  7  2  0
  7  8  1  0
  8  9  2  0
  9 10  1  0
 10 11  2  0
  5 12  1  0
 12 13  1  0
 13 14  1  0
 14 15  1  0
 15 16  1  0
 16 17  2  0
 16 18  1  0
 18 19  1  0
 18 20  1  0
 20 21  1  0
 21 22  2  0
 22 23  1  0
 23 24  2  0
 24 25  1  0
 25 26  2  0
 26 27  1  0
 27 28  2  0
 28 29  1  0
 29 30  2  0
 15 31  1  0
 31 32  1  0
 11  6  1  0
 32 12  1  0
 30 21  1  0
 29 24  1  0
  1 33  1  0
  1 34  1  0
  1 35  1  0
  2 36  1  0
  2 37  1  0
  7 38  1  0
  8 39  1  0
  9 40  1  0
 10 41  1  0
 11 42  1  0
 12 43  1  0
 13 44  1  0
 13 45  1  0
 14 46  1  0
 14 47  1  0
 18 48  1  6
 19 49  1  0
 19 50  1  0
 20 51  1  0
 20 52  1  0
 22 53  1  0
 25 54  1  0
 26 55  1  0
 27 56  1  0
 28 57  1  0
 30 58  1  0
 31 59  1  0
 31 60  1  0
 32 61  1  0
 32 62  1  0
M  END
>  <smiles>  (11) 
CCC(=O)N(c1ccccc1)C1CCN(C(=O)[C@H](N)Cc2cnc3ccccc3c2)CC1

>  <score_type>  (11) 
oracle

>  <origin>  (11) 
autodockgpu

>  <m_score__min__energy>  (11) 
-8.8699999999999992

>  <m_primary>  (11) 
energy

>  <rmsd>  (11) 
7.124983330951207

>  <m_score__min__rmsd>  (11) 
7.124983330951207

>  <meeko>  (11) 
{"free_energy": -8.47, "intermolecular_energy": -10.85, "internal_energy": -1.99, "cluster_size": 25, "cluster_id": 1, "rank_in_cluster": 7}

>  <energy>  (11) 
-8.34

>  <cluster_rmsd>  (11) 
0.94

>  <cluster>  (11) 
1

$$$$

     RDKit          3D

 62 65  0  0  0  0  0  0  0  0999 V2000
  138.2810   79.5220  223.4500 C   0  0  0  0  0  0  0  0  0  0  0  0
  137.9340   78.4880  222.4110 C   0  0  0  0  0  0  0  0  0  0  0  0
  138.9080   77.3540  222.3710 C   0  0  0  0  0  0  0  0  0  0  0  0
  138.5160   76.2810  222.9140 O   0  0  0  0  0  0  0  0  0  0  0  0
  140.1790   77.5010  221.7600 N   0  0  0  0  0  0  0  0  0  0  0  0
  140.9760   78.6400  222.1660 C   0  0  0  0  0  0  0  0  0  0  0  0
  141.4890   78.6110  223.4670 C   0  0  0  0  0  0  0  0  0  0  0  0
  142.2590   79.7120  223.8540 C   0  0  0  0  0  0  0  0  0  0  0  0
  142.5000   80.7720  223.0000 C   0  0  0  0  0  0  0  0  0  0  0  0
  141.9820   80.7750  221.7210 C   0  0  0  0  0  0  0  0  0  0  0  0
  141.2230   79.6940  221.3290 C   0  0  0  0  0  0  0  0  0  0  0  0
  140.6590   76.5540  220.7710 C   0  0  0  0  0  0  0  0  0  0  0  0
  139.6190   75.9990  219.8740 C   0  0  0  0  0  0  0  0  0  0  0  0
  139.1610   74.5980  220.1260 C   0  0  0  0  0  0  0  0  0  0  0  0
  140.2150   73.7720  220.6740 N   0  0  0  0  0  0  0  0  0  0  0  0
  140.0640   72.5690  221.3530 C   0  0  0  0  0  0  0  0  0  0  0  0
  141.1180   71.9650  221.7740 O   0  0  0  0  0  0  0  0  0  0  0  0
  138.7920   71.8790  221.6610 C   0  0  2  0  0  0  0  0  0  0  0  0
  138.0620   72.6240  222.7090 N   0  0  0  0  0  0  0  0  0  0  0  0
  138.9600   70.4710  222.1640 C   0  0  0  0  0  0  0  0  0  0  0  0
  139.2100   70.4020  223.6140 C   0  0  0  0  0  0  0  0  0  0  0  0
  138.5010   69.4640  224.3400 C   0  0  0  0  0  0  0  0  0  0  0  0
  138.7170   69.3860  225.6650 N   0  0  0  0  0  0  0  0  0  0  0  0
  139.5840   70.1660  226.3360 C   0  0  0  0  0  0  0  0  0  0  0  0
  139.7150   69.9840  227.7060 C   0  0  0  0  0  0  0  0  0  0  0  0
  140.6150   70.8050  228.3500 C   0  0  0  0  0  0  0  0  0  0  0  0
  141.3510   71.7580  227.6840 C   0  0  0  0  0  0  0  0  0  0  0  0
  141.2190   71.9390  226.3100 C   0  0  0  0  0  0  0  0  0  0  0  0
  140.3190   71.1210  225.6550 C   0  0  0  0  0  0  0  0  0  0  0  0
  140.1040   71.2110  224.2900 C   0  0  0  0  0  0  0  0  0  0  0  0
  141.5770   74.3210  220.4730 C   0  0  0  0  0  0  0  0  0  0  0  0
  141.5940   75.5390  221.3710 C   0  0  0  0  0  0  0  0  0  0  0  0
  138.1379   79.0955  224.4538 H   0  0  0  0  0  0  0  0  0  0  0  0
  139.3307   79.8270  223.3275 H   0  0  0  0  0  0  0  0  0  0  0  0
  137.6278   80.3985  223.3275 H   0  0  0  0  0  0  0  0  0  0  0  0
  136.9355   78.0853  222.6363 H   0  0  0  0  0  0  0  0  0  0  0  0
  137.9635   78.9834  221.4293 H   0  0  0  0  0  0  0  0  0  0  0  0
  141.2972   77.7686  224.1479 H   0  0  0  0  0  0  0  0  0  0  0  0
  142.6855   79.7354  224.8677 H   0  0  0  0  0  0  0  0  0  0  0  0
  143.1101   81.6206  223.3430 H   0  0  0  0  0  0  0  0  0  0  0  0
  142.1693   81.6146  221.0355 H   0  0  0  0  0  0  0  0  0  0  0  0
  140.8029   79.6777  220.3125 H   0  0  0  0  0  0  0  0  0  0  0  0
  141.2683   77.1410  220.0681 H   0  0  0  0  0  0  0  0  0  0  0  0
  138.7370   76.6519  219.9497 H   0  0  0  0  0  0  0  0  0  0  0  0
  140.0961   75.9622  218.8835 H   0  0  0  0  0  0  0  0  0  0  0  0
  138.3223   74.6214  220.8374 H   0  0  0  0  0  0  0  0  0  0  0  0
  138.8550   74.1629  219.1632 H   0  0  0  0  0  0  0  0  0  0  0  0
  138.2461   71.8397  220.7068 H   0  0  0  0  0  0  0  0  0  0  0  0
  138.3730   73.5970  222.7940 H   0  0  0  0  0  0  0  0  0  0  0  0
  138.0570   72.0870  223.5980 H   0  0  0  0  0  0  0  0  0  0  0  0
  138.0426   69.9072  221.9396 H   0  0  0  0  0  0  0  0  0  0  0  0
  139.8391   70.0446  221.6587 H   0  0  0  0  0  0  0  0  0  0  0  0
  137.7781   68.7978  223.8464 H   0  0  0  0  0  0  0  0  0  0  0  0
  139.1317   69.2252  228.2483 H   0  0  0  0  0  0  0  0  0  0  0  0
  140.7500   70.6945  229.4361 H   0  0  0  0  0  0  0  0  0  0  0  0
  142.0558   72.3876  228.2469 H   0  0  0  0  0  0  0  0  0  0  0  0
  141.8044   72.6984  225.7708 H   0  0  0  0  0  0  0  0  0  0  0  0
  140.6704   71.9604  223.7176 H   0  0  0  0  0  0  0  0  0  0  0  0
  142.3443   73.5946  220.7788 H   0  0  0  0  0  0  0  0  0  0  0  0
  141.7964   74.5570  219.4213 H   0  0  0  0  0  0  0  0  0  0  0  0
  141.2545   75.2661  222.3811 H   0  0  0  0  0  0  0  0  0  0  0  0
  142.6119   75.9483  221.4509 H   0  0  0  0  0  0  0  0  0  0  0  0
  1  2  1  0
  2  3  1  0
  3  4  2  0
  3  5  1  0
  5  6  1  0
  6  7  2  0
  7  8  1  0
  8  9  2  0
  9 10  1  0
 10 11  2  0
  5 12  1  0
 12 13  1  0
 13 14  1  0
 14 15  1  0
 15 16  1  0
 16 17  2  0
 16 18  1  0
 18 19  1  0
 18 20  1  0
 20 21  1  0
 21 22  2  0
 22 23  1  0
 23 24  2  0
 24 25  1  0
 25 26  2  0
 26 27  1  0
 27 28  2  0
 28 29  1  0
 29 30  2  0
 15 31  1  0
 31 32  1  0
 11  6  1  0
 32 12  1  0
 30 21  1  0
 29 24  1  0
  1 33  1  0
  1 34  1  0
  1 35  1  0
  2 36  1  0
  2 37  1  0
  7 38  1  0
  8 39  1  0
  9 40  1  0
 10 41  1  0
 11 42  1  0
 12 43  1  0
 13 44  1  0
 13 45  1  0
 14 46  1  0
 14 47  1  0
 18 48  1  6
 19 49  1  0
 19 50  1  0
 20 51  1  0
 20 52  1  0
 22 53  1  0
 25 54  1  0
 26 55  1  0
 27 56  1  0
 28 57  1  0
 30 58  1  0
 31 59  1  0
 31 60  1  0
 32 61  1  0
 32 62  1  0
M  END
>  <smiles>  (12) 
CCC(=O)N(c1ccccc1)C1CCN(C(=O)[C@H](N)Cc2cnc3ccccc3c2)CC1

>  <score_type>  (12) 
oracle

>  <origin>  (12) 
autodockgpu

>  <m_score__min__energy>  (12) 
-8.8699999999999992

>  <m_primary>  (12) 
energy

>  <rmsd>  (12) 
6.956960174630024

>  <m_score__min__rmsd>  (12) 
6.956960174630024

>  <meeko>  (12) 
{"free_energy": -8.69, "intermolecular_energy": -11.08, "internal_energy": -1.76, "cluster_size": 25, "cluster_id": 1, "rank_in_cluster": 2}

>  <energy>  (12) 
-8.33

>  <cluster_rmsd>  (12) 
1.57

>  <cluster>  (12) 
1

$$$$

     RDKit          3D

 62 65  0  0  0  0  0  0  0  0999 V2000
  143.2750   75.1900  218.7580 C   0  0  0  0  0  0  0  0  0  0  0  0
  142.9730   75.8830  220.0620 C   0  0  0  0  0  0  0  0  0  0  0  0
  142.2260   77.1660  219.8790 C   0  0  0  0  0  0  0  0  0  0  0  0
  142.6030   77.8790  218.9050 O   0  0  0  0  0  0  0  0  0  0  0  0
  141.1730   77.5310  220.7540 N   0  0  0  0  0  0  0  0  0  0  0  0
  141.4870   78.4770  221.8040 C   0  0  0  0  0  0  0  0  0  0  0  0
  141.8140   79.7750  221.3960 C   0  0  0  0  0  0  0  0  0  0  0  0
  142.1170   80.6860  222.4130 C   0  0  0  0  0  0  0  0  0  0  0  0
  142.0950   80.3260  223.7470 C   0  0  0  0  0  0  0  0  0  0  0  0
  141.7690   79.0390  224.1220 C   0  0  0  0  0  0  0  0  0  0  0  0
  141.4680   78.1330  223.1270 C   0  0  0  0  0  0  0  0  0  0  0  0
  139.8380   76.9800  220.6060 C   0  0  0  0  0  0  0  0  0  0  0  0
  139.1140   76.7320  221.8730 C   0  0  0  0  0  0  0  0  0  0  0  0
  139.0030   75.3170  222.3440 C   0  0  0  0  0  0  0  0  0  0  0  0
  138.9540   74.3800  221.2420 N   0  0  0  0  0  0  0  0  0  0  0  0
  139.2150   73.0160  221.2960 C   0  0  0  0  0  0  0  0  0  0  0  0
  139.1230   72.3310  220.2110 O   0  0  0  0  0  0  0  0  0  0  0  0
  139.6010   72.2340  222.4900 C   0  0  2  0  0  0  0  0  0  0  0  0
  140.6610   71.2680  222.1300 N   0  0  0  0  0  0  0  0  0  0  0  0
  138.4760   71.4400  223.0970 C   0  0  0  0  0  0  0  0  0  0  0  0
  138.9220   70.5250  224.1620 C   0  0  0  0  0  0  0  0  0  0  0  0
  138.6260   69.1830  224.0180 C   0  0  0  0  0  0  0  0  0  0  0  0
  139.0270   68.3350  224.9810 N   0  0  0  0  0  0  0  0  0  0  0  0
  139.7020   68.7070  226.0830 C   0  0  0  0  0  0  0  0  0  0  0  0
  140.0600   67.7310  227.0020 C   0  0  0  0  0  0  0  0  0  0  0  0
  140.7510   68.1590  228.1140 C   0  0  0  0  0  0  0  0  0  0  0  0
  141.0760   69.4810  228.3160 C   0  0  0  0  0  0  0  0  0  0  0  0
  140.7180   70.4600  227.3930 C   0  0  0  0  0  0  0  0  0  0  0  0
  140.0240   70.0400  226.2740 C   0  0  0  0  0  0  0  0  0  0  0  0
  139.6160   70.9240  225.2890 C   0  0  0  0  0  0  0  0  0  0  0  0
  138.5950   74.9960  219.9430 C   0  0  0  0  0  0  0  0  0  0  0  0
  139.8060   75.8450  219.6180 C   0  0  0  0  0  0  0  0  0  0  0  0
  143.7069   74.1989  218.9609 H   0  0  0  0  0  0  0  0  0  0  0  0
  142.3459   75.0739  218.1807 H   0  0  0  0  0  0  0  0  0  0  0  0
  143.9926   75.7915  218.1807 H   0  0  0  0  0  0  0  0  0  0  0  0
  142.3666   75.2095  220.6854 H   0  0  0  0  0  0  0  0  0  0  0  0
  143.9347   76.1255  220.5378 H   0  0  0  0  0  0  0  0  0  0  0  0
  141.8317   80.0628  220.3345 H   0  0  0  0  0  0  0  0  0  0  0  0
  142.3805   81.7193  222.1431 H   0  0  0  0  0  0  0  0  0  0  0  0
  142.3397   81.0725  224.5170 H   0  0  0  0  0  0  0  0  0  0  0  0
  141.7498   78.7447  225.1817 H   0  0  0  0  0  0  0  0  0  0  0  0
  141.2046   77.1022  223.4063 H   0  0  0  0  0  0  0  0  0  0  0  0
  139.2323   77.7825  220.1597 H   0  0  0  0  0  0  0  0  0  0  0  0
  139.6273   77.3016  222.6617 H   0  0  0  0  0  0  0  0  0  0  0  0
  138.0780   77.0385  221.6661 H   0  0  0  0  0  0  0  0  0  0  0  0
  139.8757   75.0821  222.9711 H   0  0  0  0  0  0  0  0  0  0  0  0
  138.0664   75.2212  222.9128 H   0  0  0  0  0  0  0  0  0  0  0  0
  139.9339   72.9779  223.2288 H   0  0  0  0  0  0  0  0  0  0  0  0
  141.5850   71.5460  222.4750 H   0  0  0  0  0  0  0  0  0  0  0  0
  140.6210   71.0460  221.1160 H   0  0  0  0  0  0  0  0  0  0  0  0
  137.7427   72.1410  223.5224 H   0  0  0  0  0  0  0  0  0  0  0  0
  138.0410   70.8236  222.2965 H   0  0  0  0  0  0  0  0  0  0  0  0
  138.0763   68.8179  223.1379 H   0  0  0  0  0  0  0  0  0  0  0  0
  139.8055   66.6716  226.8505 H   0  0  0  0  0  0  0  0  0  0  0  0
  141.0540   67.4174  228.8678 H   0  0  0  0  0  0  0  0  0  0  0  0
  141.6283   69.7692  229.2226 H   0  0  0  0  0  0  0  0  0  0  0  0
  140.9755   71.5183  227.5472 H   0  0  0  0  0  0  0  0  0  0  0  0
  139.8548   71.9911  225.4088 H   0  0  0  0  0  0  0  0  0  0  0  0
  138.4336   74.2274  219.1728 H   0  0  0  0  0  0  0  0  0  0  0  0
  137.6601   75.5743  219.9828 H   0  0  0  0  0  0  0  0  0  0  0  0
  140.7222   75.2429  219.7072 H   0  0  0  0  0  0  0  0  0  0  0  0
  139.7471   76.2277  218.5884 H   0  0  0  0  0  0  0  0  0  0  0  0
  1  2  1  0
  2  3  1  0
  3  4  2  0
  3  5  1  0
  5  6  1  0
  6  7  2  0
  7  8  1  0
  8  9  2  0
  9 10  1  0
 10 11  2  0
  5 12  1  0
 12 13  1  0
 13 14  1  0
 14 15  1  0
 15 16  1  0
 16 17  2  0
 16 18  1  0
 18 19  1  0
 18 20  1  0
 20 21  1  0
 21 22  2  0
 22 23  1  0
 23 24  2  0
 24 25  1  0
 25 26  2  0
 26 27  1  0
 27 28  2  0
 28 29  1  0
 29 30  2  0
 15 31  1  0
 31 32  1  0
 11  6  1  0
 32 12  1  0
 30 21  1  0
 29 24  1  0
  1 33  1  0
  1 34  1  0
  1 35  1  0
  2 36  1  0
  2 37  1  0
  7 38  1  0
  8 39  1  0
  9 40  1  0
 10 41  1  0
 11 42  1  0
 12 43  1  0
 13 44  1  0
 13 45  1  0
 14 46  1  0
 14 47  1  0
 18 48  1  1
 19 49  1  0
 19 50  1  0
 20 51  1  0
 20 52  1  0
 22 53  1  0
 25 54  1  0
 26 55  1  0
 27 56  1  0
 28 57  1  0
 30 58  1  0
 31 59  1  0
 31 60  1  0
 32 61  1  0
 32 62  1  0
M  END
>  <smiles>  (13) 
CCC(=O)N(c1ccccc1)C1CCN(C(=O)[C@H](N)Cc2cnc3ccccc3c2)CC1

>  <score_type>  (13) 
oracle

>  <origin>  (13) 
autodockgpu

>  <m_score__min__energy>  (13) 
-8.8699999999999992

>  <m_primary>  (13) 
energy

>  <rmsd>  (13) 
7.004297070477814

>  <m_score__min__rmsd>  (13) 
7.004297070477814

>  <meeko>  (13) 
{"free_energy": -8.16, "intermolecular_energy": -10.55, "internal_energy": -2.1, "cluster_size": 25, "cluster_id": 1, "rank_in_cluster": 22}

>  <energy>  (13) 
-8.33

>  <cluster_rmsd>  (13) 
1.1

>  <cluster>  (13) 
1

$$$$

     RDKit          3D

 62 65  0  0  0  0  0  0  0  0999 V2000
  143.4500   74.4870  220.4020 C   0  0  0  0  0  0  0  0  0  0  0  0
  142.0970   75.0280  220.7860 C   0  0  0  0  0  0  0  0  0  0  0  0
  141.9250   76.4700  220.4320 C   0  0  0  0  0  0  0  0  0  0  0  0
  142.7110   76.9090  219.5430 O   0  0  0  0  0  0  0  0  0  0  0  0
  140.9400   77.2680  221.0670 N   0  0  0  0  0  0  0  0  0  0  0  0
  141.4100   78.3520  221.9040 C   0  0  0  0  0  0  0  0  0  0  0  0
  141.8300   79.5120  221.2450 C   0  0  0  0  0  0  0  0  0  0  0  0
  142.2820   80.5570  222.0570 C   0  0  0  0  0  0  0  0  0  0  0  0
  142.3130   80.4510  223.4350 C   0  0  0  0  0  0  0  0  0  0  0  0
  141.8930   79.2940  224.0600 C   0  0  0  0  0  0  0  0  0  0  0  0
  141.4450   78.2590  223.2680 C   0  0  0  0  0  0  0  0  0  0  0  0
  139.5240   77.0080  220.8870 C   0  0  0  0  0  0  0  0  0  0  0  0
  138.7890   76.6430  222.1190 C   0  0  0  0  0  0  0  0  0  0  0  0
  138.4220   75.2060  222.3090 C   0  0  0  0  0  0  0  0  0  0  0  0
  138.1780   74.5370  221.0490 N   0  0  0  0  0  0  0  0  0  0  0  0
  138.1790   73.1660  220.8200 C   0  0  0  0  0  0  0  0  0  0  0  0
  137.9410   72.7430  219.6280 O   0  0  0  0  0  0  0  0  0  0  0  0
  138.4320   72.1010  221.8140 C   0  0  2  0  0  0  0  0  0  0  0  0
  137.4990   72.2520  222.9520 N   0  0  0  0  0  0  0  0  0  0  0  0
  139.8230   72.1090  222.3870 C   0  0  0  0  0  0  0  0  0  0  0  0
  139.9340   71.3530  223.6470 C   0  0  0  0  0  0  0  0  0  0  0  0
  139.4970   70.0410  223.6450 C   0  0  0  0  0  0  0  0  0  0  0  0
  139.5920   69.3370  224.7860 N   0  0  0  0  0  0  0  0  0  0  0  0
  140.0870   69.8260  225.9380 C   0  0  0  0  0  0  0  0  0  0  0  0
  140.1310   68.9930  227.0470 C   0  0  0  0  0  0  0  0  0  0  0  0
  140.6470   69.5370  228.2030 C   0  0  0  0  0  0  0  0  0  0  0  0
  141.0970   70.8350  228.2690 C   0  0  0  0  0  0  0  0  0  0  0  0
  141.0530   71.6710  227.1560 C   0  0  0  0  0  0  0  0  0  0  0  0
  140.5370   71.1330  225.9910 C   0  0  0  0  0  0  0  0  0  0  0  0
  140.4440   71.8700  224.8220 C   0  0  0  0  0  0  0  0  0  0  0  0
  137.9180   75.4580  219.9180 C   0  0  0  0  0  0  0  0  0  0  0  0
  139.2610   76.1220  219.6990 C   0  0  0  0  0  0  0  0  0  0  0  0
  144.0246   74.2572  221.3114 H   0  0  0  0  0  0  0  0  0  0  0  0
  143.3231   73.5705  219.8071 H   0  0  0  0  0  0  0  0  0  0  0  0
  143.9900   75.2384  219.8071 H   0  0  0  0  0  0  0  0  0  0  0  0
  141.3245   74.4440  220.2642 H   0  0  0  0  0  0  0  0  0  0  0  0
  142.0058   74.9434  221.8789 H   0  0  0  0  0  0  0  0  0  0  0  0
  141.8061   79.5976  220.1486 H   0  0  0  0  0  0  0  0  0  0  0  0
  142.6228   81.4906  221.5855 H   0  0  0  0  0  0  0  0  0  0  0  0
  142.6755   81.2960  224.0388 H   0  0  0  0  0  0  0  0  0  0  0  0
  141.9152   79.2011  225.1558 H   0  0  0  0  0  0  0  0  0  0  0  0
  141.1051   77.3293  223.7478 H   0  0  0  0  0  0  0  0  0  0  0  0
  139.0725   77.9801  220.6395 H   0  0  0  0  0  0  0  0  0  0  0  0
  139.4144   76.9383  222.9744 H   0  0  0  0  0  0  0  0  0  0  0  0
  137.8257   77.1672  222.0339 H   0  0  0  0  0  0  0  0  0  0  0  0
  139.2458   74.6949  222.8286 H   0  0  0  0  0  0  0  0  0  0  0  0
  137.4944   75.1676  222.8990 H   0  0  0  0  0  0  0  0  0  0  0  0
  138.2918   71.1562  221.2684 H   0  0  0  0  0  0  0  0  0  0  0  0
  136.5220   72.0910  222.6890 H   0  0  0  0  0  0  0  0  0  0  0  0
  137.6770   73.1470  223.4500 H   0  0  0  0  0  0  0  0  0  0  0  0
  140.5076   71.6636  221.6501 H   0  0  0  0  0  0  0  0  0  0  0  0
  140.0801   73.1553  222.6088 H   0  0  0  0  0  0  0  0  0  0  0  0
  139.0825   69.5855  222.7336 H   0  0  0  0  0  0  0  0  0  0  0  0
  139.7730   67.9537  227.0054 H   0  0  0  0  0  0  0  0  0  0  0  0
  140.7010   68.9106  229.1056 H   0  0  0  0  0  0  0  0  0  0  0  0
  141.4989   71.2197  229.2179 H   0  0  0  0  0  0  0  0  0  0  0  0
  141.4116   72.7099  227.2013 H   0  0  0  0  0  0  0  0  0  0  0  0
  140.7918   72.9136  224.8296 H   0  0  0  0  0  0  0  0  0  0  0  0
  137.6010   74.9036  219.0223 H   0  0  0  0  0  0  0  0  0  0  0  0
  137.1095   76.1754  220.1221 H   0  0  0  0  0  0  0  0  0  0  0  0
  140.0489   75.3588  219.6174 H   0  0  0  0  0  0  0  0  0  0  0  0
  139.2566   76.7100  218.7693 H   0  0  0  0  0  0  0  0  0  0  0  0
  1  2  1  0
  2  3  1  0
  3  4  2  0
  3  5  1  0
  5  6  1  0
  6  7  2  0
  7  8  1  0
  8  9  2  0
  9 10  1  0
 10 11  2  0
  5 12  1  0
 12 13  1  0
 13 14  1  0
 14 15  1  0
 15 16  1  0
 16 17  2  0
 16 18  1  0
 18 19  1  0
 18 20  1  0
 20 21  1  0
 21 22  2  0
 22 23  1  0
 23 24  2  0
 24 25  1  0
 25 26  2  0
 26 27  1  0
 27 28  2  0
 28 29  1  0
 29 30  2  0
 15 31  1  0
 31 32  1  0
 11  6  1  0
 32 12  1  0
 30 21  1  0
 29 24  1  0
  1 33  1  0
  1 34  1  0
  1 35  1  0
  2 36  1  0
  2 37  1  0
  7 38  1  0
  8 39  1  0
  9 40  1  0
 10 41  1  0
 11 42  1  0
 12 43  1  0
 13 44  1  0
 13 45  1  0
 14 46  1  0
 14 47  1  0
 18 48  1  6
 19 49  1  0
 19 50  1  0
 20 51  1  0
 20 52  1  0
 22 53  1  0
 25 54  1  0
 26 55  1  0
 27 56  1  0
 28 57  1  0
 30 58  1  0
 31 59  1  0
 31 60  1  0
 32 61  1  0
 32 62  1  0
M  END
>  <smiles>  (14) 
CCC(=O)N(c1ccccc1)C1CCN(C(=O)[C@H](N)Cc2cnc3ccccc3c2)CC1

>  <score_type>  (14) 
oracle

>  <origin>  (14) 
autodockgpu

>  <m_score__min__energy>  (14) 
-8.8699999999999992

>  <m_primary>  (14) 
energy

>  <rmsd>  (14) 
6.545293389012181

>  <m_score__min__rmsd>  (14) 
6.545293389012181

>  <meeko>  (14) 
{"free_energy": -8.27, "intermolecular_energy": -10.66, "internal_energy": -1.84, "cluster_size": 25, "cluster_id": 1, "rank_in_cluster": 16}

>  <energy>  (14) 
-8.32

>  <cluster_rmsd>  (14) 
1.23

>  <cluster>  (14) 
1

$$$$

     RDKit          3D

 62 65  0  0  0  0  0  0  0  0999 V2000
  138.3030   79.3860  223.3810 C   0  0  0  0  0  0  0  0  0  0  0  0
  138.0260   78.3250  222.3480 C   0  0  0  0  0  0  0  0  0  0  0  0
  139.0460   77.2310  222.3500 C   0  0  0  0  0  0  0  0  0  0  0  0
  138.7090   76.1750  222.9580 O   0  0  0  0  0  0  0  0  0  0  0  0
  140.2980   77.3960  221.7070 N   0  0  0  0  0  0  0  0  0  0  0  0
  141.1140   78.5150  222.1310 C   0  0  0  0  0  0  0  0  0  0  0  0
  141.5100   78.5250  223.4730 C   0  0  0  0  0  0  0  0  0  0  0  0
  142.2980   79.6070  223.8780 C   0  0  0  0  0  0  0  0  0  0  0  0
  142.6660   80.6120  223.0030 C   0  0  0  0  0  0  0  0  0  0  0  0
  142.2620   80.5770  221.6840 C   0  0  0  0  0  0  0  0  0  0  0  0
  141.4850   79.5150  221.2740 C   0  0  0  0  0  0  0  0  0  0  0  0
  140.7430   76.4850  220.6680 C   0  0  0  0  0  0  0  0  0  0  0  0
  139.6660   75.9200  219.8240 C   0  0  0  0  0  0  0  0  0  0  0  0
  139.2640   74.5010  220.0700 C   0  0  0  0  0  0  0  0  0  0  0  0
  140.3730   73.6940  220.5330 N   0  0  0  0  0  0  0  0  0  0  0  0
  140.2980   72.4730  221.1910 C   0  0  0  0  0  0  0  0  0  0  0  0
  141.3930   71.8910  221.5330 O   0  0  0  0  0  0  0  0  0  0  0  0
  139.0680   71.7390  221.5600 C   0  0  2  0  0  0  0  0  0  0  0  0
  138.3640   72.4580  222.6430 N   0  0  0  0  0  0  0  0  0  0  0  0
  139.3090   70.3380  222.0520 C   0  0  0  0  0  0  0  0  0  0  0  0
  139.4830   70.2610  223.5130 C   0  0  0  0  0  0  0  0  0  0  0  0
  138.8010   69.2650  224.1860 C   0  0  0  0  0  0  0  0  0  0  0  0
  138.9490   69.1800  225.5200 N   0  0  0  0  0  0  0  0  0  0  0  0
  139.7220   70.0040  226.2490 C   0  0  0  0  0  0  0  0  0  0  0  0
  139.7900   69.8090  227.6210 C   0  0  0  0  0  0  0  0  0  0  0  0
  140.5950   70.6770  228.3250 C   0  0  0  0  0  0  0  0  0  0  0  0
  141.3000   71.6890  227.7140 C   0  0  0  0  0  0  0  0  0  0  0  0
  141.2320   71.8840  226.3370 C   0  0  0  0  0  0  0  0  0  0  0  0
  140.4260   71.0180  225.6220 C   0  0  0  0  0  0  0  0  0  0  0  0
  140.2810   71.1170  224.2480 C   0  0  0  0  0  0  0  0  0  0  0  0
  141.7040   74.2870  220.2620 C   0  0  0  0  0  0  0  0  0  0  0  0
  141.7410   75.4860  221.1860 C   0  0  0  0  0  0  0  0  0  0  0  0
  138.1908   78.9562  224.3873 H   0  0  0  0  0  0  0  0  0  0  0  0
  139.3292   79.7614  223.2550 H   0  0  0  0  0  0  0  0  0  0  0  0
  137.5912   80.2151  223.2550 H   0  0  0  0  0  0  0  0  0  0  0  0
  137.0388   77.8850  222.5527 H   0  0  0  0  0  0  0  0  0  0  0  0
  138.0618   78.8081  221.3604 H   0  0  0  0  0  0  0  0  0  0  0  0
  141.2177   77.7263  224.1706 H   0  0  0  0  0  0  0  0  0  0  0  0
  142.6350   79.6600  224.9238 H   0  0  0  0  0  0  0  0  0  0  0  0
  143.2862   81.4468  223.3613 H   0  0  0  0  0  0  0  0  0  0  0  0
  142.5512   81.3723  220.9813 H   0  0  0  0  0  0  0  0  0  0  0  0
  141.1532   79.4700  220.2262 H   0  0  0  0  0  0  0  0  0  0  0  0
  141.2914   77.1041  219.9428 H   0  0  0  0  0  0  0  0  0  0  0  0
  138.7724   76.5448  219.9694 H   0  0  0  0  0  0  0  0  0  0  0  0
  140.0816   75.9193  218.8055 H   0  0  0  0  0  0  0  0  0  0  0  0
  138.4705   74.4840  220.8316 H   0  0  0  0  0  0  0  0  0  0  0  0
  138.9117   74.0784  219.1175 H   0  0  0  0  0  0  0  0  0  0  0  0
  138.4783   71.6804  220.6333 H   0  0  0  0  0  0  0  0  0  0  0  0
  137.3440   72.4000  222.5620 H   0  0  0  0  0  0  0  0  0  0  0  0
  138.7410   73.4210  222.7430 H   0  0  0  0  0  0  0  0  0  0  0  0
  138.4484   69.7144  221.7685 H   0  0  0  0  0  0  0  0  0  0  0  0
  140.2431   69.9844  221.5911 H   0  0  0  0  0  0  0  0  0  0  0  0
  138.1536   68.5597  223.6443 H   0  0  0  0  0  0  0  0  0  0  0  0
  139.2307   69.0039  228.1200 H   0  0  0  0  0  0  0  0  0  0  0  0
  140.6775   70.5571  229.4153 H   0  0  0  0  0  0  0  0  0  0  0  0
  141.9279   72.3551  228.3240 H   0  0  0  0  0  0  0  0  0  0  0  0
  141.7935   72.6896  225.8413 H   0  0  0  0  0  0  0  0  0  0  0  0
  140.8254   71.9126  223.7182 H   0  0  0  0  0  0  0  0  0  0  0  0
  142.5090   73.5774  220.5037 H   0  0  0  0  0  0  0  0  0  0  0  0
  141.8520   74.5516  219.2046 H   0  0  0  0  0  0  0  0  0  0  0  0
  141.4719   75.1813  222.2081 H   0  0  0  0  0  0  0  0  0  0  0  0
  142.7498   75.9237  221.2135 H   0  0  0  0  0  0  0  0  0  0  0  0
  1  2  1  0
  2  3  1  0
  3  4  2  0
  3  5  1  0
  5  6  1  0
  6  7  2  0
  7  8  1  0
  8  9  2  0
  9 10  1  0
 10 11  2  0
  5 12  1  0
 12 13  1  0
 13 14  1  0
 14 15  1  0
 15 16  1  0
 16 17  2  0
 16 18  1  0
 18 19  1  0
 18 20  1  0
 20 21  1  0
 21 22  2  0
 22 23  1  0
 23 24  2  0
 24 25  1  0
 25 26  2  0
 26 27  1  0
 27 28  2  0
 28 29  1  0
 29 30  2  0
 15 31  1  0
 31 32  1  0
 11  6  1  0
 32 12  1  0
 30 21  1  0
 29 24  1  0
  1 33  1  0
  1 34  1  0
  1 35  1  0
  2 36  1  0
  2 37  1  0
  7 38  1  0
  8 39  1  0
  9 40  1  0
 10 41  1  0
 11 42  1  0
 12 43  1  0
 13 44  1  0
 13 45  1  0
 14 46  1  0
 14 47  1  0
 18 48  1  6
 19 49  1  0
 19 50  1  0
 20 51  1  0
 20 52  1  0
 22 53  1  0
 25 54  1  0
 26 55  1  0
 27 56  1  0
 28 57  1  0
 30 58  1  0
 31 59  1  0
 31 60  1  0
 32 61  1  0
 32 62  1  0
M  END
>  <smiles>  (15) 
CCC(=O)N(c1ccccc1)C1CCN(C(=O)[C@H](N)Cc2cnc3ccccc3c2)CC1

>  <score_type>  (15) 
oracle

>  <origin>  (15) 
autodockgpu

>  <m_score__min__energy>  (15) 
-8.8699999999999992

>  <m_primary>  (15) 
energy

>  <rmsd>  (15) 
6.990056709040949

>  <m_score__min__rmsd>  (15) 
6.990056709040949

>  <meeko>  (15) 
{"free_energy": -8.52, "intermolecular_energy": -10.91, "internal_energy": -1.89, "cluster_size": 25, "cluster_id": 1, "rank_in_cluster": 5}

>  <energy>  (15) 
-8.29

>  <cluster_rmsd>  (15) 
1.12

>  <cluster>  (15) 
1

$$$$

     RDKit          3D

 62 65  0  0  0  0  0  0  0  0999 V2000
  136.9780   76.8660  222.7150 C   0  0  0  0  0  0  0  0  0  0  0  0
  138.3590   77.4680  222.6650 C   0  0  0  0  0  0  0  0  0  0  0  0
  139.4160   76.4710  222.3110 C   0  0  0  0  0  0  0  0  0  0  0  0
  139.2170   75.2950  222.7340 O   0  0  0  0  0  0  0  0  0  0  0  0
  140.5530   76.8470  221.5530 N   0  0  0  0  0  0  0  0  0  0  0  0
  141.2100   78.0830  221.9220 C   0  0  0  0  0  0  0  0  0  0  0  0
  141.5050   78.2530  223.2790 C   0  0  0  0  0  0  0  0  0  0  0  0
  142.1400   79.4480  223.6300 C   0  0  0  0  0  0  0  0  0  0  0  0
  142.4600   80.4100  222.6900 C   0  0  0  0  0  0  0  0  0  0  0  0
  142.1580   80.2170  221.3570 C   0  0  0  0  0  0  0  0  0  0  0  0
  141.5320   79.0420  221.0010 C   0  0  0  0  0  0  0  0  0  0  0  0
  141.0360   76.0290  220.4560 C   0  0  0  0  0  0  0  0  0  0  0  0
  139.9920   75.2730  219.7270 C   0  0  0  0  0  0  0  0  0  0  0  0
  139.8860   73.8050  219.9910 C   0  0  0  0  0  0  0  0  0  0  0  0
  141.1690   73.2170  220.3140 N   0  0  0  0  0  0  0  0  0  0  0  0
  141.3920   72.0050  220.9560 C   0  0  0  0  0  0  0  0  0  0  0  0
  142.6060   71.6340  221.1630 O   0  0  0  0  0  0  0  0  0  0  0  0
  140.3650   71.0590  221.4450 C   0  0  2  0  0  0  0  0  0  0  0  0
  139.4030   70.7640  220.3620 N   0  0  0  0  0  0  0  0  0  0  0  0
  139.5650   71.5670  222.6130 C   0  0  0  0  0  0  0  0  0  0  0  0
  139.7040   70.7310  223.8180 C   0  0  0  0  0  0  0  0  0  0  0  0
  139.1990   69.4460  223.7650 C   0  0  0  0  0  0  0  0  0  0  0  0
  139.3190   68.6690  224.8560 N   0  0  0  0  0  0  0  0  0  0  0  0
  139.9010   69.0610  226.0040 C   0  0  0  0  0  0  0  0  0  0  0  0
  139.9610   68.1610  227.0580 C   0  0  0  0  0  0  0  0  0  0  0  0
  140.5670   68.6060  228.2120 C   0  0  0  0  0  0  0  0  0  0  0  0
  141.0890   69.8740  228.3270 C   0  0  0  0  0  0  0  0  0  0  0  0
  141.0290   70.7780  227.2690 C   0  0  0  0  0  0  0  0  0  0  0  0
  140.4220   70.3390  226.1070 C   0  0  0  0  0  0  0  0  0  0  0  0
  140.3040   71.1490  224.9900 C   0  0  0  0  0  0  0  0  0  0  0  0
  142.3300   74.0430  219.9080 C   0  0  0  0  0  0  0  0  0  0  0  0
  142.2520   75.2310  220.8420 C   0  0  0  0  0  0  0  0  0  0  0  0
  136.6736   76.7333  223.7637 H   0  0  0  0  0  0  0  0  0  0  0  0
  136.2674   77.5360  222.2089 H   0  0  0  0  0  0  0  0  0  0  0  0
  136.9852   75.8894  222.2089 H   0  0  0  0  0  0  0  0  0  0  0  0
  138.3656   78.2691  221.9112 H   0  0  0  0  0  0  0  0  0  0  0  0
  138.5891   77.8501  223.6705 H   0  0  0  0  0  0  0  0  0  0  0  0
  141.2513   77.4887  224.0283 H   0  0  0  0  0  0  0  0  0  0  0  0
  142.3925   79.6282  224.6854 H   0  0  0  0  0  0  0  0  0  0  0  0
  142.9596   81.3373  223.0071 H   0  0  0  0  0  0  0  0  0  0  0  0
  142.4091   80.9772  220.6026 H   0  0  0  0  0  0  0  0  0  0  0  0
  141.2835   78.8699  219.9434 H   0  0  0  0  0  0  0  0  0  0  0  0
  141.3765   76.7360  219.6852 H   0  0  0  0  0  0  0  0  0  0  0  0
  139.0215   75.7237  219.9818 H   0  0  0  0  0  0  0  0  0  0  0  0
  140.2837   75.3452  218.6688 H   0  0  0  0  0  0  0  0  0  0  0  0
  139.1995   73.6449  220.8354 H   0  0  0  0  0  0  0  0  0  0  0  0
  139.5120   73.3219  219.0763 H   0  0  0  0  0  0  0  0  0  0  0  0
  140.9235   70.1698  221.7727 H   0  0  0  0  0  0  0  0  0  0  0  0
  139.8620   70.5210  219.4780 H   0  0  0  0  0  0  0  0  0  0  0  0
  138.6920   71.5190  220.2940 H   0  0  0  0  0  0  0  0  0  0  0  0
  139.9043   72.5855  222.8529 H   0  0  0  0  0  0  0  0  0  0  0  0
  138.5053   71.5436  222.3189 H   0  0  0  0  0  0  0  0  0  0  0  0
  138.7115   69.0684  222.8541 H   0  0  0  0  0  0  0  0  0  0  0  0
  139.5464   67.1454  226.9764 H   0  0  0  0  0  0  0  0  0  0  0  0
  140.6361   67.9237  229.0721 H   0  0  0  0  0  0  0  0  0  0  0  0
  141.5624   70.1793  229.2718 H   0  0  0  0  0  0  0  0  0  0  0  0
  141.4448   71.7928  227.3540 H   0  0  0  0  0  0  0  0  0  0  0  0
  140.7063   72.1717  225.0382 H   0  0  0  0  0  0  0  0  0  0  0  0
  143.2728   73.4935  220.0465 H   0  0  0  0  0  0  0  0  0  0  0  0
  142.3071   74.3271  218.8456 H   0  0  0  0  0  0  0  0  0  0  0  0
  142.1602   74.8857  221.8824 H   0  0  0  0  0  0  0  0  0  0  0  0
  143.1606   75.8461  220.7641 H   0  0  0  0  0  0  0  0  0  0  0  0
  1  2  1  0
  2  3  1  0
  3  4  2  0
  3  5  1  0
  5  6  1  0
  6  7  2  0
  7  8  1  0
  8  9  2  0
  9 10  1  0
 10 11  2  0
  5 12  1  0
 12 13  1  0
 13 14  1  0
 14 15  1  0
 15 16  1  0
 16 17  2  0
 16 18  1  0
 18 19  1  0
 18 20  1  0
 20 21  1  0
 21 22  2  0
 22 23  1  0
 23 24  2  0
 24 25  1  0
 25 26  2  0
 26 27  1  0
 27 28  2  0
 28 29  1  0
 29 30  2  0
 15 31  1  0
 31 32  1  0
 11  6  1  0
 32 12  1  0
 30 21  1  0
 29 24  1  0
  1 33  1  0
  1 34  1  0
  1 35  1  0
  2 36  1  0
  2 37  1  0
  7 38  1  0
  8 39  1  0
  9 40  1  0
 10 41  1  0
 11 42  1  0
 12 43  1  0
 13 44  1  0
 13 45  1  0
 14 46  1  0
 14 47  1  0
 18 48  1  1
 19 49  1  0
 19 50  1  0
 20 51  1  0
 20 52  1  0
 22 53  1  0
 25 54  1  0
 26 55  1  0
 27 56  1  0
 28 57  1  0
 30 58  1  0
 31 59  1  0
 31 60  1  0
 32 61  1  0
 32 62  1  0
M  END
>  <smiles>  (16) 
CCC(=O)N(c1ccccc1)C1CCN(C(=O)[C@H](N)Cc2cnc3ccccc3c2)CC1

>  <score_type>  (16) 
oracle

>  <origin>  (16) 
autodockgpu

>  <m_score__min__energy>  (16) 
-8.8699999999999992

>  <m_primary>  (16) 
energy

>  <rmsd>  (16) 
7.116814806227935

>  <m_score__min__rmsd>  (16) 
7.116814806227935

>  <meeko>  (16) 
{"free_energy": -8.24, "intermolecular_energy": -10.63, "internal_energy": -1.81, "cluster_size": 25, "cluster_id": 1, "rank_in_cluster": 18}

>  <energy>  (16) 
-8.27

>  <cluster_rmsd>  (16) 
1.67

>  <cluster>  (16) 
1

$$$$

     RDKit          3D

 62 65  0  0  0  0  0  0  0  0999 V2000
  137.8120   78.9770  221.4770 C   0  0  0  0  0  0  0  0  0  0  0  0
  138.1870   78.1770  222.6970 C   0  0  0  0  0  0  0  0  0  0  0  0
  139.0830   77.0220  222.3820 C   0  0  0  0  0  0  0  0  0  0  0  0
  138.6580   75.8890  222.7490 O   0  0  0  0  0  0  0  0  0  0  0  0
  140.3200   77.2150  221.7180 N   0  0  0  0  0  0  0  0  0  0  0  0
  141.0990   78.3740  222.0990 C   0  0  0  0  0  0  0  0  0  0  0  0
  141.4060   79.2820  221.0800 C   0  0  0  0  0  0  0  0  0  0  0  0
  142.1580   80.4010  221.4530 C   0  0  0  0  0  0  0  0  0  0  0  0
  142.5750   80.6000  222.7550 C   0  0  0  0  0  0  0  0  0  0  0  0
  142.2570   79.6890  223.7420 C   0  0  0  0  0  0  0  0  0  0  0  0
  141.5160   78.5830  223.3850 C   0  0  0  0  0  0  0  0  0  0  0  0
  140.7840   76.2920  220.6980 C   0  0  0  0  0  0  0  0  0  0  0  0
  139.7270   75.7400  219.8200 C   0  0  0  0  0  0  0  0  0  0  0  0
  139.2940   74.3290  220.0580 C   0  0  0  0  0  0  0  0  0  0  0  0
  140.3730   73.5070  220.5620 N   0  0  0  0  0  0  0  0  0  0  0  0
  140.2550   72.2900  221.2230 C   0  0  0  0  0  0  0  0  0  0  0  0
  141.3290   71.6910  221.6040 O   0  0  0  0  0  0  0  0  0  0  0  0
  139.0010   71.5770  221.5520 C   0  0  2  0  0  0  0  0  0  0  0  0
  138.2510   72.3380  222.5740 N   0  0  0  0  0  0  0  0  0  0  0  0
  139.2050   70.1920  222.1020 C   0  0  0  0  0  0  0  0  0  0  0  0
  139.4050   70.1730  223.5610 C   0  0  0  0  0  0  0  0  0  0  0  0
  138.7560   69.1880  224.2820 C   0  0  0  0  0  0  0  0  0  0  0  0
  138.9280   69.1560  225.6150 N   0  0  0  0  0  0  0  0  0  0  0  0
  139.6960   70.0230  226.2990 C   0  0  0  0  0  0  0  0  0  0  0  0
  139.7910   69.8800  227.6760 C   0  0  0  0  0  0  0  0  0  0  0  0
  140.5890   70.7910  228.3340 C   0  0  0  0  0  0  0  0  0  0  0  0
  141.2610   71.7930  227.6730 C   0  0  0  0  0  0  0  0  0  0  0  0
  141.1660   71.9360  226.2920 C   0  0  0  0  0  0  0  0  0  0  0  0
  140.3670   71.0280  225.6230 C   0  0  0  0  0  0  0  0  0  0  0  0
  140.1970   71.0720  224.2500 C   0  0  0  0  0  0  0  0  0  0  0  0
  141.7220   74.0760  220.3350 C   0  0  0  0  0  0  0  0  0  0  0  0
  141.7480   75.2790  221.2540 C   0  0  0  0  0  0  0  0  0  0  0  0
  137.3642   79.9323  221.7883 H   0  0  0  0  0  0  0  0  0  0  0  0
  138.7122   79.1727  220.8759 H   0  0  0  0  0  0  0  0  0  0  0  0
  137.0857   78.4103  220.8759 H   0  0  0  0  0  0  0  0  0  0  0  0
  138.7047   78.8398  223.4060 H   0  0  0  0  0  0  0  0  0  0  0  0
  137.2585   77.7684  223.1223 H   0  0  0  0  0  0  0  0  0  0  0  0
  141.0745   79.1248  220.0430 H   0  0  0  0  0  0  0  0  0  0  0  0
  142.4251   81.1442  220.6873 H   0  0  0  0  0  0  0  0  0  0  0  0
  143.1659   81.4928  223.0074 H   0  0  0  0  0  0  0  0  0  0  0  0
  142.5847   79.8409  224.7810 H   0  0  0  0  0  0  0  0  0  0  0  0
  141.2519   77.8460  224.1577 H   0  0  0  0  0  0  0  0  0  0  0  0
  141.3655   76.8992  219.9887 H   0  0  0  0  0  0  0  0  0  0  0  0
  138.8392   76.3797  219.9322 H   0  0  0  0  0  0  0  0  0  0  0  0
  140.1770   75.7277  218.8163 H   0  0  0  0  0  0  0  0  0  0  0  0
  138.4747   74.3283  220.7920 H   0  0  0  0  0  0  0  0  0  0  0  0
  138.9676   73.9076  219.0958 H   0  0  0  0  0  0  0  0  0  0  0  0
  138.4578   71.4905  220.5994 H   0  0  0  0  0  0  0  0  0  0  0  0
  137.2380   72.3220  222.4170 H   0  0  0  0  0  0  0  0  0  0  0  0
  138.6610   73.2850  222.6940 H   0  0  0  0  0  0  0  0  0  0  0  0
  138.3187   69.5862  221.8623 H   0  0  0  0  0  0  0  0  0  0  0  0
  140.1179   69.7873  221.6407 H   0  0  0  0  0  0  0  0  0  0  0  0
  138.1153   68.4494  223.7780 H   0  0  0  0  0  0  0  0  0  0  0  0
  139.2579   69.0821  228.2137 H   0  0  0  0  0  0  0  0  0  0  0  0
  140.6922   70.7141  229.4264 H   0  0  0  0  0  0  0  0  0  0  0  0
  141.8850   72.4941  228.2467 H   0  0  0  0  0  0  0  0  0  0  0  0
  141.7018   72.7344  225.7577 H   0  0  0  0  0  0  0  0  0  0  0  0
  140.7157   71.8580  223.6816 H   0  0  0  0  0  0  0  0  0  0  0  0
  142.5058   73.3540  220.6078 H   0  0  0  0  0  0  0  0  0  0  0  0
  141.9108   74.3327  219.2822 H   0  0  0  0  0  0  0  0  0  0  0  0
  141.4400   74.9841  222.2680 H   0  0  0  0  0  0  0  0  0  0  0  0
  142.7624   75.7003  221.3131 H   0  0  0  0  0  0  0  0  0  0  0  0
  1  2  1  0
  2  3  1  0
  3  4  2  0
  3  5  1  0
  5  6  1  0
  6  7  2  0
  7  8  1  0
  8  9  2  0
  9 10  1  0
 10 11  2  0
  5 12  1  0
 12 13  1  0
 13 14  1  0
 14 15  1  0
 15 16  1  0
 16 17  2  0
 16 18  1  0
 18 19  1  0
 18 20  1  0
 20 21  1  0
 21 22  2  0
 22 23  1  0
 23 24  2  0
 24 25  1  0
 25 26  2  0
 26 27  1  0
 27 28  2  0
 28 29  1  0
 29 30  2  0
 15 31  1  0
 31 32  1  0
 11  6  1  0
 32 12  1  0
 30 21  1  0
 29 24  1  0
  1 33  1  0
  1 34  1  0
  1 35  1  0
  2 36  1  0
  2 37  1  0
  7 38  1  0
  8 39  1  0
  9 40  1  0
 10 41  1  0
 11 42  1  0
 12 43  1  0
 13 44  1  0
 13 45  1  0
 14 46  1  0
 14 47  1  0
 18 48  1  6
 19 49  1  0
 19 50  1  0
 20 51  1  0
 20 52  1  0
 22 53  1  0
 25 54  1  0
 26 55  1  0
 27 56  1  0
 28 57  1  0
 30 58  1  0
 31 59  1  0
 31 60  1  0
 32 61  1  0
 32 62  1  0
M  END
>  <smiles>  (17) 
CCC(=O)N(c1ccccc1)C1CCN(C(=O)[C@H](N)Cc2cnc3ccccc3c2)CC1

>  <score_type>  (17) 
oracle

>  <origin>  (17) 
autodockgpu

>  <m_score__min__energy>  (17) 
-8.8699999999999992

>  <m_primary>  (17) 
energy

>  <rmsd>  (17) 
7.123860164713265

>  <m_score__min__rmsd>  (17) 
7.123860164713265

>  <meeko>  (17) 
{"free_energy": -8.36, "intermolecular_energy": -10.75, "internal_energy": -2.06, "cluster_size": 25, "cluster_id": 1, "rank_in_cluster": 10}

>  <energy>  (17) 
-8.25

>  <cluster_rmsd>  (17) 
1.65

>  <cluster>  (17) 
1

$$$$

     RDKit          3D

 62 65  0  0  0  0  0  0  0  0999 V2000
  146.3530   73.3030  221.8340 C   0  0  0  0  0  0  0  0  0  0  0  0
  145.7320   73.9780  220.6380 C   0  0  0  0  0  0  0  0  0  0  0  0
  145.4710   73.0330  219.5080 C   0  0  0  0  0  0  0  0  0  0  0  0
  146.3210   73.0580  218.5720 O   0  0  0  0  0  0  0  0  0  0  0  0
  144.3390   72.1810  219.5130 N   0  0  0  0  0  0  0  0  0  0  0  0
  144.5880   70.7550  219.4660 C   0  0  0  0  0  0  0  0  0  0  0  0
  145.8470   70.3570  219.0040 C   0  0  0  0  0  0  0  0  0  0  0  0
  146.0840   68.9800  218.9600 C   0  0  0  0  0  0  0  0  0  0  0  0
  145.1290   68.0610  219.3510 C   0  0  0  0  0  0  0  0  0  0  0  0
  143.8940   68.4810  219.8030 C   0  0  0  0  0  0  0  0  0  0  0  0
  143.6510   69.8360  219.8510 C   0  0  0  0  0  0  0  0  0  0  0  0
  142.9890   72.7130  219.5620 C   0  0  0  0  0  0  0  0  0  0  0  0
  142.4250   72.8750  220.9220 C   0  0  0  0  0  0  0  0  0  0  0  0
  141.4110   71.8750  221.3770 C   0  0  0  0  0  0  0  0  0  0  0  0
  140.6180   71.3680  220.2770 N   0  0  0  0  0  0  0  0  0  0  0  0
  139.8640   70.2010  220.2630 C   0  0  0  0  0  0  0  0  0  0  0  0
  139.2160   69.9010  219.1930 O   0  0  0  0  0  0  0  0  0  0  0  0
  139.7130   69.2290  221.3680 C   0  0  2  0  0  0  0  0  0  0  0  0
  139.3010   67.9170  220.8240 N   0  0  0  0  0  0  0  0  0  0  0  0
  138.6850   69.6170  222.3950 C   0  0  0  0  0  0  0  0  0  0  0  0
  139.2640   69.8630  223.7280 C   0  0  0  0  0  0  0  0  0  0  0  0
  139.6670   71.1520  224.0200 C   0  0  0  0  0  0  0  0  0  0  0  0
  140.1960   71.3940  225.2320 N   0  0  0  0  0  0  0  0  0  0  0  0
  140.3600   70.4600  226.1870 C   0  0  0  0  0  0  0  0  0  0  0  0
  140.9190   70.8410  227.3980 C   0  0  0  0  0  0  0  0  0  0  0  0
  141.0670   69.8510  228.3440 C   0  0  0  0  0  0  0  0  0  0  0  0
  140.6840   68.5490  228.1140 C   0  0  0  0  0  0  0  0  0  0  0  0
  140.1230   68.1670  226.8990 C   0  0  0  0  0  0  0  0  0  0  0  0
  139.9720   69.1540  225.9430 C   0  0  0  0  0  0  0  0  0  0  0  0
  139.4260   68.8920  224.6970 C   0  0  0  0  0  0  0  0  0  0  0  0
  140.6610   72.2140  219.0620 C   0  0  0  0  0  0  0  0  0  0  0  0
  142.0820   72.0380  218.5700 C   0  0  0  0  0  0  0  0  0  0  0  0
  145.9469   73.7444  222.7561 H   0  0  0  0  0  0  0  0  0  0  0  0
  146.1217   72.2279  221.8094 H   0  0  0  0  0  0  0  0  0  0  0  0
  147.4436   73.4441  221.8094 H   0  0  0  0  0  0  0  0  0  0  0  0
  144.7773   74.4295  220.9459 H   0  0  0  0  0  0  0  0  0  0  0  0
  146.4448   74.7346  220.2783 H   0  0  0  0  0  0  0  0  0  0  0  0
  146.6084   71.0872  218.6925 H   0  0  0  0  0  0  0  0  0  0  0  0
  147.0594   68.6174  218.6036 H   0  0  0  0  0  0  0  0  0  0  0  0
  145.3547   66.9855  219.3017 H   0  0  0  0  0  0  0  0  0  0  0  0
  143.1278   67.7561  220.1151 H   0  0  0  0  0  0  0  0  0  0  0  0
  142.6733   70.1899  220.2100 H   0  0  0  0  0  0  0  0  0  0  0  0
  143.0689   73.7583  219.2289 H   0  0  0  0  0  0  0  0  0  0  0  0
  143.2642   72.8385  221.6322 H   0  0  0  0  0  0  0  0  0  0  0  0
  141.8780   73.8286  220.8846 H   0  0  0  0  0  0  0  0  0  0  0  0
  141.9324   71.0334  221.8564 H   0  0  0  0  0  0  0  0  0  0  0  0
  140.7321   72.3763  222.0826 H   0  0  0  0  0  0  0  0  0  0  0  0
  140.6956   69.1972  221.8615 H   0  0  0  0  0  0  0  0  0  0  0  0
  140.0740   67.2460  220.7770 H   0  0  0  0  0  0  0  0  0  0  0  0
  138.7760   68.0420  219.9360 H   0  0  0  0  0  0  0  0  0  0  0  0
  138.1816   70.5348  222.0571 H   0  0  0  0  0  0  0  0  0  0  0  0
  137.9840   68.7748  222.4921 H   0  0  0  0  0  0  0  0  0  0  0  0
  139.5579   71.9588  223.2803 H   0  0  0  0  0  0  0  0  0  0  0  0
  141.2277   71.8787  227.5924 H   0  0  0  0  0  0  0  0  0  0  0  0
  141.5070   70.1101  229.3183 H   0  0  0  0  0  0  0  0  0  0  0  0
  140.8238   67.7971  228.9046 H   0  0  0  0  0  0  0  0  0  0  0  0
  139.8143   67.1286  226.7084 H   0  0  0  0  0  0  0  0  0  0  0  0
  139.1070   67.8642  224.4690 H   0  0  0  0  0  0  0  0  0  0  0  0
  139.9372   71.8638  218.3114 H   0  0  0  0  0  0  0  0  0  0  0  0
  140.3984   73.2642  219.2573 H   0  0  0  0  0  0  0  0  0  0  0  0
  142.3271   70.9677  218.5043 H   0  0  0  0  0  0  0  0  0  0  0  0
  142.2039   72.4793  217.5698 H   0  0  0  0  0  0  0  0  0  0  0  0
  1  2  1  0
  2  3  1  0
  3  4  2  0
  3  5  1  0
  5  6  1  0
  6  7  2  0
  7  8  1  0
  8  9  2  0
  9 10  1  0
 10 11  2  0
  5 12  1  0
 12 13  1  0
 13 14  1  0
 14 15  1  0
 15 16  1  0
 16 17  2  0
 16 18  1  0
 18 19  1  0
 18 20  1  0
 20 21  1  0
 21 22  2  0
 22 23  1  0
 23 24  2  0
 24 25  1  0
 25 26  2  0
 26 27  1  0
 27 28  2  0
 28 29  1  0
 29 30  2  0
 15 31  1  0
 31 32  1  0
 11  6  1  0
 32 12  1  0
 30 21  1  0
 29 24  1  0
  1 33  1  0
  1 34  1  0
  1 35  1  0
  2 36  1  0
  2 37  1  0
  7 38  1  0
  8 39  1  0
  9 40  1  0
 10 41  1  0
 11 42  1  0
 12 43  1  0
 13 44  1  0
 13 45  1  0
 14 46  1  0
 14 47  1  0
 18 48  1  1
 19 49  1  0
 19 50  1  0
 20 51  1  0
 20 52  1  0
 22 53  1  0
 25 54  1  0
 26 55  1  0
 27 56  1  0
 28 57  1  0
 30 58  1  0
 31 59  1  0
 31 60  1  0
 32 61  1  0
 32 62  1  0
M  END
>  <smiles>  (18) 
CCC(=O)N(c1ccccc1)C1CCN(C(=O)[C@H](N)Cc2cnc3ccccc3c2)CC1

>  <score_type>  (18) 
oracle

>  <origin>  (18) 
autodockgpu

>  <m_score__min__energy>  (18) 
-8.8699999999999992

>  <m_primary>  (18) 
energy

>  <rmsd>  (18) 
8.37347177038878

>  <m_score__min__rmsd>  (18) 
8.37347177038878

>  <meeko>  (18) 
{"free_energy": -7.96, "intermolecular_energy": -10.35, "internal_energy": -2.45, "cluster_size": 6, "cluster_id": 3, "rank_in_cluster": 4}

>  <energy>  (18) 
-8.24

>  <cluster_rmsd>  (18) 
1.47

>  <cluster>  (18) 
1

$$$$

     RDKit          3D

 62 65  0  0  0  0  0  0  0  0999 V2000
  146.2840   73.0490  221.6340 C   0  0  0  0  0  0  0  0  0  0  0  0
  146.0330   74.0010  220.4930 C   0  0  0  0  0  0  0  0  0  0  0  0
  145.2770   73.3720  219.3670 C   0  0  0  0  0  0  0  0  0  0  0  0
  145.9390   72.5650  218.6520 O   0  0  0  0  0  0  0  0  0  0  0  0
  143.9120   73.6780  219.1400 N   0  0  0  0  0  0  0  0  0  0  0  0
  143.6040   75.0230  218.6990 C   0  0  0  0  0  0  0  0  0  0  0  0
  143.2080   75.9280  219.6900 C   0  0  0  0  0  0  0  0  0  0  0  0
  142.9120   77.2260  219.2610 C   0  0  0  0  0  0  0  0  0  0  0  0
  143.0050   77.5950  217.9320 C   0  0  0  0  0  0  0  0  0  0  0  0
  143.3990   76.6820  216.9750 C   0  0  0  0  0  0  0  0  0  0  0  0
  143.6930   75.4010  217.3880 C   0  0  0  0  0  0  0  0  0  0  0  0
  142.8690   72.6890  219.3420 C   0  0  0  0  0  0  0  0  0  0  0  0
  141.5880   72.9760  218.6570 C   0  0  0  0  0  0  0  0  0  0  0  0
  140.4520   73.4760  219.4910 C   0  0  0  0  0  0  0  0  0  0  0  0
  140.4950   72.9510  220.8390 N   0  0  0  0  0  0  0  0  0  0  0  0
  139.8450   73.4640  221.9540 C   0  0  0  0  0  0  0  0  0  0  0  0
  139.9960   72.8650  223.0830 O   0  0  0  0  0  0  0  0  0  0  0  0
  138.9720   74.6570  222.0010 C   0  0  2  0  0  0  0  0  0  0  0  0
  137.5570   74.2350  222.0900 N   0  0  0  0  0  0  0  0  0  0  0  0
  139.0840   75.5510  220.7960 C   0  0  0  0  0  0  0  0  0  0  0  0
  139.7990   76.8090  221.0740 C   0  0  0  0  0  0  0  0  0  0  0  0
  139.7690   77.7890  220.1000 C   0  0  0  0  0  0  0  0  0  0  0  0
  140.4160   78.9430  220.3370 N   0  0  0  0  0  0  0  0  0  0  0  0
  141.0950   79.2110  221.4680 C   0  0  0  0  0  0  0  0  0  0  0  0
  141.7190   80.4440  221.5900 C   0  0  0  0  0  0  0  0  0  0  0  0
  142.4010   80.6730  222.7640 C   0  0  0  0  0  0  0  0  0  0  0  0
  142.4680   79.7380  223.7720 C   0  0  0  0  0  0  0  0  0  0  0  0
  141.8410   78.5010  223.6490 C   0  0  0  0  0  0  0  0  0  0  0  0
  141.1540   78.2620  222.4740 C   0  0  0  0  0  0  0  0  0  0  0  0
  140.4930   77.0680  222.2400 C   0  0  0  0  0  0  0  0  0  0  0  0
  141.3470   71.7470  220.9900 C   0  0  0  0  0  0  0  0  0  0  0  0
  142.7460   72.2880  220.7870 C   0  0  0  0  0  0  0  0  0  0  0  0
  146.1449   73.5766  222.5891 H   0  0  0  0  0  0  0  0  0  0  0  0
  145.5767   72.2088  221.5729 H   0  0  0  0  0  0  0  0  0  0  0  0
  147.3136   72.6667  221.5729 H   0  0  0  0  0  0  0  0  0  0  0  0
  145.4535   74.8564  220.8704 H   0  0  0  0  0  0  0  0  0  0  0  0
  147.0125   74.3118  220.1005 H   0  0  0  0  0  0  0  0  0  0  0  0
  143.1336   75.6350  220.7476 H   0  0  0  0  0  0  0  0  0  0  0  0
  142.5961   77.9747  220.0024 H   0  0  0  0  0  0  0  0  0  0  0  0
  142.7627   78.6259  217.6345 H   0  0  0  0  0  0  0  0  0  0  0  0
  143.4759   76.9681  215.9157 H   0  0  0  0  0  0  0  0  0  0  0  0
  144.0092   74.6592  216.6398 H   0  0  0  0  0  0  0  0  0  0  0  0
  143.2072   71.7872  218.8107 H   0  0  0  0  0  0  0  0  0  0  0  0
  141.7898   73.7353  217.8871 H   0  0  0  0  0  0  0  0  0  0  0  0
  141.2486   71.9998  218.2805 H   0  0  0  0  0  0  0  0  0  0  0  0
  140.5012   74.5740  219.5361 H   0  0  0  0  0  0  0  0  0  0  0  0
  139.5147   73.1378  219.0251 H   0  0  0  0  0  0  0  0  0  0  0  0
  139.3050   75.2248  222.8823 H   0  0  0  0  0  0  0  0  0  0  0  0
  137.3370   73.7690  222.9770 H   0  0  0  0  0  0  0  0  0  0  0  0
  137.2820   73.7070  221.2390 H   0  0  0  0  0  0  0  0  0  0  0  0
  139.6245   75.0083  220.0065 H   0  0  0  0  0  0  0  0  0  0  0  0
  138.0618   75.8159  220.4880 H   0  0  0  0  0  0  0  0  0  0  0  0
  139.2294   77.6287  219.1550 H   0  0  0  0  0  0  0  0  0  0  0  0
  141.6714   81.1987  220.7912 H   0  0  0  0  0  0  0  0  0  0  0  0
  142.9107   81.6380  222.9014 H   0  0  0  0  0  0  0  0  0  0  0  0
  143.0264   79.9721  224.6903 H   0  0  0  0  0  0  0  0  0  0  0  0
  141.8902   77.7487  224.4500 H   0  0  0  0  0  0  0  0  0  0  0  0
  140.5218   76.2906  223.0177 H   0  0  0  0  0  0  0  0  0  0  0  0
  141.2353   71.3075  221.9922 H   0  0  0  0  0  0  0  0  0  0  0  0
  141.0880   70.9432  220.2852 H   0  0  0  0  0  0  0  0  0  0  0  0
  142.9086   73.1621  221.4347 H   0  0  0  0  0  0  0  0  0  0  0  0
  143.4974   71.5268  221.0438 H   0  0  0  0  0  0  0  0  0  0  0  0
  1  2  1  0
  2  3  1  0
  3  4  2  0
  3  5  1  0
  5  6  1  0
  6  7  2  0
  7  8  1  0
  8  9  2  0
  9 10  1  0
 10 11  2  0
  5 12  1  0
 12 13  1  0
 13 14  1  0
 14 15  1  0
 15 16  1  0
 16 17  2  0
 16 18  1  0
 18 19  1  0
 18 20  1  0
 20 21  1  0
 21 22  2  0
 22 23  1  0
 23 24  2  0
 24 25  1  0
 25 26  2  0
 26 27  1  0
 27 28  2  0
 28 29  1  0
 29 30  2  0
 15 31  1  0
 31 32  1  0
 11  6  1  0
 32 12  1  0
 30 21  1  0
 29 24  1  0
  1 33  1  0
  1 34  1  0
  1 35  1  0
  2 36  1  0
  2 37  1  0
  7 38  1  0
  8 39  1  0
  9 40  1  0
 10 41  1  0
 11 42  1  0
 12 43  1  0
 13 44  1  0
 13 45  1  0
 14 46  1  0
 14 47  1  0
 18 48  1  1
 19 49  1  0
 19 50  1  0
 20 51  1  0
 20 52  1  0
 22 53  1  0
 25 54  1  0
 26 55  1  0
 27 56  1  0
 28 57  1  0
 30 58  1  0
 31 59  1  0
 31 60  1  0
 32 61  1  0
 32 62  1  0
M  END
>  <smiles>  (19) 
CCC(=O)N(c1ccccc1)C1CCN(C(=O)[C@H](N)Cc2cnc3ccccc3c2)CC1

>  <score_type>  (19) 
oracle

>  <origin>  (19) 
autodockgpu

>  <m_score__min__energy>  (19) 
-8.8699999999999992

>  <m_primary>  (19) 
energy

>  <rmsd>  (19) 
6.513281232139586

>  <m_score__min__rmsd>  (19) 
6.513281232139586

>  <meeko>  (19) 
{"free_energy": -7.78, "intermolecular_energy": -10.16, "internal_energy": -2.59, "cluster_size": 7, "cluster_id": 5, "rank_in_cluster": 2}

>  <energy>  (19) 
-8.21

>  <cluster_rmsd>  (19) 
1.69

>  <cluster>  (19) 
1

$$$$

     RDKit          3D

 62 65  0  0  0  0  0  0  0  0999 V2000
  136.7820   77.7020  222.6490 C   0  0  0  0  0  0  0  0  0  0  0  0
  138.2230   78.1420  222.7040 C   0  0  0  0  0  0  0  0  0  0  0  0
  139.1820   77.0230  222.4470 C   0  0  0  0  0  0  0  0  0  0  0  0
  138.8330   75.8940  222.8980 O   0  0  0  0  0  0  0  0  0  0  0  0
  140.3930   77.2440  221.7440 N   0  0  0  0  0  0  0  0  0  0  0  0
  141.1570   78.4200  222.1030 C   0  0  0  0  0  0  0  0  0  0  0  0
  141.5300   78.5360  223.4460 C   0  0  0  0  0  0  0  0  0  0  0  0
  142.2690   79.6730  223.7890 C   0  0  0  0  0  0  0  0  0  0  0  0
  142.6120   80.6300  222.8530 C   0  0  0  0  0  0  0  0  0  0  0  0
  142.2310   80.4910  221.5330 C   0  0  0  0  0  0  0  0  0  0  0  0
  141.5040   79.3730  221.1860 C   0  0  0  0  0  0  0  0  0  0  0  0
  140.8450   76.3320  220.7100 C   0  0  0  0  0  0  0  0  0  0  0  0
  139.7790   75.7930  219.8350 C   0  0  0  0  0  0  0  0  0  0  0  0
  139.3440   74.3810  220.0590 C   0  0  0  0  0  0  0  0  0  0  0  0
  140.4250   73.5490  220.5450 N   0  0  0  0  0  0  0  0  0  0  0  0
  140.3090   72.3250  221.1910 C   0  0  0  0  0  0  0  0  0  0  0  0
  141.3840   71.7190  221.5560 O   0  0  0  0  0  0  0  0  0  0  0  0
  139.0560   71.6120  221.5230 C   0  0  2  0  0  0  0  0  0  0  0  0
  138.2950   72.3850  222.5280 N   0  0  0  0  0  0  0  0  0  0  0  0
  139.2620   70.2370  222.0950 C   0  0  0  0  0  0  0  0  0  0  0  0
  139.4610   70.2410  223.5550 C   0  0  0  0  0  0  0  0  0  0  0  0
  138.7310   69.3370  224.3020 C   0  0  0  0  0  0  0  0  0  0  0  0
  138.9010   69.3280  225.6360 N   0  0  0  0  0  0  0  0  0  0  0  0
  139.7410   70.1450  226.2970 C   0  0  0  0  0  0  0  0  0  0  0  0
  139.8260   70.0330  227.6770 C   0  0  0  0  0  0  0  0  0  0  0  0
  140.6990   70.8900  228.3100 C   0  0  0  0  0  0  0  0  0  0  0  0
  141.4540   71.8130  227.6220 C   0  0  0  0  0  0  0  0  0  0  0  0
  141.3690   71.9240  226.2370 C   0  0  0  0  0  0  0  0  0  0  0  0
  140.4950   71.0690  225.5940 C   0  0  0  0  0  0  0  0  0  0  0  0
  140.3280   71.0890  224.2190 C   0  0  0  0  0  0  0  0  0  0  0  0
  141.7740   74.1180  220.3120 C   0  0  0  0  0  0  0  0  0  0  0  0
  141.8110   75.3090  221.2460 C   0  0  0  0  0  0  0  0  0  0  0  0
  136.3954   77.5840  223.6720 H   0  0  0  0  0  0  0  0  0  0  0  0
  136.1874   78.4595  222.1174 H   0  0  0  0  0  0  0  0  0  0  0  0
  136.7119   76.7415  222.1174 H   0  0  0  0  0  0  0  0  0  0  0  0
  138.3814   78.9218  221.9445 H   0  0  0  0  0  0  0  0  0  0  0  0
  138.4160   78.5162  223.7202 H   0  0  0  0  0  0  0  0  0  0  0  0
  141.2571   77.7748  224.1917 H   0  0  0  0  0  0  0  0  0  0  0  0
  142.5861   79.8092  224.8335 H   0  0  0  0  0  0  0  0  0  0  0  0
  143.1940   81.5107  223.1623 H   0  0  0  0  0  0  0  0  0  0  0  0
  142.4994   81.2488  220.7822 H   0  0  0  0  0  0  0  0  0  0  0  0
  141.1932   79.2432  220.1388 H   0  0  0  0  0  0  0  0  0  0  0  0
  141.4220   76.9461  220.0030 H   0  0  0  0  0  0  0  0  0  0  0  0
  138.8940   76.4336  219.9628 H   0  0  0  0  0  0  0  0  0  0  0  0
  140.2207   75.7912  218.8276 H   0  0  0  0  0  0  0  0  0  0  0  0
  138.5303   74.3736  220.7992 H   0  0  0  0  0  0  0  0  0  0  0  0
  139.0092   73.9724  219.0941 H   0  0  0  0  0  0  0  0  0  0  0  0
  138.5197   71.5090  220.5681 H   0  0  0  0  0  0  0  0  0  0  0  0
  138.7200   73.2950  222.7340 H   0  0  0  0  0  0  0  0  0  0  0  0
  138.0940   71.7970  223.3600 H   0  0  0  0  0  0  0  0  0  0  0  0
  138.3770   69.6259  221.8642 H   0  0  0  0  0  0  0  0  0  0  0  0
  140.1762   69.8270  221.6410 H   0  0  0  0  0  0  0  0  0  0  0  0
  138.0287   68.6423  223.8181 H   0  0  0  0  0  0  0  0  0  0  0  0
  139.2278   69.2986  228.2363 H   0  0  0  0  0  0  0  0  0  0  0  0
  140.7964   70.8349  229.4043 H   0  0  0  0  0  0  0  0  0  0  0  0
  142.1362   72.4743  228.1763 H   0  0  0  0  0  0  0  0  0  0  0  0
  141.9698   72.6584  225.6805 H   0  0  0  0  0  0  0  0  0  0  0  0
  140.9111   71.8116  223.6292 H   0  0  0  0  0  0  0  0  0  0  0  0
  142.5587   73.3909  220.5681 H   0  0  0  0  0  0  0  0  0  0  0  0
  141.9537   74.3875  219.2608 H   0  0  0  0  0  0  0  0  0  0  0  0
  141.5102   75.0021  222.2586 H   0  0  0  0  0  0  0  0  0  0  0  0
  142.8271   75.7266  221.3026 H   0  0  0  0  0  0  0  0  0  0  0  0
  1  2  1  0
  2  3  1  0
  3  4  2  0
  3  5  1  0
  5  6  1  0
  6  7  2  0
  7  8  1  0
  8  9  2  0
  9 10  1  0
 10 11  2  0
  5 12  1  0
 12 13  1  0
 13 14  1  0
 14 15  1  0
 15 16  1  0
 16 17  2  0
 16 18  1  0
 18 19  1  0
 18 20  1  0
 20 21  1  0
 21 22  2  0
 22 23  1  0
 23 24  2  0
 24 25  1  0
 25 26  2  0
 26 27  1  0
 27 28  2  0
 28 29  1  0
 29 30  2  0
 15 31  1  0
 31 32  1  0
 11  6  1  0
 32 12  1  0
 30 21  1  0
 29 24  1  0
  1 33  1  0
  1 34  1  0
  1 35  1  0
  2 36  1  0
  2 37  1  0
  7 38  1  0
  8 39  1  0
  9 40  1  0
 10 41  1  0
 11 42  1  0
 12 43  1  0
 13 44  1  0
 13 45  1  0
 14 46  1  0
 14 47  1  0
 18 48  1  6
 19 49  1  0
 19 50  1  0
 20 51  1  0
 20 52  1  0
 22 53  1  0
 25 54  1  0
 26 55  1  0
 27 56  1  0
 28 57  1  0
 30 58  1  0
 31 59  1  0
 31 60  1  0
 32 61  1  0
 32 62  1  0
M  END
>  <smiles>  (20) 
CCC(=O)N(c1ccccc1)C1CCN(C(=O)[C@H](N)Cc2cnc3ccccc3c2)CC1

>  <score_type>  (20) 
oracle

>  <origin>  (20) 
autodockgpu

>  <m_score__min__energy>  (20) 
-8.8699999999999992

>  <m_primary>  (20) 
energy

>  <rmsd>  (20) 
7.069760178331735

>  <m_score__min__rmsd>  (20) 
7.069760178331735

>  <meeko>  (20) 
{"free_energy": -8.47, "intermolecular_energy": -10.86, "internal_energy": -1.96, "cluster_size": 25, "cluster_id": 1, "rank_in_cluster": 6}

>  <energy>  (20) 
-8.18

>  <cluster_rmsd>  (20) 
1.81

>  <cluster>  (20) 
1

$$$$

     RDKit          3D

 62 65  0  0  0  0  0  0  0  0999 V2000
  137.8510   79.1770  223.0680 C   0  0  0  0  0  0  0  0  0  0  0  0
  137.7210   78.0310  222.0980 C   0  0  0  0  0  0  0  0  0  0  0  0
  138.7150   76.9420  222.3470 C   0  0  0  0  0  0  0  0  0  0  0  0
  138.3020   75.9790  223.0550 O   0  0  0  0  0  0  0  0  0  0  0  0
  140.0270   77.0130  221.8130 N   0  0  0  0  0  0  0  0  0  0  0  0
  140.8380   78.1460  222.2080 C   0  0  0  0  0  0  0  0  0  0  0  0
  141.0430   79.1340  221.2400 C   0  0  0  0  0  0  0  0  0  0  0  0
  141.8260   80.2260  221.6250 C   0  0  0  0  0  0  0  0  0  0  0  0
  142.3690   80.3260  222.8930 C   0  0  0  0  0  0  0  0  0  0  0  0
  142.1500   79.3360  223.8300 C   0  0  0  0  0  0  0  0  0  0  0  0
  141.3790   78.2560  223.4600 C   0  0  0  0  0  0  0  0  0  0  0  0
  140.5330   75.9960  220.9100 C   0  0  0  0  0  0  0  0  0  0  0  0
  139.5120   75.3480  220.0560 C   0  0  0  0  0  0  0  0  0  0  0  0
  139.0790   73.9640  220.4200 C   0  0  0  0  0  0  0  0  0  0  0  0
  140.1450   73.2080  221.0430 N   0  0  0  0  0  0  0  0  0  0  0  0
  140.0110   72.0630  221.8190 C   0  0  0  0  0  0  0  0  0  0  0  0
  141.0740   71.5170  222.2960 O   0  0  0  0  0  0  0  0  0  0  0  0
  138.7510   71.3750  222.1740 C   0  0  2  0  0  0  0  0  0  0  0  0
  138.2460   71.8970  223.4630 N   0  0  0  0  0  0  0  0  0  0  0  0
  138.8840   69.8850  222.3310 C   0  0  0  0  0  0  0  0  0  0  0  0
  139.2090   69.4740  223.7080 C   0  0  0  0  0  0  0  0  0  0  0  0
  138.8090   68.2130  224.1090 C   0  0  0  0  0  0  0  0  0  0  0  0
  139.0980   67.8230  225.3630 N   0  0  0  0  0  0  0  0  0  0  0  0
  139.7540   68.5810  226.2590 C   0  0  0  0  0  0  0  0  0  0  0  0
  139.9910   68.0590  227.5230 C   0  0  0  0  0  0  0  0  0  0  0  0
  140.6670   68.8720  228.4060 C   0  0  0  0  0  0  0  0  0  0  0  0
  141.0910   70.1360  228.0670 C   0  0  0  0  0  0  0  0  0  0  0  0
  140.8540   70.6600  226.7990 C   0  0  0  0  0  0  0  0  0  0  0  0
  140.1760   69.8520  225.9060 C   0  0  0  0  0  0  0  0  0  0  0  0
  139.8840   70.2660  224.6170 C   0  0  0  0  0  0  0  0  0  0  0  0
  141.4970   73.7650  220.8050 C   0  0  0  0  0  0  0  0  0  0  0  0
  141.4830   75.0540  221.5990 C   0  0  0  0  0  0  0  0  0  0  0  0
  137.8074   78.7926  224.0977 H   0  0  0  0  0  0  0  0  0  0  0  0
  138.8127   79.6862  222.9071 H   0  0  0  0  0  0  0  0  0  0  0  0
  137.0278   79.8887  222.9071 H   0  0  0  0  0  0  0  0  0  0  0  0
  136.7089   77.6093  222.1866 H   0  0  0  0  0  0  0  0  0  0  0  0
  137.9123   78.4283  221.0903 H   0  0  0  0  0  0  0  0  0  0  0  0
  140.6118   79.0562  220.2310 H   0  0  0  0  0  0  0  0  0  0  0  0
  142.0159   81.0294  220.8981 H   0  0  0  0  0  0  0  0  0  0  0  0
  142.9804   81.2015  223.1571 H   0  0  0  0  0  0  0  0  0  0  0  0
  142.5779   79.4074  224.8408 H   0  0  0  0  0  0  0  0  0  0  0  0
  141.1926   77.4577  224.1934 H   0  0  0  0  0  0  0  0  0  0  0  0
  141.1364   76.5339  220.1640 H   0  0  0  0  0  0  0  0  0  0  0  0
  138.6169   75.9871  220.0715 H   0  0  0  0  0  0  0  0  0  0  0  0
  139.9982   75.2386  219.0754 H   0  0  0  0  0  0  0  0  0  0  0  0
  138.2335   74.0292  221.1207 H   0  0  0  0  0  0  0  0  0  0  0  0
  138.7900   73.4442  219.4946 H   0  0  0  0  0  0  0  0  0  0  0  0
  138.0675   71.5718  221.3349 H   0  0  0  0  0  0  0  0  0  0  0  0
  137.4570   72.5410  223.3480 H   0  0  0  0  0  0  0  0  0  0  0  0
  139.0300   72.2620  224.0380 H   0  0  0  0  0  0  0  0  0  0  0  0
  137.9318   69.4164  222.0417 H   0  0  0  0  0  0  0  0  0  0  0  0
  139.7156   69.5611  221.6879 H   0  0  0  0  0  0  0  0  0  0  0  0
  138.2687   67.5464  223.4207 H   0  0  0  0  0  0  0  0  0  0  0  0
  139.6567   67.0496  227.8047 H   0  0  0  0  0  0  0  0  0  0  0  0
  140.8753   68.4969  229.4189 H   0  0  0  0  0  0  0  0  0  0  0  0
  141.6269   70.7436  228.8110 H   0  0  0  0  0  0  0  0  0  0  0  0
  141.1906   71.6697  226.5210 H   0  0  0  0  0  0  0  0  0  0  0  0
  140.2038   71.2705  224.3028 H   0  0  0  0  0  0  0  0  0  0  0  0
  142.2760   73.0820  221.1748 H   0  0  0  0  0  0  0  0  0  0  0  0
  141.7201   73.9169  219.7386 H   0  0  0  0  0  0  0  0  0  0  0  0
  141.1408   74.8593  222.6261 H   0  0  0  0  0  0  0  0  0  0  0  0
  142.4919   75.4891  221.6515 H   0  0  0  0  0  0  0  0  0  0  0  0
  1  2  1  0
  2  3  1  0
  3  4  2  0
  3  5  1  0
  5  6  1  0
  6  7  2  0
  7  8  1  0
  8  9  2  0
  9 10  1  0
 10 11  2  0
  5 12  1  0
 12 13  1  0
 13 14  1  0
 14 15  1  0
 15 16  1  0
 16 17  2  0
 16 18  1  0
 18 19  1  0
 18 20  1  0
 20 21  1  0
 21 22  2  0
 22 23  1  0
 23 24  2  0
 24 25  1  0
 25 26  2  0
 26 27  1  0
 27 28  2  0
 28 29  1  0
 29 30  2  0
 15 31  1  0
 31 32  1  0
 11  6  1  0
 32 12  1  0
 30 21  1  0
 29 24  1  0
  1 33  1  0
  1 34  1  0
  1 35  1  0
  2 36  1  0
  2 37  1  0
  7 38  1  0
  8 39  1  0
  9 40  1  0
 10 41  1  0
 11 42  1  0
 12 43  1  0
 13 44  1  0
 13 45  1  0
 14 46  1  0
 14 47  1  0
 18 48  1  6
 19 49  1  0
 19 50  1  0
 20 51  1  0
 20 52  1  0
 22 53  1  0
 25 54  1  0
 26 55  1  0
 27 56  1  0
 28 57  1  0
 30 58  1  0
 31 59  1  0
 31 60  1  0
 32 61  1  0
 32 62  1  0
M  END
>  <smiles>  (21) 
CCC(=O)N(c1ccccc1)C1CCN(C(=O)[C@H](N)Cc2cnc3ccccc3c2)CC1

>  <score_type>  (21) 
oracle

>  <origin>  (21) 
autodockgpu

>  <m_score__min__energy>  (21) 
-8.8699999999999992

>  <m_primary>  (21) 
energy

>  <rmsd>  (21) 
7.589508660883976

>  <m_score__min__rmsd>  (21) 
7.589508660883976

>  <meeko>  (21) 
{"free_energy": -8.87, "intermolecular_energy": -11.26, "internal_energy": -1.39, "cluster_size": 25, "cluster_id": 1, "rank_in_cluster": 1}

>  <energy>  (21) 
-8.16

>  <cluster_rmsd>  (21) 
1.44

>  <cluster>  (21) 
1

$$$$

     RDKit          3D

 62 65  0  0  0  0  0  0  0  0999 V2000
  145.9980   73.1300  221.6370 C   0  0  0  0  0  0  0  0  0  0  0  0
  146.2270   73.7610  220.2870 C   0  0  0  0  0  0  0  0  0  0  0  0
  145.3560   73.1800  219.2190 C   0  0  0  0  0  0  0  0  0  0  0  0
  145.9380   72.4060  218.4050 O   0  0  0  0  0  0  0  0  0  0  0  0
  143.9760   73.4940  219.1480 N   0  0  0  0  0  0  0  0  0  0  0  0
  143.6280   74.8510  218.7790 C   0  0  0  0  0  0  0  0  0  0  0  0
  143.6700   75.1560  217.4150 C   0  0  0  0  0  0  0  0  0  0  0  0
  143.3330   76.4670  217.0620 C   0  0  0  0  0  0  0  0  0  0  0  0
  142.9780   77.4100  218.0090 C   0  0  0  0  0  0  0  0  0  0  0  0
  142.9440   77.0810  219.3490 C   0  0  0  0  0  0  0  0  0  0  0  0
  143.2740   75.7920  219.7060 C   0  0  0  0  0  0  0  0  0  0  0  0
  142.9570   72.5010  219.4340 C   0  0  0  0  0  0  0  0  0  0  0  0
  141.6810   72.6810  218.7040 C   0  0  0  0  0  0  0  0  0  0  0  0
  140.5170   73.2300  219.4660 C   0  0  0  0  0  0  0  0  0  0  0  0
  140.5510   72.8460  220.8610 N   0  0  0  0  0  0  0  0  0  0  0  0
  139.8670   73.4510  221.9080 C   0  0  0  0  0  0  0  0  0  0  0  0
  140.0140   72.9740  223.0940 O   0  0  0  0  0  0  0  0  0  0  0  0
  138.9610   74.6170  221.8200 C   0  0  2  0  0  0  0  0  0  0  0  0
  137.6560   74.1920  221.2690 N   0  0  0  0  0  0  0  0  0  0  0  0
  139.4670   75.7250  220.9370 C   0  0  0  0  0  0  0  0  0  0  0  0
  139.7730   76.9610  221.6790 C   0  0  0  0  0  0  0  0  0  0  0  0
  138.7330   77.5790  222.3470 C   0  0  0  0  0  0  0  0  0  0  0  0
  138.9950   78.7080  223.0290 N   0  0  0  0  0  0  0  0  0  0  0  0
  140.2110   79.2800  223.1060 C   0  0  0  0  0  0  0  0  0  0  0  0
  140.3490   80.4460  223.8460 C   0  0  0  0  0  0  0  0  0  0  0  0
  141.6110   80.9940  223.8970 C   0  0  0  0  0  0  0  0  0  0  0  0
  142.6870   80.4270  223.2540 C   0  0  0  0  0  0  0  0  0  0  0  0
  142.5490   79.2560  222.5120 C   0  0  0  0  0  0  0  0  0  0  0  0
  141.2850   78.6990  222.4550 C   0  0  0  0  0  0  0  0  0  0  0  0
  141.0280   77.5370  221.7480 C   0  0  0  0  0  0  0  0  0  0  0  0
  141.4310   71.6890  221.1460 C   0  0  0  0  0  0  0  0  0  0  0  0
  142.8190   72.2460  220.9100 C   0  0  0  0  0  0  0  0  0  0  0  0
  146.2591   73.8495  222.4271 H   0  0  0  0  0  0  0  0  0  0  0  0
  144.9396   72.8465  221.7344 H   0  0  0  0  0  0  0  0  0  0  0  0
  146.6282   72.2337  221.7344 H   0  0  0  0  0  0  0  0  0  0  0  0
  146.0183   74.8384  220.3629 H   0  0  0  0  0  0  0  0  0  0  0  0
  147.2719   73.5660  220.0039 H   0  0  0  0  0  0  0  0  0  0  0  0
  143.9525   74.4064  216.6611 H   0  0  0  0  0  0  0  0  0  0  0  0
  143.3509   76.7560  216.0008 H   0  0  0  0  0  0  0  0  0  0  0  0
  142.7205   78.4313  217.6916 H   0  0  0  0  0  0  0  0  0  0  0  0
  142.6621   77.8251  220.1085 H   0  0  0  0  0  0  0  0  0  0  0  0
  143.2521   75.5111  220.7693 H   0  0  0  0  0  0  0  0  0  0  0  0
  143.3286   71.5596  219.0030 H   0  0  0  0  0  0  0  0  0  0  0  0
  141.8761   73.3644  217.8644 H   0  0  0  0  0  0  0  0  0  0  0  0
  141.3747   71.6625  218.4230 H   0  0  0  0  0  0  0  0  0  0  0  0
  140.5353   74.3278  219.3996 H   0  0  0  0  0  0  0  0  0  0  0  0
  139.5976   72.8192  219.0234 H   0  0  0  0  0  0  0  0  0  0  0  0
  138.8852   75.0039  222.8469 H   0  0  0  0  0  0  0  0  0  0  0  0
  137.0080   73.8630  221.9920 H   0  0  0  0  0  0  0  0  0  0  0  0
  137.7940   73.5390  220.4740 H   0  0  0  0  0  0  0  0  0  0  0  0
  140.3837   75.3818  220.4351 H   0  0  0  0  0  0  0  0  0  0  0  0
  138.6686   75.9626  220.2186 H   0  0  0  0  0  0  0  0  0  0  0  0
  137.7170   77.1582  222.3215 H   0  0  0  0  0  0  0  0  0  0  0  0
  139.4956   80.9077  224.3641 H   0  0  0  0  0  0  0  0  0  0  0  0
  141.7645   81.9187  224.4727 H   0  0  0  0  0  0  0  0  0  0  0  0
  143.6741   80.9069  223.3271 H   0  0  0  0  0  0  0  0  0  0  0  0
  143.4050   78.7965  221.9961 H   0  0  0  0  0  0  0  0  0  0  0  0
  141.8595   77.0501  221.2173 H   0  0  0  0  0  0  0  0  0  0  0  0
  141.3132   71.3501  222.1858 H   0  0  0  0  0  0  0  0  0  0  0  0
  141.2060   70.8111  220.5226 H   0  0  0  0  0  0  0  0  0  0  0  0
  142.9467   73.1857  221.4674 H   0  0  0  0  0  0  0  0  0  0  0  0
  143.5857   71.5366  221.2547 H   0  0  0  0  0  0  0  0  0  0  0  0
  1  2  1  0
  2  3  1  0
  3  4  2  0
  3  5  1  0
  5  6  1  0
  6  7  2  0
  7  8  1  0
  8  9  2  0
  9 10  1  0
 10 11  2  0
  5 12  1  0
 12 13  1  0
 13 14  1  0
 14 15  1  0
 15 16  1  0
 16 17  2  0
 16 18  1  0
 18 19  1  0
 18 20  1  0
 20 21  1  0
 21 22  2  0
 22 23  1  0
 23 24  2  0
 24 25  1  0
 25 26  2  0
 26 27  1  0
 27 28  2  0
 28 29  1  0
 29 30  2  0
 15 31  1  0
 31 32  1  0
 11  6  1  0
 32 12  1  0
 30 21  1  0
 29 24  1  0
  1 33  1  0
  1 34  1  0
  1 35  1  0
  2 36  1  0
  2 37  1  0
  7 38  1  0
  8 39  1  0
  9 40  1  0
 10 41  1  0
 11 42  1  0
 12 43  1  0
 13 44  1  0
 13 45  1  0
 14 46  1  0
 14 47  1  0
 18 48  1  1
 19 49  1  0
 19 50  1  0
 20 51  1  0
 20 52  1  0
 22 53  1  0
 25 54  1  0
 26 55  1  0
 27 56  1  0
 28 57  1  0
 30 58  1  0
 31 59  1  0
 31 60  1  0
 32 61  1  0
 32 62  1  0
M  END
>  <smiles>  (22) 
CCC(=O)N(c1ccccc1)C1CCN(C(=O)[C@H](N)Cc2cnc3ccccc3c2)CC1

>  <score_type>  (22) 
oracle

>  <origin>  (22) 
autodockgpu

>  <m_score__min__energy>  (22) 
-8.8699999999999992

>  <m_primary>  (22) 
energy

>  <rmsd>  (22) 
6.714237552649931

>  <m_score__min__rmsd>  (22) 
6.714237552649931

>  <meeko>  (22) 
{"free_energy": -7.68, "intermolecular_energy": -10.06, "internal_energy": -2.4, "cluster_size": 7, "cluster_id": 5, "rank_in_cluster": 5}

>  <energy>  (22) 
-8.16

>  <cluster_rmsd>  (22) 
1.89

>  <cluster>  (22) 
1

$$$$

     RDKit          3D

 62 65  0  0  0  0  0  0  0  0999 V2000
  146.6840   73.3930  221.9140 C   0  0  0  0  0  0  0  0  0  0  0  0
  145.3850   73.5770  221.1720 C   0  0  0  0  0  0  0  0  0  0  0  0
  145.3470   72.8340  219.8740 C   0  0  0  0  0  0  0  0  0  0  0  0
  146.2880   73.0940  219.0710 O   0  0  0  0  0  0  0  0  0  0  0  0
  144.3120   71.9070  219.5920 N   0  0  0  0  0  0  0  0  0  0  0  0
  144.6870   70.5120  219.4950 C   0  0  0  0  0  0  0  0  0  0  0  0
  145.9450   70.2410  218.9460 C   0  0  0  0  0  0  0  0  0  0  0  0
  146.3040   68.8930  218.8540 C   0  0  0  0  0  0  0  0  0  0  0  0
  145.4640   67.8820  219.2800 C   0  0  0  0  0  0  0  0  0  0  0  0
  144.2270   68.1770  219.8180 C   0  0  0  0  0  0  0  0  0  0  0  0
  143.8650   69.5030  219.9140 C   0  0  0  0  0  0  0  0  0  0  0  0
  142.9380   72.3370  219.4080 C   0  0  0  0  0  0  0  0  0  0  0  0
  142.1800   72.5740  220.6580 C   0  0  0  0  0  0  0  0  0  0  0  0
  141.1770   71.5430  221.0670 C   0  0  0  0  0  0  0  0  0  0  0  0
  140.5800   70.8830  219.9250 N   0  0  0  0  0  0  0  0  0  0  0  0
  139.9110   69.6650  219.9230 C   0  0  0  0  0  0  0  0  0  0  0  0
  139.4400   69.2250  218.8090 O   0  0  0  0  0  0  0  0  0  0  0  0
  139.6690   68.7840  221.0860 C   0  0  2  0  0  0  0  0  0  0  0  0
  139.2340   67.4500  220.6180 N   0  0  0  0  0  0  0  0  0  0  0  0
  138.6060   69.2830  222.0270 C   0  0  0  0  0  0  0  0  0  0  0  0
  139.0380   69.2910  223.4360 C   0  0  0  0  0  0  0  0  0  0  0  0
  138.8120   68.1480  224.1790 C   0  0  0  0  0  0  0  0  0  0  0  0
  139.2010   68.1390  225.4660 N   0  0  0  0  0  0  0  0  0  0  0  0
  139.7990   69.1740  226.0840 C   0  0  0  0  0  0  0  0  0  0  0  0
  140.1530   69.0350  227.4180 C   0  0  0  0  0  0  0  0  0  0  0  0
  140.7630   70.1210  228.0070 C   0  0  0  0  0  0  0  0  0  0  0  0
  141.0140   71.2860  227.3210 C   0  0  0  0  0  0  0  0  0  0  0  0
  140.6600   71.4250  225.9820 C   0  0  0  0  0  0  0  0  0  0  0  0
  140.0470   70.3410  225.3820 C   0  0  0  0  0  0  0  0  0  0  0  0
  139.6500   70.3640  224.0560 C   0  0  0  0  0  0  0  0  0  0  0  0
  140.7400   71.6210  218.6500 C   0  0  0  0  0  0  0  0  0  0  0  0
  142.2250   71.5110  218.3730 C   0  0  0  0  0  0  0  0  0  0  0  0
  146.4945   73.4198  222.9972 H   0  0  0  0  0  0  0  0  0  0  0  0
  147.1268   72.4232  221.6431 H   0  0  0  0  0  0  0  0  0  0  0  0
  147.3787   74.2017  221.6431 H   0  0  0  0  0  0  0  0  0  0  0  0
  144.5632   73.2157  221.8077 H   0  0  0  0  0  0  0  0  0  0  0  0
  145.2840   74.6481  220.9429 H   0  0  0  0  0  0  0  0  0  0  0  0
  146.6148   71.0444  218.6055 H   0  0  0  0  0  0  0  0  0  0  0  0
  147.2842   68.6294  218.4300 H   0  0  0  0  0  0  0  0  0  0  0  0
  145.7834   66.8333  219.1898 H   0  0  0  0  0  0  0  0  0  0  0  0
  143.5518   67.3785  220.1592 H   0  0  0  0  0  0  0  0  0  0  0  0
  142.8839   69.7578  220.3412 H   0  0  0  0  0  0  0  0  0  0  0  0
  142.9962   73.3525  218.9893 H   0  0  0  0  0  0  0  0  0  0  0  0
  142.9117   72.6630  221.4745 H   0  0  0  0  0  0  0  0  0  0  0  0
  141.5851   73.4770  220.4563 H   0  0  0  0  0  0  0  0  0  0  0  0
  141.6779   70.7884  221.6913 H   0  0  0  0  0  0  0  0  0  0  0  0
  140.3752   72.0512  221.6228 H   0  0  0  0  0  0  0  0  0  0  0  0
  140.6241   68.7550  221.6309 H   0  0  0  0  0  0  0  0  0  0  0  0
  140.0200   66.8180  220.4360 H   0  0  0  0  0  0  0  0  0  0  0  0
  138.5560   67.5440  219.8370 H   0  0  0  0  0  0  0  0  0  0  0  0
  138.3364   70.3095  221.7378 H   0  0  0  0  0  0  0  0  0  0  0  0
  137.7511   68.5951  221.9502 H   0  0  0  0  0  0  0  0  0  0  0  0
  138.3268   67.2690  223.7295 H   0  0  0  0  0  0  0  0  0  0  0  0
  139.9572   68.1074  227.9758 H   0  0  0  0  0  0  0  0  0  0  0  0
  141.0599   70.0536  229.0640 H   0  0  0  0  0  0  0  0  0  0  0  0
  141.5035   72.1234  227.8398 H   0  0  0  0  0  0  0  0  0  0  0  0
  140.8587   72.3539  225.4273 H   0  0  0  0  0  0  0  0  0  0  0  0
  139.8297   71.2771  223.4695 H   0  0  0  0  0  0  0  0  0  0  0  0
  140.1527   71.1527  217.8464 H   0  0  0  0  0  0  0  0  0  0  0  0
  140.3865   72.6612  218.7054 H   0  0  0  0  0  0  0  0  0  0  0  0
  142.5441   70.4608  218.4450 H   0  0  0  0  0  0  0  0  0  0  0  0
  142.4589   71.8710  217.3602 H   0  0  0  0  0  0  0  0  0  0  0  0
  1  2  1  0
  2  3  1  0
  3  4  2  0
  3  5  1  0
  5  6  1  0
  6  7  2  0
  7  8  1  0
  8  9  2  0
  9 10  1  0
 10 11  2  0
  5 12  1  0
 12 13  1  0
 13 14  1  0
 14 15  1  0
 15 16  1  0
 16 17  2  0
 16 18  1  0
 18 19  1  0
 18 20  1  0
 20 21  1  0
 21 22  2  0
 22 23  1  0
 23 24  2  0
 24 25  1  0
 25 26  2  0
 26 27  1  0
 27 28  2  0
 28 29  1  0
 29 30  2  0
 15 31  1  0
 31 32  1  0
 11  6  1  0
 32 12  1  0
 30 21  1  0
 29 24  1  0
  1 33  1  0
  1 34  1  0
  1 35  1  0
  2 36  1  0
  2 37  1  0
  7 38  1  0
  8 39  1  0
  9 40  1  0
 10 41  1  0
 11 42  1  0
 12 43  1  0
 13 44  1  0
 13 45  1  0
 14 46  1  0
 14 47  1  0
 18 48  1  1
 19 49  1  0
 19 50  1  0
 20 51  1  0
 20 52  1  0
 22 53  1  0
 25 54  1  0
 26 55  1  0
 27 56  1  0
 28 57  1  0
 30 58  1  0
 31 59  1  0
 31 60  1  0
 32 61  1  0
 32 62  1  0
M  END
>  <smiles>  (23) 
CCC(=O)N(c1ccccc1)C1CCN(C(=O)[C@H](N)Cc2cnc3ccccc3c2)CC1

>  <score_type>  (23) 
oracle

>  <origin>  (23) 
autodockgpu

>  <m_score__min__energy>  (23) 
-8.8699999999999992

>  <m_primary>  (23) 
energy

>  <rmsd>  (23) 
8.974782365831595

>  <m_score__min__rmsd>  (23) 
8.974782365831595

>  <meeko>  (23) 
{"free_energy": -8.03, "intermolecular_energy": -10.42, "internal_energy": -2.51, "cluster_size": 6, "cluster_id": 3, "rank_in_cluster": 3}

>  <energy>  (23) 
-8.16

>  <cluster_rmsd>  (23) 
1.98

>  <cluster>  (23) 
1

$$$$

     RDKit          3D

 62 65  0  0  0  0  0  0  0  0999 V2000
  146.6650   73.4090  221.7140 C   0  0  0  0  0  0  0  0  0  0  0  0
  145.2830   73.0400  221.2410 C   0  0  0  0  0  0  0  0  0  0  0  0
  145.2800   72.4290  219.8760 C   0  0  0  0  0  0  0  0  0  0  0  0
  146.2370   72.7730  219.1240 O   0  0  0  0  0  0  0  0  0  0  0  0
  144.2590   71.5280  219.4800 N   0  0  0  0  0  0  0  0  0  0  0  0
  144.6430   70.1470  219.2760 C   0  0  0  0  0  0  0  0  0  0  0  0
  145.6320   69.9100  218.3150 C   0  0  0  0  0  0  0  0  0  0  0  0
  146.0000   68.5750  218.1220 C   0  0  0  0  0  0  0  0  0  0  0  0
  145.4200   67.5450  218.8390 C   0  0  0  0  0  0  0  0  0  0  0  0
  144.4470   67.8070  219.7810 C   0  0  0  0  0  0  0  0  0  0  0  0
  144.0770   69.1200  219.9800 C   0  0  0  0  0  0  0  0  0  0  0  0
  142.8910   71.9710  219.2860 C   0  0  0  0  0  0  0  0  0  0  0  0
  142.1950   72.4230  220.5120 C   0  0  0  0  0  0  0  0  0  0  0  0
  141.1840   71.5020  221.1160 C   0  0  0  0  0  0  0  0  0  0  0  0
  140.5190   70.6950  220.1150 N   0  0  0  0  0  0  0  0  0  0  0  0
  139.8170   69.5150  220.3290 C   0  0  0  0  0  0  0  0  0  0  0  0
  139.2860   68.9250  219.3160 O   0  0  0  0  0  0  0  0  0  0  0  0
  139.6020   68.8330  221.6230 C   0  0  2  0  0  0  0  0  0  0  0  0
  139.0760   67.4710  221.3870 N   0  0  0  0  0  0  0  0  0  0  0  0
  138.6230   69.5260  222.5310 C   0  0  0  0  0  0  0  0  0  0  0  0
  139.1030   69.6410  223.9200 C   0  0  0  0  0  0  0  0  0  0  0  0
  138.8140   68.6010  224.7830 C   0  0  0  0  0  0  0  0  0  0  0  0
  139.2460   68.6890  226.0530 N   0  0  0  0  0  0  0  0  0  0  0  0
  139.9440   69.7290  226.5440 C   0  0  0  0  0  0  0  0  0  0  0  0
  140.3320   69.6970  227.8760 C   0  0  0  0  0  0  0  0  0  0  0  0
  141.0460   70.7820  228.3340 C   0  0  0  0  0  0  0  0  0  0  0  0
  141.3650   71.8480  227.5240 C   0  0  0  0  0  0  0  0  0  0  0  0
  140.9770   71.8800  226.1880 C   0  0  0  0  0  0  0  0  0  0  0  0
  140.2590   70.7950  225.7200 C   0  0  0  0  0  0  0  0  0  0  0  0
  139.8200   70.7160  224.4090 C   0  0  0  0  0  0  0  0  0  0  0  0
  140.6420   71.2220  218.7360 C   0  0  0  0  0  0  0  0  0  0  0  0
  142.1090   71.0200  218.4200 C   0  0  0  0  0  0  0  0  0  0  0  0
  146.6867   73.4148  222.8138 H   0  0  0  0  0  0  0  0  0  0  0  0
  147.3903   72.6731  221.3368 H   0  0  0  0  0  0  0  0  0  0  0  0
  146.9269   74.4085  221.3368 H   0  0  0  0  0  0  0  0  0  0  0  0
  144.8503   72.3185  221.9497 H   0  0  0  0  0  0  0  0  0  0  0  0
  144.6928   73.9668  221.1896 H   0  0  0  0  0  0  0  0  0  0  0  0
  146.0942   70.7283  217.7433 H   0  0  0  0  0  0  0  0  0  0  0  0
  146.7740   68.3371  217.3775 H   0  0  0  0  0  0  0  0  0  0  0  0
  145.7372   66.5076  218.6567 H   0  0  0  0  0  0  0  0  0  0  0  0
  143.9807   66.9933  220.3558 H   0  0  0  0  0  0  0  0  0  0  0  0
  143.3031   69.3486  220.7276 H   0  0  0  0  0  0  0  0  0  0  0  0
  142.9604   72.9075  218.7131 H   0  0  0  0  0  0  0  0  0  0  0  0
  142.9639   72.6130  221.2753 H   0  0  0  0  0  0  0  0  0  0  0  0
  141.6157   73.3027  220.1949 H   0  0  0  0  0  0  0  0  0  0  0  0
  141.6917   70.8360  221.8292 H   0  0  0  0  0  0  0  0  0  0  0  0
  140.4221   72.1163  221.6182 H   0  0  0  0  0  0  0  0  0  0  0  0
  140.5855   68.8318  222.1156 H   0  0  0  0  0  0  0  0  0  0  0  0
  139.3410   67.0960  220.4700 H   0  0  0  0  0  0  0  0  0  0  0  0
  138.0600   67.4330  221.5980 H   0  0  0  0  0  0  0  0  0  0  0  0
  138.4383   70.5373  222.1397 H   0  0  0  0  0  0  0  0  0  0  0  0
  137.7067   68.9177  222.5503 H   0  0  0  0  0  0  0  0  0  0  0  0
  138.2454   67.7242  224.4397 H   0  0  0  0  0  0  0  0  0  0  0  0
  140.0824   68.8496  228.5315 H   0  0  0  0  0  0  0  0  0  0  0  0
  141.3728   70.7971  229.3842 H   0  0  0  0  0  0  0  0  0  0  0  0
  141.9372   72.6902  227.9403 H   0  0  0  0  0  0  0  0  0  0  0  0
  141.2296   72.7284  225.5351 H   0  0  0  0  0  0  0  0  0  0  0  0
  140.0526   71.5465  223.7262 H   0  0  0  0  0  0  0  0  0  0  0  0
  140.0065   70.6561  218.0390 H   0  0  0  0  0  0  0  0  0  0  0  0
  140.3204   72.2699  218.6436 H   0  0  0  0  0  0  0  0  0  0  0  0
  142.4018   69.9829  218.6408 H   0  0  0  0  0  0  0  0  0  0  0  0
  142.3070   71.2120  217.3551 H   0  0  0  0  0  0  0  0  0  0  0  0
  1  2  1  0
  2  3  1  0
  3  4  2  0
  3  5  1  0
  5  6  1  0
  6  7  2  0
  7  8  1  0
  8  9  2  0
  9 10  1  0
 10 11  2  0
  5 12  1  0
 12 13  1  0
 13 14  1  0
 14 15  1  0
 15 16  1  0
 16 17  2  0
 16 18  1  0
 18 19  1  0
 18 20  1  0
 20 21  1  0
 21 22  2  0
 22 23  1  0
 23 24  2  0
 24 25  1  0
 25 26  2  0
 26 27  1  0
 27 28  2  0
 28 29  1  0
 29 30  2  0
 15 31  1  0
 31 32  1  0
 11  6  1  0
 32 12  1  0
 30 21  1  0
 29 24  1  0
  1 33  1  0
  1 34  1  0
  1 35  1  0
  2 36  1  0
  2 37  1  0
  7 38  1  0
  8 39  1  0
  9 40  1  0
 10 41  1  0
 11 42  1  0
 12 43  1  0
 13 44  1  0
 13 45  1  0
 14 46  1  0
 14 47  1  0
 18 48  1  1
 19 49  1  0
 19 50  1  0
 20 51  1  0
 20 52  1  0
 22 53  1  0
 25 54  1  0
 26 55  1  0
 27 56  1  0
 28 57  1  0
 30 58  1  0
 31 59  1  0
 31 60  1  0
 32 61  1  0
 32 62  1  0
M  END
>  <smiles>  (24) 
CCC(=O)N(c1ccccc1)C1CCN(C(=O)[C@H](N)Cc2cnc3ccccc3c2)CC1

>  <score_type>  (24) 
oracle

>  <origin>  (24) 
autodockgpu

>  <m_score__min__energy>  (24) 
-8.8699999999999992

>  <m_primary>  (24) 
energy

>  <rmsd>  (24) 
9.10236048858875

>  <m_score__min__rmsd>  (24) 
9.10236048858875

>  <meeko>  (24) 
{"free_energy": -7.94, "intermolecular_energy": -10.32, "internal_energy": -2.49, "cluster_size": 6, "cluster_id": 3, "rank_in_cluster": 5}

>  <energy>  (24) 
-8.05

>  <cluster_rmsd>  (24) 
1.96

>  <cluster>  (24) 
1

$$$$

     RDKit          3D

 62 65  0  0  0  0  0  0  0  0999 V2000
  146.2820   73.0650  221.5910 C   0  0  0  0  0  0  0  0  0  0  0  0
  146.0120   74.0410  220.4750 C   0  0  0  0  0  0  0  0  0  0  0  0
  145.2570   73.4300  219.3380 C   0  0  0  0  0  0  0  0  0  0  0  0
  145.9210   72.6400  218.6070 O   0  0  0  0  0  0  0  0  0  0  0  0
  143.8900   73.7360  219.1190 N   0  0  0  0  0  0  0  0  0  0  0  0
  143.5780   75.0820  218.6870 C   0  0  0  0  0  0  0  0  0  0  0  0
  143.6780   75.3360  217.3150 C   0  0  0  0  0  0  0  0  0  0  0  0
  143.3750   76.6370  216.9020 C   0  0  0  0  0  0  0  0  0  0  0  0
  142.9970   77.6190  217.7980 C   0  0  0  0  0  0  0  0  0  0  0  0
  142.9050   77.3410  219.1470 C   0  0  0  0  0  0  0  0  0  0  0  0
  143.2010   76.0620  219.5640 C   0  0  0  0  0  0  0  0  0  0  0  0
  142.8500   72.7440  219.3200 C   0  0  0  0  0  0  0  0  0  0  0  0
  141.5650   73.0320  218.6430 C   0  0  0  0  0  0  0  0  0  0  0  0
  140.4320   73.5250  219.4840 C   0  0  0  0  0  0  0  0  0  0  0  0
  140.4820   72.9930  220.8290 N   0  0  0  0  0  0  0  0  0  0  0  0
  139.8360   73.4990  221.9500 C   0  0  0  0  0  0  0  0  0  0  0  0
  139.9940   72.8950  223.0750 O   0  0  0  0  0  0  0  0  0  0  0  0
  138.9610   74.6900  222.0070 C   0  0  2  0  0  0  0  0  0  0  0  0
  137.5470   74.2650  222.0920 N   0  0  0  0  0  0  0  0  0  0  0  0
  139.0720   75.5950  220.8100 C   0  0  0  0  0  0  0  0  0  0  0  0
  139.7990   76.8440  221.0950 C   0  0  0  0  0  0  0  0  0  0  0  0
  139.8140   77.8140  220.1100 C   0  0  0  0  0  0  0  0  0  0  0  0
  140.4730   78.9600  220.3540 N   0  0  0  0  0  0  0  0  0  0  0  0
  141.1230   79.2300  221.5010 C   0  0  0  0  0  0  0  0  0  0  0  0
  141.7640   80.4540  221.6280 C   0  0  0  0  0  0  0  0  0  0  0  0
  142.4160   80.6850  222.8190 C   0  0  0  0  0  0  0  0  0  0  0  0
  142.4380   79.7600  223.8380 C   0  0  0  0  0  0  0  0  0  0  0  0
  141.7940   78.5320  223.7110 C   0  0  0  0  0  0  0  0  0  0  0  0
  141.1380   78.2910  222.5180 C   0  0  0  0  0  0  0  0  0  0  0  0
  140.4640   77.1060  222.2780 C   0  0  0  0  0  0  0  0  0  0  0  0
  141.3370   71.7910  220.9700 C   0  0  0  0  0  0  0  0  0  0  0  0
  142.7350   72.3350  220.7640 C   0  0  0  0  0  0  0  0  0  0  0  0
  146.1429   73.5678  222.5595 H   0  0  0  0  0  0  0  0  0  0  0  0
  145.5845   72.2179  221.5141 H   0  0  0  0  0  0  0  0  0  0  0  0
  147.3157   72.6969  221.5141 H   0  0  0  0  0  0  0  0  0  0  0  0
  145.4240   74.8795  220.8765 H   0  0  0  0  0  0  0  0  0  0  0  0
  146.9851   74.3736  220.0845 H   0  0  0  0  0  0  0  0  0  0  0  0
  143.9784   74.5554  216.6006 H   0  0  0  0  0  0  0  0  0  0  0  0
  143.4394   76.8862  215.8325 H   0  0  0  0  0  0  0  0  0  0  0  0
  142.7674   78.6310  217.4330 H   0  0  0  0  0  0  0  0  0  0  0  0
  142.6046   78.1168  219.8667 H   0  0  0  0  0  0  0  0  0  0  0  0
  143.1321   75.8212  220.6351 H   0  0  0  0  0  0  0  0  0  0  0  0
  143.1871   71.8460  218.7815 H   0  0  0  0  0  0  0  0  0  0  0  0
  141.7616   73.7958  217.8762 H   0  0  0  0  0  0  0  0  0  0  0  0
  141.2259   72.0568  218.2636 H   0  0  0  0  0  0  0  0  0  0  0  0
  140.4791   74.6228  219.5346 H   0  0  0  0  0  0  0  0  0  0  0  0
  139.4934   73.1873  219.0203 H   0  0  0  0  0  0  0  0  0  0  0  0
  139.2928   75.2506  222.8933 H   0  0  0  0  0  0  0  0  0  0  0  0
  137.3330   73.7710  222.9640 H   0  0  0  0  0  0  0  0  0  0  0  0
  137.2660   73.7660  221.2260 H   0  0  0  0  0  0  0  0  0  0  0  0
  139.6025   75.0557  220.0114 H   0  0  0  0  0  0  0  0  0  0  0  0
  138.0498   75.8713  220.5120 H   0  0  0  0  0  0  0  0  0  0  0  0
  139.2998   77.6522  219.1511 H   0  0  0  0  0  0  0  0  0  0  0  0
  141.7521   81.2005  220.8201 H   0  0  0  0  0  0  0  0  0  0  0  0
  142.9378   81.6429  222.9609 H   0  0  0  0  0  0  0  0  0  0  0  0
  142.9739   79.9951  224.7694 H   0  0  0  0  0  0  0  0  0  0  0  0
  141.8066   77.7886  224.5217 H   0  0  0  0  0  0  0  0  0  0  0  0
  140.4573   76.3375  223.0650 H   0  0  0  0  0  0  0  0  0  0  0  0
  141.2303   71.3461  221.9703 H   0  0  0  0  0  0  0  0  0  0  0  0
  141.0767   70.9908  220.2615 H   0  0  0  0  0  0  0  0  0  0  0  0
  142.8996   73.2057  221.4158 H   0  0  0  0  0  0  0  0  0  0  0  0
  143.4889   71.5738  221.0135 H   0  0  0  0  0  0  0  0  0  0  0  0
  1  2  1  0
  2  3  1  0
  3  4  2  0
  3  5  1  0
  5  6  1  0
  6  7  2  0
  7  8  1  0
  8  9  2  0
  9 10  1  0
 10 11  2  0
  5 12  1  0
 12 13  1  0
 13 14  1  0
 14 15  1  0
 15 16  1  0
 16 17  2  0
 16 18  1  0
 18 19  1  0
 18 20  1  0
 20 21  1  0
 21 22  2  0
 22 23  1  0
 23 24  2  0
 24 25  1  0
 25 26  2  0
 26 27  1  0
 27 28  2  0
 28 29  1  0
 29 30  2  0
 15 31  1  0
 31 32  1  0
 11  6  1  0
 32 12  1  0
 30 21  1  0
 29 24  1  0
  1 33  1  0
  1 34  1  0
  1 35  1  0
  2 36  1  0
  2 37  1  0
  7 38  1  0
  8 39  1  0
  9 40  1  0
 10 41  1  0
 11 42  1  0
 12 43  1  0
 13 44  1  0
 13 45  1  0
 14 46  1  0
 14 47  1  0
 18 48  1  1
 19 49  1  0
 19 50  1  0
 20 51  1  0
 20 52  1  0
 22 53  1  0
 25 54  1  0
 26 55  1  0
 27 56  1  0
 28 57  1  0
 30 58  1  0
 31 59  1  0
 31 60  1  0
 32 61  1  0
 32 62  1  0
M  END
>  <smiles>  (25) 
CCC(=O)N(c1ccccc1)C1CCN(C(=O)[C@H](N)Cc2cnc3ccccc3c2)CC1

>  <score_type>  (25) 
oracle

>  <origin>  (25) 
autodockgpu

>  <m_score__min__energy>  (25) 
-8.8699999999999992

>  <m_primary>  (25) 
energy

>  <rmsd>  (25) 
6.495188380560101

>  <m_score__min__rmsd>  (25) 
6.495188380560101

>  <meeko>  (25) 
{"free_energy": -7.77, "intermolecular_energy": -10.15, "internal_energy": -2.54, "cluster_size": 7, "cluster_id": 5, "rank_in_cluster": 4}

>  <energy>  (25) 
-8.05

>  <cluster_rmsd>  (25) 
1.68

>  <cluster>  (25) 
1

$$$$

     RDKit          3D

 62 65  0  0  0  0  0  0  0  0999 V2000
  142.9530   77.3080  217.5210 C   0  0  0  0  0  0  0  0  0  0  0  0
  142.5160   78.1910  218.6620 C   0  0  0  0  0  0  0  0  0  0  0  0
  142.2160   77.4220  219.9100 C   0  0  0  0  0  0  0  0  0  0  0  0
  142.9200   76.3870  220.0930 O   0  0  0  0  0  0  0  0  0  0  0  0
  141.2050   77.8490  220.8070 N   0  0  0  0  0  0  0  0  0  0  0  0
  141.5300   78.9490  221.6900 C   0  0  0  0  0  0  0  0  0  0  0  0
  141.8270   78.6180  223.0160 C   0  0  0  0  0  0  0  0  0  0  0  0
  142.1420   79.6830  223.8660 C   0  0  0  0  0  0  0  0  0  0  0  0
  142.1580   80.9920  223.4220 C   0  0  0  0  0  0  0  0  0  0  0  0
  141.8620   81.2910  222.1070 C   0  0  0  0  0  0  0  0  0  0  0  0
  141.5510   80.2480  221.2620 C   0  0  0  0  0  0  0  0  0  0  0  0
  139.9020   77.2100  220.8400 C   0  0  0  0  0  0  0  0  0  0  0  0
  139.5060   76.6560  222.1550 C   0  0  0  0  0  0  0  0  0  0  0  0
  139.5780   75.1740  222.3340 C   0  0  0  0  0  0  0  0  0  0  0  0
  139.3230   74.4640  221.0990 N   0  0  0  0  0  0  0  0  0  0  0  0
  139.6580   73.1470  220.8100 C   0  0  0  0  0  0  0  0  0  0  0  0
  139.3520   72.6740  219.6530 O   0  0  0  0  0  0  0  0  0  0  0  0
  140.3490   72.1910  221.7040 C   0  0  2  0  0  0  0  0  0  0  0  0
  141.3290   71.4030  220.9260 N   0  0  0  0  0  0  0  0  0  0  0  0
  139.4340   71.2050  222.3780 C   0  0  0  0  0  0  0  0  0  0  0  0
  139.8210   70.9170  223.7700 C   0  0  0  0  0  0  0  0  0  0  0  0
  140.5440   71.8820  224.4450 C   0  0  0  0  0  0  0  0  0  0  0  0
  140.9040   71.6350  225.7170 N   0  0  0  0  0  0  0  0  0  0  0  0
  140.6060   70.5030  226.3810 C   0  0  0  0  0  0  0  0  0  0  0  0
  141.0360   70.3720  227.6940 C   0  0  0  0  0  0  0  0  0  0  0  0
  140.7070   69.1970  228.3330 C   0  0  0  0  0  0  0  0  0  0  0  0
  139.9900   68.1980  227.7160 C   0  0  0  0  0  0  0  0  0  0  0  0
  139.5580   68.3300  226.3990 C   0  0  0  0  0  0  0  0  0  0  0  0
  139.8840   69.5060  225.7490 C   0  0  0  0  0  0  0  0  0  0  0  0
  139.5080   69.7480  224.4380 C   0  0  0  0  0  0  0  0  0  0  0  0
  138.6420   75.2780  220.0650 C   0  0  0  0  0  0  0  0  0  0  0  0
  139.6990   76.2870  219.6690 C   0  0  0  0  0  0  0  0  0  0  0  0
  143.4075   76.3897  217.9213 H   0  0  0  0  0  0  0  0  0  0  0  0
  142.0802   77.0466  216.9046 H   0  0  0  0  0  0  0  0  0  0  0  0
  143.6902   77.8434  216.9046 H   0  0  0  0  0  0  0  0  0  0  0  0
  143.3200   78.9102  218.8774 H   0  0  0  0  0  0  0  0  0  0  0  0
  141.5884   78.6952  218.3533 H   0  0  0  0  0  0  0  0  0  0  0  0
  141.8136   77.5769  223.3710 H   0  0  0  0  0  0  0  0  0  0  0  0
  142.3840   79.4729  224.9183 H   0  0  0  0  0  0  0  0  0  0  0  0
  142.4087   81.8023  224.1223 H   0  0  0  0  0  0  0  0  0  0  0  0
  141.8741   82.3297  221.7451 H   0  0  0  0  0  0  0  0  0  0  0  0
  141.3122   80.4667  220.2107 H   0  0  0  0  0  0  0  0  0  0  0  0
  139.1690   78.0200  220.7111 H   0  0  0  0  0  0  0  0  0  0  0  0
  140.1599   77.1108  222.9136 H   0  0  0  0  0  0  0  0  0  0  0  0
  138.4364   76.8958  222.2473 H   0  0  0  0  0  0  0  0  0  0  0  0
  140.5827   74.9086  222.6949 H   0  0  0  0  0  0  0  0  0  0  0  0
  138.8038   74.8821  223.0589 H   0  0  0  0  0  0  0  0  0  0  0  0
  140.8194   72.8098  222.4823 H   0  0  0  0  0  0  0  0  0  0  0  0
  141.1980   71.4930  219.9130 H   0  0  0  0  0  0  0  0  0  0  0  0
  141.3690   70.4270  221.2770 H   0  0  0  0  0  0  0  0  0  0  0  0
  138.4137   71.6160  222.3760 H   0  0  0  0  0  0  0  0  0  0  0  0
  139.4983   70.2609  221.8172 H   0  0  0  0  0  0  0  0  0  0  0  0
  140.8180   72.8277  223.9546 H   0  0  0  0  0  0  0  0  0  0  0  0
  141.6091   71.1644  228.1976 H   0  0  0  0  0  0  0  0  0  0  0  0
  141.0293   69.0521  229.3747 H   0  0  0  0  0  0  0  0  0  0  0  0
  139.7540   67.2791  228.2728 H   0  0  0  0  0  0  0  0  0  0  0  0
  138.9842   67.5358  225.8990 H   0  0  0  0  0  0  0  0  0  0  0  0
  138.9347   68.9754  223.9047 H   0  0  0  0  0  0  0  0  0  0  0  0
  138.3468   74.6579  219.2057 H   0  0  0  0  0  0  0  0  0  0  0  0
  137.7132   75.7444  220.4252 H   0  0  0  0  0  0  0  0  0  0  0  0
  140.6404   75.7708  219.4296 H   0  0  0  0  0  0  0  0  0  0  0  0
  139.3826   76.8519  218.7798 H   0  0  0  0  0  0  0  0  0  0  0  0
  1  2  1  0
  2  3  1  0
  3  4  2  0
  3  5  1  0
  5  6  1  0
  6  7  2  0
  7  8  1  0
  8  9  2  0
  9 10  1  0
 10 11  2  0
  5 12  1  0
 12 13  1  0
 13 14  1  0
 14 15  1  0
 15 16  1  0
 16 17  2  0
 16 18  1  0
 18 19  1  0
 18 20  1  0
 20 21  1  0
 21 22  2  0
 22 23  1  0
 23 24  2  0
 24 25  1  0
 25 26  2  0
 26 27  1  0
 27 28  2  0
 28 29  1  0
 29 30  2  0
 15 31  1  0
 31 32  1  0
 11  6  1  0
 32 12  1  0
 30 21  1  0
 29 24  1  0
  1 33  1  0
  1 34  1  0
  1 35  1  0
  2 36  1  0
  2 37  1  0
  7 38  1  0
  8 39  1  0
  9 40  1  0
 10 41  1  0
 11 42  1  0
 12 43  1  0
 13 44  1  0
 13 45  1  0
 14 46  1  0
 14 47  1  0
 18 48  1  1
 19 49  1  0
 19 50  1  0
 20 51  1  0
 20 52  1  0
 22 53  1  0
 25 54  1  0
 26 55  1  0
 27 56  1  0
 28 57  1  0
 30 58  1  0
 31 59  1  0
 31 60  1  0
 32 61  1  0
 32 62  1  0
M  END
>  <smiles>  (26) 
CCC(=O)N(c1ccccc1)C1CCN(C(=O)[C@H](N)Cc2cnc3ccccc3c2)CC1

>  <score_type>  (26) 
oracle

>  <origin>  (26) 
autodockgpu

>  <m_score__min__energy>  (26) 
-8.8699999999999992

>  <m_primary>  (26) 
energy

>  <rmsd>  (26) 
6.532839147884017

>  <m_score__min__rmsd>  (26) 
6.532839147884017

>  <meeko>  (26) 
{"free_energy": -7.87, "intermolecular_energy": -10.25, "internal_energy": -2.19, "cluster_size": 6, "cluster_id": 4, "rank_in_cluster": 1}

>  <energy>  (26) 
-8.4

>  <cluster_rmsd>  (26) 
0.0

>  <cluster>  (26) 
2

$$$$

     RDKit          3D

 62 65  0  0  0  0  0  0  0  0999 V2000
  136.5550   78.4410  222.6860 C   0  0  0  0  0  0  0  0  0  0  0  0
  138.0030   78.6740  223.0310 C   0  0  0  0  0  0  0  0  0  0  0  0
  138.8870   77.5360  222.6300 C   0  0  0  0  0  0  0  0  0  0  0  0
  138.5180   76.3940  223.0300 O   0  0  0  0  0  0  0  0  0  0  0  0
  140.0530   77.7530  221.8540 N   0  0  0  0  0  0  0  0  0  0  0  0
  140.9220   78.8370  222.2620 C   0  0  0  0  0  0  0  0  0  0  0  0
  141.5360   78.7090  223.5120 C   0  0  0  0  0  0  0  0  0  0  0  0
  142.3750   79.7570  223.9020 C   0  0  0  0  0  0  0  0  0  0  0  0
  142.5870   80.8610  223.0970 C   0  0  0  0  0  0  0  0  0  0  0  0
  141.9690   80.9620  221.8670 C   0  0  0  0  0  0  0  0  0  0  0  0
  141.1410   79.9330  221.4740 C   0  0  0  0  0  0  0  0  0  0  0  0
  140.3610   76.9260  220.7020 C   0  0  0  0  0  0  0  0  0  0  0  0
  139.1860   76.3780  219.9880 C   0  0  0  0  0  0  0  0  0  0  0  0
  138.8610   74.9320  220.1930 C   0  0  0  0  0  0  0  0  0  0  0  0
  140.0470   74.1380  220.4330 N   0  0  0  0  0  0  0  0  0  0  0  0
  140.1020   72.8750  221.0110 C   0  0  0  0  0  0  0  0  0  0  0  0
  141.2500   72.3120  221.1480 O   0  0  0  0  0  0  0  0  0  0  0  0
  138.9590   72.0760  221.5040 C   0  0  2  0  0  0  0  0  0  0  0  0
  138.2700   72.8100  222.5880 N   0  0  0  0  0  0  0  0  0  0  0  0
  139.3410   70.7320  222.0620 C   0  0  0  0  0  0  0  0  0  0  0  0
  139.7310   70.7850  223.4820 C   0  0  0  0  0  0  0  0  0  0  0  0
  140.6060   71.7830  223.8670 C   0  0  0  0  0  0  0  0  0  0  0  0
  140.9710   71.8450  225.1590 N   0  0  0  0  0  0  0  0  0  0  0  0
  140.5390   70.9960  226.1100 C   0  0  0  0  0  0  0  0  0  0  0  0
  140.9920   71.1710  227.4090 C   0  0  0  0  0  0  0  0  0  0  0  0
  140.5230   70.2780  228.3480 C   0  0  0  0  0  0  0  0  0  0  0  0
  139.6500   69.2630  228.0270 C   0  0  0  0  0  0  0  0  0  0  0  0
  139.1950   69.0890  226.7230 C   0  0  0  0  0  0  0  0  0  0  0  0
  139.6620   69.9800  225.7750 C   0  0  0  0  0  0  0  0  0  0  0  0
  139.2780   69.9040  224.4460 C   0  0  0  0  0  0  0  0  0  0  0  0
  141.3080   74.7940  220.0120 C   0  0  0  0  0  0  0  0  0  0  0  0
  141.4510   75.9320  221.0000 C   0  0  0  0  0  0  0  0  0  0  0  0
  135.9681   78.3466  223.6116 H   0  0  0  0  0  0  0  0  0  0  0  0
  136.1771   79.2899  222.0973 H   0  0  0  0  0  0  0  0  0  0  0  0
  136.4625   77.5164  222.0973 H   0  0  0  0  0  0  0  0  0  0  0  0
  138.3450   79.5830  222.5146 H   0  0  0  0  0  0  0  0  0  0  0  0
  138.0699   78.7748  224.1243 H   0  0  0  0  0  0  0  0  0  0  0  0
  141.3679   77.8314  224.1535 H   0  0  0  0  0  0  0  0  0  0  0  0
  142.8810   79.7017  224.8772 H   0  0  0  0  0  0  0  0  0  0  0  0
  143.2540   81.6658  223.4398 H   0  0  0  0  0  0  0  0  0  0  0  0
  142.1324   81.8368  221.2205 H   0  0  0  0  0  0  0  0  0  0  0  0
  140.6408   79.9951  220.4963 H   0  0  0  0  0  0  0  0  0  0  0  0
  140.7785   77.6087  219.9473 H   0  0  0  0  0  0  0  0  0  0  0  0
  138.3081   76.9603  220.3044 H   0  0  0  0  0  0  0  0  0  0  0  0
  139.4463   76.4565  218.9221 H   0  0  0  0  0  0  0  0  0  0  0  0
  138.1897   74.8383  221.0594 H   0  0  0  0  0  0  0  0  0  0  0  0
  138.3820   74.5583  219.2760 H   0  0  0  0  0  0  0  0  0  0  0  0
  138.3187   71.9127  220.6246 H   0  0  0  0  0  0  0  0  0  0  0  0
  138.6840   73.7290  222.7700 H   0  0  0  0  0  0  0  0  0  0  0  0
  138.1640   72.2030  223.4250 H   0  0  0  0  0  0  0  0  0  0  0  0
  138.4812   70.0535  221.9603 H   0  0  0  0  0  0  0  0  0  0  0  0
  140.2146   70.3779  221.4951 H   0  0  0  0  0  0  0  0  0  0  0  0
  140.9934   72.5074  223.1355 H   0  0  0  0  0  0  0  0  0  0  0  0
  141.6886   71.9795  227.6756 H   0  0  0  0  0  0  0  0  0  0  0  0
  140.8580   70.3798  229.3908 H   0  0  0  0  0  0  0  0  0  0  0  0
  139.3058   68.5772  228.8151 H   0  0  0  0  0  0  0  0  0  0  0  0
  138.4969   68.2808  226.4595 H   0  0  0  0  0  0  0  0  0  0  0  0
  138.5819   69.1074  224.1447 H   0  0  0  0  0  0  0  0  0  0  0  0
  142.1577   74.0992  220.0846 H   0  0  0  0  0  0  0  0  0  0  0  0
  141.2910   75.1307  218.9649 H   0  0  0  0  0  0  0  0  0  0  0  0
  141.3443   75.5537  222.0274 H   0  0  0  0  0  0  0  0  0  0  0  0
  142.4412   76.4026  220.9099 H   0  0  0  0  0  0  0  0  0  0  0  0
  1  2  1  0
  2  3  1  0
  3  4  2  0
  3  5  1  0
  5  6  1  0
  6  7  2  0
  7  8  1  0
  8  9  2  0
  9 10  1  0
 10 11  2  0
  5 12  1  0
 12 13  1  0
 13 14  1  0
 14 15  1  0
 15 16  1  0
 16 17  2  0
 16 18  1  0
 18 19  1  0
 18 20  1  0
 20 21  1  0
 21 22  2  0
 22 23  1  0
 23 24  2  0
 24 25  1  0
 25 26  2  0
 26 27  1  0
 27 28  2  0
 28 29  1  0
 29 30  2  0
 15 31  1  0
 31 32  1  0
 11  6  1  0
 32 12  1  0
 30 21  1  0
 29 24  1  0
  1 33  1  0
  1 34  1  0
  1 35  1  0
  2 36  1  0
  2 37  1  0
  7 38  1  0
  8 39  1  0
  9 40  1  0
 10 41  1  0
 11 42  1  0
 12 43  1  0
 13 44  1  0
 13 45  1  0
 14 46  1  0
 14 47  1  0
 18 48  1  6
 19 49  1  0
 19 50  1  0
 20 51  1  0
 20 52  1  0
 22 53  1  0
 25 54  1  0
 26 55  1  0
 27 56  1  0
 28 57  1  0
 30 58  1  0
 31 59  1  0
 31 60  1  0
 32 61  1  0
 32 62  1  0
M  END
>  <smiles>  (27) 
CCC(=O)N(c1ccccc1)C1CCN(C(=O)[C@H](N)Cc2cnc3ccccc3c2)CC1

>  <score_type>  (27) 
oracle

>  <origin>  (27) 
autodockgpu

>  <m_score__min__energy>  (27) 
-8.8699999999999992

>  <m_primary>  (27) 
energy

>  <rmsd>  (27) 
6.464347871706638

>  <m_score__min__rmsd>  (27) 
6.464347871706638

>  <meeko>  (27) 
{"free_energy": -8.29, "intermolecular_energy": -10.68, "internal_energy": -1.75, "cluster_size": 25, "cluster_id": 1, "rank_in_cluster": 15}

>  <energy>  (27) 
-8.2

>  <cluster_rmsd>  (27) 
1.15

>  <cluster>  (27) 
2

$$$$

     RDKit          3D

 62 65  0  0  0  0  0  0  0  0999 V2000
  137.8450   78.2060  221.4980 C   0  0  0  0  0  0  0  0  0  0  0  0
  138.3170   77.3960  222.6780 C   0  0  0  0  0  0  0  0  0  0  0  0
  139.3990   76.4270  222.3230 C   0  0  0  0  0  0  0  0  0  0  0  0
  139.2130   75.2380  222.7130 O   0  0  0  0  0  0  0  0  0  0  0  0
  140.5440   76.8420  221.5970 N   0  0  0  0  0  0  0  0  0  0  0  0
  141.1850   78.0680  222.0240 C   0  0  0  0  0  0  0  0  0  0  0  0
  141.5160   78.9810  221.0170 C   0  0  0  0  0  0  0  0  0  0  0  0
  142.1340   80.1650  221.4320 C   0  0  0  0  0  0  0  0  0  0  0  0
  142.4030   80.4200  222.7640 C   0  0  0  0  0  0  0  0  0  0  0  0
  142.0660   79.5020  223.7370 C   0  0  0  0  0  0  0  0  0  0  0  0
  141.4560   78.3320  223.3380 C   0  0  0  0  0  0  0  0  0  0  0  0
  141.0500   76.0720  220.4760 C   0  0  0  0  0  0  0  0  0  0  0  0
  140.0220   75.3490  219.6930 C   0  0  0  0  0  0  0  0  0  0  0  0
  139.9110   73.8710  219.8920 C   0  0  0  0  0  0  0  0  0  0  0  0
  141.1870   73.2680  220.2160 N   0  0  0  0  0  0  0  0  0  0  0  0
  141.3960   72.0290  220.8090 C   0  0  0  0  0  0  0  0  0  0  0  0
  142.6060   71.6490  221.0260 O   0  0  0  0  0  0  0  0  0  0  0  0
  140.3600   71.0640  221.2360 C   0  0  2  0  0  0  0  0  0  0  0  0
  139.5410   70.6660  220.0700 N   0  0  0  0  0  0  0  0  0  0  0  0
  139.4100   71.5970  222.2740 C   0  0  0  0  0  0  0  0  0  0  0  0
  139.7060   71.1100  223.6320 C   0  0  0  0  0  0  0  0  0  0  0  0
  139.3530   69.8090  223.9360 C   0  0  0  0  0  0  0  0  0  0  0  0
  139.6170   69.3490  225.1710 N   0  0  0  0  0  0  0  0  0  0  0  0
  140.2050   70.0750  226.1390 C   0  0  0  0  0  0  0  0  0  0  0  0
  140.4230   69.4800  227.3740 C   0  0  0  0  0  0  0  0  0  0  0  0
  141.0290   70.2620  228.3330 C   0  0  0  0  0  0  0  0  0  0  0  0
  141.4040   71.5640  228.0930 C   0  0  0  0  0  0  0  0  0  0  0  0
  141.1860   72.1600  226.8530 C   0  0  0  0  0  0  0  0  0  0  0  0
  140.5780   71.3830  225.8850 C   0  0  0  0  0  0  0  0  0  0  0  0
  140.3110   71.8690  224.6160 C   0  0  0  0  0  0  0  0  0  0  0  0
  142.3560   74.1100  219.8700 C   0  0  0  0  0  0  0  0  0  0  0  0
  142.2580   75.2570  220.8530 C   0  0  0  0  0  0  0  0  0  0  0  0
  137.3213   79.1047  221.8560 H   0  0  0  0  0  0  0  0  0  0  0  0
  138.7106   78.5045  220.8883 H   0  0  0  0  0  0  0  0  0  0  0  0
  137.1586   77.6001  220.8883 H   0  0  0  0  0  0  0  0  0  0  0  0
  138.7003   78.0844  223.4455 H   0  0  0  0  0  0  0  0  0  0  0  0
  137.4585   76.8131  223.0430 H   0  0  0  0  0  0  0  0  0  0  0  0
  141.3020   78.7788  219.9571 H   0  0  0  0  0  0  0  0  0  0  0  0
  142.4140   80.9146  220.6773 H   0  0  0  0  0  0  0  0  0  0  0  0
  142.8903   81.3636  223.0505 H   0  0  0  0  0  0  0  0  0  0  0  0
  142.2775   79.6976  224.7986 H   0  0  0  0  0  0  0  0  0  0  0  0
  141.1789   77.5883  224.0996 H   0  0  0  0  0  0  0  0  0  0  0  0
  141.4062   76.8115  219.7437 H   0  0  0  0  0  0  0  0  0  0  0  0
  139.0461   75.7891  219.9459 H   0  0  0  0  0  0  0  0  0  0  0  0
  140.3359   75.4664  218.6453 H   0  0  0  0  0  0  0  0  0  0  0  0
  139.2072   73.6757  220.7145 H   0  0  0  0  0  0  0  0  0  0  0  0
  139.5563   73.4279  218.9498 H   0  0  0  0  0  0  0  0  0  0  0  0
  140.9129   70.2219  221.6778 H   0  0  0  0  0  0  0  0  0  0  0  0
  138.9760   69.8290  220.2490 H   0  0  0  0  0  0  0  0  0  0  0  0
  140.1270   70.6240  219.2130 H   0  0  0  0  0  0  0  0  0  0  0  0
  139.4722   72.6952  222.2746 H   0  0  0  0  0  0  0  0  0  0  0  0
  138.4029   71.2418  222.0103 H   0  0  0  0  0  0  0  0  0  0  0  0
  138.8683   69.1662  223.1864 H   0  0  0  0  0  0  0  0  0  0  0  0
  140.1278   68.4398  227.5762 H   0  0  0  0  0  0  0  0  0  0  0  0
  141.2199   69.8299  229.3264 H   0  0  0  0  0  0  0  0  0  0  0  0
  141.8844   72.1444  228.8945 H   0  0  0  0  0  0  0  0  0  0  0  0
  141.4837   73.2000  226.6536 H   0  0  0  0  0  0  0  0  0  0  0  0
  140.5931   72.9058  224.3805 H   0  0  0  0  0  0  0  0  0  0  0  0
  143.2959   73.5545  220.0042 H   0  0  0  0  0  0  0  0  0  0  0  0
  142.3552   74.4395  218.8205 H   0  0  0  0  0  0  0  0  0  0  0  0
  142.1442   74.8672  221.8753 H   0  0  0  0  0  0  0  0  0  0  0  0
  143.1679   75.8743  220.8211 H   0  0  0  0  0  0  0  0  0  0  0  0
  1  2  1  0
  2  3  1  0
  3  4  2  0
  3  5  1  0
  5  6  1  0
  6  7  2  0
  7  8  1  0
  8  9  2  0
  9 10  1  0
 10 11  2  0
  5 12  1  0
 12 13  1  0
 13 14  1  0
 14 15  1  0
 15 16  1  0
 16 17  2  0
 16 18  1  0
 18 19  1  0
 18 20  1  0
 20 21  1  0
 21 22  2  0
 22 23  1  0
 23 24  2  0
 24 25  1  0
 25 26  2  0
 26 27  1  0
 27 28  2  0
 28 29  1  0
 29 30  2  0
 15 31  1  0
 31 32  1  0
 11  6  1  0
 32 12  1  0
 30 21  1  0
 29 24  1  0
  1 33  1  0
  1 34  1  0
  1 35  1  0
  2 36  1  0
  2 37  1  0
  7 38  1  0
  8 39  1  0
  9 40  1  0
 10 41  1  0
 11 42  1  0
 12 43  1  0
 13 44  1  0
 13 45  1  0
 14 46  1  0
 14 47  1  0
 18 48  1  1
 19 49  1  0
 19 50  1  0
 20 51  1  0
 20 52  1  0
 22 53  1  0
 25 54  1  0
 26 55  1  0
 27 56  1  0
 28 57  1  0
 30 58  1  0
 31 59  1  0
 31 60  1  0
 32 61  1  0
 32 62  1  0
M  END
>  <smiles>  (28) 
CCC(=O)N(c1ccccc1)C1CCN(C(=O)[C@H](N)Cc2cnc3ccccc3c2)CC1

>  <score_type>  (28) 
oracle

>  <origin>  (28) 
autodockgpu

>  <m_score__min__energy>  (28) 
-8.8699999999999992

>  <m_primary>  (28) 
energy

>  <rmsd>  (28) 
6.948944541291108

>  <m_score__min__rmsd>  (28) 
6.948944541291108

>  <meeko>  (28) 
{"free_energy": -8.05, "intermolecular_energy": -10.44, "internal_energy": -2.03, "cluster_size": 25, "cluster_id": 1, "rank_in_cluster": 25}

>  <energy>  (28) 
-8.11

>  <cluster_rmsd>  (28) 
0.98

>  <cluster>  (28) 
2

$$$$

     RDKit          3D

 62 65  0  0  0  0  0  0  0  0999 V2000
  146.3660   73.3830  221.8520 C   0  0  0  0  0  0  0  0  0  0  0  0
  145.6750   74.0270  220.6780 C   0  0  0  0  0  0  0  0  0  0  0  0
  145.4480   73.0780  219.5450 C   0  0  0  0  0  0  0  0  0  0  0  0
  146.3110   73.1170  218.6220 O   0  0  0  0  0  0  0  0  0  0  0  0
  144.3300   72.2060  219.5340 N   0  0  0  0  0  0  0  0  0  0  0  0
  144.6050   70.7840  219.5140 C   0  0  0  0  0  0  0  0  0  0  0  0
  145.8340   70.3940  218.9710 C   0  0  0  0  0  0  0  0  0  0  0  0
  146.0960   69.0200  218.9550 C   0  0  0  0  0  0  0  0  0  0  0  0
  145.1920   68.0980  219.4480 C   0  0  0  0  0  0  0  0  0  0  0  0
  143.9870   68.5110  219.9790 C   0  0  0  0  0  0  0  0  0  0  0  0
  143.7200   69.8620  220.0000 C   0  0  0  0  0  0  0  0  0  0  0  0
  142.9710   72.7150  219.5400 C   0  0  0  0  0  0  0  0  0  0  0  0
  142.3770   72.9070  220.8830 C   0  0  0  0  0  0  0  0  0  0  0  0
  141.3710   71.9030  221.3460 C   0  0  0  0  0  0  0  0  0  0  0  0
  140.6090   71.3490  220.2460 N   0  0  0  0  0  0  0  0  0  0  0  0
  139.8760   70.1690  220.2520 C   0  0  0  0  0  0  0  0  0  0  0  0
  139.2560   69.8270  219.1770 O   0  0  0  0  0  0  0  0  0  0  0  0
  139.7200   69.2270  221.3810 C   0  0  2  0  0  0  0  0  0  0  0  0
  139.2970   67.9050  220.8720 N   0  0  0  0  0  0  0  0  0  0  0  0
  138.6950   69.6490  222.3990 C   0  0  0  0  0  0  0  0  0  0  0  0
  139.2740   69.9080  223.7290 C   0  0  0  0  0  0  0  0  0  0  0  0
  139.6730   71.2010  224.0120 C   0  0  0  0  0  0  0  0  0  0  0  0
  140.2020   71.4540  225.2210 N   0  0  0  0  0  0  0  0  0  0  0  0
  140.3720   70.5280  226.1820 C   0  0  0  0  0  0  0  0  0  0  0  0
  140.9300   70.9200  227.3900 C   0  0  0  0  0  0  0  0  0  0  0  0
  141.0840   69.9370  228.3430 C   0  0  0  0  0  0  0  0  0  0  0  0
  140.7070   68.6320  228.1230 C   0  0  0  0  0  0  0  0  0  0  0  0
  140.1460   68.2390  226.9110 C   0  0  0  0  0  0  0  0  0  0  0  0
  139.9890   69.2180  225.9480 C   0  0  0  0  0  0  0  0  0  0  0  0
  139.4420   68.9440  224.7060 C   0  0  0  0  0  0  0  0  0  0  0  0
  140.6630   72.1600  219.0070 C   0  0  0  0  0  0  0  0  0  0  0  0
  142.0970   71.9950  218.5500 C   0  0  0  0  0  0  0  0  0  0  0  0
  145.9430   73.7772  222.7878 H   0  0  0  0  0  0  0  0  0  0  0  0
  146.2174   72.2938  221.8126 H   0  0  0  0  0  0  0  0  0  0  0  0
  147.4420   73.6079  221.8126 H   0  0  0  0  0  0  0  0  0  0  0  0
  144.7011   74.4136  221.0127 H   0  0  0  0  0  0  0  0  0  0  0  0
  146.3295   74.8307  220.3097 H   0  0  0  0  0  0  0  0  0  0  0  0
  146.5542   71.1270  218.5785 H   0  0  0  0  0  0  0  0  0  0  0  0
  147.0492   68.6629  218.5379 H   0  0  0  0  0  0  0  0  0  0  0  0
  145.4351   67.0257  219.4168 H   0  0  0  0  0  0  0  0  0  0  0  0
  143.2621   67.7836  220.3733 H   0  0  0  0  0  0  0  0  0  0  0  0
  142.7651   70.2100  220.4208 H   0  0  0  0  0  0  0  0  0  0  0  0
  143.0387   73.7515  219.1779 H   0  0  0  0  0  0  0  0  0  0  0  0
  143.2019   72.9056  221.6107 H   0  0  0  0  0  0  0  0  0  0  0  0
  141.8154   73.8498  220.8073 H   0  0  0  0  0  0  0  0  0  0  0  0
  141.8968   71.0853  221.8607 H   0  0  0  0  0  0  0  0  0  0  0  0
  140.6689   72.4134  222.0217 H   0  0  0  0  0  0  0  0  0  0  0  0
  140.7033   69.2004  221.8733 H   0  0  0  0  0  0  0  0  0  0  0  0
  139.4610   67.7960  219.8660 H   0  0  0  0  0  0  0  0  0  0  0  0
  138.3290   67.6890  221.1830 H   0  0  0  0  0  0  0  0  0  0  0  0
  138.2074   70.5690  222.0442 H   0  0  0  0  0  0  0  0  0  0  0  0
  137.9804   68.8199  222.5081 H   0  0  0  0  0  0  0  0  0  0  0  0
  139.5603   72.0021  223.2666 H   0  0  0  0  0  0  0  0  0  0  0  0
  141.2335   71.9606  227.5771 H   0  0  0  0  0  0  0  0  0  0  0  0
  141.5242   70.2050  229.3148 H   0  0  0  0  0  0  0  0  0  0  0  0
  140.8514   67.8863  228.9187 H   0  0  0  0  0  0  0  0  0  0  0  0
  139.8418   67.1978  226.7282 H   0  0  0  0  0  0  0  0  0  0  0  0
  139.1269   67.9132  224.4866 H   0  0  0  0  0  0  0  0  0  0  0  0
  139.9614   71.7751  218.2523 H   0  0  0  0  0  0  0  0  0  0  0  0
  140.3781   73.2106  219.1655 H   0  0  0  0  0  0  0  0  0  0  0  0
  142.3619   70.9278  218.5213 H   0  0  0  0  0  0  0  0  0  0  0  0
  142.2325   72.4088  217.5398 H   0  0  0  0  0  0  0  0  0  0  0  0
  1  2  1  0
  2  3  1  0
  3  4  2  0
  3  5  1  0
  5  6  1  0
  6  7  2  0
  7  8  1  0
  8  9  2  0
  9 10  1  0
 10 11  2  0
  5 12  1  0
 12 13  1  0
 13 14  1  0
 14 15  1  0
 15 16  1  0
 16 17  2  0
 16 18  1  0
 18 19  1  0
 18 20  1  0
 20 21  1  0
 21 22  2  0
 22 23  1  0
 23 24  2  0
 24 25  1  0
 25 26  2  0
 26 27  1  0
 27 28  2  0
 28 29  1  0
 29 30  2  0
 15 31  1  0
 31 32  1  0
 11  6  1  0
 32 12  1  0
 30 21  1  0
 29 24  1  0
  1 33  1  0
  1 34  1  0
  1 35  1  0
  2 36  1  0
  2 37  1  0
  7 38  1  0
  8 39  1  0
  9 40  1  0
 10 41  1  0
 11 42  1  0
 12 43  1  0
 13 44  1  0
 13 45  1  0
 14 46  1  0
 14 47  1  0
 18 48  1  1
 19 49  1  0
 19 50  1  0
 20 51  1  0
 20 52  1  0
 22 53  1  0
 25 54  1  0
 26 55  1  0
 27 56  1  0
 28 57  1  0
 30 58  1  0
 31 59  1  0
 31 60  1  0
 32 61  1  0
 32 62  1  0
M  END
>  <smiles>  (29) 
CCC(=O)N(c1ccccc1)C1CCN(C(=O)[C@H](N)Cc2cnc3ccccc3c2)CC1

>  <score_type>  (29) 
oracle

>  <origin>  (29) 
autodockgpu

>  <m_score__min__energy>  (29) 
-8.8699999999999992

>  <m_primary>  (29) 
energy

>  <rmsd>  (29) 
8.365534303970229

>  <m_score__min__rmsd>  (29) 
8.365534303970229

>  <meeko>  (29) 
{"free_energy": -7.91, "intermolecular_energy": -10.3, "internal_energy": -2.51, "cluster_size": 6, "cluster_id": 3, "rank_in_cluster": 6}

>  <energy>  (29) 
-8.0

>  <cluster_rmsd>  (29) 
0.98

>  <cluster>  (29) 
2

$$$$

     RDKit          3D

 62 65  0  0  0  0  0  0  0  0999 V2000
  146.1370   73.7770  221.2820 C   0  0  0  0  0  0  0  0  0  0  0  0
  145.8790   72.6500  220.3160 C   0  0  0  0  0  0  0  0  0  0  0  0
  145.2820   73.1150  219.0260 C   0  0  0  0  0  0  0  0  0  0  0  0
  146.0680   73.1240  218.0350 O   0  0  0  0  0  0  0  0  0  0  0  0
  143.9240   73.5140  218.9500 N   0  0  0  0  0  0  0  0  0  0  0  0
  143.6620   74.9020  218.6300 C   0  0  0  0  0  0  0  0  0  0  0  0
  143.3910   75.7500  219.7090 C   0  0  0  0  0  0  0  0  0  0  0  0
  143.1400   77.0900  219.3960 C   0  0  0  0  0  0  0  0  0  0  0  0
  143.1580   77.5520  218.0930 C   0  0  0  0  0  0  0  0  0  0  0  0
  143.4280   76.6930  217.0470 C   0  0  0  0  0  0  0  0  0  0  0  0
  143.6780   75.3710  217.3450 C   0  0  0  0  0  0  0  0  0  0  0  0
  142.8430   72.5730  219.1840 C   0  0  0  0  0  0  0  0  0  0  0  0
  141.5430   72.9450  218.5820 C   0  0  0  0  0  0  0  0  0  0  0  0
  140.4830   73.4770  219.4930 C   0  0  0  0  0  0  0  0  0  0  0  0
  140.5740   72.9100  220.8220 N   0  0  0  0  0  0  0  0  0  0  0  0
  140.0150   73.4220  221.9860 C   0  0  0  0  0  0  0  0  0  0  0  0
  140.1970   72.7820  223.0870 O   0  0  0  0  0  0  0  0  0  0  0  0
  139.2090   74.6550  222.1150 C   0  0  2  0  0  0  0  0  0  0  0  0
  137.7910   74.3020  222.3370 N   0  0  0  0  0  0  0  0  0  0  0  0
  139.2520   75.5490  220.9060 C   0  0  0  0  0  0  0  0  0  0  0  0
  139.9690   76.8140  221.1460 C   0  0  0  0  0  0  0  0  0  0  0  0
  140.0320   77.7200  220.1040 C   0  0  0  0  0  0  0  0  0  0  0  0
  140.6820   78.8790  220.3070 N   0  0  0  0  0  0  0  0  0  0  0  0
  141.2790   79.2190  221.4630 C   0  0  0  0  0  0  0  0  0  0  0  0
  141.9180   80.4490  221.5440 C   0  0  0  0  0  0  0  0  0  0  0  0
  142.5140   80.7540  222.7470 C   0  0  0  0  0  0  0  0  0  0  0  0
  142.4850   79.8940  223.8220 C   0  0  0  0  0  0  0  0  0  0  0  0
  141.8450   78.6610  223.7410 C   0  0  0  0  0  0  0  0  0  0  0  0
  141.2440   78.3460  222.5370 C   0  0  0  0  0  0  0  0  0  0  0  0
  140.5780   77.1480  222.3400 C   0  0  0  0  0  0  0  0  0  0  0  0
  141.3690   71.6610  220.8910 C   0  0  0  0  0  0  0  0  0  0  0  0
  142.7810   72.1360  220.6220 C   0  0  0  0  0  0  0  0  0  0  0  0
  146.0514   73.4031  222.3129 H   0  0  0  0  0  0  0  0  0  0  0  0
  147.1495   74.1750  221.1192 H   0  0  0  0  0  0  0  0  0  0  0  0
  145.3985   74.5758  221.1192 H   0  0  0  0  0  0  0  0  0  0  0  0
  146.8333   72.1472  220.1002 H   0  0  0  0  0  0  0  0  0  0  0  0
  145.1555   71.9692  220.7883 H   0  0  0  0  0  0  0  0  0  0  0  0
  143.3761   75.3834  220.7460 H   0  0  0  0  0  0  0  0  0  0  0  0
  142.9219   77.7968  220.2102 H   0  0  0  0  0  0  0  0  0  0  0  0
  142.9554   78.6136  217.8882 H   0  0  0  0  0  0  0  0  0  0  0  0
  143.4431   77.0526  216.0075 H   0  0  0  0  0  0  0  0  0  0  0  0
  143.8971   74.6716  216.5247 H   0  0  0  0  0  0  0  0  0  0  0  0
  143.1023   71.6716  218.6094 H   0  0  0  0  0  0  0  0  0  0  0  0
  141.7410   73.7158  217.8226 H   0  0  0  0  0  0  0  0  0  0  0  0
  141.1323   71.9989  218.1995 H   0  0  0  0  0  0  0  0  0  0  0  0
  140.5922   74.5692  219.5648 H   0  0  0  0  0  0  0  0  0  0  0  0
  139.5046   73.2011  219.0727 H   0  0  0  0  0  0  0  0  0  0  0  0
  139.6498   75.2017  222.9616 H   0  0  0  0  0  0  0  0  0  0  0  0
  137.2770   75.0250  222.8500 H   0  0  0  0  0  0  0  0  0  0  0  0
  137.7130   73.3450  222.7330 H   0  0  0  0  0  0  0  0  0  0  0  0
  139.7564   75.0103  220.0903 H   0  0  0  0  0  0  0  0  0  0  0  0
  138.2130   75.8049  220.6509 H   0  0  0  0  0  0  0  0  0  0  0  0
  139.5626   77.4984  219.1342 H   0  0  0  0  0  0  0  0  0  0  0  0
  141.9466   81.1435  220.6915 H   0  0  0  0  0  0  0  0  0  0  0  0
  143.0317   81.7188  222.8531 H   0  0  0  0  0  0  0  0  0  0  0  0
  142.9765   80.1869  224.7615 H   0  0  0  0  0  0  0  0  0  0  0  0
  141.8187   77.9691  224.5957 H   0  0  0  0  0  0  0  0  0  0  0  0
  140.5318   76.4299  223.1719 H   0  0  0  0  0  0  0  0  0  0  0  0
  141.2911   71.1980  221.8858 H   0  0  0  0  0  0  0  0  0  0  0  0
  141.0290   70.8929  220.1808 H   0  0  0  0  0  0  0  0  0  0  0  0
  143.0256   72.9810  221.2825 H   0  0  0  0  0  0  0  0  0  0  0  0
  143.5048   71.3303  220.8143 H   0  0  0  0  0  0  0  0  0  0  0  0
  1  2  1  0
  2  3  1  0
  3  4  2  0
  3  5  1  0
  5  6  1  0
  6  7  2  0
  7  8  1  0
  8  9  2  0
  9 10  1  0
 10 11  2  0
  5 12  1  0
 12 13  1  0
 13 14  1  0
 14 15  1  0
 15 16  1  0
 16 17  2  0
 16 18  1  0
 18 19  1  0
 18 20  1  0
 20 21  1  0
 21 22  2  0
 22 23  1  0
 23 24  2  0
 24 25  1  0
 25 26  2  0
 26 27  1  0
 27 28  2  0
 28 29  1  0
 29 30  2  0
 15 31  1  0
 31 32  1  0
 11  6  1  0
 32 12  1  0
 30 21  1  0
 29 24  1  0
  1 33  1  0
  1 34  1  0
  1 35  1  0
  2 36  1  0
  2 37  1  0
  7 38  1  0
  8 39  1  0
  9 40  1  0
 10 41  1  0
 11 42  1  0
 12 43  1  0
 13 44  1  0
 13 45  1  0
 14 46  1  0
 14 47  1  0
 18 48  1  1
 19 49  1  0
 19 50  1  0
 20 51  1  0
 20 52  1  0
 22 53  1  0
 25 54  1  0
 26 55  1  0
 27 56  1  0
 28 57  1  0
 30 58  1  0
 31 59  1  0
 31 60  1  0
 32 61  1  0
 32 62  1  0
M  END
>  <smiles>  (30) 
CCC(=O)N(c1ccccc1)C1CCN(C(=O)[C@H](N)Cc2cnc3ccccc3c2)CC1

>  <score_type>  (30) 
oracle

>  <origin>  (30) 
autodockgpu

>  <m_score__min__energy>  (30) 
-8.8699999999999992

>  <m_primary>  (30) 
energy

>  <rmsd>  (30) 
6.563907813383069

>  <m_score__min__rmsd>  (30) 
6.563907813383069

>  <meeko>  (30) 
{"free_energy": -7.67, "intermolecular_energy": -10.05, "internal_energy": -2.6, "cluster_size": 7, "cluster_id": 5, "rank_in_cluster": 7}

>  <energy>  (30) 
-7.34

>  <cluster_rmsd>  (30) 
1.21

>  <cluster>  (30) 
2

$$$$

     RDKit          3D

 62 65  0  0  0  0  0  0  0  0999 V2000
  136.7690   77.7150  222.6600 C   0  0  0  0  0  0  0  0  0  0  0  0
  138.2240   78.1030  222.7120 C   0  0  0  0  0  0  0  0  0  0  0  0
  139.1420   76.9600  222.4130 C   0  0  0  0  0  0  0  0  0  0  0  0
  138.7340   75.8240  222.7890 O   0  0  0  0  0  0  0  0  0  0  0  0
  140.3790   77.1680  221.7540 N   0  0  0  0  0  0  0  0  0  0  0  0
  141.1450   78.3340  222.1430 C   0  0  0  0  0  0  0  0  0  0  0  0
  141.4710   79.2340  221.1240 C   0  0  0  0  0  0  0  0  0  0  0  0
  142.2100   80.3590  221.5030 C   0  0  0  0  0  0  0  0  0  0  0  0
  142.5980   80.5710  222.8130 C   0  0  0  0  0  0  0  0  0  0  0  0
  142.2620   79.6660  223.8000 C   0  0  0  0  0  0  0  0  0  0  0  0
  141.5330   78.5540  223.4360 C   0  0  0  0  0  0  0  0  0  0  0  0
  140.8560   76.2540  220.7330 C   0  0  0  0  0  0  0  0  0  0  0  0
  139.8090   75.7000  219.8440 C   0  0  0  0  0  0  0  0  0  0  0  0
  139.3830   74.2850  220.0710 C   0  0  0  0  0  0  0  0  0  0  0  0
  140.4640   73.4670  220.5780 N   0  0  0  0  0  0  0  0  0  0  0  0
  140.3480   72.2450  221.2310 C   0  0  0  0  0  0  0  0  0  0  0  0
  141.4230   71.6510  221.6160 O   0  0  0  0  0  0  0  0  0  0  0  0
  139.0970   71.5240  221.5470 C   0  0  2  0  0  0  0  0  0  0  0  0
  138.3200   72.2890  222.5460 N   0  0  0  0  0  0  0  0  0  0  0  0
  139.3050   70.1480  222.1190 C   0  0  0  0  0  0  0  0  0  0  0  0
  139.4940   70.1510  223.5800 C   0  0  0  0  0  0  0  0  0  0  0  0
  138.8010   69.2080  224.3150 C   0  0  0  0  0  0  0  0  0  0  0  0
  138.9630   69.1970  225.6500 N   0  0  0  0  0  0  0  0  0  0  0  0
  139.7590   70.0480  226.3230 C   0  0  0  0  0  0  0  0  0  0  0  0
  139.8390   69.9300  227.7030 C   0  0  0  0  0  0  0  0  0  0  0  0
  140.6670   70.8220  228.3480 C   0  0  0  0  0  0  0  0  0  0  0  0
  141.3830   71.7840  227.6720 C   0  0  0  0  0  0  0  0  0  0  0  0
  141.3030   71.9010  226.2870 C   0  0  0  0  0  0  0  0  0  0  0  0
  140.4740   71.0110  225.6320 C   0  0  0  0  0  0  0  0  0  0  0  0
  140.3160   71.0330  224.2560 C   0  0  0  0  0  0  0  0  0  0  0  0
  141.8100   74.0460  220.3630 C   0  0  0  0  0  0  0  0  0  0  0  0
  141.8220   75.2430  221.2900 C   0  0  0  0  0  0  0  0  0  0  0  0
  136.3803   77.6114  223.6838 H   0  0  0  0  0  0  0  0  0  0  0  0
  136.2008   78.4930  222.1291 H   0  0  0  0  0  0  0  0  0  0  0  0
  136.6636   76.7574  222.1291 H   0  0  0  0  0  0  0  0  0  0  0  0
  138.4018   78.8985  221.9734 H   0  0  0  0  0  0  0  0  0  0  0  0
  138.4394   78.4403  223.7366 H   0  0  0  0  0  0  0  0  0  0  0  0
  141.1631   79.0664  220.0814 H   0  0  0  0  0  0  0  0  0  0  0  0
  142.4908   81.0966  220.7368 H   0  0  0  0  0  0  0  0  0  0  0  0
  143.1794   81.4684  223.0711 H   0  0  0  0  0  0  0  0  0  0  0  0
  142.5666   79.8273  224.8446 H   0  0  0  0  0  0  0  0  0  0  0  0
  141.2551   77.8218  224.2084 H   0  0  0  0  0  0  0  0  0  0  0  0
  141.4391   76.8695  220.0322 H   0  0  0  0  0  0  0  0  0  0  0  0
  138.9164   76.3335  219.9529 H   0  0  0  0  0  0  0  0  0  0  0  0
  140.2667   75.6958  218.8438 H   0  0  0  0  0  0  0  0  0  0  0  0
  138.5586   74.2750  220.7992 H   0  0  0  0  0  0  0  0  0  0  0  0
  139.0657   73.8669  219.1043 H   0  0  0  0  0  0  0  0  0  0  0  0
  138.5726   71.4206  220.5856 H   0  0  0  0  0  0  0  0  0  0  0  0
  137.3260   72.3610  222.3050 H   0  0  0  0  0  0  0  0  0  0  0  0
  138.7870   73.1930  222.7520 H   0  0  0  0  0  0  0  0  0  0  0  0
  138.4241   69.5335  221.8814 H   0  0  0  0  0  0  0  0  0  0  0  0
  140.2239   69.7423  221.6706 H   0  0  0  0  0  0  0  0  0  0  0  0
  138.1345   68.4855  223.8212 H   0  0  0  0  0  0  0  0  0  0  0  0
  139.2714   69.1648  228.2528 H   0  0  0  0  0  0  0  0  0  0  0  0
  140.7594   70.7636  229.4426 H   0  0  0  0  0  0  0  0  0  0  0  0
  142.0296   72.4723  228.2360 H   0  0  0  0  0  0  0  0  0  0  0  0
  141.8732   72.6663  225.7399 H   0  0  0  0  0  0  0  0  0  0  0  0
  140.8693   71.7859  223.6755 H   0  0  0  0  0  0  0  0  0  0  0  0
  142.5969   73.3275  220.6359 H   0  0  0  0  0  0  0  0  0  0  0  0
  142.0037   74.3107  219.3131 H   0  0  0  0  0  0  0  0  0  0  0  0
  141.5081   74.9397  222.2997 H   0  0  0  0  0  0  0  0  0  0  0  0
  142.8334   75.6699  221.3597 H   0  0  0  0  0  0  0  0  0  0  0  0
  1  2  1  0
  2  3  1  0
  3  4  2  0
  3  5  1  0
  5  6  1  0
  6  7  2  0
  7  8  1  0
  8  9  2  0
  9 10  1  0
 10 11  2  0
  5 12  1  0
 12 13  1  0
 13 14  1  0
 14 15  1  0
 15 16  1  0
 16 17  2  0
 16 18  1  0
 18 19  1  0
 18 20  1  0
 20 21  1  0
 21 22  2  0
 22 23  1  0
 23 24  2  0
 24 25  1  0
 25 26  2  0
 26 27  1  0
 27 28  2  0
 28 29  1  0
 29 30  2  0
 15 31  1  0
 31 32  1  0
 11  6  1  0
 32 12  1  0
 30 21  1  0
 29 24  1  0
  1 33  1  0
  1 34  1  0
  1 35  1  0
  2 36  1  0
  2 37  1  0
  7 38  1  0
  8 39  1  0
  9 40  1  0
 10 41  1  0
 11 42  1  0
 12 43  1  0
 13 44  1  0
 13 45  1  0
 14 46  1  0
 14 47  1  0
 18 48  1  6
 19 49  1  0
 19 50  1  0
 20 51  1  0
 20 52  1  0
 22 53  1  0
 25 54  1  0
 26 55  1  0
 27 56  1  0
 28 57  1  0
 30 58  1  0
 31 59  1  0
 31 60  1  0
 32 61  1  0
 32 62  1  0
M  END
>  <smiles>  (31) 
CCC(=O)N(c1ccccc1)C1CCN(C(=O)[C@H](N)Cc2cnc3ccccc3c2)CC1

>  <score_type>  (31) 
oracle

>  <origin>  (31) 
autodockgpu

>  <m_score__min__energy>  (31) 
-8.8699999999999992

>  <m_primary>  (31) 
energy

>  <rmsd>  (31) 
7.145355044673381

>  <m_score__min__rmsd>  (31) 
7.145355044673381

>  <meeko>  (31) 
{"free_energy": -8.43, "intermolecular_energy": -10.81, "internal_energy": -2.02, "cluster_size": 25, "cluster_id": 1, "rank_in_cluster": 8}

>  <energy>  (31) 
-8.34

>  <cluster_rmsd>  (31) 
0.0

>  <cluster>  (31) 
3

$$$$

     RDKit          3D

 62 65  0  0  0  0  0  0  0  0999 V2000
  136.8040   75.6640  222.4950 C   0  0  0  0  0  0  0  0  0  0  0  0
  138.0160   76.3610  223.0570 C   0  0  0  0  0  0  0  0  0  0  0  0
  138.4020   77.5760  222.2770 C   0  0  0  0  0  0  0  0  0  0  0  0
  137.4560   78.3690  222.0020 O   0  0  0  0  0  0  0  0  0  0  0  0
  139.7460   77.7980  221.8840 N   0  0  0  0  0  0  0  0  0  0  0  0
  140.4340   78.9180  222.4920 C   0  0  0  0  0  0  0  0  0  0  0  0
  141.5530   78.6130  223.2740 C   0  0  0  0  0  0  0  0  0  0  0  0
  142.2140   79.6970  223.8590 C   0  0  0  0  0  0  0  0  0  0  0  0
  141.7870   80.9990  223.6760 C   0  0  0  0  0  0  0  0  0  0  0  0
  140.6790   81.2720  222.8990 C   0  0  0  0  0  0  0  0  0  0  0  0
  140.0210   80.2100  222.3180 C   0  0  0  0  0  0  0  0  0  0  0  0
  140.4040   76.9410  220.9140 C   0  0  0  0  0  0  0  0  0  0  0  0
  139.5010   76.2810  219.9430 C   0  0  0  0  0  0  0  0  0  0  0  0
  139.2090   74.8280  220.1440 C   0  0  0  0  0  0  0  0  0  0  0  0
  140.3230   74.1280  220.7480 N   0  0  0  0  0  0  0  0  0  0  0  0
  140.2820   72.9010  221.3970 C   0  0  0  0  0  0  0  0  0  0  0  0
  141.3760   72.4240  221.8780 O   0  0  0  0  0  0  0  0  0  0  0  0
  139.0920   72.0500  221.6110 C   0  0  2  0  0  0  0  0  0  0  0  0
  138.2620   72.6170  222.6960 N   0  0  0  0  0  0  0  0  0  0  0  0
  139.4090   70.6320  222.0010 C   0  0  0  0  0  0  0  0  0  0  0  0
  139.5160   70.4430  223.4580 C   0  0  0  0  0  0  0  0  0  0  0  0
  138.8250   69.3860  224.0180 C   0  0  0  0  0  0  0  0  0  0  0  0
  138.9130   69.1990  225.3470 N   0  0  0  0  0  0  0  0  0  0  0  0
  139.6340   69.9780  226.1740 C   0  0  0  0  0  0  0  0  0  0  0  0
  139.6420   69.6770  227.5280 C   0  0  0  0  0  0  0  0  0  0  0  0
  140.3950   70.5010  228.3350 C   0  0  0  0  0  0  0  0  0  0  0  0
  141.1060   71.5690  227.8390 C   0  0  0  0  0  0  0  0  0  0  0  0
  141.0980   71.8710  226.4800 C   0  0  0  0  0  0  0  0  0  0  0  0
  140.3440   71.0500  225.6620 C   0  0  0  0  0  0  0  0  0  0  0  0
  140.2610   71.2530  224.2950 C   0  0  0  0  0  0  0  0  0  0  0  0
  141.6140   74.8480  220.6440 C   0  0  0  0  0  0  0  0  0  0  0  0
  141.4200   76.0380  221.5600 C   0  0  0  0  0  0  0  0  0  0  0  0
  136.1738   75.3016  223.3205 H   0  0  0  0  0  0  0  0  0  0  0  0
  136.2290   76.3694  221.8771 H   0  0  0  0  0  0  0  0  0  0  0  0
  137.1245   74.8122  221.8771 H   0  0  0  0  0  0  0  0  0  0  0  0
  137.7988   76.6629  224.0922 H   0  0  0  0  0  0  0  0  0  0  0  0
  138.8572   75.6541  223.0047 H   0  0  0  0  0  0  0  0  0  0  0  0
  141.8939   77.5775  223.4205 H   0  0  0  0  0  0  0  0  0  0  0  0
  143.0999   79.5084  224.4832 H   0  0  0  0  0  0  0  0  0  0  0  0
  142.3348   81.8247  224.1536 H   0  0  0  0  0  0  0  0  0  0  0  0
  140.3323   82.3050  222.7485 H   0  0  0  0  0  0  0  0  0  0  0  0
  139.1362   80.4075  221.6950 H   0  0  0  0  0  0  0  0  0  0  0  0
  140.9776   77.6147  220.2605 H   0  0  0  0  0  0  0  0  0  0  0  0
  138.5405   76.8164  219.9708 H   0  0  0  0  0  0  0  0  0  0  0  0
  140.0400   76.3271  218.9852 H   0  0  0  0  0  0  0  0  0  0  0  0
  138.3309   74.7298  220.7992 H   0  0  0  0  0  0  0  0  0  0  0  0
  139.0219   74.3800  219.1569 H   0  0  0  0  0  0  0  0  0  0  0  0
  138.5726   72.0313  220.6415 H   0  0  0  0  0  0  0  0  0  0  0  0
  137.2620   72.6120  222.4750 H   0  0  0  0  0  0  0  0  0  0  0  0
  138.6400   73.5370  222.9970 H   0  0  0  0  0  0  0  0  0  0  0  0
  138.6106   69.9777  221.6209 H   0  0  0  0  0  0  0  0  0  0  0  0
  140.3880   70.3834  221.5655 H   0  0  0  0  0  0  0  0  0  0  0  0
  138.2182   68.7144  223.3929 H   0  0  0  0  0  0  0  0  0  0  0  0
  139.0771   68.8257  227.9356 H   0  0  0  0  0  0  0  0  0  0  0  0
  140.4290   70.2976  229.4155 H   0  0  0  0  0  0  0  0  0  0  0  0
  141.6912   72.1955  228.5283 H   0  0  0  0  0  0  0  0  0  0  0  0
  141.6649   72.7227  226.0760 H   0  0  0  0  0  0  0  0  0  0  0  0
  140.8127   72.0968  223.8549 H   0  0  0  0  0  0  0  0  0  0  0  0
  142.4467   74.2169  220.9879 H   0  0  0  0  0  0  0  0  0  0  0  0
  141.8671   75.1339  219.6124 H   0  0  0  0  0  0  0  0  0  0  0  0
  141.0542   75.7016  222.5414 H   0  0  0  0  0  0  0  0  0  0  0  0
  142.3707   76.5695  221.7135 H   0  0  0  0  0  0  0  0  0  0  0  0
  1  2  1  0
  2  3  1  0
  3  4  2  0
  3  5  1  0
  5  6  1  0
  6  7  2  0
  7  8  1  0
  8  9  2  0
  9 10  1  0
 10 11  2  0
  5 12  1  0
 12 13  1  0
 13 14  1  0
 14 15  1  0
 15 16  1  0
 16 17  2  0
 16 18  1  0
 18 19  1  0
 18 20  1  0
 20 21  1  0
 21 22  2  0
 22 23  1  0
 23 24  2  0
 24 25  1  0
 25 26  2  0
 26 27  1  0
 27 28  2  0
 28 29  1  0
 29 30  2  0
 15 31  1  0
 31 32  1  0
 11  6  1  0
 32 12  1  0
 30 21  1  0
 29 24  1  0
  1 33  1  0
  1 34  1  0
  1 35  1  0
  2 36  1  0
  2 37  1  0
  7 38  1  0
  8 39  1  0
  9 40  1  0
 10 41  1  0
 11 42  1  0
 12 43  1  0
 13 44  1  0
 13 45  1  0
 14 46  1  0
 14 47  1  0
 18 48  1  6
 19 49  1  0
 19 50  1  0
 20 51  1  0
 20 52  1  0
 22 53  1  0
 25 54  1  0
 26 55  1  0
 27 56  1  0
 28 57  1  0
 30 58  1  0
 31 59  1  0
 31 60  1  0
 32 61  1  0
 32 62  1  0
M  END
>  <smiles>  (32) 
CCC(=O)N(c1ccccc1)C1CCN(C(=O)[C@H](N)Cc2cnc3ccccc3c2)CC1

>  <score_type>  (32) 
oracle

>  <origin>  (32) 
autodockgpu

>  <m_score__min__energy>  (32) 
-8.8699999999999992

>  <m_primary>  (32) 
energy

>  <rmsd>  (32) 
6.704196358486183

>  <m_score__min__rmsd>  (32) 
6.704196358486183

>  <meeko>  (32) 
{"free_energy": -8.32, "intermolecular_energy": -10.71, "internal_energy": -1.84, "cluster_size": 25, "cluster_id": 1, "rank_in_cluster": 14}

>  <energy>  (32) 
-8.3

>  <cluster_rmsd>  (32) 
0.22

>  <cluster>  (32) 
3

$$$$

     RDKit          3D

 62 65  0  0  0  0  0  0  0  0999 V2000
  136.4620   77.7850  222.6540 C   0  0  0  0  0  0  0  0  0  0  0  0
  137.8780   78.2950  222.7280 C   0  0  0  0  0  0  0  0  0  0  0  0
  138.8950   77.2190  222.5120 C   0  0  0  0  0  0  0  0  0  0  0  0
  138.6040   76.0900  223.0030 O   0  0  0  0  0  0  0  0  0  0  0  0
  140.0940   77.4770  221.8020 N   0  0  0  0  0  0  0  0  0  0  0  0
  140.8650   78.6330  222.2110 C   0  0  0  0  0  0  0  0  0  0  0  0
  141.4590   78.5710  223.4760 C   0  0  0  0  0  0  0  0  0  0  0  0
  142.2030   79.6890  223.8660 C   0  0  0  0  0  0  0  0  0  0  0  0
  142.3450   80.7950  223.0490 C   0  0  0  0  0  0  0  0  0  0  0  0
  141.7480   80.8290  221.8050 C   0  0  0  0  0  0  0  0  0  0  0  0
  141.0130   79.7320  221.4110 C   0  0  0  0  0  0  0  0  0  0  0  0
  140.5290   76.6220  220.7130 C   0  0  0  0  0  0  0  0  0  0  0  0
  139.4400   76.0250  219.9080 C   0  0  0  0  0  0  0  0  0  0  0  0
  139.1260   74.5800  220.1290 C   0  0  0  0  0  0  0  0  0  0  0  0
  140.2980   73.8200  220.5090 N   0  0  0  0  0  0  0  0  0  0  0  0
  140.3200   72.5780  221.1300 C   0  0  0  0  0  0  0  0  0  0  0  0
  141.4610   72.0450  221.3970 O   0  0  0  0  0  0  0  0  0  0  0  0
  139.1510   71.7690  221.5370 C   0  0  2  0  0  0  0  0  0  0  0  0
  138.4240   72.4580  222.6250 N   0  0  0  0  0  0  0  0  0  0  0  0
  139.4980   70.3960  222.0460 C   0  0  0  0  0  0  0  0  0  0  0  0
  139.6060   70.3340  223.5140 C   0  0  0  0  0  0  0  0  0  0  0  0
  138.8380   69.3920  224.1720 C   0  0  0  0  0  0  0  0  0  0  0  0
  138.9250   69.3210  225.5120 N   0  0  0  0  0  0  0  0  0  0  0  0
  139.7160   70.1110  226.2610 C   0  0  0  0  0  0  0  0  0  0  0  0
  139.7150   69.9350  227.6370 C   0  0  0  0  0  0  0  0  0  0  0  0
  140.5410   70.7660  228.3620 C   0  0  0  0  0  0  0  0  0  0  0  0
  141.3300   71.7230  227.7670 C   0  0  0  0  0  0  0  0  0  0  0  0
  141.3310   71.8990  226.3850 C   0  0  0  0  0  0  0  0  0  0  0  0
  140.5050   71.0700  225.6500 C   0  0  0  0  0  0  0  0  0  0  0  0
  140.4230   71.1530  224.2700 C   0  0  0  0  0  0  0  0  0  0  0  0
  141.5800   74.4910  220.1890 C   0  0  0  0  0  0  0  0  0  0  0  0
  141.6040   75.6630  221.1480 C   0  0  0  0  0  0  0  0  0  0  0  0
  136.0695   77.6437  223.6718 H   0  0  0  0  0  0  0  0  0  0  0  0
  135.8371   78.5145  222.1181 H   0  0  0  0  0  0  0  0  0  0  0  0
  136.4457   76.8245  222.1181 H   0  0  0  0  0  0  0  0  0  0  0  0
  138.0141   79.0670  221.9563 H   0  0  0  0  0  0  0  0  0  0  0  0
  138.0321   78.6973  223.7401 H   0  0  0  0  0  0  0  0  0  0  0  0
  141.3471   77.6919  224.1276 H   0  0  0  0  0  0  0  0  0  0  0  0
  142.6898   79.6883  224.8524 H   0  0  0  0  0  0  0  0  0  0  0  0
  142.9385   81.6549  223.3930 H   0  0  0  0  0  0  0  0  0  0  0  0
  141.8556   81.7049  221.1483 H   0  0  0  0  0  0  0  0  0  0  0  0
  140.5305   79.7407  220.4225 H   0  0  0  0  0  0  0  0  0  0  0  0
  141.0043   77.2901  219.9797 H   0  0  0  0  0  0  0  0  0  0  0  0
  138.5240   76.5965  220.1188 H   0  0  0  0  0  0  0  0  0  0  0  0
  139.8006   76.0762  218.8700 H   0  0  0  0  0  0  0  0  0  0  0  0
  138.3756   74.4984  220.9291 H   0  0  0  0  0  0  0  0  0  0  0  0
  138.7468   74.1672  219.1826 H   0  0  0  0  0  0  0  0  0  0  0  0
  138.5465   71.6541  220.6252 H   0  0  0  0  0  0  0  0  0  0  0  0
  137.4060   72.4020  222.5200 H   0  0  0  0  0  0  0  0  0  0  0  0
  138.7980   73.4170  222.7600 H   0  0  0  0  0  0  0  0  0  0  0  0
  138.7148   69.6945  221.7227 H   0  0  0  0  0  0  0  0  0  0  0  0
  140.4830   70.1325  221.6333 H   0  0  0  0  0  0  0  0  0  0  0  0
  138.1724   68.7174  223.6136 H   0  0  0  0  0  0  0  0  0  0  0  0
  139.0883   69.1729  228.1232 H   0  0  0  0  0  0  0  0  0  0  0  0
  140.5706   70.6603  229.4565 H   0  0  0  0  0  0  0  0  0  0  0  0
  141.9714   72.3604  228.3934 H   0  0  0  0  0  0  0  0  0  0  0  0
  141.9594   72.6616  225.9018 H   0  0  0  0  0  0  0  0  0  0  0  0
  141.0362   71.9052  223.7520 H   0  0  0  0  0  0  0  0  0  0  0  0
  142.4324   73.8186  220.3660 H   0  0  0  0  0  0  0  0  0  0  0  0
  141.6576   74.7940  219.1344 H   0  0  0  0  0  0  0  0  0  0  0  0
  141.4053   75.3148  222.1724 H   0  0  0  0  0  0  0  0  0  0  0  0
  142.5889   76.1529  221.1383 H   0  0  0  0  0  0  0  0  0  0  0  0
  1  2  1  0
  2  3  1  0
  3  4  2  0
  3  5  1  0
  5  6  1  0
  6  7  2  0
  7  8  1  0
  8  9  2  0
  9 10  1  0
 10 11  2  0
  5 12  1  0
 12 13  1  0
 13 14  1  0
 14 15  1  0
 15 16  1  0
 16 17  2  0
 16 18  1  0
 18 19  1  0
 18 20  1  0
 20 21  1  0
 21 22  2  0
 22 23  1  0
 23 24  2  0
 24 25  1  0
 25 26  2  0
 26 27  1  0
 27 28  2  0
 28 29  1  0
 29 30  2  0
 15 31  1  0
 31 32  1  0
 11  6  1  0
 32 12  1  0
 30 21  1  0
 29 24  1  0
  1 33  1  0
  1 34  1  0
  1 35  1  0
  2 36  1  0
  2 37  1  0
  7 38  1  0
  8 39  1  0
  9 40  1  0
 10 41  1  0
 11 42  1  0
 12 43  1  0
 13 44  1  0
 13 45  1  0
 14 46  1  0
 14 47  1  0
 18 48  1  6
 19 49  1  0
 19 50  1  0
 20 51  1  0
 20 52  1  0
 22 53  1  0
 25 54  1  0
 26 55  1  0
 27 56  1  0
 28 57  1  0
 30 58  1  0
 31 59  1  0
 31 60  1  0
 32 61  1  0
 32 62  1  0
M  END
>  <smiles>  (33) 
CCC(=O)N(c1ccccc1)C1CCN(C(=O)[C@H](N)Cc2cnc3ccccc3c2)CC1

>  <score_type>  (33) 
oracle

>  <origin>  (33) 
autodockgpu

>  <m_score__min__energy>  (33) 
-8.8699999999999992

>  <m_primary>  (33) 
energy

>  <rmsd>  (33) 
6.90194885688945

>  <m_score__min__rmsd>  (33) 
6.90194885688945

>  <meeko>  (33) 
{"free_energy": -8.34, "intermolecular_energy": -10.72, "internal_energy": -2.0, "cluster_size": 25, "cluster_id": 1, "rank_in_cluster": 11}

>  <energy>  (33) 
-8.03

>  <cluster_rmsd>  (33) 
0.54

>  <cluster>  (33) 
3

$$$$

     RDKit          3D

 62 65  0  0  0  0  0  0  0  0999 V2000
  138.1740   79.7250  223.4650 C   0  0  0  0  0  0  0  0  0  0  0  0
  137.8070   78.6290  222.4970 C   0  0  0  0  0  0  0  0  0  0  0  0
  138.8130   77.5230  222.4620 C   0  0  0  0  0  0  0  0  0  0  0  0
  138.4820   76.4680  223.0760 O   0  0  0  0  0  0  0  0  0  0  0  0
  140.0460   77.6770  221.7800 N   0  0  0  0  0  0  0  0  0  0  0  0
  140.9090   78.7550  222.2160 C   0  0  0  0  0  0  0  0  0  0  0  0
  141.4070   78.6670  223.5200 C   0  0  0  0  0  0  0  0  0  0  0  0
  142.2410   79.7090  223.9370 C   0  0  0  0  0  0  0  0  0  0  0  0
  142.5560   80.7690  223.1070 C   0  0  0  0  0  0  0  0  0  0  0  0
  142.0510   80.8310  221.8240 C   0  0  0  0  0  0  0  0  0  0  0  0
  141.2290   79.8080  221.4040 C   0  0  0  0  0  0  0  0  0  0  0  0
  140.4260   76.7940  220.6930 C   0  0  0  0  0  0  0  0  0  0  0  0
  139.2990   76.2390  219.9090 C   0  0  0  0  0  0  0  0  0  0  0  0
  138.9230   74.8120  220.1480 C   0  0  0  0  0  0  0  0  0  0  0  0
  140.0660   74.0040  220.5170 N   0  0  0  0  0  0  0  0  0  0  0  0
  140.0420   72.7670  221.1500 C   0  0  0  0  0  0  0  0  0  0  0  0
  141.1620   72.1850  221.4040 O   0  0  0  0  0  0  0  0  0  0  0  0
  138.8440   72.0140  221.5820 C   0  0  2  0  0  0  0  0  0  0  0  0
  138.1360   72.7700  222.6370 N   0  0  0  0  0  0  0  0  0  0  0  0
  139.1410   70.6520  222.1470 C   0  0  0  0  0  0  0  0  0  0  0  0
  139.5920   70.6940  223.5490 C   0  0  0  0  0  0  0  0  0  0  0  0
  140.3260   71.7930  223.9520 C   0  0  0  0  0  0  0  0  0  0  0  0
  140.7440   71.8470  225.2290 N   0  0  0  0  0  0  0  0  0  0  0  0
  140.4940   70.8960  226.1470 C   0  0  0  0  0  0  0  0  0  0  0  0
  140.9820   71.0730  227.4340 C   0  0  0  0  0  0  0  0  0  0  0  0
  140.7000   70.0740  228.3400 C   0  0  0  0  0  0  0  0  0  0  0  0
  139.9750   68.9550  228.0000 C   0  0  0  0  0  0  0  0  0  0  0  0
  139.4850   68.7780  226.7090 C   0  0  0  0  0  0  0  0  0  0  0  0
  139.7630   69.7750  225.7930 C   0  0  0  0  0  0  0  0  0  0  0  0
  139.3270   69.7080  224.4810 C   0  0  0  0  0  0  0  0  0  0  0  0
  141.3720   74.6130  220.1720 C   0  0  0  0  0  0  0  0  0  0  0  0
  141.4630   75.7910  221.1200 C   0  0  0  0  0  0  0  0  0  0  0  0
  138.0518   79.3601  224.4955 H   0  0  0  0  0  0  0  0  0  0  0  0
  139.2206   80.0221  223.3029 H   0  0  0  0  0  0  0  0  0  0  0  0
  137.5173   80.5924  223.3029 H   0  0  0  0  0  0  0  0  0  0  0  0
  136.8344   78.2096  222.7938 H   0  0  0  0  0  0  0  0  0  0  0  0
  137.7709   79.0745  221.4919 H   0  0  0  0  0  0  0  0  0  0  0  0
  141.1564   77.8244  224.1812 H   0  0  0  0  0  0  0  0  0  0  0  0
  142.6584   79.6847  224.9544 H   0  0  0  0  0  0  0  0  0  0  0  0
  143.2151   81.5702  223.4725 H   0  0  0  0  0  0  0  0  0  0  0  0
  142.2970   81.6709  221.1576 H   0  0  0  0  0  0  0  0  0  0  0  0
  140.8175   79.8392  220.3843 H   0  0  0  0  0  0  0  0  0  0  0  0
  140.9199   77.4348  219.9478 H   0  0  0  0  0  0  0  0  0  0  0  0
  138.4129   76.8533  220.1272 H   0  0  0  0  0  0  0  0  0  0  0  0
  139.6468   76.2641  218.8657 H   0  0  0  0  0  0  0  0  0  0  0  0
  138.1823   74.7713  220.9602 H   0  0  0  0  0  0  0  0  0  0  0  0
  138.5099   74.4084  219.2118 H   0  0  0  0  0  0  0  0  0  0  0  0
  138.2407   71.8829  220.6716 H   0  0  0  0  0  0  0  0  0  0  0  0
  138.5100   73.7150  222.7680 H   0  0  0  0  0  0  0  0  0  0  0  0
  138.0660   72.2030  223.5040 H   0  0  0  0  0  0  0  0  0  0  0  0
  138.2268   70.0429  222.0914 H   0  0  0  0  0  0  0  0  0  0  0  0
  139.9596   70.2212  221.5518 H   0  0  0  0  0  0  0  0  0  0  0  0
  140.5624   72.6030  223.2463 H   0  0  0  0  0  0  0  0  0  0  0  0
  141.5630   71.9635  227.7158 H   0  0  0  0  0  0  0  0  0  0  0  0
  141.0675   70.1746  229.3719 H   0  0  0  0  0  0  0  0  0  0  0  0
  139.7790   68.1864  228.7621 H   0  0  0  0  0  0  0  0  0  0  0  0
  138.9038   67.8864  226.4310 H   0  0  0  0  0  0  0  0  0  0  0  0
  138.7433   68.8306  224.1657 H   0  0  0  0  0  0  0  0  0  0  0  0
  142.1956   73.9042  220.3428 H   0  0  0  0  0  0  0  0  0  0  0  0
  141.4477   74.9029  219.1136 H   0  0  0  0  0  0  0  0  0  0  0  0
  141.2645   75.4606  222.1503 H   0  0  0  0  0  0  0  0  0  0  0  0
  142.4686   76.2360  221.0908 H   0  0  0  0  0  0  0  0  0  0  0  0
  1  2  1  0
  2  3  1  0
  3  4  2  0
  3  5  1  0
  5  6  1  0
  6  7  2  0
  7  8  1  0
  8  9  2  0
  9 10  1  0
 10 11  2  0
  5 12  1  0
 12 13  1  0
 13 14  1  0
 14 15  1  0
 15 16  1  0
 16 17  2  0
 16 18  1  0
 18 19  1  0
 18 20  1  0
 20 21  1  0
 21 22  2  0
 22 23  1  0
 23 24  2  0
 24 25  1  0
 25 26  2  0
 26 27  1  0
 27 28  2  0
 28 29  1  0
 29 30  2  0
 15 31  1  0
 31 32  1  0
 11  6  1  0
 32 12  1  0
 30 21  1  0
 29 24  1  0
  1 33  1  0
  1 34  1  0
  1 35  1  0
  2 36  1  0
  2 37  1  0
  7 38  1  0
  8 39  1  0
  9 40  1  0
 10 41  1  0
 11 42  1  0
 12 43  1  0
 13 44  1  0
 13 45  1  0
 14 46  1  0
 14 47  1  0
 18 48  1  6
 19 49  1  0
 19 50  1  0
 20 51  1  0
 20 52  1  0
 22 53  1  0
 25 54  1  0
 26 55  1  0
 27 56  1  0
 28 57  1  0
 30 58  1  0
 31 59  1  0
 31 60  1  0
 32 61  1  0
 32 62  1  0
M  END
>  <smiles>  (34) 
CCC(=O)N(c1ccccc1)C1CCN(C(=O)[C@H](N)Cc2cnc3ccccc3c2)CC1

>  <score_type>  (34) 
oracle

>  <origin>  (34) 
autodockgpu

>  <m_score__min__energy>  (34) 
-8.8699999999999992

>  <m_primary>  (34) 
energy

>  <rmsd>  (34) 
6.553643748061599

>  <m_score__min__rmsd>  (34) 
6.553643748061599

>  <meeko>  (34) 
{"free_energy": -8.69, "intermolecular_energy": -11.08, "internal_energy": -1.46, "cluster_size": 25, "cluster_id": 1, "rank_in_cluster": 3}

>  <energy>  (34) 
-7.96

>  <cluster_rmsd>  (34) 
0.77

>  <cluster>  (34) 
3

$$$$

     RDKit          3D

 62 65  0  0  0  0  0  0  0  0999 V2000
  144.5200   74.4180  220.1360 C   0  0  0  0  0  0  0  0  0  0  0  0
  143.3390   75.3450  220.0140 C   0  0  0  0  0  0  0  0  0  0  0  0
  142.1340   74.8510  220.7490 C   0  0  0  0  0  0  0  0  0  0  0  0
  142.2150   73.6700  221.1940 O   0  0  0  0  0  0  0  0  0  0  0  0
  140.9910   75.6730  220.9170 N   0  0  0  0  0  0  0  0  0  0  0  0
  141.2190   77.0340  221.3540 C   0  0  0  0  0  0  0  0  0  0  0  0
  141.0650   77.2840  222.7220 C   0  0  0  0  0  0  0  0  0  0  0  0
  141.2860   78.6000  223.1410 C   0  0  0  0  0  0  0  0  0  0  0  0
  141.6370   79.6000  222.2530 C   0  0  0  0  0  0  0  0  0  0  0  0
  141.7820   79.3260  220.9080 C   0  0  0  0  0  0  0  0  0  0  0  0
  141.5670   78.0320  220.4860 C   0  0  0  0  0  0  0  0  0  0  0  0
  139.6530   75.1710  220.6650 C   0  0  0  0  0  0  0  0  0  0  0  0
  138.9390   74.6550  221.8550 C   0  0  0  0  0  0  0  0  0  0  0  0
  138.8250   73.1720  222.0070 C   0  0  0  0  0  0  0  0  0  0  0  0
  138.7610   72.4980  220.7270 N   0  0  0  0  0  0  0  0  0  0  0  0
  139.0160   71.1550  220.4800 C   0  0  0  0  0  0  0  0  0  0  0  0
  138.9110   70.7220  219.2720 O   0  0  0  0  0  0  0  0  0  0  0  0
  139.4080   70.1290  221.4710 C   0  0  2  0  0  0  0  0  0  0  0  0
  139.7430   68.8670  220.7750 N   0  0  0  0  0  0  0  0  0  0  0  0
  138.3380   69.8010  222.4760 C   0  0  0  0  0  0  0  0  0  0  0  0
  138.8780   69.4380  223.7980 C   0  0  0  0  0  0  0  0  0  0  0  0
  138.7790   68.1150  224.1860 C   0  0  0  0  0  0  0  0  0  0  0  0
  139.2670   67.7660  225.3890 N   0  0  0  0  0  0  0  0  0  0  0  0
  139.8500   68.6230  226.2470 C   0  0  0  0  0  0  0  0  0  0  0  0
  140.3150   68.1340  227.4590 C   0  0  0  0  0  0  0  0  0  0  0  0
  140.9050   69.0490  228.3040 C   0  0  0  0  0  0  0  0  0  0  0  0
  141.0340   70.3790  227.9750 C   0  0  0  0  0  0  0  0  0  0  0  0
  140.5680   70.8690  226.7580 C   0  0  0  0  0  0  0  0  0  0  0  0
  139.9740   69.9590  225.9040 C   0  0  0  0  0  0  0  0  0  0  0  0
  139.4740   70.3310  224.6680 C   0  0  0  0  0  0  0  0  0  0  0  0
  138.3940   73.3830  219.5980 C   0  0  0  0  0  0  0  0  0  0  0  0
  139.6060   74.2790  219.4540 C   0  0  0  0  0  0  0  0  0  0  0  0
  144.7414   74.2442  221.1994 H   0  0  0  0  0  0  0  0  0  0  0  0
  144.2860   73.4599  219.6489 H   0  0  0  0  0  0  0  0  0  0  0  0
  145.3951   74.8729  219.6489 H   0  0  0  0  0  0  0  0  0  0  0  0
  143.6203   76.3274  220.4211 H   0  0  0  0  0  0  0  0  0  0  0  0
  143.0744   75.4045  218.9480 H   0  0  0  0  0  0  0  0  0  0  0  0
  140.7855   76.4892  223.4292 H   0  0  0  0  0  0  0  0  0  0  0  0
  141.1774   78.8465  224.2075 H   0  0  0  0  0  0  0  0  0  0  0  0
  141.8022   80.6231  222.6217 H   0  0  0  0  0  0  0  0  0  0  0  0
  142.0605   80.1161  220.1951 H   0  0  0  0  0  0  0  0  0  0  0  0
  141.6787   77.7943  219.4178 H   0  0  0  0  0  0  0  0  0  0  0  0
  139.0476   76.0531  220.4092 H   0  0  0  0  0  0  0  0  0  0  0  0
  139.4624   75.0373  222.7438 H   0  0  0  0  0  0  0  0  0  0  0  0
  137.9028   75.0027  221.7305 H   0  0  0  0  0  0  0  0  0  0  0  0
  139.7022   72.8033  222.5589 H   0  0  0  0  0  0  0  0  0  0  0  0
  137.8932   72.9572  222.5506 H   0  0  0  0  0  0  0  0  0  0  0  0
  140.2644   70.5600  222.0102 H   0  0  0  0  0  0  0  0  0  0  0  0
  140.1180   69.0200  219.8340 H   0  0  0  0  0  0  0  0  0  0  0  0
  138.9450   68.2030  220.8260 H   0  0  0  0  0  0  0  0  0  0  0  0
  137.6867   70.6797  222.5932 H   0  0  0  0  0  0  0  0  0  0  0  0
  137.7875   68.9279  222.0957 H   0  0  0  0  0  0  0  0  0  0  0  0
  138.3130   67.3672  223.5275 H   0  0  0  0  0  0  0  0  0  0  0  0
  140.2180   67.0726  227.7311 H   0  0  0  0  0  0  0  0  0  0  0  0
  141.2865   68.7038  229.2763 H   0  0  0  0  0  0  0  0  0  0  0  0
  141.5139   71.0673  228.6863 H   0  0  0  0  0  0  0  0  0  0  0  0
  140.6679   71.9308  226.4887 H   0  0  0  0  0  0  0  0  0  0  0  0
  139.5548   71.3852  224.3646 H   0  0  0  0  0  0  0  0  0  0  0  0
  138.2220   72.8013  218.6804 H   0  0  0  0  0  0  0  0  0  0  0  0
  137.4625   73.9414  219.7723 H   0  0  0  0  0  0  0  0  0  0  0  0
  140.5200   73.6693  219.4005 H   0  0  0  0  0  0  0  0  0  0  0  0
  139.5393   74.8774  218.5334 H   0  0  0  0  0  0  0  0  0  0  0  0
  1  2  1  0
  2  3  1  0
  3  4  2  0
  3  5  1  0
  5  6  1  0
  6  7  2  0
  7  8  1  0
  8  9  2  0
  9 10  1  0
 10 11  2  0
  5 12  1  0
 12 13  1  0
 13 14  1  0
 14 15  1  0
 15 16  1  0
 16 17  2  0
 16 18  1  0
 18 19  1  0
 18 20  1  0
 20 21  1  0
 21 22  2  0
 22 23  1  0
 23 24  2  0
 24 25  1  0
 25 26  2  0
 26 27  1  0
 27 28  2  0
 28 29  1  0
 29 30  2  0
 15 31  1  0
 31 32  1  0
 11  6  1  0
 32 12  1  0
 30 21  1  0
 29 24  1  0
  1 33  1  0
  1 34  1  0
  1 35  1  0
  2 36  1  0
  2 37  1  0
  7 38  1  0
  8 39  1  0
  9 40  1  0
 10 41  1  0
 11 42  1  0
 12 43  1  0
 13 44  1  0
 13 45  1  0
 14 46  1  0
 14 47  1  0
 18 48  1  1
 19 49  1  0
 19 50  1  0
 20 51  1  0
 20 52  1  0
 22 53  1  0
 25 54  1  0
 26 55  1  0
 27 56  1  0
 28 57  1  0
 30 58  1  0
 31 59  1  0
 31 60  1  0
 32 61  1  0
 32 62  1  0
M  END
>  <smiles>  (35) 
CCC(=O)N(c1ccccc1)C1CCN(C(=O)[C@H](N)Cc2cnc3ccccc3c2)CC1

>  <score_type>  (35) 
oracle

>  <origin>  (35) 
autodockgpu

>  <m_score__min__energy>  (35) 
-8.8699999999999992

>  <m_primary>  (35) 
energy

>  <rmsd>  (35) 
8.11837969501249

>  <m_score__min__rmsd>  (35) 
8.11837969501249

>  <meeko>  (35) 
{"free_energy": -7.57, "intermolecular_energy": -9.95, "internal_energy": -2.41, "cluster_size": 6, "cluster_id": 4, "rank_in_cluster": 4}

>  <energy>  (35) 
-7.94

>  <cluster_rmsd>  (35) 
0.86

>  <cluster>  (35) 
3

$$$$

     RDKit          3D

 62 65  0  0  0  0  0  0  0  0999 V2000
  145.9770   73.1060  221.2230 C   0  0  0  0  0  0  0  0  0  0  0  0
  144.7390   72.9340  220.3820 C   0  0  0  0  0  0  0  0  0  0  0  0
  145.0010   72.1990  219.1060 C   0  0  0  0  0  0  0  0  0  0  0  0
  145.9510   72.6510  218.4030 O   0  0  0  0  0  0  0  0  0  0  0  0
  144.2220   71.0740  218.7360 N   0  0  0  0  0  0  0  0  0  0  0  0
  144.8840   69.7860  218.7320 C   0  0  0  0  0  0  0  0  0  0  0  0
  145.6920   69.5030  217.6260 C   0  0  0  0  0  0  0  0  0  0  0  0
  146.3300   68.2590  217.6260 C   0  0  0  0  0  0  0  0  0  0  0  0
  146.1730   67.3580  218.6620 C   0  0  0  0  0  0  0  0  0  0  0  0
  145.3700   67.6630  219.7430 C   0  0  0  0  0  0  0  0  0  0  0  0
  144.7370   68.8870  219.7520 C   0  0  0  0  0  0  0  0  0  0  0  0
  142.8230   71.2080  218.3740 C   0  0  0  0  0  0  0  0  0  0  0  0
  142.4250   72.5460  217.8800 C   0  0  0  0  0  0  0  0  0  0  0  0
  141.6560   73.4290  218.8100 C   0  0  0  0  0  0  0  0  0  0  0  0
  140.8170   72.6680  219.7110 N   0  0  0  0  0  0  0  0  0  0  0  0
  140.2670   73.1090  220.9090 C   0  0  0  0  0  0  0  0  0  0  0  0
  139.5400   72.2930  221.5880 O   0  0  0  0  0  0  0  0  0  0  0  0
  140.4240   74.4480  221.5170 C   0  0  2  0  0  0  0  0  0  0  0  0
  139.5740   74.5490  222.7240 N   0  0  0  0  0  0  0  0  0  0  0  0
  140.0340   75.5860  220.6140 C   0  0  0  0  0  0  0  0  0  0  0  0
  140.6440   76.8690  221.0020 C   0  0  0  0  0  0  0  0  0  0  0  0
  141.0240   77.7280  219.9890 C   0  0  0  0  0  0  0  0  0  0  0  0
  141.5830   78.9040  220.3270 N   0  0  0  0  0  0  0  0  0  0  0  0
  141.7980   79.3030  221.5930 C   0  0  0  0  0  0  0  0  0  0  0  0
  142.3820   80.5430  221.8070 C   0  0  0  0  0  0  0  0  0  0  0  0
  142.5820   80.9090  223.1200 C   0  0  0  0  0  0  0  0  0  0  0  0
  142.2260   80.0980  224.1730 C   0  0  0  0  0  0  0  0  0  0  0  0
  141.6390   78.8540  223.9580 C   0  0  0  0  0  0  0  0  0  0  0  0
  141.4350   78.4780  222.6440 C   0  0  0  0  0  0  0  0  0  0  0  0
  140.8590   77.2640  222.3090 C   0  0  0  0  0  0  0  0  0  0  0  0
  140.5610   71.2780  219.2680 C   0  0  0  0  0  0  0  0  0  0  0  0
  141.9140   70.6150  219.4160 C   0  0  0  0  0  0  0  0  0  0  0  0
  145.7049   73.0682  222.2881 H   0  0  0  0  0  0  0  0  0  0  0  0
  146.6886   72.2981  220.9975 H   0  0  0  0  0  0  0  0  0  0  0  0
  146.4415   74.0773  220.9975 H   0  0  0  0  0  0  0  0  0  0  0  0
  143.9941   72.3720  220.9644 H   0  0  0  0  0  0  0  0  0  0  0  0
  144.3774   73.9384  220.1167 H   0  0  0  0  0  0  0  0  0  0  0  0
  145.8186   70.2199  216.8014 H   0  0  0  0  0  0  0  0  0  0  0  0
  146.9755   67.9897  216.7770 H   0  0  0  0  0  0  0  0  0  0  0  0
  146.6925   66.3891  218.6251 H   0  0  0  0  0  0  0  0  0  0  0  0
  145.2396   66.9510  220.5713 H   0  0  0  0  0  0  0  0  0  0  0  0
  144.0941   69.1488  220.6053 H   0  0  0  0  0  0  0  0  0  0  0  0
  142.6883   70.5907  217.4736 H   0  0  0  0  0  0  0  0  0  0  0  0
  143.3453   73.0816  217.6040 H   0  0  0  0  0  0  0  0  0  0  0  0
  141.7303   72.3417  217.0520 H   0  0  0  0  0  0  0  0  0  0  0  0
  142.3661   74.0239  219.4032 H   0  0  0  0  0  0  0  0  0  0  0  0
  141.0045   74.0754  218.2036 H   0  0  0  0  0  0  0  0  0  0  0  0
  141.4971   74.5400  221.7405 H   0  0  0  0  0  0  0  0  0  0  0  0
  139.5370   73.6750  223.2570 H   0  0  0  0  0  0  0  0  0  0  0  0
  138.6490   74.9550  222.4820 H   0  0  0  0  0  0  0  0  0  0  0  0
  140.3513   75.3437  219.5890 H   0  0  0  0  0  0  0  0  0  0  0  0
  138.9433   75.7058  220.6911 H   0  0  0  0  0  0  0  0  0  0  0  0
  140.8734   77.4574  218.9335 H   0  0  0  0  0  0  0  0  0  0  0  0
  142.6701   81.1992  220.9725 H   0  0  0  0  0  0  0  0  0  0  0  0
  143.0428   81.8846  223.3342 H   0  0  0  0  0  0  0  0  0  0  0  0
  142.4084   80.4386  225.2029 H   0  0  0  0  0  0  0  0  0  0  0  0
  141.3511   78.2009  224.7950 H   0  0  0  0  0  0  0  0  0  0  0  0
  140.5591   76.5835  223.1195 H   0  0  0  0  0  0  0  0  0  0  0  0
  139.8108   70.7914  219.9086 H   0  0  0  0  0  0  0  0  0  0  0  0
  140.1596   71.2173  218.2457 H   0  0  0  0  0  0  0  0  0  0  0  0
  142.3186   70.8068  220.4207 H   0  0  0  0  0  0  0  0  0  0  0  0
  141.8293   69.5264  219.2829 H   0  0  0  0  0  0  0  0  0  0  0  0
  1  2  1  0
  2  3  1  0
  3  4  2  0
  3  5  1  0
  5  6  1  0
  6  7  2  0
  7  8  1  0
  8  9  2  0
  9 10  1  0
 10 11  2  0
  5 12  1  0
 12 13  1  0
 13 14  1  0
 14 15  1  0
 15 16  1  0
 16 17  2  0
 16 18  1  0
 18 19  1  0
 18 20  1  0
 20 21  1  0
 21 22  2  0
 22 23  1  0
 23 24  2  0
 24 25  1  0
 25 26  2  0
 26 27  1  0
 27 28  2  0
 28 29  1  0
 29 30  2  0
 15 31  1  0
 31 32  1  0
 11  6  1  0
 32 12  1  0
 30 21  1  0
 29 24  1  0
  1 33  1  0
  1 34  1  0
  1 35  1  0
  2 36  1  0
  2 37  1  0
  7 38  1  0
  8 39  1  0
  9 40  1  0
 10 41  1  0
 11 42  1  0
 12 43  1  0
 13 44  1  0
 13 45  1  0
 14 46  1  0
 14 47  1  0
 18 48  1  1
 19 49  1  0
 19 50  1  0
 20 51  1  0
 20 52  1  0
 22 53  1  0
 25 54  1  0
 26 55  1  0
 27 56  1  0
 28 57  1  0
 30 58  1  0
 31 59  1  0
 31 60  1  0
 32 61  1  0
 32 62  1  0
M  END
>  <smiles>  (36) 
CCC(=O)N(c1ccccc1)C1CCN(C(=O)[C@H](N)Cc2cnc3ccccc3c2)CC1

>  <score_type>  (36) 
oracle

>  <origin>  (36) 
autodockgpu

>  <m_score__min__energy>  (36) 
-8.8699999999999992

>  <m_primary>  (36) 
energy

>  <rmsd>  (36) 
7.03372439076586

>  <m_score__min__rmsd>  (36) 
7.03372439076586

>  <meeko>  (36) 
{"free_energy": -8.0, "intermolecular_energy": -10.38, "internal_energy": -2.35, "cluster_size": 5, "cluster_id": 2, "rank_in_cluster": 4}

>  <energy>  (36) 
-7.91

>  <cluster_rmsd>  (36) 
0.82

>  <cluster>  (36) 
3

$$$$

     RDKit          3D

 62 65  0  0  0  0  0  0  0  0999 V2000
  146.2240   73.3930  221.5490 C   0  0  0  0  0  0  0  0  0  0  0  0
  144.9270   73.0570  220.8600 C   0  0  0  0  0  0  0  0  0  0  0  0
  145.1240   72.5200  219.4790 C   0  0  0  0  0  0  0  0  0  0  0  0
  146.0630   73.0520  218.8180 O   0  0  0  0  0  0  0  0  0  0  0  0
  144.2990   71.4860  218.9700 N   0  0  0  0  0  0  0  0  0  0  0  0
  144.8210   70.1360  219.0320 C   0  0  0  0  0  0  0  0  0  0  0  0
  144.2460   69.2880  219.9850 C   0  0  0  0  0  0  0  0  0  0  0  0
  144.7530   67.9860  220.0410 C   0  0  0  0  0  0  0  0  0  0  0  0
  145.7660   67.5590  219.2030 C   0  0  0  0  0  0  0  0  0  0  0  0
  146.3150   68.4170  218.2710 C   0  0  0  0  0  0  0  0  0  0  0  0
  145.8220   69.7020  218.2080 C   0  0  0  0  0  0  0  0  0  0  0  0
  142.9890   71.7670  218.4120 C   0  0  0  0  0  0  0  0  0  0  0  0
  142.7550   73.1790  218.0350 C   0  0  0  0  0  0  0  0  0  0  0  0
  141.8920   74.0040  218.9360 C   0  0  0  0  0  0  0  0  0  0  0  0
  140.8730   73.2090  219.5890 N   0  0  0  0  0  0  0  0  0  0  0  0
  140.1570   73.5480  220.7300 C   0  0  0  0  0  0  0  0  0  0  0  0
  139.2830   72.7160  221.1760 O   0  0  0  0  0  0  0  0  0  0  0  0
  140.2850   74.7910  221.5210 C   0  0  2  0  0  0  0  0  0  0  0  0
  139.2580   74.8120  222.5850 N   0  0  0  0  0  0  0  0  0  0  0  0
  140.1080   76.0530  220.7210 C   0  0  0  0  0  0  0  0  0  0  0  0
  140.2990   77.2760  221.5190 C   0  0  0  0  0  0  0  0  0  0  0  0
  139.1770   77.8530  222.0820 C   0  0  0  0  0  0  0  0  0  0  0  0
  139.3340   78.9700  222.8140 N   0  0  0  0  0  0  0  0  0  0  0  0
  140.5190   79.5670  223.0380 C   0  0  0  0  0  0  0  0  0  0  0  0
  140.5450   80.7170  223.8140 C   0  0  0  0  0  0  0  0  0  0  0  0
  141.7800   81.2930  224.0160 C   0  0  0  0  0  0  0  0  0  0  0  0
  142.9340   80.7660  223.4830 C   0  0  0  0  0  0  0  0  0  0  0  0
  142.9080   79.6120  222.7050 C   0  0  0  0  0  0  0  0  0  0  0  0
  141.6730   79.0280  222.4960 C   0  0  0  0  0  0  0  0  0  0  0  0
  141.5240   77.8780  221.7390 C   0  0  0  0  0  0  0  0  0  0  0  0
  140.6170   71.9030  218.9370 C   0  0  0  0  0  0  0  0  0  0  0  0
  141.8870   71.1270  219.2120 C   0  0  0  0  0  0  0  0  0  0  0  0
  146.0805   73.3558  222.6390 H   0  0  0  0  0  0  0  0  0  0  0  0
  146.9945   72.6648  221.2555 H   0  0  0  0  0  0  0  0  0  0  0  0
  146.5440   74.4037  221.2555 H   0  0  0  0  0  0  0  0  0  0  0  0
  144.3973   72.3010  221.4583 H   0  0  0  0  0  0  0  0  0  0  0  0
  144.3487   73.9886  220.7725 H   0  0  0  0  0  0  0  0  0  0  0  0
  143.4402   69.6266  220.6528 H   0  0  0  0  0  0  0  0  0  0  0  0
  144.3333   67.2808  220.7735 H   0  0  0  0  0  0  0  0  0  0  0  0
  146.1380   66.5266  219.2794 H   0  0  0  0  0  0  0  0  0  0  0  0
  147.1208   68.0851  217.5998 H   0  0  0  0  0  0  0  0  0  0  0  0
  146.2469   70.4004  217.4720 H   0  0  0  0  0  0  0  0  0  0  0  0
  142.9710   71.2700  217.4308 H   0  0  0  0  0  0  0  0  0  0  0  0
  143.7370   73.6714  217.9790 H   0  0  0  0  0  0  0  0  0  0  0  0
  142.1982   73.1259  217.0878 H   0  0  0  0  0  0  0  0  0  0  0  0
  142.5253   74.4705  219.7049 H   0  0  0  0  0  0  0  0  0  0  0  0
  141.3876   74.7638  218.3210 H   0  0  0  0  0  0  0  0  0  0  0  0
  141.3110   74.7768  221.9173 H   0  0  0  0  0  0  0  0  0  0  0  0
  139.5780   75.2820  223.4380 H   0  0  0  0  0  0  0  0  0  0  0  0
  138.8670   73.8610  222.7300 H   0  0  0  0  0  0  0  0  0  0  0  0
  140.8406   76.0527  219.9005 H   0  0  0  0  0  0  0  0  0  0  0  0
  139.0726   76.0627  220.3496 H   0  0  0  0  0  0  0  0  0  0  0  0
  138.1809   77.4100  221.9352 H   0  0  0  0  0  0  0  0  0  0  0  0
  139.6283   81.1459  224.2449 H   0  0  0  0  0  0  0  0  0  0  0  0
  141.8460   82.2066  224.6250 H   0  0  0  0  0  0  0  0  0  0  0  0
  143.8948   81.2659  223.6753 H   0  0  0  0  0  0  0  0  0  0  0  0
  143.8269   79.1851  222.2768 H   0  0  0  0  0  0  0  0  0  0  0  0
  142.4206   77.4231  221.2927 H   0  0  0  0  0  0  0  0  0  0  0  0
  139.7445   71.4033  219.3831 H   0  0  0  0  0  0  0  0  0  0  0  0
  140.3887   71.9925  217.8647 H   0  0  0  0  0  0  0  0  0  0  0  0
  142.1282   71.1689  220.2844 H   0  0  0  0  0  0  0  0  0  0  0  0
  141.7653   70.0710  218.9291 H   0  0  0  0  0  0  0  0  0  0  0  0
  1  2  1  0
  2  3  1  0
  3  4  2  0
  3  5  1  0
  5  6  1  0
  6  7  2  0
  7  8  1  0
  8  9  2  0
  9 10  1  0
 10 11  2  0
  5 12  1  0
 12 13  1  0
 13 14  1  0
 14 15  1  0
 15 16  1  0
 16 17  2  0
 16 18  1  0
 18 19  1  0
 18 20  1  0
 20 21  1  0
 21 22  2  0
 22 23  1  0
 23 24  2  0
 24 25  1  0
 25 26  2  0
 26 27  1  0
 27 28  2  0
 28 29  1  0
 29 30  2  0
 15 31  1  0
 31 32  1  0
 11  6  1  0
 32 12  1  0
 30 21  1  0
 29 24  1  0
  1 33  1  0
  1 34  1  0
  1 35  1  0
  2 36  1  0
  2 37  1  0
  7 38  1  0
  8 39  1  0
  9 40  1  0
 10 41  1  0
 11 42  1  0
 12 43  1  0
 13 44  1  0
 13 45  1  0
 14 46  1  0
 14 47  1  0
 18 48  1  1
 19 49  1  0
 19 50  1  0
 20 51  1  0
 20 52  1  0
 22 53  1  0
 25 54  1  0
 26 55  1  0
 27 56  1  0
 28 57  1  0
 30 58  1  0
 31 59  1  0
 31 60  1  0
 32 61  1  0
 32 62  1  0
M  END
>  <smiles>  (37) 
CCC(=O)N(c1ccccc1)C1CCN(C(=O)[C@H](N)Cc2cnc3ccccc3c2)CC1

>  <score_type>  (37) 
oracle

>  <origin>  (37) 
autodockgpu

>  <m_score__min__energy>  (37) 
-8.8699999999999992

>  <m_primary>  (37) 
energy

>  <rmsd>  (37) 
6.827236811976088

>  <m_score__min__rmsd>  (37) 
6.827236811976088

>  <meeko>  (37) 
{"free_energy": -8.4, "intermolecular_energy": -10.78, "internal_energy": -2.21, "cluster_size": 5, "cluster_id": 2, "rank_in_cluster": 1}

>  <energy>  (37) 
-7.87

>  <cluster_rmsd>  (37) 
0.0

>  <cluster>  (37) 
4

$$$$

     RDKit          3D

 62 65  0  0  0  0  0  0  0  0999 V2000
  142.4130   74.9730  220.4590 C   0  0  0  0  0  0  0  0  0  0  0  0
  142.9220   76.2820  219.9140 C   0  0  0  0  0  0  0  0  0  0  0  0
  141.8400   77.2990  219.7350 C   0  0  0  0  0  0  0  0  0  0  0  0
  141.7870   77.8410  218.5940 O   0  0  0  0  0  0  0  0  0  0  0  0
  140.9490   77.6130  220.7920 N   0  0  0  0  0  0  0  0  0  0  0  0
  141.3840   78.6150  221.7430 C   0  0  0  0  0  0  0  0  0  0  0  0
  141.7530   79.8570  221.2150 C   0  0  0  0  0  0  0  0  0  0  0  0
  142.1710   80.8220  222.1370 C   0  0  0  0  0  0  0  0  0  0  0  0
  142.2180   80.5650  223.4940 C   0  0  0  0  0  0  0  0  0  0  0  0
  141.8480   79.3300  223.9880 C   0  0  0  0  0  0  0  0  0  0  0  0
  141.4330   78.3730  223.0880 C   0  0  0  0  0  0  0  0  0  0  0  0
  139.6600   76.9580  220.9170 C   0  0  0  0  0  0  0  0  0  0  0  0
  139.4030   76.3160  222.2260 C   0  0  0  0  0  0  0  0  0  0  0  0
  139.5010   74.8260  222.3000 C   0  0  0  0  0  0  0  0  0  0  0  0
  139.1230   74.1940  221.0540 N   0  0  0  0  0  0  0  0  0  0  0  0
  139.4330   72.9030  220.6470 C   0  0  0  0  0  0  0  0  0  0  0  0
  139.0120   72.5020  219.4990 O   0  0  0  0  0  0  0  0  0  0  0  0
  140.2170   71.9000  221.4010 C   0  0  2  0  0  0  0  0  0  0  0  0
  141.0600   71.1230  220.4660 N   0  0  0  0  0  0  0  0  0  0  0  0
  139.3800   70.9070  222.1600 C   0  0  0  0  0  0  0  0  0  0  0  0
  139.7640   70.7920  223.5780 C   0  0  0  0  0  0  0  0  0  0  0  0
  140.3700   71.8850  224.1660 C   0  0  0  0  0  0  0  0  0  0  0  0
  140.7260   71.7970  225.4600 N   0  0  0  0  0  0  0  0  0  0  0  0
  140.5310   70.7090  226.2260 C   0  0  0  0  0  0  0  0  0  0  0  0
  140.9440   70.7470  227.5500 C   0  0  0  0  0  0  0  0  0  0  0  0
  140.7220   69.6100  228.2950 C   0  0  0  0  0  0  0  0  0  0  0  0
  140.1230   68.4890  227.7680 C   0  0  0  0  0  0  0  0  0  0  0  0
  139.7080   68.4510  226.4390 C   0  0  0  0  0  0  0  0  0  0  0  0
  139.9270   69.5870  225.6840 C   0  0  0  0  0  0  0  0  0  0  0  0
  139.5570   69.6650  224.3520 C   0  0  0  0  0  0  0  0  0  0  0  0
  138.3350   75.0660  220.1510 C   0  0  0  0  0  0  0  0  0  0  0  0
  139.3420   76.1100  219.7150 C   0  0  0  0  0  0  0  0  0  0  0  0
  142.4251   75.0041  221.5585 H   0  0  0  0  0  0  0  0  0  0  0  0
  141.3840   74.8051  220.1082 H   0  0  0  0  0  0  0  0  0  0  0  0
  143.0582   74.1541  220.1082 H   0  0  0  0  0  0  0  0  0  0  0  0
  143.6705   76.6853  220.6119 H   0  0  0  0  0  0  0  0  0  0  0  0
  143.3529   76.0809  218.9221 H   0  0  0  0  0  0  0  0  0  0  0  0
  141.7164   80.0630  220.1351 H   0  0  0  0  0  0  0  0  0  0  0  0
  142.4713   81.8150  221.7711 H   0  0  0  0  0  0  0  0  0  0  0  0
  142.5531   81.3512  224.1866 H   0  0  0  0  0  0  0  0  0  0  0  0
  141.8835   79.1168  225.0666 H   0  0  0  0  0  0  0  0  0  0  0  0
  141.1318   77.3837  223.4629 H   0  0  0  0  0  0  0  0  0  0  0  0
  138.9143   77.7667  220.9179 H   0  0  0  0  0  0  0  0  0  0  0  0
  140.1282   76.7290  222.9426 H   0  0  0  0  0  0  0  0  0  0  0  0
  138.3470   76.5364  222.4414 H   0  0  0  0  0  0  0  0  0  0  0  0
  140.5390   74.5500  222.5374 H   0  0  0  0  0  0  0  0  0  0  0  0
  138.8079   74.4788  223.0804 H   0  0  0  0  0  0  0  0  0  0  0  0
  140.8061   72.4788  222.1276 H   0  0  0  0  0  0  0  0  0  0  0  0
  142.0270   71.4620  220.4290 H   0  0  0  0  0  0  0  0  0  0  0  0
  140.5910   71.0340  219.5440 H   0  0  0  0  0  0  0  0  0  0  0  0
  138.3277   71.2229  222.1067 H   0  0  0  0  0  0  0  0  0  0  0  0
  139.5382   69.9221  221.6963 H   0  0  0  0  0  0  0  0  0  0  0  0
  140.5567   72.8038  223.5908 H   0  0  0  0  0  0  0  0  0  0  0  0
  141.4233   71.6379  227.9818 H   0  0  0  0  0  0  0  0  0  0  0  0
  141.0349   69.5977  229.3495 H   0  0  0  0  0  0  0  0  0  0  0  0
  139.9692   67.6073  228.4075 H   0  0  0  0  0  0  0  0  0  0  0  0
  139.2284   67.5585  226.0107 H   0  0  0  0  0  0  0  0  0  0  0  0
  139.0766   68.7907  223.8885 H   0  0  0  0  0  0  0  0  0  0  0  0
  137.9548   74.4997  219.2880 H   0  0  0  0  0  0  0  0  0  0  0  0
  137.4465   75.4982  220.6346 H   0  0  0  0  0  0  0  0  0  0  0  0
  140.2560   75.6205  219.3477 H   0  0  0  0  0  0  0  0  0  0  0  0
  138.9339   76.7273  218.9011 H   0  0  0  0  0  0  0  0  0  0  0  0
  1  2  1  0
  2  3  1  0
  3  4  2  0
  3  5  1  0
  5  6  1  0
  6  7  2  0
  7  8  1  0
  8  9  2  0
  9 10  1  0
 10 11  2  0
  5 12  1  0
 12 13  1  0
 13 14  1  0
 14 15  1  0
 15 16  1  0
 16 17  2  0
 16 18  1  0
 18 19  1  0
 18 20  1  0
 20 21  1  0
 21 22  2  0
 22 23  1  0
 23 24  2  0
 24 25  1  0
 25 26  2  0
 26 27  1  0
 27 28  2  0
 28 29  1  0
 29 30  2  0
 15 31  1  0
 31 32  1  0
 11  6  1  0
 32 12  1  0
 30 21  1  0
 29 24  1  0
  1 33  1  0
  1 34  1  0
  1 35  1  0
  2 36  1  0
  2 37  1  0
  7 38  1  0
  8 39  1  0
  9 40  1  0
 10 41  1  0
 11 42  1  0
 12 43  1  0
 13 44  1  0
 13 45  1  0
 14 46  1  0
 14 47  1  0
 18 48  1  1
 19 49  1  0
 19 50  1  0
 20 51  1  0
 20 52  1  0
 22 53  1  0
 25 54  1  0
 26 55  1  0
 27 56  1  0
 28 57  1  0
 30 58  1  0
 31 59  1  0
 31 60  1  0
 32 61  1  0
 32 62  1  0
M  END
>  <smiles>  (38) 
CCC(=O)N(c1ccccc1)C1CCN(C(=O)[C@H](N)Cc2cnc3ccccc3c2)CC1

>  <score_type>  (38) 
oracle

>  <origin>  (38) 
autodockgpu

>  <m_score__min__energy>  (38) 
-8.8699999999999992

>  <m_primary>  (38) 
energy

>  <rmsd>  (38) 
6.593779359269691

>  <m_score__min__rmsd>  (38) 
6.593779359269691

>  <meeko>  (38) 
{"free_energy": -7.55, "intermolecular_energy": -9.94, "internal_energy": -2.42, "cluster_size": 6, "cluster_id": 4, "rank_in_cluster": 5}

>  <energy>  (38) 
-7.81

>  <cluster_rmsd>  (38) 
1.02

>  <cluster>  (38) 
4

$$$$

     RDKit          3D

 62 65  0  0  0  0  0  0  0  0999 V2000
  143.6930   75.3530  219.4630 C   0  0  0  0  0  0  0  0  0  0  0  0
  142.7190   76.4740  219.7150 C   0  0  0  0  0  0  0  0  0  0  0  0
  141.7300   76.1540  220.7900 C   0  0  0  0  0  0  0  0  0  0  0  0
  141.8140   74.9900  221.2770 O   0  0  0  0  0  0  0  0  0  0  0  0
  140.7730   77.1100  221.2120 N   0  0  0  0  0  0  0  0  0  0  0  0
  141.2750   78.2960  221.8750 C   0  0  0  0  0  0  0  0  0  0  0  0
  141.5840   79.3860  221.0530 C   0  0  0  0  0  0  0  0  0  0  0  0
  142.0680   80.5290  221.6970 C   0  0  0  0  0  0  0  0  0  0  0  0
  142.2330   80.5810  223.0680 C   0  0  0  0  0  0  0  0  0  0  0  0
  141.9210   79.4910  223.8550 C   0  0  0  0  0  0  0  0  0  0  0  0
  141.4420   78.3600  223.2310 C   0  0  0  0  0  0  0  0  0  0  0  0
  139.3520   76.9090  220.9930 C   0  0  0  0  0  0  0  0  0  0  0  0
  138.5810   76.5050  222.1900 C   0  0  0  0  0  0  0  0  0  0  0  0
  138.1630   75.0730  222.2950 C   0  0  0  0  0  0  0  0  0  0  0  0
  137.9220   74.4800  220.9960 N   0  0  0  0  0  0  0  0  0  0  0  0
  137.8830   73.1250  220.6940 C   0  0  0  0  0  0  0  0  0  0  0  0
  137.6540   72.7740  219.4770 O   0  0  0  0  0  0  0  0  0  0  0  0
  138.0790   72.0000  221.6340 C   0  0  2  0  0  0  0  0  0  0  0  0
  137.3110   72.2470  222.8730 N   0  0  0  0  0  0  0  0  0  0  0  0
  139.5100   71.7820  222.0450 C   0  0  0  0  0  0  0  0  0  0  0  0
  139.6430   71.2120  223.3970 C   0  0  0  0  0  0  0  0  0  0  0  0
  139.0910   69.9650  223.6210 C   0  0  0  0  0  0  0  0  0  0  0  0
  139.2040   69.4290  224.8490 N   0  0  0  0  0  0  0  0  0  0  0  0
  139.8230   70.0290  225.8810 C   0  0  0  0  0  0  0  0  0  0  0  0
  139.8720   69.3680  227.1000 C   0  0  0  0  0  0  0  0  0  0  0  0
  140.5170   70.0210  228.1270 C   0  0  0  0  0  0  0  0  0  0  0  0
  141.0880   71.2630  227.9680 C   0  0  0  0  0  0  0  0  0  0  0  0
  141.0390   71.9260  226.7450 C   0  0  0  0  0  0  0  0  0  0  0  0
  140.3930   71.2790  225.7080 C   0  0  0  0  0  0  0  0  0  0  0  0
  140.2830   71.8420  224.4480 C   0  0  0  0  0  0  0  0  0  0  0  0
  137.7160   75.4690  219.9120 C   0  0  0  0  0  0  0  0  0  0  0  0
  139.0840   76.0970  219.7540 C   0  0  0  0  0  0  0  0  0  0  0  0
  144.0439   74.9491  220.4241 H   0  0  0  0  0  0  0  0  0  0  0  0
  143.1952   74.5565  218.8904 H   0  0  0  0  0  0  0  0  0  0  0  0
  144.5512   75.7347  218.8904 H   0  0  0  0  0  0  0  0  0  0  0  0
  143.2839   77.3696  220.0129 H   0  0  0  0  0  0  0  0  0  0  0  0
  142.1548   76.6369  218.7848 H   0  0  0  0  0  0  0  0  0  0  0  0
  141.4534   79.3457  219.9615 H   0  0  0  0  0  0  0  0  0  0  0  0
  142.3249   81.4127  221.0945 H   0  0  0  0  0  0  0  0  0  0  0  0
  142.6165   81.4995  223.5363 H   0  0  0  0  0  0  0  0  0  0  0  0
  142.0508   79.5243  224.9468 H   0  0  0  0  0  0  0  0  0  0  0  0
  141.1861   77.4817  223.8419 H   0  0  0  0  0  0  0  0  0  0  0  0
  138.9373   77.9075  220.7906 H   0  0  0  0  0  0  0  0  0  0  0  0
  139.1986   76.7327  223.0713 H   0  0  0  0  0  0  0  0  0  0  0  0
  137.6377   77.0661  222.1164 H   0  0  0  0  0  0  0  0  0  0  0  0
  138.9590   74.5072  222.8012 H   0  0  0  0  0  0  0  0  0  0  0  0
  137.2228   75.0351  222.8647 H   0  0  0  0  0  0  0  0  0  0  0  0
  137.7376   71.1063  221.0910 H   0  0  0  0  0  0  0  0  0  0  0  0
  136.3120   72.3960  222.6980 H   0  0  0  0  0  0  0  0  0  0  0  0
  137.7700   72.9840  223.4430 H   0  0  0  0  0  0  0  0  0  0  0  0
  139.9793   71.0933  221.3271 H   0  0  0  0  0  0  0  0  0  0  0  0
  140.0019   72.7658  222.0542 H   0  0  0  0  0  0  0  0  0  0  0  0
  138.5724   69.4247  222.8153 H   0  0  0  0  0  0  0  0  0  0  0  0
  139.4196   68.3750  227.2389 H   0  0  0  0  0  0  0  0  0  0  0  0
  140.5779   69.5318  229.1103 H   0  0  0  0  0  0  0  0  0  0  0  0
  141.5916   71.7399  228.8218 H   0  0  0  0  0  0  0  0  0  0  0  0
  141.4932   72.9187  226.6099 H   0  0  0  0  0  0  0  0  0  0  0  0
  140.7244   72.8347  224.2755 H   0  0  0  0  0  0  0  0  0  0  0  0
  137.3988   74.9748  218.9819 H   0  0  0  0  0  0  0  0  0  0  0  0
  136.9281   76.2019  220.1401 H   0  0  0  0  0  0  0  0  0  0  0  0
  139.8476   75.3127  219.6459 H   0  0  0  0  0  0  0  0  0  0  0  0
  139.1182   76.7334  218.8574 H   0  0  0  0  0  0  0  0  0  0  0  0
  1  2  1  0
  2  3  1  0
  3  4  2  0
  3  5  1  0
  5  6  1  0
  6  7  2  0
  7  8  1  0
  8  9  2  0
  9 10  1  0
 10 11  2  0
  5 12  1  0
 12 13  1  0
 13 14  1  0
 14 15  1  0
 15 16  1  0
 16 17  2  0
 16 18  1  0
 18 19  1  0
 18 20  1  0
 20 21  1  0
 21 22  2  0
 22 23  1  0
 23 24  2  0
 24 25  1  0
 25 26  2  0
 26 27  1  0
 27 28  2  0
 28 29  1  0
 29 30  2  0
 15 31  1  0
 31 32  1  0
 11  6  1  0
 32 12  1  0
 30 21  1  0
 29 24  1  0
  1 33  1  0
  1 34  1  0
  1 35  1  0
  2 36  1  0
  2 37  1  0
  7 38  1  0
  8 39  1  0
  9 40  1  0
 10 41  1  0
 11 42  1  0
 12 43  1  0
 13 44  1  0
 13 45  1  0
 14 46  1  0
 14 47  1  0
 18 48  1  6
 19 49  1  0
 19 50  1  0
 20 51  1  0
 20 52  1  0
 22 53  1  0
 25 54  1  0
 26 55  1  0
 27 56  1  0
 28 57  1  0
 30 58  1  0
 31 59  1  0
 31 60  1  0
 32 61  1  0
 32 62  1  0
M  END
>  <smiles>  (39) 
CCC(=O)N(c1ccccc1)C1CCN(C(=O)[C@H](N)Cc2cnc3ccccc3c2)CC1

>  <score_type>  (39) 
oracle

>  <origin>  (39) 
autodockgpu

>  <m_score__min__energy>  (39) 
-8.8699999999999992

>  <m_primary>  (39) 
energy

>  <rmsd>  (39) 
6.608597675246508

>  <m_score__min__rmsd>  (39) 
6.608597675246508

>  <meeko>  (39) 
{"free_energy": -8.25, "intermolecular_energy": -10.64, "internal_energy": -1.85, "cluster_size": 25, "cluster_id": 1, "rank_in_cluster": 17}

>  <energy>  (39) 
-7.66

>  <cluster_rmsd>  (39) 
0.72

>  <cluster>  (39) 
4

$$$$

     RDKit          3D

 62 65  0  0  0  0  0  0  0  0999 V2000
  145.9720   73.0730  221.6350 C   0  0  0  0  0  0  0  0  0  0  0  0
  146.1840   73.7720  220.3170 C   0  0  0  0  0  0  0  0  0  0  0  0
  145.3350   73.2140  219.2190 C   0  0  0  0  0  0  0  0  0  0  0  0
  145.9280   72.4380  218.4150 O   0  0  0  0  0  0  0  0  0  0  0  0
  143.9620   73.5500  219.1130 N   0  0  0  0  0  0  0  0  0  0  0  0
  143.6450   74.9210  218.7700 C   0  0  0  0  0  0  0  0  0  0  0  0
  143.7170   75.2570  217.4140 C   0  0  0  0  0  0  0  0  0  0  0  0
  143.4090   76.5810  217.0860 C   0  0  0  0  0  0  0  0  0  0  0  0
  143.0530   77.5080  218.0480 C   0  0  0  0  0  0  0  0  0  0  0  0
  142.9900   77.1490  219.3790 C   0  0  0  0  0  0  0  0  0  0  0  0
  143.2910   75.8460  219.7120 C   0  0  0  0  0  0  0  0  0  0  0  0
  142.9210   72.5650  219.3390 C   0  0  0  0  0  0  0  0  0  0  0  0
  141.6180   72.8680  218.7030 C   0  0  0  0  0  0  0  0  0  0  0  0
  140.5160   73.3640  219.5830 C   0  0  0  0  0  0  0  0  0  0  0  0
  140.6030   72.8210  220.9220 N   0  0  0  0  0  0  0  0  0  0  0  0
  139.9960   73.3240  222.0660 C   0  0  0  0  0  0  0  0  0  0  0  0
  140.1830   72.7100  223.1810 O   0  0  0  0  0  0  0  0  0  0  0  0
  139.1330   74.5220  222.1590 C   0  0  2  0  0  0  0  0  0  0  0  0
  137.7250   74.1070  222.3390 N   0  0  0  0  0  0  0  0  0  0  0  0
  139.1740   75.4070  220.9430 C   0  0  0  0  0  0  0  0  0  0  0  0
  139.8660   76.6860  221.1820 C   0  0  0  0  0  0  0  0  0  0  0  0
  139.8480   77.6210  220.1650 C   0  0  0  0  0  0  0  0  0  0  0  0
  140.4740   78.7940  220.3670 N   0  0  0  0  0  0  0  0  0  0  0  0
  141.1210   79.1200  221.5010 C   0  0  0  0  0  0  0  0  0  0  0  0
  141.7270   80.3660  221.5830 C   0  0  0  0  0  0  0  0  0  0  0  0
  142.3760   80.6560  222.7630 C   0  0  0  0  0  0  0  0  0  0  0  0
  142.4290   79.7670  223.8120 C   0  0  0  0  0  0  0  0  0  0  0  0
  141.8210   78.5180  223.7290 C   0  0  0  0  0  0  0  0  0  0  0  0
  141.1670   78.2180  222.5490 C   0  0  0  0  0  0  0  0  0  0  0  0
  140.5270   77.0060  222.3530 C   0  0  0  0  0  0  0  0  0  0  0  0
  141.4520   71.6110  221.0280 C   0  0  0  0  0  0  0  0  0  0  0  0
  142.8470   72.1460  220.7820 C   0  0  0  0  0  0  0  0  0  0  0  0
  146.1837   73.7710  222.4584 H   0  0  0  0  0  0  0  0  0  0  0  0
  144.9293   72.7296  221.7043 H   0  0  0  0  0  0  0  0  0  0  0  0
  146.6483   72.2082  221.7043 H   0  0  0  0  0  0  0  0  0  0  0  0
  145.9409   74.8375  220.4417 H   0  0  0  0  0  0  0  0  0  0  0  0
  147.2353   73.6229  220.0296 H   0  0  0  0  0  0  0  0  0  0  0  0
  144.0003   74.5203  216.6479 H   0  0  0  0  0  0  0  0  0  0  0  0
  143.4512   76.8940  216.0323 H   0  0  0  0  0  0  0  0  0  0  0  0
  142.8180   78.5404  217.7499 H   0  0  0  0  0  0  0  0  0  0  0  0
  142.7081   77.8806  220.1506 H   0  0  0  0  0  0  0  0  0  0  0  0
  143.2450   75.5411  220.7679 H   0  0  0  0  0  0  0  0  0  0  0  0
  143.2343   71.6682  218.7845 H   0  0  0  0  0  0  0  0  0  0  0  0
  141.7971   73.6357  217.9358 H   0  0  0  0  0  0  0  0  0  0  0  0
  141.2593   71.8987  218.3264 H   0  0  0  0  0  0  0  0  0  0  0  0
  140.5743   74.4609  219.6405 H   0  0  0  0  0  0  0  0  0  0  0  0
  139.5606   73.0378  219.1463 H   0  0  0  0  0  0  0  0  0  0  0  0
  139.5224   75.0947  223.0136 H   0  0  0  0  0  0  0  0  0  0  0  0
  137.1480   74.8360  222.7700 H   0  0  0  0  0  0  0  0  0  0  0  0
  137.6770   73.1790  222.8040 H   0  0  0  0  0  0  0  0  0  0  0  0
  139.6972   74.8710  220.1374 H   0  0  0  0  0  0  0  0  0  0  0  0
  138.1338   75.6422  220.6732 H   0  0  0  0  0  0  0  0  0  0  0  0
  139.3350   77.4114  219.2148 H   0  0  0  0  0  0  0  0  0  0  0  0
  141.6910   81.0837  220.7501 H   0  0  0  0  0  0  0  0  0  0  0  0
  142.8695   81.6332  222.8705 H   0  0  0  0  0  0  0  0  0  0  0  0
  142.9614   80.0486  224.7325 H   0  0  0  0  0  0  0  0  0  0  0  0
  141.8591   77.8027  224.5638 H   0  0  0  0  0  0  0  0  0  0  0  0
  140.5454   76.2647  223.1654 H   0  0  0  0  0  0  0  0  0  0  0  0
  141.3730   71.1599  222.0281 H   0  0  0  0  0  0  0  0  0  0  0  0
  141.1632   70.8177  220.3229 H   0  0  0  0  0  0  0  0  0  0  0  0
  143.0385   73.0105  221.4347 H   0  0  0  0  0  0  0  0  0  0  0  0
  143.6020   71.3769  221.0020 H   0  0  0  0  0  0  0  0  0  0  0  0
  1  2  1  0
  2  3  1  0
  3  4  2  0
  3  5  1  0
  5  6  1  0
  6  7  2  0
  7  8  1  0
  8  9  2  0
  9 10  1  0
 10 11  2  0
  5 12  1  0
 12 13  1  0
 13 14  1  0
 14 15  1  0
 15 16  1  0
 16 17  2  0
 16 18  1  0
 18 19  1  0
 18 20  1  0
 20 21  1  0
 21 22  2  0
 22 23  1  0
 23 24  2  0
 24 25  1  0
 25 26  2  0
 26 27  1  0
 27 28  2  0
 28 29  1  0
 29 30  2  0
 15 31  1  0
 31 32  1  0
 11  6  1  0
 32 12  1  0
 30 21  1  0
 29 24  1  0
  1 33  1  0
  1 34  1  0
  1 35  1  0
  2 36  1  0
  2 37  1  0
  7 38  1  0
  8 39  1  0
  9 40  1  0
 10 41  1  0
 11 42  1  0
 12 43  1  0
 13 44  1  0
 13 45  1  0
 14 46  1  0
 14 47  1  0
 18 48  1  1
 19 49  1  0
 19 50  1  0
 20 51  1  0
 20 52  1  0
 22 53  1  0
 25 54  1  0
 26 55  1  0
 27 56  1  0
 28 57  1  0
 30 58  1  0
 31 59  1  0
 31 60  1  0
 32 61  1  0
 32 62  1  0
M  END
>  <smiles>  (40) 
CCC(=O)N(c1ccccc1)C1CCN(C(=O)[C@H](N)Cc2cnc3ccccc3c2)CC1

>  <score_type>  (40) 
oracle

>  <origin>  (40) 
autodockgpu

>  <m_score__min__energy>  (40) 
-8.8699999999999992

>  <m_primary>  (40) 
energy

>  <rmsd>  (40) 
6.580105002150351

>  <m_score__min__rmsd>  (40) 
6.580105002150351

>  <meeko>  (40) 
{"free_energy": -7.67, "intermolecular_energy": -10.06, "internal_energy": -2.66, "cluster_size": 7, "cluster_id": 5, "rank_in_cluster": 6}

>  <energy>  (40) 
-7.57

>  <cluster_rmsd>  (40) 
1.94

>  <cluster>  (40) 
4

$$$$

     RDKit          3D

 62 65  0  0  0  0  0  0  0  0999 V2000
  146.3520   73.0780  221.8120 C   0  0  0  0  0  0  0  0  0  0  0  0
  145.7930   74.0820  220.8360 C   0  0  0  0  0  0  0  0  0  0  0  0
  145.2540   73.4470  219.5940 C   0  0  0  0  0  0  0  0  0  0  0  0
  146.0470   72.6660  218.9940 O   0  0  0  0  0  0  0  0  0  0  0  0
  143.9380   73.7220  219.1440 N   0  0  0  0  0  0  0  0  0  0  0  0
  143.7120   75.0080  218.5170 C   0  0  0  0  0  0  0  0  0  0  0  0
  143.2730   76.0410  219.3530 C   0  0  0  0  0  0  0  0  0  0  0  0
  143.0570   77.2810  218.7440 C   0  0  0  0  0  0  0  0  0  0  0  0
  143.2650   77.4780  217.3920 C   0  0  0  0  0  0  0  0  0  0  0  0
  143.6990   76.4410  216.5900 C   0  0  0  0  0  0  0  0  0  0  0  0
  143.9160   75.2150  217.1810 C   0  0  0  0  0  0  0  0  0  0  0  0
  142.8650   72.7590  219.3050 C   0  0  0  0  0  0  0  0  0  0  0  0
  141.5840   73.1300  218.6620 C   0  0  0  0  0  0  0  0  0  0  0  0
  140.4790   73.6170  219.5440 C   0  0  0  0  0  0  0  0  0  0  0  0
  140.5250   73.0110  220.8580 N   0  0  0  0  0  0  0  0  0  0  0  0
  139.9110   73.4780  222.0130 C   0  0  0  0  0  0  0  0  0  0  0  0
  140.0590   72.8080  223.1010 O   0  0  0  0  0  0  0  0  0  0  0  0
  139.0810   74.6950  222.1450 C   0  0  2  0  0  0  0  0  0  0  0  0
  137.6670   74.3130  222.3470 N   0  0  0  0  0  0  0  0  0  0  0  0
  139.1200   75.6020  220.9460 C   0  0  0  0  0  0  0  0  0  0  0  0
  139.9100   76.8250  221.1720 C   0  0  0  0  0  0  0  0  0  0  0  0
  140.0620   77.6930  220.1070 C   0  0  0  0  0  0  0  0  0  0  0  0
  140.7790   78.8140  220.2960 N   0  0  0  0  0  0  0  0  0  0  0  0
  141.3640   79.1510  221.4600 C   0  0  0  0  0  0  0  0  0  0  0  0
  142.0780   80.3390  221.5240 C   0  0  0  0  0  0  0  0  0  0  0  0
  142.6580   80.6420  222.7360 C   0  0  0  0  0  0  0  0  0  0  0  0
  142.5440   79.8190  223.8330 C   0  0  0  0  0  0  0  0  0  0  0  0
  141.8270   78.6270  223.7690 C   0  0  0  0  0  0  0  0  0  0  0  0
  141.2420   78.3150  222.5570 C   0  0  0  0  0  0  0  0  0  0  0  0
  140.5060   77.1560  222.3740 C   0  0  0  0  0  0  0  0  0  0  0  0
  141.3370   71.7720  220.9220 C   0  0  0  0  0  0  0  0  0  0  0  0
  142.7510   72.2770  220.7260 C   0  0  0  0  0  0  0  0  0  0  0  0
  146.1614   73.4204  222.8398 H   0  0  0  0  0  0  0  0  0  0  0  0
  145.8665   72.1036  221.6541 H   0  0  0  0  0  0  0  0  0  0  0  0
  147.4360   72.9775  221.6541 H   0  0  0  0  0  0  0  0  0  0  0  0
  144.9800   74.6356  221.3286 H   0  0  0  0  0  0  0  0  0  0  0  0
  146.6171   74.7462  220.5367 H   0  0  0  0  0  0  0  0  0  0  0  0
  143.1071   75.8860  220.4293 H   0  0  0  0  0  0  0  0  0  0  0  0
  142.7113   78.1247  219.3593 H   0  0  0  0  0  0  0  0  0  0  0  0
  143.0833   78.4692  216.9510 H   0  0  0  0  0  0  0  0  0  0  0  0
  143.8663   76.5889  215.5129 H   0  0  0  0  0  0  0  0  0  0  0  0
  144.2640   74.3773  216.5588 H   0  0  0  0  0  0  0  0  0  0  0  0
  143.1629   71.8800  218.7146 H   0  0  0  0  0  0  0  0  0  0  0  0
  141.7999   73.9271  217.9353 H   0  0  0  0  0  0  0  0  0  0  0  0
  141.2049   72.1900  218.2347 H   0  0  0  0  0  0  0  0  0  0  0  0
  140.5667   74.7081  219.6531 H   0  0  0  0  0  0  0  0  0  0  0  0
  139.5235   73.3388  219.0755 H   0  0  0  0  0  0  0  0  0  0  0  0
  139.5028   75.2412  223.0016 H   0  0  0  0  0  0  0  0  0  0  0  0
  137.1160   75.0510  222.7970 H   0  0  0  0  0  0  0  0  0  0  0  0
  137.6050   73.3810  222.8020 H   0  0  0  0  0  0  0  0  0  0  0  0
  139.5625   75.0500  220.1037 H   0  0  0  0  0  0  0  0  0  0  0  0
  138.0860   75.9134  220.7365 H   0  0  0  0  0  0  0  0  0  0  0  0
  139.6078   77.4719  219.1298 H   0  0  0  0  0  0  0  0  0  0  0  0
  142.1757   81.0036  220.6529 H   0  0  0  0  0  0  0  0  0  0  0  0
  143.2328   81.5751  222.8304 H   0  0  0  0  0  0  0  0  0  0  0  0
  143.0281   80.1080  224.7775 H   0  0  0  0  0  0  0  0  0  0  0  0
  141.7309   77.9651  224.6423 H   0  0  0  0  0  0  0  0  0  0  0  0
  140.3906   76.4677  223.2242 H   0  0  0  0  0  0  0  0  0  0  0  0
  141.2262   71.2773  221.8982 H   0  0  0  0  0  0  0  0  0  0  0  0
  141.0390   71.0209  220.1756 H   0  0  0  0  0  0  0  0  0  0  0  0
  142.9541   73.1050  221.4211 H   0  0  0  0  0  0  0  0  0  0  0  0
  143.4796   71.4770  220.9239 H   0  0  0  0  0  0  0  0  0  0  0  0
  1  2  1  0
  2  3  1  0
  3  4  2  0
  3  5  1  0
  5  6  1  0
  6  7  2  0
  7  8  1  0
  8  9  2  0
  9 10  1  0
 10 11  2  0
  5 12  1  0
 12 13  1  0
 13 14  1  0
 14 15  1  0
 15 16  1  0
 16 17  2  0
 16 18  1  0
 18 19  1  0
 18 20  1  0
 20 21  1  0
 21 22  2  0
 22 23  1  0
 23 24  2  0
 24 25  1  0
 25 26  2  0
 26 27  1  0
 27 28  2  0
 28 29  1  0
 29 30  2  0
 15 31  1  0
 31 32  1  0
 11  6  1  0
 32 12  1  0
 30 21  1  0
 29 24  1  0
  1 33  1  0
  1 34  1  0
  1 35  1  0
  2 36  1  0
  2 37  1  0
  7 38  1  0
  8 39  1  0
  9 40  1  0
 10 41  1  0
 11 42  1  0
 12 43  1  0
 13 44  1  0
 13 45  1  0
 14 46  1  0
 14 47  1  0
 18 48  1  1
 19 49  1  0
 19 50  1  0
 20 51  1  0
 20 52  1  0
 22 53  1  0
 25 54  1  0
 26 55  1  0
 27 56  1  0
 28 57  1  0
 30 58  1  0
 31 59  1  0
 31 60  1  0
 32 61  1  0
 32 62  1  0
M  END
>  <smiles>  (41) 
CCC(=O)N(c1ccccc1)C1CCN(C(=O)[C@H](N)Cc2cnc3ccccc3c2)CC1

>  <score_type>  (41) 
oracle

>  <origin>  (41) 
autodockgpu

>  <m_score__min__energy>  (41) 
-8.8699999999999992

>  <m_primary>  (41) 
energy

>  <rmsd>  (41) 
6.488402929417611

>  <m_score__min__rmsd>  (41) 
6.488402929417611

>  <meeko>  (41) 
{"free_energy": -7.85, "intermolecular_energy": -10.24, "internal_energy": -2.52, "cluster_size": 7, "cluster_id": 5, "rank_in_cluster": 1}

>  <energy>  (41) 
-7.55

>  <cluster_rmsd>  (41) 
0.76

>  <cluster>  (41) 
4

$$$$

     RDKit          3D

 62 65  0  0  0  0  0  0  0  0999 V2000
  146.0010   73.3730  221.2540 C   0  0  0  0  0  0  0  0  0  0  0  0
  144.8070   72.6010  220.7540 C   0  0  0  0  0  0  0  0  0  0  0  0
  145.0250   72.0040  219.4010 C   0  0  0  0  0  0  0  0  0  0  0  0
  145.9490   72.5310  218.7170 O   0  0  0  0  0  0  0  0  0  0  0  0
  144.2340   70.9200  218.9430 N   0  0  0  0  0  0  0  0  0  0  0  0
  144.8590   69.6140  218.9170 C   0  0  0  0  0  0  0  0  0  0  0  0
  144.5180   68.7400  219.9550 C   0  0  0  0  0  0  0  0  0  0  0  0
  145.1220   67.4790  219.9260 C   0  0  0  0  0  0  0  0  0  0  0  0
  146.0070   67.1150  218.9290 C   0  0  0  0  0  0  0  0  0  0  0  0
  146.3260   67.9970  217.9170 C   0  0  0  0  0  0  0  0  0  0  0  0
  145.7350   69.2420  217.9360 C   0  0  0  0  0  0  0  0  0  0  0  0
  142.8600   71.1120  218.5160 C   0  0  0  0  0  0  0  0  0  0  0  0
  142.5580   72.4450  217.9460 C   0  0  0  0  0  0  0  0  0  0  0  0
  141.8030   73.4110  218.8010 C   0  0  0  0  0  0  0  0  0  0  0  0
  140.8870   72.7410  219.7000 N   0  0  0  0  0  0  0  0  0  0  0  0
  140.3160   73.2670  220.8520 C   0  0  0  0  0  0  0  0  0  0  0  0
  139.5180   72.5250  221.5350 O   0  0  0  0  0  0  0  0  0  0  0  0
  140.5230   74.6240  221.4040 C   0  0  2  0  0  0  0  0  0  0  0  0
  139.5890   74.8510  222.5280 N   0  0  0  0  0  0  0  0  0  0  0  0
  140.2940   75.7340  220.4160 C   0  0  0  0  0  0  0  0  0  0  0  0
  140.8130   77.0340  220.8760 C   0  0  0  0  0  0  0  0  0  0  0  0
  141.0430   78.0050  219.9190 C   0  0  0  0  0  0  0  0  0  0  0  0
  141.5160   79.1970  220.3220 N   0  0  0  0  0  0  0  0  0  0  0  0
  141.7840   79.5110  221.6030 C   0  0  0  0  0  0  0  0  0  0  0  0
  142.2690   80.7800  221.8860 C   0  0  0  0  0  0  0  0  0  0  0  0
  142.5270   81.0560  223.2110 C   0  0  0  0  0  0  0  0  0  0  0  0
  142.3200   80.1320  224.2100 C   0  0  0  0  0  0  0  0  0  0  0  0
  141.8330   78.8590  223.9250 C   0  0  0  0  0  0  0  0  0  0  0  0
  141.5710   78.5730  222.5980 C   0  0  0  0  0  0  0  0  0  0  0  0
  141.0840   77.3410  222.1960 C   0  0  0  0  0  0  0  0  0  0  0  0
  140.5720   71.3470  219.3090 C   0  0  0  0  0  0  0  0  0  0  0  0
  141.8790   70.6190  219.5450 C   0  0  0  0  0  0  0  0  0  0  0  0
  146.0026   73.3740  222.3540 H   0  0  0  0  0  0  0  0  0  0  0  0
  146.9236   72.9000  220.8865 H   0  0  0  0  0  0  0  0  0  0  0  0
  145.9483   74.4084  220.8865 H   0  0  0  0  0  0  0  0  0  0  0  0
  144.5908   71.7898  221.4648 H   0  0  0  0  0  0  0  0  0  0  0  0
  143.9681   73.3077  220.6716 H   0  0  0  0  0  0  0  0  0  0  0  0
  143.8141   69.0286  220.7495 H   0  0  0  0  0  0  0  0  0  0  0  0
  144.8856   66.7555  220.7202 H   0  0  0  0  0  0  0  0  0  0  0  0
  146.4612   66.1132  218.9423 H   0  0  0  0  0  0  0  0  0  0  0  0
  147.0299   67.7154  217.1200 H   0  0  0  0  0  0  0  0  0  0  0  0
  145.9758   69.9585  217.1368 H   0  0  0  0  0  0  0  0  0  0  0  0
  142.7260   70.4612  217.6393 H   0  0  0  0  0  0  0  0  0  0  0  0
  143.5174   72.9163  217.6862 H   0  0  0  0  0  0  0  0  0  0  0  0
  141.8869   72.2398  217.0989 H   0  0  0  0  0  0  0  0  0  0  0  0
  142.5209   73.9946  219.3960 H   0  0  0  0  0  0  0  0  0  0  0  0
  141.2129   74.0611  218.1382 H   0  0  0  0  0  0  0  0  0  0  0  0
  141.5784   74.6531  221.7127 H   0  0  0  0  0  0  0  0  0  0  0  0
  139.4500   74.0140  223.1040 H   0  0  0  0  0  0  0  0  0  0  0  0
  138.7160   75.2980  222.1880 H   0  0  0  0  0  0  0  0  0  0  0  0
  140.7945   75.4714  219.4723 H   0  0  0  0  0  0  0  0  0  0  0  0
  139.2066   75.8413  220.2897 H   0  0  0  0  0  0  0  0  0  0  0  0
  140.8441   77.8072  218.8554 H   0  0  0  0  0  0  0  0  0  0  0  0
  142.4384   81.5255  221.0951 H   0  0  0  0  0  0  0  0  0  0  0  0
  142.9122   82.0506  223.4802 H   0  0  0  0  0  0  0  0  0  0  0  0
  142.5433   80.4041  225.2522 H   0  0  0  0  0  0  0  0  0  0  0  0
  141.6646   78.1159  224.7184 H   0  0  0  0  0  0  0  0  0  0  0  0
  140.9047   76.5718  222.9616 H   0  0  0  0  0  0  0  0  0  0  0  0
  139.7702   70.9324  219.9377 H   0  0  0  0  0  0  0  0  0  0  0  0
  140.2100   71.2601  218.2739 H   0  0  0  0  0  0  0  0  0  0  0  0
  142.2534   70.8365  220.5562 H   0  0  0  0  0  0  0  0  0  0  0  0
  141.7391   69.5313  219.4589 H   0  0  0  0  0  0  0  0  0  0  0  0
  1  2  1  0
  2  3  1  0
  3  4  2  0
  3  5  1  0
  5  6  1  0
  6  7  2  0
  7  8  1  0
  8  9  2  0
  9 10  1  0
 10 11  2  0
  5 12  1  0
 12 13  1  0
 13 14  1  0
 14 15  1  0
 15 16  1  0
 16 17  2  0
 16 18  1  0
 18 19  1  0
 18 20  1  0
 20 21  1  0
 21 22  2  0
 22 23  1  0
 23 24  2  0
 24 25  1  0
 25 26  2  0
 26 27  1  0
 27 28  2  0
 28 29  1  0
 29 30  2  0
 15 31  1  0
 31 32  1  0
 11  6  1  0
 32 12  1  0
 30 21  1  0
 29 24  1  0
  1 33  1  0
  1 34  1  0
  1 35  1  0
  2 36  1  0
  2 37  1  0
  7 38  1  0
  8 39  1  0
  9 40  1  0
 10 41  1  0
 11 42  1  0
 12 43  1  0
 13 44  1  0
 13 45  1  0
 14 46  1  0
 14 47  1  0
 18 48  1  1
 19 49  1  0
 19 50  1  0
 20 51  1  0
 20 52  1  0
 22 53  1  0
 25 54  1  0
 26 55  1  0
 27 56  1  0
 28 57  1  0
 30 58  1  0
 31 59  1  0
 31 60  1  0
 32 61  1  0
 32 62  1  0
M  END
>  <smiles>  (42) 
CCC(=O)N(c1ccccc1)C1CCN(C(=O)[C@H](N)Cc2cnc3ccccc3c2)CC1

>  <score_type>  (42) 
oracle

>  <origin>  (42) 
autodockgpu

>  <m_score__min__energy>  (42) 
-8.8699999999999992

>  <m_primary>  (42) 
energy

>  <rmsd>  (42) 
7.053463563667503

>  <m_score__min__rmsd>  (42) 
7.053463563667503

>  <meeko>  (42) 
{"free_energy": -8.11, "intermolecular_energy": -10.49, "internal_energy": -2.29, "cluster_size": 5, "cluster_id": 2, "rank_in_cluster": 3}

>  <energy>  (42) 
-7.53

>  <cluster_rmsd>  (42) 
1.14

>  <cluster>  (42) 
4

$$$$

     RDKit          3D

 62 65  0  0  0  0  0  0  0  0999 V2000
  143.2280   74.3970  220.4300 C   0  0  0  0  0  0  0  0  0  0  0  0
  141.9180   75.0210  220.8370 C   0  0  0  0  0  0  0  0  0  0  0  0
  141.8360   76.4750  220.4980 C   0  0  0  0  0  0  0  0  0  0  0  0
  142.6710   76.8800  219.6380 O   0  0  0  0  0  0  0  0  0  0  0  0
  140.8780   77.3180  221.1140 N   0  0  0  0  0  0  0  0  0  0  0  0
  141.3830   78.4230  221.9030 C   0  0  0  0  0  0  0  0  0  0  0  0
  141.4180   78.2350  223.2890 C   0  0  0  0  0  0  0  0  0  0  0  0
  141.9070   79.3030  224.0470 C   0  0  0  0  0  0  0  0  0  0  0  0
  142.3330   80.4810  223.4610 C   0  0  0  0  0  0  0  0  0  0  0  0
  142.2880   80.6390  222.0900 C   0  0  0  0  0  0  0  0  0  0  0  0
  141.8080   79.5920  221.3340 C   0  0  0  0  0  0  0  0  0  0  0  0
  139.4540   77.0830  220.9630 C   0  0  0  0  0  0  0  0  0  0  0  0
  138.7520   76.6550  222.1940 C   0  0  0  0  0  0  0  0  0  0  0  0
  138.3740   75.2130  222.3120 C   0  0  0  0  0  0  0  0  0  0  0  0
  138.0850   74.6200  221.0230 N   0  0  0  0  0  0  0  0  0  0  0  0
  138.0630   73.2660  220.7150 C   0  0  0  0  0  0  0  0  0  0  0  0
  137.7840   72.9150  219.5090 O   0  0  0  0  0  0  0  0  0  0  0  0
  138.3330   72.1420  221.6380 C   0  0  2  0  0  0  0  0  0  0  0  0
  137.4390   72.2380  222.8120 N   0  0  0  0  0  0  0  0  0  0  0  0
  139.7410   72.1000  222.1640 C   0  0  0  0  0  0  0  0  0  0  0  0
  139.8650   71.3500  223.4260 C   0  0  0  0  0  0  0  0  0  0  0  0
  139.4440   70.0330  223.4300 C   0  0  0  0  0  0  0  0  0  0  0  0
  139.5510   69.3340  224.5740 N   0  0  0  0  0  0  0  0  0  0  0  0
  140.0440   69.8330  225.7220 C   0  0  0  0  0  0  0  0  0  0  0  0
  140.1020   69.0040  226.8330 C   0  0  0  0  0  0  0  0  0  0  0  0
  140.6140   69.5580  227.9860 C   0  0  0  0  0  0  0  0  0  0  0  0
  141.0500   70.8620  228.0460 C   0  0  0  0  0  0  0  0  0  0  0  0
  140.9930   71.6930  226.9300 C   0  0  0  0  0  0  0  0  0  0  0  0
  140.4790   71.1460  225.7690 C   0  0  0  0  0  0  0  0  0  0  0  0
  140.3740   71.8770  224.5980 C   0  0  0  0  0  0  0  0  0  0  0  0
  137.8020   75.6080  219.9550 C   0  0  0  0  0  0  0  0  0  0  0  0
  139.1450   76.2710  219.7350 C   0  0  0  0  0  0  0  0  0  0  0  0
  143.7996   74.1247  221.3295 H   0  0  0  0  0  0  0  0  0  0  0  0
  143.0341   73.4946  219.8317 H   0  0  0  0  0  0  0  0  0  0  0  0
  143.8065   75.1163  219.8317 H   0  0  0  0  0  0  0  0  0  0  0  0
  141.1025   74.4936  220.3205 H   0  0  0  0  0  0  0  0  0  0  0  0
  141.8354   74.9317  221.9303 H   0  0  0  0  0  0  0  0  0  0  0  0
  141.0795   77.2986  223.7564 H   0  0  0  0  0  0  0  0  0  0  0  0
  141.9543   79.2035  225.1415 H   0  0  0  0  0  0  0  0  0  0  0  0
  142.7108   81.2988  224.0922 H   0  0  0  0  0  0  0  0  0  0  0  0
  142.6252   81.5725  221.6158 H   0  0  0  0  0  0  0  0  0  0  0  0
  141.7653   79.6994  220.2401 H   0  0  0  0  0  0  0  0  0  0  0  0
  139.0066   78.0722  220.7861 H   0  0  0  0  0  0  0  0  0  0  0  0
  139.4062   76.8940  223.0454 H   0  0  0  0  0  0  0  0  0  0  0  0
  137.7929   77.1931  222.1689 H   0  0  0  0  0  0  0  0  0  0  0  0
  139.2068   74.6646  222.7764 H   0  0  0  0  0  0  0  0  0  0  0  0
  137.4638   75.1499  222.9264 H   0  0  0  0  0  0  0  0  0  0  0  0
  138.1624   71.2318  221.0443 H   0  0  0  0  0  0  0  0  0  0  0  0
  136.4480   72.2700  222.5560 H   0  0  0  0  0  0  0  0  0  0  0  0
  137.7530   72.9990  223.4450 H   0  0  0  0  0  0  0  0  0  0  0  0
  140.3826   71.6227  221.4087 H   0  0  0  0  0  0  0  0  0  0  0  0
  140.0458   73.1371  222.3678 H   0  0  0  0  0  0  0  0  0  0  0  0
  139.0324   69.5692  222.5214 H   0  0  0  0  0  0  0  0  0  0  0  0
  139.7576   67.9600  226.7953 H   0  0  0  0  0  0  0  0  0  0  0  0
  140.6765   68.9358  228.8909 H   0  0  0  0  0  0  0  0  0  0  0  0
  141.4506   71.2548  228.9922 H   0  0  0  0  0  0  0  0  0  0  0  0
  141.3407   72.7358  226.9703 H   0  0  0  0  0  0  0  0  0  0  0  0
  140.7107   72.9242  224.6004 H   0  0  0  0  0  0  0  0  0  0  0  0
  137.4529   75.1096  219.0386 H   0  0  0  0  0  0  0  0  0  0  0  0
  137.0077   76.3197  220.2242 H   0  0  0  0  0  0  0  0  0  0  0  0
  139.9214   75.5064  219.5850 H   0  0  0  0  0  0  0  0  0  0  0  0
  139.1190   76.9129  218.8421 H   0  0  0  0  0  0  0  0  0  0  0  0
  1  2  1  0
  2  3  1  0
  3  4  2  0
  3  5  1  0
  5  6  1  0
  6  7  2  0
  7  8  1  0
  8  9  2  0
  9 10  1  0
 10 11  2  0
  5 12  1  0
 12 13  1  0
 13 14  1  0
 14 15  1  0
 15 16  1  0
 16 17  2  0
 16 18  1  0
 18 19  1  0
 18 20  1  0
 20 21  1  0
 21 22  2  0
 22 23  1  0
 23 24  2  0
 24 25  1  0
 25 26  2  0
 26 27  1  0
 27 28  2  0
 28 29  1  0
 29 30  2  0
 15 31  1  0
 31 32  1  0
 11  6  1  0
 32 12  1  0
 30 21  1  0
 29 24  1  0
  1 33  1  0
  1 34  1  0
  1 35  1  0
  2 36  1  0
  2 37  1  0
  7 38  1  0
  8 39  1  0
  9 40  1  0
 10 41  1  0
 11 42  1  0
 12 43  1  0
 13 44  1  0
 13 45  1  0
 14 46  1  0
 14 47  1  0
 18 48  1  6
 19 49  1  0
 19 50  1  0
 20 51  1  0
 20 52  1  0
 22 53  1  0
 25 54  1  0
 26 55  1  0
 27 56  1  0
 28 57  1  0
 30 58  1  0
 31 59  1  0
 31 60  1  0
 32 61  1  0
 32 62  1  0
M  END
>  <smiles>  (43) 
CCC(=O)N(c1ccccc1)C1CCN(C(=O)[C@H](N)Cc2cnc3ccccc3c2)CC1

>  <score_type>  (43) 
oracle

>  <origin>  (43) 
autodockgpu

>  <m_score__min__energy>  (43) 
-8.8699999999999992

>  <m_primary>  (43) 
energy

>  <rmsd>  (43) 
6.45674612971483

>  <m_score__min__rmsd>  (43) 
6.45674612971483

>  <meeko>  (43) 
{"free_energy": -8.21, "intermolecular_energy": -10.6, "internal_energy": -1.89, "cluster_size": 25, "cluster_id": 1, "rank_in_cluster": 19}

>  <energy>  (43) 
-7.85

>  <cluster_rmsd>  (43) 
0.0

>  <cluster>  (43) 
5

$$$$

     RDKit          3D

 62 65  0  0  0  0  0  0  0  0999 V2000
  136.9860   76.7740  222.6750 C   0  0  0  0  0  0  0  0  0  0  0  0
  138.3420   77.4310  222.6440 C   0  0  0  0  0  0  0  0  0  0  0  0
  139.4360   76.4880  222.2560 C   0  0  0  0  0  0  0  0  0  0  0  0
  139.3090   75.3040  222.6820 O   0  0  0  0  0  0  0  0  0  0  0  0
  140.5300   76.9210  221.4650 N   0  0  0  0  0  0  0  0  0  0  0  0
  141.1990   78.1380  221.8760 C   0  0  0  0  0  0  0  0  0  0  0  0
  141.4940   78.2570  223.2380 C   0  0  0  0  0  0  0  0  0  0  0  0
  142.1410   79.4330  223.6310 C   0  0  0  0  0  0  0  0  0  0  0  0
  142.4710   80.4240  222.7250 C   0  0  0  0  0  0  0  0  0  0  0  0
  142.1680   80.2800  221.3860 C   0  0  0  0  0  0  0  0  0  0  0  0
  141.5310   79.1240  220.9890 C   0  0  0  0  0  0  0  0  0  0  0  0
  140.9580   76.1790  220.2940 C   0  0  0  0  0  0  0  0  0  0  0  0
  139.9170   75.3300  219.6700 C   0  0  0  0  0  0  0  0  0  0  0  0
  139.9950   73.8550  219.9000 C   0  0  0  0  0  0  0  0  0  0  0  0
  141.3610   73.3990  220.0520 N   0  0  0  0  0  0  0  0  0  0  0  0
  141.7820   72.2060  220.6250 C   0  0  0  0  0  0  0  0  0  0  0  0
  143.0440   71.9620  220.6770 O   0  0  0  0  0  0  0  0  0  0  0  0
  140.9240   71.1490  221.2040 C   0  0  2  0  0  0  0  0  0  0  0  0
  140.2550   70.4010  220.1170 N   0  0  0  0  0  0  0  0  0  0  0  0
  139.8400   71.6610  222.1120 C   0  0  0  0  0  0  0  0  0  0  0  0
  139.9280   71.1210  223.4800 C   0  0  0  0  0  0  0  0  0  0  0  0
  139.4400   69.8470  223.6960 C   0  0  0  0  0  0  0  0  0  0  0  0
  139.5130   69.3380  224.9380 N   0  0  0  0  0  0  0  0  0  0  0  0
  140.0330   69.9910  225.9930 C   0  0  0  0  0  0  0  0  0  0  0  0
  140.0510   69.3530  227.2250 C   0  0  0  0  0  0  0  0  0  0  0  0
  140.5930   70.0610  228.2750 C   0  0  0  0  0  0  0  0  0  0  0  0
  141.0950   71.3330  228.1250 C   0  0  0  0  0  0  0  0  0  0  0  0
  141.0780   71.9730  226.8880 C   0  0  0  0  0  0  0  0  0  0  0  0
  140.5350   71.2710  225.8290 C   0  0  0  0  0  0  0  0  0  0  0  0
  140.4650   71.8060  224.5540 C   0  0  0  0  0  0  0  0  0  0  0  0
  142.3740   74.3500  219.5360 C   0  0  0  0  0  0  0  0  0  0  0  0
  142.2870   75.5070  220.5100 C   0  0  0  0  0  0  0  0  0  0  0  0
  136.6753   76.6235  223.7194 H   0  0  0  0  0  0  0  0  0  0  0  0
  136.2549   77.4178  222.1641 H   0  0  0  0  0  0  0  0  0  0  0  0
  137.0381   75.8012  222.1641 H   0  0  0  0  0  0  0  0  0  0  0  0
  138.3157   78.2564  221.9173 H   0  0  0  0  0  0  0  0  0  0  0  0
  138.5593   77.7885  223.6613 H   0  0  0  0  0  0  0  0  0  0  0  0
  141.2317   77.4695  223.9599 H   0  0  0  0  0  0  0  0  0  0  0  0
  142.3948   79.5737  224.6920 H   0  0  0  0  0  0  0  0  0  0  0  0
  142.9793   81.3349  223.0742 H   0  0  0  0  0  0  0  0  0  0  0  0
  142.4269   81.0634  220.6585 H   0  0  0  0  0  0  0  0  0  0  0  0
  141.2821   78.9906  219.9259 H   0  0  0  0  0  0  0  0  0  0  0  0
  141.1278   76.9318  219.5101 H   0  0  0  0  0  0  0  0  0  0  0  0
  138.9429   75.6710  220.0507 H   0  0  0  0  0  0  0  0  0  0  0  0
  140.0704   75.4516  218.5876 H   0  0  0  0  0  0  0  0  0  0  0  0
  139.4349   73.6084  220.8141 H   0  0  0  0  0  0  0  0  0  0  0  0
  139.5657   73.3519  219.0210 H   0  0  0  0  0  0  0  0  0  0  0  0
  141.6018   70.5212  221.8010 H   0  0  0  0  0  0  0  0  0  0  0  0
  140.2060   69.3940  220.3000 H   0  0  0  0  0  0  0  0  0  0  0  0
  140.6600   70.6600  219.1960 H   0  0  0  0  0  0  0  0  0  0  0  0
  139.9150   72.7573  222.1630 H   0  0  0  0  0  0  0  0  0  0  0  0
  138.8781   71.3327  221.6914 H   0  0  0  0  0  0  0  0  0  0  0  0
  139.0026   69.2636  222.8724 H   0  0  0  0  0  0  0  0  0  0  0  0
  139.6535   68.3358  227.3563 H   0  0  0  0  0  0  0  0  0  0  0  0
  140.6256   69.5922  229.2696 H   0  0  0  0  0  0  0  0  0  0  0  0
  141.5172   71.8537  228.9971 H   0  0  0  0  0  0  0  0  0  0  0  0
  141.4781   72.9896  226.7602 H   0  0  0  0  0  0  0  0  0  0  0  0
  140.8540   72.8215  224.3882 H   0  0  0  0  0  0  0  0  0  0  0  0
  143.3781   73.9008  219.5452 H   0  0  0  0  0  0  0  0  0  0  0  0
  142.1945   74.6488  218.4927 H   0  0  0  0  0  0  0  0  0  0  0  0
  142.3566   75.1349  221.5428 H   0  0  0  0  0  0  0  0  0  0  0  0
  143.1117   76.2160  220.3451 H   0  0  0  0  0  0  0  0  0  0  0  0
  1  2  1  0
  2  3  1  0
  3  4  2  0
  3  5  1  0
  5  6  1  0
  6  7  2  0
  7  8  1  0
  8  9  2  0
  9 10  1  0
 10 11  2  0
  5 12  1  0
 12 13  1  0
 13 14  1  0
 14 15  1  0
 15 16  1  0
 16 17  2  0
 16 18  1  0
 18 19  1  0
 18 20  1  0
 20 21  1  0
 21 22  2  0
 22 23  1  0
 23 24  2  0
 24 25  1  0
 25 26  2  0
 26 27  1  0
 27 28  2  0
 28 29  1  0
 29 30  2  0
 15 31  1  0
 31 32  1  0
 11  6  1  0
 32 12  1  0
 30 21  1  0
 29 24  1  0
  1 33  1  0
  1 34  1  0
  1 35  1  0
  2 36  1  0
  2 37  1  0
  7 38  1  0
  8 39  1  0
  9 40  1  0
 10 41  1  0
 11 42  1  0
 12 43  1  0
 13 44  1  0
 13 45  1  0
 14 46  1  0
 14 47  1  0
 18 48  1  1
 19 49  1  0
 19 50  1  0
 20 51  1  0
 20 52  1  0
 22 53  1  0
 25 54  1  0
 26 55  1  0
 27 56  1  0
 28 57  1  0
 30 58  1  0
 31 59  1  0
 31 60  1  0
 32 61  1  0
 32 62  1  0
M  END
>  <smiles>  (44) 
CCC(=O)N(c1ccccc1)C1CCN(C(=O)[C@H](N)Cc2cnc3ccccc3c2)CC1

>  <score_type>  (44) 
oracle

>  <origin>  (44) 
autodockgpu

>  <m_score__min__energy>  (44) 
-8.8699999999999992

>  <m_primary>  (44) 
energy

>  <rmsd>  (44) 
6.832312114855786

>  <m_score__min__rmsd>  (44) 
6.832312114855786

>  <meeko>  (44) 
{"free_energy": -8.18, "intermolecular_energy": -10.56, "internal_energy": -1.88, "cluster_size": 25, "cluster_id": 1, "rank_in_cluster": 20}

>  <energy>  (44) 
-7.78

>  <cluster_rmsd>  (44) 
0.4

>  <cluster>  (44) 
5

$$$$

     RDKit          3D

 62 65  0  0  0  0  0  0  0  0999 V2000
  143.6690   75.4470  219.1680 C   0  0  0  0  0  0  0  0  0  0  0  0
  142.8190   76.5980  219.6390 C   0  0  0  0  0  0  0  0  0  0  0  0
  141.8220   76.1970  220.6790 C   0  0  0  0  0  0  0  0  0  0  0  0
  141.9360   75.0150  221.1140 O   0  0  0  0  0  0  0  0  0  0  0  0
  140.8270   77.1020  221.1270 N   0  0  0  0  0  0  0  0  0  0  0  0
  141.2810   78.2800  221.8380 C   0  0  0  0  0  0  0  0  0  0  0  0
  141.5580   79.4090  221.0600 C   0  0  0  0  0  0  0  0  0  0  0  0
  141.9950   80.5440  221.7490 C   0  0  0  0  0  0  0  0  0  0  0  0
  142.1450   80.5520  223.1240 C   0  0  0  0  0  0  0  0  0  0  0  0
  141.8640   79.4240  223.8670 C   0  0  0  0  0  0  0  0  0  0  0  0
  141.4320   78.3000  223.1970 C   0  0  0  0  0  0  0  0  0  0  0  0
  139.4170   76.8580  220.8860 C   0  0  0  0  0  0  0  0  0  0  0  0
  138.6100   76.5790  222.0960 C   0  0  0  0  0  0  0  0  0  0  0  0
  138.2030   75.1630  222.3480 C   0  0  0  0  0  0  0  0  0  0  0  0
  138.0120   74.4250  221.1170 N   0  0  0  0  0  0  0  0  0  0  0  0
  137.9960   73.0440  220.9670 C   0  0  0  0  0  0  0  0  0  0  0  0
  137.8120   72.5570  219.7900 O   0  0  0  0  0  0  0  0  0  0  0  0
  138.1730   72.0340  222.0330 C   0  0  2  0  0  0  0  0  0  0  0  0
  137.1450   72.2300  223.0780 N   0  0  0  0  0  0  0  0  0  0  0  0
  139.5100   72.0900  222.7200 C   0  0  0  0  0  0  0  0  0  0  0  0
  139.6270   71.1350  223.8360 C   0  0  0  0  0  0  0  0  0  0  0  0
  139.0980   69.8720  223.6530 C   0  0  0  0  0  0  0  0  0  0  0  0
  139.1970   68.9880  224.6620 N   0  0  0  0  0  0  0  0  0  0  0  0
  139.7800   69.2520  225.8450 C   0  0  0  0  0  0  0  0  0  0  0  0
  139.8180   68.2500  226.8030 C   0  0  0  0  0  0  0  0  0  0  0  0
  140.4260   68.5660  227.9980 C   0  0  0  0  0  0  0  0  0  0  0  0
  140.9710   69.8060  228.2420 C   0  0  0  0  0  0  0  0  0  0  0  0
  140.9340   70.8110  227.2790 C   0  0  0  0  0  0  0  0  0  0  0  0
  140.3250   70.5030  226.0770 C   0  0  0  0  0  0  0  0  0  0  0  0
  140.2290   71.4230  225.0460 C   0  0  0  0  0  0  0  0  0  0  0  0
  137.8330   75.2840  219.9220 C   0  0  0  0  0  0  0  0  0  0  0  0
  139.1990   75.9100  219.7390 C   0  0  0  0  0  0  0  0  0  0  0  0
  144.0685   74.9060  220.0384 H   0  0  0  0  0  0  0  0  0  0  0  0
  143.0571   74.7637  218.5608 H   0  0  0  0  0  0  0  0  0  0  0  0
  144.5021   75.8308  218.5608 H   0  0  0  0  0  0  0  0  0  0  0  0
  143.4776   77.3702  220.0632 H   0  0  0  0  0  0  0  0  0  0  0  0
  142.2577   76.9715  218.7699 H   0  0  0  0  0  0  0  0  0  0  0  0
  141.4385   79.4039  219.9665 H   0  0  0  0  0  0  0  0  0  0  0  0
  142.2263   81.4573  221.1812 H   0  0  0  0  0  0  0  0  0  0  0  0
  142.4913   81.4656  223.6294 H   0  0  0  0  0  0  0  0  0  0  0  0
  141.9812   79.4219  224.9607 H   0  0  0  0  0  0  0  0  0  0  0  0
  141.2017   77.3914  223.7727 H   0  0  0  0  0  0  0  0  0  0  0  0
  138.9995   77.8219  220.5594 H   0  0  0  0  0  0  0  0  0  0  0  0
  139.1955   76.9123  222.9655 H   0  0  0  0  0  0  0  0  0  0  0  0
  137.6640   77.1149  221.9290 H   0  0  0  0  0  0  0  0  0  0  0  0
  138.9870   74.6684  222.9403 H   0  0  0  0  0  0  0  0  0  0  0  0
  137.2446   75.1764  222.8877 H   0  0  0  0  0  0  0  0  0  0  0  0
  138.0884   71.0606  221.5277 H   0  0  0  0  0  0  0  0  0  0  0  0
  137.2940   73.0830  223.6260 H   0  0  0  0  0  0  0  0  0  0  0  0
  137.0310   71.3630  223.6390 H   0  0  0  0  0  0  0  0  0  0  0  0
  140.2929   71.8629  221.9814 H   0  0  0  0  0  0  0  0  0  0  0  0
  139.6207   73.1005  223.1402 H   0  0  0  0  0  0  0  0  0  0  0  0
  138.6087   69.5965  222.7071 H   0  0  0  0  0  0  0  0  0  0  0  0
  139.3855   67.2556  226.6184 H   0  0  0  0  0  0  0  0  0  0  0  0
  140.4778   67.7998  228.7855 H   0  0  0  0  0  0  0  0  0  0  0  0
  141.4440   70.0066  229.2146 H   0  0  0  0  0  0  0  0  0  0  0  0
  141.3692   71.8038  227.4661 H   0  0  0  0  0  0  0  0  0  0  0  0
  140.6508   72.4276  225.1972 H   0  0  0  0  0  0  0  0  0  0  0  0
  137.5529   74.6843  219.0434 H   0  0  0  0  0  0  0  0  0  0  0  0
  137.0303   76.0267  220.0406 H   0  0  0  0  0  0  0  0  0  0  0  0
  139.9740   75.1294  219.7440 H   0  0  0  0  0  0  0  0  0  0  0  0
  139.2563   76.4431  218.7785 H   0  0  0  0  0  0  0  0  0  0  0  0
  1  2  1  0
  2  3  1  0
  3  4  2  0
  3  5  1  0
  5  6  1  0
  6  7  2  0
  7  8  1  0
  8  9  2  0
  9 10  1  0
 10 11  2  0
  5 12  1  0
 12 13  1  0
 13 14  1  0
 14 15  1  0
 15 16  1  0
 16 17  2  0
 16 18  1  0
 18 19  1  0
 18 20  1  0
 20 21  1  0
 21 22  2  0
 22 23  1  0
 23 24  2  0
 24 25  1  0
 25 26  2  0
 26 27  1  0
 27 28  2  0
 28 29  1  0
 29 30  2  0
 15 31  1  0
 31 32  1  0
 11  6  1  0
 32 12  1  0
 30 21  1  0
 29 24  1  0
  1 33  1  0
  1 34  1  0
  1 35  1  0
  2 36  1  0
  2 37  1  0
  7 38  1  0
  8 39  1  0
  9 40  1  0
 10 41  1  0
 11 42  1  0
 12 43  1  0
 13 44  1  0
 13 45  1  0
 14 46  1  0
 14 47  1  0
 18 48  1  6
 19 49  1  0
 19 50  1  0
 20 51  1  0
 20 52  1  0
 22 53  1  0
 25 54  1  0
 26 55  1  0
 27 56  1  0
 28 57  1  0
 30 58  1  0
 31 59  1  0
 31 60  1  0
 32 61  1  0
 32 62  1  0
M  END
>  <smiles>  (45) 
CCC(=O)N(c1ccccc1)C1CCN(C(=O)[C@H](N)Cc2cnc3ccccc3c2)CC1

>  <score_type>  (45) 
oracle

>  <origin>  (45) 
autodockgpu

>  <m_score__min__energy>  (45) 
-8.8699999999999992

>  <m_primary>  (45) 
energy

>  <rmsd>  (45) 
6.738762208844455

>  <m_score__min__rmsd>  (45) 
6.738762208844455

>  <meeko>  (45) 
{"free_energy": -8.33, "intermolecular_energy": -10.72, "internal_energy": -1.75, "cluster_size": 25, "cluster_id": 1, "rank_in_cluster": 12}

>  <energy>  (45) 
-7.77

>  <cluster_rmsd>  (45) 
0.26

>  <cluster>  (45) 
5

$$$$

     RDKit          3D

 62 65  0  0  0  0  0  0  0  0999 V2000
  146.5100   73.3740  221.8870 C   0  0  0  0  0  0  0  0  0  0  0  0
  145.5950   73.9780  220.8530 C   0  0  0  0  0  0  0  0  0  0  0  0
  145.4370   73.1150  219.6420 C   0  0  0  0  0  0  0  0  0  0  0  0
  146.3210   73.2630  218.7500 O   0  0  0  0  0  0  0  0  0  0  0  0
  144.3580   72.2030  219.5290 N   0  0  0  0  0  0  0  0  0  0  0  0
  144.6870   70.7930  219.5050 C   0  0  0  0  0  0  0  0  0  0  0  0
  143.7610   69.9260  220.0950 C   0  0  0  0  0  0  0  0  0  0  0  0
  144.0820   68.5650  220.0680 C   0  0  0  0  0  0  0  0  0  0  0  0
  145.2500   68.1010  219.4920 C   0  0  0  0  0  0  0  0  0  0  0  0
  146.1470   68.9780  218.9170 C   0  0  0  0  0  0  0  0  0  0  0  0
  145.8390   70.3210  218.9370 C   0  0  0  0  0  0  0  0  0  0  0  0
  142.9830   72.6620  219.4400 C   0  0  0  0  0  0  0  0  0  0  0  0
  142.3100   72.8890  220.7390 C   0  0  0  0  0  0  0  0  0  0  0  0
  141.3150   71.8700  221.1930 C   0  0  0  0  0  0  0  0  0  0  0  0
  140.6350   71.2410  220.0810 N   0  0  0  0  0  0  0  0  0  0  0  0
  139.9430   70.0360  220.1000 C   0  0  0  0  0  0  0  0  0  0  0  0
  139.3950   69.6260  219.0110 O   0  0  0  0  0  0  0  0  0  0  0  0
  139.7580   69.1390  221.2610 C   0  0  2  0  0  0  0  0  0  0  0  0
  139.3040   67.8110  220.7960 N   0  0  0  0  0  0  0  0  0  0  0  0
  138.7400   69.6220  222.2580 C   0  0  0  0  0  0  0  0  0  0  0  0
  139.1220   69.3500  223.6540 C   0  0  0  0  0  0  0  0  0  0  0  0
  138.8550   68.0900  224.1550 C   0  0  0  0  0  0  0  0  0  0  0  0
  139.1990   67.8240  225.4280 N   0  0  0  0  0  0  0  0  0  0  0  0
  139.7900   68.7080  226.2520 C   0  0  0  0  0  0  0  0  0  0  0  0
  140.0950   68.3070  227.5450 C   0  0  0  0  0  0  0  0  0  0  0  0
  140.6990   69.2450  228.3520 C   0  0  0  0  0  0  0  0  0  0  0  0
  140.9920   70.5160  227.9120 C   0  0  0  0  0  0  0  0  0  0  0  0
  140.6860   70.9180  226.6150 C   0  0  0  0  0  0  0  0  0  0  0  0
  140.0790   69.9830  225.7980 C   0  0  0  0  0  0  0  0  0  0  0  0
  139.7290   70.2690  224.4890 C   0  0  0  0  0  0  0  0  0  0  0  0
  140.7280   72.0000  218.8110 C   0  0  0  0  0  0  0  0  0  0  0  0
  142.1900   71.8680  218.4380 C   0  0  0  0  0  0  0  0  0  0  0  0
  146.1388   73.6191  222.8930 H   0  0  0  0  0  0  0  0  0  0  0  0
  146.5347   72.2815  221.7613 H   0  0  0  0  0  0  0  0  0  0  0  0
  147.5243   73.7806  221.7613 H   0  0  0  0  0  0  0  0  0  0  0  0
  144.6047   74.1310  221.3068 H   0  0  0  0  0  0  0  0  0  0  0  0
  146.0460   74.9266  220.5263 H   0  0  0  0  0  0  0  0  0  0  0  0
  142.8320   70.2943  220.5546 H   0  0  0  0  0  0  0  0  0  0  0  0
  143.3849   67.8428  220.5181 H   0  0  0  0  0  0  0  0  0  0  0  0
  145.4664   67.0225  219.4920 H   0  0  0  0  0  0  0  0  0  0  0  0
  147.0786   68.6164  218.4572 H   0  0  0  0  0  0  0  0  0  0  0  0
  146.5408   71.0357  218.4823 H   0  0  0  0  0  0  0  0  0  0  0  0
  143.0347   73.6840  219.0364 H   0  0  0  0  0  0  0  0  0  0  0  0
  143.0934   72.9491  221.5089 H   0  0  0  0  0  0  0  0  0  0  0  0
  141.7210   73.8061  220.5907 H   0  0  0  0  0  0  0  0  0  0  0  0
  141.8393   71.0956  221.7722 H   0  0  0  0  0  0  0  0  0  0  0  0
  140.5595   72.3834  221.8059 H   0  0  0  0  0  0  0  0  0  0  0  0
  140.7379   69.1054  221.7597 H   0  0  0  0  0  0  0  0  0  0  0  0
  140.0820   67.1810  220.5750 H   0  0  0  0  0  0  0  0  0  0  0  0
  138.5960   67.9130  220.0430 H   0  0  0  0  0  0  0  0  0  0  0  0
  138.6172   70.7081  222.1342 H   0  0  0  0  0  0  0  0  0  0  0  0
  137.8054   69.0760  222.0621 H   0  0  0  0  0  0  0  0  0  0  0  0
  138.3736   67.3243  223.5289 H   0  0  0  0  0  0  0  0  0  0  0  0
  139.8664   67.2934  227.9061 H   0  0  0  0  0  0  0  0  0  0  0  0
  140.9566   68.9689  229.3852 H   0  0  0  0  0  0  0  0  0  0  0  0
  141.4766   71.2267  228.5976 H   0  0  0  0  0  0  0  0  0  0  0  0
  140.9165   71.9323  226.2571 H   0  0  0  0  0  0  0  0  0  0  0  0
  139.9440   71.2736  224.0958 H   0  0  0  0  0  0  0  0  0  0  0  0
  140.0819   71.5577  218.0384 H   0  0  0  0  0  0  0  0  0  0  0  0
  140.3990   73.0452  218.9070 H   0  0  0  0  0  0  0  0  0  0  0  0
  142.4927   70.8110  218.4715 H   0  0  0  0  0  0  0  0  0  0  0  0
  142.3663   72.2421  217.4187 H   0  0  0  0  0  0  0  0  0  0  0  0
  1  2  1  0
  2  3  1  0
  3  4  2  0
  3  5  1  0
  5  6  1  0
  6  7  2  0
  7  8  1  0
  8  9  2  0
  9 10  1  0
 10 11  2  0
  5 12  1  0
 12 13  1  0
 13 14  1  0
 14 15  1  0
 15 16  1  0
 16 17  2  0
 16 18  1  0
 18 19  1  0
 18 20  1  0
 20 21  1  0
 21 22  2  0
 22 23  1  0
 23 24  2  0
 24 25  1  0
 25 26  2  0
 26 27  1  0
 27 28  2  0
 28 29  1  0
 29 30  2  0
 15 31  1  0
 31 32  1  0
 11  6  1  0
 32 12  1  0
 30 21  1  0
 29 24  1  0
  1 33  1  0
  1 34  1  0
  1 35  1  0
  2 36  1  0
  2 37  1  0
  7 38  1  0
  8 39  1  0
  9 40  1  0
 10 41  1  0
 11 42  1  0
 12 43  1  0
 13 44  1  0
 13 45  1  0
 14 46  1  0
 14 47  1  0
 18 48  1  1
 19 49  1  0
 19 50  1  0
 20 51  1  0
 20 52  1  0
 22 53  1  0
 25 54  1  0
 26 55  1  0
 27 56  1  0
 28 57  1  0
 30 58  1  0
 31 59  1  0
 31 60  1  0
 32 61  1  0
 32 62  1  0
M  END
>  <smiles>  (46) 
CCC(=O)N(c1ccccc1)C1CCN(C(=O)[C@H](N)Cc2cnc3ccccc3c2)CC1

>  <score_type>  (46) 
oracle

>  <origin>  (46) 
autodockgpu

>  <m_score__min__energy>  (46) 
-8.8699999999999992

>  <m_primary>  (46) 
energy

>  <rmsd>  (46) 
8.832886102170832

>  <m_score__min__rmsd>  (46) 
8.832886102170832

>  <meeko>  (46) 
{"free_energy": -8.3, "intermolecular_energy": -10.68, "internal_energy": -2.48, "cluster_size": 6, "cluster_id": 3, "rank_in_cluster": 2}

>  <energy>  (46) 
-7.77

>  <cluster_rmsd>  (46) 
0.39

>  <cluster>  (46) 
5

$$$$

     RDKit          3D

 62 65  0  0  0  0  0  0  0  0999 V2000
  144.2780   74.5840  220.0740 C   0  0  0  0  0  0  0  0  0  0  0  0
  142.8430   74.8880  220.4180 C   0  0  0  0  0  0  0  0  0  0  0  0
  142.4560   76.2990  220.1070 C   0  0  0  0  0  0  0  0  0  0  0  0
  143.2230   76.9080  219.3060 O   0  0  0  0  0  0  0  0  0  0  0  0
  141.3040   76.8870  220.6860 N   0  0  0  0  0  0  0  0  0  0  0  0
  141.5060   78.0710  221.4950 C   0  0  0  0  0  0  0  0  0  0  0  0
  141.4560   77.8950  222.8820 C   0  0  0  0  0  0  0  0  0  0  0  0
  141.6520   79.0400  223.6600 C   0  0  0  0  0  0  0  0  0  0  0  0
  141.8830   80.2790  223.0920 C   0  0  0  0  0  0  0  0  0  0  0  0
  141.9270   80.4250  221.7200 C   0  0  0  0  0  0  0  0  0  0  0  0
  141.7360   79.3020  220.9450 C   0  0  0  0  0  0  0  0  0  0  0  0
  139.9820   76.3270  220.4790 C   0  0  0  0  0  0  0  0  0  0  0  0
  139.3060   75.8380  221.7030 C   0  0  0  0  0  0  0  0  0  0  0  0
  139.2490   74.3600  221.9210 C   0  0  0  0  0  0  0  0  0  0  0  0
  139.1900   73.6290  220.6730 N   0  0  0  0  0  0  0  0  0  0  0  0
  139.4900   72.2860  220.4790 C   0  0  0  0  0  0  0  0  0  0  0  0
  139.3820   71.7980  219.2940 O   0  0  0  0  0  0  0  0  0  0  0  0
  139.9350   71.3200  221.5070 C   0  0  2  0  0  0  0  0  0  0  0  0
  140.3300   70.0510  220.8580 N   0  0  0  0  0  0  0  0  0  0  0  0
  138.8850   70.9790  222.5290 C   0  0  0  0  0  0  0  0  0  0  0  0
  139.4410   70.7450  223.8730 C   0  0  0  0  0  0  0  0  0  0  0  0
  140.1950   71.7560  224.4370 C   0  0  0  0  0  0  0  0  0  0  0  0
  140.7100   71.5590  225.6640 N   0  0  0  0  0  0  0  0  0  0  0  0
  140.5380   70.4360  226.3840 C   0  0  0  0  0  0  0  0  0  0  0  0
  141.1220   70.3590  227.6410 C   0  0  0  0  0  0  0  0  0  0  0  0
  140.9180   69.1900  228.3410 C   0  0  0  0  0  0  0  0  0  0  0  0
  140.1780   68.1470  227.8350 C   0  0  0  0  0  0  0  0  0  0  0  0
  139.5920   68.2250  226.5740 C   0  0  0  0  0  0  0  0  0  0  0  0
  139.7910   69.3940  225.8640 C   0  0  0  0  0  0  0  0  0  0  0  0
  139.2560   69.5840  224.6000 C   0  0  0  0  0  0  0  0  0  0  0  0
  138.7730   74.4500  219.5120 C   0  0  0  0  0  0  0  0  0  0  0  0
  139.9480   75.3820  219.3090 C   0  0  0  0  0  0  0  0  0  0  0  0
  144.8589   74.4609  221.0000 H   0  0  0  0  0  0  0  0  0  0  0  0
  144.3253   73.6559  219.4854 H   0  0  0  0  0  0  0  0  0  0  0  0
  144.6975   75.4132  219.4854 H   0  0  0  0  0  0  0  0  0  0  0  0
  142.1934   74.2112  219.8435 H   0  0  0  0  0  0  0  0  0  0  0  0
  142.7262   74.7452  221.5024 H   0  0  0  0  0  0  0  0  0  0  0  0
  141.2725   76.9098  223.3356 H   0  0  0  0  0  0  0  0  0  0  0  0
  141.6215   78.9524  224.7561 H   0  0  0  0  0  0  0  0  0  0  0  0
  142.0330   81.1560  223.7388 H   0  0  0  0  0  0  0  0  0  0  0  0
  142.1089   81.4074  221.2598 H   0  0  0  0  0  0  0  0  0  0  0  0
  141.7695   79.3984  219.8498 H   0  0  0  0  0  0  0  0  0  0  0  0
  139.3412   77.1750  220.1956 H   0  0  0  0  0  0  0  0  0  0  0  0
  139.8289   76.2775  222.5652 H   0  0  0  0  0  0  0  0  0  0  0  0
  138.2559   76.1422  221.5816 H   0  0  0  0  0  0  0  0  0  0  0  0
  140.1476   74.0477  222.4732 H   0  0  0  0  0  0  0  0  0  0  0  0
  138.3343   74.1357  222.4893 H   0  0  0  0  0  0  0  0  0  0  0  0
  140.7704   71.8128  222.0259 H   0  0  0  0  0  0  0  0  0  0  0  0
  141.3180   70.0340  220.5860 H   0  0  0  0  0  0  0  0  0  0  0  0
  139.6630   69.8090  220.0990 H   0  0  0  0  0  0  0  0  0  0  0  0
  138.1689   71.8120  222.5866 H   0  0  0  0  0  0  0  0  0  0  0  0
  138.4041   70.0440  222.2057 H   0  0  0  0  0  0  0  0  0  0  0  0
  140.3698   72.6980  223.8965 H   0  0  0  0  0  0  0  0  0  0  0  0
  141.7157   71.1869  228.0559 H   0  0  0  0  0  0  0  0  0  0  0  0
  141.3634   69.0871  229.3415 H   0  0  0  0  0  0  0  0  0  0  0  0
  140.0467   67.2355  228.4366 H   0  0  0  0  0  0  0  0  0  0  0  0
  138.9986   67.3952  226.1624 H   0  0  0  0  0  0  0  0  0  0  0  0
  138.6576   68.7751  224.1555 H   0  0  0  0  0  0  0  0  0  0  0  0
  138.6089   73.8225  218.6235 H   0  0  0  0  0  0  0  0  0  0  0  0
  137.8241   74.9812  219.6773 H   0  0  0  0  0  0  0  0  0  0  0  0
  140.8829   74.8040  219.2656 H   0  0  0  0  0  0  0  0  0  0  0  0
  139.8440   75.9372  218.3651 H   0  0  0  0  0  0  0  0  0  0  0  0
  1  2  1  0
  2  3  1  0
  3  4  2  0
  3  5  1  0
  5  6  1  0
  6  7  2  0
  7  8  1  0
  8  9  2  0
  9 10  1  0
 10 11  2  0
  5 12  1  0
 12 13  1  0
 13 14  1  0
 14 15  1  0
 15 16  1  0
 16 17  2  0
 16 18  1  0
 18 19  1  0
 18 20  1  0
 20 21  1  0
 21 22  2  0
 22 23  1  0
 23 24  2  0
 24 25  1  0
 25 26  2  0
 26 27  1  0
 27 28  2  0
 28 29  1  0
 29 30  2  0
 15 31  1  0
 31 32  1  0
 11  6  1  0
 32 12  1  0
 30 21  1  0
 29 24  1  0
  1 33  1  0
  1 34  1  0
  1 35  1  0
  2 36  1  0
  2 37  1  0
  7 38  1  0
  8 39  1  0
  9 40  1  0
 10 41  1  0
 11 42  1  0
 12 43  1  0
 13 44  1  0
 13 45  1  0
 14 46  1  0
 14 47  1  0
 18 48  1  1
 19 49  1  0
 19 50  1  0
 20 51  1  0
 20 52  1  0
 22 53  1  0
 25 54  1  0
 26 55  1  0
 27 56  1  0
 28 57  1  0
 30 58  1  0
 31 59  1  0
 31 60  1  0
 32 61  1  0
 32 62  1  0
M  END
>  <smiles>  (47) 
CCC(=O)N(c1ccccc1)C1CCN(C(=O)[C@H](N)Cc2cnc3ccccc3c2)CC1

>  <score_type>  (47) 
oracle

>  <origin>  (47) 
autodockgpu

>  <m_score__min__energy>  (47) 
-8.8699999999999992

>  <m_primary>  (47) 
energy

>  <rmsd>  (47) 
6.957920090383457

>  <m_score__min__rmsd>  (47) 
6.957920090383457

>  <meeko>  (47) 
{"free_energy": -7.53, "intermolecular_energy": -9.91, "internal_energy": -2.35, "cluster_size": 6, "cluster_id": 4, "rank_in_cluster": 6}

>  <energy>  (47) 
-7.68

>  <cluster_rmsd>  (47) 
1.07

>  <cluster>  (47) 
5

$$$$

     RDKit          3D

 62 65  0  0  0  0  0  0  0  0999 V2000
  136.6590   77.9580  222.6910 C   0  0  0  0  0  0  0  0  0  0  0  0
  138.1230   78.3040  222.7690 C   0  0  0  0  0  0  0  0  0  0  0  0
  139.0130   77.1300  222.5110 C   0  0  0  0  0  0  0  0  0  0  0  0
  138.5720   76.0150  222.9150 O   0  0  0  0  0  0  0  0  0  0  0  0
  140.2600   77.2860  221.8560 N   0  0  0  0  0  0  0  0  0  0  0  0
  141.0630   78.4310  222.2340 C   0  0  0  0  0  0  0  0  0  0  0  0
  141.4040   79.3190  221.2090 C   0  0  0  0  0  0  0  0  0  0  0  0
  142.1780   80.4240  221.5780 C   0  0  0  0  0  0  0  0  0  0  0  0
  142.5860   80.6270  222.8830 C   0  0  0  0  0  0  0  0  0  0  0  0
  142.2350   79.7340  223.8760 C   0  0  0  0  0  0  0  0  0  0  0  0
  141.4710   78.6430  223.5220 C   0  0  0  0  0  0  0  0  0  0  0  0
  140.7120   76.3420  220.8510 C   0  0  0  0  0  0  0  0  0  0  0  0
  139.6540   75.8220  219.9550 C   0  0  0  0  0  0  0  0  0  0  0  0
  139.1670   74.4280  220.1910 C   0  0  0  0  0  0  0  0  0  0  0  0
  140.2070   73.5720  220.7210 N   0  0  0  0  0  0  0  0  0  0  0  0
  140.0340   72.3640  221.3840 C   0  0  0  0  0  0  0  0  0  0  0  0
  141.0780   71.7300  221.7890 O   0  0  0  0  0  0  0  0  0  0  0  0
  138.7500   71.6970  221.6920 C   0  0  2  0  0  0  0  0  0  0  0  0
  138.0180   72.4760  222.7140 N   0  0  0  0  0  0  0  0  0  0  0  0
  138.8930   70.2990  222.2290 C   0  0  0  0  0  0  0  0  0  0  0  0
  139.1940   70.2620  223.6710 C   0  0  0  0  0  0  0  0  0  0  0  0
  138.5510   69.3040  224.4320 C   0  0  0  0  0  0  0  0  0  0  0  0
  138.8140   69.2560  225.7500 N   0  0  0  0  0  0  0  0  0  0  0  0
  139.6680   70.0820  226.3810 C   0  0  0  0  0  0  0  0  0  0  0  0
  139.8530   69.9260  227.7480 C   0  0  0  0  0  0  0  0  0  0  0  0
  140.7360   70.7940  228.3500 C   0  0  0  0  0  0  0  0  0  0  0  0
  141.4070   71.7680  227.6470 C   0  0  0  0  0  0  0  0  0  0  0  0
  141.2220   71.9240  226.2760 C   0  0  0  0  0  0  0  0  0  0  0  0
  140.3370   71.0580  225.6630 C   0  0  0  0  0  0  0  0  0  0  0  0
  140.0730   71.1190  224.3050 C   0  0  0  0  0  0  0  0  0  0  0  0
  141.5790   74.0930  220.5170 C   0  0  0  0  0  0  0  0  0  0  0  0
  141.6290   75.2990  221.4310 C   0  0  0  0  0  0  0  0  0  0  0  0
  136.2504   77.8614  223.7077 H   0  0  0  0  0  0  0  0  0  0  0  0
  136.1222   78.7540  222.1542 H   0  0  0  0  0  0  0  0  0  0  0  0
  136.5353   77.0059  222.1542 H   0  0  0  0  0  0  0  0  0  0  0  0
  138.3405   79.0805  222.0208 H   0  0  0  0  0  0  0  0  0  0  0  0
  138.3256   78.6533  223.7922 H   0  0  0  0  0  0  0  0  0  0  0  0
  141.0814   79.1574  220.1699 H   0  0  0  0  0  0  0  0  0  0  0  0
  142.4705   81.1525  220.8075 H   0  0  0  0  0  0  0  0  0  0  0  0
  143.1958   81.5078  223.1327 H   0  0  0  0  0  0  0  0  0  0  0  0
  142.5552   79.8886  224.9170 H   0  0  0  0  0  0  0  0  0  0  0  0
  141.1805   77.9207  224.2991 H   0  0  0  0  0  0  0  0  0  0  0  0
  141.3289   76.9247  220.1510 H   0  0  0  0  0  0  0  0  0  0  0  0
  138.7870   76.4928  220.0463 H   0  0  0  0  0  0  0  0  0  0  0  0
  140.1233   75.7881  218.9607 H   0  0  0  0  0  0  0  0  0  0  0  0
  138.3336   74.4598  220.9082 H   0  0  0  0  0  0  0  0  0  0  0  0
  138.8452   74.0127  219.2246 H   0  0  0  0  0  0  0  0  0  0  0  0
  138.2152   71.6417  220.7324 H   0  0  0  0  0  0  0  0  0  0  0  0
  138.3050   73.4590  222.7460 H   0  0  0  0  0  0  0  0  0  0  0  0
  138.0390   71.9830  223.6280 H   0  0  0  0  0  0  0  0  0  0  0  0
  137.9510   69.7586  222.0540 H   0  0  0  0  0  0  0  0  0  0  0  0
  139.7395   69.8312  221.7050 H   0  0  0  0  0  0  0  0  0  0  0  0
  137.8428   68.5994  223.9717 H   0  0  0  0  0  0  0  0  0  0  0  0
  139.3224   69.1503  228.3197 H   0  0  0  0  0  0  0  0  0  0  0  0
  140.9114   70.7056  229.4323 H   0  0  0  0  0  0  0  0  0  0  0  0
  142.1020   72.4353  228.1777 H   0  0  0  0  0  0  0  0  0  0  0  0
  141.7553   72.7002  225.7076 H   0  0  0  0  0  0  0  0  0  0  0  0
  140.5862   71.8842  223.7040 H   0  0  0  0  0  0  0  0  0  0  0  0
  142.3322   73.3459  220.8078 H   0  0  0  0  0  0  0  0  0  0  0  0
  141.7964   74.3376  219.4668 H   0  0  0  0  0  0  0  0  0  0  0  0
  141.2908   75.0203  222.4399 H   0  0  0  0  0  0  0  0  0  0  0  0
  142.6561   75.6850  221.5087 H   0  0  0  0  0  0  0  0  0  0  0  0
  1  2  1  0
  2  3  1  0
  3  4  2  0
  3  5  1  0
  5  6  1  0
  6  7  2  0
  7  8  1  0
  8  9  2  0
  9 10  1  0
 10 11  2  0
  5 12  1  0
 12 13  1  0
 13 14  1  0
 14 15  1  0
 15 16  1  0
 16 17  2  0
 16 18  1  0
 18 19  1  0
 18 20  1  0
 20 21  1  0
 21 22  2  0
 22 23  1  0
 23 24  2  0
 24 25  1  0
 25 26  2  0
 26 27  1  0
 27 28  2  0
 28 29  1  0
 29 30  2  0
 15 31  1  0
 31 32  1  0
 11  6  1  0
 32 12  1  0
 30 21  1  0
 29 24  1  0
  1 33  1  0
  1 34  1  0
  1 35  1  0
  2 36  1  0
  2 37  1  0
  7 38  1  0
  8 39  1  0
  9 40  1  0
 10 41  1  0
 11 42  1  0
 12 43  1  0
 13 44  1  0
 13 45  1  0
 14 46  1  0
 14 47  1  0
 18 48  1  6
 19 49  1  0
 19 50  1  0
 20 51  1  0
 20 52  1  0
 22 53  1  0
 25 54  1  0
 26 55  1  0
 27 56  1  0
 28 57  1  0
 30 58  1  0
 31 59  1  0
 31 60  1  0
 32 61  1  0
 32 62  1  0
M  END
>  <smiles>  (48) 
CCC(=O)N(c1ccccc1)C1CCN(C(=O)[C@H](N)Cc2cnc3ccccc3c2)CC1

>  <score_type>  (48) 
oracle

>  <origin>  (48) 
autodockgpu

>  <m_score__min__energy>  (48) 
-8.8699999999999992

>  <m_primary>  (48) 
energy

>  <rmsd>  (48) 
7.121177546096862

>  <m_score__min__rmsd>  (48) 
7.121177546096862

>  <meeko>  (48) 
{"free_energy": -8.67, "intermolecular_energy": -11.06, "internal_energy": -1.87, "cluster_size": 25, "cluster_id": 1, "rank_in_cluster": 4}

>  <energy>  (48) 
-7.67

>  <cluster_rmsd>  (48) 
0.34

>  <cluster>  (48) 
5

$$$$

     RDKit          3D

 62 65  0  0  0  0  0  0  0  0999 V2000
  146.2320   73.0270  221.6230 C   0  0  0  0  0  0  0  0  0  0  0  0
  146.0170   73.9960  220.4900 C   0  0  0  0  0  0  0  0  0  0  0  0
  145.2760   73.3920  219.3410 C   0  0  0  0  0  0  0  0  0  0  0  0
  145.9480   72.6030  218.6160 O   0  0  0  0  0  0  0  0  0  0  0  0
  143.9130   73.7020  219.1040 N   0  0  0  0  0  0  0  0  0  0  0  0
  143.6110   75.0480  218.6640 C   0  0  0  0  0  0  0  0  0  0  0  0
  143.2330   75.9580  219.6570 C   0  0  0  0  0  0  0  0  0  0  0  0
  142.9430   77.2570  219.2280 C   0  0  0  0  0  0  0  0  0  0  0  0
  143.0240   77.6230  217.8970 C   0  0  0  0  0  0  0  0  0  0  0  0
  143.3990   76.7040  216.9380 C   0  0  0  0  0  0  0  0  0  0  0  0
  143.6880   75.4220  217.3510 C   0  0  0  0  0  0  0  0  0  0  0  0
  142.8670   72.7140  219.2960 C   0  0  0  0  0  0  0  0  0  0  0  0
  141.5780   73.0260  218.6370 C   0  0  0  0  0  0  0  0  0  0  0  0
  140.4570   73.5110  219.5010 C   0  0  0  0  0  0  0  0  0  0  0  0
  140.5170   72.9510  220.8340 N   0  0  0  0  0  0  0  0  0  0  0  0
  139.8870   73.4400  221.9720 C   0  0  0  0  0  0  0  0  0  0  0  0
  140.0510   72.8110  223.0830 O   0  0  0  0  0  0  0  0  0  0  0  0
  139.0220   74.6360  222.0620 C   0  0  2  0  0  0  0  0  0  0  0  0
  137.6100   74.2200  222.2010 N   0  0  0  0  0  0  0  0  0  0  0  0
  139.0940   75.5410  220.8620 C   0  0  0  0  0  0  0  0  0  0  0  0
  139.8160   76.7980  221.1280 C   0  0  0  0  0  0  0  0  0  0  0  0
  139.8310   77.7490  220.1260 C   0  0  0  0  0  0  0  0  0  0  0  0
  140.4850   78.9020  220.3520 N   0  0  0  0  0  0  0  0  0  0  0  0
  141.1290   79.1940  221.4960 C   0  0  0  0  0  0  0  0  0  0  0  0
  141.7660   80.4220  221.6040 C   0  0  0  0  0  0  0  0  0  0  0  0
  142.4110   80.6770  222.7930 C   0  0  0  0  0  0  0  0  0  0  0  0
  142.4320   79.7710  223.8290 C   0  0  0  0  0  0  0  0  0  0  0  0
  141.7930   78.5390  223.7210 C   0  0  0  0  0  0  0  0  0  0  0  0
  141.1430   78.2740  222.5300 C   0  0  0  0  0  0  0  0  0  0  0  0
  140.4740   77.0820  222.3090 C   0  0  0  0  0  0  0  0  0  0  0  0
  141.3630   71.7390  220.9420 C   0  0  0  0  0  0  0  0  0  0  0  0
  142.7630   72.2770  220.7320 C   0  0  0  0  0  0  0  0  0  0  0  0
  146.1154   73.5527  222.5822 H   0  0  0  0  0  0  0  0  0  0  0  0
  145.4920   72.2158  221.5571 H   0  0  0  0  0  0  0  0  0  0  0  0
  147.2456   72.6049  221.5571 H   0  0  0  0  0  0  0  0  0  0  0  0
  145.4413   74.8543  220.8667 H   0  0  0  0  0  0  0  0  0  0  0  0
  147.0084   74.2982  220.1214 H   0  0  0  0  0  0  0  0  0  0  0  0
  143.1676   75.6680  220.7161 H   0  0  0  0  0  0  0  0  0  0  0  0
  142.6416   78.0098  219.9712 H   0  0  0  0  0  0  0  0  0  0  0  0
  142.7876   78.6554  217.6000 H   0  0  0  0  0  0  0  0  0  0  0  0
  143.4650   76.9865  215.8769 H   0  0  0  0  0  0  0  0  0  0  0  0
  143.9901   74.6760  216.6012 H   0  0  0  0  0  0  0  0  0  0  0  0
  143.1914   71.8237  218.7373 H   0  0  0  0  0  0  0  0  0  0  0  0
  141.7733   73.8039  217.8841 H   0  0  0  0  0  0  0  0  0  0  0  0
  141.2272   72.0620  218.2399 H   0  0  0  0  0  0  0  0  0  0  0  0
  140.5136   74.6071  219.5737 H   0  0  0  0  0  0  0  0  0  0  0  0
  139.5108   73.1904  219.0407 H   0  0  0  0  0  0  0  0  0  0  0  0
  139.3901   75.1944  222.9353 H   0  0  0  0  0  0  0  0  0  0  0  0
  136.9830   75.0040  222.4080 H   0  0  0  0  0  0  0  0  0  0  0  0
  137.5320   73.4140  222.8510 H   0  0  0  0  0  0  0  0  0  0  0  0
  139.6095   75.0062  220.0507 H   0  0  0  0  0  0  0  0  0  0  0  0
  138.0620   75.8070  220.5896 H   0  0  0  0  0  0  0  0  0  0  0  0
  139.3212   77.5677  219.1683 H   0  0  0  0  0  0  0  0  0  0  0  0
  141.7561   81.1534  220.7825 H   0  0  0  0  0  0  0  0  0  0  0  0
  142.9283   81.6395  222.9198 H   0  0  0  0  0  0  0  0  0  0  0  0
  142.9629   80.0249  224.7583 H   0  0  0  0  0  0  0  0  0  0  0  0
  141.8047   77.8103  224.5449 H   0  0  0  0  0  0  0  0  0  0  0  0
  140.4661   76.3276  223.1095 H   0  0  0  0  0  0  0  0  0  0  0  0
  141.2631   71.2749  221.9343 H   0  0  0  0  0  0  0  0  0  0  0  0
  141.0887   70.9548  220.2211 H   0  0  0  0  0  0  0  0  0  0  0  0
  142.9407   73.1333  221.3993 H   0  0  0  0  0  0  0  0  0  0  0  0
  143.5134   71.5052  220.9582 H   0  0  0  0  0  0  0  0  0  0  0  0
  1  2  1  0
  2  3  1  0
  3  4  2  0
  3  5  1  0
  5  6  1  0
  6  7  2  0
  7  8  1  0
  8  9  2  0
  9 10  1  0
 10 11  2  0
  5 12  1  0
 12 13  1  0
 13 14  1  0
 14 15  1  0
 15 16  1  0
 16 17  2  0
 16 18  1  0
 18 19  1  0
 18 20  1  0
 20 21  1  0
 21 22  2  0
 22 23  1  0
 23 24  2  0
 24 25  1  0
 25 26  2  0
 26 27  1  0
 27 28  2  0
 28 29  1  0
 29 30  2  0
 15 31  1  0
 31 32  1  0
 11  6  1  0
 32 12  1  0
 30 21  1  0
 29 24  1  0
  1 33  1  0
  1 34  1  0
  1 35  1  0
  2 36  1  0
  2 37  1  0
  7 38  1  0
  8 39  1  0
  9 40  1  0
 10 41  1  0
 11 42  1  0
 12 43  1  0
 13 44  1  0
 13 45  1  0
 14 46  1  0
 14 47  1  0
 18 48  1  1
 19 49  1  0
 19 50  1  0
 20 51  1  0
 20 52  1  0
 22 53  1  0
 25 54  1  0
 26 55  1  0
 27 56  1  0
 28 57  1  0
 30 58  1  0
 31 59  1  0
 31 60  1  0
 32 61  1  0
 32 62  1  0
M  END
>  <smiles>  (49) 
CCC(=O)N(c1ccccc1)C1CCN(C(=O)[C@H](N)Cc2cnc3ccccc3c2)CC1

>  <score_type>  (49) 
oracle

>  <origin>  (49) 
autodockgpu

>  <m_score__min__energy>  (49) 
-8.8699999999999992

>  <m_primary>  (49) 
energy

>  <rmsd>  (49) 
6.512414617957429

>  <m_score__min__rmsd>  (49) 
6.512414617957429

>  <meeko>  (49) 
{"free_energy": -7.77, "intermolecular_energy": -10.16, "internal_energy": -2.62, "cluster_size": 7, "cluster_id": 5, "rank_in_cluster": 3}

>  <energy>  (49) 
-7.67

>  <cluster_rmsd>  (49) 
0.41

>  <cluster>  (49) 
5

$$$$

     RDKit          3D

 62 65  0  0  0  0  0  0  0  0999 V2000
  136.5510   76.0480  223.2180 C   0  0  0  0  0  0  0  0  0  0  0  0
  137.9930   76.0940  222.7830 C   0  0  0  0  0  0  0  0  0  0  0  0
  138.4220   77.4540  222.3350 C   0  0  0  0  0  0  0  0  0  0  0  0
  137.5270   78.3470  222.3770 O   0  0  0  0  0  0  0  0  0  0  0  0
  139.7480   77.6960  221.8970 N   0  0  0  0  0  0  0  0  0  0  0  0
  140.4430   78.8180  222.4920 C   0  0  0  0  0  0  0  0  0  0  0  0
  141.4820   78.5090  223.3780 C   0  0  0  0  0  0  0  0  0  0  0  0
  142.1520   79.5950  223.9500 C   0  0  0  0  0  0  0  0  0  0  0  0
  141.8080   80.9020  223.6590 C   0  0  0  0  0  0  0  0  0  0  0  0
  140.7790   81.1790  222.7810 C   0  0  0  0  0  0  0  0  0  0  0  0
  140.1140   80.1150  222.2110 C   0  0  0  0  0  0  0  0  0  0  0  0
  140.3800   76.8580  220.8940 C   0  0  0  0  0  0  0  0  0  0  0  0
  139.4520   76.2080  219.9410 C   0  0  0  0  0  0  0  0  0  0  0  0
  139.1730   74.7510  220.1270 C   0  0  0  0  0  0  0  0  0  0  0  0
  140.3090   74.0480  220.6870 N   0  0  0  0  0  0  0  0  0  0  0  0
  140.2930   72.8100  221.3180 C   0  0  0  0  0  0  0  0  0  0  0  0
  141.4040   72.3320  221.7580 O   0  0  0  0  0  0  0  0  0  0  0  0
  139.1140   71.9500  221.5540 C   0  0  2  0  0  0  0  0  0  0  0  0
  138.2700   72.5410  222.6140 N   0  0  0  0  0  0  0  0  0  0  0  0
  139.4490   70.5510  221.9940 C   0  0  0  0  0  0  0  0  0  0  0  0
  139.5280   70.4080  223.4580 C   0  0  0  0  0  0  0  0  0  0  0  0
  138.8130   69.3780  224.0390 C   0  0  0  0  0  0  0  0  0  0  0  0
  138.8750   69.2340  225.3750 N   0  0  0  0  0  0  0  0  0  0  0  0
  139.5920   70.0300  226.1890 C   0  0  0  0  0  0  0  0  0  0  0  0
  139.5720   69.7730  227.5520 C   0  0  0  0  0  0  0  0  0  0  0  0
  140.3210   70.6130  228.3460 C   0  0  0  0  0  0  0  0  0  0  0  0
  141.0550   71.6560  227.8280 C   0  0  0  0  0  0  0  0  0  0  0  0
  141.0750   71.9130  226.4600 C   0  0  0  0  0  0  0  0  0  0  0  0
  140.3250   71.0750  225.6560 C   0  0  0  0  0  0  0  0  0  0  0  0
  140.2690   71.2350  224.2810 C   0  0  0  0  0  0  0  0  0  0  0  0
  141.5920   74.7760  220.5560 C   0  0  0  0  0  0  0  0  0  0  0  0
  141.4200   75.9510  221.4950 C   0  0  0  0  0  0  0  0  0  0  0  0
  136.4993   76.0463  224.3168 H   0  0  0  0  0  0  0  0  0  0  0  0
  136.0219   76.9297  222.8274 H   0  0  0  0  0  0  0  0  0  0  0  0
  136.0791   75.1343  222.8274 H   0  0  0  0  0  0  0  0  0  0  0  0
  138.6250   75.7877  223.6296 H   0  0  0  0  0  0  0  0  0  0  0  0
  138.1009   75.4143  221.9249 H   0  0  0  0  0  0  0  0  0  0  0  0
  141.7561   77.4696  223.6113 H   0  0  0  0  0  0  0  0  0  0  0  0
  142.9769   79.4037  224.6521 H   0  0  0  0  0  0  0  0  0  0  0  0
  142.3590   81.7287  224.1312 H   0  0  0  0  0  0  0  0  0  0  0  0
  140.4989   82.2160  222.5440 H   0  0  0  0  0  0  0  0  0  0  0  0
  139.2924   80.3156  221.5076 H   0  0  0  0  0  0  0  0  0  0  0  0
  140.9292   77.5451  220.2335 H   0  0  0  0  0  0  0  0  0  0  0  0
  138.4901   76.7376  220.0060 H   0  0  0  0  0  0  0  0  0  0  0  0
  139.9624   76.2715  218.9687 H   0  0  0  0  0  0  0  0  0  0  0  0
  138.3152   74.6376  220.8062 H   0  0  0  0  0  0  0  0  0  0  0  0
  138.9585   74.3174  219.1391 H   0  0  0  0  0  0  0  0  0  0  0  0
  138.6006   71.8911  220.5829 H   0  0  0  0  0  0  0  0  0  0  0  0
  137.3240   72.7670  222.2900 H   0  0  0  0  0  0  0  0  0  0  0  0
  138.7710   73.3230  223.0810 H   0  0  0  0  0  0  0  0  0  0  0  0
  138.6715   69.8701  221.6174 H   0  0  0  0  0  0  0  0  0  0  0  0
  140.4418   70.3085  221.5871 H   0  0  0  0  0  0  0  0  0  0  0  0
  138.2090   68.6938  223.4250 H   0  0  0  0  0  0  0  0  0  0  0  0
  138.9889   68.9424  227.9762 H   0  0  0  0  0  0  0  0  0  0  0  0
  140.3331   70.4444  229.4329 H   0  0  0  0  0  0  0  0  0  0  0  0
  141.6359   72.2976  228.5069 H   0  0  0  0  0  0  0  0  0  0  0  0
  141.6600   72.7438  226.0386 H   0  0  0  0  0  0  0  0  0  0  0  0
  140.8397   72.0568  223.8239 H   0  0  0  0  0  0  0  0  0  0  0  0
  142.4375   74.1441  220.8655 H   0  0  0  0  0  0  0  0  0  0  0  0
  141.8127   75.0788  219.5218 H   0  0  0  0  0  0  0  0  0  0  0  0
  141.0862   75.5980  222.4819 H   0  0  0  0  0  0  0  0  0  0  0  0
  142.3723   76.4855  221.6273 H   0  0  0  0  0  0  0  0  0  0  0  0
  1  2  1  0
  2  3  1  0
  3  4  2  0
  3  5  1  0
  5  6  1  0
  6  7  2  0
  7  8  1  0
  8  9  2  0
  9 10  1  0
 10 11  2  0
  5 12  1  0
 12 13  1  0
 13 14  1  0
 14 15  1  0
 15 16  1  0
 16 17  2  0
 16 18  1  0
 18 19  1  0
 18 20  1  0
 20 21  1  0
 21 22  2  0
 22 23  1  0
 23 24  2  0
 24 25  1  0
 25 26  2  0
 26 27  1  0
 27 28  2  0
 28 29  1  0
 29 30  2  0
 15 31  1  0
 31 32  1  0
 11  6  1  0
 32 12  1  0
 30 21  1  0
 29 24  1  0
  1 33  1  0
  1 34  1  0
  1 35  1  0
  2 36  1  0
  2 37  1  0
  7 38  1  0
  8 39  1  0
  9 40  1  0
 10 41  1  0
 11 42  1  0
 12 43  1  0
 13 44  1  0
 13 45  1  0
 14 46  1  0
 14 47  1  0
 18 48  1  6
 19 49  1  0
 19 50  1  0
 20 51  1  0
 20 52  1  0
 22 53  1  0
 25 54  1  0
 26 55  1  0
 27 56  1  0
 28 57  1  0
 30 58  1  0
 31 59  1  0
 31 60  1  0
 32 61  1  0
 32 62  1  0
M  END
>  <smiles>  (50) 
CCC(=O)N(c1ccccc1)C1CCN(C(=O)[C@H](N)Cc2cnc3ccccc3c2)CC1

>  <score_type>  (50) 
oracle

>  <origin>  (50) 
autodockgpu

>  <m_score__min__energy>  (50) 
-8.8699999999999992

>  <m_primary>  (50) 
energy

>  <rmsd>  (50) 
6.750494971226924

>  <m_score__min__rmsd>  (50) 
6.750494971226924

>  <meeko>  (50) 
{"free_energy": -8.38, "intermolecular_energy": -10.76, "internal_energy": -1.78, "cluster_size": 25, "cluster_id": 1, "rank_in_cluster": 9}

>  <energy>  (50) 
-7.11

>  <cluster_rmsd>  (50) 
0.0

>  <cluster>  (50) 
6

$$$$
