
     RDKit          3D

 43 45  0  0  0  0  0  0  0  0999 V2000
  139.5900   67.4380  226.5200 C   0  0  0  0  0  0  0  0  0  0  0  0
  139.6400   68.6450  225.5950 C   0  0  1  0  0  0  0  0  0  0  0  0
  138.3570   68.8810  224.9790 N   0  0  0  0  0  0  0  0  0  0  0  0
  138.2590   69.3440  223.6460 C   0  0  0  0  0  0  0  0  0  0  0  0
  139.3530   69.5480  223.0240 O   0  0  0  0  0  0  0  0  0  0  0  0
  137.0060   69.6120  222.9220 C   0  0  0  0  0  0  0  0  0  0  0  0
  136.1710   70.4830  223.6760 N   0  0  0  0  0  0  0  0  0  0  0  0
  135.3990   70.0360  224.7830 C   0  0  0  0  0  0  0  0  0  0  0  0
  135.3910   68.8250  225.1720 O   0  0  0  0  0  0  0  0  0  0  0  0
  134.5710   71.0120  225.5080 C   0  0  0  0  0  0  0  0  0  0  0  0
  133.6220   70.5900  226.4120 C   0  0  0  0  0  0  0  0  0  0  0  0
  132.8520   71.4740  227.0890 N   0  0  0  0  0  0  0  0  0  0  0  0
  133.0260   72.8050  226.8660 C   0  0  0  0  0  0  0  0  0  0  0  0
  132.2530   73.7470  227.5420 C   0  0  0  0  0  0  0  0  0  0  0  0
  132.4290   75.1150  227.3160 C   0  0  0  0  0  0  0  0  0  0  0  0
  133.3910   75.5060  226.4010 C   0  0  0  0  0  0  0  0  0  0  0  0
  134.1740   74.6080  225.7130 C   0  0  0  0  0  0  0  0  0  0  0  0
  133.9700   73.2540  225.9660 C   0  0  0  0  0  0  0  0  0  0  0  0
  134.7240   72.3510  225.3050 N   0  0  0  0  0  0  0  0  0  0  0  0
  140.1910   69.8390  226.2770 C   0  0  0  0  0  0  0  0  0  0  0  0
  140.9580   70.7920  225.6330 C   0  0  0  0  0  0  0  0  0  0  0  0
  141.4470   71.8930  226.3350 C   0  0  0  0  0  0  0  0  0  0  0  0
  141.1470   72.0090  227.6850 C   0  0  0  0  0  0  0  0  0  0  0  0
  140.3720   71.0460  228.3390 C   0  0  0  0  0  0  0  0  0  0  0  0
  139.8910   69.9580  227.6390 C   0  0  0  0  0  0  0  0  0  0  0  0
  139.6040   67.7771  227.5663 H   0  0  0  0  0  0  0  0  0  0  0  0
  138.6675   66.8693  226.3312 H   0  0  0  0  0  0  0  0  0  0  0  0
  140.4623   66.7950  226.3312 H   0  0  0  0  0  0  0  0  0  0  0  0
  140.3411   68.4203  224.7777 H   0  0  0  0  0  0  0  0  0  0  0  0
  137.5120   68.7090  225.5620 H   0  0  0  0  0  0  0  0  0  0  0  0
  137.2399   70.0819  221.9553 H   0  0  0  0  0  0  0  0  0  0  0  0
  136.4766   68.6609  222.7633 H   0  0  0  0  0  0  0  0  0  0  0  0
  136.1060   71.5130  223.4210 H   0  0  0  0  0  0  0  0  0  0  0  0
  133.4867   69.5126  226.5877 H   0  0  0  0  0  0  0  0  0  0  0  0
  131.4941   73.4094  228.2632 H   0  0  0  0  0  0  0  0  0  0  0  0
  131.8204   75.8596  227.8500 H   0  0  0  0  0  0  0  0  0  0  0  0
  133.5357   76.5806  226.2160 H   0  0  0  0  0  0  0  0  0  0  0  0
  134.9318   74.9465  224.9911 H   0  0  0  0  0  0  0  0  0  0  0  0
  141.1835   70.6812  224.5621 H   0  0  0  0  0  0  0  0  0  0  0  0
  142.0585   72.6545  225.8288 H   0  0  0  0  0  0  0  0  0  0  0  0
  141.5254   72.8734  228.2504 H   0  0  0  0  0  0  0  0  0  0  0  0
  140.1460   71.1555  229.4100 H   0  0  0  0  0  0  0  0  0  0  0  0
  139.2805   69.1952  228.1444 H   0  0  0  0  0  0  0  0  0  0  0  0
  1  2  1  0
  2  3  1  0
  3  4  1  0
  4  5  2  0
  4  6  1  0
  6  7  1  0
  7  8  1  0
  8  9  2  0
  8 10  1  0
 10 11  2  0
 11 12  1  0
 12 13  2  0
 13 14  1  0
 14 15  2  0
 15 16  1  0
 16 17  2  0
 17 18  1  0
 18 19  2  0
  2 20  1  0
 20 21  2  0
 21 22  1  0
 22 23  2  0
 23 24  1  0
 24 25  2  0
 19 10  1  0
 25 20  1  0
 18 13  1  0
  1 26  1  0
  1 27  1  0
  1 28  1  0
  2 29  1  6
  3 30  1  0
  6 31  1  0
  6 32  1  0
  7 33  1  0
 11 34  1  0
 14 35  1  0
 15 36  1  0
 16 37  1  0
 17 38  1  0
 21 39  1  0
 22 40  1  0
 23 41  1  0
 24 42  1  0
 25 43  1  0
M  END
>  <smiles>  (1) 
C[C@@H](NC(=O)CNC(=O)c1cnc2ccccc2n1)c1ccccc1

>  <score_type>  (1) 
oracle

>  <origin>  (1) 
autodockgpu

>  <m_score__min__energy>  (1) 
-8.6199999999999992

>  <m_primary>  (1) 
energy

>  <rmsd>  (1) 
10.584925961412418

>  <m_score__min__rmsd>  (1) 
10.584925961412418

>  <meeko>  (1) 
{"free_energy": -7.43, "intermolecular_energy": -8.92, "internal_energy": -2.01, "cluster_size": 9, "cluster_id": 4, "rank_in_cluster": 5}

>  <energy>  (1) 
-8.62

>  <cluster_rmsd>  (1) 
0.0

>  <cluster>  (1) 
1

$$$$

     RDKit          3D

 43 45  0  0  0  0  0  0  0  0999 V2000
  139.5450   68.0820  225.2690 C   0  0  0  0  0  0  0  0  0  0  0  0
  140.3030   69.3680  224.9700 C   0  0  1  0  0  0  0  0  0  0  0  0
  139.7330   70.0550  223.8360 N   0  0  0  0  0  0  0  0  0  0  0  0
  138.4010   70.5290  223.8610 C   0  0  0  0  0  0  0  0  0  0  0  0
  137.7310   70.3150  224.9240 O   0  0  0  0  0  0  0  0  0  0  0  0
  137.7260   71.2440  222.7650 C   0  0  0  0  0  0  0  0  0  0  0  0
  138.4420   72.4250  222.4240 N   0  0  0  0  0  0  0  0  0  0  0  0
  139.6350   72.4000  221.6510 C   0  0  0  0  0  0  0  0  0  0  0  0
  140.1520   71.3230  221.2170 O   0  0  0  0  0  0  0  0  0  0  0  0
  140.3010   73.6740  221.3390 C   0  0  0  0  0  0  0  0  0  0  0  0
  141.2530   73.7410  220.3460 C   0  0  0  0  0  0  0  0  0  0  0  0
  141.8760   74.9050  220.0450 N   0  0  0  0  0  0  0  0  0  0  0  0
  141.5500   76.0260  220.7430 C   0  0  0  0  0  0  0  0  0  0  0  0
  142.1690   77.2430  220.4650 C   0  0  0  0  0  0  0  0  0  0  0  0
  141.8370   78.3970  221.1800 C   0  0  0  0  0  0  0  0  0  0  0  0
  140.8780   78.2960  222.1720 C   0  0  0  0  0  0  0  0  0  0  0  0
  140.2440   77.1140  222.4780 C   0  0  0  0  0  0  0  0  0  0  0  0
  140.6010   75.9860  221.7440 C   0  0  0  0  0  0  0  0  0  0  0  0
  139.9950   74.8130  222.0220 N   0  0  0  0  0  0  0  0  0  0  0  0
  140.4300   70.2240  226.1720 C   0  0  0  0  0  0  0  0  0  0  0  0
  139.7930   69.9510  227.3680 C   0  0  0  0  0  0  0  0  0  0  0  0
  139.9550   70.7990  228.4620 C   0  0  0  0  0  0  0  0  0  0  0  0
  140.7670   71.9160  228.3230 C   0  0  0  0  0  0  0  0  0  0  0  0
  141.4130   72.1960  227.1150 C   0  0  0  0  0  0  0  0  0  0  0  0
  141.2480   71.3520  226.0350 C   0  0  0  0  0  0  0  0  0  0  0  0
  139.4659   67.9477  226.3579 H   0  0  0  0  0  0  0  0  0  0  0  0
  138.5370   68.1406  224.8326 H   0  0  0  0  0  0  0  0  0  0  0  0
  140.0845   67.2285  224.8326 H   0  0  0  0  0  0  0  0  0  0  0  0
  141.3319   69.1012  224.6867 H   0  0  0  0  0  0  0  0  0  0  0  0
  140.3400   70.1720  222.9990 H   0  0  0  0  0  0  0  0  0  0  0  0
  137.6710   70.5872  221.8843 H   0  0  0  0  0  0  0  0  0  0  0  0
  136.7143   71.5242  223.0935 H   0  0  0  0  0  0  0  0  0  0  0  0
  138.0900   73.3750  222.7480 H   0  0  0  0  0  0  0  0  0  0  0  0
  141.5125   72.8305  219.7860 H   0  0  0  0  0  0  0  0  0  0  0  0
  142.9294   77.2962  219.6719 H   0  0  0  0  0  0  0  0  0  0  0  0
  142.3244   79.3583  220.9602 H   0  0  0  0  0  0  0  0  0  0  0  0
  140.6111   79.1992  222.7403 H   0  0  0  0  0  0  0  0  0  0  0  0
  139.4844   77.0621  223.2719 H   0  0  0  0  0  0  0  0  0  0  0  0
  139.1547   69.0595  227.4567 H   0  0  0  0  0  0  0  0  0  0  0  0
  139.4498   70.5874  229.4159 H   0  0  0  0  0  0  0  0  0  0  0  0
  140.9048   72.5933  229.1787 H   0  0  0  0  0  0  0  0  0  0  0  0
  142.0515   73.0872  227.0253 H   0  0  0  0  0  0  0  0  0  0  0  0
  141.7521   71.5628  225.0803 H   0  0  0  0  0  0  0  0  0  0  0  0
  1  2  1  0
  2  3  1  0
  3  4  1  0
  4  5  2  0
  4  6  1  0
  6  7  1  0
  7  8  1  0
  8  9  2  0
  8 10  1  0
 10 11  2  0
 11 12  1  0
 12 13  2  0
 13 14  1  0
 14 15  2  0
 15 16  1  0
 16 17  2  0
 17 18  1  0
 18 19  2  0
  2 20  1  0
 20 21  2  0
 21 22  1  0
 22 23  2  0
 23 24  1  0
 24 25  2  0
 19 10  1  0
 25 20  1  0
 18 13  1  0
  1 26  1  0
  1 27  1  0
  1 28  1  0
  2 29  1  6
  3 30  1  0
  6 31  1  0
  6 32  1  0
  7 33  1  0
 11 34  1  0
 14 35  1  0
 15 36  1  0
 16 37  1  0
 17 38  1  0
 21 39  1  0
 22 40  1  0
 23 41  1  0
 24 42  1  0
 25 43  1  0
M  END
>  <smiles>  (2) 
C[C@@H](NC(=O)CNC(=O)c1cnc2ccccc2n1)c1ccccc1

>  <score_type>  (2) 
oracle

>  <origin>  (2) 
autodockgpu

>  <m_score__min__energy>  (2) 
-8.6199999999999992

>  <m_primary>  (2) 
energy

>  <rmsd>  (2) 
9.850955509165587

>  <m_score__min__rmsd>  (2) 
9.850955509165587

>  <meeko>  (2) 
{"free_energy": -7.46, "intermolecular_energy": -8.95, "internal_energy": -2.01, "cluster_size": 4, "cluster_id": 5, "rank_in_cluster": 1}

>  <energy>  (2) 
-8.35

>  <cluster_rmsd>  (2) 
0.52

>  <cluster>  (2) 
1

$$$$

     RDKit          3D

 43 45  0  0  0  0  0  0  0  0999 V2000
  139.1650   69.1780  224.3840 C   0  0  0  0  0  0  0  0  0  0  0  0
  139.8680   70.5270  224.4370 C   0  0  1  0  0  0  0  0  0  0  0  0
  139.0640   71.5570  223.8260 N   0  0  0  0  0  0  0  0  0  0  0  0
  139.4840   72.2090  222.6440 C   0  0  0  0  0  0  0  0  0  0  0  0
  140.6040   71.8490  222.1530 O   0  0  0  0  0  0  0  0  0  0  0  0
  138.7420   73.2660  221.9390 C   0  0  0  0  0  0  0  0  0  0  0  0
  139.4030   74.5180  222.0780 N   0  0  0  0  0  0  0  0  0  0  0  0
  139.9520   75.2210  220.9700 C   0  0  0  0  0  0  0  0  0  0  0  0
  139.9010   74.7780  219.7800 O   0  0  0  0  0  0  0  0  0  0  0  0
  140.6100   76.5150  221.2100 C   0  0  0  0  0  0  0  0  0  0  0  0
  141.1020   77.2550  220.1580 C   0  0  0  0  0  0  0  0  0  0  0  0
  141.7090   78.4480  220.3590 N   0  0  0  0  0  0  0  0  0  0  0  0
  141.8320   78.9180  221.6300 C   0  0  0  0  0  0  0  0  0  0  0  0
  142.4520   80.1410  221.8810 C   0  0  0  0  0  0  0  0  0  0  0  0
  142.5800   80.6270  223.1840 C   0  0  0  0  0  0  0  0  0  0  0  0
  142.0760   79.8590  224.2190 C   0  0  0  0  0  0  0  0  0  0  0  0
  141.4580   78.6470  224.0150 C   0  0  0  0  0  0  0  0  0  0  0  0
  141.3480   78.1960  222.7020 C   0  0  0  0  0  0  0  0  0  0  0  0
  140.7470   77.0100  222.4720 N   0  0  0  0  0  0  0  0  0  0  0  0
  140.3100   70.8640  225.8100 C   0  0  0  0  0  0  0  0  0  0  0  0
  141.0880   71.9680  226.1050 C   0  0  0  0  0  0  0  0  0  0  0  0
  141.4700   72.2290  227.4200 C   0  0  0  0  0  0  0  0  0  0  0  0
  141.0530   71.3600  228.4190 C   0  0  0  0  0  0  0  0  0  0  0  0
  140.2670   70.2420  228.1230 C   0  0  0  0  0  0  0  0  0  0  0  0
  139.8920   69.9890  226.8190 C   0  0  0  0  0  0  0  0  0  0  0  0
  138.9790   68.8210  225.4077 H   0  0  0  0  0  0  0  0  0  0  0  0
  138.2075   69.2841  223.8530 H   0  0  0  0  0  0  0  0  0  0  0  0
  139.8005   68.4540  223.8530 H   0  0  0  0  0  0  0  0  0  0  0  0
  140.7884   70.4564  223.8388 H   0  0  0  0  0  0  0  0  0  0  0  0
  138.1730   71.8060  224.3010 H   0  0  0  0  0  0  0  0  0  0  0  0
  138.6737   73.0096  220.8715 H   0  0  0  0  0  0  0  0  0  0  0  0
  137.7356   73.3453  222.3758 H   0  0  0  0  0  0  0  0  0  0  0  0
  139.5020   74.9670  223.0370 H   0  0  0  0  0  0  0  0  0  0  0  0
  140.9996   76.8686  219.1332 H   0  0  0  0  0  0  0  0  0  0  0  0
  142.8460   80.7317  221.0408 H   0  0  0  0  0  0  0  0  0  0  0  0
  143.0676   81.5929  223.3820 H   0  0  0  0  0  0  0  0  0  0  0  0
  142.1737   80.2336  225.2486 H   0  0  0  0  0  0  0  0  0  0  0  0
  141.0659   78.0569  224.8564 H   0  0  0  0  0  0  0  0  0  0  0  0
  141.4072   72.6439  225.2980 H   0  0  0  0  0  0  0  0  0  0  0  0
  142.0892   73.1056  227.6611 H   0  0  0  0  0  0  0  0  0  0  0  0
  141.3459   71.5542  229.4614 H   0  0  0  0  0  0  0  0  0  0  0  0
  139.9478   69.5646  228.9288 H   0  0  0  0  0  0  0  0  0  0  0  0
  139.2735   69.1123  226.5764 H   0  0  0  0  0  0  0  0  0  0  0  0
  1  2  1  0
  2  3  1  0
  3  4  1  0
  4  5  2  0
  4  6  1  0
  6  7  1  0
  7  8  1  0
  8  9  2  0
  8 10  1  0
 10 11  2  0
 11 12  1  0
 12 13  2  0
 13 14  1  0
 14 15  2  0
 15 16  1  0
 16 17  2  0
 17 18  1  0
 18 19  2  0
  2 20  1  0
 20 21  2  0
 21 22  1  0
 22 23  2  0
 23 24  1  0
 24 25  2  0
 19 10  1  0
 25 20  1  0
 18 13  1  0
  1 26  1  0
  1 27  1  0
  1 28  1  0
  2 29  1  6
  3 30  1  0
  6 31  1  0
  6 32  1  0
  7 33  1  0
 11 34  1  0
 14 35  1  0
 15 36  1  0
 16 37  1  0
 17 38  1  0
 21 39  1  0
 22 40  1  0
 23 41  1  0
 24 42  1  0
 25 43  1  0
M  END
>  <smiles>  (3) 
C[C@@H](NC(=O)CNC(=O)c1cnc2ccccc2n1)c1ccccc1

>  <score_type>  (3) 
oracle

>  <origin>  (3) 
autodockgpu

>  <m_score__min__energy>  (3) 
-8.6199999999999992

>  <m_primary>  (3) 
energy

>  <rmsd>  (3) 
10.183275679571196

>  <m_score__min__rmsd>  (3) 
10.183275679571196

>  <meeko>  (3) 
{"free_energy": -8.28, "intermolecular_energy": -9.77, "internal_energy": -1.16, "cluster_size": 17, "cluster_id": 1, "rank_in_cluster": 5}

>  <energy>  (3) 
-8.33

>  <cluster_rmsd>  (3) 
0.89

>  <cluster>  (3) 
1

$$$$

     RDKit          3D

 43 45  0  0  0  0  0  0  0  0999 V2000
  139.4940   68.1570  225.2740 C   0  0  0  0  0  0  0  0  0  0  0  0
  139.8610   69.5690  224.8400 C   0  0  1  0  0  0  0  0  0  0  0  0
  138.8120   70.1570  224.0430 N   0  0  0  0  0  0  0  0  0  0  0  0
  139.0840   71.2020  223.1300 C   0  0  0  0  0  0  0  0  0  0  0  0
  140.2920   71.6000  223.0510 O   0  0  0  0  0  0  0  0  0  0  0  0
  138.0920   71.8670  222.2690 C   0  0  0  0  0  0  0  0  0  0  0  0
  137.1860   72.6350  223.0530 N   0  0  0  0  0  0  0  0  0  0  0  0
  136.1580   72.0420  223.8360 C   0  0  0  0  0  0  0  0  0  0  0  0
  135.9680   70.7850  223.8840 O   0  0  0  0  0  0  0  0  0  0  0  0
  135.2750   72.9170  224.6220 C   0  0  0  0  0  0  0  0  0  0  0  0
  135.4300   74.2850  224.5820 C   0  0  0  0  0  0  0  0  0  0  0  0
  134.6260   75.1060  225.2980 N   0  0  0  0  0  0  0  0  0  0  0  0
  133.6470   74.5600  226.0690 C   0  0  0  0  0  0  0  0  0  0  0  0
  132.7990   75.3700  226.8220 C   0  0  0  0  0  0  0  0  0  0  0  0
  131.7920   74.8130  227.6150 C   0  0  0  0  0  0  0  0  0  0  0  0
  131.6630   73.4360  227.6320 C   0  0  0  0  0  0  0  0  0  0  0  0
  132.4790   72.6020  226.9050 C   0  0  0  0  0  0  0  0  0  0  0  0
  133.4700   73.1930  226.1260 C   0  0  0  0  0  0  0  0  0  0  0  0
  134.2860   72.3990  225.4030 N   0  0  0  0  0  0  0  0  0  0  0  0
  140.2680   70.4110  225.9880 C   0  0  0  0  0  0  0  0  0  0  0  0
  141.1180   71.4950  225.8700 C   0  0  0  0  0  0  0  0  0  0  0  0
  141.4610   72.2460  226.9920 C   0  0  0  0  0  0  0  0  0  0  0  0
  140.9320   71.8840  228.2230 C   0  0  0  0  0  0  0  0  0  0  0  0
  140.0720   70.7870  228.3470 C   0  0  0  0  0  0  0  0  0  0  0  0
  139.7360   70.0470  227.2320 C   0  0  0  0  0  0  0  0  0  0  0  0
  139.4800   68.1031  226.3726 H   0  0  0  0  0  0  0  0  0  0  0  0
  138.4991   67.8997  224.8815 H   0  0  0  0  0  0  0  0  0  0  0  0
  140.2377   67.4478  224.8815 H   0  0  0  0  0  0  0  0  0  0  0  0
  140.7469   69.5070  224.1909 H   0  0  0  0  0  0  0  0  0  0  0  0
  137.8490   69.7880  224.1820 H   0  0  0  0  0  0  0  0  0  0  0  0
  138.6126   72.5310  221.5632 H   0  0  0  0  0  0  0  0  0  0  0  0
  137.5257   71.0997  221.7208 H   0  0  0  0  0  0  0  0  0  0  0  0
  137.2620   73.6950  223.0700 H   0  0  0  0  0  0  0  0  0  0  0  0
  136.2231   74.7193  223.9556 H   0  0  0  0  0  0  0  0  0  0  0  0
  132.9239   76.4625  226.7918 H   0  0  0  0  0  0  0  0  0  0  0  0
  131.1212   75.4514  228.2087 H   0  0  0  0  0  0  0  0  0  0  0  0
  130.8735   72.9890  228.2540 H   0  0  0  0  0  0  0  0  0  0  0  0
  132.3537   71.5096  226.9375 H   0  0  0  0  0  0  0  0  0  0  0  0
  141.5256   71.7659  224.8849 H   0  0  0  0  0  0  0  0  0  0  0  0
  142.1377   73.1088  226.9041 H   0  0  0  0  0  0  0  0  0  0  0  0
  141.1933   72.4696  229.1168 H   0  0  0  0  0  0  0  0  0  0  0  0
  139.6645   70.5151  229.3319 H   0  0  0  0  0  0  0  0  0  0  0  0
  139.0600   69.1835  227.3185 H   0  0  0  0  0  0  0  0  0  0  0  0
  1  2  1  0
  2  3  1  0
  3  4  1  0
  4  5  2  0
  4  6  1  0
  6  7  1  0
  7  8  1  0
  8  9  2  0
  8 10  1  0
 10 11  2  0
 11 12  1  0
 12 13  2  0
 13 14  1  0
 14 15  2  0
 15 16  1  0
 16 17  2  0
 17 18  1  0
 18 19  2  0
  2 20  1  0
 20 21  2  0
 21 22  1  0
 22 23  2  0
 23 24  1  0
 24 25  2  0
 19 10  1  0
 25 20  1  0
 18 13  1  0
  1 26  1  0
  1 27  1  0
  1 28  1  0
  2 29  1  6
  3 30  1  0
  6 31  1  0
  6 32  1  0
  7 33  1  0
 11 34  1  0
 14 35  1  0
 15 36  1  0
 16 37  1  0
 17 38  1  0
 21 39  1  0
 22 40  1  0
 23 41  1  0
 24 42  1  0
 25 43  1  0
M  END
>  <smiles>  (4) 
C[C@@H](NC(=O)CNC(=O)c1cnc2ccccc2n1)c1ccccc1

>  <score_type>  (4) 
oracle

>  <origin>  (4) 
autodockgpu

>  <m_score__min__energy>  (4) 
-8.6199999999999992

>  <m_primary>  (4) 
energy

>  <rmsd>  (4) 
9.993283212896133

>  <m_score__min__rmsd>  (4) 
9.993283212896133

>  <meeko>  (4) 
{"free_energy": -7.46, "intermolecular_energy": -8.95, "internal_energy": -1.65, "cluster_size": 9, "cluster_id": 4, "rank_in_cluster": 4}

>  <energy>  (4) 
-8.32

>  <cluster_rmsd>  (4) 
0.91

>  <cluster>  (4) 
1

$$$$

     RDKit          3D

 43 45  0  0  0  0  0  0  0  0999 V2000
  139.2370   68.1770  225.0490 C   0  0  0  0  0  0  0  0  0  0  0  0
  139.5610   69.6340  224.7550 C   0  0  1  0  0  0  0  0  0  0  0  0
  138.4480   70.2950  224.1160 N   0  0  0  0  0  0  0  0  0  0  0  0
  138.6510   71.3740  223.2250 C   0  0  0  0  0  0  0  0  0  0  0  0
  139.8560   71.7370  223.0220 O   0  0  0  0  0  0  0  0  0  0  0  0
  137.5920   72.1130  222.5190 C   0  0  0  0  0  0  0  0  0  0  0  0
  136.6380   72.6230  223.4430 N   0  0  0  0  0  0  0  0  0  0  0  0
  135.6690   71.7980  224.0770 C   0  0  0  0  0  0  0  0  0  0  0  0
  135.5780   70.5490  223.8570 O   0  0  0  0  0  0  0  0  0  0  0  0
  134.7290   72.4140  225.0270 C   0  0  0  0  0  0  0  0  0  0  0  0
  133.8670   71.6320  225.7630 C   0  0  0  0  0  0  0  0  0  0  0  0
  132.9960   72.1810  226.6420 N   0  0  0  0  0  0  0  0  0  0  0  0
  132.9780   73.5330  226.7950 C   0  0  0  0  0  0  0  0  0  0  0  0
  132.0960   74.1380  227.6880 C   0  0  0  0  0  0  0  0  0  0  0  0
  132.0750   75.5260  227.8470 C   0  0  0  0  0  0  0  0  0  0  0  0
  132.9540   76.2820  227.0920 C   0  0  0  0  0  0  0  0  0  0  0  0
  133.8390   75.7250  226.1990 C   0  0  0  0  0  0  0  0  0  0  0  0
  133.8310   74.3390  226.0680 C   0  0  0  0  0  0  0  0  0  0  0  0
  134.6890   73.7640  225.2000 N   0  0  0  0  0  0  0  0  0  0  0  0
  140.0510   70.3440  225.9590 C   0  0  0  0  0  0  0  0  0  0  0  0
  139.6620   70.0140  227.2440 C   0  0  0  0  0  0  0  0  0  0  0  0
  140.1620   70.7230  228.3340 C   0  0  0  0  0  0  0  0  0  0  0  0
  141.0540   71.7610  228.1020 C   0  0  0  0  0  0  0  0  0  0  0  0
  141.4490   72.0980  226.8030 C   0  0  0  0  0  0  0  0  0  0  0  0
  140.9510   71.3920  225.7270 C   0  0  0  0  0  0  0  0  0  0  0  0
  139.2024   68.0215  226.1374 H   0  0  0  0  0  0  0  0  0  0  0  0
  138.2604   67.9230  224.6111 H   0  0  0  0  0  0  0  0  0  0  0  0
  140.0139   67.5330  224.6111 H   0  0  0  0  0  0  0  0  0  0  0  0
  140.3936   69.6602  224.0367 H   0  0  0  0  0  0  0  0  0  0  0  0
  137.4950   69.9500  224.3500 H   0  0  0  0  0  0  0  0  0  0  0  0
  138.0424   72.9498  221.9651 H   0  0  0  0  0  0  0  0  0  0  0  0
  137.0832   71.4281  221.8247 H   0  0  0  0  0  0  0  0  0  0  0  0
  136.6310   73.6580  223.6860 H   0  0  0  0  0  0  0  0  0  0  0  0
  133.8865   70.5397  225.6342 H   0  0  0  0  0  0  0  0  0  0  0  0
  131.4066   73.5142  228.2760 H   0  0  0  0  0  0  0  0  0  0  0  0
  131.3794   76.0041  228.5524 H   0  0  0  0  0  0  0  0  0  0  0  0
  132.9445   77.3755  227.2112 H   0  0  0  0  0  0  0  0  0  0  0  0
  134.5267   76.3504  225.6109 H   0  0  0  0  0  0  0  0  0  0  0  0
  138.9543   69.1877  227.4065 H   0  0  0  0  0  0  0  0  0  0  0  0
  139.8559   70.4653  229.3586 H   0  0  0  0  0  0  0  0  0  0  0  0
  141.4571   72.3281  228.9540 H   0  0  0  0  0  0  0  0  0  0  0  0
  142.1558   72.9249  226.6395 H   0  0  0  0  0  0  0  0  0  0  0  0
  141.2564   71.6485  224.7019 H   0  0  0  0  0  0  0  0  0  0  0  0
  1  2  1  0
  2  3  1  0
  3  4  1  0
  4  5  2  0
  4  6  1  0
  6  7  1  0
  7  8  1  0
  8  9  2  0
  8 10  1  0
 10 11  2  0
 11 12  1  0
 12 13  2  0
 13 14  1  0
 14 15  2  0
 15 16  1  0
 16 17  2  0
 17 18  1  0
 18 19  2  0
  2 20  1  0
 20 21  2  0
 21 22  1  0
 22 23  2  0
 23 24  1  0
 24 25  2  0
 19 10  1  0
 25 20  1  0
 18 13  1  0
  1 26  1  0
  1 27  1  0
  1 28  1  0
  2 29  1  6
  3 30  1  0
  6 31  1  0
  6 32  1  0
  7 33  1  0
 11 34  1  0
 14 35  1  0
 15 36  1  0
 16 37  1  0
 17 38  1  0
 21 39  1  0
 22 40  1  0
 23 41  1  0
 24 42  1  0
 25 43  1  0
M  END
>  <smiles>  (5) 
C[C@@H](NC(=O)CNC(=O)c1cnc2ccccc2n1)c1ccccc1

>  <score_type>  (5) 
oracle

>  <origin>  (5) 
autodockgpu

>  <m_score__min__energy>  (5) 
-8.6199999999999992

>  <m_primary>  (5) 
energy

>  <rmsd>  (5) 
9.981321246372104

>  <m_score__min__rmsd>  (5) 
9.981321246372104

>  <meeko>  (5) 
{"free_energy": -7.35, "intermolecular_energy": -8.84, "internal_energy": -2.0, "cluster_size": 9, "cluster_id": 4, "rank_in_cluster": 7}

>  <energy>  (5) 
-8.28

>  <cluster_rmsd>  (5) 
0.88

>  <cluster>  (5) 
1

$$$$

     RDKit          3D

 43 45  0  0  0  0  0  0  0  0999 V2000
  139.2940   78.9290  220.1730 C   0  0  0  0  0  0  0  0  0  0  0  0
  139.8020   78.1080  221.3490 C   0  0  1  0  0  0  0  0  0  0  0  0
  140.2160   76.7930  220.9240 N   0  0  0  0  0  0  0  0  0  0  0  0
  139.8070   75.6340  221.6250 C   0  0  0  0  0  0  0  0  0  0  0  0
  139.0650   75.8090  222.6460 O   0  0  0  0  0  0  0  0  0  0  0  0
  140.1660   74.2510  221.2760 C   0  0  0  0  0  0  0  0  0  0  0  0
  140.0080   73.3950  222.4010 N   0  0  0  0  0  0  0  0  0  0  0  0
  140.4120   72.0320  222.3900 C   0  0  0  0  0  0  0  0  0  0  0  0
  140.9330   71.4770  221.3710 O   0  0  0  0  0  0  0  0  0  0  0  0
  140.2170   71.2260  223.6050 C   0  0  0  0  0  0  0  0  0  0  0  0
  139.6500   69.9730  223.5310 C   0  0  0  0  0  0  0  0  0  0  0  0
  139.4640   69.2170  224.6380 N   0  0  0  0  0  0  0  0  0  0  0  0
  139.8470   69.7130  225.8460 C   0  0  0  0  0  0  0  0  0  0  0  0
  139.6710   68.9680  227.0100 C   0  0  0  0  0  0  0  0  0  0  0  0
  140.0630   69.4740  228.2520 C   0  0  0  0  0  0  0  0  0  0  0  0
  140.6280   70.7370  228.2930 C   0  0  0  0  0  0  0  0  0  0  0  0
  140.8180   71.5050  227.1680 C   0  0  0  0  0  0  0  0  0  0  0  0
  140.4160   70.9660  225.9480 C   0  0  0  0  0  0  0  0  0  0  0  0
  140.5900   71.6970  224.8280 N   0  0  0  0  0  0  0  0  0  0  0  0
  140.8420   78.8310  222.1170 C   0  0  0  0  0  0  0  0  0  0  0  0
  141.0970   78.5950  223.4550 C   0  0  0  0  0  0  0  0  0  0  0  0
  142.0910   79.3110  224.1190 C   0  0  0  0  0  0  0  0  0  0  0  0
  142.8140   80.2590  223.4100 C   0  0  0  0  0  0  0  0  0  0  0  0
  142.5590   80.5010  222.0570 C   0  0  0  0  0  0  0  0  0  0  0  0
  141.5730   79.7890  221.4050 C   0  0  0  0  0  0  0  0  0  0  0  0
  138.7498   79.8085  220.5477 H   0  0  0  0  0  0  0  0  0  0  0  0
  140.1462   79.2586  219.5606 H   0  0  0  0  0  0  0  0  0  0  0  0
  138.6187   78.3135  219.5606 H   0  0  0  0  0  0  0  0  0  0  0  0
  138.9666   77.9599  222.0491 H   0  0  0  0  0  0  0  0  0  0  0  0
  140.8380   76.7380  220.0920 H   0  0  0  0  0  0  0  0  0  0  0  0
  139.5137   73.9024  220.4618 H   0  0  0  0  0  0  0  0  0  0  0  0
  141.2183   74.2270  220.9564 H   0  0  0  0  0  0  0  0  0  0  0  0
  139.5750   73.7670  223.2980 H   0  0  0  0  0  0  0  0  0  0  0  0
  139.3418   69.5784  222.5515 H   0  0  0  0  0  0  0  0  0  0  0  0
  139.2172   67.9677  226.9505 H   0  0  0  0  0  0  0  0  0  0  0  0
  139.9265   68.8854  229.1712 H   0  0  0  0  0  0  0  0  0  0  0  0
  140.9382   71.1437  229.2668 H   0  0  0  0  0  0  0  0  0  0  0  0
  141.2699   72.5060  227.2292 H   0  0  0  0  0  0  0  0  0  0  0  0
  140.5122   77.8381  223.9983 H   0  0  0  0  0  0  0  0  0  0  0  0
  142.2981   79.1282  225.1837 H   0  0  0  0  0  0  0  0  0  0  0  0
  143.6023   80.8307  223.9217 H   0  0  0  0  0  0  0  0  0  0  0  0
  143.1434   81.2577  221.5130 H   0  0  0  0  0  0  0  0  0  0  0  0
  141.3644   79.9718  220.3405 H   0  0  0  0  0  0  0  0  0  0  0  0
  1  2  1  0
  2  3  1  0
  3  4  1  0
  4  5  2  0
  4  6  1  0
  6  7  1  0
  7  8  1  0
  8  9  2  0
  8 10  1  0
 10 11  2  0
 11 12  1  0
 12 13  2  0
 13 14  1  0
 14 15  2  0
 15 16  1  0
 16 17  2  0
 17 18  1  0
 18 19  2  0
  2 20  1  0
 20 21  2  0
 21 22  1  0
 22 23  2  0
 23 24  1  0
 24 25  2  0
 19 10  1  0
 25 20  1  0
 18 13  1  0
  1 26  1  0
  1 27  1  0
  1 28  1  0
  2 29  1  1
  3 30  1  0
  6 31  1  0
  6 32  1  0
  7 33  1  0
 11 34  1  0
 14 35  1  0
 15 36  1  0
 16 37  1  0
 17 38  1  0
 21 39  1  0
 22 40  1  0
 23 41  1  0
 24 42  1  0
 25 43  1  0
M  END
>  <smiles>  (6) 
C[C@@H](NC(=O)CNC(=O)c1cnc2ccccc2n1)c1ccccc1

>  <score_type>  (6) 
oracle

>  <origin>  (6) 
autodockgpu

>  <m_score__min__energy>  (6) 
-8.6199999999999992

>  <m_primary>  (6) 
energy

>  <rmsd>  (6) 
3.727844810921561

>  <m_score__min__rmsd>  (6) 
3.727844810921561

>  <meeko>  (6) 
{"free_energy": -7.92, "intermolecular_energy": -9.42, "internal_energy": -1.51, "cluster_size": 14, "cluster_id": 2, "rank_in_cluster": 9}

>  <energy>  (6) 
-8.27

>  <cluster_rmsd>  (6) 
0.9

>  <cluster>  (6) 
1

$$$$

     RDKit          3D

 43 45  0  0  0  0  0  0  0  0999 V2000
  139.9590   70.3720  223.3800 C   0  0  0  0  0  0  0  0  0  0  0  0
  139.3760   71.0630  224.6040 C   0  0  1  0  0  0  0  0  0  0  0  0
  137.9340   71.0110  224.5940 N   0  0  0  0  0  0  0  0  0  0  0  0
  137.2460   69.7760  224.5670 C   0  0  0  0  0  0  0  0  0  0  0  0
  137.9580   68.7190  224.5460 O   0  0  0  0  0  0  0  0  0  0  0  0
  135.7840   69.6100  224.5580 C   0  0  0  0  0  0  0  0  0  0  0  0
  135.1450   70.7880  225.0370 N   0  0  0  0  0  0  0  0  0  0  0  0
  134.0880   70.7530  225.9870 C   0  0  0  0  0  0  0  0  0  0  0  0
  133.6320   69.6690  226.4690 O   0  0  0  0  0  0  0  0  0  0  0  0
  133.4950   72.0240  226.4310 C   0  0  0  0  0  0  0  0  0  0  0  0
  132.3540   72.0310  227.2030 C   0  0  0  0  0  0  0  0  0  0  0  0
  131.7950   73.1910  227.6220 N   0  0  0  0  0  0  0  0  0  0  0  0
  132.3780   74.3690  227.2680 C   0  0  0  0  0  0  0  0  0  0  0  0
  131.8330   75.5840  227.6770 C   0  0  0  0  0  0  0  0  0  0  0  0
  132.4280   76.7950  227.3160 C   0  0  0  0  0  0  0  0  0  0  0  0
  133.5730   76.7530  226.5400 C   0  0  0  0  0  0  0  0  0  0  0  0
  134.1420   75.5750  226.1150 C   0  0  0  0  0  0  0  0  0  0  0  0
  133.5210   74.3890  226.4950 C   0  0  0  0  0  0  0  0  0  0  0  0
  134.0570   73.2180  226.0930 N   0  0  0  0  0  0  0  0  0  0  0  0
  139.9720   70.5540  225.8610 C   0  0  0  0  0  0  0  0  0  0  0  0
  140.1650   69.2090  226.1170 C   0  0  0  0  0  0  0  0  0  0  0  0
  140.7320   68.7960  227.3220 C   0  0  0  0  0  0  0  0  0  0  0  0
  141.0960   69.7600  228.2510 C   0  0  0  0  0  0  0  0  0  0  0  0
  140.9030   71.1220  227.9950 C   0  0  0  0  0  0  0  0  0  0  0  0
  140.3410   71.5240  226.8000 C   0  0  0  0  0  0  0  0  0  0  0  0
  140.6374   69.5679  223.7012 H   0  0  0  0  0  0  0  0  0  0  0  0
  139.1440   69.9451  222.7770 H   0  0  0  0  0  0  0  0  0  0  0  0
  140.5170   71.1035  222.7770 H   0  0  0  0  0  0  0  0  0  0  0  0
  139.6491   72.1275  224.5564 H   0  0  0  0  0  0  0  0  0  0  0  0
  137.4280   71.9200  224.5920 H   0  0  0  0  0  0  0  0  0  0  0  0
  135.4489   69.4092  223.5297 H   0  0  0  0  0  0  0  0  0  0  0  0
  135.5177   68.7689  225.2150 H   0  0  0  0  0  0  0  0  0  0  0  0
  135.4540   71.7430  224.6860 H   0  0  0  0  0  0  0  0  0  0  0  0
  131.8878   71.0753  227.4846 H   0  0  0  0  0  0  0  0  0  0  0  0
  130.9215   75.5898  228.2927 H   0  0  0  0  0  0  0  0  0  0  0  0
  131.9987   77.7548  227.6393 H   0  0  0  0  0  0  0  0  0  0  0  0
  134.0483   77.7019  226.2507 H   0  0  0  0  0  0  0  0  0  0  0  0
  135.0529   75.5706  225.4984 H   0  0  0  0  0  0  0  0  0  0  0  0
  139.8698   68.4611  225.3663 H   0  0  0  0  0  0  0  0  0  0  0  0
  140.8876   67.7275  227.5318 H   0  0  0  0  0  0  0  0  0  0  0  0
  141.5443   69.4480  229.2058 H   0  0  0  0  0  0  0  0  0  0  0  0
  141.1985   71.8709  228.7445 H   0  0  0  0  0  0  0  0  0  0  0  0
  140.1853   72.5922  226.5886 H   0  0  0  0  0  0  0  0  0  0  0  0
  1  2  1  0
  2  3  1  0
  3  4  1  0
  4  5  2  0
  4  6  1  0
  6  7  1  0
  7  8  1  0
  8  9  2  0
  8 10  1  0
 10 11  2  0
 11 12  1  0
 12 13  2  0
 13 14  1  0
 14 15  2  0
 15 16  1  0
 16 17  2  0
 17 18  1  0
 18 19  2  0
  2 20  1  0
 20 21  2  0
 21 22  1  0
 22 23  2  0
 23 24  1  0
 24 25  2  0
 19 10  1  0
 25 20  1  0
 18 13  1  0
  1 26  1  0
  1 27  1  0
  1 28  1  0
  2 29  1  6
  3 30  1  0
  6 31  1  0
  6 32  1  0
  7 33  1  0
 11 34  1  0
 14 35  1  0
 15 36  1  0
 16 37  1  0
 17 38  1  0
 21 39  1  0
 22 40  1  0
 23 41  1  0
 24 42  1  0
 25 43  1  0
M  END
>  <smiles>  (7) 
C[C@@H](NC(=O)CNC(=O)c1cnc2ccccc2n1)c1ccccc1

>  <score_type>  (7) 
oracle

>  <origin>  (7) 
autodockgpu

>  <m_score__min__energy>  (7) 
-8.6199999999999992

>  <m_primary>  (7) 
energy

>  <rmsd>  (7) 
10.548157247851181

>  <m_score__min__rmsd>  (7) 
10.548157247851181

>  <meeko>  (7) 
{"free_energy": -7.95, "intermolecular_energy": -9.44, "internal_energy": -1.07, "cluster_size": 9, "cluster_id": 4, "rank_in_cluster": 1}

>  <energy>  (7) 
-8.26

>  <cluster_rmsd>  (7) 
0.93

>  <cluster>  (7) 
1

$$$$

     RDKit          3D

 43 45  0  0  0  0  0  0  0  0999 V2000
  139.2260   79.0010  219.8830 C   0  0  0  0  0  0  0  0  0  0  0  0
  139.6920   78.1680  221.0680 C   0  0  1  0  0  0  0  0  0  0  0  0
  140.0490   76.8330  220.6560 N   0  0  0  0  0  0  0  0  0  0  0  0
  139.8820   75.7290  221.5250 C   0  0  0  0  0  0  0  0  0  0  0  0
  139.4110   75.9730  222.6840 O   0  0  0  0  0  0  0  0  0  0  0  0
  140.2080   74.3300  221.2060 C   0  0  0  0  0  0  0  0  0  0  0  0
  140.0350   73.5030  222.3500 N   0  0  0  0  0  0  0  0  0  0  0  0
  140.5000   72.1610  222.4020 C   0  0  0  0  0  0  0  0  0  0  0  0
  141.0940   71.6000  221.4280 O   0  0  0  0  0  0  0  0  0  0  0  0
  140.2820   71.3850  223.6330 C   0  0  0  0  0  0  0  0  0  0  0  0
  139.6520   70.1620  223.5870 C   0  0  0  0  0  0  0  0  0  0  0  0
  139.4440   69.4330  224.7090 N   0  0  0  0  0  0  0  0  0  0  0  0
  139.8710   69.9270  225.9030 C   0  0  0  0  0  0  0  0  0  0  0  0
  139.6750   69.2100  227.0820 C   0  0  0  0  0  0  0  0  0  0  0  0
  140.1120   69.7140  228.3090 C   0  0  0  0  0  0  0  0  0  0  0  0
  140.7410   70.9460  228.3220 C   0  0  0  0  0  0  0  0  0  0  0  0
  140.9520   71.6860  227.1820 C   0  0  0  0  0  0  0  0  0  0  0  0
  140.5050   71.1510  225.9770 C   0  0  0  0  0  0  0  0  0  0  0  0
  140.6980   71.8550  224.8430 N   0  0  0  0  0  0  0  0  0  0  0  0
  140.7590   78.8510  221.8350 C   0  0  0  0  0  0  0  0  0  0  0  0
  141.5910   79.8100  221.2870 C   0  0  0  0  0  0  0  0  0  0  0  0
  142.5770   80.4140  222.0650 C   0  0  0  0  0  0  0  0  0  0  0  0
  142.7030   80.0330  223.3940 C   0  0  0  0  0  0  0  0  0  0  0  0
  141.8640   79.0630  223.9510 C   0  0  0  0  0  0  0  0  0  0  0  0
  140.8890   78.4680  223.1750 C   0  0  0  0  0  0  0  0  0  0  0  0
  138.7194   79.9066  220.2480 H   0  0  0  0  0  0  0  0  0  0  0  0
  140.0947   79.2878  219.2722 H   0  0  0  0  0  0  0  0  0  0  0  0
  138.5270   78.4108  219.2722 H   0  0  0  0  0  0  0  0  0  0  0  0
  138.8478   78.0623  221.7652 H   0  0  0  0  0  0  0  0  0  0  0  0
  140.4450   76.7220  219.7010 H   0  0  0  0  0  0  0  0  0  0  0  0
  139.5447   73.9784  220.4020 H   0  0  0  0  0  0  0  0  0  0  0  0
  141.2583   74.2749  220.8838 H   0  0  0  0  0  0  0  0  0  0  0  0
  139.5430   73.8830  223.2130 H   0  0  0  0  0  0  0  0  0  0  0  0
  139.3103   69.7685  222.6183 H   0  0  0  0  0  0  0  0  0  0  0  0
  139.1692   68.2338  227.0456 H   0  0  0  0  0  0  0  0  0  0  0  0
  139.9602   69.1470  229.2393 H   0  0  0  0  0  0  0  0  0  0  0  0
  141.0869   71.3508  229.2845 H   0  0  0  0  0  0  0  0  0  0  0  0
  141.4549   72.6635  227.2209 H   0  0  0  0  0  0  0  0  0  0  0  0
  141.4740   80.0976  220.2317 H   0  0  0  0  0  0  0  0  0  0  0  0
  143.2420   81.1773  221.6347 H   0  0  0  0  0  0  0  0  0  0  0  0
  143.4764   80.5024  224.0197 H   0  0  0  0  0  0  0  0  0  0  0  0
  141.9805   78.7743  225.0060 H   0  0  0  0  0  0  0  0  0  0  0  0
  140.2240   77.7039  223.6038 H   0  0  0  0  0  0  0  0  0  0  0  0
  1  2  1  0
  2  3  1  0
  3  4  1  0
  4  5  2  0
  4  6  1  0
  6  7  1  0
  7  8  1  0
  8  9  2  0
  8 10  1  0
 10 11  2  0
 11 12  1  0
 12 13  2  0
 13 14  1  0
 14 15  2  0
 15 16  1  0
 16 17  2  0
 17 18  1  0
 18 19  2  0
  2 20  1  0
 20 21  2  0
 21 22  1  0
 22 23  2  0
 23 24  1  0
 24 25  2  0
 19 10  1  0
 25 20  1  0
 18 13  1  0
  1 26  1  0
  1 27  1  0
  1 28  1  0
  2 29  1  1
  3 30  1  0
  6 31  1  0
  6 32  1  0
  7 33  1  0
 11 34  1  0
 14 35  1  0
 15 36  1  0
 16 37  1  0
 17 38  1  0
 21 39  1  0
 22 40  1  0
 23 41  1  0
 24 42  1  0
 25 43  1  0
M  END
>  <smiles>  (8) 
C[C@@H](NC(=O)CNC(=O)c1cnc2ccccc2n1)c1ccccc1

>  <score_type>  (8) 
oracle

>  <origin>  (8) 
autodockgpu

>  <m_score__min__energy>  (8) 
-8.6199999999999992

>  <m_primary>  (8) 
energy

>  <rmsd>  (8) 
4.0289567651307205

>  <m_score__min__rmsd>  (8) 
4.0289567651307205

>  <meeko>  (8) 
{"free_energy": -7.98, "intermolecular_energy": -9.47, "internal_energy": -1.5, "cluster_size": 14, "cluster_id": 2, "rank_in_cluster": 5}

>  <energy>  (8) 
-8.18

>  <cluster_rmsd>  (8) 
0.9

>  <cluster>  (8) 
1

$$$$

     RDKit          3D

 43 45  0  0  0  0  0  0  0  0999 V2000
  139.3810   79.0790  219.9870 C   0  0  0  0  0  0  0  0  0  0  0  0
  139.8020   78.2480  221.1900 C   0  0  1  0  0  0  0  0  0  0  0  0
  140.2040   76.9210  220.7890 N   0  0  0  0  0  0  0  0  0  0  0  0
  139.8200   75.7830  221.5350 C   0  0  0  0  0  0  0  0  0  0  0  0
  139.1120   75.9860  222.5750 O   0  0  0  0  0  0  0  0  0  0  0  0
  140.1700   74.3900  221.2140 C   0  0  0  0  0  0  0  0  0  0  0  0
  139.9660   73.5510  222.3440 N   0  0  0  0  0  0  0  0  0  0  0  0
  140.5020   72.2370  222.4290 C   0  0  0  0  0  0  0  0  0  0  0  0
  141.1920   71.7140  221.4980 O   0  0  0  0  0  0  0  0  0  0  0  0
  140.2460   71.4460  223.6430 C   0  0  0  0  0  0  0  0  0  0  0  0
  139.5760   70.2450  223.5670 C   0  0  0  0  0  0  0  0  0  0  0  0
  139.3320   69.5030  224.6730 N   0  0  0  0  0  0  0  0  0  0  0  0
  139.7620   69.9610  225.8800 C   0  0  0  0  0  0  0  0  0  0  0  0
  139.5300   69.2280  227.0430 C   0  0  0  0  0  0  0  0  0  0  0  0
  139.9700   69.6950  228.2840 C   0  0  0  0  0  0  0  0  0  0  0  0
  140.6400   70.9040  228.3260 C   0  0  0  0  0  0  0  0  0  0  0  0
  140.8890   71.6580  227.2030 C   0  0  0  0  0  0  0  0  0  0  0  0
  140.4360   71.1600  225.9830 C   0  0  0  0  0  0  0  0  0  0  0  0
  140.6650   71.8790  224.8650 N   0  0  0  0  0  0  0  0  0  0  0  0
  140.8170   78.9450  222.0130 C   0  0  0  0  0  0  0  0  0  0  0  0
  141.6580   79.9220  221.5130 C   0  0  0  0  0  0  0  0  0  0  0  0
  142.5920   80.5390  222.3420 C   0  0  0  0  0  0  0  0  0  0  0  0
  142.6570   80.1530  223.6740 C   0  0  0  0  0  0  0  0  0  0  0  0
  141.8090   79.1650  224.1830 C   0  0  0  0  0  0  0  0  0  0  0  0
  140.8860   78.5570  223.3570 C   0  0  0  0  0  0  0  0  0  0  0  0
  138.9090   80.0107  220.3321 H   0  0  0  0  0  0  0  0  0  0  0  0
  140.2660   79.3194  219.3796 H   0  0  0  0  0  0  0  0  0  0  0  0
  138.6636   78.5076  219.3796 H   0  0  0  0  0  0  0  0  0  0  0  0
  138.9260   78.1238  221.8437 H   0  0  0  0  0  0  0  0  0  0  0  0
  140.7990   76.8430  219.9390 H   0  0  0  0  0  0  0  0  0  0  0  0
  139.5377   74.0400  220.3847 H   0  0  0  0  0  0  0  0  0  0  0  0
  141.2310   74.3474  220.9268 H   0  0  0  0  0  0  0  0  0  0  0  0
  139.3960   73.8990  223.1720 H   0  0  0  0  0  0  0  0  0  0  0  0
  139.2320   69.8811  222.5876 H   0  0  0  0  0  0  0  0  0  0  0  0
  138.9936   68.2696  226.9827 H   0  0  0  0  0  0  0  0  0  0  0  0
  139.7885   69.1171  229.2022 H   0  0  0  0  0  0  0  0  0  0  0  0
  140.9888   71.2788  229.2996 H   0  0  0  0  0  0  0  0  0  0  0  0
  141.4248   72.6166  227.2655 H   0  0  0  0  0  0  0  0  0  0  0  0
  141.5891   80.2136  220.4546 H   0  0  0  0  0  0  0  0  0  0  0  0
  143.2642   81.3161  221.9493 H   0  0  0  0  0  0  0  0  0  0  0  0
  143.3886   80.6330  224.3406 H   0  0  0  0  0  0  0  0  0  0  0  0
  141.8775   78.8725  225.2412 H   0  0  0  0  0  0  0  0  0  0  0  0
  140.2141   77.7789  223.7484 H   0  0  0  0  0  0  0  0  0  0  0  0
  1  2  1  0
  2  3  1  0
  3  4  1  0
  4  5  2  0
  4  6  1  0
  6  7  1  0
  7  8  1  0
  8  9  2  0
  8 10  1  0
 10 11  2  0
 11 12  1  0
 12 13  2  0
 13 14  1  0
 14 15  2  0
 15 16  1  0
 16 17  2  0
 17 18  1  0
 18 19  2  0
  2 20  1  0
 20 21  2  0
 21 22  1  0
 22 23  2  0
 23 24  1  0
 24 25  2  0
 19 10  1  0
 25 20  1  0
 18 13  1  0
  1 26  1  0
  1 27  1  0
  1 28  1  0
  2 29  1  1
  3 30  1  0
  6 31  1  0
  6 32  1  0
  7 33  1  0
 11 34  1  0
 14 35  1  0
 15 36  1  0
 16 37  1  0
 17 38  1  0
 21 39  1  0
 22 40  1  0
 23 41  1  0
 24 42  1  0
 25 43  1  0
M  END
>  <smiles>  (9) 
C[C@@H](NC(=O)CNC(=O)c1cnc2ccccc2n1)c1ccccc1

>  <score_type>  (9) 
oracle

>  <origin>  (9) 
autodockgpu

>  <m_score__min__energy>  (9) 
-8.6199999999999992

>  <m_primary>  (9) 
energy

>  <rmsd>  (9) 
3.9766794572432413

>  <m_score__min__rmsd>  (9) 
3.9766794572432413

>  <meeko>  (9) 
{"free_energy": -8.03, "intermolecular_energy": -9.52, "internal_energy": -1.49, "cluster_size": 14, "cluster_id": 2, "rank_in_cluster": 4}

>  <energy>  (9) 
-8.12

>  <cluster_rmsd>  (9) 
0.85

>  <cluster>  (9) 
1

$$$$

     RDKit          3D

 43 45  0  0  0  0  0  0  0  0999 V2000
  139.0130   77.5680  221.3760 C   0  0  0  0  0  0  0  0  0  0  0  0
  140.1830   77.2970  222.3110 C   0  0  1  0  0  0  0  0  0  0  0  0
  140.8800   76.0900  221.9340 N   0  0  0  0  0  0  0  0  0  0  0  0
  140.2350   74.8320  221.9660 C   0  0  0  0  0  0  0  0  0  0  0  0
  139.0190   74.8160  222.3470 O   0  0  0  0  0  0  0  0  0  0  0  0
  140.8490   73.5460  221.6000 C   0  0  0  0  0  0  0  0  0  0  0  0
  140.7620   72.6260  222.6810 N   0  0  0  0  0  0  0  0  0  0  0  0
  139.7870   71.5930  222.7320 C   0  0  0  0  0  0  0  0  0  0  0  0
  138.9160   71.4230  221.8200 O   0  0  0  0  0  0  0  0  0  0  0  0
  139.7810   70.6820  223.8870 C   0  0  0  0  0  0  0  0  0  0  0  0
  139.1350   69.4680  223.8170 C   0  0  0  0  0  0  0  0  0  0  0  0
  139.1190   68.6170  224.8700 N   0  0  0  0  0  0  0  0  0  0  0  0
  139.7570   68.9760  226.0170 C   0  0  0  0  0  0  0  0  0  0  0  0
  139.7640   68.1300  227.1240 C   0  0  0  0  0  0  0  0  0  0  0  0
  140.4180   68.4960  228.3030 C   0  0  0  0  0  0  0  0  0  0  0  0
  141.0560   69.7220  228.3410 C   0  0  0  0  0  0  0  0  0  0  0  0
  141.0730   70.5870  227.2710 C   0  0  0  0  0  0  0  0  0  0  0  0
  140.4110   70.1880  226.1130 C   0  0  0  0  0  0  0  0  0  0  0  0
  140.4110   71.0160  225.0480 N   0  0  0  0  0  0  0  0  0  0  0  0
  141.0740   78.4740  222.4360 C   0  0  0  0  0  0  0  0  0  0  0  0
  141.3750   79.3110  221.3780 C   0  0  0  0  0  0  0  0  0  0  0  0
  142.2210   80.4030  221.5630 C   0  0  0  0  0  0  0  0  0  0  0  0
  142.7500   80.6280  222.8260 C   0  0  0  0  0  0  0  0  0  0  0  0
  142.4470   79.7830  223.8990 C   0  0  0  0  0  0  0  0  0  0  0  0
  141.6090   78.7030  223.7090 C   0  0  0  0  0  0  0  0  0  0  0  0
  138.1105   77.7770  221.9691 H   0  0  0  0  0  0  0  0  0  0  0  0
  139.2441   78.4364  220.7416 H   0  0  0  0  0  0  0  0  0  0  0  0
  138.8388   76.6864  220.7416 H   0  0  0  0  0  0  0  0  0  0  0  0
  139.7807   77.1228  223.3199 H   0  0  0  0  0  0  0  0  0  0  0  0
  141.8770   76.1870  221.6540 H   0  0  0  0  0  0  0  0  0  0  0  0
  140.3241   73.1298  220.7275 H   0  0  0  0  0  0  0  0  0  0  0  0
  141.9094   73.7138  221.3607 H   0  0  0  0  0  0  0  0  0  0  0  0
  141.4440   72.6930  223.4950 H   0  0  0  0  0  0  0  0  0  0  0  0
  138.6215   69.1838  222.8867 H   0  0  0  0  0  0  0  0  0  0  0  0
  139.2474   67.1604  227.0689 H   0  0  0  0  0  0  0  0  0  0  0  0
  140.4251   67.8275  229.1766 H   0  0  0  0  0  0  0  0  0  0  0  0
  141.5720   70.0186  229.2661 H   0  0  0  0  0  0  0  0  0  0  0  0
  141.5897   71.5564  227.3283 H   0  0  0  0  0  0  0  0  0  0  0  0
  140.9446   79.1142  220.3850 H   0  0  0  0  0  0  0  0  0  0  0  0
  142.4644   81.0728  220.7250 H   0  0  0  0  0  0  0  0  0  0  0  0
  143.4195   81.4860  222.9863 H   0  0  0  0  0  0  0  0  0  0  0  0
  142.8761   79.9791  224.8927 H   0  0  0  0  0  0  0  0  0  0  0  0
  141.3651   78.0320  224.5458 H   0  0  0  0  0  0  0  0  0  0  0  0
  1  2  1  0
  2  3  1  0
  3  4  1  0
  4  5  2  0
  4  6  1  0
  6  7  1  0
  7  8  1  0
  8  9  2  0
  8 10  1  0
 10 11  2  0
 11 12  1  0
 12 13  2  0
 13 14  1  0
 14 15  2  0
 15 16  1  0
 16 17  2  0
 17 18  1  0
 18 19  2  0
  2 20  1  0
 20 21  2  0
 21 22  1  0
 22 23  2  0
 23 24  1  0
 24 25  2  0
 19 10  1  0
 25 20  1  0
 18 13  1  0
  1 26  1  0
  1 27  1  0
  1 28  1  0
  2 29  1  1
  3 30  1  0
  6 31  1  0
  6 32  1  0
  7 33  1  0
 11 34  1  0
 14 35  1  0
 15 36  1  0
 16 37  1  0
 17 38  1  0
 21 39  1  0
 22 40  1  0
 23 41  1  0
 24 42  1  0
 25 43  1  0
M  END
>  <smiles>  (10) 
C[C@@H](NC(=O)CNC(=O)c1cnc2ccccc2n1)c1ccccc1

>  <score_type>  (10) 
oracle

>  <origin>  (10) 
autodockgpu

>  <m_score__min__energy>  (10) 
-8.6199999999999992

>  <m_primary>  (10) 
energy

>  <rmsd>  (10) 
4.060487981017048

>  <m_score__min__rmsd>  (10) 
4.060487981017048

>  <meeko>  (10) 
{"free_energy": -8.32, "intermolecular_energy": -9.81, "internal_energy": -1.03, "cluster_size": 14, "cluster_id": 2, "rank_in_cluster": 1}

>  <energy>  (10) 
-7.51

>  <cluster_rmsd>  (10) 
1.99

>  <cluster>  (10) 
1

$$$$

     RDKit          3D

 43 45  0  0  0  0  0  0  0  0999 V2000
  143.0920   75.9860  218.9180 C   0  0  0  0  0  0  0  0  0  0  0  0
  143.0260   75.0610  220.1250 C   0  0  1  0  0  0  0  0  0  0  0  0
  141.7220   74.4570  220.2460 N   0  0  0  0  0  0  0  0  0  0  0  0
  140.7160   75.0430  221.0490 C   0  0  0  0  0  0  0  0  0  0  0  0
  141.0190   76.1190  221.6610 O   0  0  0  0  0  0  0  0  0  0  0  0
  139.3550   74.5140  221.2380 C   0  0  0  0  0  0  0  0  0  0  0  0
  139.3330   73.5600  222.2940 N   0  0  0  0  0  0  0  0  0  0  0  0
  140.2180   72.4490  222.3390 C   0  0  0  0  0  0  0  0  0  0  0  0
  141.0850   72.2210  221.4370 O   0  0  0  0  0  0  0  0  0  0  0  0
  140.1270   71.5190  223.4760 C   0  0  0  0  0  0  0  0  0  0  0  0
  139.5390   70.2830  223.3240 C   0  0  0  0  0  0  0  0  0  0  0  0
  139.4480   69.4140  224.3580 N   0  0  0  0  0  0  0  0  0  0  0  0
  139.9490   69.7780  225.5700 C   0  0  0  0  0  0  0  0  0  0  0  0
  139.8740   68.9140  226.6600 C   0  0  0  0  0  0  0  0  0  0  0  0
  140.3870   69.2840  227.9050 C   0  0  0  0  0  0  0  0  0  0  0  0
  140.9710   70.5320  228.0250 C   0  0  0  0  0  0  0  0  0  0  0  0
  141.0650   71.4150  226.9750 C   0  0  0  0  0  0  0  0  0  0  0  0
  140.5430   71.0110  225.7490 C   0  0  0  0  0  0  0  0  0  0  0  0
  140.6200   71.8560  224.7000 N   0  0  0  0  0  0  0  0  0  0  0  0
  144.1320   74.0750  220.1240 C   0  0  0  0  0  0  0  0  0  0  0  0
  144.0650   72.8630  219.4630 C   0  0  0  0  0  0  0  0  0  0  0  0
  145.1420   71.9800  219.5030 C   0  0  0  0  0  0  0  0  0  0  0  0
  146.2760   72.3440  220.2150 C   0  0  0  0  0  0  0  0  0  0  0  0
  146.3470   73.5690  220.8860 C   0  0  0  0  0  0  0  0  0  0  0  0
  145.2770   74.4400  220.8430 C   0  0  0  0  0  0  0  0  0  0  0  0
  143.1664   77.0291  219.2591 H   0  0  0  0  0  0  0  0  0  0  0  0
  143.9745   75.7348  218.3113 H   0  0  0  0  0  0  0  0  0  0  0  0
  142.1828   75.8626  218.3113 H   0  0  0  0  0  0  0  0  0  0  0  0
  143.1719   75.6688  221.0302 H   0  0  0  0  0  0  0  0  0  0  0  0
  141.5620   73.5680  219.7300 H   0  0  0  0  0  0  0  0  0  0  0  0
  138.6755   75.3430  221.4850 H   0  0  0  0  0  0  0  0  0  0  0  0
  139.0320   74.0229  220.3082 H   0  0  0  0  0  0  0  0  0  0  0  0
  138.6370   73.6630  223.0910 H   0  0  0  0  0  0  0  0  0  0  0  0
  139.1349   69.9959  222.3420 H   0  0  0  0  0  0  0  0  0  0  0  0
  139.4043   67.9268  226.5384 H   0  0  0  0  0  0  0  0  0  0  0  0
  140.3283   68.6020  228.7661 H   0  0  0  0  0  0  0  0  0  0  0  0
  141.3777   70.8311  229.0023 H   0  0  0  0  0  0  0  0  0  0  0  0
  141.5343   72.4021  227.0988 H   0  0  0  0  0  0  0  0  0  0  0  0
  143.1573   72.5943  218.9028 H   0  0  0  0  0  0  0  0  0  0  0  0
  145.0943   71.0133  218.9804 H   0  0  0  0  0  0  0  0  0  0  0  0
  147.1342   71.6570  220.2523 H   0  0  0  0  0  0  0  0  0  0  0  0
  147.2541   73.8380  221.4471 H   0  0  0  0  0  0  0  0  0  0  0  0
  145.3230   75.4067  221.3659 H   0  0  0  0  0  0  0  0  0  0  0  0
  1  2  1  0
  2  3  1  0
  3  4  1  0
  4  5  2  0
  4  6  1  0
  6  7  1  0
  7  8  1  0
  8  9  2  0
  8 10  1  0
 10 11  2  0
 11 12  1  0
 12 13  2  0
 13 14  1  0
 14 15  2  0
 15 16  1  0
 16 17  2  0
 17 18  1  0
 18 19  2  0
  2 20  1  0
 20 21  2  0
 21 22  1  0
 22 23  2  0
 23 24  1  0
 24 25  2  0
 19 10  1  0
 25 20  1  0
 18 13  1  0
  1 26  1  0
  1 27  1  0
  1 28  1  0
  2 29  1  1
  3 30  1  0
  6 31  1  0
  6 32  1  0
  7 33  1  0
 11 34  1  0
 14 35  1  0
 15 36  1  0
 16 37  1  0
 17 38  1  0
 21 39  1  0
 22 40  1  0
 23 41  1  0
 24 42  1  0
 25 43  1  0
M  END
>  <smiles>  (11) 
C[C@@H](NC(=O)CNC(=O)c1cnc2ccccc2n1)c1ccccc1

>  <score_type>  (11) 
oracle

>  <origin>  (11) 
autodockgpu

>  <m_score__min__energy>  (11) 
-8.6199999999999992

>  <m_primary>  (11) 
energy

>  <rmsd>  (11) 
6.350119826559179

>  <m_score__min__rmsd>  (11) 
6.350119826559179

>  <meeko>  (11) 
{"free_energy": -7.84, "intermolecular_energy": -9.33, "internal_energy": -1.55, "cluster_size": 6, "cluster_id": 3, "rank_in_cluster": 4}

>  <energy>  (11) 
-7.51

>  <cluster_rmsd>  (11) 
1.98

>  <cluster>  (11) 
1

$$$$

     RDKit          3D

 43 45  0  0  0  0  0  0  0  0999 V2000
  139.3720   79.1190  219.9040 C   0  0  0  0  0  0  0  0  0  0  0  0
  139.7370   78.2430  221.0950 C   0  0  1  0  0  0  0  0  0  0  0  0
  140.0880   76.9100  220.6700 N   0  0  0  0  0  0  0  0  0  0  0  0
  139.9400   75.8030  221.5370 C   0  0  0  0  0  0  0  0  0  0  0  0
  139.4910   76.0410  222.7060 O   0  0  0  0  0  0  0  0  0  0  0  0
  140.2620   74.4050  221.2050 C   0  0  0  0  0  0  0  0  0  0  0  0
  140.0670   73.5660  222.3380 N   0  0  0  0  0  0  0  0  0  0  0  0
  140.5490   72.2300  222.3920 C   0  0  0  0  0  0  0  0  0  0  0  0
  141.1800   71.6860  221.4310 O   0  0  0  0  0  0  0  0  0  0  0  0
  140.3080   71.4400  223.6090 C   0  0  0  0  0  0  0  0  0  0  0  0
  139.6690   70.2220  223.5380 C   0  0  0  0  0  0  0  0  0  0  0  0
  139.4390   69.4810  224.6470 N   0  0  0  0  0  0  0  0  0  0  0  0
  139.8510   69.9570  225.8540 C   0  0  0  0  0  0  0  0  0  0  0  0
  139.6320   69.2260  227.0200 C   0  0  0  0  0  0  0  0  0  0  0  0
  140.0530   69.7110  228.2600 C   0  0  0  0  0  0  0  0  0  0  0  0
  140.6910   70.9380  228.2980 C   0  0  0  0  0  0  0  0  0  0  0  0
  140.9260   71.6910  227.1710 C   0  0  0  0  0  0  0  0  0  0  0  0
  140.4920   71.1750  225.9530 C   0  0  0  0  0  0  0  0  0  0  0  0
  140.7090   71.8910  224.8310 N   0  0  0  0  0  0  0  0  0  0  0  0
  140.7670   78.8770  221.9500 C   0  0  0  0  0  0  0  0  0  0  0  0
  140.9250   78.5800  223.2910 C   0  0  0  0  0  0  0  0  0  0  0  0
  141.9150   79.2130  224.0400 C   0  0  0  0  0  0  0  0  0  0  0  0
  142.7340   80.1410  223.4110 C   0  0  0  0  0  0  0  0  0  0  0  0
  142.5770   80.4440  222.0550 C   0  0  0  0  0  0  0  0  0  0  0  0
  141.5940   79.8140  221.3190 C   0  0  0  0  0  0  0  0  0  0  0  0
  138.9722   80.0786  220.2635 H   0  0  0  0  0  0  0  0  0  0  0  0
  140.2691   79.3010  219.2941 H   0  0  0  0  0  0  0  0  0  0  0  0
  138.6110   78.6101  219.2941 H   0  0  0  0  0  0  0  0  0  0  0  0
  138.8458   78.1421  221.7318 H   0  0  0  0  0  0  0  0  0  0  0  0
  140.4660   76.8030  219.7070 H   0  0  0  0  0  0  0  0  0  0  0  0
  139.6080   74.0672  220.3876 H   0  0  0  0  0  0  0  0  0  0  0  0
  141.3161   74.3464  220.8961 H   0  0  0  0  0  0  0  0  0  0  0  0
  139.5440   73.9310  223.1890 H   0  0  0  0  0  0  0  0  0  0  0  0
  139.3387   69.8435  222.5594 H   0  0  0  0  0  0  0  0  0  0  0  0
  139.1206   68.2538  226.9629 H   0  0  0  0  0  0  0  0  0  0  0  0
  139.8822   69.1337  229.1806 H   0  0  0  0  0  0  0  0  0  0  0  0
  141.0246   71.3281  229.2709 H   0  0  0  0  0  0  0  0  0  0  0  0
  141.4371   72.6633  227.2299 H   0  0  0  0  0  0  0  0  0  0  0  0
  140.2659   77.8403  223.7691 H   0  0  0  0  0  0  0  0  0  0  0  0
  142.0449   78.9822  225.1076 H   0  0  0  0  0  0  0  0  0  0  0  0
  143.5206   80.6471  223.9899 H   0  0  0  0  0  0  0  0  0  0  0  0
  143.2358   81.1831  221.5757 H   0  0  0  0  0  0  0  0  0  0  0  0
  141.4622   80.0449  220.2516 H   0  0  0  0  0  0  0  0  0  0  0  0
  1  2  1  0
  2  3  1  0
  3  4  1  0
  4  5  2  0
  4  6  1  0
  6  7  1  0
  7  8  1  0
  8  9  2  0
  8 10  1  0
 10 11  2  0
 11 12  1  0
 12 13  2  0
 13 14  1  0
 14 15  2  0
 15 16  1  0
 16 17  2  0
 17 18  1  0
 18 19  2  0
  2 20  1  0
 20 21  2  0
 21 22  1  0
 22 23  2  0
 23 24  1  0
 24 25  2  0
 19 10  1  0
 25 20  1  0
 18 13  1  0
  1 26  1  0
  1 27  1  0
  1 28  1  0
  2 29  1  1
  3 30  1  0
  6 31  1  0
  6 32  1  0
  7 33  1  0
 11 34  1  0
 14 35  1  0
 15 36  1  0
 16 37  1  0
 17 38  1  0
 21 39  1  0
 22 40  1  0
 23 41  1  0
 24 42  1  0
 25 43  1  0
M  END
>  <smiles>  (12) 
C[C@@H](NC(=O)CNC(=O)c1cnc2ccccc2n1)c1ccccc1

>  <score_type>  (12) 
oracle

>  <origin>  (12) 
autodockgpu

>  <m_score__min__energy>  (12) 
-8.6199999999999992

>  <m_primary>  (12) 
energy

>  <rmsd>  (12) 
3.7263405508382745

>  <m_score__min__rmsd>  (12) 
3.7263405508382745

>  <meeko>  (12) 
{"free_energy": -7.98, "intermolecular_energy": -9.47, "internal_energy": -1.5, "cluster_size": 14, "cluster_id": 2, "rank_in_cluster": 6}

>  <energy>  (12) 
-7.49

>  <cluster_rmsd>  (12) 
1.35

>  <cluster>  (12) 
1

$$$$

     RDKit          3D

 43 45  0  0  0  0  0  0  0  0999 V2000
  139.4190   79.0940  219.9220 C   0  0  0  0  0  0  0  0  0  0  0  0
  139.7590   78.2200  221.1210 C   0  0  1  0  0  0  0  0  0  0  0  0
  140.1180   76.8860  220.7070 N   0  0  0  0  0  0  0  0  0  0  0  0
  139.8670   75.7690  221.5370 C   0  0  0  0  0  0  0  0  0  0  0  0
  139.3180   75.9980  222.6640 O   0  0  0  0  0  0  0  0  0  0  0  0
  140.1890   74.3700  221.2100 C   0  0  0  0  0  0  0  0  0  0  0  0
  140.0240   73.5400  222.3540 N   0  0  0  0  0  0  0  0  0  0  0  0
  140.4690   72.1900  222.3910 C   0  0  0  0  0  0  0  0  0  0  0  0
  141.0370   71.6260  221.4040 O   0  0  0  0  0  0  0  0  0  0  0  0
  140.2630   71.4120  223.6230 C   0  0  0  0  0  0  0  0  0  0  0  0
  139.6160   70.1970  223.5820 C   0  0  0  0  0  0  0  0  0  0  0  0
  139.4180   69.4660  224.7040 N   0  0  0  0  0  0  0  0  0  0  0  0
  139.8710   69.9500  225.8930 C   0  0  0  0  0  0  0  0  0  0  0  0
  139.6860   69.2290  227.0710 C   0  0  0  0  0  0  0  0  0  0  0  0
  140.1490   69.7230  228.2940 C   0  0  0  0  0  0  0  0  0  0  0  0
  140.7940   70.9470  228.3010 C   0  0  0  0  0  0  0  0  0  0  0  0
  140.9960   71.6890  227.1610 C   0  0  0  0  0  0  0  0  0  0  0  0
  140.5210   71.1650  225.9610 C   0  0  0  0  0  0  0  0  0  0  0  0
  140.7050   71.8710  224.8270 N   0  0  0  0  0  0  0  0  0  0  0  0
  140.7700   78.8550  221.9970 C   0  0  0  0  0  0  0  0  0  0  0  0
  140.9160   78.5440  223.3360 C   0  0  0  0  0  0  0  0  0  0  0  0
  141.8900   79.1800  224.1040 C   0  0  0  0  0  0  0  0  0  0  0  0
  142.7040   80.1250  223.4970 C   0  0  0  0  0  0  0  0  0  0  0  0
  142.5590   80.4430  222.1430 C   0  0  0  0  0  0  0  0  0  0  0  0
  141.5930   79.8100  221.3870 C   0  0  0  0  0  0  0  0  0  0  0  0
  139.0409   80.0658  220.2721 H   0  0  0  0  0  0  0  0  0  0  0  0
  140.3222   79.2495  219.3137 H   0  0  0  0  0  0  0  0  0  0  0  0
  138.6481   78.5983  219.3137 H   0  0  0  0  0  0  0  0  0  0  0  0
  138.8540   78.1203  221.7383 H   0  0  0  0  0  0  0  0  0  0  0  0
  140.5810   76.7860  219.7800 H   0  0  0  0  0  0  0  0  0  0  0  0
  139.5187   74.0217  220.4104 H   0  0  0  0  0  0  0  0  0  0  0  0
  141.2363   74.3143  220.8782 H   0  0  0  0  0  0  0  0  0  0  0  0
  139.5530   73.9230  223.2280 H   0  0  0  0  0  0  0  0  0  0  0  0
  139.2526   69.8126  222.6176 H   0  0  0  0  0  0  0  0  0  0  0  0
  139.1690   68.2586  227.0381 H   0  0  0  0  0  0  0  0  0  0  0  0
  140.0046   69.1546  229.2246 H   0  0  0  0  0  0  0  0  0  0  0  0
  141.1608   71.3435  229.2592 H   0  0  0  0  0  0  0  0  0  0  0  0
  141.5130   72.6593  227.1954 H   0  0  0  0  0  0  0  0  0  0  0  0
  140.2604   77.7910  223.7977 H   0  0  0  0  0  0  0  0  0  0  0  0
  142.0107   78.9374  225.1701 H   0  0  0  0  0  0  0  0  0  0  0  0
  143.4775   80.6334  224.0914 H   0  0  0  0  0  0  0  0  0  0  0  0
  143.2138   81.1965  221.6810 H   0  0  0  0  0  0  0  0  0  0  0  0
  141.4714   80.0521  220.3209 H   0  0  0  0  0  0  0  0  0  0  0  0
  1  2  1  0
  2  3  1  0
  3  4  1  0
  4  5  2  0
  4  6  1  0
  6  7  1  0
  7  8  1  0
  8  9  2  0
  8 10  1  0
 10 11  2  0
 11 12  1  0
 12 13  2  0
 13 14  1  0
 14 15  2  0
 15 16  1  0
 16 17  2  0
 17 18  1  0
 18 19  2  0
  2 20  1  0
 20 21  2  0
 21 22  1  0
 22 23  2  0
 23 24  1  0
 24 25  2  0
 19 10  1  0
 25 20  1  0
 18 13  1  0
  1 26  1  0
  1 27  1  0
  1 28  1  0
  2 29  1  1
  3 30  1  0
  6 31  1  0
  6 32  1  0
  7 33  1  0
 11 34  1  0
 14 35  1  0
 15 36  1  0
 16 37  1  0
 17 38  1  0
 21 39  1  0
 22 40  1  0
 23 41  1  0
 24 42  1  0
 25 43  1  0
M  END
>  <smiles>  (13) 
C[C@@H](NC(=O)CNC(=O)c1cnc2ccccc2n1)c1ccccc1

>  <score_type>  (13) 
oracle

>  <origin>  (13) 
autodockgpu

>  <m_score__min__energy>  (13) 
-8.6199999999999992

>  <m_primary>  (13) 
energy

>  <rmsd>  (13) 
3.7431330814258756

>  <m_score__min__rmsd>  (13) 
3.7431330814258756

>  <meeko>  (13) 
{"free_energy": -7.98, "intermolecular_energy": -9.47, "internal_energy": -1.53, "cluster_size": 14, "cluster_id": 2, "rank_in_cluster": 7}

>  <energy>  (13) 
-7.46

>  <cluster_rmsd>  (13) 
1.37

>  <cluster>  (13) 
1

$$$$

     RDKit          3D

 43 45  0  0  0  0  0  0  0  0999 V2000
  139.2370   69.1220  224.2840 C   0  0  0  0  0  0  0  0  0  0  0  0
  139.9260   70.4730  224.4020 C   0  0  1  0  0  0  0  0  0  0  0  0
  139.1820   71.4980  223.7110 N   0  0  0  0  0  0  0  0  0  0  0  0
  139.6520   72.0520  222.4980 C   0  0  0  0  0  0  0  0  0  0  0  0
  140.7610   71.6090  222.0520 O   0  0  0  0  0  0  0  0  0  0  0  0
  138.9720   73.0950  221.7120 C   0  0  0  0  0  0  0  0  0  0  0  0
  139.2580   74.3840  222.2420 N   0  0  0  0  0  0  0  0  0  0  0  0
  139.5290   75.5090  221.4150 C   0  0  0  0  0  0  0  0  0  0  0  0
  139.5450   75.4410  220.1450 O   0  0  0  0  0  0  0  0  0  0  0  0
  139.8040   76.8050  222.0530 C   0  0  0  0  0  0  0  0  0  0  0  0
  138.7980   77.5010  222.6860 C   0  0  0  0  0  0  0  0  0  0  0  0
  139.0320   78.6940  223.2800 N   0  0  0  0  0  0  0  0  0  0  0  0
  140.2910   79.2110  223.2450 C   0  0  0  0  0  0  0  0  0  0  0  0
  140.5740   80.4380  223.8420 C   0  0  0  0  0  0  0  0  0  0  0  0
  141.8650   80.9710  223.8090 C   0  0  0  0  0  0  0  0  0  0  0  0
  142.8530   80.2480  223.1650 C   0  0  0  0  0  0  0  0  0  0  0  0
  142.6150   79.0340  222.5620 C   0  0  0  0  0  0  0  0  0  0  0  0
  141.3160   78.5340  222.6170 C   0  0  0  0  0  0  0  0  0  0  0  0
  141.0540   77.3470  222.0340 N   0  0  0  0  0  0  0  0  0  0  0  0
  140.2280   70.8170  225.8110 C   0  0  0  0  0  0  0  0  0  0  0  0
  139.6930   70.1360  226.8880 C   0  0  0  0  0  0  0  0  0  0  0  0
  140.0190   70.5100  228.1900 C   0  0  0  0  0  0  0  0  0  0  0  0
  140.8880   71.5750  228.3790 C   0  0  0  0  0  0  0  0  0  0  0  0
  141.4310   72.2670  227.2910 C   0  0  0  0  0  0  0  0  0  0  0  0
  141.1050   71.8910  226.0040 C   0  0  0  0  0  0  0  0  0  0  0  0
  139.0344   68.7247  225.2895 H   0  0  0  0  0  0  0  0  0  0  0  0
  138.2891   69.2402  223.7386 H   0  0  0  0  0  0  0  0  0  0  0  0
  139.8893   68.4241  223.7386 H   0  0  0  0  0  0  0  0  0  0  0  0
  140.9016   70.4035  223.8986 H   0  0  0  0  0  0  0  0  0  0  0  0
  138.2960   71.8190  224.1520 H   0  0  0  0  0  0  0  0  0  0  0  0
  139.3195   73.0470  220.6694 H   0  0  0  0  0  0  0  0  0  0  0  0
  137.8863   72.9242  221.7580 H   0  0  0  0  0  0  0  0  0  0  0  0
  139.2730   74.5380  223.2940 H   0  0  0  0  0  0  0  0  0  0  0  0
  137.7828   77.0780  222.7091 H   0  0  0  0  0  0  0  0  0  0  0  0
  139.7700   80.9944  224.3460 H   0  0  0  0  0  0  0  0  0  0  0  0
  142.0896   81.9385  224.2819 H   0  0  0  0  0  0  0  0  0  0  0  0
  143.8721   80.6609  223.1335 H   0  0  0  0  0  0  0  0  0  0  0  0
  143.4195   78.4799  222.0562 H   0  0  0  0  0  0  0  0  0  0  0  0
  139.0061   69.2942  226.7164 H   0  0  0  0  0  0  0  0  0  0  0  0
  139.5959   69.9717  229.0509 H   0  0  0  0  0  0  0  0  0  0  0  0
  141.1545   71.8804  229.4016 H   0  0  0  0  0  0  0  0  0  0  0  0
  142.1170   73.1098  227.4614 H   0  0  0  0  0  0  0  0  0  0  0  0
  141.5282   72.4275  225.1420 H   0  0  0  0  0  0  0  0  0  0  0  0
  1  2  1  0
  2  3  1  0
  3  4  1  0
  4  5  2  0
  4  6  1  0
  6  7  1  0
  7  8  1  0
  8  9  2  0
  8 10  1  0
 10 11  2  0
 11 12  1  0
 12 13  2  0
 13 14  1  0
 14 15  2  0
 15 16  1  0
 16 17  2  0
 17 18  1  0
 18 19  2  0
  2 20  1  0
 20 21  2  0
 21 22  1  0
 22 23  2  0
 23 24  1  0
 24 25  2  0
 19 10  1  0
 25 20  1  0
 18 13  1  0
  1 26  1  0
  1 27  1  0
  1 28  1  0
  2 29  1  6
  3 30  1  0
  6 31  1  0
  6 32  1  0
  7 33  1  0
 11 34  1  0
 14 35  1  0
 15 36  1  0
 16 37  1  0
 17 38  1  0
 21 39  1  0
 22 40  1  0
 23 41  1  0
 24 42  1  0
 25 43  1  0
M  END
>  <smiles>  (14) 
C[C@@H](NC(=O)CNC(=O)c1cnc2ccccc2n1)c1ccccc1

>  <score_type>  (14) 
oracle

>  <origin>  (14) 
autodockgpu

>  <m_score__min__energy>  (14) 
-8.6199999999999992

>  <m_primary>  (14) 
energy

>  <rmsd>  (14) 
10.034636976667008

>  <m_score__min__rmsd>  (14) 
10.034636976667008

>  <meeko>  (14) 
{"free_energy": -8.62, "intermolecular_energy": -10.11, "internal_energy": -0.79, "cluster_size": 17, "cluster_id": 1, "rank_in_cluster": 1}

>  <energy>  (14) 
-7.46

>  <cluster_rmsd>  (14) 
1.75

>  <cluster>  (14) 
1

$$$$

     RDKit          3D

 43 45  0  0  0  0  0  0  0  0999 V2000
  139.5560   68.2830  225.2980 C   0  0  0  0  0  0  0  0  0  0  0  0
  140.2790   69.6030  225.0730 C   0  0  1  0  0  0  0  0  0  0  0  0
  139.7280   70.3110  223.9420 N   0  0  0  0  0  0  0  0  0  0  0  0
  138.3400   70.5560  223.8370 C   0  0  0  0  0  0  0  0  0  0  0  0
  137.6030   70.1180  224.7800 O   0  0  0  0  0  0  0  0  0  0  0  0
  137.6770   71.2690  222.7330 C   0  0  0  0  0  0  0  0  0  0  0  0
  138.3950   72.4510  222.4000 N   0  0  0  0  0  0  0  0  0  0  0  0
  139.5900   72.4290  221.6300 C   0  0  0  0  0  0  0  0  0  0  0  0
  140.1080   71.3530  221.1930 O   0  0  0  0  0  0  0  0  0  0  0  0
  140.2600   73.7040  221.3280 C   0  0  0  0  0  0  0  0  0  0  0  0
  141.1940   73.7810  220.3180 C   0  0  0  0  0  0  0  0  0  0  0  0
  141.8190   74.9450  220.0250 N   0  0  0  0  0  0  0  0  0  0  0  0
  141.5120   76.0570  220.7460 C   0  0  0  0  0  0  0  0  0  0  0  0
  142.1340   77.2750  220.4770 C   0  0  0  0  0  0  0  0  0  0  0  0
  141.8220   78.4180  221.2160 C   0  0  0  0  0  0  0  0  0  0  0  0
  140.8800   78.3070  222.2230 C   0  0  0  0  0  0  0  0  0  0  0  0
  140.2440   77.1250  222.5210 C   0  0  0  0  0  0  0  0  0  0  0  0
  140.5810   76.0060  221.7630 C   0  0  0  0  0  0  0  0  0  0  0  0
  139.9730   74.8330  222.0330 N   0  0  0  0  0  0  0  0  0  0  0  0
  140.3310   70.4200  226.3070 C   0  0  0  0  0  0  0  0  0  0  0  0
  141.0830   71.5750  226.4200 C   0  0  0  0  0  0  0  0  0  0  0  0
  141.0880   72.2970  227.6110 C   0  0  0  0  0  0  0  0  0  0  0  0
  140.3260   71.8330  228.6740 C   0  0  0  0  0  0  0  0  0  0  0  0
  139.5650   70.6650  228.5640 C   0  0  0  0  0  0  0  0  0  0  0  0
  139.5640   69.9540  227.3810 C   0  0  0  0  0  0  0  0  0  0  0  0
  139.4555   68.0994  226.3779 H   0  0  0  0  0  0  0  0  0  0  0  0
  138.5572   68.3292  224.8394 H   0  0  0  0  0  0  0  0  0  0  0  0
  140.1327   67.4662  224.8394 H   0  0  0  0  0  0  0  0  0  0  0  0
  141.3263   69.3803  224.8210 H   0  0  0  0  0  0  0  0  0  0  0  0
  140.3960   70.6180  223.2050 H   0  0  0  0  0  0  0  0  0  0  0  0
  137.6336   70.6117  221.8521 H   0  0  0  0  0  0  0  0  0  0  0  0
  136.6609   71.5475  223.0492 H   0  0  0  0  0  0  0  0  0  0  0  0
  138.0430   73.4000  222.7270 H   0  0  0  0  0  0  0  0  0  0  0  0
  141.4365   72.8782  219.7382 H   0  0  0  0  0  0  0  0  0  0  0  0
  142.8808   77.3367  219.6717 H   0  0  0  0  0  0  0  0  0  0  0  0
  142.3116   79.3798  221.0034 H   0  0  0  0  0  0  0  0  0  0  0  0
  140.6291   79.2026  222.8104 H   0  0  0  0  0  0  0  0  0  0  0  0
  139.4978   77.0653  223.3270 H   0  0  0  0  0  0  0  0  0  0  0  0
  141.6801   71.9252  225.5651 H   0  0  0  0  0  0  0  0  0  0  0  0
  141.6840   73.2165  227.7071 H   0  0  0  0  0  0  0  0  0  0  0  0
  140.3205   72.3941  229.6201 H   0  0  0  0  0  0  0  0  0  0  0  0
  138.9683   70.3135  229.4187 H   0  0  0  0  0  0  0  0  0  0  0  0
  138.9688   69.0341  227.2836 H   0  0  0  0  0  0  0  0  0  0  0  0
  1  2  1  0
  2  3  1  0
  3  4  1  0
  4  5  2  0
  4  6  1  0
  6  7  1  0
  7  8  1  0
  8  9  2  0
  8 10  1  0
 10 11  2  0
 11 12  1  0
 12 13  2  0
 13 14  1  0
 14 15  2  0
 15 16  1  0
 16 17  2  0
 17 18  1  0
 18 19  2  0
  2 20  1  0
 20 21  2  0
 21 22  1  0
 22 23  2  0
 23 24  1  0
 24 25  2  0
 19 10  1  0
 25 20  1  0
 18 13  1  0
  1 26  1  0
  1 27  1  0
  1 28  1  0
  2 29  1  6
  3 30  1  0
  6 31  1  0
  6 32  1  0
  7 33  1  0
 11 34  1  0
 14 35  1  0
 15 36  1  0
 16 37  1  0
 17 38  1  0
 21 39  1  0
 22 40  1  0
 23 41  1  0
 24 42  1  0
 25 43  1  0
M  END
>  <smiles>  (15) 
C[C@@H](NC(=O)CNC(=O)c1cnc2ccccc2n1)c1ccccc1

>  <score_type>  (15) 
oracle

>  <origin>  (15) 
autodockgpu

>  <m_score__min__energy>  (15) 
-8.6199999999999992

>  <m_primary>  (15) 
energy

>  <rmsd>  (15) 
10.016298767238116

>  <m_score__min__rmsd>  (15) 
10.016298767238116

>  <meeko>  (15) 
{"free_energy": -7.43, "intermolecular_energy": -8.93, "internal_energy": -1.88, "cluster_size": 4, "cluster_id": 5, "rank_in_cluster": 2}

>  <energy>  (15) 
-7.45

>  <cluster_rmsd>  (15) 
1.77

>  <cluster>  (15) 
1

$$$$

     RDKit          3D

 43 45  0  0  0  0  0  0  0  0999 V2000
  139.5450   68.1190  225.1770 C   0  0  0  0  0  0  0  0  0  0  0  0
  140.2850   69.4200  224.9020 C   0  0  1  0  0  0  0  0  0  0  0  0
  139.6950   70.1280  223.7920 N   0  0  0  0  0  0  0  0  0  0  0  0
  138.3430   70.5390  223.8200 C   0  0  0  0  0  0  0  0  0  0  0  0
  137.6730   70.2490  224.8650 O   0  0  0  0  0  0  0  0  0  0  0  0
  137.6460   71.2680  222.7480 C   0  0  0  0  0  0  0  0  0  0  0  0
  138.3640   72.4450  222.3970 N   0  0  0  0  0  0  0  0  0  0  0  0
  139.5570   72.4130  221.6240 C   0  0  0  0  0  0  0  0  0  0  0  0
  140.0720   71.3310  221.1990 O   0  0  0  0  0  0  0  0  0  0  0  0
  140.2250   73.6830  221.3020 C   0  0  0  0  0  0  0  0  0  0  0  0
  141.1040   73.7630  220.2450 C   0  0  0  0  0  0  0  0  0  0  0  0
  141.7280   74.9240  219.9330 N   0  0  0  0  0  0  0  0  0  0  0  0
  141.4760   76.0290  220.6860 C   0  0  0  0  0  0  0  0  0  0  0  0
  142.0980   77.2420  220.4000 C   0  0  0  0  0  0  0  0  0  0  0  0
  141.8410   78.3800  221.1700 C   0  0  0  0  0  0  0  0  0  0  0  0
  140.9540   78.2660  222.2250 C   0  0  0  0  0  0  0  0  0  0  0  0
  140.3200   77.0870  222.5410 C   0  0  0  0  0  0  0  0  0  0  0  0
  140.6000   75.9760  221.7510 C   0  0  0  0  0  0  0  0  0  0  0  0
  139.9920   74.8060  222.0380 N   0  0  0  0  0  0  0  0  0  0  0  0
  140.4170   70.2480  226.1230 C   0  0  0  0  0  0  0  0  0  0  0  0
  139.7780   69.9510  227.3120 C   0  0  0  0  0  0  0  0  0  0  0  0
  139.9450   70.7730  228.4250 C   0  0  0  0  0  0  0  0  0  0  0  0
  140.7620   71.8890  228.3120 C   0  0  0  0  0  0  0  0  0  0  0  0
  141.4090   72.1930  227.1100 C   0  0  0  0  0  0  0  0  0  0  0  0
  141.2400   71.3750  226.0110 C   0  0  0  0  0  0  0  0  0  0  0  0
  139.4594   67.9684  226.2633 H   0  0  0  0  0  0  0  0  0  0  0  0
  138.5397   68.1681  224.7333 H   0  0  0  0  0  0  0  0  0  0  0  0
  140.1011   67.2800  224.7333 H   0  0  0  0  0  0  0  0  0  0  0  0
  141.3135   69.1714  224.6013 H   0  0  0  0  0  0  0  0  0  0  0  0
  140.3050   70.3080  222.9680 H   0  0  0  0  0  0  0  0  0  0  0  0
  137.5616   70.6185  221.8643 H   0  0  0  0  0  0  0  0  0  0  0  0
  136.6458   71.5547  223.1050 H   0  0  0  0  0  0  0  0  0  0  0  0
  138.0140   73.3980  222.7130 H   0  0  0  0  0  0  0  0  0  0  0  0
  141.3036   72.8653  219.6414 H   0  0  0  0  0  0  0  0  0  0  0  0
  142.8012   77.3053  219.5565 H   0  0  0  0  0  0  0  0  0  0  0  0
  142.3303   79.3388  220.9433 H   0  0  0  0  0  0  0  0  0  0  0  0
  140.7468   79.1560  222.8374 H   0  0  0  0  0  0  0  0  0  0  0  0
  139.6184   77.0246  223.3859 H   0  0  0  0  0  0  0  0  0  0  0  0
  139.1345   69.0615  227.3802 H   0  0  0  0  0  0  0  0  0  0  0  0
  139.4393   70.5418  229.3741 H   0  0  0  0  0  0  0  0  0  0  0  0
  140.9031   72.5459  229.1829 H   0  0  0  0  0  0  0  0  0  0  0  0
  142.0518   73.0829  227.0404 H   0  0  0  0  0  0  0  0  0  0  0  0
  141.7446   71.6053  225.0611 H   0  0  0  0  0  0  0  0  0  0  0  0
  1  2  1  0
  2  3  1  0
  3  4  1  0
  4  5  2  0
  4  6  1  0
  6  7  1  0
  7  8  1  0
  8  9  2  0
  8 10  1  0
 10 11  2  0
 11 12  1  0
 12 13  2  0
 13 14  1  0
 14 15  2  0
 15 16  1  0
 16 17  2  0
 17 18  1  0
 18 19  2  0
  2 20  1  0
 20 21  2  0
 21 22  1  0
 22 23  2  0
 23 24  1  0
 24 25  2  0
 19 10  1  0
 25 20  1  0
 18 13  1  0
  1 26  1  0
  1 27  1  0
  1 28  1  0
  2 29  1  6
  3 30  1  0
  6 31  1  0
  6 32  1  0
  7 33  1  0
 11 34  1  0
 14 35  1  0
 15 36  1  0
 16 37  1  0
 17 38  1  0
 21 39  1  0
 22 40  1  0
 23 41  1  0
 24 42  1  0
 25 43  1  0
M  END
>  <smiles>  (16) 
C[C@@H](NC(=O)CNC(=O)c1cnc2ccccc2n1)c1ccccc1

>  <score_type>  (16) 
oracle

>  <origin>  (16) 
autodockgpu

>  <m_score__min__energy>  (16) 
-8.6199999999999992

>  <m_primary>  (16) 
energy

>  <rmsd>  (16) 
9.829128638831834

>  <m_score__min__rmsd>  (16) 
9.829128638831834

>  <meeko>  (16) 
{"free_energy": -7.43, "intermolecular_energy": -8.92, "internal_energy": -1.97, "cluster_size": 4, "cluster_id": 5, "rank_in_cluster": 3}

>  <energy>  (16) 
-7.4

>  <cluster_rmsd>  (16) 
1.78

>  <cluster>  (16) 
1

$$$$

     RDKit          3D

 43 45  0  0  0  0  0  0  0  0999 V2000
  142.2210   75.5370  219.8100 C   0  0  0  0  0  0  0  0  0  0  0  0
  142.3860   74.3980  220.8060 C   0  0  1  0  0  0  0  0  0  0  0  0
  141.1950   73.5860  220.8690 N   0  0  0  0  0  0  0  0  0  0  0  0
  140.0380   74.0330  221.5470 C   0  0  0  0  0  0  0  0  0  0  0  0
  140.1010   75.1790  222.1030 O   0  0  0  0  0  0  0  0  0  0  0  0
  138.7740   73.2890  221.6670 C   0  0  0  0  0  0  0  0  0  0  0  0
  138.8490   72.3460  222.7290 N   0  0  0  0  0  0  0  0  0  0  0  0
  139.7920   71.2820  222.7420 C   0  0  0  0  0  0  0  0  0  0  0  0
  140.6270   71.0910  221.8030 O   0  0  0  0  0  0  0  0  0  0  0  0
  139.8010   70.3600  223.8890 C   0  0  0  0  0  0  0  0  0  0  0  0
  139.1990   69.1240  223.7980 C   0  0  0  0  0  0  0  0  0  0  0  0
  139.1980   68.2620  224.8420 N   0  0  0  0  0  0  0  0  0  0  0  0
  139.8070   68.6320  226.0010 C   0  0  0  0  0  0  0  0  0  0  0  0
  139.8270   67.7750  227.1000 C   0  0  0  0  0  0  0  0  0  0  0  0
  140.4510   68.1520  228.2920 C   0  0  0  0  0  0  0  0  0  0  0  0
  141.0460   69.3990  228.3510 C   0  0  0  0  0  0  0  0  0  0  0  0
  141.0480   70.2750  227.2900 C   0  0  0  0  0  0  0  0  0  0  0  0
  140.4170   69.8650  226.1190 C   0  0  0  0  0  0  0  0  0  0  0  0
  140.4030   70.7030  225.0620 N   0  0  0  0  0  0  0  0  0  0  0  0
  143.6170   73.6160  220.5500 C   0  0  0  0  0  0  0  0  0  0  0  0
  143.6040   72.2960  220.1380 C   0  0  0  0  0  0  0  0  0  0  0  0
  144.8000   71.6170  219.9140 C   0  0  0  0  0  0  0  0  0  0  0  0
  145.9960   72.2920  220.1140 C   0  0  0  0  0  0  0  0  0  0  0  0
  146.0130   73.6260  220.5310 C   0  0  0  0  0  0  0  0  0  0  0  0
  144.8250   74.2940  220.7510 C   0  0  0  0  0  0  0  0  0  0  0  0
  142.0839   76.4830  220.3543 H   0  0  0  0  0  0  0  0  0  0  0  0
  143.1188   75.6043  219.1780 H   0  0  0  0  0  0  0  0  0  0  0  0
  141.3410   75.3468  219.1780 H   0  0  0  0  0  0  0  0  0  0  0  0
  142.5169   74.8355  221.8067 H   0  0  0  0  0  0  0  0  0  0  0  0
  141.2320   72.6550  220.4060 H   0  0  0  0  0  0  0  0  0  0  0  0
  137.9557   73.9960  221.8681 H   0  0  0  0  0  0  0  0  0  0  0  0
  138.5879   72.7505  220.7261 H   0  0  0  0  0  0  0  0  0  0  0  0
  138.1860   72.4200  223.5570 H   0  0  0  0  0  0  0  0  0  0  0  0
  138.7090   68.8315  222.8576 H   0  0  0  0  0  0  0  0  0  0  0  0
  139.3451   66.7888  227.0280 H   0  0  0  0  0  0  0  0  0  0  0  0
  140.4685   67.4757  229.1594 H   0  0  0  0  0  0  0  0  0  0  0  0
  141.5387   69.7036  229.2861 H   0  0  0  0  0  0  0  0  0  0  0  0
  141.5296   71.2612  227.3643 H   0  0  0  0  0  0  0  0  0  0  0  0
  142.6447   71.7795  219.9863 H   0  0  0  0  0  0  0  0  0  0  0  0
  144.7963   70.5673  219.5853 H   0  0  0  0  0  0  0  0  0  0  0  0
  146.9475   71.7679  219.9413 H   0  0  0  0  0  0  0  0  0  0  0  0
  146.9719   74.1430  220.6837 H   0  0  0  0  0  0  0  0  0  0  0  0
  144.8277   75.3438  221.0795 H   0  0  0  0  0  0  0  0  0  0  0  0
  1  2  1  0
  2  3  1  0
  3  4  1  0
  4  5  2  0
  4  6  1  0
  6  7  1  0
  7  8  1  0
  8  9  2  0
  8 10  1  0
 10 11  2  0
 11 12  1  0
 12 13  2  0
 13 14  1  0
 14 15  2  0
 15 16  1  0
 16 17  2  0
 17 18  1  0
 18 19  2  0
  2 20  1  0
 20 21  2  0
 21 22  1  0
 22 23  2  0
 23 24  1  0
 24 25  2  0
 19 10  1  0
 25 20  1  0
 18 13  1  0
  1 26  1  0
  1 27  1  0
  1 28  1  0
  2 29  1  1
  3 30  1  0
  6 31  1  0
  6 32  1  0
  7 33  1  0
 11 34  1  0
 14 35  1  0
 15 36  1  0
 16 37  1  0
 17 38  1  0
 21 39  1  0
 22 40  1  0
 23 41  1  0
 24 42  1  0
 25 43  1  0
M  END
>  <smiles>  (17) 
C[C@@H](NC(=O)CNC(=O)c1cnc2ccccc2n1)c1ccccc1

>  <score_type>  (17) 
oracle

>  <origin>  (17) 
autodockgpu

>  <m_score__min__energy>  (17) 
-8.6199999999999992

>  <m_primary>  (17) 
energy

>  <rmsd>  (17) 
6.494759952124995

>  <m_score__min__rmsd>  (17) 
6.494759952124995

>  <meeko>  (17) 
{"free_energy": -7.94, "intermolecular_energy": -9.43, "internal_energy": -1.6, "cluster_size": 6, "cluster_id": 3, "rank_in_cluster": 3}

>  <energy>  (17) 
-7.37

>  <cluster_rmsd>  (17) 
1.34

>  <cluster>  (17) 
1

$$$$

     RDKit          3D

 43 45  0  0  0  0  0  0  0  0999 V2000
  137.7220   71.5710  223.5470 C   0  0  0  0  0  0  0  0  0  0  0  0
  139.2230   71.3200  223.5320 C   0  0  1  0  0  0  0  0  0  0  0  0
  139.9170   72.3620  222.8140 N   0  0  0  0  0  0  0  0  0  0  0  0
  140.8390   72.0540  221.7880 C   0  0  0  0  0  0  0  0  0  0  0  0
  141.0310   70.8190  221.5350 O   0  0  0  0  0  0  0  0  0  0  0  0
  141.5950   73.0350  220.9930 C   0  0  0  0  0  0  0  0  0  0  0  0
  141.3920   74.3490  221.4980 N   0  0  0  0  0  0  0  0  0  0  0  0
  140.1010   74.9350  221.6090 C   0  0  0  0  0  0  0  0  0  0  0  0
  139.0380   74.3320  221.2570 O   0  0  0  0  0  0  0  0  0  0  0  0
  139.9880   76.2980  222.1520 C   0  0  0  0  0  0  0  0  0  0  0  0
  138.7590   76.8090  222.5080 C   0  0  0  0  0  0  0  0  0  0  0  0
  138.6360   78.0600  223.0100 N   0  0  0  0  0  0  0  0  0  0  0  0
  139.7530   78.8210  223.1640 C   0  0  0  0  0  0  0  0  0  0  0  0
  139.6690   80.1140  223.6760 C   0  0  0  0  0  0  0  0  0  0  0  0
  140.8140   80.8990  223.8350 C   0  0  0  0  0  0  0  0  0  0  0  0
  142.0330   80.3560  223.4680 C   0  0  0  0  0  0  0  0  0  0  0  0
  142.1590   79.0850  222.9580 C   0  0  0  0  0  0  0  0  0  0  0  0
  140.9960   78.3330  222.8150 C   0  0  0  0  0  0  0  0  0  0  0  0
  141.0890   77.0820  222.3170 N   0  0  0  0  0  0  0  0  0  0  0  0
  139.7570   71.0910  224.8950 C   0  0  0  0  0  0  0  0  0  0  0  0
  140.7240   71.8910  225.4740 C   0  0  0  0  0  0  0  0  0  0  0  0
  141.1840   71.6200  226.7610 C   0  0  0  0  0  0  0  0  0  0  0  0
  140.6500   70.5360  227.4440 C   0  0  0  0  0  0  0  0  0  0  0  0
  139.6720   69.7240  226.8610 C   0  0  0  0  0  0  0  0  0  0  0  0
  139.2210   69.9980  225.5860 C   0  0  0  0  0  0  0  0  0  0  0  0
  137.3705   71.6298  224.5877 H   0  0  0  0  0  0  0  0  0  0  0  0
  137.5035   72.5182  223.0321 H   0  0  0  0  0  0  0  0  0  0  0  0
  137.2072   70.7465  223.0321 H   0  0  0  0  0  0  0  0  0  0  0  0
  139.4079   70.3862  222.9808 H   0  0  0  0  0  0  0  0  0  0  0  0
  139.7190   73.3440  223.0950 H   0  0  0  0  0  0  0  0  0  0  0  0
  142.6665   72.7906  221.0405 H   0  0  0  0  0  0  0  0  0  0  0  0
  141.2425   72.9960  219.9517 H   0  0  0  0  0  0  0  0  0  0  0  0
  142.2220   74.9350  221.8110 H   0  0  0  0  0  0  0  0  0  0  0  0
  137.8599   76.1880  222.3818 H   0  0  0  0  0  0  0  0  0  0  0  0
  138.6877   80.5226  223.9590 H   0  0  0  0  0  0  0  0  0  0  0  0
  140.7484   81.9195  224.2403 H   0  0  0  0  0  0  0  0  0  0  0  0
  142.9396   80.9670  223.5894 H   0  0  0  0  0  0  0  0  0  0  0  0
  143.1408   78.6782  222.6740 H   0  0  0  0  0  0  0  0  0  0  0  0
  141.1326   72.7462  224.9158 H   0  0  0  0  0  0  0  0  0  0  0  0
  141.9546   72.2522  227.2263 H   0  0  0  0  0  0  0  0  0  0  0  0
  141.0022   70.3117  228.4617 H   0  0  0  0  0  0  0  0  0  0  0  0
  139.2629   68.8682  227.4179 H   0  0  0  0  0  0  0  0  0  0  0  0
  138.4510   69.3663  225.1191 H   0  0  0  0  0  0  0  0  0  0  0  0
  1  2  1  0
  2  3  1  0
  3  4  1  0
  4  5  2  0
  4  6  1  0
  6  7  1  0
  7  8  1  0
  8  9  2  0
  8 10  1  0
 10 11  2  0
 11 12  1  0
 12 13  2  0
 13 14  1  0
 14 15  2  0
 15 16  1  0
 16 17  2  0
 17 18  1  0
 18 19  2  0
  2 20  1  0
 20 21  2  0
 21 22  1  0
 22 23  2  0
 23 24  1  0
 24 25  2  0
 19 10  1  0
 25 20  1  0
 18 13  1  0
  1 26  1  0
  1 27  1  0
  1 28  1  0
  2 29  1  6
  3 30  1  0
  6 31  1  0
  6 32  1  0
  7 33  1  0
 11 34  1  0
 14 35  1  0
 15 36  1  0
 16 37  1  0
 17 38  1  0
 21 39  1  0
 22 40  1  0
 23 41  1  0
 24 42  1  0
 25 43  1  0
M  END
>  <smiles>  (18) 
C[C@@H](NC(=O)CNC(=O)c1cnc2ccccc2n1)c1ccccc1

>  <score_type>  (18) 
oracle

>  <origin>  (18) 
autodockgpu

>  <m_score__min__energy>  (18) 
-8.6199999999999992

>  <m_primary>  (18) 
energy

>  <rmsd>  (18) 
9.777964950348725

>  <m_score__min__rmsd>  (18) 
9.777964950348725

>  <meeko>  (18) 
{"free_energy": -7.49, "intermolecular_energy": -8.98, "internal_energy": -1.8, "cluster_size": 17, "cluster_id": 1, "rank_in_cluster": 12}

>  <energy>  (18) 
-8.32

>  <cluster_rmsd>  (18) 
0.0

>  <cluster>  (18) 
2

$$$$

     RDKit          3D

 43 45  0  0  0  0  0  0  0  0999 V2000
  139.2220   68.2100  225.3080 C   0  0  0  0  0  0  0  0  0  0  0  0
  139.6160   69.6090  224.8550 C   0  0  1  0  0  0  0  0  0  0  0  0
  138.5350   70.2490  224.1460 N   0  0  0  0  0  0  0  0  0  0  0  0
  138.7870   71.1780  223.1100 C   0  0  0  0  0  0  0  0  0  0  0  0
  140.0080   71.4240  222.8410 O   0  0  0  0  0  0  0  0  0  0  0  0
  137.7620   71.8820  222.3230 C   0  0  0  0  0  0  0  0  0  0  0  0
  136.9130   72.6410  223.1750 N   0  0  0  0  0  0  0  0  0  0  0  0
  135.9060   72.0440  223.9820 C   0  0  0  0  0  0  0  0  0  0  0  0
  135.6850   70.7910  223.9920 O   0  0  0  0  0  0  0  0  0  0  0  0
  135.0810   72.9090  224.8390 C   0  0  0  0  0  0  0  0  0  0  0  0
  134.2990   72.3660  225.8340 C   0  0  0  0  0  0  0  0  0  0  0  0
  133.5350   73.1470  226.6340 N   0  0  0  0  0  0  0  0  0  0  0  0
  133.5450   74.4940  226.4440 C   0  0  0  0  0  0  0  0  0  0  0  0
  132.7720   75.3320  227.2440 C   0  0  0  0  0  0  0  0  0  0  0  0
  132.7800   76.7160  227.0510 C   0  0  0  0  0  0  0  0  0  0  0  0
  133.5760   77.2300  226.0430 C   0  0  0  0  0  0  0  0  0  0  0  0
  134.3530   76.4370  225.2310 C   0  0  0  0  0  0  0  0  0  0  0  0
  134.3200   75.0630  225.4530 C   0  0  0  0  0  0  0  0  0  0  0  0
  135.0720   74.2610  224.6720 N   0  0  0  0  0  0  0  0  0  0  0  0
  140.1460   70.4210  225.9750 C   0  0  0  0  0  0  0  0  0  0  0  0
  140.9630   71.5220  225.7910 C   0  0  0  0  0  0  0  0  0  0  0  0
  141.4280   72.2440  226.8890 C   0  0  0  0  0  0  0  0  0  0  0  0
  141.0540   71.8350  228.1610 C   0  0  0  0  0  0  0  0  0  0  0  0
  140.2290   70.7210  228.3510 C   0  0  0  0  0  0  0  0  0  0  0  0
  139.7710   70.0110  227.2600 C   0  0  0  0  0  0  0  0  0  0  0  0
  139.2108   68.1701  226.4072 H   0  0  0  0  0  0  0  0  0  0  0  0
  138.2208   67.9680  224.9220 H   0  0  0  0  0  0  0  0  0  0  0  0
  139.9498   67.4811  224.9220 H   0  0  0  0  0  0  0  0  0  0  0  0
  140.4453   69.5161  224.1383 H   0  0  0  0  0  0  0  0  0  0  0  0
  137.5670   70.0070  224.4410 H   0  0  0  0  0  0  0  0  0  0  0  0
  138.2551   72.5575  221.6085 H   0  0  0  0  0  0  0  0  0  0  0  0
  137.1541   71.1392  221.7856 H   0  0  0  0  0  0  0  0  0  0  0  0
  137.0170   73.6980  223.2300 H   0  0  0  0  0  0  0  0  0  0  0  0
  134.2949   71.2760  225.9819 H   0  0  0  0  0  0  0  0  0  0  0  0
  132.1468   74.8986  228.0385 H   0  0  0  0  0  0  0  0  0  0  0  0
  132.1703   77.3784  227.6830 H   0  0  0  0  0  0  0  0  0  0  0  0
  133.5881   78.3184  225.8843 H   0  0  0  0  0  0  0  0  0  0  0  0
  134.9769   76.8720  224.4363 H   0  0  0  0  0  0  0  0  0  0  0  0
  141.2470   71.8291  224.7737 H   0  0  0  0  0  0  0  0  0  0  0  0
  142.0783   73.1202  226.7499 H   0  0  0  0  0  0  0  0  0  0  0  0
  141.4126   72.3968  229.0361 H   0  0  0  0  0  0  0  0  0  0  0  0
  139.9461   70.4118  229.3680 H   0  0  0  0  0  0  0  0  0  0  0  0
  139.1202   69.1350  227.3980 H   0  0  0  0  0  0  0  0  0  0  0  0
  1  2  1  0
  2  3  1  0
  3  4  1  0
  4  5  2  0
  4  6  1  0
  6  7  1  0
  7  8  1  0
  8  9  2  0
  8 10  1  0
 10 11  2  0
 11 12  1  0
 12 13  2  0
 13 14  1  0
 14 15  2  0
 15 16  1  0
 16 17  2  0
 17 18  1  0
 18 19  2  0
  2 20  1  0
 20 21  2  0
 21 22  1  0
 22 23  2  0
 23 24  1  0
 24 25  2  0
 19 10  1  0
 25 20  1  0
 18 13  1  0
  1 26  1  0
  1 27  1  0
  1 28  1  0
  2 29  1  6
  3 30  1  0
  6 31  1  0
  6 32  1  0
  7 33  1  0
 11 34  1  0
 14 35  1  0
 15 36  1  0
 16 37  1  0
 17 38  1  0
 21 39  1  0
 22 40  1  0
 23 41  1  0
 24 42  1  0
 25 43  1  0
M  END
>  <smiles>  (19) 
C[C@@H](NC(=O)CNC(=O)c1cnc2ccccc2n1)c1ccccc1

>  <score_type>  (19) 
oracle

>  <origin>  (19) 
autodockgpu

>  <m_score__min__energy>  (19) 
-8.6199999999999992

>  <m_primary>  (19) 
energy

>  <rmsd>  (19) 
10.175242710777336

>  <m_score__min__rmsd>  (19) 
10.175242710777336

>  <meeko>  (19) 
{"free_energy": -7.47, "intermolecular_energy": -8.96, "internal_energy": -2.0, "cluster_size": 9, "cluster_id": 4, "rank_in_cluster": 3}

>  <energy>  (19) 
-8.05

>  <cluster_rmsd>  (19) 
1.28

>  <cluster>  (19) 
2

$$$$

     RDKit          3D

 43 45  0  0  0  0  0  0  0  0999 V2000
  139.2100   68.2510  224.9980 C   0  0  0  0  0  0  0  0  0  0  0  0
  139.5450   69.7130  224.7400 C   0  0  1  0  0  0  0  0  0  0  0  0
  138.4340   70.4000  224.1270 N   0  0  0  0  0  0  0  0  0  0  0  0
  138.6430   71.4350  223.1860 C   0  0  0  0  0  0  0  0  0  0  0  0
  139.8520   71.7340  222.9150 O   0  0  0  0  0  0  0  0  0  0  0  0
  137.5860   72.1950  222.5000 C   0  0  0  0  0  0  0  0  0  0  0  0
  136.6260   72.6720  223.4360 N   0  0  0  0  0  0  0  0  0  0  0  0
  135.6620   71.8220  224.0450 C   0  0  0  0  0  0  0  0  0  0  0  0
  135.5810   70.5790  223.7890 O   0  0  0  0  0  0  0  0  0  0  0  0
  134.7160   72.4040  225.0090 C   0  0  0  0  0  0  0  0  0  0  0  0
  133.8580   71.5960  225.7220 C   0  0  0  0  0  0  0  0  0  0  0  0
  132.9810   72.1130  226.6140 N   0  0  0  0  0  0  0  0  0  0  0  0
  132.9530   73.4610  226.8050 C   0  0  0  0  0  0  0  0  0  0  0  0
  132.0650   74.0330  227.7120 C   0  0  0  0  0  0  0  0  0  0  0  0
  132.0330   75.4160  227.9110 C   0  0  0  0  0  0  0  0  0  0  0  0
  132.9080   76.1990  227.1790 C   0  0  0  0  0  0  0  0  0  0  0  0
  133.7990   75.6740  226.2730 C   0  0  0  0  0  0  0  0  0  0  0  0
  133.8020   74.2920  226.1030 C   0  0  0  0  0  0  0  0  0  0  0  0
  134.6650   73.7490  225.2200 N   0  0  0  0  0  0  0  0  0  0  0  0
  140.0500   70.3860  225.9590 C   0  0  0  0  0  0  0  0  0  0  0  0
  139.7250   69.9780  227.2400 C   0  0  0  0  0  0  0  0  0  0  0  0
  140.2350   70.6560  228.3450 C   0  0  0  0  0  0  0  0  0  0  0  0
  141.0710   71.7430  228.1320 C   0  0  0  0  0  0  0  0  0  0  0  0
  141.4010   72.1590  226.8380 C   0  0  0  0  0  0  0  0  0  0  0  0
  140.8930   71.4840  225.7470 C   0  0  0  0  0  0  0  0  0  0  0  0
  139.1686   68.0701  226.0822 H   0  0  0  0  0  0  0  0  0  0  0  0
  138.2342   68.0137  224.5491 H   0  0  0  0  0  0  0  0  0  0  0  0
  139.9851   67.6125  224.5491 H   0  0  0  0  0  0  0  0  0  0  0  0
  140.3725   69.7514  224.0163 H   0  0  0  0  0  0  0  0  0  0  0  0
  137.4790   70.1090  224.4180 H   0  0  0  0  0  0  0  0  0  0  0  0
  138.0373   73.0508  221.9767 H   0  0  0  0  0  0  0  0  0  0  0  0
  137.0821   71.5327  221.7806 H   0  0  0  0  0  0  0  0  0  0  0  0
  136.6110   73.7000  223.7090 H   0  0  0  0  0  0  0  0  0  0  0  0
  133.8861   70.5079  225.5632 H   0  0  0  0  0  0  0  0  0  0  0  0
  131.3790   73.3874  228.2800 H   0  0  0  0  0  0  0  0  0  0  0  0
  131.3328   75.8687  228.6285 H   0  0  0  0  0  0  0  0  0  0  0  0
  132.8900   77.2887  227.3284 H   0  0  0  0  0  0  0  0  0  0  0  0
  134.4832   76.3209  225.7043 H   0  0  0  0  0  0  0  0  0  0  0  0
  139.0605   69.1138  227.3870 H   0  0  0  0  0  0  0  0  0  0  0  0
  139.9801   70.3361  229.3661 H   0  0  0  0  0  0  0  0  0  0  0  0
  141.4812   72.2868  228.9957 H   0  0  0  0  0  0  0  0  0  0  0  0
  142.0649   73.0235  226.6902 H   0  0  0  0  0  0  0  0  0  0  0  0
  141.1465   71.8037  224.7255 H   0  0  0  0  0  0  0  0  0  0  0  0
  1  2  1  0
  2  3  1  0
  3  4  1  0
  4  5  2  0
  4  6  1  0
  6  7  1  0
  7  8  1  0
  8  9  2  0
  8 10  1  0
 10 11  2  0
 11 12  1  0
 12 13  2  0
 13 14  1  0
 14 15  2  0
 15 16  1  0
 16 17  2  0
 17 18  1  0
 18 19  2  0
  2 20  1  0
 20 21  2  0
 21 22  1  0
 22 23  2  0
 23 24  1  0
 24 25  2  0
 19 10  1  0
 25 20  1  0
 18 13  1  0
  1 26  1  0
  1 27  1  0
  1 28  1  0
  2 29  1  6
  3 30  1  0
  6 31  1  0
  6 32  1  0
  7 33  1  0
 11 34  1  0
 14 35  1  0
 15 36  1  0
 16 37  1  0
 17 38  1  0
 21 39  1  0
 22 40  1  0
 23 41  1  0
 24 42  1  0
 25 43  1  0
M  END
>  <smiles>  (20) 
C[C@@H](NC(=O)CNC(=O)c1cnc2ccccc2n1)c1ccccc1

>  <score_type>  (20) 
oracle

>  <origin>  (20) 
autodockgpu

>  <m_score__min__energy>  (20) 
-8.6199999999999992

>  <m_primary>  (20) 
energy

>  <rmsd>  (20) 
9.95383959754051

>  <m_score__min__rmsd>  (20) 
9.95383959754051

>  <meeko>  (20) 
{"free_energy": -7.31, "intermolecular_energy": -8.81, "internal_energy": -2.01, "cluster_size": 9, "cluster_id": 4, "rank_in_cluster": 8}

>  <energy>  (20) 
-8.05

>  <cluster_rmsd>  (20) 
1.35

>  <cluster>  (20) 
2

$$$$

     RDKit          3D

 43 45  0  0  0  0  0  0  0  0999 V2000
  139.2570   69.1210  224.2070 C   0  0  0  0  0  0  0  0  0  0  0  0
  139.8900   70.4960  224.3660 C   0  0  1  0  0  0  0  0  0  0  0  0
  139.0570   71.5210  223.7860 N   0  0  0  0  0  0  0  0  0  0  0  0
  139.4660   72.2320  222.6340 C   0  0  0  0  0  0  0  0  0  0  0  0
  140.6010   71.9280  222.1410 O   0  0  0  0  0  0  0  0  0  0  0  0
  138.6940   73.2890  221.9610 C   0  0  0  0  0  0  0  0  0  0  0  0
  139.3520   74.5440  222.0880 N   0  0  0  0  0  0  0  0  0  0  0  0
  140.0320   75.1650  221.0040 C   0  0  0  0  0  0  0  0  0  0  0  0
  140.1100   74.6390  219.8490 O   0  0  0  0  0  0  0  0  0  0  0  0
  140.6760   76.4680  221.2270 C   0  0  0  0  0  0  0  0  0  0  0  0
  141.1700   77.1960  220.1670 C   0  0  0  0  0  0  0  0  0  0  0  0
  141.7650   78.3970  220.3530 N   0  0  0  0  0  0  0  0  0  0  0  0
  141.8730   78.8900  221.6170 C   0  0  0  0  0  0  0  0  0  0  0  0
  142.4800   80.1220  221.8510 C   0  0  0  0  0  0  0  0  0  0  0  0
  142.5930   80.6310  223.1480 C   0  0  0  0  0  0  0  0  0  0  0  0
  142.0870   79.8760  224.1910 C   0  0  0  0  0  0  0  0  0  0  0  0
  141.4820   78.6550  224.0020 C   0  0  0  0  0  0  0  0  0  0  0  0
  141.3870   78.1810  222.6960 C   0  0  0  0  0  0  0  0  0  0  0  0
  140.7990   76.9860  222.4810 N   0  0  0  0  0  0  0  0  0  0  0  0
  140.2660   70.7710  225.7720 C   0  0  0  0  0  0  0  0  0  0  0  0
  139.8570   69.9840  226.8330 C   0  0  0  0  0  0  0  0  0  0  0  0
  140.2470   70.2990  228.1330 C   0  0  0  0  0  0  0  0  0  0  0  0
  141.0500   71.4130  228.3360 C   0  0  0  0  0  0  0  0  0  0  0  0
  141.4640   72.2110  227.2660 C   0  0  0  0  0  0  0  0  0  0  0  0
  141.0750   71.8940  225.9800 C   0  0  0  0  0  0  0  0  0  0  0  0
  139.0592   68.6914  225.2001 H   0  0  0  0  0  0  0  0  0  0  0  0
  138.3113   69.2145  223.6530 H   0  0  0  0  0  0  0  0  0  0  0  0
  139.9430   68.4634  223.6530 H   0  0  0  0  0  0  0  0  0  0  0  0
  140.8338   70.5052  223.8010 H   0  0  0  0  0  0  0  0  0  0  0  0
  138.1530   71.7220  224.2610 H   0  0  0  0  0  0  0  0  0  0  0  0
  138.5924   73.0398  220.8944 H   0  0  0  0  0  0  0  0  0  0  0  0
  137.7016   73.3585  222.4303 H   0  0  0  0  0  0  0  0  0  0  0  0
  139.3480   75.0580  223.0190 H   0  0  0  0  0  0  0  0  0  0  0  0
  141.0789   76.7925  219.1478 H   0  0  0  0  0  0  0  0  0  0  0  0
  142.8755   80.7018  221.0040 H   0  0  0  0  0  0  0  0  0  0  0  0
  143.0707   81.6042  223.3340 H   0  0  0  0  0  0  0  0  0  0  0  0
  142.1721   80.2687  225.2150 H   0  0  0  0  0  0  0  0  0  0  0  0
  141.0884   78.0753  224.8500 H   0  0  0  0  0  0  0  0  0  0  0  0
  139.2210   69.1054  226.6498 H   0  0  0  0  0  0  0  0  0  0  0  0
  139.9250   69.6774  228.9815 H   0  0  0  0  0  0  0  0  0  0  0  0
  141.3661   71.6722  229.3572 H   0  0  0  0  0  0  0  0  0  0  0  0
  142.0990   73.0905  227.4483 H   0  0  0  0  0  0  0  0  0  0  0  0
  141.3962   72.5151  225.1309 H   0  0  0  0  0  0  0  0  0  0  0  0
  1  2  1  0
  2  3  1  0
  3  4  1  0
  4  5  2  0
  4  6  1  0
  6  7  1  0
  7  8  1  0
  8  9  2  0
  8 10  1  0
 10 11  2  0
 11 12  1  0
 12 13  2  0
 13 14  1  0
 14 15  2  0
 15 16  1  0
 16 17  2  0
 17 18  1  0
 18 19  2  0
  2 20  1  0
 20 21  2  0
 21 22  1  0
 22 23  2  0
 23 24  1  0
 24 25  2  0
 19 10  1  0
 25 20  1  0
 18 13  1  0
  1 26  1  0
  1 27  1  0
  1 28  1  0
  2 29  1  6
  3 30  1  0
  6 31  1  0
  6 32  1  0
  7 33  1  0
 11 34  1  0
 14 35  1  0
 15 36  1  0
 16 37  1  0
 17 38  1  0
 21 39  1  0
 22 40  1  0
 23 41  1  0
 24 42  1  0
 25 43  1  0
M  END
>  <smiles>  (21) 
C[C@@H](NC(=O)CNC(=O)c1cnc2ccccc2n1)c1ccccc1

>  <score_type>  (21) 
oracle

>  <origin>  (21) 
autodockgpu

>  <m_score__min__energy>  (21) 
-8.6199999999999992

>  <m_primary>  (21) 
energy

>  <rmsd>  (21) 
10.001116493864608

>  <m_score__min__rmsd>  (21) 
10.001116493864608

>  <meeko>  (21) 
{"free_energy": -8.33, "intermolecular_energy": -9.83, "internal_energy": -1.16, "cluster_size": 17, "cluster_id": 1, "rank_in_cluster": 3}

>  <energy>  (21) 
-8.03

>  <cluster_rmsd>  (21) 
1.24

>  <cluster>  (21) 
2

$$$$

     RDKit          3D

 43 45  0  0  0  0  0  0  0  0999 V2000
  140.5110   67.3640  226.1800 C   0  0  0  0  0  0  0  0  0  0  0  0
  139.8020   68.5940  225.6320 C   0  0  1  0  0  0  0  0  0  0  0  0
  138.3710   68.4130  225.6320 N   0  0  0  0  0  0  0  0  0  0  0  0
  137.5200   69.3030  224.9380 C   0  0  0  0  0  0  0  0  0  0  0  0
  138.0760   70.2710  224.3220 O   0  0  0  0  0  0  0  0  0  0  0  0
  136.0530   69.2080  224.8690 C   0  0  0  0  0  0  0  0  0  0  0  0
  135.4550   70.4510  225.2180 N   0  0  0  0  0  0  0  0  0  0  0  0
  134.3080   70.5410  226.0530 C   0  0  0  0  0  0  0  0  0  0  0  0
  133.7290   69.5180  226.5390 O   0  0  0  0  0  0  0  0  0  0  0  0
  133.7650   71.8720  226.3670 C   0  0  0  0  0  0  0  0  0  0  0  0
  132.6580   72.0020  227.1760 C   0  0  0  0  0  0  0  0  0  0  0  0
  132.1450   73.2180  227.4770 N   0  0  0  0  0  0  0  0  0  0  0  0
  132.7420   74.3300  226.9650 C   0  0  0  0  0  0  0  0  0  0  0  0
  132.2440   75.6000  227.2490 C   0  0  0  0  0  0  0  0  0  0  0  0
  132.8540   76.7420  226.7250 C   0  0  0  0  0  0  0  0  0  0  0  0
  133.9640   76.5770  225.9160 C   0  0  0  0  0  0  0  0  0  0  0  0
  134.4860   75.3410  225.6110 C   0  0  0  0  0  0  0  0  0  0  0  0
  133.8520   74.2260  226.1520 C   0  0  0  0  0  0  0  0  0  0  0  0
  134.3410   73.0010  225.8690 N   0  0  0  0  0  0  0  0  0  0  0  0
  140.2370   69.8320  226.3210 C   0  0  0  0  0  0  0  0  0  0  0  0
  141.0480   70.7830  225.7290 C   0  0  0  0  0  0  0  0  0  0  0  0
  141.4200   71.9260  226.4330 C   0  0  0  0  0  0  0  0  0  0  0  0
  140.9600   72.0870  227.7330 C   0  0  0  0  0  0  0  0  0  0  0  0
  140.1390   71.1270  228.3340 C   0  0  0  0  0  0  0  0  0  0  0  0
  139.7740   69.9970  227.6320 C   0  0  0  0  0  0  0  0  0  0  0  0
  140.4953   67.3912  227.2795 H   0  0  0  0  0  0  0  0  0  0  0  0
  139.9970   66.4573  225.8283 H   0  0  0  0  0  0  0  0  0  0  0  0
  141.5532   67.3544  225.8283 H   0  0  0  0  0  0  0  0  0  0  0  0
  140.0987   68.7195  224.5802 H   0  0  0  0  0  0  0  0  0  0  0  0
  137.9960   67.6090  226.1760 H   0  0  0  0  0  0  0  0  0  0  0  0
  135.7557   68.9384  223.8448 H   0  0  0  0  0  0  0  0  0  0  0  0
  135.7131   68.4388  225.5781 H   0  0  0  0  0  0  0  0  0  0  0  0
  135.8650   71.3610  224.8530 H   0  0  0  0  0  0  0  0  0  0  0  0
  132.1811   71.0995  227.5858 H   0  0  0  0  0  0  0  0  0  0  0  0
  131.3592   75.7045  227.8941 H   0  0  0  0  0  0  0  0  0  0  0  0
  132.4625   77.7452  226.9495 H   0  0  0  0  0  0  0  0  0  0  0  0
  134.4497   77.4716  225.4990 H   0  0  0  0  0  0  0  0  0  0  0  0
  135.3701   75.2379  224.9647 H   0  0  0  0  0  0  0  0  0  0  0  0
  141.4009   70.6362  224.6976 H   0  0  0  0  0  0  0  0  0  0  0  0
  142.0654   72.6859  225.9682 H   0  0  0  0  0  0  0  0  0  0  0  0
  141.2461   72.9850  228.3002 H   0  0  0  0  0  0  0  0  0  0  0  0
  139.7849   71.2730  229.3652 H   0  0  0  0  0  0  0  0  0  0  0  0
  139.1285   69.2365  228.0956 H   0  0  0  0  0  0  0  0  0  0  0  0
  1  2  1  0
  2  3  1  0
  3  4  1  0
  4  5  2  0
  4  6  1  0
  6  7  1  0
  7  8  1  0
  8  9  2  0
  8 10  1  0
 10 11  2  0
 11 12  1  0
 12 13  2  0
 13 14  1  0
 14 15  2  0
 15 16  1  0
 16 17  2  0
 17 18  1  0
 18 19  2  0
  2 20  1  0
 20 21  2  0
 21 22  1  0
 22 23  2  0
 23 24  1  0
 24 25  2  0
 19 10  1  0
 25 20  1  0
 18 13  1  0
  1 26  1  0
  1 27  1  0
  1 28  1  0
  2 29  1  6
  3 30  1  0
  6 31  1  0
  6 32  1  0
  7 33  1  0
 11 34  1  0
 14 35  1  0
 15 36  1  0
 16 37  1  0
 17 38  1  0
 21 39  1  0
 22 40  1  0
 23 41  1  0
 24 42  1  0
 25 43  1  0
M  END
>  <smiles>  (22) 
C[C@@H](NC(=O)CNC(=O)c1cnc2ccccc2n1)c1ccccc1

>  <score_type>  (22) 
oracle

>  <origin>  (22) 
autodockgpu

>  <m_score__min__energy>  (22) 
-8.6199999999999992

>  <m_primary>  (22) 
energy

>  <rmsd>  (22) 
10.965612457966515

>  <m_score__min__rmsd>  (22) 
10.965612457966515

>  <meeko>  (22) 
{"free_energy": -7.93, "intermolecular_energy": -9.42, "internal_energy": -1.51, "cluster_size": 9, "cluster_id": 4, "rank_in_cluster": 2}

>  <energy>  (22) 
-7.98

>  <cluster_rmsd>  (22) 
1.24

>  <cluster>  (22) 
2

$$$$

     RDKit          3D

 43 45  0  0  0  0  0  0  0  0999 V2000
  139.5150   68.1930  225.3180 C   0  0  0  0  0  0  0  0  0  0  0  0
  140.3270   69.4270  224.9530 C   0  0  1  0  0  0  0  0  0  0  0  0
  139.7590   70.1050  223.8130 N   0  0  0  0  0  0  0  0  0  0  0  0
  138.4360   70.6030  223.8410 C   0  0  0  0  0  0  0  0  0  0  0  0
  137.7720   70.4190  224.9130 O   0  0  0  0  0  0  0  0  0  0  0  0
  137.7630   71.3100  222.7390 C   0  0  0  0  0  0  0  0  0  0  0  0
  138.4680   72.4990  222.4050 N   0  0  0  0  0  0  0  0  0  0  0  0
  139.6630   72.4910  221.6340 C   0  0  0  0  0  0  0  0  0  0  0  0
  140.1910   71.4200  221.1960 O   0  0  0  0  0  0  0  0  0  0  0  0
  140.3180   73.7720  221.3310 C   0  0  0  0  0  0  0  0  0  0  0  0
  141.2310   73.8660  220.3040 C   0  0  0  0  0  0  0  0  0  0  0  0
  141.8430   75.0370  220.0100 N   0  0  0  0  0  0  0  0  0  0  0  0
  141.5440   76.1400  220.7490 C   0  0  0  0  0  0  0  0  0  0  0  0
  142.1530   77.3640  220.4790 C   0  0  0  0  0  0  0  0  0  0  0  0
  141.8480   78.4980  221.2360 C   0  0  0  0  0  0  0  0  0  0  0  0
  140.9270   78.3710  222.2610 C   0  0  0  0  0  0  0  0  0  0  0  0
  140.3050   77.1810  222.5600 C   0  0  0  0  0  0  0  0  0  0  0  0
  140.6330   76.0730  221.7830 C   0  0  0  0  0  0  0  0  0  0  0  0
  140.0380   74.8930  222.0540 N   0  0  0  0  0  0  0  0  0  0  0  0
  140.5330   70.3160  226.1200 C   0  0  0  0  0  0  0  0  0  0  0  0
  141.3130   71.4560  226.0760 C   0  0  0  0  0  0  0  0  0  0  0  0
  141.4660   72.2490  227.2120 C   0  0  0  0  0  0  0  0  0  0  0  0
  140.8190   71.8700  228.3800 C   0  0  0  0  0  0  0  0  0  0  0  0
  140.0290   70.7170  228.4280 C   0  0  0  0  0  0  0  0  0  0  0  0
  139.8820   69.9360  227.3000 C   0  0  0  0  0  0  0  0  0  0  0  0
  139.4561   68.1035  226.4128 H   0  0  0  0  0  0  0  0  0  0  0  0
  138.5007   68.2854  224.9025 H   0  0  0  0  0  0  0  0  0  0  0  0
  140.0012   67.2980  224.9025 H   0  0  0  0  0  0  0  0  0  0  0  0
  141.3317   69.0969  224.6502 H   0  0  0  0  0  0  0  0  0  0  0  0
  140.3600   70.1960  222.9680 H   0  0  0  0  0  0  0  0  0  0  0  0
  137.7240   70.6528  221.8578 H   0  0  0  0  0  0  0  0  0  0  0  0
  136.7450   71.5781  223.0579 H   0  0  0  0  0  0  0  0  0  0  0  0
  138.1070   73.4440  222.7330 H   0  0  0  0  0  0  0  0  0  0  0  0
  141.4678   72.9707  219.7103 H   0  0  0  0  0  0  0  0  0  0  0  0
  142.8831   77.4383  219.6596 H   0  0  0  0  0  0  0  0  0  0  0  0
  142.3268   79.4652  221.0231 H   0  0  0  0  0  0  0  0  0  0  0  0
  140.6819   79.2591  222.8620 H   0  0  0  0  0  0  0  0  0  0  0  0
  139.5767   77.1076  223.3811 H   0  0  0  0  0  0  0  0  0  0  0  0
  141.8158   71.7391  225.1395 H   0  0  0  0  0  0  0  0  0  0  0  0
  142.0868   73.1566  227.1835 H   0  0  0  0  0  0  0  0  0  0  0  0
  140.9295   72.4873  229.2837 H   0  0  0  0  0  0  0  0  0  0  0  0
  139.5254   70.4331  229.3638 H   0  0  0  0  0  0  0  0  0  0  0  0
  139.2622   69.0277  227.3274 H   0  0  0  0  0  0  0  0  0  0  0  0
  1  2  1  0
  2  3  1  0
  3  4  1  0
  4  5  2  0
  4  6  1  0
  6  7  1  0
  7  8  1  0
  8  9  2  0
  8 10  1  0
 10 11  2  0
 11 12  1  0
 12 13  2  0
 13 14  1  0
 14 15  2  0
 15 16  1  0
 16 17  2  0
 17 18  1  0
 18 19  2  0
  2 20  1  0
 20 21  2  0
 21 22  1  0
 22 23  2  0
 23 24  1  0
 24 25  2  0
 19 10  1  0
 25 20  1  0
 18 13  1  0
  1 26  1  0
  1 27  1  0
  1 28  1  0
  2 29  1  6
  3 30  1  0
  6 31  1  0
  6 32  1  0
  7 33  1  0
 11 34  1  0
 14 35  1  0
 15 36  1  0
 16 37  1  0
 17 38  1  0
 21 39  1  0
 22 40  1  0
 23 41  1  0
 24 42  1  0
 25 43  1  0
M  END
>  <smiles>  (23) 
C[C@@H](NC(=O)CNC(=O)c1cnc2ccccc2n1)c1ccccc1

>  <score_type>  (23) 
oracle

>  <origin>  (23) 
autodockgpu

>  <m_score__min__energy>  (23) 
-8.6199999999999992

>  <m_primary>  (23) 
energy

>  <rmsd>  (23) 
10.034639658858943

>  <m_score__min__rmsd>  (23) 
10.034639658858943

>  <meeko>  (23) 
{"free_energy": -7.51, "intermolecular_energy": -9.0, "internal_energy": -1.97, "cluster_size": 17, "cluster_id": 1, "rank_in_cluster": 11}

>  <energy>  (23) 
-7.98

>  <cluster_rmsd>  (23) 
1.27

>  <cluster>  (23) 
2

$$$$

     RDKit          3D

 43 45  0  0  0  0  0  0  0  0999 V2000
  139.6230   67.9380  225.4270 C   0  0  0  0  0  0  0  0  0  0  0  0
  140.2990   69.2770  225.1720 C   0  0  1  0  0  0  0  0  0  0  0  0
  139.7490   69.9230  224.0050 N   0  0  0  0  0  0  0  0  0  0  0  0
  138.3920   70.3180  223.9570 C   0  0  0  0  0  0  0  0  0  0  0  0
  137.6820   70.0690  224.9860 O   0  0  0  0  0  0  0  0  0  0  0  0
  137.7340   70.9850  222.8230 C   0  0  0  0  0  0  0  0  0  0  0  0
  138.4380   72.1670  222.4620 N   0  0  0  0  0  0  0  0  0  0  0  0
  139.6720   72.1380  221.7560 C   0  0  0  0  0  0  0  0  0  0  0  0
  140.2380   71.0550  221.4050 O   0  0  0  0  0  0  0  0  0  0  0  0
  140.3230   73.4130  221.4180 C   0  0  0  0  0  0  0  0  0  0  0  0
  141.2720   73.4710  220.4220 C   0  0  0  0  0  0  0  0  0  0  0  0
  141.8810   74.6350  220.0960 N   0  0  0  0  0  0  0  0  0  0  0  0
  141.5430   75.7670  220.7720 C   0  0  0  0  0  0  0  0  0  0  0  0
  142.1470   76.9850  220.4680 C   0  0  0  0  0  0  0  0  0  0  0  0
  141.8020   78.1490  221.1600 C   0  0  0  0  0  0  0  0  0  0  0  0
  140.8450   78.0570  222.1550 C   0  0  0  0  0  0  0  0  0  0  0  0
  140.2260   76.8740  222.4860 C   0  0  0  0  0  0  0  0  0  0  0  0
  140.5950   75.7360  221.7740 C   0  0  0  0  0  0  0  0  0  0  0  0
  140.0040   74.5620  222.0770 N   0  0  0  0  0  0  0  0  0  0  0  0
  140.2900   70.1370  226.3780 C   0  0  0  0  0  0  0  0  0  0  0  0
  139.5800   69.8280  227.5230 C   0  0  0  0  0  0  0  0  0  0  0  0
  139.6140   70.6820  228.6240 C   0  0  0  0  0  0  0  0  0  0  0  0
  140.3730   71.8410  228.5450 C   0  0  0  0  0  0  0  0  0  0  0  0
  141.0920   72.1570  227.3870 C   0  0  0  0  0  0  0  0  0  0  0  0
  141.0540   71.3080  226.3000 C   0  0  0  0  0  0  0  0  0  0  0  0
  139.5384   67.7705  226.5109 H   0  0  0  0  0  0  0  0  0  0  0  0
  138.6192   67.9425  224.9772 H   0  0  0  0  0  0  0  0  0  0  0  0
  140.2227   67.1330  224.9772 H   0  0  0  0  0  0  0  0  0  0  0  0
  141.3599   69.0879  224.9514 H   0  0  0  0  0  0  0  0  0  0  0  0
  140.3910   70.0720  223.2000 H   0  0  0  0  0  0  0  0  0  0  0  0
  137.7128   70.2996  221.9629 H   0  0  0  0  0  0  0  0  0  0  0  0
  136.7096   71.2575  223.1169 H   0  0  0  0  0  0  0  0  0  0  0  0
  138.0460   73.1220  222.7180 H   0  0  0  0  0  0  0  0  0  0  0  0
  141.5408   72.5523  219.8800 H   0  0  0  0  0  0  0  0  0  0  0  0
  142.9055   77.0311  219.6727 H   0  0  0  0  0  0  0  0  0  0  0  0
  142.2779   79.1114  220.9204 H   0  0  0  0  0  0  0  0  0  0  0  0
  140.5674   78.9685  222.7047 H   0  0  0  0  0  0  0  0  0  0  0  0
  139.4687   76.8289  223.2825 H   0  0  0  0  0  0  0  0  0  0  0  0
  138.9853   68.9036  227.5655 H   0  0  0  0  0  0  0  0  0  0  0  0
  139.0503   70.4420  229.5376 H   0  0  0  0  0  0  0  0  0  0  0  0
  140.4100   72.5229  229.4074 H   0  0  0  0  0  0  0  0  0  0  0  0
  141.6869   73.0812  227.3432 H   0  0  0  0  0  0  0  0  0  0  0  0
  141.6159   71.5476  225.3852 H   0  0  0  0  0  0  0  0  0  0  0  0
  1  2  1  0
  2  3  1  0
  3  4  1  0
  4  5  2  0
  4  6  1  0
  6  7  1  0
  7  8  1  0
  8  9  2  0
  8 10  1  0
 10 11  2  0
 11 12  1  0
 12 13  2  0
 13 14  1  0
 14 15  2  0
 15 16  1  0
 16 17  2  0
 17 18  1  0
 18 19  2  0
  2 20  1  0
 20 21  2  0
 21 22  1  0
 22 23  2  0
 23 24  1  0
 24 25  2  0
 19 10  1  0
 25 20  1  0
 18 13  1  0
  1 26  1  0
  1 27  1  0
  1 28  1  0
  2 29  1  6
  3 30  1  0
  6 31  1  0
  6 32  1  0
  7 33  1  0
 11 34  1  0
 14 35  1  0
 15 36  1  0
 16 37  1  0
 17 38  1  0
 21 39  1  0
 22 40  1  0
 23 41  1  0
 24 42  1  0
 25 43  1  0
M  END
>  <smiles>  (24) 
C[C@@H](NC(=O)CNC(=O)c1cnc2ccccc2n1)c1ccccc1

>  <score_type>  (24) 
oracle

>  <origin>  (24) 
autodockgpu

>  <m_score__min__energy>  (24) 
-8.6199999999999992

>  <m_primary>  (24) 
energy

>  <rmsd>  (24) 
9.900310616789957

>  <m_score__min__rmsd>  (24) 
9.900310616789957

>  <meeko>  (24) 
{"free_energy": -7.36, "intermolecular_energy": -8.85, "internal_energy": -1.99, "cluster_size": 4, "cluster_id": 5, "rank_in_cluster": 4}

>  <energy>  (24) 
-7.98

>  <cluster_rmsd>  (24) 
1.24

>  <cluster>  (24) 
2

$$$$

     RDKit          3D

 43 45  0  0  0  0  0  0  0  0999 V2000
  142.2180   75.4900  219.7930 C   0  0  0  0  0  0  0  0  0  0  0  0
  142.3940   74.3460  220.7810 C   0  0  1  0  0  0  0  0  0  0  0  0
  141.2060   73.5310  220.8490 N   0  0  0  0  0  0  0  0  0  0  0  0
  140.0440   73.9840  221.5150 C   0  0  0  0  0  0  0  0  0  0  0  0
  140.1000   75.1380  222.0540 O   0  0  0  0  0  0  0  0  0  0  0  0
  138.7810   73.2380  221.6400 C   0  0  0  0  0  0  0  0  0  0  0  0
  138.8570   72.3050  222.7110 N   0  0  0  0  0  0  0  0  0  0  0  0
  139.7990   71.2400  222.7340 C   0  0  0  0  0  0  0  0  0  0  0  0
  140.6330   71.0380  221.7950 O   0  0  0  0  0  0  0  0  0  0  0  0
  139.8090   70.3290  223.8890 C   0  0  0  0  0  0  0  0  0  0  0  0
  139.2010   69.0960  223.8130 C   0  0  0  0  0  0  0  0  0  0  0  0
  139.2010   68.2450  224.8660 N   0  0  0  0  0  0  0  0  0  0  0  0
  139.8170   68.6230  226.0190 C   0  0  0  0  0  0  0  0  0  0  0  0
  139.8380   67.7770  227.1260 C   0  0  0  0  0  0  0  0  0  0  0  0
  140.4690   68.1620  228.3110 C   0  0  0  0  0  0  0  0  0  0  0  0
  141.0710   69.4080  228.3550 C   0  0  0  0  0  0  0  0  0  0  0  0
  141.0710   70.2730  227.2850 C   0  0  0  0  0  0  0  0  0  0  0  0
  140.4330   69.8540  226.1210 C   0  0  0  0  0  0  0  0  0  0  0  0
  140.4180   70.6820  225.0560 N   0  0  0  0  0  0  0  0  0  0  0  0
  143.6250   73.5680  220.5100 C   0  0  0  0  0  0  0  0  0  0  0  0
  143.6120   72.2880  219.9880 C   0  0  0  0  0  0  0  0  0  0  0  0
  144.8080   71.6110  219.7560 C   0  0  0  0  0  0  0  0  0  0  0  0
  146.0030   72.2470  220.0590 C   0  0  0  0  0  0  0  0  0  0  0  0
  146.0200   73.5420  220.5880 C   0  0  0  0  0  0  0  0  0  0  0  0
  144.8320   74.2080  220.8150 C   0  0  0  0  0  0  0  0  0  0  0  0
  142.0732   76.4311  220.3437 H   0  0  0  0  0  0  0  0  0  0  0  0
  143.1145   75.5695  219.1605 H   0  0  0  0  0  0  0  0  0  0  0  0
  141.3391   75.2963  219.1605 H   0  0  0  0  0  0  0  0  0  0  0  0
  142.5322   74.7782  221.7831 H   0  0  0  0  0  0  0  0  0  0  0  0
  141.2490   72.5930  220.4010 H   0  0  0  0  0  0  0  0  0  0  0  0
  137.9607   73.9449  221.8334 H   0  0  0  0  0  0  0  0  0  0  0  0
  138.5972   72.6905  220.7038 H   0  0  0  0  0  0  0  0  0  0  0  0
  138.1950   72.3870  223.5390 H   0  0  0  0  0  0  0  0  0  0  0  0
  138.7053   68.7963  222.8779 H   0  0  0  0  0  0  0  0  0  0  0  0
  139.3510   66.7925  227.0658 H   0  0  0  0  0  0  0  0  0  0  0  0
  140.4872   67.4941  229.1848 H   0  0  0  0  0  0  0  0  0  0  0  0
  141.5702   69.7195  229.2844 H   0  0  0  0  0  0  0  0  0  0  0  0
  141.5566   71.2580  227.3471 H   0  0  0  0  0  0  0  0  0  0  0  0
  142.6534   71.8016  219.7547 H   0  0  0  0  0  0  0  0  0  0  0  0
  144.8044   70.5924  219.3408 H   0  0  0  0  0  0  0  0  0  0  0  0
  146.9540   71.7239  219.8802 H   0  0  0  0  0  0  0  0  0  0  0  0
  146.9781   74.0288  220.8227 H   0  0  0  0  0  0  0  0  0  0  0  0
  144.8340   75.2269  221.2296 H   0  0  0  0  0  0  0  0  0  0  0  0
  1  2  1  0
  2  3  1  0
  3  4  1  0
  4  5  2  0
  4  6  1  0
  6  7  1  0
  7  8  1  0
  8  9  2  0
  8 10  1  0
 10 11  2  0
 11 12  1  0
 12 13  2  0
 13 14  1  0
 14 15  2  0
 15 16  1  0
 16 17  2  0
 17 18  1  0
 18 19  2  0
  2 20  1  0
 20 21  2  0
 21 22  1  0
 22 23  2  0
 23 24  1  0
 24 25  2  0
 19 10  1  0
 25 20  1  0
 18 13  1  0
  1 26  1  0
  1 27  1  0
  1 28  1  0
  2 29  1  1
  3 30  1  0
  6 31  1  0
  6 32  1  0
  7 33  1  0
 11 34  1  0
 14 35  1  0
 15 36  1  0
 16 37  1  0
 17 38  1  0
 21 39  1  0
 22 40  1  0
 23 41  1  0
 24 42  1  0
 25 43  1  0
M  END
>  <smiles>  (25) 
C[C@@H](NC(=O)CNC(=O)c1cnc2ccccc2n1)c1ccccc1

>  <score_type>  (25) 
oracle

>  <origin>  (25) 
autodockgpu

>  <m_score__min__energy>  (25) 
-8.6199999999999992

>  <m_primary>  (25) 
energy

>  <rmsd>  (25) 
6.535193021930337

>  <m_score__min__rmsd>  (25) 
6.535193021930337

>  <meeko>  (25) 
{"free_energy": -7.97, "intermolecular_energy": -9.46, "internal_energy": -1.6, "cluster_size": 6, "cluster_id": 3, "rank_in_cluster": 1}

>  <energy>  (25) 
-7.97

>  <cluster_rmsd>  (25) 
1.24

>  <cluster>  (25) 
2

$$$$

     RDKit          3D

 43 45  0  0  0  0  0  0  0  0999 V2000
  139.3020   68.8330  224.5630 C   0  0  0  0  0  0  0  0  0  0  0  0
  139.8970   70.2340  224.5380 C   0  0  1  0  0  0  0  0  0  0  0  0
  139.0370   71.1510  223.8280 N   0  0  0  0  0  0  0  0  0  0  0  0
  139.5660   72.0900  222.9130 C   0  0  0  0  0  0  0  0  0  0  0  0
  140.8300   72.0920  222.7520 O   0  0  0  0  0  0  0  0  0  0  0  0
  138.7810   73.0640  222.1360 C   0  0  0  0  0  0  0  0  0  0  0  0
  139.3660   74.3580  222.2230 N   0  0  0  0  0  0  0  0  0  0  0  0
  140.1970   74.8930  221.2010 C   0  0  0  0  0  0  0  0  0  0  0  0
  140.4850   74.2510  220.1420 O   0  0  0  0  0  0  0  0  0  0  0  0
  140.7490   76.2450  221.3750 C   0  0  0  0  0  0  0  0  0  0  0  0
  141.6520   76.7540  220.4680 C   0  0  0  0  0  0  0  0  0  0  0  0
  142.1700   77.9960  220.6100 N   0  0  0  0  0  0  0  0  0  0  0  0
  141.7860   78.7520  221.6750 C   0  0  0  0  0  0  0  0  0  0  0  0
  142.2960   80.0350  221.8590 C   0  0  0  0  0  0  0  0  0  0  0  0
  141.9040   80.8130  222.9510 C   0  0  0  0  0  0  0  0  0  0  0  0
  140.9960   80.2730  223.8440 C   0  0  0  0  0  0  0  0  0  0  0  0
  140.4690   79.0110  223.6990 C   0  0  0  0  0  0  0  0  0  0  0  0
  140.8830   78.2650  222.5980 C   0  0  0  0  0  0  0  0  0  0  0  0
  140.3830   77.0240  222.4310 N   0  0  0  0  0  0  0  0  0  0  0  0
  140.2610   70.7030  225.8950 C   0  0  0  0  0  0  0  0  0  0  0  0
  139.8480   70.0680  227.0510 C   0  0  0  0  0  0  0  0  0  0  0  0
  140.2270   70.5610  228.2980 C   0  0  0  0  0  0  0  0  0  0  0  0
  141.0230   71.6960  228.3510 C   0  0  0  0  0  0  0  0  0  0  0  0
  141.4420   72.3420  227.1830 C   0  0  0  0  0  0  0  0  0  0  0  0
  141.0640   71.8480  225.9510 C   0  0  0  0  0  0  0  0  0  0  0  0
  139.1654   68.5112  225.6060 H   0  0  0  0  0  0  0  0  0  0  0  0
  138.3287   68.8388  224.0506 H   0  0  0  0  0  0  0  0  0  0  0  0
  139.9820   68.1366  224.0506 H   0  0  0  0  0  0  0  0  0  0  0  0
  140.8416   70.1939  223.9758 H   0  0  0  0  0  0  0  0  0  0  0  0
  138.0180   71.0980  224.0310 H   0  0  0  0  0  0  0  0  0  0  0  0
  138.7539   72.7490  221.0824 H   0  0  0  0  0  0  0  0  0  0  0  0
  137.7609   73.1064  222.5454 H   0  0  0  0  0  0  0  0  0  0  0  0
  139.1870   74.9680  223.0750 H   0  0  0  0  0  0  0  0  0  0  0  0
  141.9586   76.1377  219.6100 H   0  0  0  0  0  0  0  0  0  0  0  0
  143.0173   80.4411  221.1345 H   0  0  0  0  0  0  0  0  0  0  0  0
  142.3061   81.8265  223.0967 H   0  0  0  0  0  0  0  0  0  0  0  0
  140.6821   80.8788  224.7068 H   0  0  0  0  0  0  0  0  0  0  0  0
  139.7482   78.6063  224.4247 H   0  0  0  0  0  0  0  0  0  0  0  0
  139.2172   69.1692  226.9864 H   0  0  0  0  0  0  0  0  0  0  0  0
  139.9016   70.0603  229.2218 H   0  0  0  0  0  0  0  0  0  0  0  0
  141.3302   72.0951  229.3289 H   0  0  0  0  0  0  0  0  0  0  0  0
  142.0715   73.2419  227.2464 H   0  0  0  0  0  0  0  0  0  0  0  0
  141.3892   72.3470  225.0262 H   0  0  0  0  0  0  0  0  0  0  0  0
  1  2  1  0
  2  3  1  0
  3  4  1  0
  4  5  2  0
  4  6  1  0
  6  7  1  0
  7  8  1  0
  8  9  2  0
  8 10  1  0
 10 11  2  0
 11 12  1  0
 12 13  2  0
 13 14  1  0
 14 15  2  0
 15 16  1  0
 16 17  2  0
 17 18  1  0
 18 19  2  0
  2 20  1  0
 20 21  2  0
 21 22  1  0
 22 23  2  0
 23 24  1  0
 24 25  2  0
 19 10  1  0
 25 20  1  0
 18 13  1  0
  1 26  1  0
  1 27  1  0
  1 28  1  0
  2 29  1  6
  3 30  1  0
  6 31  1  0
  6 32  1  0
  7 33  1  0
 11 34  1  0
 14 35  1  0
 15 36  1  0
 16 37  1  0
 17 38  1  0
 21 39  1  0
 22 40  1  0
 23 41  1  0
 24 42  1  0
 25 43  1  0
M  END
>  <smiles>  (26) 
C[C@@H](NC(=O)CNC(=O)c1cnc2ccccc2n1)c1ccccc1

>  <score_type>  (26) 
oracle

>  <origin>  (26) 
autodockgpu

>  <m_score__min__energy>  (26) 
-8.6199999999999992

>  <m_primary>  (26) 
energy

>  <rmsd>  (26) 
10.050016582346343

>  <m_score__min__rmsd>  (26) 
10.050016582346343

>  <meeko>  (26) 
{"free_energy": -8.18, "intermolecular_energy": -9.67, "internal_energy": -1.22, "cluster_size": 17, "cluster_id": 1, "rank_in_cluster": 8}

>  <energy>  (26) 
-7.92

>  <cluster_rmsd>  (26) 
1.11

>  <cluster>  (26) 
2

$$$$

     RDKit          3D

 43 45  0  0  0  0  0  0  0  0999 V2000
  139.0090   68.1000  225.4530 C   0  0  0  0  0  0  0  0  0  0  0  0
  139.5100   69.4460  224.9500 C   0  0  1  0  0  0  0  0  0  0  0  0
  138.4720   70.1540  224.2410 N   0  0  0  0  0  0  0  0  0  0  0  0
  138.7780   71.0060  223.1550 C   0  0  0  0  0  0  0  0  0  0  0  0
  140.0070   71.1210  222.8390 O   0  0  0  0  0  0  0  0  0  0  0  0
  137.8000   71.7690  222.3630 C   0  0  0  0  0  0  0  0  0  0  0  0
  136.9400   72.5150  223.2160 N   0  0  0  0  0  0  0  0  0  0  0  0
  135.8960   71.9120  223.9690 C   0  0  0  0  0  0  0  0  0  0  0  0
  135.6480   70.6650  223.9260 O   0  0  0  0  0  0  0  0  0  0  0  0
  135.0640   72.7640  224.8320 C   0  0  0  0  0  0  0  0  0  0  0  0
  134.2790   72.2070  225.8170 C   0  0  0  0  0  0  0  0  0  0  0  0
  133.5070   72.9750  226.6220 N   0  0  0  0  0  0  0  0  0  0  0  0
  133.5130   74.3240  226.4480 C   0  0  0  0  0  0  0  0  0  0  0  0
  132.7330   75.1500  227.2540 C   0  0  0  0  0  0  0  0  0  0  0  0
  132.7370   76.5360  227.0770 C   0  0  0  0  0  0  0  0  0  0  0  0
  133.5360   77.0640  226.0790 C   0  0  0  0  0  0  0  0  0  0  0  0
  134.3200   76.2840  225.2620 C   0  0  0  0  0  0  0  0  0  0  0  0
  134.2910   74.9080  225.4680 C   0  0  0  0  0  0  0  0  0  0  0  0
  135.0500   74.1180  224.6800 N   0  0  0  0  0  0  0  0  0  0  0  0
  140.1290   70.2430  226.0340 C   0  0  0  0  0  0  0  0  0  0  0  0
  140.5980   71.5310  225.8540 C   0  0  0  0  0  0  0  0  0  0  0  0
  141.1710   72.2270  226.9170 C   0  0  0  0  0  0  0  0  0  0  0  0
  141.2580   71.6010  228.1520 C   0  0  0  0  0  0  0  0  0  0  0  0
  140.7850   70.2980  228.3380 C   0  0  0  0  0  0  0  0  0  0  0  0
  140.2190   69.6140  227.2820 C   0  0  0  0  0  0  0  0  0  0  0  0
  139.0079   68.0970  226.5530 H   0  0  0  0  0  0  0  0  0  0  0  0
  137.9868   67.9283  225.0848 H   0  0  0  0  0  0  0  0  0  0  0  0
  139.6702   67.3017  225.0848 H   0  0  0  0  0  0  0  0  0  0  0  0
  140.3140   69.2620  224.2221 H   0  0  0  0  0  0  0  0  0  0  0  0
  137.4950   70.0210  224.5740 H   0  0  0  0  0  0  0  0  0  0  0  0
  138.3354   72.4599  221.6952 H   0  0  0  0  0  0  0  0  0  0  0  0
  137.1933   71.0654  221.7741 H   0  0  0  0  0  0  0  0  0  0  0  0
  137.0660   73.5670  223.3130 H   0  0  0  0  0  0  0  0  0  0  0  0
  134.2791   71.1154  225.9527 H   0  0  0  0  0  0  0  0  0  0  0  0
  132.1055   74.7052  228.0404 H   0  0  0  0  0  0  0  0  0  0  0  0
  132.1219   77.1890  227.7136 H   0  0  0  0  0  0  0  0  0  0  0  0
  133.5446   78.1542  225.9327 H   0  0  0  0  0  0  0  0  0  0  0  0
  134.9462   76.7306  224.4756 H   0  0  0  0  0  0  0  0  0  0  0  0
  140.5185   72.0091  224.8665 H   0  0  0  0  0  0  0  0  0  0  0  0
  141.5466   73.2517  226.7795 H   0  0  0  0  0  0  0  0  0  0  0  0
  141.7069   72.1390  229.0000 H   0  0  0  0  0  0  0  0  0  0  0  0
  140.8642   69.8191  229.3251 H   0  0  0  0  0  0  0  0  0  0  0  0
  139.8437   68.5890  227.4184 H   0  0  0  0  0  0  0  0  0  0  0  0
  1  2  1  0
  2  3  1  0
  3  4  1  0
  4  5  2  0
  4  6  1  0
  6  7  1  0
  7  8  1  0
  8  9  2  0
  8 10  1  0
 10 11  2  0
 11 12  1  0
 12 13  2  0
 13 14  1  0
 14 15  2  0
 15 16  1  0
 16 17  2  0
 17 18  1  0
 18 19  2  0
  2 20  1  0
 20 21  2  0
 21 22  1  0
 22 23  2  0
 23 24  1  0
 24 25  2  0
 19 10  1  0
 25 20  1  0
 18 13  1  0
  1 26  1  0
  1 27  1  0
  1 28  1  0
  2 29  1  6
  3 30  1  0
  6 31  1  0
  6 32  1  0
  7 33  1  0
 11 34  1  0
 14 35  1  0
 15 36  1  0
 16 37  1  0
 17 38  1  0
 21 39  1  0
 22 40  1  0
 23 41  1  0
 24 42  1  0
 25 43  1  0
M  END
>  <smiles>  (27) 
C[C@@H](NC(=O)CNC(=O)c1cnc2ccccc2n1)c1ccccc1

>  <score_type>  (27) 
oracle

>  <origin>  (27) 
autodockgpu

>  <m_score__min__energy>  (27) 
-8.6199999999999992

>  <m_primary>  (27) 
energy

>  <rmsd>  (27) 
10.26801259889191

>  <m_score__min__rmsd>  (27) 
10.26801259889191

>  <meeko>  (27) 
{"free_energy": -7.27, "intermolecular_energy": -8.76, "internal_energy": -1.96, "cluster_size": 9, "cluster_id": 4, "rank_in_cluster": 9}

>  <energy>  (27) 
-7.88

>  <cluster_rmsd>  (27) 
1.39

>  <cluster>  (27) 
2

$$$$

     RDKit          3D

 43 45  0  0  0  0  0  0  0  0999 V2000
  139.5530   69.1530  224.1580 C   0  0  0  0  0  0  0  0  0  0  0  0
  139.9810   70.6070  224.2960 C   0  0  1  0  0  0  0  0  0  0  0  0
  139.0080   71.4940  223.7060 N   0  0  0  0  0  0  0  0  0  0  0  0
  139.3070   72.2370  222.5400 C   0  0  0  0  0  0  0  0  0  0  0  0
  140.4720   72.0900  222.0440 O   0  0  0  0  0  0  0  0  0  0  0  0
  138.3900   73.1630  221.8560 C   0  0  0  0  0  0  0  0  0  0  0  0
  138.6260   74.5010  222.2780 N   0  0  0  0  0  0  0  0  0  0  0  0
  139.7560   75.2500  221.8490 C   0  0  0  0  0  0  0  0  0  0  0  0
  140.6400   74.7760  221.0690 O   0  0  0  0  0  0  0  0  0  0  0  0
  139.9120   76.6310  222.3310 C   0  0  0  0  0  0  0  0  0  0  0  0
  138.8120   77.3670  222.7120 C   0  0  0  0  0  0  0  0  0  0  0  0
  138.9360   78.6390  223.1590 N   0  0  0  0  0  0  0  0  0  0  0  0
  140.1760   79.1950  223.2290 C   0  0  0  0  0  0  0  0  0  0  0  0
  140.3470   80.5010  223.6810 C   0  0  0  0  0  0  0  0  0  0  0  0
  141.6190   81.0740  223.7550 C   0  0  0  0  0  0  0  0  0  0  0  0
  142.7030   80.3090  223.3640 C   0  0  0  0  0  0  0  0  0  0  0  0
  142.5770   79.0160  222.9110 C   0  0  0  0  0  0  0  0  0  0  0  0
  141.2940   78.4790  222.8520 C   0  0  0  0  0  0  0  0  0  0  0  0
  141.1410   77.2130  222.4120 N   0  0  0  0  0  0  0  0  0  0  0  0
  140.3160   70.9520  225.6970 C   0  0  0  0  0  0  0  0  0  0  0  0
  141.1570   71.9950  226.0400 C   0  0  0  0  0  0  0  0  0  0  0  0
  141.4300   72.2660  227.3790 C   0  0  0  0  0  0  0  0  0  0  0  0
  140.8420   71.4720  228.3530 C   0  0  0  0  0  0  0  0  0  0  0  0
  139.9920   70.4160  228.0100 C   0  0  0  0  0  0  0  0  0  0  0  0
  139.7240   70.1520  226.6820 C   0  0  0  0  0  0  0  0  0  0  0  0
  139.4233   68.7125  225.1576 H   0  0  0  0  0  0  0  0  0  0  0  0
  138.6016   69.1014  223.6083 H   0  0  0  0  0  0  0  0  0  0  0  0
  140.3247   68.5942  223.6083 H   0  0  0  0  0  0  0  0  0  0  0  0
  140.9120   70.7444  223.7265 H   0  0  0  0  0  0  0  0  0  0  0  0
  138.0870   71.5720  224.1830 H   0  0  0  0  0  0  0  0  0  0  0  0
  138.5485   73.0928  220.7697 H   0  0  0  0  0  0  0  0  0  0  0  0
  137.3548   72.8884  222.1069 H   0  0  0  0  0  0  0  0  0  0  0  0
  137.9440   74.9810  222.9370 H   0  0  0  0  0  0  0  0  0  0  0  0
  137.8123   76.9121  222.6519 H   0  0  0  0  0  0  0  0  0  0  0  0
  139.4685   81.0896  223.9839 H   0  0  0  0  0  0  0  0  0  0  0  0
  141.7547   82.1048  224.1142 H   0  0  0  0  0  0  0  0  0  0  0  0
  143.7080   80.7530  223.4175 H   0  0  0  0  0  0  0  0  0  0  0  0
  143.4563   78.4291  222.6071 H   0  0  0  0  0  0  0  0  0  0  0  0
  141.6123   72.6132  225.2522 H   0  0  0  0  0  0  0  0  0  0  0  0
  142.0987   73.0934  227.6586 H   0  0  0  0  0  0  0  0  0  0  0  0
  141.0481   71.6768  229.4139 H   0  0  0  0  0  0  0  0  0  0  0  0
  139.5376   69.7966  228.7973 H   0  0  0  0  0  0  0  0  0  0  0  0
  139.0550   69.3251  226.4015 H   0  0  0  0  0  0  0  0  0  0  0  0
  1  2  1  0
  2  3  1  0
  3  4  1  0
  4  5  2  0
  4  6  1  0
  6  7  1  0
  7  8  1  0
  8  9  2  0
  8 10  1  0
 10 11  2  0
 11 12  1  0
 12 13  2  0
 13 14  1  0
 14 15  2  0
 15 16  1  0
 16 17  2  0
 17 18  1  0
 18 19  2  0
  2 20  1  0
 20 21  2  0
 21 22  1  0
 22 23  2  0
 23 24  1  0
 24 25  2  0
 19 10  1  0
 25 20  1  0
 18 13  1  0
  1 26  1  0
  1 27  1  0
  1 28  1  0
  2 29  1  6
  3 30  1  0
  6 31  1  0
  6 32  1  0
  7 33  1  0
 11 34  1  0
 14 35  1  0
 15 36  1  0
 16 37  1  0
 17 38  1  0
 21 39  1  0
 22 40  1  0
 23 41  1  0
 24 42  1  0
 25 43  1  0
M  END
>  <smiles>  (28) 
C[C@@H](NC(=O)CNC(=O)c1cnc2ccccc2n1)c1ccccc1

>  <score_type>  (28) 
oracle

>  <origin>  (28) 
autodockgpu

>  <m_score__min__energy>  (28) 
-8.6199999999999992

>  <m_primary>  (28) 
energy

>  <rmsd>  (28) 
10.160946876199533

>  <m_score__min__rmsd>  (28) 
10.160946876199533

>  <meeko>  (28) 
{"free_energy": -8.35, "intermolecular_energy": -9.84, "internal_energy": -0.82, "cluster_size": 17, "cluster_id": 1, "rank_in_cluster": 2}

>  <energy>  (28) 
-7.76

>  <cluster_rmsd>  (28) 
1.6

>  <cluster>  (28) 
2

$$$$

     RDKit          3D

 43 45  0  0  0  0  0  0  0  0999 V2000
  139.5420   78.9760  219.7070 C   0  0  0  0  0  0  0  0  0  0  0  0
  139.6660   78.0850  220.9350 C   0  0  1  0  0  0  0  0  0  0  0  0
  140.0440   76.7420  220.5660 N   0  0  0  0  0  0  0  0  0  0  0  0
  139.7940   75.6490  221.4270 C   0  0  0  0  0  0  0  0  0  0  0  0
  139.2270   75.9070  222.5390 O   0  0  0  0  0  0  0  0  0  0  0  0
  140.1330   74.2440  221.1480 C   0  0  0  0  0  0  0  0  0  0  0  0
  139.9840   73.4530  222.3210 N   0  0  0  0  0  0  0  0  0  0  0  0
  140.3930   72.0920  222.3840 C   0  0  0  0  0  0  0  0  0  0  0  0
  140.9120   71.4840  221.3960 O   0  0  0  0  0  0  0  0  0  0  0  0
  140.2070   71.3560  223.6440 C   0  0  0  0  0  0  0  0  0  0  0  0
  139.5910   70.1240  223.6500 C   0  0  0  0  0  0  0  0  0  0  0  0
  139.4120   69.4320  224.7990 N   0  0  0  0  0  0  0  0  0  0  0  0
  139.8530   69.9710  225.9680 C   0  0  0  0  0  0  0  0  0  0  0  0
  139.6870   69.2910  227.1730 C   0  0  0  0  0  0  0  0  0  0  0  0
  140.1390   69.8410  228.3750 C   0  0  0  0  0  0  0  0  0  0  0  0
  140.7530   71.0800  228.3350 C   0  0  0  0  0  0  0  0  0  0  0  0
  140.9360   71.7840  227.1680 C   0  0  0  0  0  0  0  0  0  0  0  0
  140.4730   71.2030  225.9900 C   0  0  0  0  0  0  0  0  0  0  0  0
  140.6390   71.8710  224.8290 N   0  0  0  0  0  0  0  0  0  0  0  0
  140.5500   78.6820  221.9620 C   0  0  0  0  0  0  0  0  0  0  0  0
  140.1910   78.8040  223.2920 C   0  0  0  0  0  0  0  0  0  0  0  0
  141.0710   79.3770  224.2080 C   0  0  0  0  0  0  0  0  0  0  0  0
  142.3070   79.8180  223.7580 C   0  0  0  0  0  0  0  0  0  0  0  0
  142.6730   79.6970  222.4140 C   0  0  0  0  0  0  0  0  0  0  0  0
  141.7970   79.1290  221.5110 C   0  0  0  0  0  0  0  0  0  0  0  0
  139.3968   80.0193  220.0241 H   0  0  0  0  0  0  0  0  0  0  0  0
  140.4594   78.9001  219.1048 H   0  0  0  0  0  0  0  0  0  0  0  0
  138.6802   78.6525  219.1048 H   0  0  0  0  0  0  0  0  0  0  0  0
  138.6744   78.0112  221.4054 H   0  0  0  0  0  0  0  0  0  0  0  0
  140.5200   76.6190  219.6490 H   0  0  0  0  0  0  0  0  0  0  0  0
  139.4639   73.8590  220.3644 H   0  0  0  0  0  0  0  0  0  0  0  0
  141.1795   74.1903  220.8133 H   0  0  0  0  0  0  0  0  0  0  0  0
  139.5530   73.8730  223.1980 H   0  0  0  0  0  0  0  0  0  0  0  0
  139.2373   69.6939  222.7014 H   0  0  0  0  0  0  0  0  0  0  0  0
  139.1934   68.3080  227.1778 H   0  0  0  0  0  0  0  0  0  0  0  0
  140.0103   69.3040  229.3264 H   0  0  0  0  0  0  0  0  0  0  0  0
  141.1102   71.5210  229.2773 H   0  0  0  0  0  0  0  0  0  0  0  0
  141.4288   72.7675  227.1650 H   0  0  0  0  0  0  0  0  0  0  0  0
  139.2063   78.4471  223.6283 H   0  0  0  0  0  0  0  0  0  0  0  0
  140.7912   79.4777  225.2670 H   0  0  0  0  0  0  0  0  0  0  0  0
  143.0115   80.2709  224.4712 H   0  0  0  0  0  0  0  0  0  0  0  0
  143.6574   80.0538  222.0768 H   0  0  0  0  0  0  0  0  0  0  0  0
  142.0753   79.0291  220.4515 H   0  0  0  0  0  0  0  0  0  0  0  0
  1  2  1  0
  2  3  1  0
  3  4  1  0
  4  5  2  0
  4  6  1  0
  6  7  1  0
  7  8  1  0
  8  9  2  0
  8 10  1  0
 10 11  2  0
 11 12  1  0
 12 13  2  0
 13 14  1  0
 14 15  2  0
 15 16  1  0
 16 17  2  0
 17 18  1  0
 18 19  2  0
  2 20  1  0
 20 21  2  0
 21 22  1  0
 22 23  2  0
 23 24  1  0
 24 25  2  0
 19 10  1  0
 25 20  1  0
 18 13  1  0
  1 26  1  0
  1 27  1  0
  1 28  1  0
  2 29  1  1
  3 30  1  0
  6 31  1  0
  6 32  1  0
  7 33  1  0
 11 34  1  0
 14 35  1  0
 15 36  1  0
 16 37  1  0
 17 38  1  0
 21 39  1  0
 22 40  1  0
 23 41  1  0
 24 42  1  0
 25 43  1  0
M  END
>  <smiles>  (29) 
C[C@@H](NC(=O)CNC(=O)c1cnc2ccccc2n1)c1ccccc1

>  <score_type>  (29) 
oracle

>  <origin>  (29) 
autodockgpu

>  <m_score__min__energy>  (29) 
-8.6199999999999992

>  <m_primary>  (29) 
energy

>  <rmsd>  (29) 
3.805318515157277

>  <m_score__min__rmsd>  (29) 
3.805318515157277

>  <meeko>  (29) 
{"free_energy": -7.72, "intermolecular_energy": -9.21, "internal_energy": -1.57, "cluster_size": 14, "cluster_id": 2, "rank_in_cluster": 14}

>  <energy>  (29) 
-7.75

>  <cluster_rmsd>  (29) 
1.58

>  <cluster>  (29) 
2

$$$$

     RDKit          3D

 43 45  0  0  0  0  0  0  0  0999 V2000
  137.7160   71.6160  223.4590 C   0  0  0  0  0  0  0  0  0  0  0  0
  139.2100   71.3250  223.4800 C   0  0  1  0  0  0  0  0  0  0  0  0
  139.9530   72.3670  222.8150 N   0  0  0  0  0  0  0  0  0  0  0  0
  140.8450   72.0710  221.7590 C   0  0  0  0  0  0  0  0  0  0  0  0
  140.9640   70.8450  221.4310 O   0  0  0  0  0  0  0  0  0  0  0  0
  141.6450   73.0550  221.0120 C   0  0  0  0  0  0  0  0  0  0  0  0
  141.4080   74.3680  221.5060 N   0  0  0  0  0  0  0  0  0  0  0  0
  140.1010   74.9150  221.6310 C   0  0  0  0  0  0  0  0  0  0  0  0
  139.0530   74.2740  221.3030 O   0  0  0  0  0  0  0  0  0  0  0  0
  139.9540   76.2790  222.1600 C   0  0  0  0  0  0  0  0  0  0  0  0
  138.7080   76.7770  222.4720 C   0  0  0  0  0  0  0  0  0  0  0  0
  138.5520   78.0300  222.9610 N   0  0  0  0  0  0  0  0  0  0  0  0
  139.6550   78.8070  223.1450 C   0  0  0  0  0  0  0  0  0  0  0  0
  139.5380   80.1020  223.6450 C   0  0  0  0  0  0  0  0  0  0  0  0
  140.6680   80.9020  223.8350 C   0  0  0  0  0  0  0  0  0  0  0  0
  141.9040   80.3720  223.5120 C   0  0  0  0  0  0  0  0  0  0  0  0
  142.0630   79.0990  223.0160 C   0  0  0  0  0  0  0  0  0  0  0  0
  140.9140   78.3310  222.8400 C   0  0  0  0  0  0  0  0  0  0  0  0
  141.0390   77.0790  222.3550 N   0  0  0  0  0  0  0  0  0  0  0  0
  139.6960   71.0400  224.8500 C   0  0  0  0  0  0  0  0  0  0  0  0
  139.2040   70.0110  225.6300 C   0  0  0  0  0  0  0  0  0  0  0  0
  139.7050   69.7970  226.9130 C   0  0  0  0  0  0  0  0  0  0  0  0
  140.7040   70.6370  227.3850 C   0  0  0  0  0  0  0  0  0  0  0  0
  141.2040   71.6800  226.5990 C   0  0  0  0  0  0  0  0  0  0  0  0
  140.7030   71.8860  225.3290 C   0  0  0  0  0  0  0  0  0  0  0  0
  137.3421   71.6888  224.4909 H   0  0  0  0  0  0  0  0  0  0  0  0
  137.5349   72.5663  222.9354 H   0  0  0  0  0  0  0  0  0  0  0  0
  137.1914   70.8031  222.9354 H   0  0  0  0  0  0  0  0  0  0  0  0
  139.3865   70.4038  222.9053 H   0  0  0  0  0  0  0  0  0  0  0  0
  139.8130   73.3400  223.1570 H   0  0  0  0  0  0  0  0  0  0  0  0
  142.7123   72.8134  221.1236 H   0  0  0  0  0  0  0  0  0  0  0  0
  141.3564   73.0165  219.9512 H   0  0  0  0  0  0  0  0  0  0  0  0
  142.2240   74.9840  221.7990 H   0  0  0  0  0  0  0  0  0  0  0  0
  137.8215   76.1436  222.3207 H   0  0  0  0  0  0  0  0  0  0  0  0
  138.5431   80.5001  223.8935 H   0  0  0  0  0  0  0  0  0  0  0  0
  140.5770   81.9245  224.2303 H   0  0  0  0  0  0  0  0  0  0  0  0
  142.7984   80.9954  223.6581 H   0  0  0  0  0  0  0  0  0  0  0  0
  143.0587   78.7027  222.7679 H   0  0  0  0  0  0  0  0  0  0  0  0
  138.4122   69.3568  225.2361 H   0  0  0  0  0  0  0  0  0  0  0  0
  139.3168   68.9795  227.5383 H   0  0  0  0  0  0  0  0  0  0  0  0
  141.1096   70.4795  228.3953 H   0  0  0  0  0  0  0  0  0  0  0  0
  141.9953   72.3353  226.9920 H   0  0  0  0  0  0  0  0  0  0  0  0
  141.0897   72.7033  224.7025 H   0  0  0  0  0  0  0  0  0  0  0  0
  1  2  1  0
  2  3  1  0
  3  4  1  0
  4  5  2  0
  4  6  1  0
  6  7  1  0
  7  8  1  0
  8  9  2  0
  8 10  1  0
 10 11  2  0
 11 12  1  0
 12 13  2  0
 13 14  1  0
 14 15  2  0
 15 16  1  0
 16 17  2  0
 17 18  1  0
 18 19  2  0
  2 20  1  0
 20 21  2  0
 21 22  1  0
 22 23  2  0
 23 24  1  0
 24 25  2  0
 19 10  1  0
 25 20  1  0
 18 13  1  0
  1 26  1  0
  1 27  1  0
  1 28  1  0
  2 29  1  6
  3 30  1  0
  6 31  1  0
  6 32  1  0
  7 33  1  0
 11 34  1  0
 14 35  1  0
 15 36  1  0
 16 37  1  0
 17 38  1  0
 21 39  1  0
 22 40  1  0
 23 41  1  0
 24 42  1  0
 25 43  1  0
M  END
>  <smiles>  (30) 
C[C@@H](NC(=O)CNC(=O)c1cnc2ccccc2n1)c1ccccc1

>  <score_type>  (30) 
oracle

>  <origin>  (30) 
autodockgpu

>  <m_score__min__energy>  (30) 
-8.6199999999999992

>  <m_primary>  (30) 
energy

>  <rmsd>  (30) 
9.588744618932429

>  <m_score__min__rmsd>  (30) 
9.588744618932429

>  <meeko>  (30) 
{"free_energy": -7.46, "intermolecular_energy": -8.95, "internal_energy": -1.74, "cluster_size": 17, "cluster_id": 1, "rank_in_cluster": 13}

>  <energy>  (30) 
-7.74

>  <cluster_rmsd>  (30) 
1.59

>  <cluster>  (30) 
2

$$$$

     RDKit          3D

 43 45  0  0  0  0  0  0  0  0999 V2000
  139.2300   69.1220  224.2690 C   0  0  0  0  0  0  0  0  0  0  0  0
  139.8730   70.4990  224.3510 C   0  0  1  0  0  0  0  0  0  0  0  0
  139.0260   71.5050  223.7560 N   0  0  0  0  0  0  0  0  0  0  0  0
  139.4680   72.2750  222.6550 C   0  0  0  0  0  0  0  0  0  0  0  0
  140.6440   72.0440  222.2240 O   0  0  0  0  0  0  0  0  0  0  0  0
  138.6860   73.3190  221.9720 C   0  0  0  0  0  0  0  0  0  0  0  0
  139.3280   74.5830  222.0950 N   0  0  0  0  0  0  0  0  0  0  0  0
  140.0860   75.1630  221.0410 C   0  0  0  0  0  0  0  0  0  0  0  0
  140.2530   74.5900  219.9180 O   0  0  0  0  0  0  0  0  0  0  0  0
  140.7050   76.4790  221.2570 C   0  0  0  0  0  0  0  0  0  0  0  0
  141.1520   77.2260  220.1900 C   0  0  0  0  0  0  0  0  0  0  0  0
  141.7240   78.4400  220.3690 N   0  0  0  0  0  0  0  0  0  0  0  0
  141.8560   78.9250  221.6340 C   0  0  0  0  0  0  0  0  0  0  0  0
  142.4400   80.1690  221.8610 C   0  0  0  0  0  0  0  0  0  0  0  0
  142.5770   80.6700  223.1580 C   0  0  0  0  0  0  0  0  0  0  0  0
  142.1190   79.8960  224.2090 C   0  0  0  0  0  0  0  0  0  0  0  0
  141.5370   78.6630  224.0270 C   0  0  0  0  0  0  0  0  0  0  0  0
  141.4170   78.1970  222.7200 C   0  0  0  0  0  0  0  0  0  0  0  0
  140.8510   76.9900  222.5120 N   0  0  0  0  0  0  0  0  0  0  0  0
  140.2920   70.8290  225.7330 C   0  0  0  0  0  0  0  0  0  0  0  0
  141.0880   71.9170  226.0430 C   0  0  0  0  0  0  0  0  0  0  0  0
  141.4470   72.1710  227.3660 C   0  0  0  0  0  0  0  0  0  0  0  0
  140.9900   71.3130  228.3560 C   0  0  0  0  0  0  0  0  0  0  0  0
  140.1860   70.2120  228.0460 C   0  0  0  0  0  0  0  0  0  0  0  0
  139.8330   69.9650  226.7340 C   0  0  0  0  0  0  0  0  0  0  0  0
  139.0514   68.7396  225.2848 H   0  0  0  0  0  0  0  0  0  0  0  0
  138.2731   69.1956  223.7314 H   0  0  0  0  0  0  0  0  0  0  0  0
  139.9007   68.4356  223.7314 H   0  0  0  0  0  0  0  0  0  0  0  0
  140.7982   70.4799  223.7564 H   0  0  0  0  0  0  0  0  0  0  0  0
  138.0870   71.6450  224.1800 H   0  0  0  0  0  0  0  0  0  0  0  0
  138.5927   73.0625  220.9064 H   0  0  0  0  0  0  0  0  0  0  0  0
  137.6905   73.3788  222.4362 H   0  0  0  0  0  0  0  0  0  0  0  0
  139.2500   75.1350  223.0010 H   0  0  0  0  0  0  0  0  0  0  0  0
  141.0420   76.8279  219.1705 H   0  0  0  0  0  0  0  0  0  0  0  0
  142.7979   80.7646  221.0082 H   0  0  0  0  0  0  0  0  0  0  0  0
  143.0365   81.6530  223.3385 H   0  0  0  0  0  0  0  0  0  0  0  0
  142.2246   80.2828  225.2333 H   0  0  0  0  0  0  0  0  0  0  0  0
  141.1802   78.0681  224.8807 H   0  0  0  0  0  0  0  0  0  0  0  0
  141.4392   72.5846  225.2424 H   0  0  0  0  0  0  0  0  0  0  0  0
  142.0798   73.0342  227.6198 H   0  0  0  0  0  0  0  0  0  0  0  0
  141.2653   71.5025  229.4040 H   0  0  0  0  0  0  0  0  0  0  0  0
  139.8352   69.5435  228.8460 H   0  0  0  0  0  0  0  0  0  0  0  0
  139.2004   69.1019  226.4793 H   0  0  0  0  0  0  0  0  0  0  0  0
  1  2  1  0
  2  3  1  0
  3  4  1  0
  4  5  2  0
  4  6  1  0
  6  7  1  0
  7  8  1  0
  8  9  2  0
  8 10  1  0
 10 11  2  0
 11 12  1  0
 12 13  2  0
 13 14  1  0
 14 15  2  0
 15 16  1  0
 16 17  2  0
 17 18  1  0
 18 19  2  0
  2 20  1  0
 20 21  2  0
 21 22  1  0
 22 23  2  0
 23 24  1  0
 24 25  2  0
 19 10  1  0
 25 20  1  0
 18 13  1  0
  1 26  1  0
  1 27  1  0
  1 28  1  0
  2 29  1  6
  3 30  1  0
  6 31  1  0
  6 32  1  0
  7 33  1  0
 11 34  1  0
 14 35  1  0
 15 36  1  0
 16 37  1  0
 17 38  1  0
 21 39  1  0
 22 40  1  0
 23 41  1  0
 24 42  1  0
 25 43  1  0
M  END
>  <smiles>  (31) 
C[C@@H](NC(=O)CNC(=O)c1cnc2ccccc2n1)c1ccccc1

>  <score_type>  (31) 
oracle

>  <origin>  (31) 
autodockgpu

>  <m_score__min__energy>  (31) 
-8.6199999999999992

>  <m_primary>  (31) 
energy

>  <rmsd>  (31) 
10.191651679604146

>  <m_score__min__rmsd>  (31) 
10.191651679604146

>  <meeko>  (31) 
{"free_energy": -8.32, "intermolecular_energy": -9.82, "internal_energy": -1.14, "cluster_size": 17, "cluster_id": 1, "rank_in_cluster": 4}

>  <energy>  (31) 
-7.72

>  <cluster_rmsd>  (31) 
1.27

>  <cluster>  (31) 
2

$$$$

     RDKit          3D

 43 45  0  0  0  0  0  0  0  0999 V2000
  141.8720   75.7740  220.4630 C   0  0  0  0  0  0  0  0  0  0  0  0
  140.4580   76.3340  220.4910 C   0  0  1  0  0  0  0  0  0  0  0  0
  139.4790   75.2750  220.5140 N   0  0  0  0  0  0  0  0  0  0  0  0
  139.5360   74.2460  221.4820 C   0  0  0  0  0  0  0  0  0  0  0  0
  140.4920   74.2980  222.3240 O   0  0  0  0  0  0  0  0  0  0  0  0
  138.5900   73.1250  221.5980 C   0  0  0  0  0  0  0  0  0  0  0  0
  138.9150   72.3110  222.7190 N   0  0  0  0  0  0  0  0  0  0  0  0
  138.4940   70.9580  222.8310 C   0  0  0  0  0  0  0  0  0  0  0  0
  137.7900   70.3810  221.9430 O   0  0  0  0  0  0  0  0  0  0  0  0
  138.8860   70.1920  224.0240 C   0  0  0  0  0  0  0  0  0  0  0  0
  138.5270   68.8690  224.1550 C   0  0  0  0  0  0  0  0  0  0  0  0
  138.8800   68.1470  225.2450 N   0  0  0  0  0  0  0  0  0  0  0  0
  139.6030   68.7500  226.2270 C   0  0  0  0  0  0  0  0  0  0  0  0
  139.9850   68.0440  227.3660 C   0  0  0  0  0  0  0  0  0  0  0  0
  140.7280   68.6600  228.3760 C   0  0  0  0  0  0  0  0  0  0  0  0
  141.0720   69.9900  228.2150 C   0  0  0  0  0  0  0  0  0  0  0  0
  140.7140   70.7230  227.1070 C   0  0  0  0  0  0  0  0  0  0  0  0
  139.9750   70.0750  226.1210 C   0  0  0  0  0  0  0  0  0  0  0  0
  139.6100   70.7690  225.0230 N   0  0  0  0  0  0  0  0  0  0  0  0
  140.2780   77.3220  221.5790 C   0  0  0  0  0  0  0  0  0  0  0  0
  139.0410   77.6790  222.0820 C   0  0  0  0  0  0  0  0  0  0  0  0
  138.9420   78.6170  223.1080 C   0  0  0  0  0  0  0  0  0  0  0  0
  140.1070   79.1790  223.6110 C   0  0  0  0  0  0  0  0  0  0  0  0
  141.3600   78.8210  223.1040 C   0  0  0  0  0  0  0  0  0  0  0  0
  141.4520   77.8920  222.0880 C   0  0  0  0  0  0  0  0  0  0  0  0
  142.2306   75.6320  221.4932 H   0  0  0  0  0  0  0  0  0  0  0  0
  141.8733   74.8075  219.9378 H   0  0  0  0  0  0  0  0  0  0  0  0
  142.5347   76.4776  219.9378 H   0  0  0  0  0  0  0  0  0  0  0  0
  140.2929   76.8895  219.5560 H   0  0  0  0  0  0  0  0  0  0  0  0
  138.7420   75.2950  219.7790 H   0  0  0  0  0  0  0  0  0  0  0  0
  137.5718   73.5223  221.7225 H   0  0  0  0  0  0  0  0  0  0  0  0
  138.6503   72.5135  220.6856 H   0  0  0  0  0  0  0  0  0  0  0  0
  139.4950   72.7090  223.5170 H   0  0  0  0  0  0  0  0  0  0  0  0
  137.9412   68.3886  223.3575 H   0  0  0  0  0  0  0  0  0  0  0  0
  139.6977   66.9874  227.4713 H   0  0  0  0  0  0  0  0  0  0  0  0
  141.0311   68.1027  229.2746 H   0  0  0  0  0  0  0  0  0  0  0  0
  141.6565   70.4825  229.0061 H   0  0  0  0  0  0  0  0  0  0  0  0
  141.0006   71.7800  227.0042 H   0  0  0  0  0  0  0  0  0  0  0  0
  138.1299   77.2203  221.6703 H   0  0  0  0  0  0  0  0  0  0  0  0
  137.9602   78.9061  223.5110 H   0  0  0  0  0  0  0  0  0  0  0  0
  140.0436   79.9189  224.4225 H   0  0  0  0  0  0  0  0  0  0  0  0
  142.2716   79.2796  223.5148 H   0  0  0  0  0  0  0  0  0  0  0  0
  142.4333   77.6031  221.6835 H   0  0  0  0  0  0  0  0  0  0  0  0
  1  2  1  0
  2  3  1  0
  3  4  1  0
  4  5  2  0
  4  6  1  0
  6  7  1  0
  7  8  1  0
  8  9  2  0
  8 10  1  0
 10 11  2  0
 11 12  1  0
 12 13  2  0
 13 14  1  0
 14 15  2  0
 15 16  1  0
 16 17  2  0
 17 18  1  0
 18 19  2  0
  2 20  1  0
 20 21  2  0
 21 22  1  0
 22 23  2  0
 23 24  1  0
 24 25  2  0
 19 10  1  0
 25 20  1  0
 18 13  1  0
  1 26  1  0
  1 27  1  0
  1 28  1  0
  2 29  1  6
  3 30  1  0
  6 31  1  0
  6 32  1  0
  7 33  1  0
 11 34  1  0
 14 35  1  0
 15 36  1  0
 16 37  1  0
 17 38  1  0
 21 39  1  0
 22 40  1  0
 23 41  1  0
 24 42  1  0
 25 43  1  0
M  END
>  <smiles>  (32) 
C[C@@H](NC(=O)CNC(=O)c1cnc2ccccc2n1)c1ccccc1

>  <score_type>  (32) 
oracle

>  <origin>  (32) 
autodockgpu

>  <m_score__min__energy>  (32) 
-8.6199999999999992

>  <m_primary>  (32) 
energy

>  <rmsd>  (32) 
4.326979489594487

>  <m_score__min__rmsd>  (32) 
4.326979489594487

>  <meeko>  (32) 
{"free_energy": -7.76, "intermolecular_energy": -9.25, "internal_energy": -1.68, "cluster_size": 14, "cluster_id": 2, "rank_in_cluster": 11}

>  <energy>  (32) 
-7.97

>  <cluster_rmsd>  (32) 
0.0

>  <cluster>  (32) 
3

$$$$

     RDKit          3D

 43 45  0  0  0  0  0  0  0  0999 V2000
  141.6940   75.4730  218.2660 C   0  0  0  0  0  0  0  0  0  0  0  0
  141.6410   74.9500  219.6950 C   0  0  1  0  0  0  0  0  0  0  0  0
  140.4630   74.1460  219.9110 N   0  0  0  0  0  0  0  0  0  0  0  0
  140.0570   73.7790  221.2150 C   0  0  0  0  0  0  0  0  0  0  0  0
  140.7810   74.1850  222.1810 O   0  0  0  0  0  0  0  0  0  0  0  0
  138.8740   72.9680  221.5460 C   0  0  0  0  0  0  0  0  0  0  0  0
  139.1260   72.1620  222.6910 N   0  0  0  0  0  0  0  0  0  0  0  0
  138.8880   70.7610  222.7080 C   0  0  0  0  0  0  0  0  0  0  0  0
  138.4240   70.1290  221.7070 O   0  0  0  0  0  0  0  0  0  0  0  0
  139.1890   70.0080  223.9360 C   0  0  0  0  0  0  0  0  0  0  0  0
  138.8510   68.6770  224.0400 C   0  0  0  0  0  0  0  0  0  0  0  0
  139.1210   67.9670  225.1610 N   0  0  0  0  0  0  0  0  0  0  0  0
  139.7370   68.5900  226.2020 C   0  0  0  0  0  0  0  0  0  0  0  0
  140.0310   67.8960  227.3740 C   0  0  0  0  0  0  0  0  0  0  0  0
  140.6640   68.5330  228.4440 C   0  0  0  0  0  0  0  0  0  0  0  0
  140.9900   69.8700  228.3080 C   0  0  0  0  0  0  0  0  0  0  0  0
  140.7170   70.5910  227.1690 C   0  0  0  0  0  0  0  0  0  0  0  0
  140.0850   69.9230  226.1230 C   0  0  0  0  0  0  0  0  0  0  0  0
  139.8050   70.6050  224.9930 N   0  0  0  0  0  0  0  0  0  0  0  0
  142.8980   74.2650  220.0770 C   0  0  0  0  0  0  0  0  0  0  0  0
  142.9650   72.9170  220.3750 C   0  0  0  0  0  0  0  0  0  0  0  0
  144.1810   72.3340  220.7280 C   0  0  0  0  0  0  0  0  0  0  0  0
  145.3140   73.1340  220.7740 C   0  0  0  0  0  0  0  0  0  0  0  0
  145.2490   74.4980  220.4740 C   0  0  0  0  0  0  0  0  0  0  0  0
  144.0430   75.0700  220.1250 C   0  0  0  0  0  0  0  0  0  0  0  0
  141.8049   76.5673  218.2799 H   0  0  0  0  0  0  0  0  0  0  0  0
  142.5513   75.0242  217.7429 H   0  0  0  0  0  0  0  0  0  0  0  0
  140.7641   75.2053  217.7429 H   0  0  0  0  0  0  0  0  0  0  0  0
  141.5561   75.8126  220.3723 H   0  0  0  0  0  0  0  0  0  0  0  0
  139.9380   73.8390  219.0670 H   0  0  0  0  0  0  0  0  0  0  0  0
  138.0243   73.6352  221.7531 H   0  0  0  0  0  0  0  0  0  0  0  0
  138.6428   72.3122  220.6936 H   0  0  0  0  0  0  0  0  0  0  0  0
  139.5090   72.6030  223.5800 H   0  0  0  0  0  0  0  0  0  0  0  0
  138.3514   68.1804  223.1951 H   0  0  0  0  0  0  0  0  0  0  0  0
  139.7612   66.8329  227.4577 H   0  0  0  0  0  0  0  0  0  0  0  0
  140.8968   67.9860  229.3695 H   0  0  0  0  0  0  0  0  0  0  0  0
  141.4888   70.3784  229.1463 H   0  0  0  0  0  0  0  0  0  0  0  0
  140.9873   71.6541  227.0874 H   0  0  0  0  0  0  0  0  0  0  0  0
  142.0544   72.3013  220.3334 H   0  0  0  0  0  0  0  0  0  0  0  0
  144.2413   71.2616  220.9653 H   0  0  0  0  0  0  0  0  0  0  0  0
  146.2801   72.6872  221.0514 H   0  0  0  0  0  0  0  0  0  0  0  0
  146.1589   75.1147  220.5162 H   0  0  0  0  0  0  0  0  0  0  0  0
  143.9817   76.1424  219.8880 H   0  0  0  0  0  0  0  0  0  0  0  0
  1  2  1  0
  2  3  1  0
  3  4  1  0
  4  5  2  0
  4  6  1  0
  6  7  1  0
  7  8  1  0
  8  9  2  0
  8 10  1  0
 10 11  2  0
 11 12  1  0
 12 13  2  0
 13 14  1  0
 14 15  2  0
 15 16  1  0
 16 17  2  0
 17 18  1  0
 18 19  2  0
  2 20  1  0
 20 21  2  0
 21 22  1  0
 22 23  2  0
 23 24  1  0
 24 25  2  0
 19 10  1  0
 25 20  1  0
 18 13  1  0
  1 26  1  0
  1 27  1  0
  1 28  1  0
  2 29  1  1
  3 30  1  0
  6 31  1  0
  6 32  1  0
  7 33  1  0
 11 34  1  0
 14 35  1  0
 15 36  1  0
 16 37  1  0
 17 38  1  0
 21 39  1  0
 22 40  1  0
 23 41  1  0
 24 42  1  0
 25 43  1  0
M  END
>  <smiles>  (33) 
C[C@@H](NC(=O)CNC(=O)c1cnc2ccccc2n1)c1ccccc1

>  <score_type>  (33) 
oracle

>  <origin>  (33) 
autodockgpu

>  <m_score__min__energy>  (33) 
-8.6199999999999992

>  <m_primary>  (33) 
energy

>  <rmsd>  (33) 
6.308864723824234

>  <m_score__min__rmsd>  (33) 
6.308864723824234

>  <meeko>  (33) 
{"free_energy": -7.7, "intermolecular_energy": -9.19, "internal_energy": -1.5, "cluster_size": 6, "cluster_id": 3, "rank_in_cluster": 6}

>  <energy>  (33) 
-7.96

>  <cluster_rmsd>  (33) 
1.18

>  <cluster>  (33) 
3

$$$$

     RDKit          3D

 43 45  0  0  0  0  0  0  0  0999 V2000
  142.7980   76.0370  218.1810 C   0  0  0  0  0  0  0  0  0  0  0  0
  142.5590   75.4550  219.5670 C   0  0  1  0  0  0  0  0  0  0  0  0
  141.2360   74.8900  219.6730 N   0  0  0  0  0  0  0  0  0  0  0  0
  140.6160   74.7080  220.9310 C   0  0  0  0  0  0  0  0  0  0  0  0
  141.2830   75.0590  221.9590 O   0  0  0  0  0  0  0  0  0  0  0  0
  139.2730   74.1480  221.1510 C   0  0  0  0  0  0  0  0  0  0  0  0
  139.2660   73.3040  222.2960 N   0  0  0  0  0  0  0  0  0  0  0  0
  140.1840   72.2300  222.4620 C   0  0  0  0  0  0  0  0  0  0  0  0
  141.0690   71.9420  221.5950 O   0  0  0  0  0  0  0  0  0  0  0  0
  140.1070   71.4170  223.6850 C   0  0  0  0  0  0  0  0  0  0  0  0
  139.5390   70.1620  223.6560 C   0  0  0  0  0  0  0  0  0  0  0  0
  139.4600   69.3990  224.7710 N   0  0  0  0  0  0  0  0  0  0  0  0
  139.9540   69.8890  225.9410 C   0  0  0  0  0  0  0  0  0  0  0  0
  139.8910   69.1360  227.1110 C   0  0  0  0  0  0  0  0  0  0  0  0
  140.3970   69.6350  228.3140 C   0  0  0  0  0  0  0  0  0  0  0  0
  140.9610   70.8990  228.3090 C   0  0  0  0  0  0  0  0  0  0  0  0
  141.0420   71.6750  227.1770 C   0  0  0  0  0  0  0  0  0  0  0  0
  140.5270   71.1430  225.9970 C   0  0  0  0  0  0  0  0  0  0  0  0
  140.5930   71.8810  224.8700 N   0  0  0  0  0  0  0  0  0  0  0  0
  143.6320   74.5130  219.9610 C   0  0  0  0  0  0  0  0  0  0  0  0
  144.8520   74.9230  220.4660 C   0  0  0  0  0  0  0  0  0  0  0  0
  145.8200   73.9830  220.8180 C   0  0  0  0  0  0  0  0  0  0  0  0
  145.5310   72.6360  220.6510 C   0  0  0  0  0  0  0  0  0  0  0  0
  144.2990   72.2180  220.1390 C   0  0  0  0  0  0  0  0  0  0  0  0
  143.3450   73.1530  219.7930 C   0  0  0  0  0  0  0  0  0  0  0  0
  143.2143   77.0508  218.2758 H   0  0  0  0  0  0  0  0  0  0  0  0
  143.5070   75.3992  217.6328 H   0  0  0  0  0  0  0  0  0  0  0  0
  141.8454   76.0816  217.6328 H   0  0  0  0  0  0  0  0  0  0  0  0
  142.6046   76.2780  220.2954 H   0  0  0  0  0  0  0  0  0  0  0  0
  140.7670   74.6120  218.7870 H   0  0  0  0  0  0  0  0  0  0  0  0
  138.5585   74.9704  221.3032 H   0  0  0  0  0  0  0  0  0  0  0  0
  138.9866   73.5546  220.2702 H   0  0  0  0  0  0  0  0  0  0  0  0
  138.5570   73.4630  223.0730 H   0  0  0  0  0  0  0  0  0  0  0  0
  139.1416   69.7723  222.7072 H   0  0  0  0  0  0  0  0  0  0  0  0
  139.4366   68.1345  227.0876 H   0  0  0  0  0  0  0  0  0  0  0  0
  140.3485   69.0405  229.2383 H   0  0  0  0  0  0  0  0  0  0  0  0
  141.3618   71.3000  229.2516 H   0  0  0  0  0  0  0  0  0  0  0  0
  141.4957   72.6768  227.2021 H   0  0  0  0  0  0  0  0  0  0  0  0
  145.0601   75.9959  220.5907 H   0  0  0  0  0  0  0  0  0  0  0  0
  146.7928   74.3027  221.2198 H   0  0  0  0  0  0  0  0  0  0  0  0
  146.2848   71.8837  220.9264 H   0  0  0  0  0  0  0  0  0  0  0  0
  144.0905   71.1454  220.0122 H   0  0  0  0  0  0  0  0  0  0  0  0
  142.3722   72.8341  219.3906 H   0  0  0  0  0  0  0  0  0  0  0  0
  1  2  1  0
  2  3  1  0
  3  4  1  0
  4  5  2  0
  4  6  1  0
  6  7  1  0
  7  8  1  0
  8  9  2  0
  8 10  1  0
 10 11  2  0
 11 12  1  0
 12 13  2  0
 13 14  1  0
 14 15  2  0
 15 16  1  0
 16 17  2  0
 17 18  1  0
 18 19  2  0
  2 20  1  0
 20 21  2  0
 21 22  1  0
 22 23  2  0
 23 24  1  0
 24 25  2  0
 19 10  1  0
 25 20  1  0
 18 13  1  0
  1 26  1  0
  1 27  1  0
  1 28  1  0
  2 29  1  1
  3 30  1  0
  6 31  1  0
  6 32  1  0
  7 33  1  0
 11 34  1  0
 14 35  1  0
 15 36  1  0
 16 37  1  0
 17 38  1  0
 21 39  1  0
 22 40  1  0
 23 41  1  0
 24 42  1  0
 25 43  1  0
M  END
>  <smiles>  (34) 
C[C@@H](NC(=O)CNC(=O)c1cnc2ccccc2n1)c1ccccc1

>  <score_type>  (34) 
oracle

>  <origin>  (34) 
autodockgpu

>  <m_score__min__energy>  (34) 
-8.6199999999999992

>  <m_primary>  (34) 
energy

>  <rmsd>  (34) 
6.313946832771158

>  <m_score__min__rmsd>  (34) 
6.313946832771158

>  <meeko>  (34) 
{"free_energy": -7.96, "intermolecular_energy": -9.46, "internal_energy": -1.2, "cluster_size": 6, "cluster_id": 3, "rank_in_cluster": 2}

>  <energy>  (34) 
-7.94

>  <cluster_rmsd>  (34) 
0.07

>  <cluster>  (34) 
3

$$$$

     RDKit          3D

 43 45  0  0  0  0  0  0  0  0999 V2000
  139.2760   69.1960  224.1440 C   0  0  0  0  0  0  0  0  0  0  0  0
  139.9200   70.5590  224.3530 C   0  0  1  0  0  0  0  0  0  0  0  0
  139.0900   71.6130  223.8210 N   0  0  0  0  0  0  0  0  0  0  0  0
  139.4040   72.2440  222.5950 C   0  0  0  0  0  0  0  0  0  0  0  0
  140.4530   71.8430  221.9910 O   0  0  0  0  0  0  0  0  0  0  0  0
  138.6270   73.3220  221.9630 C   0  0  0  0  0  0  0  0  0  0  0  0
  139.3060   74.5650  222.0860 N   0  0  0  0  0  0  0  0  0  0  0  0
  139.9880   75.1770  220.9990 C   0  0  0  0  0  0  0  0  0  0  0  0
  140.0480   74.6520  219.8420 O   0  0  0  0  0  0  0  0  0  0  0  0
  140.6540   76.4700  221.2200 C   0  0  0  0  0  0  0  0  0  0  0  0
  141.1560   77.1880  220.1580 C   0  0  0  0  0  0  0  0  0  0  0  0
  141.7720   78.3800  220.3410 N   0  0  0  0  0  0  0  0  0  0  0  0
  141.8930   78.8710  221.6050 C   0  0  0  0  0  0  0  0  0  0  0  0
  142.5210   80.0930  221.8370 C   0  0  0  0  0  0  0  0  0  0  0  0
  142.6460   80.6000  223.1330 C   0  0  0  0  0  0  0  0  0  0  0  0
  142.1320   79.8530  224.1780 C   0  0  0  0  0  0  0  0  0  0  0  0
  141.5060   78.6430  223.9920 C   0  0  0  0  0  0  0  0  0  0  0  0
  141.3990   78.1700  222.6860 C   0  0  0  0  0  0  0  0  0  0  0  0
  140.7900   76.9850  222.4730 N   0  0  0  0  0  0  0  0  0  0  0  0
  140.3080   70.7740  225.7660 C   0  0  0  0  0  0  0  0  0  0  0  0
  139.9550   69.9130  226.7880 C   0  0  0  0  0  0  0  0  0  0  0  0
  140.3530   70.1750  228.0980 C   0  0  0  0  0  0  0  0  0  0  0  0
  141.1070   71.3110  228.3500 C   0  0  0  0  0  0  0  0  0  0  0  0
  141.4660   72.1850  227.3180 C   0  0  0  0  0  0  0  0  0  0  0  0
  141.0690   71.9210  226.0230 C   0  0  0  0  0  0  0  0  0  0  0  0
  139.0600   68.7388  225.1209 H   0  0  0  0  0  0  0  0  0  0  0  0
  138.3392   69.3157  223.5800 H   0  0  0  0  0  0  0  0  0  0  0  0
  139.9633   68.5483  223.5800 H   0  0  0  0  0  0  0  0  0  0  0  0
  140.8594   70.5846  223.7812 H   0  0  0  0  0  0  0  0  0  0  0  0
  138.2630   71.8950  224.3860 H   0  0  0  0  0  0  0  0  0  0  0  0
  138.4874   73.0900  220.8968 H   0  0  0  0  0  0  0  0  0  0  0  0
  137.6518   73.3987  222.4660 H   0  0  0  0  0  0  0  0  0  0  0  0
  139.3160   75.0770  223.0180 H   0  0  0  0  0  0  0  0  0  0  0  0
  141.0546   76.7850  219.1395 H   0  0  0  0  0  0  0  0  0  0  0  0
  142.9236   80.6661  220.9888 H   0  0  0  0  0  0  0  0  0  0  0  0
  143.1392   81.5658  223.3173 H   0  0  0  0  0  0  0  0  0  0  0  0
  142.2283   80.2439  225.2017 H   0  0  0  0  0  0  0  0  0  0  0  0
  141.1052   78.0706  224.8415 H   0  0  0  0  0  0  0  0  0  0  0  0
  139.3571   69.0166  226.5665 H   0  0  0  0  0  0  0  0  0  0  0  0
  140.0744   69.4940  228.9157 H   0  0  0  0  0  0  0  0  0  0  0  0
  141.4285   71.5289  229.3791 H   0  0  0  0  0  0  0  0  0  0  0  0
  142.0640   73.0815  227.5387 H   0  0  0  0  0  0  0  0  0  0  0  0
  141.3463   72.6016  225.2046 H   0  0  0  0  0  0  0  0  0  0  0  0
  1  2  1  0
  2  3  1  0
  3  4  1  0
  4  5  2  0
  4  6  1  0
  6  7  1  0
  7  8  1  0
  8  9  2  0
  8 10  1  0
 10 11  2  0
 11 12  1  0
 12 13  2  0
 13 14  1  0
 14 15  2  0
 15 16  1  0
 16 17  2  0
 17 18  1  0
 18 19  2  0
  2 20  1  0
 20 21  2  0
 21 22  1  0
 22 23  2  0
 23 24  1  0
 24 25  2  0
 19 10  1  0
 25 20  1  0
 18 13  1  0
  1 26  1  0
  1 27  1  0
  1 28  1  0
  2 29  1  6
  3 30  1  0
  6 31  1  0
  6 32  1  0
  7 33  1  0
 11 34  1  0
 14 35  1  0
 15 36  1  0
 16 37  1  0
 17 38  1  0
 21 39  1  0
 22 40  1  0
 23 41  1  0
 24 42  1  0
 25 43  1  0
M  END
>  <smiles>  (35) 
C[C@@H](NC(=O)CNC(=O)c1cnc2ccccc2n1)c1ccccc1

>  <score_type>  (35) 
oracle

>  <origin>  (35) 
autodockgpu

>  <m_score__min__energy>  (35) 
-8.6199999999999992

>  <m_primary>  (35) 
energy

>  <rmsd>  (35) 
9.998255441438062

>  <m_score__min__rmsd>  (35) 
9.998255441438062

>  <meeko>  (35) 
{"free_energy": -8.27, "intermolecular_energy": -9.76, "internal_energy": -1.15, "cluster_size": 17, "cluster_id": 1, "rank_in_cluster": 6}

>  <energy>  (35) 
-7.84

>  <cluster_rmsd>  (35) 
1.07

>  <cluster>  (35) 
3

$$$$

     RDKit          3D

 43 45  0  0  0  0  0  0  0  0999 V2000
  139.4420   68.2360  225.2910 C   0  0  0  0  0  0  0  0  0  0  0  0
  140.2760   69.4580  224.9340 C   0  0  1  0  0  0  0  0  0  0  0  0
  139.7330   70.1400  223.7840 N   0  0  0  0  0  0  0  0  0  0  0  0
  138.4100   70.6380  223.7850 C   0  0  0  0  0  0  0  0  0  0  0  0
  137.7230   70.4490  224.8420 O   0  0  0  0  0  0  0  0  0  0  0  0
  137.7610   71.3490  222.6720 C   0  0  0  0  0  0  0  0  0  0  0  0
  138.3730   72.6170  222.4670 N   0  0  0  0  0  0  0  0  0  0  0  0
  139.6420   72.7630  221.8430 C   0  0  0  0  0  0  0  0  0  0  0  0
  140.3250   71.7720  221.4330 O   0  0  0  0  0  0  0  0  0  0  0  0
  140.1910   74.1160  221.6650 C   0  0  0  0  0  0  0  0  0  0  0  0
  141.3160   74.3190  220.8970 C   0  0  0  0  0  0  0  0  0  0  0  0
  141.8350   75.5570  220.7210 N   0  0  0  0  0  0  0  0  0  0  0  0
  141.2260   76.6170  221.3190 C   0  0  0  0  0  0  0  0  0  0  0  0
  141.7290   77.9070  221.1640 C   0  0  0  0  0  0  0  0  0  0  0  0
  141.1060   78.9980  221.7760 C   0  0  0  0  0  0  0  0  0  0  0  0
  139.9780   78.7600  222.5410 C   0  0  0  0  0  0  0  0  0  0  0  0
  139.4510   77.5030  222.7190 C   0  0  0  0  0  0  0  0  0  0  0  0
  140.0980   76.4410  222.0930 C   0  0  0  0  0  0  0  0  0  0  0  0
  139.6030   75.1960  222.2510 N   0  0  0  0  0  0  0  0  0  0  0  0
  140.4800   70.3470  226.1010 C   0  0  0  0  0  0  0  0  0  0  0  0
  141.2680   71.4820  226.0610 C   0  0  0  0  0  0  0  0  0  0  0  0
  141.4180   72.2760  227.1970 C   0  0  0  0  0  0  0  0  0  0  0  0
  140.7600   71.9030  228.3600 C   0  0  0  0  0  0  0  0  0  0  0  0
  139.9620   70.7550  228.4050 C   0  0  0  0  0  0  0  0  0  0  0  0
  139.8180   69.9730  227.2770 C   0  0  0  0  0  0  0  0  0  0  0  0
  139.3782   68.1425  226.3852 H   0  0  0  0  0  0  0  0  0  0  0  0
  138.4307   68.3474  224.8729 H   0  0  0  0  0  0  0  0  0  0  0  0
  139.9143   67.3348  224.8729 H   0  0  0  0  0  0  0  0  0  0  0  0
  141.2802   69.1134  224.6460 H   0  0  0  0  0  0  0  0  0  0  0  0
  140.3530   70.2350  222.9540 H   0  0  0  0  0  0  0  0  0  0  0  0
  137.8553   70.7489  221.7549 H   0  0  0  0  0  0  0  0  0  0  0  0
  136.6997   71.5015  222.9176 H   0  0  0  0  0  0  0  0  0  0  0  0
  137.8800   73.5050  222.7820 H   0  0  0  0  0  0  0  0  0  0  0  0
  141.8029   73.4575  220.4167 H   0  0  0  0  0  0  0  0  0  0  0  0
  142.6284   78.0689  220.5518 H   0  0  0  0  0  0  0  0  0  0  0  0
  141.5013   80.0171  221.6530 H   0  0  0  0  0  0  0  0  0  0  0  0
  139.4819   79.6128  223.0274 H   0  0  0  0  0  0  0  0  0  0  0  0
  138.5523   77.3423  223.3326 H   0  0  0  0  0  0  0  0  0  0  0  0
  141.7795   71.7602  225.1277 H   0  0  0  0  0  0  0  0  0  0  0  0
  142.0450   73.1794  227.1718 H   0  0  0  0  0  0  0  0  0  0  0  0
  140.8678   72.5214  229.2633 H   0  0  0  0  0  0  0  0  0  0  0  0
  139.4502   70.4760  229.3378 H   0  0  0  0  0  0  0  0  0  0  0  0
  139.1921   69.0688  227.3013 H   0  0  0  0  0  0  0  0  0  0  0  0
  1  2  1  0
  2  3  1  0
  3  4  1  0
  4  5  2  0
  4  6  1  0
  6  7  1  0
  7  8  1  0
  8  9  2  0
  8 10  1  0
 10 11  2  0
 11 12  1  0
 12 13  2  0
 13 14  1  0
 14 15  2  0
 15 16  1  0
 16 17  2  0
 17 18  1  0
 18 19  2  0
  2 20  1  0
 20 21  2  0
 21 22  1  0
 22 23  2  0
 23 24  1  0
 24 25  2  0
 19 10  1  0
 25 20  1  0
 18 13  1  0
  1 26  1  0
  1 27  1  0
  1 28  1  0
  2 29  1  6
  3 30  1  0
  6 31  1  0
  6 32  1  0
  7 33  1  0
 11 34  1  0
 14 35  1  0
 15 36  1  0
 16 37  1  0
 17 38  1  0
 21 39  1  0
 22 40  1  0
 23 41  1  0
 24 42  1  0
 25 43  1  0
M  END
>  <smiles>  (36) 
C[C@@H](NC(=O)CNC(=O)c1cnc2ccccc2n1)c1ccccc1

>  <score_type>  (36) 
oracle

>  <origin>  (36) 
autodockgpu

>  <m_score__min__energy>  (36) 
-8.6199999999999992

>  <m_primary>  (36) 
energy

>  <rmsd>  (36) 
10.047269657529714

>  <m_score__min__rmsd>  (36) 
10.047269657529714

>  <meeko>  (36) 
{"free_energy": -7.45, "intermolecular_energy": -8.94, "internal_energy": -2.02, "cluster_size": 17, "cluster_id": 1, "rank_in_cluster": 15}

>  <energy>  (36) 
-7.76

>  <cluster_rmsd>  (36) 
1.0

>  <cluster>  (36) 
3

$$$$

     RDKit          3D

 43 45  0  0  0  0  0  0  0  0999 V2000
  139.3520   68.2360  225.1030 C   0  0  0  0  0  0  0  0  0  0  0  0
  140.1990   69.4610  224.7920 C   0  0  1  0  0  0  0  0  0  0  0  0
  139.6610   70.1940  223.6710 N   0  0  0  0  0  0  0  0  0  0  0  0
  138.3240   70.6550  223.6720 C   0  0  0  0  0  0  0  0  0  0  0  0
  137.6210   70.3870  224.7000 O   0  0  0  0  0  0  0  0  0  0  0  0
  137.6790   71.4120  222.5870 C   0  0  0  0  0  0  0  0  0  0  0  0
  138.3270   72.6650  222.4000 N   0  0  0  0  0  0  0  0  0  0  0  0
  139.5940   72.7840  221.7660 C   0  0  0  0  0  0  0  0  0  0  0  0
  140.2430   71.7810  221.3310 O   0  0  0  0  0  0  0  0  0  0  0  0
  140.1830   74.1230  221.6080 C   0  0  0  0  0  0  0  0  0  0  0  0
  141.3230   74.3020  220.8560 C   0  0  0  0  0  0  0  0  0  0  0  0
  141.8770   75.5270  220.6990 N   0  0  0  0  0  0  0  0  0  0  0  0
  141.2910   76.5980  221.2990 C   0  0  0  0  0  0  0  0  0  0  0  0
  141.8310   77.8750  221.1630 C   0  0  0  0  0  0  0  0  0  0  0  0
  141.2310   78.9770  221.7780 C   0  0  0  0  0  0  0  0  0  0  0  0
  140.0870   78.7630  222.5270 C   0  0  0  0  0  0  0  0  0  0  0  0
  139.5230   77.5190  222.6870 C   0  0  0  0  0  0  0  0  0  0  0  0
  140.1480   76.4450  222.0580 C   0  0  0  0  0  0  0  0  0  0  0  0
  139.6170   75.2130  222.1980 N   0  0  0  0  0  0  0  0  0  0  0  0
  140.4160   70.3010  225.9920 C   0  0  0  0  0  0  0  0  0  0  0  0
  141.0790   71.5130  225.9590 C   0  0  0  0  0  0  0  0  0  0  0  0
  141.2500   72.2550  227.1270 C   0  0  0  0  0  0  0  0  0  0  0  0
  140.7410   71.7510  228.3150 C   0  0  0  0  0  0  0  0  0  0  0  0
  140.0700   70.5240  228.3530 C   0  0  0  0  0  0  0  0  0  0  0  0
  139.9040   69.7950  227.1930 C   0  0  0  0  0  0  0  0  0  0  0  0
  139.2684   68.1151  226.1931 H   0  0  0  0  0  0  0  0  0  0  0  0
  138.3488   68.3644  224.6703 H   0  0  0  0  0  0  0  0  0  0  0  0
  139.8263   67.3428  224.6703 H   0  0  0  0  0  0  0  0  0  0  0  0
  141.1984   69.1164  224.4880 H   0  0  0  0  0  0  0  0  0  0  0  0
  140.2950   70.3540  222.8620 H   0  0  0  0  0  0  0  0  0  0  0  0
  137.7388   70.8309  221.6550 H   0  0  0  0  0  0  0  0  0  0  0  0
  136.6274   71.5918  222.8550 H   0  0  0  0  0  0  0  0  0  0  0  0
  137.8650   73.5610  222.7370 H   0  0  0  0  0  0  0  0  0  0  0  0
  141.7926   73.4322  220.3734 H   0  0  0  0  0  0  0  0  0  0  0  0
  142.7421   78.0178  220.5633 H   0  0  0  0  0  0  0  0  0  0  0  0
  141.6558   79.9859  221.6699 H   0  0  0  0  0  0  0  0  0  0  0  0
  139.6085   79.6248  223.0152 H   0  0  0  0  0  0  0  0  0  0  0  0
  138.6131   77.3776  223.2887 H   0  0  0  0  0  0  0  0  0  0  0  0
  141.4740   71.8945  225.0059 H   0  0  0  0  0  0  0  0  0  0  0  0
  141.7776   73.2200  227.1069 H   0  0  0  0  0  0  0  0  0  0  0  0
  140.8673   72.3265  229.2439 H   0  0  0  0  0  0  0  0  0  0  0  0
  139.6755   70.1410  229.3057 H   0  0  0  0  0  0  0  0  0  0  0  0
  139.3768   68.8298  227.2116 H   0  0  0  0  0  0  0  0  0  0  0  0
  1  2  1  0
  2  3  1  0
  3  4  1  0
  4  5  2  0
  4  6  1  0
  6  7  1  0
  7  8  1  0
  8  9  2  0
  8 10  1  0
 10 11  2  0
 11 12  1  0
 12 13  2  0
 13 14  1  0
 14 15  2  0
 15 16  1  0
 16 17  2  0
 17 18  1  0
 18 19  2  0
  2 20  1  0
 20 21  2  0
 21 22  1  0
 22 23  2  0
 23 24  1  0
 24 25  2  0
 19 10  1  0
 25 20  1  0
 18 13  1  0
  1 26  1  0
  1 27  1  0
  1 28  1  0
  2 29  1  6
  3 30  1  0
  6 31  1  0
  6 32  1  0
  7 33  1  0
 11 34  1  0
 14 35  1  0
 15 36  1  0
 16 37  1  0
 17 38  1  0
 21 39  1  0
 22 40  1  0
 23 41  1  0
 24 42  1  0
 25 43  1  0
M  END
>  <smiles>  (37) 
C[C@@H](NC(=O)CNC(=O)c1cnc2ccccc2n1)c1ccccc1

>  <score_type>  (37) 
oracle

>  <origin>  (37) 
autodockgpu

>  <m_score__min__energy>  (37) 
-8.6199999999999992

>  <m_primary>  (37) 
energy

>  <rmsd>  (37) 
10.0587734978281

>  <m_score__min__rmsd>  (37) 
10.0587734978281

>  <meeko>  (37) 
{"free_energy": -7.4, "intermolecular_energy": -8.89, "internal_energy": -2.01, "cluster_size": 17, "cluster_id": 1, "rank_in_cluster": 16}

>  <energy>  (37) 
-7.7

>  <cluster_rmsd>  (37) 
1.03

>  <cluster>  (37) 
3

$$$$

     RDKit          3D

 43 45  0  0  0  0  0  0  0  0999 V2000
  139.1930   79.0140  219.8860 C   0  0  0  0  0  0  0  0  0  0  0  0
  139.6680   78.1800  221.0660 C   0  0  1  0  0  0  0  0  0  0  0  0
  140.0130   76.8420  220.6510 N   0  0  0  0  0  0  0  0  0  0  0  0
  139.8460   75.7390  221.5200 C   0  0  0  0  0  0  0  0  0  0  0  0
  139.3850   75.9850  222.6820 O   0  0  0  0  0  0  0  0  0  0  0  0
  140.1610   74.3380  221.1970 C   0  0  0  0  0  0  0  0  0  0  0  0
  140.0080   73.5140  222.3470 N   0  0  0  0  0  0  0  0  0  0  0  0
  140.4600   72.1670  222.3890 C   0  0  0  0  0  0  0  0  0  0  0  0
  141.0250   71.5990  221.4020 O   0  0  0  0  0  0  0  0  0  0  0  0
  140.2660   71.3950  223.6270 C   0  0  0  0  0  0  0  0  0  0  0  0
  139.6460   70.1660  223.5940 C   0  0  0  0  0  0  0  0  0  0  0  0
  139.4590   69.4410  224.7220 N   0  0  0  0  0  0  0  0  0  0  0  0
  139.8970   69.9440  225.9080 C   0  0  0  0  0  0  0  0  0  0  0  0
  139.7230   69.2300  227.0920 C   0  0  0  0  0  0  0  0  0  0  0  0
  140.1710   69.7440  228.3110 C   0  0  0  0  0  0  0  0  0  0  0  0
  140.7900   70.9810  228.3100 C   0  0  0  0  0  0  0  0  0  0  0  0
  140.9800   71.7180  227.1650 C   0  0  0  0  0  0  0  0  0  0  0  0
  140.5210   71.1730  225.9680 C   0  0  0  0  0  0  0  0  0  0  0  0
  140.6940   71.8740  224.8280 N   0  0  0  0  0  0  0  0  0  0  0  0
  140.7480   78.8570  221.8200 C   0  0  0  0  0  0  0  0  0  0  0  0
  141.5770   79.8120  221.2620 C   0  0  0  0  0  0  0  0  0  0  0  0
  142.5750   80.4120  222.0290 C   0  0  0  0  0  0  0  0  0  0  0  0
  142.7160   80.0300  223.3550 C   0  0  0  0  0  0  0  0  0  0  0  0
  141.8790   79.0640  223.9230 C   0  0  0  0  0  0  0  0  0  0  0  0
  140.8920   78.4740  223.1590 C   0  0  0  0  0  0  0  0  0  0  0  0
  138.6803   79.9142  220.2560 H   0  0  0  0  0  0  0  0  0  0  0  0
  140.0580   79.3100  219.2743 H   0  0  0  0  0  0  0  0  0  0  0  0
  138.4971   78.4210  219.2743 H   0  0  0  0  0  0  0  0  0  0  0  0
  138.8312   78.0805  221.7730 H   0  0  0  0  0  0  0  0  0  0  0  0
  140.4030   76.7290  219.6920 H   0  0  0  0  0  0  0  0  0  0  0  0
  139.4805   73.9870  220.4072 H   0  0  0  0  0  0  0  0  0  0  0  0
  141.2043   74.2784  220.8534 H   0  0  0  0  0  0  0  0  0  0  0  0
  139.5410   73.9000  223.2210 H   0  0  0  0  0  0  0  0  0  0  0  0
  139.2955   69.7651  222.6315 H   0  0  0  0  0  0  0  0  0  0  0  0
  139.2264   68.2488  227.0662 H   0  0  0  0  0  0  0  0  0  0  0  0
  140.0353   69.1807  229.2460 H   0  0  0  0  0  0  0  0  0  0  0  0
  141.1454   71.3927  229.2661 H   0  0  0  0  0  0  0  0  0  0  0  0
  141.4752   72.6998  227.1930 H   0  0  0  0  0  0  0  0  0  0  0  0
  141.4488   80.0999  220.2081 H   0  0  0  0  0  0  0  0  0  0  0  0
  143.2374   81.1733  221.5912 H   0  0  0  0  0  0  0  0  0  0  0  0
  143.5000   80.4950  223.9707 H   0  0  0  0  0  0  0  0  0  0  0  0
  142.0069   78.7749  224.9766 H   0  0  0  0  0  0  0  0  0  0  0  0
  140.2280   77.7137  223.5961 H   0  0  0  0  0  0  0  0  0  0  0  0
  1  2  1  0
  2  3  1  0
  3  4  1  0
  4  5  2  0
  4  6  1  0
  6  7  1  0
  7  8  1  0
  8  9  2  0
  8 10  1  0
 10 11  2  0
 11 12  1  0
 12 13  2  0
 13 14  1  0
 14 15  2  0
 15 16  1  0
 16 17  2  0
 17 18  1  0
 18 19  2  0
  2 20  1  0
 20 21  2  0
 21 22  1  0
 22 23  2  0
 23 24  1  0
 24 25  2  0
 19 10  1  0
 25 20  1  0
 18 13  1  0
  1 26  1  0
  1 27  1  0
  1 28  1  0
  2 29  1  1
  3 30  1  0
  6 31  1  0
  6 32  1  0
  7 33  1  0
 11 34  1  0
 14 35  1  0
 15 36  1  0
 16 37  1  0
 17 38  1  0
 21 39  1  0
 22 40  1  0
 23 41  1  0
 24 42  1  0
 25 43  1  0
M  END
>  <smiles>  (38) 
C[C@@H](NC(=O)CNC(=O)c1cnc2ccccc2n1)c1ccccc1

>  <score_type>  (38) 
oracle

>  <origin>  (38) 
autodockgpu

>  <m_score__min__energy>  (38) 
-8.6199999999999992

>  <m_primary>  (38) 
energy

>  <rmsd>  (38) 
4.034509081662499

>  <m_score__min__rmsd>  (38) 
4.034509081662499

>  <meeko>  (38) 
{"free_energy": -7.97, "intermolecular_energy": -9.46, "internal_energy": -1.51, "cluster_size": 14, "cluster_id": 2, "rank_in_cluster": 8}

>  <energy>  (38) 
-7.95

>  <cluster_rmsd>  (38) 
0.0

>  <cluster>  (38) 
4

$$$$

     RDKit          3D

 43 45  0  0  0  0  0  0  0  0999 V2000
  139.0260   79.3240  220.3320 C   0  0  0  0  0  0  0  0  0  0  0  0
  139.6070   78.4600  221.4420 C   0  0  1  0  0  0  0  0  0  0  0  0
  140.0120   77.1700  220.9390 N   0  0  0  0  0  0  0  0  0  0  0  0
  139.7870   75.9900  221.6850 C   0  0  0  0  0  0  0  0  0  0  0  0
  139.2190   76.1220  222.8180 O   0  0  0  0  0  0  0  0  0  0  0  0
  140.1550   74.6280  221.2640 C   0  0  0  0  0  0  0  0  0  0  0  0
  139.9560   73.7060  222.3290 N   0  0  0  0  0  0  0  0  0  0  0  0
  140.5660   72.4220  222.3550 C   0  0  0  0  0  0  0  0  0  0  0  0
  141.3240   72.0020  221.4250 O   0  0  0  0  0  0  0  0  0  0  0  0
  140.3090   71.5400  223.5040 C   0  0  0  0  0  0  0  0  0  0  0  0
  139.6460   70.3450  223.3330 C   0  0  0  0  0  0  0  0  0  0  0  0
  139.4010   69.5200  224.3780 N   0  0  0  0  0  0  0  0  0  0  0  0
  139.8210   69.8870  225.6190 C   0  0  0  0  0  0  0  0  0  0  0  0
  139.5880   69.0670  226.7210 C   0  0  0  0  0  0  0  0  0  0  0  0
  140.0180   69.4400  227.9970 C   0  0  0  0  0  0  0  0  0  0  0  0
  140.6800   70.6470  228.1350 C   0  0  0  0  0  0  0  0  0  0  0  0
  140.9290   71.4860  227.0730 C   0  0  0  0  0  0  0  0  0  0  0  0
  140.4870   71.0790  225.8170 C   0  0  0  0  0  0  0  0  0  0  0  0
  140.7170   71.8820  224.7580 N   0  0  0  0  0  0  0  0  0  0  0  0
  140.6790   79.1640  222.1840 C   0  0  0  0  0  0  0  0  0  0  0  0
  142.0240   78.9020  222.0020 C   0  0  0  0  0  0  0  0  0  0  0  0
  142.9820   79.6000  222.7330 C   0  0  0  0  0  0  0  0  0  0  0  0
  142.5580   80.5590  223.6420 C   0  0  0  0  0  0  0  0  0  0  0  0
  141.1980   80.8270  223.8300 C   0  0  0  0  0  0  0  0  0  0  0  0
  140.2530   80.1310  223.1020 C   0  0  0  0  0  0  0  0  0  0  0  0
  138.4639   80.1598  220.7741 H   0  0  0  0  0  0  0  0  0  0  0  0
  139.8424   79.7195  219.7098 H   0  0  0  0  0  0  0  0  0  0  0  0
  138.3518   78.7171  219.7098 H   0  0  0  0  0  0  0  0  0  0  0  0
  138.8125   78.2703  222.1788 H   0  0  0  0  0  0  0  0  0  0  0  0
  140.4880   77.1510  220.0140 H   0  0  0  0  0  0  0  0  0  0  0  0
  139.5304   74.3326  220.4081 H   0  0  0  0  0  0  0  0  0  0  0  0
  141.2175   74.6187  220.9795 H   0  0  0  0  0  0  0  0  0  0  0  0
  139.3310   73.9660  223.1500 H   0  0  0  0  0  0  0  0  0  0  0  0
  139.3087   70.0551  222.3269 H   0  0  0  0  0  0  0  0  0  0  0  0
  139.0582   68.1127  226.5846 H   0  0  0  0  0  0  0  0  0  0  0  0
  139.8354   68.7924  228.8672 H   0  0  0  0  0  0  0  0  0  0  0  0
  141.0218   70.9488  229.1360 H   0  0  0  0  0  0  0  0  0  0  0  0
  141.4568   72.4412  227.2111 H   0  0  0  0  0  0  0  0  0  0  0  0
  142.3393   78.1382  221.2759 H   0  0  0  0  0  0  0  0  0  0  0  0
  144.0536   79.3952  222.5927 H   0  0  0  0  0  0  0  0  0  0  0  0
  143.3045   81.1183  224.2250 H   0  0  0  0  0  0  0  0  0  0  0  0
  140.8819   81.5905  224.5561 H   0  0  0  0  0  0  0  0  0  0  0  0
  139.1809   80.3337  223.2416 H   0  0  0  0  0  0  0  0  0  0  0  0
  1  2  1  0
  2  3  1  0
  3  4  1  0
  4  5  2  0
  4  6  1  0
  6  7  1  0
  7  8  1  0
  8  9  2  0
  8 10  1  0
 10 11  2  0
 11 12  1  0
 12 13  2  0
 13 14  1  0
 14 15  2  0
 15 16  1  0
 16 17  2  0
 17 18  1  0
 18 19  2  0
  2 20  1  0
 20 21  2  0
 21 22  1  0
 22 23  2  0
 23 24  1  0
 24 25  2  0
 19 10  1  0
 25 20  1  0
 18 13  1  0
  1 26  1  0
  1 27  1  0
  1 28  1  0
  2 29  1  1
  3 30  1  0
  6 31  1  0
  6 32  1  0
  7 33  1  0
 11 34  1  0
 14 35  1  0
 15 36  1  0
 16 37  1  0
 17 38  1  0
 21 39  1  0
 22 40  1  0
 23 41  1  0
 24 42  1  0
 25 43  1  0
M  END
>  <smiles>  (39) 
C[C@@H](NC(=O)CNC(=O)c1cnc2ccccc2n1)c1ccccc1

>  <score_type>  (39) 
oracle

>  <origin>  (39) 
autodockgpu

>  <m_score__min__energy>  (39) 
-8.6199999999999992

>  <m_primary>  (39) 
energy

>  <rmsd>  (39) 
3.81147927934159

>  <m_score__min__rmsd>  (39) 
3.81147927934159

>  <meeko>  (39) 
{"free_energy": -7.88, "intermolecular_energy": -9.37, "internal_energy": -1.49, "cluster_size": 14, "cluster_id": 2, "rank_in_cluster": 10}

>  <energy>  (39) 
-7.93

>  <cluster_rmsd>  (39) 
1.58

>  <cluster>  (39) 
4

$$$$

     RDKit          3D

 43 45  0  0  0  0  0  0  0  0999 V2000
  141.8350   75.8780  220.4750 C   0  0  0  0  0  0  0  0  0  0  0  0
  140.4350   76.4670  220.5740 C   0  0  1  0  0  0  0  0  0  0  0  0
  139.4350   75.4270  220.6020 N   0  0  0  0  0  0  0  0  0  0  0  0
  139.5260   74.3480  221.5120 C   0  0  0  0  0  0  0  0  0  0  0  0
  140.5310   74.3360  222.2950 O   0  0  0  0  0  0  0  0  0  0  0  0
  138.5620   73.2420  221.6270 C   0  0  0  0  0  0  0  0  0  0  0  0
  138.9040   72.3940  222.7170 N   0  0  0  0  0  0  0  0  0  0  0  0
  138.4300   71.0580  222.8260 C   0  0  0  0  0  0  0  0  0  0  0  0
  137.6590   70.5290  221.9640 O   0  0  0  0  0  0  0  0  0  0  0  0
  138.8450   70.2530  223.9850 C   0  0  0  0  0  0  0  0  0  0  0  0
  138.5130   68.9180  224.0650 C   0  0  0  0  0  0  0  0  0  0  0  0
  138.8870   68.1610  225.1230 N   0  0  0  0  0  0  0  0  0  0  0  0
  139.6060   68.7380  226.1240 C   0  0  0  0  0  0  0  0  0  0  0  0
  140.0090   67.9950  227.2310 C   0  0  0  0  0  0  0  0  0  0  0  0
  140.7480   68.5840  228.2600 C   0  0  0  0  0  0  0  0  0  0  0  0
  141.0650   69.9260  228.1500 C   0  0  0  0  0  0  0  0  0  0  0  0
  140.6850   70.6950  227.0750 C   0  0  0  0  0  0  0  0  0  0  0  0
  139.9510   70.0730  226.0680 C   0  0  0  0  0  0  0  0  0  0  0  0
  139.5650   70.8030  225.0020 N   0  0  0  0  0  0  0  0  0  0  0  0
  140.3180   77.4240  221.6980 C   0  0  0  0  0  0  0  0  0  0  0  0
  141.4100   77.9340  222.3760 C   0  0  0  0  0  0  0  0  0  0  0  0
  141.2300   78.8330  223.4260 C   0  0  0  0  0  0  0  0  0  0  0  0
  139.9370   79.2010  223.7720 C   0  0  0  0  0  0  0  0  0  0  0  0
  138.8300   78.6870  223.0890 C   0  0  0  0  0  0  0  0  0  0  0  0
  139.0150   77.7980  222.0500 C   0  0  0  0  0  0  0  0  0  0  0  0
  142.2344   75.7100  221.4861 H   0  0  0  0  0  0  0  0  0  0  0  0
  141.7929   74.9213  219.9337 H   0  0  0  0  0  0  0  0  0  0  0  0
  142.4895   76.5770  219.9337 H   0  0  0  0  0  0  0  0  0  0  0  0
  140.2465   77.0556  219.6640 H   0  0  0  0  0  0  0  0  0  0  0  0
  138.6560   75.5010  219.9160 H   0  0  0  0  0  0  0  0  0  0  0  0
  137.5556   73.6546  221.7913 H   0  0  0  0  0  0  0  0  0  0  0  0
  138.5836   72.6533  220.6980 H   0  0  0  0  0  0  0  0  0  0  0  0
  139.5400   72.7500  223.4920 H   0  0  0  0  0  0  0  0  0  0  0  0
  137.9320   68.4579  223.2522 H   0  0  0  0  0  0  0  0  0  0  0  0
  139.7418   66.9299  227.2960 H   0  0  0  0  0  0  0  0  0  0  0  0
  141.0688   67.9970  229.1332 H   0  0  0  0  0  0  0  0  0  0  0  0
  141.6455   70.3980  228.9564 H   0  0  0  0  0  0  0  0  0  0  0  0
  140.9506   71.7606  227.0129 H   0  0  0  0  0  0  0  0  0  0  0  0
  142.4260   77.6287  222.0852 H   0  0  0  0  0  0  0  0  0  0  0  0
  142.0946   79.2423  223.9691 H   0  0  0  0  0  0  0  0  0  0  0  0
  139.7802   79.9098  224.5984 H   0  0  0  0  0  0  0  0  0  0  0  0
  137.8136   78.9909  223.3796 H   0  0  0  0  0  0  0  0  0  0  0  0
  138.1511   77.3887  221.5058 H   0  0  0  0  0  0  0  0  0  0  0  0
  1  2  1  0
  2  3  1  0
  3  4  1  0
  4  5  2  0
  4  6  1  0
  6  7  1  0
  7  8  1  0
  8  9  2  0
  8 10  1  0
 10 11  2  0
 11 12  1  0
 12 13  2  0
 13 14  1  0
 14 15  2  0
 15 16  1  0
 16 17  2  0
 17 18  1  0
 18 19  2  0
  2 20  1  0
 20 21  2  0
 21 22  1  0
 22 23  2  0
 23 24  1  0
 24 25  2  0
 19 10  1  0
 25 20  1  0
 18 13  1  0
  1 26  1  0
  1 27  1  0
  1 28  1  0
  2 29  1  6
  3 30  1  0
  6 31  1  0
  6 32  1  0
  7 33  1  0
 11 34  1  0
 14 35  1  0
 15 36  1  0
 16 37  1  0
 17 38  1  0
 21 39  1  0
 22 40  1  0
 23 41  1  0
 24 42  1  0
 25 43  1  0
M  END
>  <smiles>  (40) 
C[C@@H](NC(=O)CNC(=O)c1cnc2ccccc2n1)c1ccccc1

>  <score_type>  (40) 
oracle

>  <origin>  (40) 
autodockgpu

>  <m_score__min__energy>  (40) 
-8.6199999999999992

>  <m_primary>  (40) 
energy

>  <rmsd>  (40) 
4.434110169649472

>  <m_score__min__rmsd>  (40) 
4.434110169649472

>  <meeko>  (40) 
{"free_energy": -7.74, "intermolecular_energy": -9.23, "internal_energy": -1.67, "cluster_size": 14, "cluster_id": 2, "rank_in_cluster": 13}

>  <energy>  (40) 
-7.47

>  <cluster_rmsd>  (40) 
1.81

>  <cluster>  (40) 
4

$$$$

     RDKit          3D

 43 45  0  0  0  0  0  0  0  0999 V2000
  139.2420   68.9470  224.4210 C   0  0  0  0  0  0  0  0  0  0  0  0
  139.8860   70.3260  224.3950 C   0  0  1  0  0  0  0  0  0  0  0  0
  139.0460   71.2790  223.7120 N   0  0  0  0  0  0  0  0  0  0  0  0
  139.5900   72.2220  222.8110 C   0  0  0  0  0  0  0  0  0  0  0  0
  140.8530   72.1930  222.6370 O   0  0  0  0  0  0  0  0  0  0  0  0
  138.8250   73.2320  222.0610 C   0  0  0  0  0  0  0  0  0  0  0  0
  139.4530   74.5050  222.1570 N   0  0  0  0  0  0  0  0  0  0  0  0
  140.1420   75.1030  221.0670 C   0  0  0  0  0  0  0  0  0  0  0  0
  140.2570   74.5400  219.9330 O   0  0  0  0  0  0  0  0  0  0  0  0
  140.7520   76.4280  221.2580 C   0  0  0  0  0  0  0  0  0  0  0  0
  141.2100   77.1500  220.1780 C   0  0  0  0  0  0  0  0  0  0  0  0
  141.7730   78.3710  220.3340 N   0  0  0  0  0  0  0  0  0  0  0  0
  141.8850   78.8890  221.5870 C   0  0  0  0  0  0  0  0  0  0  0  0
  142.4590   80.1420  221.7910 C   0  0  0  0  0  0  0  0  0  0  0  0
  142.5760   80.6770  223.0760 C   0  0  0  0  0  0  0  0  0  0  0  0
  142.1070   79.9270  224.1400 C   0  0  0  0  0  0  0  0  0  0  0  0
  141.5350   78.6870  223.9820 C   0  0  0  0  0  0  0  0  0  0  0  0
  141.4350   78.1870  222.6860 C   0  0  0  0  0  0  0  0  0  0  0  0
  140.8780   76.9720  222.5010 N   0  0  0  0  0  0  0  0  0  0  0  0
  140.2970   70.7680  225.7470 C   0  0  0  0  0  0  0  0  0  0  0  0
  141.0940   71.8740  225.9730 C   0  0  0  0  0  0  0  0  0  0  0  0
  141.4430   72.2360  227.2730 C   0  0  0  0  0  0  0  0  0  0  0  0
  140.9750   71.4650  228.3270 C   0  0  0  0  0  0  0  0  0  0  0  0
  140.1690   70.3440  228.1030 C   0  0  0  0  0  0  0  0  0  0  0  0
  139.8260   69.9910  226.8130 C   0  0  0  0  0  0  0  0  0  0  0  0
  139.0944   68.6309  225.4642 H   0  0  0  0  0  0  0  0  0  0  0  0
  138.2693   68.9868  223.9088 H   0  0  0  0  0  0  0  0  0  0  0  0
  139.8969   68.2268  223.9088 H   0  0  0  0  0  0  0  0  0  0  0  0
  140.8160   70.2578  223.8115 H   0  0  0  0  0  0  0  0  0  0  0  0
  138.0270   71.2500  223.9250 H   0  0  0  0  0  0  0  0  0  0  0  0
  138.7711   72.9337  221.0036 H   0  0  0  0  0  0  0  0  0  0  0  0
  137.8134   73.3012  222.4874 H   0  0  0  0  0  0  0  0  0  0  0  0
  139.4160   75.0510  223.0690 H   0  0  0  0  0  0  0  0  0  0  0  0
  141.1163   76.7254  219.1676 H   0  0  0  0  0  0  0  0  0  0  0  0
  142.8251   80.7179  220.9283 H   0  0  0  0  0  0  0  0  0  0  0  0
  143.0282   81.6666  223.2375 H   0  0  0  0  0  0  0  0  0  0  0  0
  142.1956   80.3406  225.1554 H   0  0  0  0  0  0  0  0  0  0  0  0
  141.1704   78.1119  224.8459 H   0  0  0  0  0  0  0  0  0  0  0  0
  141.4547   72.4716  225.1229 H   0  0  0  0  0  0  0  0  0  0  0  0
  142.0768   73.1155  227.4594 H   0  0  0  0  0  0  0  0  0  0  0  0
  141.2427   71.7403  229.3578 H   0  0  0  0  0  0  0  0  0  0  0  0
  139.8092   69.7450  228.9526 H   0  0  0  0  0  0  0  0  0  0  0  0
  139.1919   69.1120  226.6251 H   0  0  0  0  0  0  0  0  0  0  0  0
  1  2  1  0
  2  3  1  0
  3  4  1  0
  4  5  2  0
  4  6  1  0
  6  7  1  0
  7  8  1  0
  8  9  2  0
  8 10  1  0
 10 11  2  0
 11 12  1  0
 12 13  2  0
 13 14  1  0
 14 15  2  0
 15 16  1  0
 16 17  2  0
 17 18  1  0
 18 19  2  0
  2 20  1  0
 20 21  2  0
 21 22  1  0
 22 23  2  0
 23 24  1  0
 24 25  2  0
 19 10  1  0
 25 20  1  0
 18 13  1  0
  1 26  1  0
  1 27  1  0
  1 28  1  0
  2 29  1  6
  3 30  1  0
  6 31  1  0
  6 32  1  0
  7 33  1  0
 11 34  1  0
 14 35  1  0
 15 36  1  0
 16 37  1  0
 17 38  1  0
 21 39  1  0
 22 40  1  0
 23 41  1  0
 24 42  1  0
 25 43  1  0
M  END
>  <smiles>  (41) 
C[C@@H](NC(=O)CNC(=O)c1cnc2ccccc2n1)c1ccccc1

>  <score_type>  (41) 
oracle

>  <origin>  (41) 
autodockgpu

>  <m_score__min__energy>  (41) 
-8.6199999999999992

>  <m_primary>  (41) 
energy

>  <rmsd>  (41) 
10.221348182931377

>  <m_score__min__rmsd>  (41) 
10.221348182931377

>  <meeko>  (41) 
{"free_energy": -8.26, "intermolecular_energy": -9.75, "internal_energy": -1.19, "cluster_size": 17, "cluster_id": 1, "rank_in_cluster": 7}

>  <energy>  (41) 
-7.46

>  <cluster_rmsd>  (41) 
1.92

>  <cluster>  (41) 
4

$$$$

     RDKit          3D

 43 45  0  0  0  0  0  0  0  0999 V2000
  139.3390   68.3220  225.1790 C   0  0  0  0  0  0  0  0  0  0  0  0
  140.1900   69.5390  224.8480 C   0  0  1  0  0  0  0  0  0  0  0  0
  139.6500   70.2610  223.7220 N   0  0  0  0  0  0  0  0  0  0  0  0
  138.3090   70.7080  223.7140 C   0  0  0  0  0  0  0  0  0  0  0  0
  137.6040   70.4380  224.7410 O   0  0  0  0  0  0  0  0  0  0  0  0
  137.6610   71.4540  222.6230 C   0  0  0  0  0  0  0  0  0  0  0  0
  138.2990   72.7110  222.4310 N   0  0  0  0  0  0  0  0  0  0  0  0
  139.5660   72.8380  221.7990 C   0  0  0  0  0  0  0  0  0  0  0  0
  140.2240   71.8380  221.3690 O   0  0  0  0  0  0  0  0  0  0  0  0
  140.1430   74.1810  221.6350 C   0  0  0  0  0  0  0  0  0  0  0  0
  141.2770   74.3670  220.8770 C   0  0  0  0  0  0  0  0  0  0  0  0
  141.8220   75.5960  220.7140 N   0  0  0  0  0  0  0  0  0  0  0  0
  141.2310   76.6640  221.3170 C   0  0  0  0  0  0  0  0  0  0  0  0
  141.7600   77.9440  221.1760 C   0  0  0  0  0  0  0  0  0  0  0  0
  141.1560   79.0420  221.7920 C   0  0  0  0  0  0  0  0  0  0  0  0
  140.0180   78.8220  222.5480 C   0  0  0  0  0  0  0  0  0  0  0  0
  139.4640   77.5740  222.7130 C   0  0  0  0  0  0  0  0  0  0  0  0
  140.0940   76.5030  222.0820 C   0  0  0  0  0  0  0  0  0  0  0  0
  139.5730   75.2680  222.2260 N   0  0  0  0  0  0  0  0  0  0  0  0
  140.4170   70.3920  226.0380 C   0  0  0  0  0  0  0  0  0  0  0  0
  141.2100   71.5240  226.0180 C   0  0  0  0  0  0  0  0  0  0  0  0
  141.3820   72.2830  227.1740 C   0  0  0  0  0  0  0  0  0  0  0  0
  140.7420   71.8790  228.3370 C   0  0  0  0  0  0  0  0  0  0  0  0
  139.9400   70.7330  228.3610 C   0  0  0  0  0  0  0  0  0  0  0  0
  139.7730   69.9860  227.2130 C   0  0  0  0  0  0  0  0  0  0  0  0
  139.2632   68.2136  226.2710 H   0  0  0  0  0  0  0  0  0  0  0  0
  138.3332   68.4509  224.7526 H   0  0  0  0  0  0  0  0  0  0  0  0
  139.8053   67.4216  224.7526 H   0  0  0  0  0  0  0  0  0  0  0  0
  141.1859   69.1864  224.5416 H   0  0  0  0  0  0  0  0  0  0  0  0
  140.2860   70.4240  222.9150 H   0  0  0  0  0  0  0  0  0  0  0  0
  137.7282   70.8684  221.6943 H   0  0  0  0  0  0  0  0  0  0  0  0
  136.6072   71.6267  222.8871 H   0  0  0  0  0  0  0  0  0  0  0  0
  137.8280   73.6050  222.7630 H   0  0  0  0  0  0  0  0  0  0  0  0
  141.7502   73.4995  220.3937 H   0  0  0  0  0  0  0  0  0  0  0  0
  142.6665   78.0925  220.5708 H   0  0  0  0  0  0  0  0  0  0  0  0
  141.5732   80.0536  221.6795 H   0  0  0  0  0  0  0  0  0  0  0  0
  139.5363   79.6813  223.0375 H   0  0  0  0  0  0  0  0  0  0  0  0
  138.5584   77.4269  223.3198 H   0  0  0  0  0  0  0  0  0  0  0  0
  141.7077   71.8272  225.0851 H   0  0  0  0  0  0  0  0  0  0  0  0
  142.0125   73.1843  227.1647 H   0  0  0  0  0  0  0  0  0  0  0  0
  140.8675   72.4701  229.2561 H   0  0  0  0  0  0  0  0  0  0  0  0
  139.4432   70.4279  229.2938 H   0  0  0  0  0  0  0  0  0  0  0  0
  139.1429   69.0844  227.2208 H   0  0  0  0  0  0  0  0  0  0  0  0
  1  2  1  0
  2  3  1  0
  3  4  1  0
  4  5  2  0
  4  6  1  0
  6  7  1  0
  7  8  1  0
  8  9  2  0
  8 10  1  0
 10 11  2  0
 11 12  1  0
 12 13  2  0
 13 14  1  0
 14 15  2  0
 15 16  1  0
 16 17  2  0
 17 18  1  0
 18 19  2  0
  2 20  1  0
 20 21  2  0
 21 22  1  0
 22 23  2  0
 23 24  1  0
 24 25  2  0
 19 10  1  0
 25 20  1  0
 18 13  1  0
  1 26  1  0
  1 27  1  0
  1 28  1  0
  2 29  1  6
  3 30  1  0
  6 31  1  0
  6 32  1  0
  7 33  1  0
 11 34  1  0
 14 35  1  0
 15 36  1  0
 16 37  1  0
 17 38  1  0
 21 39  1  0
 22 40  1  0
 23 41  1  0
 24 42  1  0
 25 43  1  0
M  END
>  <smiles>  (42) 
C[C@@H](NC(=O)CNC(=O)c1cnc2ccccc2n1)c1ccccc1

>  <score_type>  (42) 
oracle

>  <origin>  (42) 
autodockgpu

>  <m_score__min__energy>  (42) 
-8.6199999999999992

>  <m_primary>  (42) 
energy

>  <rmsd>  (42) 
10.026457406187355

>  <m_score__min__rmsd>  (42) 
10.026457406187355

>  <meeko>  (42) 
{"free_energy": -7.46, "intermolecular_energy": -8.95, "internal_energy": -1.99, "cluster_size": 17, "cluster_id": 1, "rank_in_cluster": 14}

>  <energy>  (42) 
-7.43

>  <cluster_rmsd>  (42) 
1.74

>  <cluster>  (42) 
4

$$$$

     RDKit          3D

 43 45  0  0  0  0  0  0  0  0999 V2000
  139.1510   69.1230  224.1620 C   0  0  0  0  0  0  0  0  0  0  0  0
  139.8020   70.4820  224.3710 C   0  0  1  0  0  0  0  0  0  0  0  0
  138.9600   71.5430  223.8750 N   0  0  0  0  0  0  0  0  0  0  0  0
  139.1590   72.0950  222.5890 C   0  0  0  0  0  0  0  0  0  0  0  0
  140.1160   71.6170  221.8970 O   0  0  0  0  0  0  0  0  0  0  0  0
  138.3580   73.1730  221.9860 C   0  0  0  0  0  0  0  0  0  0  0  0
  139.0220   74.4240  222.1220 N   0  0  0  0  0  0  0  0  0  0  0  0
  139.8710   74.9540  221.1120 C   0  0  0  0  0  0  0  0  0  0  0  0
  140.1060   74.3440  220.0210 O   0  0  0  0  0  0  0  0  0  0  0  0
  140.5080   76.2600  221.3380 C   0  0  0  0  0  0  0  0  0  0  0  0
  141.5270   76.6930  220.5190 C   0  0  0  0  0  0  0  0  0  0  0  0
  142.1240   77.8930  220.7100 N   0  0  0  0  0  0  0  0  0  0  0  0
  141.7030   78.6810  221.7360 C   0  0  0  0  0  0  0  0  0  0  0  0
  142.2920   79.9220  221.9690 C   0  0  0  0  0  0  0  0  0  0  0  0
  141.8610   80.7350  223.0210 C   0  0  0  0  0  0  0  0  0  0  0  0
  140.8360   80.2710  223.8260 C   0  0  0  0  0  0  0  0  0  0  0  0
  140.2290   79.0530  223.6310 C   0  0  0  0  0  0  0  0  0  0  0  0
  140.6840   78.2710  222.5720 C   0  0  0  0  0  0  0  0  0  0  0  0
  140.1070   77.0710  222.3570 N   0  0  0  0  0  0  0  0  0  0  0  0
  140.2270   70.6790  225.7760 C   0  0  0  0  0  0  0  0  0  0  0  0
  140.0190   69.7400  226.7690 C   0  0  0  0  0  0  0  0  0  0  0  0
  140.4440   69.9880  228.0730 C   0  0  0  0  0  0  0  0  0  0  0  0
  141.0780   71.1910  228.3490 C   0  0  0  0  0  0  0  0  0  0  0  0
  141.2900   72.1440  227.3470 C   0  0  0  0  0  0  0  0  0  0  0  0
  140.8670   71.8920  226.0580 C   0  0  0  0  0  0  0  0  0  0  0  0
  138.9325   68.6670  225.1389 H   0  0  0  0  0  0  0  0  0  0  0  0
  138.2149   69.2477  223.5980 H   0  0  0  0  0  0  0  0  0  0  0  0
  139.8349   68.4717  223.5980 H   0  0  0  0  0  0  0  0  0  0  0  0
  140.7260   70.5136  223.7750 H   0  0  0  0  0  0  0  0  0  0  0  0
  138.2130   71.8910  224.5100 H   0  0  0  0  0  0  0  0  0  0  0  0
  138.2072   72.9576  220.9179 H   0  0  0  0  0  0  0  0  0  0  0  0
  137.3885   73.2272  222.5029 H   0  0  0  0  0  0  0  0  0  0  0  0
  138.8920   75.0040  223.0030 H   0  0  0  0  0  0  0  0  0  0  0  0
  141.8630   76.0502  219.6920 H   0  0  0  0  0  0  0  0  0  0  0  0
  143.1074   80.2666  221.3160 H   0  0  0  0  0  0  0  0  0  0  0  0
  142.3237   81.7161  223.2037 H   0  0  0  0  0  0  0  0  0  0  0  0
  140.4920   80.9036  224.6576 H   0  0  0  0  0  0  0  0  0  0  0  0
  139.4151   78.7092  224.2863 H   0  0  0  0  0  0  0  0  0  0  0  0
  139.5154   68.7920  226.5287 H   0  0  0  0  0  0  0  0  0  0  0  0
  140.2801   69.2450  228.8674 H   0  0  0  0  0  0  0  0  0  0  0  0
  141.4199   71.3990  229.3736 H   0  0  0  0  0  0  0  0  0  0  0  0
  141.7930   73.0925  227.5863 H   0  0  0  0  0  0  0  0  0  0  0  0
  141.0304   72.6341  225.2626 H   0  0  0  0  0  0  0  0  0  0  0  0
  1  2  1  0
  2  3  1  0
  3  4  1  0
  4  5  2  0
  4  6  1  0
  6  7  1  0
  7  8  1  0
  8  9  2  0
  8 10  1  0
 10 11  2  0
 11 12  1  0
 12 13  2  0
 13 14  1  0
 14 15  2  0
 15 16  1  0
 16 17  2  0
 17 18  1  0
 18 19  2  0
  2 20  1  0
 20 21  2  0
 21 22  1  0
 22 23  2  0
 23 24  1  0
 24 25  2  0
 19 10  1  0
 25 20  1  0
 18 13  1  0
  1 26  1  0
  1 27  1  0
  1 28  1  0
  2 29  1  6
  3 30  1  0
  6 31  1  0
  6 32  1  0
  7 33  1  0
 11 34  1  0
 14 35  1  0
 15 36  1  0
 16 37  1  0
 17 38  1  0
 21 39  1  0
 22 40  1  0
 23 41  1  0
 24 42  1  0
 25 43  1  0
M  END
>  <smiles>  (43) 
C[C@@H](NC(=O)CNC(=O)c1cnc2ccccc2n1)c1ccccc1

>  <score_type>  (43) 
oracle

>  <origin>  (43) 
autodockgpu

>  <m_score__min__energy>  (43) 
-8.6199999999999992

>  <m_primary>  (43) 
energy

>  <rmsd>  (43) 
10.042357138113292

>  <m_score__min__rmsd>  (43) 
10.042357138113292

>  <meeko>  (43) 
{"free_energy": -8.12, "intermolecular_energy": -9.61, "internal_energy": -1.14, "cluster_size": 17, "cluster_id": 1, "rank_in_cluster": 9}

>  <energy>  (43) 
-7.4

>  <cluster_rmsd>  (43) 
1.82

>  <cluster>  (43) 
4

$$$$

     RDKit          3D

 43 45  0  0  0  0  0  0  0  0999 V2000
  139.3250   79.1620  220.0630 C   0  0  0  0  0  0  0  0  0  0  0  0
  139.7720   78.2990  221.2340 C   0  0  1  0  0  0  0  0  0  0  0  0
  140.1410   76.9760  220.7920 N   0  0  0  0  0  0  0  0  0  0  0  0
  139.8870   75.8390  221.5940 C   0  0  0  0  0  0  0  0  0  0  0  0
  139.3250   76.0400  222.7200 O   0  0  0  0  0  0  0  0  0  0  0  0
  140.2170   74.4490  221.2390 C   0  0  0  0  0  0  0  0  0  0  0  0
  139.9750   73.5820  222.3400 N   0  0  0  0  0  0  0  0  0  0  0  0
  140.5910   72.3060  222.4590 C   0  0  0  0  0  0  0  0  0  0  0  0
  141.3930   71.8440  221.5870 O   0  0  0  0  0  0  0  0  0  0  0  0
  140.2870   71.4820  223.6400 C   0  0  0  0  0  0  0  0  0  0  0  0
  139.5750   70.3100  223.5100 C   0  0  0  0  0  0  0  0  0  0  0  0
  139.2870   69.5380  224.5850 N   0  0  0  0  0  0  0  0  0  0  0  0
  139.7130   69.9360  225.8140 C   0  0  0  0  0  0  0  0  0  0  0  0
  139.4370   69.1720  226.9460 C   0  0  0  0  0  0  0  0  0  0  0  0
  139.8730   69.5770  228.2100 C   0  0  0  0  0  0  0  0  0  0  0  0
  140.5850   70.7590  228.3060 C   0  0  0  0  0  0  0  0  0  0  0  0
  140.8780   71.5430  227.2140 C   0  0  0  0  0  0  0  0  0  0  0  0
  140.4280   71.1070  225.9710 C   0  0  0  0  0  0  0  0  0  0  0  0
  140.7010   71.8550  224.8830 N   0  0  0  0  0  0  0  0  0  0  0  0
  140.8220   78.9630  222.0390 C   0  0  0  0  0  0  0  0  0  0  0  0
  141.7160   79.8770  221.5130 C   0  0  0  0  0  0  0  0  0  0  0  0
  142.6820   80.4660  222.3270 C   0  0  0  0  0  0  0  0  0  0  0  0
  142.7240   80.1170  223.6690 C   0  0  0  0  0  0  0  0  0  0  0  0
  141.8210   79.1920  224.2050 C   0  0  0  0  0  0  0  0  0  0  0  0
  140.8670   78.6120  223.3940 C   0  0  0  0  0  0  0  0  0  0  0  0
  138.8503   80.0786  220.4432 H   0  0  0  0  0  0  0  0  0  0  0  0
  140.1983   79.4287  219.4497 H   0  0  0  0  0  0  0  0  0  0  0  0
  138.6033   78.6025  219.4497 H   0  0  0  0  0  0  0  0  0  0  0  0
  138.9156   78.1731  221.9127 H   0  0  0  0  0  0  0  0  0  0  0  0
  140.6130   76.8990  219.8680 H   0  0  0  0  0  0  0  0  0  0  0  0
  139.5946   74.1354  220.3879 H   0  0  0  0  0  0  0  0  0  0  0  0
  141.2824   74.3941  220.9709 H   0  0  0  0  0  0  0  0  0  0  0  0
  139.3130   73.8780  223.1180 H   0  0  0  0  0  0  0  0  0  0  0  0
  139.2334   69.9947  222.5130 H   0  0  0  0  0  0  0  0  0  0  0  0
  138.8676   68.2365  226.8430 H   0  0  0  0  0  0  0  0  0  0  0  0
  139.6562   68.9731  229.1035 H   0  0  0  0  0  0  0  0  0  0  0  0
  140.9317   71.0860  229.2974 H   0  0  0  0  0  0  0  0  0  0  0  0
  141.4463   72.4789  227.3192 H   0  0  0  0  0  0  0  0  0  0  0  0
  141.6647   80.1408  220.4463 H   0  0  0  0  0  0  0  0  0  0  0  0
  143.3967   81.1929  221.9136 H   0  0  0  0  0  0  0  0  0  0  0  0
  143.4803   80.5753  224.3232 H   0  0  0  0  0  0  0  0  0  0  0  0
  141.8716   78.9276  225.2715 H   0  0  0  0  0  0  0  0  0  0  0  0
  140.1522   77.8844  223.8059 H   0  0  0  0  0  0  0  0  0  0  0  0
  1  2  1  0
  2  3  1  0
  3  4  1  0
  4  5  2  0
  4  6  1  0
  6  7  1  0
  7  8  1  0
  8  9  2  0
  8 10  1  0
 10 11  2  0
 11 12  1  0
 12 13  2  0
 13 14  1  0
 14 15  2  0
 15 16  1  0
 16 17  2  0
 17 18  1  0
 18 19  2  0
  2 20  1  0
 20 21  2  0
 21 22  1  0
 22 23  2  0
 23 24  1  0
 24 25  2  0
 19 10  1  0
 25 20  1  0
 18 13  1  0
  1 26  1  0
  1 27  1  0
  1 28  1  0
  2 29  1  1
  3 30  1  0
  6 31  1  0
  6 32  1  0
  7 33  1  0
 11 34  1  0
 14 35  1  0
 15 36  1  0
 16 37  1  0
 17 38  1  0
 21 39  1  0
 22 40  1  0
 23 41  1  0
 24 42  1  0
 25 43  1  0
M  END
>  <smiles>  (44) 
C[C@@H](NC(=O)CNC(=O)c1cnc2ccccc2n1)c1ccccc1

>  <score_type>  (44) 
oracle

>  <origin>  (44) 
autodockgpu

>  <m_score__min__energy>  (44) 
-8.6199999999999992

>  <m_primary>  (44) 
energy

>  <rmsd>  (44) 
3.956054683111978

>  <m_score__min__rmsd>  (44) 
3.956054683111978

>  <meeko>  (44) 
{"free_energy": -8.05, "intermolecular_energy": -9.54, "internal_energy": -1.46, "cluster_size": 14, "cluster_id": 2, "rank_in_cluster": 2}

>  <energy>  (44) 
-7.35

>  <cluster_rmsd>  (44) 
1.74

>  <cluster>  (44) 
4

$$$$

     RDKit          3D

 43 45  0  0  0  0  0  0  0  0999 V2000
  139.4560   68.2060  225.2590 C   0  0  0  0  0  0  0  0  0  0  0  0
  140.2600   69.4490  224.9050 C   0  0  1  0  0  0  0  0  0  0  0  0
  139.6900   70.1300  223.7680 N   0  0  0  0  0  0  0  0  0  0  0  0
  138.3560   70.5990  223.7890 C   0  0  0  0  0  0  0  0  0  0  0  0
  137.6860   70.3860  224.8510 O   0  0  0  0  0  0  0  0  0  0  0  0
  137.6800   71.3070  222.6900 C   0  0  0  0  0  0  0  0  0  0  0  0
  138.3860   72.4960  222.3540 N   0  0  0  0  0  0  0  0  0  0  0  0
  139.5750   72.4860  221.5740 C   0  0  0  0  0  0  0  0  0  0  0  0
  140.0980   71.4160  221.1300 O   0  0  0  0  0  0  0  0  0  0  0  0
  140.2300   73.7680  221.2690 C   0  0  0  0  0  0  0  0  0  0  0  0
  141.1420   73.8590  220.2410 C   0  0  0  0  0  0  0  0  0  0  0  0
  141.7550   75.0300  219.9450 N   0  0  0  0  0  0  0  0  0  0  0  0
  141.4570   76.1340  220.6830 C   0  0  0  0  0  0  0  0  0  0  0  0
  142.0660   77.3570  220.4120 C   0  0  0  0  0  0  0  0  0  0  0  0
  141.7630   78.4920  221.1680 C   0  0  0  0  0  0  0  0  0  0  0  0
  140.8430   78.3670  222.1930 C   0  0  0  0  0  0  0  0  0  0  0  0
  140.2200   77.1780  222.4940 C   0  0  0  0  0  0  0  0  0  0  0  0
  140.5470   76.0680  221.7190 C   0  0  0  0  0  0  0  0  0  0  0  0
  139.9520   74.8890  221.9910 N   0  0  0  0  0  0  0  0  0  0  0  0
  140.4570   70.3310  226.0790 C   0  0  0  0  0  0  0  0  0  0  0  0
  141.2470   71.4650  226.0500 C   0  0  0  0  0  0  0  0  0  0  0  0
  141.3900   72.2520  227.1910 C   0  0  0  0  0  0  0  0  0  0  0  0
  140.7250   71.8730  228.3490 C   0  0  0  0  0  0  0  0  0  0  0  0
  139.9260   70.7260  228.3820 C   0  0  0  0  0  0  0  0  0  0  0  0
  139.7880   69.9500  227.2480 C   0  0  0  0  0  0  0  0  0  0  0  0
  139.3933   68.1091  226.3529 H   0  0  0  0  0  0  0  0  0  0  0  0
  138.4427   68.2931  224.8400 H   0  0  0  0  0  0  0  0  0  0  0  0
  139.9509   67.3175  224.8400 H   0  0  0  0  0  0  0  0  0  0  0  0
  141.2682   69.1292  224.6028 H   0  0  0  0  0  0  0  0  0  0  0  0
  140.2980   70.2460  222.9320 H   0  0  0  0  0  0  0  0  0  0  0  0
  137.6370   70.6502  221.8086 H   0  0  0  0  0  0  0  0  0  0  0  0
  136.6633   71.5761  223.0124 H   0  0  0  0  0  0  0  0  0  0  0  0
  138.0280   73.4410  222.6860 H   0  0  0  0  0  0  0  0  0  0  0  0
  141.3773   72.9627  219.6484 H   0  0  0  0  0  0  0  0  0  0  0  0
  142.7953   77.4301  219.5917 H   0  0  0  0  0  0  0  0  0  0  0  0
  142.2429   79.4584  220.9539 H   0  0  0  0  0  0  0  0  0  0  0  0
  140.5991   79.2561  222.7930 H   0  0  0  0  0  0  0  0  0  0  0  0
  139.4916   77.1067  223.3152 H   0  0  0  0  0  0  0  0  0  0  0  0
  141.7652   71.7475  225.1218 H   0  0  0  0  0  0  0  0  0  0  0  0
  142.0173   73.1555  227.1744 H   0  0  0  0  0  0  0  0  0  0  0  0
  140.8284   72.4858  229.2566 H   0  0  0  0  0  0  0  0  0  0  0  0
  139.4080   70.4421  229.3100 H   0  0  0  0  0  0  0  0  0  0  0  0
  139.1616   69.0459  227.2632 H   0  0  0  0  0  0  0  0  0  0  0  0
  1  2  1  0
  2  3  1  0
  3  4  1  0
  4  5  2  0
  4  6  1  0
  6  7  1  0
  7  8  1  0
  8  9  2  0
  8 10  1  0
 10 11  2  0
 11 12  1  0
 12 13  2  0
 13 14  1  0
 14 15  2  0
 15 16  1  0
 16 17  2  0
 17 18  1  0
 18 19  2  0
  2 20  1  0
 20 21  2  0
 21 22  1  0
 22 23  2  0
 23 24  1  0
 24 25  2  0
 19 10  1  0
 25 20  1  0
 18 13  1  0
  1 26  1  0
  1 27  1  0
  1 28  1  0
  2 29  1  6
  3 30  1  0
  6 31  1  0
  6 32  1  0
  7 33  1  0
 11 34  1  0
 14 35  1  0
 15 36  1  0
 16 37  1  0
 17 38  1  0
 21 39  1  0
 22 40  1  0
 23 41  1  0
 24 42  1  0
 25 43  1  0
M  END
>  <smiles>  (45) 
C[C@@H](NC(=O)CNC(=O)c1cnc2ccccc2n1)c1ccccc1

>  <score_type>  (45) 
oracle

>  <origin>  (45) 
autodockgpu

>  <m_score__min__energy>  (45) 
-8.6199999999999992

>  <m_primary>  (45) 
energy

>  <rmsd>  (45) 
10.021432357586066

>  <m_score__min__rmsd>  (45) 
10.021432357586066

>  <meeko>  (45) 
{"free_energy": -7.51, "intermolecular_energy": -9.0, "internal_energy": -1.96, "cluster_size": 17, "cluster_id": 1, "rank_in_cluster": 10}

>  <energy>  (45) 
-7.31

>  <cluster_rmsd>  (45) 
1.74

>  <cluster>  (45) 
4

$$$$

     RDKit          3D

 43 45  0  0  0  0  0  0  0  0999 V2000
  141.7370   75.9620  220.5370 C   0  0  0  0  0  0  0  0  0  0  0  0
  140.3340   76.5440  220.6290 C   0  0  1  0  0  0  0  0  0  0  0  0
  139.3390   75.4990  220.6570 N   0  0  0  0  0  0  0  0  0  0  0  0
  139.4530   74.4030  221.5430 C   0  0  0  0  0  0  0  0  0  0  0  0
  140.4740   74.3810  222.3060 O   0  0  0  0  0  0  0  0  0  0  0  0
  138.4970   73.2900  221.6560 C   0  0  0  0  0  0  0  0  0  0  0  0
  138.8590   72.4280  222.7280 N   0  0  0  0  0  0  0  0  0  0  0  0
  138.4030   71.0840  222.8180 C   0  0  0  0  0  0  0  0  0  0  0  0
  137.6310   70.5600  221.9530 O   0  0  0  0  0  0  0  0  0  0  0  0
  138.8380   70.2640  223.9590 C   0  0  0  0  0  0  0  0  0  0  0  0
  138.5340   68.9220  224.0130 C   0  0  0  0  0  0  0  0  0  0  0  0
  138.9270   68.1520  225.0540 N   0  0  0  0  0  0  0  0  0  0  0  0
  139.6360   68.7240  226.0650 C   0  0  0  0  0  0  0  0  0  0  0  0
  140.0580   67.9660  227.1560 C   0  0  0  0  0  0  0  0  0  0  0  0
  140.7870   68.5500  228.1950 C   0  0  0  0  0  0  0  0  0  0  0  0
  141.0760   69.9000  228.1120 C   0  0  0  0  0  0  0  0  0  0  0  0
  140.6770   70.6830  227.0530 C   0  0  0  0  0  0  0  0  0  0  0  0
  139.9530   70.0660  226.0360 C   0  0  0  0  0  0  0  0  0  0  0  0
  139.5490   70.8100  224.9850 N   0  0  0  0  0  0  0  0  0  0  0  0
  140.2080   77.5040  221.7500 C   0  0  0  0  0  0  0  0  0  0  0  0
  138.9930   77.9790  222.2080 C   0  0  0  0  0  0  0  0  0  0  0  0
  138.9440   78.8820  223.2680 C   0  0  0  0  0  0  0  0  0  0  0  0
  140.1360   79.2900  223.8500 C   0  0  0  0  0  0  0  0  0  0  0  0
  141.3670   78.8120  223.3890 C   0  0  0  0  0  0  0  0  0  0  0  0
  141.4090   77.9170  222.3390 C   0  0  0  0  0  0  0  0  0  0  0  0
  142.1330   75.7977  221.5500 H   0  0  0  0  0  0  0  0  0  0  0  0
  141.7020   75.0042  219.9972 H   0  0  0  0  0  0  0  0  0  0  0  0
  142.3902   76.6634  219.9972 H   0  0  0  0  0  0  0  0  0  0  0  0
  140.1459   77.1286  219.7164 H   0  0  0  0  0  0  0  0  0  0  0  0
  138.5460   75.5820  219.9880 H   0  0  0  0  0  0  0  0  0  0  0  0
  137.4909   73.6946  221.8410 H   0  0  0  0  0  0  0  0  0  0  0  0
  138.5086   72.7151  220.7183 H   0  0  0  0  0  0  0  0  0  0  0  0
  139.4960   72.7790  223.5040 H   0  0  0  0  0  0  0  0  0  0  0  0
  137.9597   68.4665  223.1928 H   0  0  0  0  0  0  0  0  0  0  0  0
  139.8139   66.8943  227.1995 H   0  0  0  0  0  0  0  0  0  0  0  0
  141.1220   67.9524  229.0556 H   0  0  0  0  0  0  0  0  0  0  0  0
  141.6488   70.3674  228.9266 H   0  0  0  0  0  0  0  0  0  0  0  0
  140.9206   71.7549  227.0115 H   0  0  0  0  0  0  0  0  0  0  0  0
  138.0598   77.6421  221.7329 H   0  0  0  0  0  0  0  0  0  0  0  0
  137.9802   79.2637  223.6360 H   0  0  0  0  0  0  0  0  0  0  0  0
  140.1123   80.0017  224.6884 H   0  0  0  0  0  0  0  0  0  0  0  0
  142.3008   79.1490  223.8628 H   0  0  0  0  0  0  0  0  0  0  0  0
  142.3720   77.5339  221.9704 H   0  0  0  0  0  0  0  0  0  0  0  0
  1  2  1  0
  2  3  1  0
  3  4  1  0
  4  5  2  0
  4  6  1  0
  6  7  1  0
  7  8  1  0
  8  9  2  0
  8 10  1  0
 10 11  2  0
 11 12  1  0
 12 13  2  0
 13 14  1  0
 14 15  2  0
 15 16  1  0
 16 17  2  0
 17 18  1  0
 18 19  2  0
  2 20  1  0
 20 21  2  0
 21 22  1  0
 22 23  2  0
 23 24  1  0
 24 25  2  0
 19 10  1  0
 25 20  1  0
 18 13  1  0
  1 26  1  0
  1 27  1  0
  1 28  1  0
  2 29  1  6
  3 30  1  0
  6 31  1  0
  6 32  1  0
  7 33  1  0
 11 34  1  0
 14 35  1  0
 15 36  1  0
 16 37  1  0
 17 38  1  0
 21 39  1  0
 22 40  1  0
 23 41  1  0
 24 42  1  0
 25 43  1  0
M  END
>  <smiles>  (46) 
C[C@@H](NC(=O)CNC(=O)c1cnc2ccccc2n1)c1ccccc1

>  <score_type>  (46) 
oracle

>  <origin>  (46) 
autodockgpu

>  <m_score__min__energy>  (46) 
-8.6199999999999992

>  <m_primary>  (46) 
energy

>  <rmsd>  (46) 
4.250115537352952

>  <m_score__min__rmsd>  (46) 
4.250115537352952

>  <meeko>  (46) 
{"free_energy": -7.75, "intermolecular_energy": -9.24, "internal_energy": -1.62, "cluster_size": 14, "cluster_id": 2, "rank_in_cluster": 12}

>  <energy>  (46) 
-7.27

>  <cluster_rmsd>  (46) 
1.72

>  <cluster>  (46) 
4

$$$$

     RDKit          3D

 43 45  0  0  0  0  0  0  0  0999 V2000
  137.5940   71.6220  223.5500 C   0  0  0  0  0  0  0  0  0  0  0  0
  139.0850   71.3240  223.4820 C   0  0  1  0  0  0  0  0  0  0  0  0
  139.7900   72.3590  222.7660 N   0  0  0  0  0  0  0  0  0  0  0  0
  140.7660   72.0420  221.7930 C   0  0  0  0  0  0  0  0  0  0  0  0
  140.9950   70.8050  221.5870 O   0  0  0  0  0  0  0  0  0  0  0  0
  141.5370   73.0160  221.0040 C   0  0  0  0  0  0  0  0  0  0  0  0
  141.3460   74.3310  221.5110 N   0  0  0  0  0  0  0  0  0  0  0  0
  140.0680   74.9520  221.5660 C   0  0  0  0  0  0  0  0  0  0  0  0
  139.0080   74.3820  221.1580 O   0  0  0  0  0  0  0  0  0  0  0  0
  139.9670   76.3130  222.1160 C   0  0  0  0  0  0  0  0  0  0  0  0
  138.7440   76.8320  222.4790 C   0  0  0  0  0  0  0  0  0  0  0  0
  138.6310   78.0810  222.9870 N   0  0  0  0  0  0  0  0  0  0  0  0
  139.7550   78.8340  223.1390 C   0  0  0  0  0  0  0  0  0  0  0  0
  139.6820   80.1250  223.6570 C   0  0  0  0  0  0  0  0  0  0  0  0
  140.8340   80.9010  223.8150 C   0  0  0  0  0  0  0  0  0  0  0  0
  142.0470   80.3510  223.4410 C   0  0  0  0  0  0  0  0  0  0  0  0
  142.1610   79.0810  222.9240 C   0  0  0  0  0  0  0  0  0  0  0  0
  140.9920   78.3380  222.7830 C   0  0  0  0  0  0  0  0  0  0  0  0
  141.0750   77.0890  222.2790 N   0  0  0  0  0  0  0  0  0  0  0  0
  139.6530   71.0470  224.8220 C   0  0  0  0  0  0  0  0  0  0  0  0
  139.1960   70.0330  225.6430 C   0  0  0  0  0  0  0  0  0  0  0  0
  139.7750   69.8260  226.8940 C   0  0  0  0  0  0  0  0  0  0  0  0
  140.8150   70.6540  227.2920 C   0  0  0  0  0  0  0  0  0  0  0  0
  141.2790   71.6810  226.4640 C   0  0  0  0  0  0  0  0  0  0  0  0
  140.7020   71.8810  225.2260 C   0  0  0  0  0  0  0  0  0  0  0  0
  137.2802   71.6847  224.6024 H   0  0  0  0  0  0  0  0  0  0  0  0
  137.3881   72.5791  223.0484 H   0  0  0  0  0  0  0  0  0  0  0  0
  137.0360   70.8176  223.0484 H   0  0  0  0  0  0  0  0  0  0  0  0
  139.2221   70.3978  222.9046 H   0  0  0  0  0  0  0  0  0  0  0  0
  139.5580   73.3440  223.0080 H   0  0  0  0  0  0  0  0  0  0  0  0
  142.6054   72.7595  221.0564 H   0  0  0  0  0  0  0  0  0  0  0  0
  141.1897   72.9832  219.9608 H   0  0  0  0  0  0  0  0  0  0  0  0
  142.1760   74.8910  221.8690 H   0  0  0  0  0  0  0  0  0  0  0  0
  137.8399   76.2181  222.3533 H   0  0  0  0  0  0  0  0  0  0  0  0
  138.7048   80.5394  223.9456 H   0  0  0  0  0  0  0  0  0  0  0  0
  140.7776   81.9201  224.2251 H   0  0  0  0  0  0  0  0  0  0  0  0
  142.9588   80.9544  223.5620 H   0  0  0  0  0  0  0  0  0  0  0  0
  143.1384   78.6685  222.6332 H   0  0  0  0  0  0  0  0  0  0  0  0
  138.3717   69.3865  225.3075 H   0  0  0  0  0  0  0  0  0  0  0  0
  139.4146   69.0221  227.5527 H   0  0  0  0  0  0  0  0  0  0  0  0
  141.2825   70.4999  228.2757 H   0  0  0  0  0  0  0  0  0  0  0  0
  142.1027   72.3286  226.7988 H   0  0  0  0  0  0  0  0  0  0  0  0
  141.0615   72.6844  224.5663 H   0  0  0  0  0  0  0  0  0  0  0  0
  1  2  1  0
  2  3  1  0
  3  4  1  0
  4  5  2  0
  4  6  1  0
  6  7  1  0
  7  8  1  0
  8  9  2  0
  8 10  1  0
 10 11  2  0
 11 12  1  0
 12 13  2  0
 13 14  1  0
 14 15  2  0
 15 16  1  0
 16 17  2  0
 17 18  1  0
 18 19  2  0
  2 20  1  0
 20 21  2  0
 21 22  1  0
 22 23  2  0
 23 24  1  0
 24 25  2  0
 19 10  1  0
 25 20  1  0
 18 13  1  0
  1 26  1  0
  1 27  1  0
  1 28  1  0
  2 29  1  6
  3 30  1  0
  6 31  1  0
  6 32  1  0
  7 33  1  0
 11 34  1  0
 14 35  1  0
 15 36  1  0
 16 37  1  0
 17 38  1  0
 21 39  1  0
 22 40  1  0
 23 41  1  0
 24 42  1  0
 25 43  1  0
M  END
>  <smiles>  (47) 
C[C@@H](NC(=O)CNC(=O)c1cnc2ccccc2n1)c1ccccc1

>  <score_type>  (47) 
oracle

>  <origin>  (47) 
autodockgpu

>  <m_score__min__energy>  (47) 
-8.6199999999999992

>  <m_primary>  (47) 
energy

>  <rmsd>  (47) 
9.598227647563077

>  <m_score__min__rmsd>  (47) 
9.598227647563077

>  <meeko>  (47) 
{"free_energy": -7.37, "intermolecular_energy": -8.86, "internal_energy": -1.85, "cluster_size": 17, "cluster_id": 1, "rank_in_cluster": 17}

>  <energy>  (47) 
-7.46

>  <cluster_rmsd>  (47) 
0.0

>  <cluster>  (47) 
5

$$$$

     RDKit          3D

 43 45  0  0  0  0  0  0  0  0999 V2000
  139.2230   68.1630  225.1030 C   0  0  0  0  0  0  0  0  0  0  0  0
  139.5970   69.5970  224.7570 C   0  0  1  0  0  0  0  0  0  0  0  0
  138.5180   70.2640  224.0700 N   0  0  0  0  0  0  0  0  0  0  0  0
  138.7700   71.1530  222.9990 C   0  0  0  0  0  0  0  0  0  0  0  0
  139.9890   71.3390  222.6780 O   0  0  0  0  0  0  0  0  0  0  0  0
  137.7460   71.8790  222.2300 C   0  0  0  0  0  0  0  0  0  0  0  0
  136.9120   72.6360  223.0990 N   0  0  0  0  0  0  0  0  0  0  0  0
  135.8740   72.0450  223.8700 C   0  0  0  0  0  0  0  0  0  0  0  0
  135.6090   70.8020  223.8300 O   0  0  0  0  0  0  0  0  0  0  0  0
  135.0680   72.9070  224.7490 C   0  0  0  0  0  0  0  0  0  0  0  0
  134.3220   72.3620  225.7710 C   0  0  0  0  0  0  0  0  0  0  0  0
  133.5760   73.1390  226.5900 N   0  0  0  0  0  0  0  0  0  0  0  0
  133.5680   74.4860  226.3930 C   0  0  0  0  0  0  0  0  0  0  0  0
  132.8120   75.3210  227.2140 C   0  0  0  0  0  0  0  0  0  0  0  0
  132.8020   76.7030  227.0150 C   0  0  0  0  0  0  0  0  0  0  0  0
  133.5610   77.2190  225.9800 C   0  0  0  0  0  0  0  0  0  0  0  0
  134.3200   76.4300  225.1470 C   0  0  0  0  0  0  0  0  0  0  0  0
  134.3060   75.0570  225.3770 C   0  0  0  0  0  0  0  0  0  0  0  0
  135.0410   74.2580  224.5760 N   0  0  0  0  0  0  0  0  0  0  0  0
  140.0860   70.3400  225.9410 C   0  0  0  0  0  0  0  0  0  0  0  0
  139.7440   70.0080  227.2390 C   0  0  0  0  0  0  0  0  0  0  0  0
  140.2390   70.7490  228.3090 C   0  0  0  0  0  0  0  0  0  0  0  0
  141.0800   71.8210  228.0440 C   0  0  0  0  0  0  0  0  0  0  0  0
  141.4280   72.1610  226.7330 C   0  0  0  0  0  0  0  0  0  0  0  0
  140.9340   71.4220  225.6770 C   0  0  0  0  0  0  0  0  0  0  0  0
  139.1924   68.0457  226.1963 H   0  0  0  0  0  0  0  0  0  0  0  0
  138.2341   67.9301  224.6814 H   0  0  0  0  0  0  0  0  0  0  0  0
  139.9722   67.4768  224.6814 H   0  0  0  0  0  0  0  0  0  0  0  0
  140.4432   69.5692  224.0547 H   0  0  0  0  0  0  0  0  0  0  0  0
  137.5520   70.0720  224.4060 H   0  0  0  0  0  0  0  0  0  0  0  0
  138.2407   72.5586  221.5205 H   0  0  0  0  0  0  0  0  0  0  0  0
  137.1255   71.1500  221.6881 H   0  0  0  0  0  0  0  0  0  0  0  0
  137.0530   73.6860  223.1940 H   0  0  0  0  0  0  0  0  0  0  0  0
  134.3330   71.2728  225.9244 H   0  0  0  0  0  0  0  0  0  0  0  0
  132.2155   74.8856  228.0293 H   0  0  0  0  0  0  0  0  0  0  0  0
  132.2071   77.3631  227.6633 H   0  0  0  0  0  0  0  0  0  0  0  0
  133.5575   78.3067  225.8160 H   0  0  0  0  0  0  0  0  0  0  0  0
  134.9147   76.8668  224.3312 H   0  0  0  0  0  0  0  0  0  0  0  0
  139.0771   69.1537  227.4274 H   0  0  0  0  0  0  0  0  0  0  0  0
  139.9690   70.4900  229.3434 H   0  0  0  0  0  0  0  0  0  0  0  0
  141.4798   72.4136  228.8801 H   0  0  0  0  0  0  0  0  0  0  0  0
  142.0941   73.0157  226.5436 H   0  0  0  0  0  0  0  0  0  0  0  0
  141.2031   71.6798  224.6420 H   0  0  0  0  0  0  0  0  0  0  0  0
  1  2  1  0
  2  3  1  0
  3  4  1  0
  4  5  2  0
  4  6  1  0
  6  7  1  0
  7  8  1  0
  8  9  2  0
  8 10  1  0
 10 11  2  0
 11 12  1  0
 12 13  2  0
 13 14  1  0
 14 15  2  0
 15 16  1  0
 16 17  2  0
 17 18  1  0
 18 19  2  0
  2 20  1  0
 20 21  2  0
 21 22  1  0
 22 23  2  0
 23 24  1  0
 24 25  2  0
 19 10  1  0
 25 20  1  0
 18 13  1  0
  1 26  1  0
  1 27  1  0
  1 28  1  0
  2 29  1  6
  3 30  1  0
  6 31  1  0
  6 32  1  0
  7 33  1  0
 11 34  1  0
 14 35  1  0
 15 36  1  0
 16 37  1  0
 17 38  1  0
 21 39  1  0
 22 40  1  0
 23 41  1  0
 24 42  1  0
 25 43  1  0
M  END
>  <smiles>  (48) 
C[C@@H](NC(=O)CNC(=O)c1cnc2ccccc2n1)c1ccccc1

>  <score_type>  (48) 
oracle

>  <origin>  (48) 
autodockgpu

>  <m_score__min__energy>  (48) 
-8.6199999999999992

>  <m_primary>  (48) 
energy

>  <rmsd>  (48) 
9.969291519307806

>  <m_score__min__rmsd>  (48) 
9.969291519307806

>  <meeko>  (48) 
{"free_energy": -7.4, "intermolecular_energy": -8.89, "internal_energy": -1.97, "cluster_size": 9, "cluster_id": 4, "rank_in_cluster": 6}

>  <energy>  (48) 
-7.43

>  <cluster_rmsd>  (48) 
0.26

>  <cluster>  (48) 
5

$$$$

     RDKit          3D

 43 45  0  0  0  0  0  0  0  0999 V2000
  139.1880   79.2220  220.5730 C   0  0  0  0  0  0  0  0  0  0  0  0
  139.8360   78.4600  221.7210 C   0  0  1  0  0  0  0  0  0  0  0  0
  140.3370   77.1820  221.2790 N   0  0  0  0  0  0  0  0  0  0  0  0
  139.7200   75.9750  221.6800 C   0  0  0  0  0  0  0  0  0  0  0  0
  138.7100   76.0710  222.4520 O   0  0  0  0  0  0  0  0  0  0  0  0
  140.1450   74.6220  221.2850 C   0  0  0  0  0  0  0  0  0  0  0  0
  139.9450   73.7040  222.3540 N   0  0  0  0  0  0  0  0  0  0  0  0
  140.5220   72.4050  222.3650 C   0  0  0  0  0  0  0  0  0  0  0  0
  141.2490   71.9660  221.4180 O   0  0  0  0  0  0  0  0  0  0  0  0
  140.2670   71.5280  223.5180 C   0  0  0  0  0  0  0  0  0  0  0  0
  139.6170   70.3250  223.3520 C   0  0  0  0  0  0  0  0  0  0  0  0
  139.3750   69.5050  224.4010 N   0  0  0  0  0  0  0  0  0  0  0  0
  139.7840   69.8850  225.6430 C   0  0  0  0  0  0  0  0  0  0  0  0
  139.5520   69.0700  226.7490 C   0  0  0  0  0  0  0  0  0  0  0  0
  139.9710   69.4570  228.0240 C   0  0  0  0  0  0  0  0  0  0  0  0
  140.6200   70.6710  228.1580 C   0  0  0  0  0  0  0  0  0  0  0  0
  140.8680   71.5040  227.0920 C   0  0  0  0  0  0  0  0  0  0  0  0
  140.4360   71.0850  225.8360 C   0  0  0  0  0  0  0  0  0  0  0  0
  140.6650   71.8820  224.7720 N   0  0  0  0  0  0  0  0  0  0  0  0
  140.8530   79.2790  222.4200 C   0  0  0  0  0  0  0  0  0  0  0  0
  142.2080   79.0130  222.3650 C   0  0  0  0  0  0  0  0  0  0  0  0
  143.1130   79.8250  223.0470 C   0  0  0  0  0  0  0  0  0  0  0  0
  142.6240   80.8980  223.7780 C   0  0  0  0  0  0  0  0  0  0  0  0
  141.2540   81.1700  223.8370 C   0  0  0  0  0  0  0  0  0  0  0  0
  140.3630   80.3630  223.1590 C   0  0  0  0  0  0  0  0  0  0  0  0
  138.5254   80.0012  220.9779 H   0  0  0  0  0  0  0  0  0  0  0  0
  139.9694   79.6895  219.9559 H   0  0  0  0  0  0  0  0  0  0  0  0
  138.6010   78.5258  219.9559 H   0  0  0  0  0  0  0  0  0  0  0  0
  139.0603   78.2468  222.4712 H   0  0  0  0  0  0  0  0  0  0  0  0
  141.1780   77.1890  220.6660 H   0  0  0  0  0  0  0  0  0  0  0  0
  139.5562   74.2975  220.4144 H   0  0  0  0  0  0  0  0  0  0  0  0
  141.2153   74.6453  221.0320 H   0  0  0  0  0  0  0  0  0  0  0  0
  139.3460   73.9790  223.1880 H   0  0  0  0  0  0  0  0  0  0  0  0
  139.2879   70.0247  222.3463 H   0  0  0  0  0  0  0  0  0  0  0  0
  139.0323   68.1096  226.6164 H   0  0  0  0  0  0  0  0  0  0  0  0
  139.7897   68.8138  228.8977 H   0  0  0  0  0  0  0  0  0  0  0  0
  140.9517   70.9834  229.1592 H   0  0  0  0  0  0  0  0  0  0  0  0
  141.3876   72.4642  227.2263 H   0  0  0  0  0  0  0  0  0  0  0  0
  142.5743   78.1563  221.7802 H   0  0  0  0  0  0  0  0  0  0  0  0
  144.1928   79.6192  223.0064 H   0  0  0  0  0  0  0  0  0  0  0  0
  143.3271   81.5466  224.3211 H   0  0  0  0  0  0  0  0  0  0  0  0
  140.8868   82.0256  224.4227 H   0  0  0  0  0  0  0  0  0  0  0  0
  139.2831   80.5684  223.1985 H   0  0  0  0  0  0  0  0  0  0  0  0
  1  2  1  0
  2  3  1  0
  3  4  1  0
  4  5  2  0
  4  6  1  0
  6  7  1  0
  7  8  1  0
  8  9  2  0
  8 10  1  0
 10 11  2  0
 11 12  1  0
 12 13  2  0
 13 14  1  0
 14 15  2  0
 15 16  1  0
 16 17  2  0
 17 18  1  0
 18 19  2  0
  2 20  1  0
 20 21  2  0
 21 22  1  0
 22 23  2  0
 23 24  1  0
 24 25  2  0
 19 10  1  0
 25 20  1  0
 18 13  1  0
  1 26  1  0
  1 27  1  0
  1 28  1  0
  2 29  1  1
  3 30  1  0
  6 31  1  0
  6 32  1  0
  7 33  1  0
 11 34  1  0
 14 35  1  0
 15 36  1  0
 16 37  1  0
 17 38  1  0
 21 39  1  0
 22 40  1  0
 23 41  1  0
 24 42  1  0
 25 43  1  0
M  END
>  <smiles>  (49) 
C[C@@H](NC(=O)CNC(=O)c1cnc2ccccc2n1)c1ccccc1

>  <score_type>  (49) 
oracle

>  <origin>  (49) 
autodockgpu

>  <m_score__min__energy>  (49) 
-8.6199999999999992

>  <m_primary>  (49) 
energy

>  <rmsd>  (49) 
3.7508932907919297

>  <m_score__min__rmsd>  (49) 
3.7508932907919297

>  <meeko>  (49) 
{"free_energy": -8.05, "intermolecular_energy": -9.54, "internal_energy": -1.3, "cluster_size": 14, "cluster_id": 2, "rank_in_cluster": 3}

>  <energy>  (49) 
-7.43

>  <cluster_rmsd>  (49) 
0.09

>  <cluster>  (49) 
5

$$$$

     RDKit          3D

 43 45  0  0  0  0  0  0  0  0999 V2000
  141.8550   75.5370  218.4300 C   0  0  0  0  0  0  0  0  0  0  0  0
  141.8060   74.9430  219.8310 C   0  0  1  0  0  0  0  0  0  0  0  0
  140.6360   74.1170  220.0040 N   0  0  0  0  0  0  0  0  0  0  0  0
  140.1080   73.8560  221.2890 C   0  0  0  0  0  0  0  0  0  0  0  0
  140.7160   74.3790  222.2800 O   0  0  0  0  0  0  0  0  0  0  0  0
  138.9210   73.0340  221.5770 C   0  0  0  0  0  0  0  0  0  0  0  0
  139.1420   72.2260  222.7270 N   0  0  0  0  0  0  0  0  0  0  0  0
  138.7900   70.8490  222.7730 C   0  0  0  0  0  0  0  0  0  0  0  0
  138.2460   70.2440  221.7950 O   0  0  0  0  0  0  0  0  0  0  0  0
  139.0650   70.0900  224.0030 C   0  0  0  0  0  0  0  0  0  0  0  0
  138.6400   68.7860  224.1300 C   0  0  0  0  0  0  0  0  0  0  0  0
  138.8850   68.0720  225.2540 N   0  0  0  0  0  0  0  0  0  0  0  0
  139.5650   68.6630  226.2740 C   0  0  0  0  0  0  0  0  0  0  0  0
  139.8360   67.9630  227.4480 C   0  0  0  0  0  0  0  0  0  0  0  0
  140.5330   68.5660  228.4980 C   0  0  0  0  0  0  0  0  0  0  0  0
  140.9460   69.8770  228.3390 C   0  0  0  0  0  0  0  0  0  0  0  0
  140.6980   70.6020  227.1970 C   0  0  0  0  0  0  0  0  0  0  0  0
  140.0010   69.9680  226.1720 C   0  0  0  0  0  0  0  0  0  0  0  0
  139.7430   70.6550  225.0410 N   0  0  0  0  0  0  0  0  0  0  0  0
  143.0690   74.2530  220.1810 C   0  0  0  0  0  0  0  0  0  0  0  0
  144.2940   74.8930  220.2310 C   0  0  0  0  0  0  0  0  0  0  0  0
  145.4450   74.1840  220.5680 C   0  0  0  0  0  0  0  0  0  0  0  0
  145.3340   72.8300  220.8510 C   0  0  0  0  0  0  0  0  0  0  0  0
  144.0970   72.1790  220.8010 C   0  0  0  0  0  0  0  0  0  0  0  0
  142.9610   72.8870  220.4670 C   0  0  0  0  0  0  0  0  0  0  0  0
  141.9452   76.6311  218.4986 H   0  0  0  0  0  0  0  0  0  0  0  0
  142.7227   75.1307  217.8896 H   0  0  0  0  0  0  0  0  0  0  0  0
  140.9325   75.2783  217.8896 H   0  0  0  0  0  0  0  0  0  0  0  0
  141.7118   75.7699  220.5503 H   0  0  0  0  0  0  0  0  0  0  0  0
  140.2110   73.7120  219.1450 H   0  0  0  0  0  0  0  0  0  0  0  0
  138.0592   73.6933  221.7579 H   0  0  0  0  0  0  0  0  0  0  0  0
  138.7234   72.3798  220.7150 H   0  0  0  0  0  0  0  0  0  0  0  0
  139.5860   72.6450  223.5970 H   0  0  0  0  0  0  0  0  0  0  0  0
  138.0905   68.3152  223.3015 H   0  0  0  0  0  0  0  0  0  0  0  0
  139.4966   66.9216  227.5494 H   0  0  0  0  0  0  0  0  0  0  0  0
  140.7474   68.0141  229.4250 H   0  0  0  0  0  0  0  0  0  0  0  0
  141.4958   70.3596  229.1605 H   0  0  0  0  0  0  0  0  0  0  0  0
  141.0375   71.6435  227.0972 H   0  0  0  0  0  0  0  0  0  0  0  0
  144.3599   75.9672  220.0036 H   0  0  0  0  0  0  0  0  0  0  0  0
  146.4222   74.6874  220.6089 H   0  0  0  0  0  0  0  0  0  0  0  0
  146.2348   72.2586  221.1194 H   0  0  0  0  0  0  0  0  0  0  0  0
  144.0301   71.1047  221.0275 H   0  0  0  0  0  0  0  0  0  0  0  0
  141.9832   72.3847  220.4260 H   0  0  0  0  0  0  0  0  0  0  0  0
  1  2  1  0
  2  3  1  0
  3  4  1  0
  4  5  2  0
  4  6  1  0
  6  7  1  0
  7  8  1  0
  8  9  2  0
  8 10  1  0
 10 11  2  0
 11 12  1  0
 12 13  2  0
 13 14  1  0
 14 15  2  0
 15 16  1  0
 16 17  2  0
 17 18  1  0
 18 19  2  0
  2 20  1  0
 20 21  2  0
 21 22  1  0
 22 23  2  0
 23 24  1  0
 24 25  2  0
 19 10  1  0
 25 20  1  0
 18 13  1  0
  1 26  1  0
  1 27  1  0
  1 28  1  0
  2 29  1  1
  3 30  1  0
  6 31  1  0
  6 32  1  0
  7 33  1  0
 11 34  1  0
 14 35  1  0
 15 36  1  0
 16 37  1  0
 17 38  1  0
 21 39  1  0
 22 40  1  0
 23 41  1  0
 24 42  1  0
 25 43  1  0
M  END
>  <smiles>  (50) 
C[C@@H](NC(=O)CNC(=O)c1cnc2ccccc2n1)c1ccccc1

>  <score_type>  (50) 
oracle

>  <origin>  (50) 
autodockgpu

>  <m_score__min__energy>  (50) 
-8.6199999999999992

>  <m_primary>  (50) 
energy

>  <rmsd>  (50) 
6.495372251003917

>  <m_score__min__rmsd>  (50) 
6.495372251003917

>  <meeko>  (50) 
{"free_energy": -7.76, "intermolecular_energy": -9.25, "internal_energy": -1.51, "cluster_size": 6, "cluster_id": 3, "rank_in_cluster": 5}

>  <energy>  (50) 
-7.36

>  <cluster_rmsd>  (50) 
0.29

>  <cluster>  (50) 
5

$$$$
