
     RDKit          3D

 57 60  0  0  0  0  0  0  0  0999 V2000
  142.1940   78.2560  221.3420 N   0  0  0  0  0  0  0  0  0  0  0  0
  140.9440   77.5640  221.1500 C   0  0  2  0  0  0  0  0  0  0  0  0
  139.9740   77.8900  222.3000 C   0  0  0  0  0  0  0  0  0  0  0  0
  139.1950   76.5670  222.5650 C   0  0  0  0  0  0  0  0  0  0  0  0
  139.5890   75.7710  221.3810 N   0  0  0  0  0  0  0  0  0  0  0  0
  138.8100   74.9270  220.5660 C   0  0  0  0  0  0  0  0  0  0  0  0
  138.4300   75.4380  219.4550 O   0  0  0  0  0  0  0  0  0  0  0  0
  138.3780   73.5530  220.8260 C   0  0  0  0  0  0  0  0  0  0  0  0
  138.6690   73.0430  222.1550 N   0  0  0  0  0  0  0  0  0  0  0  0
  139.5710   71.8830  222.1300 C   0  0  0  0  0  0  0  0  0  0  0  0
  139.9170   71.5190  221.0040 O   0  0  0  0  0  0  0  0  0  0  0  0
  139.9610   71.2960  223.3970 C   0  0  0  0  0  0  0  0  0  0  0  0
  140.6880   72.0510  224.2590 C   0  0  0  0  0  0  0  0  0  0  0  0
  141.0680   71.6100  225.5020 C   0  0  0  0  0  0  0  0  0  0  0  0
  140.6910   70.3480  225.8870 C   0  0  0  0  0  0  0  0  0  0  0  0
  141.0520   69.8900  227.1330 C   0  0  0  0  0  0  0  0  0  0  0  0
  140.6640   68.6330  227.5040 C   0  0  0  0  0  0  0  0  0  0  0  0
  141.1000   68.0030  229.0760 Cl  0  0  0  0  0  0  0  0  0  0  0  0
  139.9290   67.8760  226.6230 C   0  0  0  0  0  0  0  0  0  0  0  0
  139.5430   68.2870  225.3700 C   0  0  0  0  0  0  0  0  0  0  0  0
  139.9470   69.5790  225.0010 C   0  0  0  0  0  0  0  0  0  0  0  0
  139.5840   70.0350  223.7750 N   0  0  0  0  0  0  0  0  0  0  0  0
  141.0220   76.0910  221.2980 C   0  0  1  0  0  0  0  0  0  0  0  0
  141.8660   75.2980  220.4820 C   0  0  0  0  0  0  0  0  0  0  0  0
  142.7540   75.8390  219.7570 O   0  0  0  0  0  0  0  0  0  0  0  0
  141.8000   73.8740  220.4010 N   0  0  0  0  0  0  0  0  0  0  0  0
  142.6990   73.1310  219.5220 C   0  0  0  0  0  0  0  0  0  0  0  0
  144.1480   73.4250  219.9360 C   0  0  0  0  0  0  0  0  0  0  0  0
  144.4540   72.2760  220.8450 C   0  0  0  0  0  0  0  0  0  0  0  0
  143.7360   71.0890  220.2420 C   0  0  0  0  0  0  0  0  0  0  0  0
  142.5370   71.6880  219.5680 C   0  0  0  0  0  0  0  0  0  0  0  0
  142.9570   77.9250  220.7260 H   0  0  0  0  0  0  0  0  0  0  0  0
  142.4400   78.2480  222.3660 H   0  0  0  0  0  0  0  0  0  0  0  0
  140.6451   77.8756  220.1383 H   0  0  0  0  0  0  0  0  0  0  0  0
  140.5299   78.1968  223.1982 H   0  0  0  0  0  0  0  0  0  0  0  0
  139.2991   78.7205  222.0455 H   0  0  0  0  0  0  0  0  0  0  0  0
  139.5180   76.0876  223.5008 H   0  0  0  0  0  0  0  0  0  0  0  0
  138.1093   76.6945  222.6872 H   0  0  0  0  0  0  0  0  0  0  0  0
  137.2891   73.5069  220.6770 H   0  0  0  0  0  0  0  0  0  0  0  0
  138.9499   72.9216  220.1301 H   0  0  0  0  0  0  0  0  0  0  0  0
  138.3040   73.4270  223.0400 H   0  0  0  0  0  0  0  0  0  0  0  0
  140.9864   73.0628  223.9473 H   0  0  0  0  0  0  0  0  0  0  0  0
  141.6593   72.2514  226.1720 H   0  0  0  0  0  0  0  0  0  0  0  0
  141.6398   70.5214  227.8155 H   0  0  0  0  0  0  0  0  0  0  0  0
  139.6280   66.8680  226.9444 H   0  0  0  0  0  0  0  0  0  0  0  0
  138.9547   67.6440  224.6988 H   0  0  0  0  0  0  0  0  0  0  0  0
  141.6262   75.7880  222.1658 H   0  0  0  0  0  0  0  0  0  0  0  0
  141.1250   73.3130  220.9560 H   0  0  0  0  0  0  0  0  0  0  0  0
  142.4543   73.4620  218.5019 H   0  0  0  0  0  0  0  0  0  0  0  0
  144.8184   73.4337  219.0640 H   0  0  0  0  0  0  0  0  0  0  0  0
  144.2824   74.4099  220.4071 H   0  0  0  0  0  0  0  0  0  0  0  0
  145.5379   72.0924  220.8827 H   0  0  0  0  0  0  0  0  0  0  0  0
  144.1286   72.4714  221.8774 H   0  0  0  0  0  0  0  0  0  0  0  0
  144.3778   70.5746  219.5116 H   0  0  0  0  0  0  0  0  0  0  0  0
  143.4633   70.3345  220.9946 H   0  0  0  0  0  0  0  0  0  0  0  0
  142.4517   71.2926  218.5451 H   0  0  0  0  0  0  0  0  0  0  0  0
  141.6258   71.4315  220.1283 H   0  0  0  0  0  0  0  0  0  0  0  0
  1  2  1  0
  2  3  1  0
  3  4  1  0
  4  5  1  0
  5  6  1  0
  6  7  2  0
  6  8  1  0
  8  9  1  0
  9 10  1  0
 10 11  2  0
 10 12  1  0
 12 13  2  0
 13 14  1  0
 14 15  2  0
 15 16  1  0
 16 17  2  0
 17 18  1  0
 17 19  1  0
 19 20  2  0
 20 21  1  0
 21 22  2  0
  5 23  1  0
 23 24  1  0
 24 25  2  0
 24 26  1  0
 26 27  1  0
 27 28  1  0
 28 29  1  0
 29 30  1  0
 30 31  1  0
 23  2  1  0
 31 27  1  0
 22 12  1  0
 21 15  1  0
  1 32  1  0
  1 33  1  0
  2 34  1  6
  3 35  1  0
  3 36  1  0
  4 37  1  0
  4 38  1  0
  8 39  1  0
  8 40  1  0
  9 41  1  0
 13 42  1  0
 14 43  1  0
 16 44  1  0
 19 45  1  0
 20 46  1  0
 23 47  1  1
 26 48  1  0
 27 49  1  0
 28 50  1  0
 28 51  1  0
 29 52  1  0
 29 53  1  0
 30 54  1  0
 30 55  1  0
 31 56  1  0
 31 57  1  0
M  END
>  <smiles>  (1) 
N[C@@H]1CCN(C(=O)CNC(=O)c2ccc3cc(Cl)ccc3n2)[C@H]1C(=O)NC1CCCC1

>  <score_type>  (1) 
oracle

>  <origin>  (1) 
autodockgpu

>  <m_score__min__energy>  (1) 
-9.25

>  <m_primary>  (1) 
energy

>  <rmsd>  (1) 
5.329992301130753

>  <m_score__min__rmsd>  (1) 
5.329992301130753

>  <meeko>  (1) 
{"free_energy": -7.4, "intermolecular_energy": -9.49, "internal_energy": -3.16, "cluster_size": 13, "cluster_id": 2, "rank_in_cluster": 6}

>  <energy>  (1) 
-9.25

>  <cluster_rmsd>  (1) 
0.0

>  <cluster>  (1) 
1

$$$$

     RDKit          3D

 57 60  0  0  0  0  0  0  0  0999 V2000
  141.7190   77.8790  221.7070 N   0  0  0  0  0  0  0  0  0  0  0  0
  140.4400   77.3900  221.2540 C   0  0  2  0  0  0  0  0  0  0  0  0
  139.3040   78.2310  221.8650 C   0  0  0  0  0  0  0  0  0  0  0  0
  138.1530   77.2180  222.1460 C   0  0  0  0  0  0  0  0  0  0  0  0
  138.6430   76.0300  221.4120 N   0  0  0  0  0  0  0  0  0  0  0  0
  137.9370   75.1190  220.6030 C   0  0  0  0  0  0  0  0  0  0  0  0
  137.7470   75.4940  219.3930 O   0  0  0  0  0  0  0  0  0  0  0  0
  137.3910   73.8100  220.9650 C   0  0  0  0  0  0  0  0  0  0  0  0
  137.9630   73.1970  222.1520 N   0  0  0  0  0  0  0  0  0  0  0  0
  137.4920   71.8210  222.3600 C   0  0  0  0  0  0  0  0  0  0  0  0
  136.6850   71.4160  221.5210 O   0  0  0  0  0  0  0  0  0  0  0  0
  138.0110   71.0880  223.4990 C   0  0  0  0  0  0  0  0  0  0  0  0
  137.4140   69.9180  223.8360 C   0  0  0  0  0  0  0  0  0  0  0  0
  137.8550   69.1220  224.8650 C   0  0  0  0  0  0  0  0  0  0  0  0
  138.9520   69.5330  225.5800 C   0  0  0  0  0  0  0  0  0  0  0  0
  139.4170   68.7460  226.6070 C   0  0  0  0  0  0  0  0  0  0  0  0
  140.5150   69.1660  227.3060 C   0  0  0  0  0  0  0  0  0  0  0  0
  141.1440   68.2040  228.6230 Cl  0  0  0  0  0  0  0  0  0  0  0  0
  141.1120   70.3540  226.9570 C   0  0  0  0  0  0  0  0  0  0  0  0
  140.6870   71.1750  225.9400 C   0  0  0  0  0  0  0  0  0  0  0  0
  139.5600   70.7330  225.2300 C   0  0  0  0  0  0  0  0  0  0  0  0
  139.1050   71.5050  224.2100 N   0  0  0  0  0  0  0  0  0  0  0  0
  140.0680   76.0520  221.7730 C   0  0  1  0  0  0  0  0  0  0  0  0
  140.8660   74.9060  221.5310 C   0  0  0  0  0  0  0  0  0  0  0  0
  140.7290   73.8640  222.2390 O   0  0  0  0  0  0  0  0  0  0  0  0
  141.8590   74.8200  220.5080 N   0  0  0  0  0  0  0  0  0  0  0  0
  142.6500   73.6040  220.3340 C   0  0  0  0  0  0  0  0  0  0  0  0
  142.7640   73.3000  218.8340 C   0  0  0  0  0  0  0  0  0  0  0  0
  144.0750   73.9330  218.4840 C   0  0  0  0  0  0  0  0  0  0  0  0
  144.9610   73.7060  219.6900 C   0  0  0  0  0  0  0  0  0  0  0  0
  144.0070   73.6860  220.8470 C   0  0  0  0  0  0  0  0  0  0  0  0
  142.3500   78.1750  220.9430 H   0  0  0  0  0  0  0  0  0  0  0  0
  142.1450   77.1750  222.3630 H   0  0  0  0  0  0  0  0  0  0  0  0
  140.5451   77.4078  220.1592 H   0  0  0  0  0  0  0  0  0  0  0  0
  139.6359   78.7070  222.7995 H   0  0  0  0  0  0  0  0  0  0  0  0
  138.9844   79.0412  221.1931 H   0  0  0  0  0  0  0  0  0  0  0  0
  138.0471   77.0139  223.2217 H   0  0  0  0  0  0  0  0  0  0  0  0
  137.1559   77.5648  221.8369 H   0  0  0  0  0  0  0  0  0  0  0  0
  136.3104   73.9288  221.1329 H   0  0  0  0  0  0  0  0  0  0  0  0
  137.6405   73.1388  220.1300 H   0  0  0  0  0  0  0  0  0  0  0  0
  138.6300   73.6460  222.7990 H   0  0  0  0  0  0  0  0  0  0  0  0
  136.5364   69.5914  223.2589 H   0  0  0  0  0  0  0  0  0  0  0  0
  137.3424   68.1800  225.1095 H   0  0  0  0  0  0  0  0  0  0  0  0
  138.9171   67.7996  226.8608 H   0  0  0  0  0  0  0  0  0  0  0  0
  141.9938   70.6705  227.5334 H   0  0  0  0  0  0  0  0  0  0  0  0
  141.1978   72.1187  225.6979 H   0  0  0  0  0  0  0  0  0  0  0  0
  140.2854   75.9415  222.8456 H   0  0  0  0  0  0  0  0  0  0  0  0
  142.0570   75.6010  219.8530 H   0  0  0  0  0  0  0  0  0  0  0  0
  142.1232   72.8246  220.9041 H   0  0  0  0  0  0  0  0  0  0  0  0
  142.7813   72.2162  218.6465 H   0  0  0  0  0  0  0  0  0  0  0  0
  141.9181   73.6773  218.2406 H   0  0  0  0  0  0  0  0  0  0  0  0
  144.5077   73.4558  217.5924 H   0  0  0  0  0  0  0  0  0  0  0  0
  143.9654   75.0023  218.2503 H   0  0  0  0  0  0  0  0  0  0  0  0
  145.4947   72.7477  219.6075 H   0  0  0  0  0  0  0  0  0  0  0  0
  145.7361   74.4793  219.7956 H   0  0  0  0  0  0  0  0  0  0  0  0
  144.2152   72.8128  221.4827 H   0  0  0  0  0  0  0  0  0  0  0  0
  144.1257   74.6016  221.4450 H   0  0  0  0  0  0  0  0  0  0  0  0
  1  2  1  0
  2  3  1  0
  3  4  1  0
  4  5  1  0
  5  6  1  0
  6  7  2  0
  6  8  1  0
  8  9  1  0
  9 10  1  0
 10 11  2  0
 10 12  1  0
 12 13  2  0
 13 14  1  0
 14 15  2  0
 15 16  1  0
 16 17  2  0
 17 18  1  0
 17 19  1  0
 19 20  2  0
 20 21  1  0
 21 22  2  0
  5 23  1  0
 23 24  1  0
 24 25  2  0
 24 26  1  0
 26 27  1  0
 27 28  1  0
 28 29  1  0
 29 30  1  0
 30 31  1  0
 23  2  1  0
 31 27  1  0
 22 12  1  0
 21 15  1  0
  1 32  1  0
  1 33  1  0
  2 34  1  6
  3 35  1  0
  3 36  1  0
  4 37  1  0
  4 38  1  0
  8 39  1  0
  8 40  1  0
  9 41  1  0
 13 42  1  0
 14 43  1  0
 16 44  1  0
 19 45  1  0
 20 46  1  0
 23 47  1  1
 26 48  1  0
 27 49  1  0
 28 50  1  0
 28 51  1  0
 29 52  1  0
 29 53  1  0
 30 54  1  0
 30 55  1  0
 31 56  1  0
 31 57  1  0
M  END
>  <smiles>  (2) 
N[C@@H]1CCN(C(=O)CNC(=O)c2ccc3cc(Cl)ccc3n2)[C@H]1C(=O)NC1CCCC1

>  <score_type>  (2) 
oracle

>  <origin>  (2) 
autodockgpu

>  <m_score__min__energy>  (2) 
-9.25

>  <m_primary>  (2) 
energy

>  <rmsd>  (2) 
4.407431315990995

>  <m_score__min__rmsd>  (2) 
4.407431315990995

>  <meeko>  (2) 
{"free_energy": -7.7, "intermolecular_energy": -9.78, "internal_energy": -2.57, "cluster_size": 13, "cluster_id": 2, "rank_in_cluster": 5}

>  <energy>  (2) 
-9.2

>  <cluster_rmsd>  (2) 
0.55

>  <cluster>  (2) 
1

$$$$

     RDKit          3D

 57 60  0  0  0  0  0  0  0  0999 V2000
  136.7990   78.6360  223.4150 N   0  0  0  0  0  0  0  0  0  0  0  0
  136.6430   77.4930  222.5500 C   0  0  2  0  0  0  0  0  0  0  0  0
  135.3800   76.7030  222.9380 C   0  0  0  0  0  0  0  0  0  0  0  0
  135.7540   75.2050  222.7220 C   0  0  0  0  0  0  0  0  0  0  0  0
  137.0270   75.3410  221.9810 N   0  0  0  0  0  0  0  0  0  0  0  0
  137.5050   74.6130  220.8750 C   0  0  0  0  0  0  0  0  0  0  0  0
  136.9670   74.9070  219.7520 O   0  0  0  0  0  0  0  0  0  0  0  0
  138.5290   73.5660  220.8450 C   0  0  0  0  0  0  0  0  0  0  0  0
  139.0290   73.1380  222.1400 N   0  0  0  0  0  0  0  0  0  0  0  0
  139.0700   71.6760  222.2750 C   0  0  0  0  0  0  0  0  0  0  0  0
  138.6620   71.0520  221.2930 O   0  0  0  0  0  0  0  0  0  0  0  0
  139.5770   71.1200  223.5150 C   0  0  0  0  0  0  0  0  0  0  0  0
  140.3580   71.9050  224.2990 C   0  0  0  0  0  0  0  0  0  0  0  0
  140.8490   71.4940  225.5140 C   0  0  0  0  0  0  0  0  0  0  0  0
  140.5320   70.2330  225.9510 C   0  0  0  0  0  0  0  0  0  0  0  0
  141.0050   69.8040  227.1690 C   0  0  0  0  0  0  0  0  0  0  0  0
  140.6740   68.5470  227.5930 C   0  0  0  0  0  0  0  0  0  0  0  0
  141.2530   67.9550  229.1330 Cl  0  0  0  0  0  0  0  0  0  0  0  0
  139.8840   67.7600  226.7900 C   0  0  0  0  0  0  0  0  0  0  0  0
  139.3860   68.1400  225.5670 C   0  0  0  0  0  0  0  0  0  0  0  0
  139.7320   69.4330  225.1430 C   0  0  0  0  0  0  0  0  0  0  0  0
  139.2580   69.8590  223.9440 N   0  0  0  0  0  0  0  0  0  0  0  0
  137.6650   76.4350  222.7290 C   0  0  1  0  0  0  0  0  0  0  0  0
  139.0480   76.6900  222.5470 C   0  0  0  0  0  0  0  0  0  0  0  0
  139.8580   75.7360  222.3470 O   0  0  0  0  0  0  0  0  0  0  0  0
  139.6350   77.9920  222.5700 N   0  0  0  0  0  0  0  0  0  0  0  0
  141.0740   78.1670  222.3880 C   0  0  0  0  0  0  0  0  0  0  0  0
  141.3090   79.3040  221.3840 C   0  0  0  0  0  0  0  0  0  0  0  0
  141.5070   80.4830  222.2840 C   0  0  0  0  0  0  0  0  0  0  0  0
  142.2570   79.9460  223.4840 C   0  0  0  0  0  0  0  0  0  0  0  0
  141.7980   78.5220  223.5970 C   0  0  0  0  0  0  0  0  0  0  0  0
  136.4730   79.5260  222.9990 H   0  0  0  0  0  0  0  0  0  0  0  0
  137.7910   78.6700  223.7670 H   0  0  0  0  0  0  0  0  0  0  0  0
  136.6663   77.9415  221.5458 H   0  0  0  0  0  0  0  0  0  0  0  0
  135.1175   76.8874  223.9902 H   0  0  0  0  0  0  0  0  0  0  0  0
  134.5078   77.0003  222.3373 H   0  0  0  0  0  0  0  0  0  0  0  0
  135.8965   74.6813  223.6788 H   0  0  0  0  0  0  0  0  0  0  0  0
  134.9854   74.6142  222.2022 H   0  0  0  0  0  0  0  0  0  0  0  0
  138.0997   72.6875  220.3411 H   0  0  0  0  0  0  0  0  0  0  0  0
  139.3909   74.0038  220.3201 H   0  0  0  0  0  0  0  0  0  0  0  0
  139.3330   73.7620  222.9040 H   0  0  0  0  0  0  0  0  0  0  0  0
  140.6092   72.9160  223.9456 H   0  0  0  0  0  0  0  0  0  0  0  0
  141.4804   72.1592  226.1213 H   0  0  0  0  0  0  0  0  0  0  0  0
  141.6360   70.4580  227.7887 H   0  0  0  0  0  0  0  0  0  0  0  0
  139.6319   66.7525  227.1526 H   0  0  0  0  0  0  0  0  0  0  0  0
  138.7564   67.4737  224.9589 H   0  0  0  0  0  0  0  0  0  0  0  0
  137.8722   76.2252  223.7887 H   0  0  0  0  0  0  0  0  0  0  0  0
  139.0750   78.8550  222.7110 H   0  0  0  0  0  0  0  0  0  0  0  0
  141.4503   77.1912  222.0470 H   0  0  0  0  0  0  0  0  0  0  0  0
  142.2023   79.1161  220.7702 H   0  0  0  0  0  0  0  0  0  0  0  0
  140.4895   79.4321  220.6615 H   0  0  0  0  0  0  0  0  0  0  0  0
  142.0972   81.2605  221.7768 H   0  0  0  0  0  0  0  0  0  0  0  0
  140.5512   80.9461  222.5705 H   0  0  0  0  0  0  0  0  0  0  0  0
  143.3434   79.9939  223.3186 H   0  0  0  0  0  0  0  0  0  0  0  0
  142.0609   80.5260  224.3979 H   0  0  0  0  0  0  0  0  0  0  0  0
  142.6692   77.8607  223.7140 H   0  0  0  0  0  0  0  0  0  0  0  0
  141.1421   78.4087  224.4728 H   0  0  0  0  0  0  0  0  0  0  0  0
  1  2  1  0
  2  3  1  0
  3  4  1  0
  4  5  1  0
  5  6  1  0
  6  7  2  0
  6  8  1  0
  8  9  1  0
  9 10  1  0
 10 11  2  0
 10 12  1  0
 12 13  2  0
 13 14  1  0
 14 15  2  0
 15 16  1  0
 16 17  2  0
 17 18  1  0
 17 19  1  0
 19 20  2  0
 20 21  1  0
 21 22  2  0
  5 23  1  0
 23 24  1  0
 24 25  2  0
 24 26  1  0
 26 27  1  0
 27 28  1  0
 28 29  1  0
 29 30  1  0
 30 31  1  0
 23  2  1  0
 31 27  1  0
 22 12  1  0
 21 15  1  0
  1 32  1  0
  1 33  1  0
  2 34  1  6
  3 35  1  0
  3 36  1  0
  4 37  1  0
  4 38  1  0
  8 39  1  0
  8 40  1  0
  9 41  1  0
 13 42  1  0
 14 43  1  0
 16 44  1  0
 19 45  1  0
 20 46  1  0
 23 47  1  1
 26 48  1  0
 27 49  1  0
 28 50  1  0
 28 51  1  0
 29 52  1  0
 29 53  1  0
 30 54  1  0
 30 55  1  0
 31 56  1  0
 31 57  1  0
M  END
>  <smiles>  (3) 
N[C@@H]1CCN(C(=O)CNC(=O)c2ccc3cc(Cl)ccc3n2)[C@H]1C(=O)NC1CCCC1

>  <score_type>  (3) 
oracle

>  <origin>  (3) 
autodockgpu

>  <m_score__min__energy>  (3) 
-9.25

>  <m_primary>  (3) 
energy

>  <rmsd>  (3) 
3.719589119246202

>  <m_score__min__rmsd>  (3) 
3.719589119246202

>  <meeko>  (3) 
{"free_energy": -7.63, "intermolecular_energy": -9.72, "internal_energy": -2.47, "cluster_size": 6, "cluster_id": 6, "rank_in_cluster": 3}

>  <energy>  (3) 
-8.76

>  <cluster_rmsd>  (3) 
0.53

>  <cluster>  (3) 
1

$$$$

     RDKit          3D

 57 60  0  0  0  0  0  0  0  0999 V2000
  142.9100   79.1290  218.1860 N   0  0  0  0  0  0  0  0  0  0  0  0
  142.3500   77.8990  218.6890 C   0  0  2  0  0  0  0  0  0  0  0  0
  141.7550   77.0760  217.5320 C   0  0  0  0  0  0  0  0  0  0  0  0
  140.4800   76.4020  218.1250 C   0  0  0  0  0  0  0  0  0  0  0  0
  140.6690   76.6720  219.5670 N   0  0  0  0  0  0  0  0  0  0  0  0
  140.4440   75.8340  220.6760 C   0  0  0  0  0  0  0  0  0  0  0  0
  141.3150   75.9170  221.6110 O   0  0  0  0  0  0  0  0  0  0  0  0
  139.3540   74.8810  220.8930 C   0  0  0  0  0  0  0  0  0  0  0  0
  139.4180   74.1240  222.1320 N   0  0  0  0  0  0  0  0  0  0  0  0
  139.6580   72.6930  221.9070 C   0  0  0  0  0  0  0  0  0  0  0  0
  139.7470   72.3600  220.7230 O   0  0  0  0  0  0  0  0  0  0  0  0
  139.7700   71.8300  223.0680 C   0  0  0  0  0  0  0  0  0  0  0  0
  139.3650   70.5400  222.9510 C   0  0  0  0  0  0  0  0  0  0  0  0
  139.4740   69.6270  223.9720 C   0  0  0  0  0  0  0  0  0  0  0  0
  140.0170   70.0430  225.1610 C   0  0  0  0  0  0  0  0  0  0  0  0
  140.1440   69.1440  226.1930 C   0  0  0  0  0  0  0  0  0  0  0  0
  140.6940   69.5720  227.3690 C   0  0  0  0  0  0  0  0  0  0  0  0
  140.8740   68.4670  228.7130 Cl  0  0  0  0  0  0  0  0  0  0  0  0
  141.0990   70.8810  227.4770 C   0  0  0  0  0  0  0  0  0  0  0  0
  140.9950   71.8180  226.4770 C   0  0  0  0  0  0  0  0  0  0  0  0
  140.4300   71.3660  225.2750 C   0  0  0  0  0  0  0  0  0  0  0  0
  140.3120   72.2520  224.2520 N   0  0  0  0  0  0  0  0  0  0  0  0
  141.1390   78.0650  219.5270 C   0  0  1  0  0  0  0  0  0  0  0  0
  141.1520   78.8310  220.7200 C   0  0  0  0  0  0  0  0  0  0  0  0
  141.7680   79.9370  220.7690 O   0  0  0  0  0  0  0  0  0  0  0  0
  140.4980   78.4450  221.9290 N   0  0  0  0  0  0  0  0  0  0  0  0
  140.5720   79.2860  223.1210 C   0  0  0  0  0  0  0  0  0  0  0  0
  141.9170   79.0380  223.8180 C   0  0  0  0  0  0  0  0  0  0  0  0
  142.7660   80.1390  223.2640 C   0  0  0  0  0  0  0  0  0  0  0  0
  141.8380   81.3260  223.1260 C   0  0  0  0  0  0  0  0  0  0  0  0
  140.4950   80.7130  222.8610 C   0  0  0  0  0  0  0  0  0  0  0  0
  143.7190   78.9960  217.5550 H   0  0  0  0  0  0  0  0  0  0  0  0
  143.1030   79.7760  218.9940 H   0  0  0  0  0  0  0  0  0  0  0  0
  143.1914   77.4548  219.2410 H   0  0  0  0  0  0  0  0  0  0  0  0
  141.4889   77.7310  216.6893 H   0  0  0  0  0  0  0  0  0  0  0  0
  142.4695   76.3352  217.1437 H   0  0  0  0  0  0  0  0  0  0  0  0
  139.5603   76.8690  217.7428 H   0  0  0  0  0  0  0  0  0  0  0  0
  140.3680   75.3374  217.8718 H   0  0  0  0  0  0  0  0  0  0  0  0
  138.4080   75.4422  220.8880 H   0  0  0  0  0  0  0  0  0  0  0  0
  139.4367   74.1405  220.0838 H   0  0  0  0  0  0  0  0  0  0  0  0
  139.3130   74.5140  223.0810 H   0  0  0  0  0  0  0  0  0  0  0  0
  138.9300   70.2106  221.9959 H   0  0  0  0  0  0  0  0  0  0  0  0
  139.1345   68.5891  223.8393 H   0  0  0  0  0  0  0  0  0  0  0  0
  139.8102   68.1025  226.0751 H   0  0  0  0  0  0  0  0  0  0  0  0
  141.5382   71.2019  228.4331 H   0  0  0  0  0  0  0  0  0  0  0  0
  141.3332   72.8562  226.6105 H   0  0  0  0  0  0  0  0  0  0  0  0
  140.4300   78.7911  219.1027 H   0  0  0  0  0  0  0  0  0  0  0  0
  139.9480   77.5680  222.0130 H   0  0  0  0  0  0  0  0  0  0  0  0
  139.6999   79.0093  223.7317 H   0  0  0  0  0  0  0  0  0  0  0  0
  141.8212   79.1192  224.9108 H   0  0  0  0  0  0  0  0  0  0  0  0
  142.3271   78.0325  223.6427 H   0  0  0  0  0  0  0  0  0  0  0  0
  143.5914   80.3729  223.9524 H   0  0  0  0  0  0  0  0  0  0  0  0
  143.2231   79.8611  222.3028 H   0  0  0  0  0  0  0  0  0  0  0  0
  141.8208   81.9178  224.0531 H   0  0  0  0  0  0  0  0  0  0  0  0
  142.1514   82.0159  222.3286 H   0  0  0  0  0  0  0  0  0  0  0  0
  139.7435   81.1692  223.5221 H   0  0  0  0  0  0  0  0  0  0  0  0
  140.2048   80.8870  221.8143 H   0  0  0  0  0  0  0  0  0  0  0  0
  1  2  1  0
  2  3  1  0
  3  4  1  0
  4  5  1  0
  5  6  1  0
  6  7  2  0
  6  8  1  0
  8  9  1  0
  9 10  1  0
 10 11  2  0
 10 12  1  0
 12 13  2  0
 13 14  1  0
 14 15  2  0
 15 16  1  0
 16 17  2  0
 17 18  1  0
 17 19  1  0
 19 20  2  0
 20 21  1  0
 21 22  2  0
  5 23  1  0
 23 24  1  0
 24 25  2  0
 24 26  1  0
 26 27  1  0
 27 28  1  0
 28 29  1  0
 29 30  1  0
 30 31  1  0
 23  2  1  0
 31 27  1  0
 22 12  1  0
 21 15  1  0
  1 32  1  0
  1 33  1  0
  2 34  1  1
  3 35  1  0
  3 36  1  0
  4 37  1  0
  4 38  1  0
  8 39  1  0
  8 40  1  0
  9 41  1  0
 13 42  1  0
 14 43  1  0
 16 44  1  0
 19 45  1  0
 20 46  1  0
 23 47  1  6
 26 48  1  0
 27 49  1  0
 28 50  1  0
 28 51  1  0
 29 52  1  0
 29 53  1  0
 30 54  1  0
 30 55  1  0
 31 56  1  0
 31 57  1  0
M  END
>  <smiles>  (4) 
N[C@@H]1CCN(C(=O)CNC(=O)c2ccc3cc(Cl)ccc3n2)[C@H]1C(=O)NC1CCCC1

>  <score_type>  (4) 
oracle

>  <origin>  (4) 
autodockgpu

>  <m_score__min__energy>  (4) 
-9.25

>  <m_primary>  (4) 
energy

>  <rmsd>  (4) 
2.1824189272894707

>  <m_score__min__rmsd>  (4) 
2.1824189272894707

>  <meeko>  (4) 
{"free_energy": -8.76, "intermolecular_energy": -10.85, "internal_energy": -2.17, "cluster_size": 17, "cluster_id": 1, "rank_in_cluster": 3}

>  <energy>  (4) 
-8.73

>  <cluster_rmsd>  (4) 
1.05

>  <cluster>  (4) 
1

$$$$

     RDKit          3D

 57 60  0  0  0  0  0  0  0  0999 V2000
  141.8200   77.8450  221.5140 N   0  0  0  0  0  0  0  0  0  0  0  0
  140.5290   77.2800  221.2050 C   0  0  2  0  0  0  0  0  0  0  0  0
  139.4420   77.9330  222.0760 C   0  0  0  0  0  0  0  0  0  0  0  0
  138.4390   76.7860  222.4040 C   0  0  0  0  0  0  0  0  0  0  0  0
  138.9000   75.7380  221.4680 N   0  0  0  0  0  0  0  0  0  0  0  0
  138.1510   74.8500  220.6720 C   0  0  0  0  0  0  0  0  0  0  0  0
  138.3920   74.9050  219.4160 O   0  0  0  0  0  0  0  0  0  0  0  0
  137.1340   73.8840  221.0930 C   0  0  0  0  0  0  0  0  0  0  0  0
  137.4040   73.1910  222.3410 N   0  0  0  0  0  0  0  0  0  0  0  0
  138.2350   71.9940  222.1540 C   0  0  0  0  0  0  0  0  0  0  0  0
  138.5530   71.7590  220.9870 O   0  0  0  0  0  0  0  0  0  0  0  0
  138.5990   71.2270  223.3300 C   0  0  0  0  0  0  0  0  0  0  0  0
  137.9110   70.0870  223.5920 C   0  0  0  0  0  0  0  0  0  0  0  0
  138.2060   69.2620  224.6490 C   0  0  0  0  0  0  0  0  0  0  0  0
  139.2440   69.6100  225.4750 C   0  0  0  0  0  0  0  0  0  0  0  0
  139.5630   68.7930  226.5350 C   0  0  0  0  0  0  0  0  0  0  0  0
  140.6050   69.1500  227.3450 C   0  0  0  0  0  0  0  0  0  0  0  0
  141.0480   68.1470  228.7070 Cl  0  0  0  0  0  0  0  0  0  0  0  0
  141.2930   70.3080  227.0720 C   0  0  0  0  0  0  0  0  0  0  0  0
  141.0160   71.1570  226.0280 C   0  0  0  0  0  0  0  0  0  0  0  0
  139.9450   70.7790  225.2030 C   0  0  0  0  0  0  0  0  0  0  0  0
  139.6350   71.5810  224.1520 N   0  0  0  0  0  0  0  0  0  0  0  0
  140.3580   75.8640  221.6100 C   0  0  1  0  0  0  0  0  0  0  0  0
  141.1990   74.8360  221.1150 C   0  0  0  0  0  0  0  0  0  0  0  0
  142.4580   74.9240  221.2240 O   0  0  0  0  0  0  0  0  0  0  0  0
  140.7250   73.6510  220.4730 N   0  0  0  0  0  0  0  0  0  0  0  0
  141.6600   72.6440  219.9770 C   0  0  0  0  0  0  0  0  0  0  0  0
  142.2680   73.1410  218.6590 C   0  0  0  0  0  0  0  0  0  0  0  0
  143.5450   73.7730  219.1210 C   0  0  0  0  0  0  0  0  0  0  0  0
  144.0300   72.9030  220.2590 C   0  0  0  0  0  0  0  0  0  0  0  0
  142.7720   72.3590  220.8690 C   0  0  0  0  0  0  0  0  0  0  0  0
  142.1060   78.6120  220.8810 H   0  0  0  0  0  0  0  0  0  0  0  0
  142.5270   77.0690  221.5880 H   0  0  0  0  0  0  0  0  0  0  0  0
  140.4537   77.4235  220.1170 H   0  0  0  0  0  0  0  0  0  0  0  0
  139.8799   78.3387  222.9999 H   0  0  0  0  0  0  0  0  0  0  0  0
  138.9525   78.7733  221.5620 H   0  0  0  0  0  0  0  0  0  0  0  0
  138.5253   76.4600  223.4510 H   0  0  0  0  0  0  0  0  0  0  0  0
  137.3799   77.0618  222.2929 H   0  0  0  0  0  0  0  0  0  0  0  0
  136.1814   74.4226  221.2044 H   0  0  0  0  0  0  0  0  0  0  0  0
  137.1175   73.1066  220.3150 H   0  0  0  0  0  0  0  0  0  0  0  0
  137.0670   73.4780  223.2730 H   0  0  0  0  0  0  0  0  0  0  0  0
  137.0791   69.8114  222.9272 H   0  0  0  0  0  0  0  0  0  0  0  0
  137.6248   68.3455  224.8287 H   0  0  0  0  0  0  0  0  0  0  0  0
  138.9921   67.8725  226.7267 H   0  0  0  0  0  0  0  0  0  0  0  0
  142.1266   70.5746  227.7383 H   0  0  0  0  0  0  0  0  0  0  0  0
  141.5964   72.0743  225.8500 H   0  0  0  0  0  0  0  0  0  0  0  0
  140.7540   75.6624  222.6162 H   0  0  0  0  0  0  0  0  0  0  0  0
  139.7150   73.4550  220.3360 H   0  0  0  0  0  0  0  0  0  0  0  0
  141.0713   71.7209  219.8708 H   0  0  0  0  0  0  0  0  0  0  0  0
  142.4623   72.3065  217.9692 H   0  0  0  0  0  0  0  0  0  0  0  0
  141.6128   73.8249  218.0995 H   0  0  0  0  0  0  0  0  0  0  0  0
  144.2839   73.7895  218.3063 H   0  0  0  0  0  0  0  0  0  0  0  0
  143.3964   74.8164  219.4361 H   0  0  0  0  0  0  0  0  0  0  0  0
  144.6655   72.0876  219.8831 H   0  0  0  0  0  0  0  0  0  0  0  0
  144.6426   73.4599  220.9833 H   0  0  0  0  0  0  0  0  0  0  0  0
  142.8673   71.2717  221.0060 H   0  0  0  0  0  0  0  0  0  0  0  0
  142.5968   72.8288  221.8481 H   0  0  0  0  0  0  0  0  0  0  0  0
  1  2  1  0
  2  3  1  0
  3  4  1  0
  4  5  1  0
  5  6  1  0
  6  7  2  0
  6  8  1  0
  8  9  1  0
  9 10  1  0
 10 11  2  0
 10 12  1  0
 12 13  2  0
 13 14  1  0
 14 15  2  0
 15 16  1  0
 16 17  2  0
 17 18  1  0
 17 19  1  0
 19 20  2  0
 20 21  1  0
 21 22  2  0
  5 23  1  0
 23 24  1  0
 24 25  2  0
 24 26  1  0
 26 27  1  0
 27 28  1  0
 28 29  1  0
 29 30  1  0
 30 31  1  0
 23  2  1  0
 31 27  1  0
 22 12  1  0
 21 15  1  0
  1 32  1  0
  1 33  1  0
  2 34  1  6
  3 35  1  0
  3 36  1  0
  4 37  1  0
  4 38  1  0
  8 39  1  0
  8 40  1  0
  9 41  1  0
 13 42  1  0
 14 43  1  0
 16 44  1  0
 19 45  1  0
 20 46  1  0
 23 47  1  1
 26 48  1  0
 27 49  1  0
 28 50  1  0
 28 51  1  0
 29 52  1  0
 29 53  1  0
 30 54  1  0
 30 55  1  0
 31 56  1  0
 31 57  1  0
M  END
>  <smiles>  (5) 
N[C@@H]1CCN(C(=O)CNC(=O)c2ccc3cc(Cl)ccc3n2)[C@H]1C(=O)NC1CCCC1

>  <score_type>  (5) 
oracle

>  <origin>  (5) 
autodockgpu

>  <m_score__min__energy>  (5) 
-9.25

>  <m_primary>  (5) 
energy

>  <rmsd>  (5) 
4.647166751777174

>  <m_score__min__rmsd>  (5) 
4.647166751777174

>  <meeko>  (5) 
{"free_energy": -6.79, "intermolecular_energy": -8.88, "internal_energy": -3.22, "cluster_size": 13, "cluster_id": 2, "rank_in_cluster": 13}

>  <energy>  (5) 
-8.68

>  <cluster_rmsd>  (5) 
0.65

>  <cluster>  (5) 
1

$$$$

     RDKit          3D

 57 60  0  0  0  0  0  0  0  0999 V2000
  142.9970   78.9250  218.2180 N   0  0  0  0  0  0  0  0  0  0  0  0
  142.6350   77.6050  218.6740 C   0  0  2  0  0  0  0  0  0  0  0  0
  142.5610   76.6340  217.4820 C   0  0  0  0  0  0  0  0  0  0  0  0
  141.3750   75.6770  217.8080 C   0  0  0  0  0  0  0  0  0  0  0  0
  141.1250   76.0190  219.2260 N   0  0  0  0  0  0  0  0  0  0  0  0
  140.8330   75.1750  220.3150 C   0  0  0  0  0  0  0  0  0  0  0  0
  141.8410   74.5760  220.8290 O   0  0  0  0  0  0  0  0  0  0  0  0
  139.5340   74.8940  220.9280 C   0  0  0  0  0  0  0  0  0  0  0  0
  139.5730   74.1260  222.1610 N   0  0  0  0  0  0  0  0  0  0  0  0
  139.7500   72.6870  221.9250 C   0  0  0  0  0  0  0  0  0  0  0  0
  139.8160   72.3590  220.7380 O   0  0  0  0  0  0  0  0  0  0  0  0
  139.8320   71.8120  223.0790 C   0  0  0  0  0  0  0  0  0  0  0  0
  139.4380   70.5210  222.9360 C   0  0  0  0  0  0  0  0  0  0  0  0
  139.5210   69.5980  223.9500 C   0  0  0  0  0  0  0  0  0  0  0  0
  140.0270   70.0040  225.1590 C   0  0  0  0  0  0  0  0  0  0  0  0
  140.1280   69.0930  226.1850 C   0  0  0  0  0  0  0  0  0  0  0  0
  140.6410   69.5120  227.3810 C   0  0  0  0  0  0  0  0  0  0  0  0
  140.7870   68.3930  228.7170 Cl  0  0  0  0  0  0  0  0  0  0  0  0
  141.0350   70.8210  227.5150 C   0  0  0  0  0  0  0  0  0  0  0  0
  140.9550   71.7690  226.5230 C   0  0  0  0  0  0  0  0  0  0  0  0
  140.4290   71.3270  225.3000 C   0  0  0  0  0  0  0  0  0  0  0  0
  140.3360   72.2230  224.2840 N   0  0  0  0  0  0  0  0  0  0  0  0
  141.2480   77.4830  219.1820 C   0  0  1  0  0  0  0  0  0  0  0  0
  140.7800   78.2550  220.2750 C   0  0  0  0  0  0  0  0  0  0  0  0
  139.7110   78.9290  220.1770 O   0  0  0  0  0  0  0  0  0  0  0  0
  141.4400   78.3420  221.5390 N   0  0  0  0  0  0  0  0  0  0  0  0
  140.8970   79.1730  222.6110 C   0  0  0  0  0  0  0  0  0  0  0  0
  141.7800   79.0100  223.8560 C   0  0  0  0  0  0  0  0  0  0  0  0
  142.7140   80.1740  223.7330 C   0  0  0  0  0  0  0  0  0  0  0  0
  141.8780   81.2950  223.1560 C   0  0  0  0  0  0  0  0  0  0  0  0
  140.8550   80.5940  222.3130 C   0  0  0  0  0  0  0  0  0  0  0  0
  143.6890   78.9280  217.4480 H   0  0  0  0  0  0  0  0  0  0  0  0
  143.2790   79.5110  219.0460 H   0  0  0  0  0  0  0  0  0  0  0  0
  143.3911   77.3968  219.4453 H   0  0  0  0  0  0  0  0  0  0  0  0
  142.3683   77.1831  216.5485 H   0  0  0  0  0  0  0  0  0  0  0  0
  143.5041   76.0862  217.3387 H   0  0  0  0  0  0  0  0  0  0  0  0
  140.4979   75.8904  217.1793 H   0  0  0  0  0  0  0  0  0  0  0  0
  141.5852   74.6127  217.6263 H   0  0  0  0  0  0  0  0  0  0  0  0
  139.0469   75.8563  221.1443 H   0  0  0  0  0  0  0  0  0  0  0  0
  138.9885   74.2714  220.2036 H   0  0  0  0  0  0  0  0  0  0  0  0
  139.4920   74.5130  223.1140 H   0  0  0  0  0  0  0  0  0  0  0  0
  139.0342   70.1995  221.9647 H   0  0  0  0  0  0  0  0  0  0  0  0
  139.1903   68.5601  223.7966 H   0  0  0  0  0  0  0  0  0  0  0  0
  139.8034   68.0512  226.0462 H   0  0  0  0  0  0  0  0  0  0  0  0
  141.4444   71.1334  228.4870 H   0  0  0  0  0  0  0  0  0  0  0  0
  141.2824   72.8076  226.6782 H   0  0  0  0  0  0  0  0  0  0  0  0
  140.5180   77.9993  218.5412 H   0  0  0  0  0  0  0  0  0  0  0  0
  142.3160   77.8250  221.7490 H   0  0  0  0  0  0  0  0  0  0  0  0
  139.8616   78.8308  222.7552 H   0  0  0  0  0  0  0  0  0  0  0  0
  141.1844   79.0718  224.7787 H   0  0  0  0  0  0  0  0  0  0  0  0
  142.2903   78.0372  223.9123 H   0  0  0  0  0  0  0  0  0  0  0  0
  143.1099   80.4567  224.7196 H   0  0  0  0  0  0  0  0  0  0  0  0
  143.5812   79.9396  223.0982 H   0  0  0  0  0  0  0  0  0  0  0  0
  141.3939   81.8728  223.9571 H   0  0  0  0  0  0  0  0  0  0  0  0
  142.4780   82.0145  222.5794 H   0  0  0  0  0  0  0  0  0  0  0  0
  139.8543   80.9900  222.5405 H   0  0  0  0  0  0  0  0  0  0  0  0
  141.0723   80.7590  221.2474 H   0  0  0  0  0  0  0  0  0  0  0  0
  1  2  1  0
  2  3  1  0
  3  4  1  0
  4  5  1  0
  5  6  1  0
  6  7  2  0
  6  8  1  0
  8  9  1  0
  9 10  1  0
 10 11  2  0
 10 12  1  0
 12 13  2  0
 13 14  1  0
 14 15  2  0
 15 16  1  0
 16 17  2  0
 17 18  1  0
 17 19  1  0
 19 20  2  0
 20 21  1  0
 21 22  2  0
  5 23  1  0
 23 24  1  0
 24 25  2  0
 24 26  1  0
 26 27  1  0
 27 28  1  0
 28 29  1  0
 29 30  1  0
 30 31  1  0
 23  2  1  0
 31 27  1  0
 22 12  1  0
 21 15  1  0
  1 32  1  0
  1 33  1  0
  2 34  1  1
  3 35  1  0
  3 36  1  0
  4 37  1  0
  4 38  1  0
  8 39  1  0
  8 40  1  0
  9 41  1  0
 13 42  1  0
 14 43  1  0
 16 44  1  0
 19 45  1  0
 20 46  1  0
 23 47  1  6
 26 48  1  0
 27 49  1  0
 28 50  1  0
 28 51  1  0
 29 52  1  0
 29 53  1  0
 30 54  1  0
 30 55  1  0
 31 56  1  0
 31 57  1  0
M  END
>  <smiles>  (6) 
N[C@@H]1CCN(C(=O)CNC(=O)c2ccc3cc(Cl)ccc3n2)[C@H]1C(=O)NC1CCCC1

>  <score_type>  (6) 
oracle

>  <origin>  (6) 
autodockgpu

>  <m_score__min__energy>  (6) 
-9.25

>  <m_primary>  (6) 
energy

>  <rmsd>  (6) 
2.169317551644651

>  <m_score__min__rmsd>  (6) 
2.169317551644651

>  <meeko>  (6) 
{"free_energy": -9.2, "intermolecular_energy": -11.28, "internal_energy": -1.67, "cluster_size": 17, "cluster_id": 1, "rank_in_cluster": 2}

>  <energy>  (6) 
-8.57

>  <cluster_rmsd>  (6) 
1.35

>  <cluster>  (6) 
1

$$$$

     RDKit          3D

 57 60  0  0  0  0  0  0  0  0999 V2000
  136.0170   77.6710  223.4100 N   0  0  0  0  0  0  0  0  0  0  0  0
  136.2800   76.7020  222.3740 C   0  0  2  0  0  0  0  0  0  0  0  0
  135.4100   75.4500  222.5850 C   0  0  0  0  0  0  0  0  0  0  0  0
  136.3090   74.2520  222.1580 C   0  0  0  0  0  0  0  0  0  0  0  0
  137.4260   74.9640  221.4990 N   0  0  0  0  0  0  0  0  0  0  0  0
  138.1190   74.6490  220.3140 C   0  0  0  0  0  0  0  0  0  0  0  0
  138.1340   75.5710  219.4270 O   0  0  0  0  0  0  0  0  0  0  0  0
  138.8160   73.4090  219.9680 C   0  0  0  0  0  0  0  0  0  0  0  0
  138.8480   72.3930  221.0070 N   0  0  0  0  0  0  0  0  0  0  0  0
  139.7420   72.7480  222.1170 C   0  0  0  0  0  0  0  0  0  0  0  0
  140.3300   73.8240  221.9870 O   0  0  0  0  0  0  0  0  0  0  0  0
  139.8410   71.8270  223.2330 C   0  0  0  0  0  0  0  0  0  0  0  0
  139.4650   70.5380  223.0380 C   0  0  0  0  0  0  0  0  0  0  0  0
  139.5650   69.5750  224.0120 C   0  0  0  0  0  0  0  0  0  0  0  0
  140.0690   69.9370  225.2350 C   0  0  0  0  0  0  0  0  0  0  0  0
  140.1870   68.9860  226.2220 C   0  0  0  0  0  0  0  0  0  0  0  0
  140.6980   69.3620  227.4330 C   0  0  0  0  0  0  0  0  0  0  0  0
  140.8650   68.1910  228.7210 Cl  0  0  0  0  0  0  0  0  0  0  0  0
  141.0740   70.6700  227.6200 C   0  0  0  0  0  0  0  0  0  0  0  0
  140.9780   71.6570  226.6680 C   0  0  0  0  0  0  0  0  0  0  0  0
  140.4530   71.2590  225.4290 C   0  0  0  0  0  0  0  0  0  0  0  0
  140.3440   72.1950  224.4520 N   0  0  0  0  0  0  0  0  0  0  0  0
  137.6260   76.0840  222.4300 C   0  0  1  0  0  0  0  0  0  0  0  0
  138.8110   76.8580  222.3460 C   0  0  0  0  0  0  0  0  0  0  0  0
  138.9460   77.9080  223.0420 O   0  0  0  0  0  0  0  0  0  0  0  0
  139.9190   76.5400  221.5030 N   0  0  0  0  0  0  0  0  0  0  0  0
  141.1000   77.4000  221.4650 C   0  0  0  0  0  0  0  0  0  0  0  0
  142.0700   76.8580  220.4060 C   0  0  0  0  0  0  0  0  0  0  0  0
  141.7130   77.6760  219.2050 C   0  0  0  0  0  0  0  0  0  0  0  0
  141.3800   79.0500  219.7440 C   0  0  0  0  0  0  0  0  0  0  0  0
  140.8300   78.7840  221.1140 C   0  0  0  0  0  0  0  0  0  0  0  0
  136.8510   78.2070  223.7060 H   0  0  0  0  0  0  0  0  0  0  0  0
  135.5110   77.1990  224.2040 H   0  0  0  0  0  0  0  0  0  0  0  0
  136.1142   77.2788  221.4522 H   0  0  0  0  0  0  0  0  0  0  0  0
  135.1185   75.3563  223.6415 H   0  0  0  0  0  0  0  0  0  0  0  0
  134.4783   75.4935  222.0019 H   0  0  0  0  0  0  0  0  0  0  0  0
  136.6544   73.6748  223.0284 H   0  0  0  0  0  0  0  0  0  0  0  0
  135.8052   73.5085  221.5228 H   0  0  0  0  0  0  0  0  0  0  0  0
  138.3188   72.9763  219.0873 H   0  0  0  0  0  0  0  0  0  0  0  0
  139.8644   73.6929  219.7938 H   0  0  0  0  0  0  0  0  0  0  0  0
  138.3140   71.5100  221.0010 H   0  0  0  0  0  0  0  0  0  0  0  0
  139.0619   70.2514  222.0555 H   0  0  0  0  0  0  0  0  0  0  0  0
  139.2489   68.5397  223.8162 H   0  0  0  0  0  0  0  0  0  0  0  0
  139.8771   67.9462  226.0409 H   0  0  0  0  0  0  0  0  0  0  0  0
  141.4816   70.9478  228.6032 H   0  0  0  0  0  0  0  0  0  0  0  0
  141.2926   72.6925  226.8649 H   0  0  0  0  0  0  0  0  0  0  0  0
  137.9178   75.8026  223.4526 H   0  0  0  0  0  0  0  0  0  0  0  0
  139.9370   75.6990  220.8960 H   0  0  0  0  0  0  0  0  0  0  0  0
  141.5083   77.3877  222.4863 H   0  0  0  0  0  0  0  0  0  0  0  0
  143.1166   77.0206  220.7029 H   0  0  0  0  0  0  0  0  0  0  0  0
  141.9862   75.7733  220.2432 H   0  0  0  0  0  0  0  0  0  0  0  0
  142.5631   77.7305  218.5091 H   0  0  0  0  0  0  0  0  0  0  0  0
  140.8723   77.2394  218.6459 H   0  0  0  0  0  0  0  0  0  0  0  0
  142.2826   79.6762  219.8007 H   0  0  0  0  0  0  0  0  0  0  0  0
  140.6703   79.5936  219.1031 H   0  0  0  0  0  0  0  0  0  0  0  0
  141.3132   79.4515  221.8427 H   0  0  0  0  0  0  0  0  0  0  0  0
  139.7456   78.9680  221.1242 H   0  0  0  0  0  0  0  0  0  0  0  0
  1  2  1  0
  2  3  1  0
  3  4  1  0
  4  5  1  0
  5  6  1  0
  6  7  2  0
  6  8  1  0
  8  9  1  0
  9 10  1  0
 10 11  2  0
 10 12  1  0
 12 13  2  0
 13 14  1  0
 14 15  2  0
 15 16  1  0
 16 17  2  0
 17 18  1  0
 17 19  1  0
 19 20  2  0
 20 21  1  0
 21 22  2  0
  5 23  1  0
 23 24  1  0
 24 25  2  0
 24 26  1  0
 26 27  1  0
 27 28  1  0
 28 29  1  0
 29 30  1  0
 30 31  1  0
 23  2  1  0
 31 27  1  0
 22 12  1  0
 21 15  1  0
  1 32  1  0
  1 33  1  0
  2 34  1  6
  3 35  1  0
  3 36  1  0
  4 37  1  0
  4 38  1  0
  8 39  1  0
  8 40  1  0
  9 41  1  0
 13 42  1  0
 14 43  1  0
 16 44  1  0
 19 45  1  0
 20 46  1  0
 23 47  1  1
 26 48  1  0
 27 49  1  0
 28 50  1  0
 28 51  1  0
 29 52  1  0
 29 53  1  0
 30 54  1  0
 30 55  1  0
 31 56  1  0
 31 57  1  0
M  END
>  <smiles>  (7) 
N[C@@H]1CCN(C(=O)CNC(=O)c2ccc3cc(Cl)ccc3n2)[C@H]1C(=O)NC1CCCC1

>  <score_type>  (7) 
oracle

>  <origin>  (7) 
autodockgpu

>  <m_score__min__energy>  (7) 
-9.25

>  <m_primary>  (7) 
energy

>  <rmsd>  (7) 
3.23343725733166

>  <m_score__min__rmsd>  (7) 
3.23343725733166

>  <meeko>  (7) 
{"free_energy": -6.48, "intermolecular_energy": -8.57, "internal_energy": -3.46, "cluster_size": 6, "cluster_id": 6, "rank_in_cluster": 6}

>  <energy>  (7) 
-8.46

>  <cluster_rmsd>  (7) 
0.79

>  <cluster>  (7) 
1

$$$$

     RDKit          3D

 57 60  0  0  0  0  0  0  0  0999 V2000
  135.3940   79.2120  222.9800 N   0  0  0  0  0  0  0  0  0  0  0  0
  136.1140   78.1450  222.3300 C   0  0  2  0  0  0  0  0  0  0  0  0
  135.5820   76.7800  222.8050 C   0  0  0  0  0  0  0  0  0  0  0  0
  136.8360   75.8570  222.8780 C   0  0  0  0  0  0  0  0  0  0  0  0
  137.8370   76.6910  222.1760 N   0  0  0  0  0  0  0  0  0  0  0  0
  138.8200   76.3180  221.2390 C   0  0  0  0  0  0  0  0  0  0  0  0
  139.1030   77.2050  220.3610 O   0  0  0  0  0  0  0  0  0  0  0  0
  139.5500   75.0540  221.1380 C   0  0  0  0  0  0  0  0  0  0  0  0
  139.5210   74.2140  222.3240 N   0  0  0  0  0  0  0  0  0  0  0  0
  139.9390   72.8330  222.0490 C   0  0  0  0  0  0  0  0  0  0  0  0
  140.2250   72.6010  220.8720 O   0  0  0  0  0  0  0  0  0  0  0  0
  139.9800   71.8990  223.1580 C   0  0  0  0  0  0  0  0  0  0  0  0
  139.5590   70.6280  222.9440 C   0  0  0  0  0  0  0  0  0  0  0  0
  139.6010   69.6530  223.9100 C   0  0  0  0  0  0  0  0  0  0  0  0
  140.0930   69.9850  225.1470 C   0  0  0  0  0  0  0  0  0  0  0  0
  140.1540   69.0220  226.1270 C   0  0  0  0  0  0  0  0  0  0  0  0
  140.6530   69.3670  227.3520 C   0  0  0  0  0  0  0  0  0  0  0  0
  140.7480   68.1790  228.6320 Cl  0  0  0  0  0  0  0  0  0  0  0  0
  141.0750   70.6580  227.5590 C   0  0  0  0  0  0  0  0  0  0  0  0
  141.0360   71.6560  226.6150 C   0  0  0  0  0  0  0  0  0  0  0  0
  140.5230   71.2890  225.3620 C   0  0  0  0  0  0  0  0  0  0  0  0
  140.4700   72.2380  224.3910 N   0  0  0  0  0  0  0  0  0  0  0  0
  137.5330   78.0160  222.7370 C   0  0  1  0  0  0  0  0  0  0  0  0
  138.4610   79.0740  222.5680 C   0  0  0  0  0  0  0  0  0  0  0  0
  138.1050   80.2780  222.7370 O   0  0  0  0  0  0  0  0  0  0  0  0
  139.8310   78.8900  222.2050 N   0  0  0  0  0  0  0  0  0  0  0  0
  140.7200   80.0370  222.0350 C   0  0  0  0  0  0  0  0  0  0  0  0
  140.8730   80.7460  223.3880 C   0  0  0  0  0  0  0  0  0  0  0  0
  142.1320   80.1360  223.9220 C   0  0  0  0  0  0  0  0  0  0  0  0
  143.0210   79.9370  222.7140 C   0  0  0  0  0  0  0  0  0  0  0  0
  142.0600   79.7030  221.5860 C   0  0  0  0  0  0  0  0  0  0  0  0
  134.4470   79.3760  222.5950 H   0  0  0  0  0  0  0  0  0  0  0  0
  135.9990   80.0730  223.0020 H   0  0  0  0  0  0  0  0  0  0  0  0
  135.9975   78.3859  221.2630 H   0  0  0  0  0  0  0  0  0  0  0  0
  135.1124   76.8722  223.7955 H   0  0  0  0  0  0  0  0  0  0  0  0
  134.8145   76.3787  222.1268 H   0  0  0  0  0  0  0  0  0  0  0  0
  137.1326   75.6589  223.9186 H   0  0  0  0  0  0  0  0  0  0  0  0
  136.6910   74.8573  222.4427 H   0  0  0  0  0  0  0  0  0  0  0  0
  139.1174   74.4792  220.3058 H   0  0  0  0  0  0  0  0  0  0  0  0
  140.6050   75.3276  220.9895 H   0  0  0  0  0  0  0  0  0  0  0  0
  139.2460   74.5190  223.2700 H   0  0  0  0  0  0  0  0  0  0  0  0
  139.1657   70.3658  221.9507 H   0  0  0  0  0  0  0  0  0  0  0  0
  139.2494   68.6326  223.6977 H   0  0  0  0  0  0  0  0  0  0  0  0
  139.8088   67.9965  225.9294 H   0  0  0  0  0  0  0  0  0  0  0  0
  141.4731   70.9112  228.5527 H   0  0  0  0  0  0  0  0  0  0  0  0
  141.3847   72.6772  226.8283 H   0  0  0  0  0  0  0  0  0  0  0  0
  137.6679   78.1107  223.8246 H   0  0  0  0  0  0  0  0  0  0  0  0
  140.2480   77.9520  222.0520 H   0  0  0  0  0  0  0  0  0  0  0  0
  140.2531   80.6608  221.2586 H   0  0  0  0  0  0  0  0  0  0  0  0
  140.9797   81.8332  223.2591 H   0  0  0  0  0  0  0  0  0  0  0  0
  140.0052   80.6226  224.0526 H   0  0  0  0  0  0  0  0  0  0  0  0
  142.6109   80.8117  224.6460 H   0  0  0  0  0  0  0  0  0  0  0  0
  141.9385   79.1905  224.4498 H   0  0  0  0  0  0  0  0  0  0  0  0
  143.6318   80.8325  222.5270 H   0  0  0  0  0  0  0  0  0  0  0  0
  143.7294   79.1056  222.8440 H   0  0  0  0  0  0  0  0  0  0  0  0
  142.3323   80.3387  220.7306 H   0  0  0  0  0  0  0  0  0  0  0  0
  142.0979   78.6483  221.2758 H   0  0  0  0  0  0  0  0  0  0  0  0
  1  2  1  0
  2  3  1  0
  3  4  1  0
  4  5  1  0
  5  6  1  0
  6  7  2  0
  6  8  1  0
  8  9  1  0
  9 10  1  0
 10 11  2  0
 10 12  1  0
 12 13  2  0
 13 14  1  0
 14 15  2  0
 15 16  1  0
 16 17  2  0
 17 18  1  0
 17 19  1  0
 19 20  2  0
 20 21  1  0
 21 22  2  0
  5 23  1  0
 23 24  1  0
 24 25  2  0
 24 26  1  0
 26 27  1  0
 27 28  1  0
 28 29  1  0
 29 30  1  0
 30 31  1  0
 23  2  1  0
 31 27  1  0
 22 12  1  0
 21 15  1  0
  1 32  1  0
  1 33  1  0
  2 34  1  6
  3 35  1  0
  3 36  1  0
  4 37  1  0
  4 38  1  0
  8 39  1  0
  8 40  1  0
  9 41  1  0
 13 42  1  0
 14 43  1  0
 16 44  1  0
 19 45  1  0
 20 46  1  0
 23 47  1  1
 26 48  1  0
 27 49  1  0
 28 50  1  0
 28 51  1  0
 29 52  1  0
 29 53  1  0
 30 54  1  0
 30 55  1  0
 31 56  1  0
 31 57  1  0
M  END
>  <smiles>  (8) 
N[C@@H]1CCN(C(=O)CNC(=O)c2ccc3cc(Cl)ccc3n2)[C@H]1C(=O)NC1CCCC1

>  <score_type>  (8) 
oracle

>  <origin>  (8) 
autodockgpu

>  <m_score__min__energy>  (8) 
-9.25

>  <m_primary>  (8) 
energy

>  <rmsd>  (8) 
3.328914400859354

>  <m_score__min__rmsd>  (8) 
3.328914400859354

>  <meeko>  (8) 
{"free_energy": -7.54, "intermolecular_energy": -9.63, "internal_energy": -2.58, "cluster_size": 6, "cluster_id": 6, "rank_in_cluster": 5}

>  <energy>  (8) 
-8.45

>  <cluster_rmsd>  (8) 
1.05

>  <cluster>  (8) 
1

$$$$

     RDKit          3D

 57 60  0  0  0  0  0  0  0  0999 V2000
  142.8990   79.4100  218.1770 N   0  0  0  0  0  0  0  0  0  0  0  0
  142.4830   78.1120  218.6480 C   0  0  2  0  0  0  0  0  0  0  0  0
  141.9490   77.2680  217.4760 C   0  0  0  0  0  0  0  0  0  0  0  0
  140.7670   76.4450  218.0730 C   0  0  0  0  0  0  0  0  0  0  0  0
  140.9620   76.6870  219.5190 N   0  0  0  0  0  0  0  0  0  0  0  0
  140.8540   75.7940  220.6020 C   0  0  0  0  0  0  0  0  0  0  0  0
  141.3920   76.1910  221.6940 O   0  0  0  0  0  0  0  0  0  0  0  0
  140.2150   74.4780  220.6390 C   0  0  0  0  0  0  0  0  0  0  0  0
  140.3710   73.7370  221.8790 N   0  0  0  0  0  0  0  0  0  0  0  0
  139.5920   72.4920  221.8960 C   0  0  0  0  0  0  0  0  0  0  0  0
  138.9240   72.2830  220.8810 O   0  0  0  0  0  0  0  0  0  0  0  0
  139.6850   71.6460  223.0710 C   0  0  0  0  0  0  0  0  0  0  0  0
  139.1820   70.3880  222.9970 C   0  0  0  0  0  0  0  0  0  0  0  0
  139.2610   69.4900  224.0330 C   0  0  0  0  0  0  0  0  0  0  0  0
  139.8780   69.8870  225.1920 C   0  0  0  0  0  0  0  0  0  0  0  0
  139.9770   69.0010  226.2390 C   0  0  0  0  0  0  0  0  0  0  0  0
  140.6000   69.4100  227.3850 C   0  0  0  0  0  0  0  0  0  0  0  0
  140.7490   68.3210  228.7450 Cl  0  0  0  0  0  0  0  0  0  0  0  0
  141.1040   70.6870  227.4490 C   0  0  0  0  0  0  0  0  0  0  0  0
  141.0320   71.6100  226.4330 C   0  0  0  0  0  0  0  0  0  0  0  0
  140.3900   71.1770  225.2620 C   0  0  0  0  0  0  0  0  0  0  0  0
  140.3000   72.0490  224.2250 N   0  0  0  0  0  0  0  0  0  0  0  0
  141.2830   78.1230  219.5170 C   0  0  1  0  0  0  0  0  0  0  0  0
  141.2460   78.8470  220.7350 C   0  0  0  0  0  0  0  0  0  0  0  0
  141.9510   79.8880  220.8880 O   0  0  0  0  0  0  0  0  0  0  0  0
  140.4420   78.4860  221.8600 N   0  0  0  0  0  0  0  0  0  0  0  0
  140.4720   79.2790  223.0860 C   0  0  0  0  0  0  0  0  0  0  0  0
  141.7380   78.9190  223.8760 C   0  0  0  0  0  0  0  0  0  0  0  0
  142.6970   79.9810  223.4330 C   0  0  0  0  0  0  0  0  0  0  0  0
  141.8590   81.2300  223.2700 C   0  0  0  0  0  0  0  0  0  0  0  0
  140.5060   80.7170  222.8760 C   0  0  0  0  0  0  0  0  0  0  0  0
  143.7170   79.3850  217.5430 H   0  0  0  0  0  0  0  0  0  0  0  0
  143.0190   80.0540  219.0000 H   0  0  0  0  0  0  0  0  0  0  0  0
  143.3798   77.7408  219.1657 H   0  0  0  0  0  0  0  0  0  0  0  0
  141.5948   77.9178  216.6622 H   0  0  0  0  0  0  0  0  0  0  0  0
  142.7272   76.6196  217.0471 H   0  0  0  0  0  0  0  0  0  0  0  0
  139.7942   76.8243  217.7268 H   0  0  0  0  0  0  0  0  0  0  0  0
  140.7612   75.3831  217.7861 H   0  0  0  0  0  0  0  0  0  0  0  0
  139.1385   74.6199  220.4631 H   0  0  0  0  0  0  0  0  0  0  0  0
  140.7178   73.8784  219.8659 H   0  0  0  0  0  0  0  0  0  0  0  0
  140.9570   74.0220  222.6800 H   0  0  0  0  0  0  0  0  0  0  0  0
  138.6889   70.0733  222.0654 H   0  0  0  0  0  0  0  0  0  0  0  0
  138.8403   68.4783  223.9359 H   0  0  0  0  0  0  0  0  0  0  0  0
  139.5637   67.9850  226.1561 H   0  0  0  0  0  0  0  0  0  0  0  0
  141.6013   70.9927  228.3813 H   0  0  0  0  0  0  0  0  0  0  0  0
  141.4504   72.6226  226.5311 H   0  0  0  0  0  0  0  0  0  0  0  0
  140.4918   78.7840  219.1335 H   0  0  0  0  0  0  0  0  0  0  0  0
  139.8110   77.6620  221.8550 H   0  0  0  0  0  0  0  0  0  0  0  0
  139.5380   79.0400  223.6157 H   0  0  0  0  0  0  0  0  0  0  0  0
  141.5598   78.9691  224.9603 H   0  0  0  0  0  0  0  0  0  0  0  0
  142.0968   77.8951  223.6945 H   0  0  0  0  0  0  0  0  0  0  0  0
  143.4776   80.1367  224.1922 H   0  0  0  0  0  0  0  0  0  0  0  0
  143.2116   79.7068  222.5002 H   0  0  0  0  0  0  0  0  0  0  0  0
  141.8040   81.7890  224.2158 H   0  0  0  0  0  0  0  0  0  0  0  0
  142.2786   81.9247  222.5275 H   0  0  0  0  0  0  0  0  0  0  0  0
  139.7335   81.1993  223.4930 H   0  0  0  0  0  0  0  0  0  0  0  0
  140.3130   80.9453  221.8174 H   0  0  0  0  0  0  0  0  0  0  0  0
  1  2  1  0
  2  3  1  0
  3  4  1  0
  4  5  1  0
  5  6  1  0
  6  7  2  0
  6  8  1  0
  8  9  1  0
  9 10  1  0
 10 11  2  0
 10 12  1  0
 12 13  2  0
 13 14  1  0
 14 15  2  0
 15 16  1  0
 16 17  2  0
 17 18  1  0
 17 19  1  0
 19 20  2  0
 20 21  1  0
 21 22  2  0
  5 23  1  0
 23 24  1  0
 24 25  2  0
 24 26  1  0
 26 27  1  0
 27 28  1  0
 28 29  1  0
 29 30  1  0
 30 31  1  0
 23  2  1  0
 31 27  1  0
 22 12  1  0
 21 15  1  0
  1 32  1  0
  1 33  1  0
  2 34  1  1
  3 35  1  0
  3 36  1  0
  4 37  1  0
  4 38  1  0
  8 39  1  0
  8 40  1  0
  9 41  1  0
 13 42  1  0
 14 43  1  0
 16 44  1  0
 19 45  1  0
 20 46  1  0
 23 47  1  6
 26 48  1  0
 27 49  1  0
 28 50  1  0
 28 51  1  0
 29 52  1  0
 29 53  1  0
 30 54  1  0
 30 55  1  0
 31 56  1  0
 31 57  1  0
M  END
>  <smiles>  (9) 
N[C@@H]1CCN(C(=O)CNC(=O)c2ccc3cc(Cl)ccc3n2)[C@H]1C(=O)NC1CCCC1

>  <score_type>  (9) 
oracle

>  <origin>  (9) 
autodockgpu

>  <m_score__min__energy>  (9) 
-9.25

>  <m_primary>  (9) 
energy

>  <rmsd>  (9) 
2.283805612119785

>  <m_score__min__rmsd>  (9) 
2.283805612119785

>  <meeko>  (9) 
{"free_energy": -8.21, "intermolecular_energy": -10.29, "internal_energy": -2.4, "cluster_size": 17, "cluster_id": 1, "rank_in_cluster": 15}

>  <energy>  (9) 
-8.45

>  <cluster_rmsd>  (9) 
0.49

>  <cluster>  (9) 
1

$$$$

     RDKit          3D

 57 60  0  0  0  0  0  0  0  0999 V2000
  142.5320   78.4440  218.8690 N   0  0  0  0  0  0  0  0  0  0  0  0
  141.9260   77.2040  219.2900 C   0  0  2  0  0  0  0  0  0  0  0  0
  141.6360   76.3140  218.0680 C   0  0  0  0  0  0  0  0  0  0  0  0
  140.2920   75.5970  218.3950 C   0  0  0  0  0  0  0  0  0  0  0  0
  140.1450   75.9240  219.8300 N   0  0  0  0  0  0  0  0  0  0  0  0
  139.7160   75.1130  220.8980 C   0  0  0  0  0  0  0  0  0  0  0  0
  140.2640   75.3610  222.0280 O   0  0  0  0  0  0  0  0  0  0  0  0
  138.7360   74.0260  220.8810 C   0  0  0  0  0  0  0  0  0  0  0  0
  138.6790   73.2110  222.0830 N   0  0  0  0  0  0  0  0  0  0  0  0
  139.8220   72.2960  222.1990 C   0  0  0  0  0  0  0  0  0  0  0  0
  140.6270   72.3480  221.2670 O   0  0  0  0  0  0  0  0  0  0  0  0
  139.8980   71.4450  223.3720 C   0  0  0  0  0  0  0  0  0  0  0  0
  139.4720   70.1620  223.2620 C   0  0  0  0  0  0  0  0  0  0  0  0
  139.5440   69.2590  224.2950 C   0  0  0  0  0  0  0  0  0  0  0  0
  140.0740   69.6800  225.4890 C   0  0  0  0  0  0  0  0  0  0  0  0
  140.1650   68.7900  226.5340 C   0  0  0  0  0  0  0  0  0  0  0  0
  140.7010   69.2220  227.7150 C   0  0  0  0  0  0  0  0  0  0  0  0
  140.8360   68.1300  229.0740 Cl  0  0  0  0  0  0  0  0  0  0  0  0
  141.1270   70.5240  227.8150 C   0  0  0  0  0  0  0  0  0  0  0  0
  141.0590   71.4510  226.8030 C   0  0  0  0  0  0  0  0  0  0  0  0
  140.5080   70.9950  225.5960 C   0  0  0  0  0  0  0  0  0  0  0  0
  140.4250   71.8710  224.5610 N   0  0  0  0  0  0  0  0  0  0  0  0
  140.5540   77.3370  219.8340 C   0  0  1  0  0  0  0  0  0  0  0  0
  140.2710   78.1410  220.9660 C   0  0  0  0  0  0  0  0  0  0  0  0
  139.2200   77.9490  221.6470 O   0  0  0  0  0  0  0  0  0  0  0  0
  141.1090   79.2020  221.4270 N   0  0  0  0  0  0  0  0  0  0  0  0
  140.7360   79.9950  222.5970 C   0  0  0  0  0  0  0  0  0  0  0  0
  141.4380   79.4120  223.8310 C   0  0  0  0  0  0  0  0  0  0  0  0
  142.6660   80.2640  223.9260 C   0  0  0  0  0  0  0  0  0  0  0  0
  142.2240   81.6480  223.5020 C   0  0  0  0  0  0  0  0  0  0  0  0
  141.1150   81.3960  222.5240 C   0  0  0  0  0  0  0  0  0  0  0  0
  143.5620   78.4600  218.9600 H   0  0  0  0  0  0  0  0  0  0  0  0
  142.0500   79.2450  219.3530 H   0  0  0  0  0  0  0  0  0  0  0  0
  142.6426   76.8212  220.0316 H   0  0  0  0  0  0  0  0  0  0  0  0
  141.5355   76.9265  217.1598 H   0  0  0  0  0  0  0  0  0  0  0  0
  142.4490   75.5975  217.8788 H   0  0  0  0  0  0  0  0  0  0  0  0
  139.4610   76.0037  217.8000 H   0  0  0  0  0  0  0  0  0  0  0  0
  140.2840   74.5202  218.1703 H   0  0  0  0  0  0  0  0  0  0  0  0
  137.7415   74.4698  220.7259 H   0  0  0  0  0  0  0  0  0  0  0  0
  139.0526   73.3489  220.0740 H   0  0  0  0  0  0  0  0  0  0  0  0
  137.9360   73.2440  222.7970 H   0  0  0  0  0  0  0  0  0  0  0  0
  139.0497   69.8294  222.3023 H   0  0  0  0  0  0  0  0  0  0  0  0
  139.1865   68.2264  224.1685 H   0  0  0  0  0  0  0  0  0  0  0  0
  139.8141   67.7535  226.4217 H   0  0  0  0  0  0  0  0  0  0  0  0
  141.5538   70.8483  228.7755 H   0  0  0  0  0  0  0  0  0  0  0  0
  141.4138   72.4843  226.9310 H   0  0  0  0  0  0  0  0  0  0  0  0
  139.9271   78.0127  219.2337 H   0  0  0  0  0  0  0  0  0  0  0  0
  142.0040   79.4490  220.9640 H   0  0  0  0  0  0  0  0  0  0  0  0
  139.6383   79.9479  222.6495 H   0  0  0  0  0  0  0  0  0  0  0  0
  140.8125   79.5116  224.7303 H   0  0  0  0  0  0  0  0  0  0  0  0
  141.6514   78.3358  223.7513 H   0  0  0  0  0  0  0  0  0  0  0  0
  143.0453   80.2798  224.9584 H   0  0  0  0  0  0  0  0  0  0  0  0
  143.4810   79.8816  223.2939 H   0  0  0  0  0  0  0  0  0  0  0  0
  141.8592   82.2229  224.3660 H   0  0  0  0  0  0  0  0  0  0  0  0
  143.0442   82.2375  223.0665 H   0  0  0  0  0  0  0  0  0  0  0  0
  140.2497   82.0268  222.7756 H   0  0  0  0  0  0  0  0  0  0  0  0
  141.4521   81.6396  221.5056 H   0  0  0  0  0  0  0  0  0  0  0  0
  1  2  1  0
  2  3  1  0
  3  4  1  0
  4  5  1  0
  5  6  1  0
  6  7  2  0
  6  8  1  0
  8  9  1  0
  9 10  1  0
 10 11  2  0
 10 12  1  0
 12 13  2  0
 13 14  1  0
 14 15  2  0
 15 16  1  0
 16 17  2  0
 17 18  1  0
 17 19  1  0
 19 20  2  0
 20 21  1  0
 21 22  2  0
  5 23  1  0
 23 24  1  0
 24 25  2  0
 24 26  1  0
 26 27  1  0
 27 28  1  0
 28 29  1  0
 29 30  1  0
 30 31  1  0
 23  2  1  0
 31 27  1  0
 22 12  1  0
 21 15  1  0
  1 32  1  0
  1 33  1  0
  2 34  1  1
  3 35  1  0
  3 36  1  0
  4 37  1  0
  4 38  1  0
  8 39  1  0
  8 40  1  0
  9 41  1  0
 13 42  1  0
 14 43  1  0
 16 44  1  0
 19 45  1  0
 20 46  1  0
 23 47  1  6
 26 48  1  0
 27 49  1  0
 28 50  1  0
 28 51  1  0
 29 52  1  0
 29 53  1  0
 30 54  1  0
 30 55  1  0
 31 56  1  0
 31 57  1  0
M  END
>  <smiles>  (10) 
N[C@@H]1CCN(C(=O)CNC(=O)c2ccc3cc(Cl)ccc3n2)[C@H]1C(=O)NC1CCCC1

>  <score_type>  (10) 
oracle

>  <origin>  (10) 
autodockgpu

>  <m_score__min__energy>  (10) 
-9.25

>  <m_primary>  (10) 
energy

>  <rmsd>  (10) 
1.9694365957449906

>  <m_score__min__rmsd>  (10) 
1.9694365957449906

>  <meeko>  (10) 
{"free_energy": -8.45, "intermolecular_energy": -10.54, "internal_energy": -1.79, "cluster_size": 17, "cluster_id": 1, "rank_in_cluster": 8}

>  <energy>  (10) 
-8.41

>  <cluster_rmsd>  (10) 
0.82

>  <cluster>  (10) 
1

$$$$

     RDKit          3D

 57 60  0  0  0  0  0  0  0  0999 V2000
  141.8170   77.8590  222.0890 N   0  0  0  0  0  0  0  0  0  0  0  0
  140.5110   77.4420  221.6400 C   0  0  2  0  0  0  0  0  0  0  0  0
  139.4200   78.2640  222.3490 C   0  0  0  0  0  0  0  0  0  0  0  0
  138.2470   77.2650  222.5860 C   0  0  0  0  0  0  0  0  0  0  0  0
  138.6800   76.1240  221.7480 N   0  0  0  0  0  0  0  0  0  0  0  0
  137.9240   75.2990  220.8940 C   0  0  0  0  0  0  0  0  0  0  0  0
  137.4080   75.8870  219.8800 O   0  0  0  0  0  0  0  0  0  0  0  0
  137.6510   73.8660  221.0170 C   0  0  0  0  0  0  0  0  0  0  0  0
  138.1210   73.2390  222.2400 N   0  0  0  0  0  0  0  0  0  0  0  0
  137.9120   71.7850  222.2460 C   0  0  0  0  0  0  0  0  0  0  0  0
  137.3620   71.3340  221.2380 O   0  0  0  0  0  0  0  0  0  0  0  0
  138.3650   71.0360  223.4020 C   0  0  0  0  0  0  0  0  0  0  0  0
  137.8660   69.7890  223.5960 C   0  0  0  0  0  0  0  0  0  0  0  0
  138.2630   68.9770  224.6300 C   0  0  0  0  0  0  0  0  0  0  0  0
  139.2090   69.4520  225.5030 C   0  0  0  0  0  0  0  0  0  0  0  0
  139.6290   68.6520  226.5400 C   0  0  0  0  0  0  0  0  0  0  0  0
  140.5770   69.1370  227.3970 C   0  0  0  0  0  0  0  0  0  0  0  0
  141.1420   68.1600  228.7320 Cl  0  0  0  0  0  0  0  0  0  0  0  0
  141.0750   70.4010  227.1920 C   0  0  0  0  0  0  0  0  0  0  0  0
  140.6900   71.2390  226.1730 C   0  0  0  0  0  0  0  0  0  0  0  0
  139.7170   70.7300  225.3000 C   0  0  0  0  0  0  0  0  0  0  0  0
  139.3080   71.5160  224.2710 N   0  0  0  0  0  0  0  0  0  0  0  0
  140.1150   76.0790  222.0660 C   0  0  1  0  0  0  0  0  0  0  0  0
  140.8710   74.9330  221.7120 C   0  0  0  0  0  0  0  0  0  0  0  0
  140.4410   73.7710  221.9730 O   0  0  0  0  0  0  0  0  0  0  0  0
  142.1380   74.9790  221.0530 N   0  0  0  0  0  0  0  0  0  0  0  0
  142.8610   73.7500  220.7360 C   0  0  0  0  0  0  0  0  0  0  0  0
  142.5510   73.3560  219.2850 C   0  0  0  0  0  0  0  0  0  0  0  0
  143.7040   73.9580  218.5430 C   0  0  0  0  0  0  0  0  0  0  0  0
  144.8950   73.7980  219.4620 C   0  0  0  0  0  0  0  0  0  0  0  0
  144.3060   73.8530  220.8400 C   0  0  0  0  0  0  0  0  0  0  0  0
  142.5520   77.7940  221.3640 H   0  0  0  0  0  0  0  0  0  0  0  0
  142.0540   77.3520  222.9810 H   0  0  0  0  0  0  0  0  0  0  0  0
  140.5841   77.5417  220.5470 H   0  0  0  0  0  0  0  0  0  0  0  0
  139.7930   78.6556  223.3069 H   0  0  0  0  0  0  0  0  0  0  0  0
  139.1063   79.1332  221.7523 H   0  0  0  0  0  0  0  0  0  0  0  0
  138.1652   76.9809  223.6455 H   0  0  0  0  0  0  0  0  0  0  0  0
  137.2526   77.6627  222.3349 H   0  0  0  0  0  0  0  0  0  0  0  0
  136.5618   73.7232  220.9608 H   0  0  0  0  0  0  0  0  0  0  0  0
  138.2064   73.3832  220.1994 H   0  0  0  0  0  0  0  0  0  0  0  0
  138.5600   73.7270  223.0360 H   0  0  0  0  0  0  0  0  0  0  0  0
  137.1090   69.4114  222.8929 H   0  0  0  0  0  0  0  0  0  0  0  0
  137.8338   67.9720  224.7551 H   0  0  0  0  0  0  0  0  0  0  0  0
  139.2110   67.6437  226.6767 H   0  0  0  0  0  0  0  0  0  0  0  0
  141.8373   70.7690  227.8945 H   0  0  0  0  0  0  0  0  0  0  0  0
  141.1177   72.2449  226.0498 H   0  0  0  0  0  0  0  0  0  0  0  0
  140.3604   75.8803  223.1197 H   0  0  0  0  0  0  0  0  0  0  0  0
  142.5910   75.8700  220.7730 H   0  0  0  0  0  0  0  0  0  0  0  0
  142.5246   73.0100  221.4771 H   0  0  0  0  0  0  0  0  0  0  0  0
  142.5259   72.2629  219.1648 H   0  0  0  0  0  0  0  0  0  0  0  0
  141.5684   73.7029  218.9326 H   0  0  0  0  0  0  0  0  0  0  0  0
  143.8735   73.4251  217.5958 H   0  0  0  0  0  0  0  0  0  0  0  0
  143.5220   75.0120  218.2861 H   0  0  0  0  0  0  0  0  0  0  0  0
  145.3943   72.8332  219.2893 H   0  0  0  0  0  0  0  0  0  0  0  0
  145.6598   74.5717  219.2994 H   0  0  0  0  0  0  0  0  0  0  0  0
  144.6938   73.0176  221.4414 H   0  0  0  0  0  0  0  0  0  0  0  0
  144.5790   74.8015  221.3255 H   0  0  0  0  0  0  0  0  0  0  0  0
  1  2  1  0
  2  3  1  0
  3  4  1  0
  4  5  1  0
  5  6  1  0
  6  7  2  0
  6  8  1  0
  8  9  1  0
  9 10  1  0
 10 11  2  0
 10 12  1  0
 12 13  2  0
 13 14  1  0
 14 15  2  0
 15 16  1  0
 16 17  2  0
 17 18  1  0
 17 19  1  0
 19 20  2  0
 20 21  1  0
 21 22  2  0
  5 23  1  0
 23 24  1  0
 24 25  2  0
 24 26  1  0
 26 27  1  0
 27 28  1  0
 28 29  1  0
 29 30  1  0
 30 31  1  0
 23  2  1  0
 31 27  1  0
 22 12  1  0
 21 15  1  0
  1 32  1  0
  1 33  1  0
  2 34  1  6
  3 35  1  0
  3 36  1  0
  4 37  1  0
  4 38  1  0
  8 39  1  0
  8 40  1  0
  9 41  1  0
 13 42  1  0
 14 43  1  0
 16 44  1  0
 19 45  1  0
 20 46  1  0
 23 47  1  1
 26 48  1  0
 27 49  1  0
 28 50  1  0
 28 51  1  0
 29 52  1  0
 29 53  1  0
 30 54  1  0
 30 55  1  0
 31 56  1  0
 31 57  1  0
M  END
>  <smiles>  (11) 
N[C@@H]1CCN(C(=O)CNC(=O)c2ccc3cc(Cl)ccc3n2)[C@H]1C(=O)NC1CCCC1

>  <score_type>  (11) 
oracle

>  <origin>  (11) 
autodockgpu

>  <m_score__min__energy>  (11) 
-9.25

>  <m_primary>  (11) 
energy

>  <rmsd>  (11) 
4.368663398548228

>  <m_score__min__rmsd>  (11) 
4.368663398548228

>  <meeko>  (11) 
{"free_energy": -8.36, "intermolecular_energy": -10.45, "internal_energy": -2.46, "cluster_size": 13, "cluster_id": 2, "rank_in_cluster": 1}

>  <energy>  (11) 
-8.37

>  <cluster_rmsd>  (11) 
1.34

>  <cluster>  (11) 
1

$$$$

     RDKit          3D

 57 60  0  0  0  0  0  0  0  0999 V2000
  143.8570   76.7180  219.5620 N   0  0  0  0  0  0  0  0  0  0  0  0
  142.4660   76.3360  219.5400 C   0  0  2  0  0  0  0  0  0  0  0  0
  141.5930   77.4780  220.0890 C   0  0  0  0  0  0  0  0  0  0  0  0
  140.4510   76.7740  220.8820 C   0  0  0  0  0  0  0  0  0  0  0  0
  140.6380   75.3710  220.4500 N   0  0  0  0  0  0  0  0  0  0  0  0
  139.6760   74.4020  220.1060 C   0  0  0  0  0  0  0  0  0  0  0  0
  139.9050   73.7660  219.0180 O   0  0  0  0  0  0  0  0  0  0  0  0
  138.4560   74.0320  220.8250 C   0  0  0  0  0  0  0  0  0  0  0  0
  138.6530   73.3390  222.0860 N   0  0  0  0  0  0  0  0  0  0  0  0
  139.0590   71.9390  221.9040 C   0  0  0  0  0  0  0  0  0  0  0  0
  139.1480   71.5720  220.7310 O   0  0  0  0  0  0  0  0  0  0  0  0
  139.3150   71.1440  223.0900 C   0  0  0  0  0  0  0  0  0  0  0  0
  138.9650   69.8330  223.0730 C   0  0  0  0  0  0  0  0  0  0  0  0
  139.2070   68.9810  224.1220 C   0  0  0  0  0  0  0  0  0  0  0  0
  139.8320   69.4820  225.2350 C   0  0  0  0  0  0  0  0  0  0  0  0
  140.0920   68.6440  226.2940 C   0  0  0  0  0  0  0  0  0  0  0  0
  140.7220   69.1570  227.3940 C   0  0  0  0  0  0  0  0  0  0  0  0
  141.0730   68.1330  228.7670 Cl  0  0  0  0  0  0  0  0  0  0  0  0
  141.0700   70.4860  227.4020 C   0  0  0  0  0  0  0  0  0  0  0  0
  140.8330   71.3640  226.3710 C   0  0  0  0  0  0  0  0  0  0  0  0
  140.1880   70.8250  225.2480 C   0  0  0  0  0  0  0  0  0  0  0  0
  139.9370   71.6500  224.1990 N   0  0  0  0  0  0  0  0  0  0  0  0
  142.1030   75.2620  220.4950 C   0  0  1  0  0  0  0  0  0  0  0  0
  142.7080   73.9810  220.4490 C   0  0  0  0  0  0  0  0  0  0  0  0
  143.9680   73.8650  220.3760 O   0  0  0  0  0  0  0  0  0  0  0  0
  141.9850   72.7500  220.4790 N   0  0  0  0  0  0  0  0  0  0  0  0
  142.6850   71.4690  220.4130 C   0  0  0  0  0  0  0  0  0  0  0  0
  141.6630   70.3630  220.1150 C   0  0  0  0  0  0  0  0  0  0  0  0
  141.7610   70.2370  218.6270 C   0  0  0  0  0  0  0  0  0  0  0  0
  143.2230   70.4540  218.3040 C   0  0  0  0  0  0  0  0  0  0  0  0
  143.7010   71.3870  219.3770 C   0  0  0  0  0  0  0  0  0  0  0  0
  144.0740   77.5460  218.9800 H   0  0  0  0  0  0  0  0  0  0  0  0
  144.4500   75.8770  219.3420 H   0  0  0  0  0  0  0  0  0  0  0  0
  142.3092   76.0445  218.4910 H   0  0  0  0  0  0  0  0  0  0  0  0
  142.1810   78.1275  220.7542 H   0  0  0  0  0  0  0  0  0  0  0  0
  141.2011   78.1188  219.2854 H   0  0  0  0  0  0  0  0  0  0  0  0
  140.5847   76.8844  221.9683 H   0  0  0  0  0  0  0  0  0  0  0  0
  139.4465   77.1795  220.6908 H   0  0  0  0  0  0  0  0  0  0  0  0
  137.8923   74.9539  221.0306 H   0  0  0  0  0  0  0  0  0  0  0  0
  137.9274   73.3217  220.1723 H   0  0  0  0  0  0  0  0  0  0  0  0
  138.5340   73.7520  223.0240 H   0  0  0  0  0  0  0  0  0  0  0  0
  138.4646   69.4348  222.1780 H   0  0  0  0  0  0  0  0  0  0  0  0
  138.9073   67.9238  224.0710 H   0  0  0  0  0  0  0  0  0  0  0  0
  139.7996   67.5842  226.2570 H   0  0  0  0  0  0  0  0  0  0  0  0
  141.5748   70.8758  228.2982 H   0  0  0  0  0  0  0  0  0  0  0  0
  141.1302   72.4218  226.4234 H   0  0  0  0  0  0  0  0  0  0  0  0
  142.5582   75.4091  221.4855 H   0  0  0  0  0  0  0  0  0  0  0  0
  140.9500   72.7100  220.5520 H   0  0  0  0  0  0  0  0  0  0  0  0
  143.1877   71.3565  221.3849 H   0  0  0  0  0  0  0  0  0  0  0  0
  141.9366   69.4217  220.6141 H   0  0  0  0  0  0  0  0  0  0  0  0
  140.6482   70.5902  220.4737 H   0  0  0  0  0  0  0  0  0  0  0  0
  141.4391   69.2363  218.3029 H   0  0  0  0  0  0  0  0  0  0  0  0
  141.1147   70.9618  218.1104 H   0  0  0  0  0  0  0  0  0  0  0  0
  143.7757   69.5035  218.3385 H   0  0  0  0  0  0  0  0  0  0  0  0
  143.3760   70.8599  217.2931 H   0  0  0  0  0  0  0  0  0  0  0  0
  144.6385   71.0056  219.8079 H   0  0  0  0  0  0  0  0  0  0  0  0
  143.8820   72.3850  218.9512 H   0  0  0  0  0  0  0  0  0  0  0  0
  1  2  1  0
  2  3  1  0
  3  4  1  0
  4  5  1  0
  5  6  1  0
  6  7  2  0
  6  8  1  0
  8  9  1  0
  9 10  1  0
 10 11  2  0
 10 12  1  0
 12 13  2  0
 13 14  1  0
 14 15  2  0
 15 16  1  0
 16 17  2  0
 17 18  1  0
 17 19  1  0
 19 20  2  0
 20 21  1  0
 21 22  2  0
  5 23  1  0
 23 24  1  0
 24 25  2  0
 24 26  1  0
 26 27  1  0
 27 28  1  0
 28 29  1  0
 29 30  1  0
 30 31  1  0
 23  2  1  0
 31 27  1  0
 22 12  1  0
 21 15  1  0
  1 32  1  0
  1 33  1  0
  2 34  1  6
  3 35  1  0
  3 36  1  0
  4 37  1  0
  4 38  1  0
  8 39  1  0
  8 40  1  0
  9 41  1  0
 13 42  1  0
 14 43  1  0
 16 44  1  0
 19 45  1  0
 20 46  1  0
 23 47  1  1
 26 48  1  0
 27 49  1  0
 28 50  1  0
 28 51  1  0
 29 52  1  0
 29 53  1  0
 30 54  1  0
 30 55  1  0
 31 56  1  0
 31 57  1  0
M  END
>  <smiles>  (12) 
N[C@@H]1CCN(C(=O)CNC(=O)c2ccc3cc(Cl)ccc3n2)[C@H]1C(=O)NC1CCCC1

>  <score_type>  (12) 
oracle

>  <origin>  (12) 
autodockgpu

>  <m_score__min__energy>  (12) 
-9.25

>  <m_primary>  (12) 
energy

>  <rmsd>  (12) 
5.325302842733701

>  <m_score__min__rmsd>  (12) 
5.325302842733701

>  <meeko>  (12) 
{"free_energy": -6.75, "intermolecular_energy": -8.84, "internal_energy": -3.72, "cluster_size": 3, "cluster_id": 7, "rank_in_cluster": 3}

>  <energy>  (12) 
-8.36

>  <cluster_rmsd>  (12) 
1.0

>  <cluster>  (12) 
1

$$$$

     RDKit          3D

 57 60  0  0  0  0  0  0  0  0999 V2000
  143.0130   77.6990  218.9020 N   0  0  0  0  0  0  0  0  0  0  0  0
  142.5370   76.3380  218.8640 C   0  0  2  0  0  0  0  0  0  0  0  0
  142.4110   75.8600  217.4060 C   0  0  0  0  0  0  0  0  0  0  0  0
  141.1450   74.9520  217.3830 C   0  0  0  0  0  0  0  0  0  0  0  0
  140.8920   74.7900  218.8310 N   0  0  0  0  0  0  0  0  0  0  0  0
  140.5100   73.6440  219.5540 C   0  0  0  0  0  0  0  0  0  0  0  0
  141.4340   72.7760  219.7340 O   0  0  0  0  0  0  0  0  0  0  0  0
  139.1990   73.3160  220.1190 C   0  0  0  0  0  0  0  0  0  0  0  0
  139.1970   72.2970  221.1540 N   0  0  0  0  0  0  0  0  0  0  0  0
  139.9420   72.7070  222.3520 C   0  0  0  0  0  0  0  0  0  0  0  0
  140.4600   73.8240  222.2850 O   0  0  0  0  0  0  0  0  0  0  0  0
  139.9920   71.7860  223.4720 C   0  0  0  0  0  0  0  0  0  0  0  0
  139.5850   70.5080  223.2710 C   0  0  0  0  0  0  0  0  0  0  0  0
  139.6380   69.5440  224.2490 C   0  0  0  0  0  0  0  0  0  0  0  0
  140.1260   69.8960  225.4820 C   0  0  0  0  0  0  0  0  0  0  0  0
  140.1960   68.9440  226.4730 C   0  0  0  0  0  0  0  0  0  0  0  0
  140.6910   69.3090  227.6940 C   0  0  0  0  0  0  0  0  0  0  0  0
  140.7980   68.1370  228.9880 Cl  0  0  0  0  0  0  0  0  0  0  0  0
  141.0980   70.6070  227.8870 C   0  0  0  0  0  0  0  0  0  0  0  0
  141.0490   71.5940  226.9310 C   0  0  0  0  0  0  0  0  0  0  0  0
  140.5410   71.2070  225.6820 C   0  0  0  0  0  0  0  0  0  0  0  0
  140.4790   72.1440  224.7010 N   0  0  0  0  0  0  0  0  0  0  0  0
  141.1340   76.1600  219.3080 C   0  0  1  0  0  0  0  0  0  0  0  0
  140.7050   76.5320  220.6060 C   0  0  0  0  0  0  0  0  0  0  0  0
  139.6030   76.1090  221.0670 O   0  0  0  0  0  0  0  0  0  0  0  0
  141.4430   77.3840  221.4830 N   0  0  0  0  0  0  0  0  0  0  0  0
  140.9230   77.7310  222.8030 C   0  0  0  0  0  0  0  0  0  0  0  0
  141.9520   78.6120  223.5240 C   0  0  0  0  0  0  0  0  0  0  0  0
  141.4560   79.9910  223.2140 C   0  0  0  0  0  0  0  0  0  0  0  0
  139.9470   79.8830  223.2280 C   0  0  0  0  0  0  0  0  0  0  0  0
  139.6750   78.4760  222.7860 C   0  0  0  0  0  0  0  0  0  0  0  0
  143.3970   78.0350  218.0010 H   0  0  0  0  0  0  0  0  0  0  0  0
  143.6730   77.8110  219.7140 H   0  0  0  0  0  0  0  0  0  0  0  0
  143.2575   75.8087  219.5049 H   0  0  0  0  0  0  0  0  0  0  0  0
  142.2835   76.7172  216.7285 H   0  0  0  0  0  0  0  0  0  0  0  0
  143.3097   75.3218  217.0702 H   0  0  0  0  0  0  0  0  0  0  0  0
  140.3020   75.4460  216.8778 H   0  0  0  0  0  0  0  0  0  0  0  0
  141.2731   74.0068  216.8351 H   0  0  0  0  0  0  0  0  0  0  0  0
  138.7766   74.2359  220.5495 H   0  0  0  0  0  0  0  0  0  0  0  0
  138.6094   72.9011  219.2882 H   0  0  0  0  0  0  0  0  0  0  0  0
  138.7340   71.3770  221.0920 H   0  0  0  0  0  0  0  0  0  0  0  0
  139.1949   70.2306  222.2806 H   0  0  0  0  0  0  0  0  0  0  0  0
  139.2981   68.5172  224.0485 H   0  0  0  0  0  0  0  0  0  0  0  0
  139.8613   67.9128  226.2871 H   0  0  0  0  0  0  0  0  0  0  0  0
  141.4916   70.8761  228.8783 H   0  0  0  0  0  0  0  0  0  0  0  0
  141.3865   72.6213  227.1327 H   0  0  0  0  0  0  0  0  0  0  0  0
  140.4626   76.9291  218.8984 H   0  0  0  0  0  0  0  0  0  0  0  0
  142.3670   77.7830  221.2280 H   0  0  0  0  0  0  0  0  0  0  0  0
  140.7332   76.7716  223.3065 H   0  0  0  0  0  0  0  0  0  0  0  0
  141.9514   78.4216  224.6074 H   0  0  0  0  0  0  0  0  0  0  0  0
  142.9893   78.4325  223.2051 H   0  0  0  0  0  0  0  0  0  0  0  0
  141.7986   80.7048  223.9776 H   0  0  0  0  0  0  0  0  0  0  0  0
  141.8329   80.3554  222.2470 H   0  0  0  0  0  0  0  0  0  0  0  0
  139.5527   80.0572  224.2400 H   0  0  0  0  0  0  0  0  0  0  0  0
  139.4651   80.6292  222.5792 H   0  0  0  0  0  0  0  0  0  0  0  0
  138.9543   78.0059  223.4712 H   0  0  0  0  0  0  0  0  0  0  0  0
  139.2542   78.4779  221.7696 H   0  0  0  0  0  0  0  0  0  0  0  0
  1  2  1  0
  2  3  1  0
  3  4  1  0
  4  5  1  0
  5  6  1  0
  6  7  2  0
  6  8  1  0
  8  9  1  0
  9 10  1  0
 10 11  2  0
 10 12  1  0
 12 13  2  0
 13 14  1  0
 14 15  2  0
 15 16  1  0
 16 17  2  0
 17 18  1  0
 17 19  1  0
 19 20  2  0
 20 21  1  0
 21 22  2  0
  5 23  1  0
 23 24  1  0
 24 25  2  0
 24 26  1  0
 26 27  1  0
 27 28  1  0
 28 29  1  0
 29 30  1  0
 30 31  1  0
 23  2  1  0
 31 27  1  0
 22 12  1  0
 21 15  1  0
  1 32  1  0
  1 33  1  0
  2 34  1  1
  3 35  1  0
  3 36  1  0
  4 37  1  0
  4 38  1  0
  8 39  1  0
  8 40  1  0
  9 41  1  0
 13 42  1  0
 14 43  1  0
 16 44  1  0
 19 45  1  0
 20 46  1  0
 23 47  1  6
 26 48  1  0
 27 49  1  0
 28 50  1  0
 28 51  1  0
 29 52  1  0
 29 53  1  0
 30 54  1  0
 30 55  1  0
 31 56  1  0
 31 57  1  0
M  END
>  <smiles>  (13) 
N[C@@H]1CCN(C(=O)CNC(=O)c2ccc3cc(Cl)ccc3n2)[C@H]1C(=O)NC1CCCC1

>  <score_type>  (13) 
oracle

>  <origin>  (13) 
autodockgpu

>  <m_score__min__energy>  (13) 
-9.25

>  <m_primary>  (13) 
energy

>  <rmsd>  (13) 
2.3689627964286584

>  <m_score__min__rmsd>  (13) 
2.3689627964286584

>  <meeko>  (13) 
{"free_energy": -8.18, "intermolecular_energy": -10.27, "internal_energy": -1.87, "cluster_size": 17, "cluster_id": 1, "rank_in_cluster": 16}

>  <energy>  (13) 
-8.31

>  <cluster_rmsd>  (13) 
1.51

>  <cluster>  (13) 
1

$$$$

     RDKit          3D

 57 60  0  0  0  0  0  0  0  0999 V2000
  142.9390   79.1820  218.2320 N   0  0  0  0  0  0  0  0  0  0  0  0
  142.3310   77.9730  218.7310 C   0  0  2  0  0  0  0  0  0  0  0  0
  141.6780   77.1920  217.5770 C   0  0  0  0  0  0  0  0  0  0  0  0
  140.3850   76.5710  218.1860 C   0  0  0  0  0  0  0  0  0  0  0  0
  140.6110   76.8160  219.6270 N   0  0  0  0  0  0  0  0  0  0  0  0
  140.3670   75.9760  220.7310 C   0  0  0  0  0  0  0  0  0  0  0  0
  140.9770   76.2990  221.8090 O   0  0  0  0  0  0  0  0  0  0  0  0
  139.5170   74.7860  220.8010 C   0  0  0  0  0  0  0  0  0  0  0  0
  139.5670   74.0510  222.0540 N   0  0  0  0  0  0  0  0  0  0  0  0
  139.7050   72.6020  221.8530 C   0  0  0  0  0  0  0  0  0  0  0  0
  139.7360   72.2410  220.6750 O   0  0  0  0  0  0  0  0  0  0  0  0
  139.7930   71.7570  223.0290 C   0  0  0  0  0  0  0  0  0  0  0  0
  139.3570   70.4760  222.9330 C   0  0  0  0  0  0  0  0  0  0  0  0
  139.4410   69.5780  223.9700 C   0  0  0  0  0  0  0  0  0  0  0  0
  139.9920   70.0020  225.1530 C   0  0  0  0  0  0  0  0  0  0  0  0
  140.0940   69.1170  226.2010 C   0  0  0  0  0  0  0  0  0  0  0  0
  140.6520   69.5510  227.3710 C   0  0  0  0  0  0  0  0  0  0  0  0
  140.8020   68.4660  228.7330 Cl  0  0  0  0  0  0  0  0  0  0  0  0
  141.0890   70.8520  227.4570 C   0  0  0  0  0  0  0  0  0  0  0  0
  141.0100   71.7740  226.4410 C   0  0  0  0  0  0  0  0  0  0  0  0
  140.4370   71.3150  225.2450 C   0  0  0  0  0  0  0  0  0  0  0  0
  140.3430   72.1860  224.2070 N   0  0  0  0  0  0  0  0  0  0  0  0
  141.1440   78.1860  219.5930 C   0  0  1  0  0  0  0  0  0  0  0  0
  141.2140   78.9360  220.7930 C   0  0  0  0  0  0  0  0  0  0  0  0
  142.0590   79.8720  220.9210 O   0  0  0  0  0  0  0  0  0  0  0  0
  140.3720   78.7190  221.9270 N   0  0  0  0  0  0  0  0  0  0  0  0
  140.5180   79.5290  223.1340 C   0  0  0  0  0  0  0  0  0  0  0  0
  141.7380   79.0280  223.9200 C   0  0  0  0  0  0  0  0  0  0  0  0
  142.8180   79.9490  223.4430 C   0  0  0  0  0  0  0  0  0  0  0  0
  142.1440   81.2910  223.2580 C   0  0  0  0  0  0  0  0  0  0  0  0
  140.7320   80.9450  222.8900 C   0  0  0  0  0  0  0  0  0  0  0  0
  143.7130   79.0190  217.5640 H   0  0  0  0  0  0  0  0  0  0  0  0
  143.2000   79.7980  219.0440 H   0  0  0  0  0  0  0  0  0  0  0  0
  143.1606   77.4833  219.2620 H   0  0  0  0  0  0  0  0  0  0  0  0
  141.4272   77.8683  216.7465 H   0  0  0  0  0  0  0  0  0  0  0  0
  142.3503   76.4237  217.1676 H   0  0  0  0  0  0  0  0  0  0  0  0
  139.4811   77.0837  217.8252 H   0  0  0  0  0  0  0  0  0  0  0  0
  140.2202   75.5154  217.9242 H   0  0  0  0  0  0  0  0  0  0  0  0
  138.4767   75.1031  220.6360 H   0  0  0  0  0  0  0  0  0  0  0  0
  139.8994   74.0976  220.0330 H   0  0  0  0  0  0  0  0  0  0  0  0
  139.5170   74.4660  222.9970 H   0  0  0  0  0  0  0  0  0  0  0  0
  138.9164   70.1409  221.9824 H   0  0  0  0  0  0  0  0  0  0  0  0
  139.0762   68.5467  223.8547 H   0  0  0  0  0  0  0  0  0  0  0  0
  139.7343   68.0824  226.0998 H   0  0  0  0  0  0  0  0  0  0  0  0
  141.5343   71.1785  228.4084 H   0  0  0  0  0  0  0  0  0  0  0  0
  141.3727   72.8059  226.5578 H   0  0  0  0  0  0  0  0  0  0  0  0
  140.4623   78.9493  219.1896 H   0  0  0  0  0  0  0  0  0  0  0  0
  139.6310   77.9920  221.9420 H   0  0  0  0  0  0  0  0  0  0  0  0
  139.5679   79.4230  223.6781 H   0  0  0  0  0  0  0  0  0  0  0  0
  141.5813   79.1242  225.0045 H   0  0  0  0  0  0  0  0  0  0  0  0
  141.9614   77.9630  223.7591 H   0  0  0  0  0  0  0  0  0  0  0  0
  143.6214   80.0210  224.1909 H   0  0  0  0  0  0  0  0  0  0  0  0
  143.2816   79.5906  222.5120 H   0  0  0  0  0  0  0  0  0  0  0  0
  142.1726   81.8739  224.1904 H   0  0  0  0  0  0  0  0  0  0  0  0
  142.6390   81.9098  222.4951 H   0  0  0  0  0  0  0  0  0  0  0  0
  140.0350   81.5352  223.5030 H   0  0  0  0  0  0  0  0  0  0  0  0
  140.5563   81.1719  221.8281 H   0  0  0  0  0  0  0  0  0  0  0  0
  1  2  1  0
  2  3  1  0
  3  4  1  0
  4  5  1  0
  5  6  1  0
  6  7  2  0
  6  8  1  0
  8  9  1  0
  9 10  1  0
 10 11  2  0
 10 12  1  0
 12 13  2  0
 13 14  1  0
 14 15  2  0
 15 16  1  0
 16 17  2  0
 17 18  1  0
 17 19  1  0
 19 20  2  0
 20 21  1  0
 21 22  2  0
  5 23  1  0
 23 24  1  0
 24 25  2  0
 24 26  1  0
 26 27  1  0
 27 28  1  0
 28 29  1  0
 29 30  1  0
 30 31  1  0
 23  2  1  0
 31 27  1  0
 22 12  1  0
 21 15  1  0
  1 32  1  0
  1 33  1  0
  2 34  1  1
  3 35  1  0
  3 36  1  0
  4 37  1  0
  4 38  1  0
  8 39  1  0
  8 40  1  0
  9 41  1  0
 13 42  1  0
 14 43  1  0
 16 44  1  0
 19 45  1  0
 20 46  1  0
 23 47  1  6
 26 48  1  0
 27 49  1  0
 28 50  1  0
 28 51  1  0
 29 52  1  0
 29 53  1  0
 30 54  1  0
 30 55  1  0
 31 56  1  0
 31 57  1  0
M  END
>  <smiles>  (14) 
N[C@@H]1CCN(C(=O)CNC(=O)c2ccc3cc(Cl)ccc3n2)[C@H]1C(=O)NC1CCCC1

>  <score_type>  (14) 
oracle

>  <origin>  (14) 
autodockgpu

>  <m_score__min__energy>  (14) 
-9.25

>  <m_primary>  (14) 
energy

>  <rmsd>  (14) 
2.237311875922273

>  <m_score__min__rmsd>  (14) 
2.237311875922273

>  <meeko>  (14) 
{"free_energy": -8.68, "intermolecular_energy": -10.77, "internal_energy": -2.18, "cluster_size": 17, "cluster_id": 1, "rank_in_cluster": 5}

>  <energy>  (14) 
-8.23

>  <cluster_rmsd>  (14) 
0.8

>  <cluster>  (14) 
1

$$$$

     RDKit          3D

 57 60  0  0  0  0  0  0  0  0999 V2000
  144.0380   76.4110  219.7260 N   0  0  0  0  0  0  0  0  0  0  0  0
  142.7960   75.7450  220.0310 C   0  0  2  0  0  0  0  0  0  0  0  0
  142.4560   74.7260  218.9280 C   0  0  0  0  0  0  0  0  0  0  0  0
  140.9050   74.7870  218.7810 C   0  0  0  0  0  0  0  0  0  0  0  0
  140.5440   75.5780  219.9780 N   0  0  0  0  0  0  0  0  0  0  0  0
  139.4790   75.4050  220.8820 C   0  0  0  0  0  0  0  0  0  0  0  0
  139.3580   76.3210  221.7680 O   0  0  0  0  0  0  0  0  0  0  0  0
  138.5020   74.3160  220.9420 C   0  0  0  0  0  0  0  0  0  0  0  0
  138.5520   73.4910  222.1370 N   0  0  0  0  0  0  0  0  0  0  0  0
  139.5620   72.4290  222.0490 C   0  0  0  0  0  0  0  0  0  0  0  0
  140.1850   72.3920  220.9860 O   0  0  0  0  0  0  0  0  0  0  0  0
  139.7300   71.5520  223.1920 C   0  0  0  0  0  0  0  0  0  0  0  0
  139.3820   70.2470  223.0570 C   0  0  0  0  0  0  0  0  0  0  0  0
  139.5470   69.3220  224.0580 C   0  0  0  0  0  0  0  0  0  0  0  0
  140.0890   69.7410  225.2470 C   0  0  0  0  0  0  0  0  0  0  0  0
  140.2710   68.8300  226.2610 C   0  0  0  0  0  0  0  0  0  0  0  0
  140.8190   69.2610  227.4370 C   0  0  0  0  0  0  0  0  0  0  0  0
  141.0690   68.1420  228.7570 Cl  0  0  0  0  0  0  0  0  0  0  0  0
  141.1660   70.5850  227.5630 C   0  0  0  0  0  0  0  0  0  0  0  0
  141.0050   71.5340  226.5820 C   0  0  0  0  0  0  0  0  0  0  0  0
  140.4430   71.0790  225.3800 C   0  0  0  0  0  0  0  0  0  0  0  0
  140.2700   71.9760  224.3760 N   0  0  0  0  0  0  0  0  0  0  0  0
  141.5940   76.6080  219.9540 C   0  0  1  0  0  0  0  0  0  0  0  0
  141.4500   77.7680  220.7560 C   0  0  0  0  0  0  0  0  0  0  0  0
  142.4550   78.2820  221.3320 O   0  0  0  0  0  0  0  0  0  0  0  0
  140.2100   78.4390  220.9830 N   0  0  0  0  0  0  0  0  0  0  0  0
  140.1460   79.6230  221.8370 C   0  0  0  0  0  0  0  0  0  0  0  0
  140.0950   79.1720  223.3030 C   0  0  0  0  0  0  0  0  0  0  0  0
  141.5360   79.2390  223.7020 C   0  0  0  0  0  0  0  0  0  0  0  0
  142.0950   80.4420  222.9740 C   0  0  0  0  0  0  0  0  0  0  0  0
  141.2830   80.5200  221.7150 C   0  0  0  0  0  0  0  0  0  0  0  0
  144.0490   77.4150  219.9780 H   0  0  0  0  0  0  0  0  0  0  0  0
  144.2940   76.2220  218.7220 H   0  0  0  0  0  0  0  0  0  0  0  0
  142.9722   75.3502  221.0425 H   0  0  0  0  0  0  0  0  0  0  0  0
  142.9445   75.0035  217.9823 H   0  0  0  0  0  0  0  0  0  0  0  0
  142.8061   73.7142  219.1802 H   0  0  0  0  0  0  0  0  0  0  0  0
  140.6060   75.2971  217.8534 H   0  0  0  0  0  0  0  0  0  0  0  0
  140.4144   73.8044  218.7195 H   0  0  0  0  0  0  0  0  0  0  0  0
  137.4972   74.7593  220.8789 H   0  0  0  0  0  0  0  0  0  0  0  0
  138.7469   73.6464  220.1044 H   0  0  0  0  0  0  0  0  0  0  0  0
  137.9610   73.6100  222.9750 H   0  0  0  0  0  0  0  0  0  0  0  0
  138.9480   69.9155  222.1021 H   0  0  0  0  0  0  0  0  0  0  0  0
  139.2524   68.2725  223.9108 H   0  0  0  0  0  0  0  0  0  0  0  0
  139.9818   67.7770  226.1287 H   0  0  0  0  0  0  0  0  0  0  0  0
  141.6045   70.9086  228.5185 H   0  0  0  0  0  0  0  0  0  0  0  0
  141.2983   72.5838  226.7300 H   0  0  0  0  0  0  0  0  0  0  0  0
  141.5998   77.2579  219.0665 H   0  0  0  0  0  0  0  0  0  0  0  0
  139.3180   78.1250  220.5560 H   0  0  0  0  0  0  0  0  0  0  0  0
  139.2503   80.1731  221.5129 H   0  0  0  0  0  0  0  0  0  0  0  0
  139.4807   79.8539  223.9094 H   0  0  0  0  0  0  0  0  0  0  0  0
  139.6421   78.1797  223.4453 H   0  0  0  0  0  0  0  0  0  0  0  0
  141.6290   79.3694  224.7903 H   0  0  0  0  0  0  0  0  0  0  0  0
  142.0765   78.3160  223.4453 H   0  0  0  0  0  0  0  0  0  0  0  0
  141.9708   81.3545  223.5756 H   0  0  0  0  0  0  0  0  0  0  0  0
  143.1730   80.3509  222.7752 H   0  0  0  0  0  0  0  0  0  0  0  0
  140.9273   81.5504  221.5673 H   0  0  0  0  0  0  0  0  0  0  0  0
  141.9000   80.2275  220.8526 H   0  0  0  0  0  0  0  0  0  0  0  0
  1  2  1  0
  2  3  1  0
  3  4  1  0
  4  5  1  0
  5  6  1  0
  6  7  2  0
  6  8  1  0
  8  9  1  0
  9 10  1  0
 10 11  2  0
 10 12  1  0
 12 13  2  0
 13 14  1  0
 14 15  2  0
 15 16  1  0
 16 17  2  0
 17 18  1  0
 17 19  1  0
 19 20  2  0
 20 21  1  0
 21 22  2  0
  5 23  1  0
 23 24  1  0
 24 25  2  0
 24 26  1  0
 26 27  1  0
 27 28  1  0
 28 29  1  0
 29 30  1  0
 30 31  1  0
 23  2  1  0
 31 27  1  0
 22 12  1  0
 21 15  1  0
  1 32  1  0
  1 33  1  0
  2 34  1  1
  3 35  1  0
  3 36  1  0
  4 37  1  0
  4 38  1  0
  8 39  1  0
  8 40  1  0
  9 41  1  0
 13 42  1  0
 14 43  1  0
 16 44  1  0
 19 45  1  0
 20 46  1  0
 23 47  1  6
 26 48  1  0
 27 49  1  0
 28 50  1  0
 28 51  1  0
 29 52  1  0
 29 53  1  0
 30 54  1  0
 30 55  1  0
 31 56  1  0
 31 57  1  0
M  END
>  <smiles>  (15) 
N[C@@H]1CCN(C(=O)CNC(=O)c2ccc3cc(Cl)ccc3n2)[C@H]1C(=O)NC1CCCC1

>  <score_type>  (15) 
oracle

>  <origin>  (15) 
autodockgpu

>  <m_score__min__energy>  (15) 
-9.25

>  <m_primary>  (15) 
energy

>  <rmsd>  (15) 
2.171892527811807

>  <m_score__min__rmsd>  (15) 
2.171892527811807

>  <meeko>  (15) 
{"free_energy": -8.31, "intermolecular_energy": -10.4, "internal_energy": -1.95, "cluster_size": 17, "cluster_id": 1, "rank_in_cluster": 13}

>  <energy>  (15) 
-8.21

>  <cluster_rmsd>  (15) 
0.73

>  <cluster>  (15) 
1

$$$$

     RDKit          3D

 57 60  0  0  0  0  0  0  0  0999 V2000
  137.9710   78.7330  220.9790 N   0  0  0  0  0  0  0  0  0  0  0  0
  138.3920   77.3540  220.9400 C   0  0  2  0  0  0  0  0  0  0  0  0
  137.1770   76.4240  221.1130 C   0  0  0  0  0  0  0  0  0  0  0  0
  137.7000   75.2240  221.9600 C   0  0  0  0  0  0  0  0  0  0  0  0
  139.1600   75.4630  221.9080 N   0  0  0  0  0  0  0  0  0  0  0  0
  140.2150   74.5460  221.7390 C   0  0  0  0  0  0  0  0  0  0  0  0
  140.0780   73.4340  222.3580 O   0  0  0  0  0  0  0  0  0  0  0  0
  141.4420   74.7030  220.9570 C   0  0  0  0  0  0  0  0  0  0  0  0
  141.8340   76.0720  220.6670 N   0  0  0  0  0  0  0  0  0  0  0  0
  141.1690   76.6090  219.4730 C   0  0  0  0  0  0  0  0  0  0  0  0
  140.4110   75.8220  218.9010 O   0  0  0  0  0  0  0  0  0  0  0  0
  141.4550   77.9790  219.0910 C   0  0  0  0  0  0  0  0  0  0  0  0
  142.5800   78.2240  218.3730 C   0  0  0  0  0  0  0  0  0  0  0  0
  142.9190   79.4760  217.9200 C   0  0  0  0  0  0  0  0  0  0  0  0
  142.0790   80.5210  218.2090 C   0  0  0  0  0  0  0  0  0  0  0  0
  142.3940   81.7810  217.7560 C   0  0  0  0  0  0  0  0  0  0  0  0
  141.5430   82.8110  218.0460 C   0  0  0  0  0  0  0  0  0  0  0  0
  141.9010   84.4320  217.4960 Cl  0  0  0  0  0  0  0  0  0  0  0  0
  140.4080   82.5520  218.7760 C   0  0  0  0  0  0  0  0  0  0  0  0
  140.0480   81.3130  219.2500 C   0  0  0  0  0  0  0  0  0  0  0  0
  140.9290   80.2640  218.9450 C   0  0  0  0  0  0  0  0  0  0  0  0
  140.6140   79.0180  219.3840 N   0  0  0  0  0  0  0  0  0  0  0  0
  139.2070   76.9200  222.0990 C   0  0  1  0  0  0  0  0  0  0  0  0
  140.4390   77.5410  222.4240 C   0  0  0  0  0  0  0  0  0  0  0  0
  141.3130   76.9230  223.1020 O   0  0  0  0  0  0  0  0  0  0  0  0
  140.7980   78.8670  222.0330 N   0  0  0  0  0  0  0  0  0  0  0  0
  142.0850   79.4390  222.4210 C   0  0  0  0  0  0  0  0  0  0  0  0
  142.2830   80.7640  221.6720 C   0  0  0  0  0  0  0  0  0  0  0  0
  141.7910   81.7650  222.6710 C   0  0  0  0  0  0  0  0  0  0  0  0
  142.2190   81.2260  224.0180 C   0  0  0  0  0  0  0  0  0  0  0  0
  142.2120   79.7370  223.8380 C   0  0  0  0  0  0  0  0  0  0  0  0
  136.9830   78.8790  220.7080 H   0  0  0  0  0  0  0  0  0  0  0  0
  138.6540   79.3180  220.4320 H   0  0  0  0  0  0  0  0  0  0  0  0
  138.9403   77.2928  219.9884 H   0  0  0  0  0  0  0  0  0  0  0  0
  136.3647   76.9445  221.6414 H   0  0  0  0  0  0  0  0  0  0  0  0
  136.7673   76.0977  220.1457 H   0  0  0  0  0  0  0  0  0  0  0  0
  137.3203   75.2608  222.9917 H   0  0  0  0  0  0  0  0  0  0  0  0
  137.3869   74.2359  221.5917 H   0  0  0  0  0  0  0  0  0  0  0  0
  142.2619   74.2279  221.5157 H   0  0  0  0  0  0  0  0  0  0  0  0
  141.2376   74.2368  219.9819 H   0  0  0  0  0  0  0  0  0  0  0  0
  142.5000   76.6360  221.2180 H   0  0  0  0  0  0  0  0  0  0  0  0
  143.2505   77.3827  218.1434 H   0  0  0  0  0  0  0  0  0  0  0  0
  143.8402   79.6361  217.3406 H   0  0  0  0  0  0  0  0  0  0  0  0
  143.3104   81.9561  217.1732 H   0  0  0  0  0  0  0  0  0  0  0  0
  139.7394   83.3970  218.9970 H   0  0  0  0  0  0  0  0  0  0  0  0
  139.1279   81.1538  219.8314 H   0  0  0  0  0  0  0  0  0  0  0  0
  138.8045   77.2843  223.0557 H   0  0  0  0  0  0  0  0  0  0  0  0
  140.1750   79.4700  221.4630 H   0  0  0  0  0  0  0  0  0  0  0  0
  142.8356   78.6747  222.1711 H   0  0  0  0  0  0  0  0  0  0  0  0
  143.3427   80.9306  221.4284 H   0  0  0  0  0  0  0  0  0  0  0  0
  141.7595   80.8088  220.7056 H   0  0  0  0  0  0  0  0  0  0  0  0
  142.2466   82.7492  222.4871 H   0  0  0  0  0  0  0  0  0  0  0  0
  140.7014   81.9032  222.6114 H   0  0  0  0  0  0  0  0  0  0  0  0
  143.2264   81.5827  224.2787 H   0  0  0  0  0  0  0  0  0  0  0  0
  141.5573   81.5549  224.8328 H   0  0  0  0  0  0  0  0  0  0  0  0
  143.1515   79.3133  224.2225 H   0  0  0  0  0  0  0  0  0  0  0  0
  141.3687   79.2969  224.3904 H   0  0  0  0  0  0  0  0  0  0  0  0
  1  2  1  0
  2  3  1  0
  3  4  1  0
  4  5  1  0
  5  6  1  0
  6  7  2  0
  6  8  1  0
  8  9  1  0
  9 10  1  0
 10 11  2  0
 10 12  1  0
 12 13  2  0
 13 14  1  0
 14 15  2  0
 15 16  1  0
 16 17  2  0
 17 18  1  0
 17 19  1  0
 19 20  2  0
 20 21  1  0
 21 22  2  0
  5 23  1  0
 23 24  1  0
 24 25  2  0
 24 26  1  0
 26 27  1  0
 27 28  1  0
 28 29  1  0
 29 30  1  0
 30 31  1  0
 23  2  1  0
 31 27  1  0
 22 12  1  0
 21 15  1  0
  1 32  1  0
  1 33  1  0
  2 34  1  6
  3 35  1  0
  3 36  1  0
  4 37  1  0
  4 38  1  0
  8 39  1  0
  8 40  1  0
  9 41  1  0
 13 42  1  0
 14 43  1  0
 16 44  1  0
 19 45  1  0
 20 46  1  0
 23 47  1  1
 26 48  1  0
 27 49  1  0
 28 50  1  0
 28 51  1  0
 29 52  1  0
 29 53  1  0
 30 54  1  0
 30 55  1  0
 31 56  1  0
 31 57  1  0
M  END
>  <smiles>  (16) 
N[C@@H]1CCN(C(=O)CNC(=O)c2ccc3cc(Cl)ccc3n2)[C@H]1C(=O)NC1CCCC1

>  <score_type>  (16) 
oracle

>  <origin>  (16) 
autodockgpu

>  <m_score__min__energy>  (16) 
-9.25

>  <m_primary>  (16) 
energy

>  <rmsd>  (16) 
8.13062508252684

>  <m_score__min__rmsd>  (16) 
8.13062508252684

>  <meeko>  (16) 
{"free_energy": -5.92, "intermolecular_energy": -8.01, "internal_energy": -4.76, "cluster_size": 4, "cluster_id": 9, "rank_in_cluster": 4}

>  <energy>  (16) 
-8.18

>  <cluster_rmsd>  (16) 
1.35

>  <cluster>  (16) 
1

$$$$

     RDKit          3D

 57 60  0  0  0  0  0  0  0  0999 V2000
  136.9560   79.0620  223.4600 N   0  0  0  0  0  0  0  0  0  0  0  0
  136.8580   78.0510  222.4360 C   0  0  2  0  0  0  0  0  0  0  0  0
  135.4870   77.3550  222.5080 C   0  0  0  0  0  0  0  0  0  0  0  0
  135.7680   75.8630  222.1570 C   0  0  0  0  0  0  0  0  0  0  0  0
  137.1570   75.9530  221.6550 N   0  0  0  0  0  0  0  0  0  0  0  0
  137.7570   75.3150  220.5520 C   0  0  0  0  0  0  0  0  0  0  0  0
  137.5810   75.8920  219.4230 O   0  0  0  0  0  0  0  0  0  0  0  0
  138.5470   74.0830  220.5300 C   0  0  0  0  0  0  0  0  0  0  0  0
  138.7950   73.4710  221.8250 N   0  0  0  0  0  0  0  0  0  0  0  0
  138.8190   72.0040  221.7620 C   0  0  0  0  0  0  0  0  0  0  0  0
  138.6100   71.5280  220.6440 O   0  0  0  0  0  0  0  0  0  0  0  0
  139.0860   71.2740  222.9860 C   0  0  0  0  0  0  0  0  0  0  0  0
  138.6000   70.0120  223.1000 C   0  0  0  0  0  0  0  0  0  0  0  0
  138.8350   69.2160  224.1940 C   0  0  0  0  0  0  0  0  0  0  0  0
  139.5970   69.7240  225.2160 C   0  0  0  0  0  0  0  0  0  0  0  0
  139.8540   68.9410  226.3170 C   0  0  0  0  0  0  0  0  0  0  0  0
  140.6210   69.4600  227.3230 C   0  0  0  0  0  0  0  0  0  0  0  0
  140.9730   68.5050  228.7450 Cl  0  0  0  0  0  0  0  0  0  0  0  0
  141.1070   70.7390  227.1980 C   0  0  0  0  0  0  0  0  0  0  0  0
  140.8800   71.5610  226.1200 C   0  0  0  0  0  0  0  0  0  0  0  0
  140.0920   71.0170  225.0940 C   0  0  0  0  0  0  0  0  0  0  0  0
  139.8460   71.7870  224.0020 N   0  0  0  0  0  0  0  0  0  0  0  0
  137.7440   76.8800  222.6340 C   0  0  1  0  0  0  0  0  0  0  0  0
  139.1530   77.0100  222.7120 C   0  0  0  0  0  0  0  0  0  0  0  0
  139.9020   75.9950  222.5930 O   0  0  0  0  0  0  0  0  0  0  0  0
  139.8350   78.2470  222.9240 N   0  0  0  0  0  0  0  0  0  0  0  0
  141.2930   78.2930  223.0060 C   0  0  0  0  0  0  0  0  0  0  0  0
  141.8370   78.9720  221.7420 C   0  0  0  0  0  0  0  0  0  0  0  0
  141.9920   80.3920  222.1910 C   0  0  0  0  0  0  0  0  0  0  0  0
  142.4390   80.3070  223.6340 C   0  0  0  0  0  0  0  0  0  0  0  0
  141.8120   79.0420  224.1380 C   0  0  0  0  0  0  0  0  0  0  0  0
  136.6880   80.0100  223.1430 H   0  0  0  0  0  0  0  0  0  0  0  0
  137.9110   79.0150  223.9010 H   0  0  0  0  0  0  0  0  0  0  0  0
  137.0900   78.6098  221.5173 H   0  0  0  0  0  0  0  0  0  0  0  0
  135.0637   77.4403  223.5197 H   0  0  0  0  0  0  0  0  0  0  0  0
  134.7585   77.8092  221.8203 H   0  0  0  0  0  0  0  0  0  0  0  0
  135.6997   75.2183  223.0456 H   0  0  0  0  0  0  0  0  0  0  0  0
  135.0547   75.4203  221.4462 H   0  0  0  0  0  0  0  0  0  0  0  0
  138.0137   73.3504  219.9064 H   0  0  0  0  0  0  0  0  0  0  0  0
  139.5348   74.3667  220.1379 H   0  0  0  0  0  0  0  0  0  0  0  0
  138.9450   73.9790  222.7110 H   0  0  0  0  0  0  0  0  0  0  0  0
  137.9900   69.6083  222.2785 H   0  0  0  0  0  0  0  0  0  0  0  0
  138.4231   68.1975  224.2497 H   0  0  0  0  0  0  0  0  0  0  0  0
  139.4514   67.9197  226.3868 H   0  0  0  0  0  0  0  0  0  0  0  0
  141.7222   71.1337  228.0200 H   0  0  0  0  0  0  0  0  0  0  0  0
  141.2899   72.5803  226.0650 H   0  0  0  0  0  0  0  0  0  0  0  0
  137.7480   76.5277  223.6761 H   0  0  0  0  0  0  0  0  0  0  0  0
  139.3350   79.1510  223.0230 H   0  0  0  0  0  0  0  0  0  0  0  0
  141.6160   77.2477  223.1198 H   0  0  0  0  0  0  0  0  0  0  0  0
  142.8031   78.5406  221.4413 H   0  0  0  0  0  0  0  0  0  0  0  0
  141.1877   78.8544  220.8619 H   0  0  0  0  0  0  0  0  0  0  0  0
  142.7493   80.9081  221.5827 H   0  0  0  0  0  0  0  0  0  0  0  0
  141.0566   80.9608  222.0839 H   0  0  0  0  0  0  0  0  0  0  0  0
  143.5356   80.2525  223.7004 H   0  0  0  0  0  0  0  0  0  0  0  0
  142.1408   81.1884  224.2206 H   0  0  0  0  0  0  0  0  0  0  0  0
  142.5667   78.4398  224.6650 H   0  0  0  0  0  0  0  0  0  0  0  0
  140.9945   79.2816  224.8339 H   0  0  0  0  0  0  0  0  0  0  0  0
  1  2  1  0
  2  3  1  0
  3  4  1  0
  4  5  1  0
  5  6  1  0
  6  7  2  0
  6  8  1  0
  8  9  1  0
  9 10  1  0
 10 11  2  0
 10 12  1  0
 12 13  2  0
 13 14  1  0
 14 15  2  0
 15 16  1  0
 16 17  2  0
 17 18  1  0
 17 19  1  0
 19 20  2  0
 20 21  1  0
 21 22  2  0
  5 23  1  0
 23 24  1  0
 24 25  2  0
 24 26  1  0
 26 27  1  0
 27 28  1  0
 28 29  1  0
 29 30  1  0
 30 31  1  0
 23  2  1  0
 31 27  1  0
 22 12  1  0
 21 15  1  0
  1 32  1  0
  1 33  1  0
  2 34  1  6
  3 35  1  0
  3 36  1  0
  4 37  1  0
  4 38  1  0
  8 39  1  0
  8 40  1  0
  9 41  1  0
 13 42  1  0
 14 43  1  0
 16 44  1  0
 19 45  1  0
 20 46  1  0
 23 47  1  1
 26 48  1  0
 27 49  1  0
 28 50  1  0
 28 51  1  0
 29 52  1  0
 29 53  1  0
 30 54  1  0
 30 55  1  0
 31 56  1  0
 31 57  1  0
M  END
>  <smiles>  (17) 
N[C@@H]1CCN(C(=O)CNC(=O)c2ccc3cc(Cl)ccc3n2)[C@H]1C(=O)NC1CCCC1

>  <score_type>  (17) 
oracle

>  <origin>  (17) 
autodockgpu

>  <m_score__min__energy>  (17) 
-9.25

>  <m_primary>  (17) 
energy

>  <rmsd>  (17) 
3.136040804240352

>  <m_score__min__rmsd>  (17) 
3.136040804240352

>  <meeko>  (17) 
{"free_energy": -7.57, "intermolecular_energy": -9.66, "internal_energy": -2.57, "cluster_size": 6, "cluster_id": 6, "rank_in_cluster": 4}

>  <energy>  (17) 
-7.54

>  <cluster_rmsd>  (17) 
0.99

>  <cluster>  (17) 
1

$$$$

     RDKit          3D

 57 60  0  0  0  0  0  0  0  0999 V2000
  138.0110   78.6540  220.8590 N   0  0  0  0  0  0  0  0  0  0  0  0
  138.4070   77.2680  220.8440 C   0  0  2  0  0  0  0  0  0  0  0  0
  137.1720   76.3610  220.9960 C   0  0  0  0  0  0  0  0  0  0  0  0
  137.6520   75.1620  221.8680 C   0  0  0  0  0  0  0  0  0  0  0  0
  139.1160   75.3740  221.8500 N   0  0  0  0  0  0  0  0  0  0  0  0
  140.1590   74.4370  221.7170 C   0  0  0  0  0  0  0  0  0  0  0  0
  140.0530   73.3920  222.4490 O   0  0  0  0  0  0  0  0  0  0  0  0
  141.3420   74.5050  220.8580 C   0  0  0  0  0  0  0  0  0  0  0  0
  141.8180   75.8420  220.5470 N   0  0  0  0  0  0  0  0  0  0  0  0
  141.0850   76.4580  219.4330 C   0  0  0  0  0  0  0  0  0  0  0  0
  140.2090   75.7500  218.9320 O   0  0  0  0  0  0  0  0  0  0  0  0
  141.4460   77.8070  219.0420 C   0  0  0  0  0  0  0  0  0  0  0  0
  142.5740   77.9830  218.3080 C   0  0  0  0  0  0  0  0  0  0  0  0
  142.9800   79.2100  217.8440 C   0  0  0  0  0  0  0  0  0  0  0  0
  142.2080   80.3050  218.1400 C   0  0  0  0  0  0  0  0  0  0  0  0
  142.5920   81.5420  217.6780 C   0  0  0  0  0  0  0  0  0  0  0  0
  141.8070   82.6220  217.9740 C   0  0  0  0  0  0  0  0  0  0  0  0
  142.2530   84.2170  217.4130 Cl  0  0  0  0  0  0  0  0  0  0  0  0
  140.6690   82.4330  218.7210 C   0  0  0  0  0  0  0  0  0  0  0  0
  140.2420   81.2200  219.2050 C   0  0  0  0  0  0  0  0  0  0  0  0
  141.0550   80.1190  218.8930 C   0  0  0  0  0  0  0  0  0  0  0  0
  140.6720   78.8960  219.3420 N   0  0  0  0  0  0  0  0  0  0  0  0
  139.1860   76.8320  222.0280 C   0  0  1  0  0  0  0  0  0  0  0  0
  140.4200   77.4340  222.3760 C   0  0  0  0  0  0  0  0  0  0  0  0
  141.2800   76.7950  223.0540 O   0  0  0  0  0  0  0  0  0  0  0  0
  140.7980   78.7620  222.0120 N   0  0  0  0  0  0  0  0  0  0  0  0
  142.0860   79.3140  222.4250 C   0  0  0  0  0  0  0  0  0  0  0  0
  142.3290   80.6240  221.6630 C   0  0  0  0  0  0  0  0  0  0  0  0
  141.8330   81.6490  222.6360 C   0  0  0  0  0  0  0  0  0  0  0  0
  142.2180   81.1210  224.0000 C   0  0  0  0  0  0  0  0  0  0  0  0
  142.1850   79.6300  223.8400 C   0  0  0  0  0  0  0  0  0  0  0  0
  138.6630   79.2840  220.3590 H   0  0  0  0  0  0  0  0  0  0  0  0
  137.8150   78.9460  221.8510 H   0  0  0  0  0  0  0  0  0  0  0  0
  138.9766   77.1870  219.9064 H   0  0  0  0  0  0  0  0  0  0  0  0
  136.3559   76.9012  221.4982 H   0  0  0  0  0  0  0  0  0  0  0  0
  136.7812   76.0312  220.0221 H   0  0  0  0  0  0  0  0  0  0  0  0
  137.2476   75.2170  222.8895 H   0  0  0  0  0  0  0  0  0  0  0  0
  137.3303   74.1757  221.5023 H   0  0  0  0  0  0  0  0  0  0  0  0
  142.1570   73.9646  221.3617 H   0  0  0  0  0  0  0  0  0  0  0  0
  141.0409   74.0625  219.8970 H   0  0  0  0  0  0  0  0  0  0  0  0
  142.5810   76.3370  221.0330 H   0  0  0  0  0  0  0  0  0  0  0  0
  143.1910   77.1028  218.0742 H   0  0  0  0  0  0  0  0  0  0  0  0
  143.9004   79.3124  217.2503 H   0  0  0  0  0  0  0  0  0  0  0  0
  143.5100   81.6601  217.0836 H   0  0  0  0  0  0  0  0  0  0  0  0
  140.0553   83.3172  218.9479 H   0  0  0  0  0  0  0  0  0  0  0  0
  139.3218   81.1182  219.7991 H   0  0  0  0  0  0  0  0  0  0  0  0
  138.7684   77.2135  222.9714 H   0  0  0  0  0  0  0  0  0  0  0  0
  140.1870   79.3820  221.4460 H   0  0  0  0  0  0  0  0  0  0  0  0
  142.8264   78.5308  222.2052 H   0  0  0  0  0  0  0  0  0  0  0  0
  143.3975   80.7660  221.4433 H   0  0  0  0  0  0  0  0  0  0  0  0
  141.8303   80.6655  220.6834 H   0  0  0  0  0  0  0  0  0  0  0  0
  142.3123   82.6214  222.4496 H   0  0  0  0  0  0  0  0  0  0  0  0
  140.7481   81.8077  222.5481 H   0  0  0  0  0  0  0  0  0  0  0  0
  143.2260   81.4611  224.2798 H   0  0  0  0  0  0  0  0  0  0  0  0
  141.5442   81.4746  224.7943 H   0  0  0  0  0  0  0  0  0  0  0  0
  143.1062   79.1932  224.2530 H   0  0  0  0  0  0  0  0  0  0  0  0
  141.3196   79.2150  224.3775 H   0  0  0  0  0  0  0  0  0  0  0  0
  1  2  1  0
  2  3  1  0
  3  4  1  0
  4  5  1  0
  5  6  1  0
  6  7  2  0
  6  8  1  0
  8  9  1  0
  9 10  1  0
 10 11  2  0
 10 12  1  0
 12 13  2  0
 13 14  1  0
 14 15  2  0
 15 16  1  0
 16 17  2  0
 17 18  1  0
 17 19  1  0
 19 20  2  0
 20 21  1  0
 21 22  2  0
  5 23  1  0
 23 24  1  0
 24 25  2  0
 24 26  1  0
 26 27  1  0
 27 28  1  0
 28 29  1  0
 29 30  1  0
 30 31  1  0
 23  2  1  0
 31 27  1  0
 22 12  1  0
 21 15  1  0
  1 32  1  0
  1 33  1  0
  2 34  1  6
  3 35  1  0
  3 36  1  0
  4 37  1  0
  4 38  1  0
  8 39  1  0
  8 40  1  0
  9 41  1  0
 13 42  1  0
 14 43  1  0
 16 44  1  0
 19 45  1  0
 20 46  1  0
 23 47  1  1
 26 48  1  0
 27 49  1  0
 28 50  1  0
 28 51  1  0
 29 52  1  0
 29 53  1  0
 30 54  1  0
 30 55  1  0
 31 56  1  0
 31 57  1  0
M  END
>  <smiles>  (18) 
N[C@@H]1CCN(C(=O)CNC(=O)c2ccc3cc(Cl)ccc3n2)[C@H]1C(=O)NC1CCCC1

>  <score_type>  (18) 
oracle

>  <origin>  (18) 
autodockgpu

>  <m_score__min__energy>  (18) 
-9.25

>  <m_primary>  (18) 
energy

>  <rmsd>  (18) 
8.05318776942995

>  <m_score__min__rmsd>  (18) 
8.05318776942995

>  <meeko>  (18) 
{"free_energy": -5.94, "intermolecular_energy": -8.02, "internal_energy": -4.59, "cluster_size": 4, "cluster_id": 9, "rank_in_cluster": 3}

>  <energy>  (18) 
-8.36

>  <cluster_rmsd>  (18) 
0.0

>  <cluster>  (18) 
2

$$$$

     RDKit          3D

 57 60  0  0  0  0  0  0  0  0999 V2000
  136.9760   79.1790  223.3210 N   0  0  0  0  0  0  0  0  0  0  0  0
  136.8860   78.0930  222.3770 C   0  0  2  0  0  0  0  0  0  0  0  0
  135.5390   77.3650  222.5340 C   0  0  0  0  0  0  0  0  0  0  0  0
  135.8580   75.8590  222.2860 C   0  0  0  0  0  0  0  0  0  0  0  0
  137.2310   75.9520  221.7440 N   0  0  0  0  0  0  0  0  0  0  0  0
  137.8260   75.2520  220.6770 C   0  0  0  0  0  0  0  0  0  0  0  0
  137.2990   75.4550  219.5280 O   0  0  0  0  0  0  0  0  0  0  0  0
  138.9580   74.3240  220.7130 C   0  0  0  0  0  0  0  0  0  0  0  0
  139.1680   73.6360  221.9760 N   0  0  0  0  0  0  0  0  0  0  0  0
  139.1670   72.1750  221.8300 C   0  0  0  0  0  0  0  0  0  0  0  0
  138.9720   71.7660  220.6830 O   0  0  0  0  0  0  0  0  0  0  0  0
  139.3950   71.3710  223.0160 C   0  0  0  0  0  0  0  0  0  0  0  0
  139.0290   70.0650  222.9870 C   0  0  0  0  0  0  0  0  0  0  0  0
  139.2440   69.2050  224.0360 C   0  0  0  0  0  0  0  0  0  0  0  0
  139.8570   69.6940  225.1620 C   0  0  0  0  0  0  0  0  0  0  0  0
  140.0910   68.8480  226.2210 C   0  0  0  0  0  0  0  0  0  0  0  0
  140.7100   69.3480  227.3320 C   0  0  0  0  0  0  0  0  0  0  0  0
  141.0270   68.3140  228.7060 Cl  0  0  0  0  0  0  0  0  0  0  0  0
  141.0740   70.6730  227.3510 C   0  0  0  0  0  0  0  0  0  0  0  0
  140.8640   71.5590  226.3210 C   0  0  0  0  0  0  0  0  0  0  0  0
  140.2290   71.0330  225.1860 C   0  0  0  0  0  0  0  0  0  0  0  0
  140.0060   71.8650  224.1370 N   0  0  0  0  0  0  0  0  0  0  0  0
  137.8120   76.9660  222.6380 C   0  0  1  0  0  0  0  0  0  0  0  0
  139.2180   77.1420  222.6710 C   0  0  0  0  0  0  0  0  0  0  0  0
  139.9950   76.1430  222.6160 O   0  0  0  0  0  0  0  0  0  0  0  0
  139.8660   78.4110  222.7660 N   0  0  0  0  0  0  0  0  0  0  0  0
  141.3230   78.5060  222.8090 C   0  0  0  0  0  0  0  0  0  0  0  0
  141.7930   79.4140  221.6640 C   0  0  0  0  0  0  0  0  0  0  0  0
  141.9120   80.7420  222.3450 C   0  0  0  0  0  0  0  0  0  0  0  0
  142.4170   80.4320  223.7370 C   0  0  0  0  0  0  0  0  0  0  0  0
  141.8570   79.0720  224.0360 C   0  0  0  0  0  0  0  0  0  0  0  0
  136.4150   79.0380  224.1800 H   0  0  0  0  0  0  0  0  0  0  0  0
  136.7730   80.0850  222.8250 H   0  0  0  0  0  0  0  0  0  0  0  0
  137.0798   78.5886  221.4143 H   0  0  0  0  0  0  0  0  0  0  0  0
  135.1364   77.5125  223.5470 H   0  0  0  0  0  0  0  0  0  0  0  0
  134.7813   77.7459  221.8335 H   0  0  0  0  0  0  0  0  0  0  0  0
  135.8302   75.2800  223.2209 H   0  0  0  0  0  0  0  0  0  0  0  0
  135.1425   75.3444  221.6278 H   0  0  0  0  0  0  0  0  0  0  0  0
  138.7957   73.5624  219.9360 H   0  0  0  0  0  0  0  0  0  0  0  0
  139.8558   74.9392  220.5534 H   0  0  0  0  0  0  0  0  0  0  0  0
  139.3080   74.0900  222.8910 H   0  0  0  0  0  0  0  0  0  0  0  0
  138.5378   69.6773  222.0823 H   0  0  0  0  0  0  0  0  0  0  0  0
  138.9329   68.1517  223.9751 H   0  0  0  0  0  0  0  0  0  0  0  0
  139.7865   67.7920  226.1746 H   0  0  0  0  0  0  0  0  0  0  0  0
  141.5697   71.0525  228.2567 H   0  0  0  0  0  0  0  0  0  0  0  0
  141.1739   72.6126  226.3828 H   0  0  0  0  0  0  0  0  0  0  0  0
  137.8509   76.6922  223.7027 H   0  0  0  0  0  0  0  0  0  0  0  0
  139.3410   79.3060  222.8040 H   0  0  0  0  0  0  0  0  0  0  0  0
  141.6886   77.4715  222.7309 H   0  0  0  0  0  0  0  0  0  0  0  0
  142.7624   79.0823  221.2637 H   0  0  0  0  0  0  0  0  0  0  0  0
  141.1153   79.4202  220.7976 H   0  0  0  0  0  0  0  0  0  0  0  0
  142.6255   81.3866  221.8108 H   0  0  0  0  0  0  0  0  0  0  0  0
  140.9526   81.2796  222.3667 H   0  0  0  0  0  0  0  0  0  0  0  0
  143.5167   80.4147  223.7585 H   0  0  0  0  0  0  0  0  0  0  0  0
  142.1088   81.1868  224.4754 H   0  0  0  0  0  0  0  0  0  0  0  0
  142.6535   78.4219  224.4271 H   0  0  0  0  0  0  0  0  0  0  0  0
  141.0589   79.1534  224.7886 H   0  0  0  0  0  0  0  0  0  0  0  0
  1  2  1  0
  2  3  1  0
  3  4  1  0
  4  5  1  0
  5  6  1  0
  6  7  2  0
  6  8  1  0
  8  9  1  0
  9 10  1  0
 10 11  2  0
 10 12  1  0
 12 13  2  0
 13 14  1  0
 14 15  2  0
 15 16  1  0
 16 17  2  0
 17 18  1  0
 17 19  1  0
 19 20  2  0
 20 21  1  0
 21 22  2  0
  5 23  1  0
 23 24  1  0
 24 25  2  0
 24 26  1  0
 26 27  1  0
 27 28  1  0
 28 29  1  0
 29 30  1  0
 30 31  1  0
 23  2  1  0
 31 27  1  0
 22 12  1  0
 21 15  1  0
  1 32  1  0
  1 33  1  0
  2 34  1  6
  3 35  1  0
  3 36  1  0
  4 37  1  0
  4 38  1  0
  8 39  1  0
  8 40  1  0
  9 41  1  0
 13 42  1  0
 14 43  1  0
 16 44  1  0
 19 45  1  0
 20 46  1  0
 23 47  1  1
 26 48  1  0
 27 49  1  0
 28 50  1  0
 28 51  1  0
 29 52  1  0
 29 53  1  0
 30 54  1  0
 30 55  1  0
 31 56  1  0
 31 57  1  0
M  END
>  <smiles>  (19) 
N[C@@H]1CCN(C(=O)CNC(=O)c2ccc3cc(Cl)ccc3n2)[C@H]1C(=O)NC1CCCC1

>  <score_type>  (19) 
oracle

>  <origin>  (19) 
autodockgpu

>  <m_score__min__energy>  (19) 
-9.25

>  <m_primary>  (19) 
energy

>  <rmsd>  (19) 
3.1246999908689657

>  <m_score__min__rmsd>  (19) 
3.1246999908689657

>  <meeko>  (19) 
{"free_energy": -7.81, "intermolecular_energy": -9.9, "internal_energy": -2.56, "cluster_size": 6, "cluster_id": 6, "rank_in_cluster": 1}

>  <energy>  (19) 
-8.01

>  <cluster_rmsd>  (19) 
1.32

>  <cluster>  (19) 
2

$$$$

     RDKit          3D

 57 60  0  0  0  0  0  0  0  0999 V2000
  142.2150   78.7500  221.9500 N   0  0  0  0  0  0  0  0  0  0  0  0
  140.9700   78.1250  221.5790 C   0  0  2  0  0  0  0  0  0  0  0  0
  139.9250   78.3250  222.6920 C   0  0  0  0  0  0  0  0  0  0  0  0
  139.1030   77.0010  222.7220 C   0  0  0  0  0  0  0  0  0  0  0  0
  139.5670   76.3580  221.4720 N   0  0  0  0  0  0  0  0  0  0  0  0
  138.8350   75.6520  220.4990 C   0  0  0  0  0  0  0  0  0  0  0  0
  138.2630   76.3760  219.6120 O   0  0  0  0  0  0  0  0  0  0  0  0
  138.6400   74.2060  220.3740 C   0  0  0  0  0  0  0  0  0  0  0  0
  138.5980   73.4670  221.6250 N   0  0  0  0  0  0  0  0  0  0  0  0
  139.6060   72.4010  221.6850 C   0  0  0  0  0  0  0  0  0  0  0  0
  140.3050   72.2890  220.6760 O   0  0  0  0  0  0  0  0  0  0  0  0
  139.6860   71.6050  222.8950 C   0  0  0  0  0  0  0  0  0  0  0  0
  139.1660   70.3520  222.8760 C   0  0  0  0  0  0  0  0  0  0  0  0
  139.2320   69.4990  223.9500 C   0  0  0  0  0  0  0  0  0  0  0  0
  139.8530   69.9380  225.0920 C   0  0  0  0  0  0  0  0  0  0  0  0
  139.9390   69.0970  226.1760 C   0  0  0  0  0  0  0  0  0  0  0  0
  140.5670   69.5470  227.3050 C   0  0  0  0  0  0  0  0  0  0  0  0
  140.6990   68.5170  228.7110 Cl  0  0  0  0  0  0  0  0  0  0  0  0
  141.0870   70.8190  227.3140 C   0  0  0  0  0  0  0  0  0  0  0  0
  141.0280   71.6970  226.2590 C   0  0  0  0  0  0  0  0  0  0  0  0
  140.3830   71.2230  225.1070 C   0  0  0  0  0  0  0  0  0  0  0  0
  140.3050   72.0500  224.0330 N   0  0  0  0  0  0  0  0  0  0  0  0
  141.0080   76.6440  221.5340 C   0  0  1  0  0  0  0  0  0  0  0  0
  141.8950   75.9430  220.6800 C   0  0  0  0  0  0  0  0  0  0  0  0
  142.5990   76.5650  219.8300 O   0  0  0  0  0  0  0  0  0  0  0  0
  142.0730   74.5260  220.6960 N   0  0  0  0  0  0  0  0  0  0  0  0
  143.0000   73.8780  219.7700 C   0  0  0  0  0  0  0  0  0  0  0  0
  144.4170   74.4000  220.0440 C   0  0  0  0  0  0  0  0  0  0  0  0
  144.9630   73.3560  220.9670 C   0  0  0  0  0  0  0  0  0  0  0  0
  144.3840   72.0480  220.4760 C   0  0  0  0  0  0  0  0  0  0  0  0
  143.0590   72.4310  219.8870 C   0  0  0  0  0  0  0  0  0  0  0  0
  142.9000   78.8140  221.1770 H   0  0  0  0  0  0  0  0  0  0  0  0
  142.5920   78.2830  222.8150 H   0  0  0  0  0  0  0  0  0  0  0  0
  140.7527   78.5747  220.5989 H   0  0  0  0  0  0  0  0  0  0  0  0
  140.4196   78.4942  223.6599 H   0  0  0  0  0  0  0  0  0  0  0  0
  139.2870   79.2013  222.5049 H   0  0  0  0  0  0  0  0  0  0  0  0
  139.3476   76.3926  223.6052 H   0  0  0  0  0  0  0  0  0  0  0  0
  138.0139   77.1424  222.7843 H   0  0  0  0  0  0  0  0  0  0  0  0
  137.6882   74.0371  219.8491 H   0  0  0  0  0  0  0  0  0  0  0  0
  139.5200   73.8297  219.8318 H   0  0  0  0  0  0  0  0  0  0  0  0
  137.9480   73.6440  222.4060 H   0  0  0  0  0  0  0  0  0  0  0  0
  138.6690   70.0036  221.9586 H   0  0  0  0  0  0  0  0  0  0  0  0
  138.7981   68.4896  223.8962 H   0  0  0  0  0  0  0  0  0  0  0  0
  139.5120   68.0840  226.1365 H   0  0  0  0  0  0  0  0  0  0  0  0
  141.5870   71.1590  228.2329 H   0  0  0  0  0  0  0  0  0  0  0  0
  141.4591   72.7075  226.3141 H   0  0  0  0  0  0  0  0  0  0  0  0
  141.5392   76.2102  222.3940 H   0  0  0  0  0  0  0  0  0  0  0  0
  141.5660   73.9060  221.3560 H   0  0  0  0  0  0  0  0  0  0  0  0
  142.6280   74.1178  218.7630 H   0  0  0  0  0  0  0  0  0  0  0  0
  145.0062   74.4610  219.1171 H   0  0  0  0  0  0  0  0  0  0  0  0
  144.4407   75.4169  220.4627 H   0  0  0  0  0  0  0  0  0  0  0  0
  146.0616   73.3340  220.9172 H   0  0  0  0  0  0  0  0  0  0  0  0
  144.6962   73.5550  222.0154 H   0  0  0  0  0  0  0  0  0  0  0  0
  145.0342   71.5955  219.7128 H   0  0  0  0  0  0  0  0  0  0  0  0
  144.2888   71.3015  221.2783 H   0  0  0  0  0  0  0  0  0  0  0  0
  142.9509   71.9748  218.8919 H   0  0  0  0  0  0  0  0  0  0  0  0
  142.2446   72.0746  220.5349 H   0  0  0  0  0  0  0  0  0  0  0  0
  1  2  1  0
  2  3  1  0
  3  4  1  0
  4  5  1  0
  5  6  1  0
  6  7  2  0
  6  8  1  0
  8  9  1  0
  9 10  1  0
 10 11  2  0
 10 12  1  0
 12 13  2  0
 13 14  1  0
 14 15  2  0
 15 16  1  0
 16 17  2  0
 17 18  1  0
 17 19  1  0
 19 20  2  0
 20 21  1  0
 21 22  2  0
  5 23  1  0
 23 24  1  0
 24 25  2  0
 24 26  1  0
 26 27  1  0
 27 28  1  0
 28 29  1  0
 29 30  1  0
 30 31  1  0
 23  2  1  0
 31 27  1  0
 22 12  1  0
 21 15  1  0
  1 32  1  0
  1 33  1  0
  2 34  1  6
  3 35  1  0
  3 36  1  0
  4 37  1  0
  4 38  1  0
  8 39  1  0
  8 40  1  0
  9 41  1  0
 13 42  1  0
 14 43  1  0
 16 44  1  0
 19 45  1  0
 20 46  1  0
 23 47  1  1
 26 48  1  0
 27 49  1  0
 28 50  1  0
 28 51  1  0
 29 52  1  0
 29 53  1  0
 30 54  1  0
 30 55  1  0
 31 56  1  0
 31 57  1  0
M  END
>  <smiles>  (20) 
N[C@@H]1CCN(C(=O)CNC(=O)c2ccc3cc(Cl)ccc3n2)[C@H]1C(=O)NC1CCCC1

>  <score_type>  (20) 
oracle

>  <origin>  (20) 
autodockgpu

>  <m_score__min__energy>  (20) 
-9.25

>  <m_primary>  (20) 
energy

>  <rmsd>  (20) 
4.744138498859868

>  <m_score__min__rmsd>  (20) 
4.744138498859868

>  <meeko>  (20) 
{"free_energy": -8.0, "intermolecular_energy": -10.09, "internal_energy": -2.78, "cluster_size": 13, "cluster_id": 2, "rank_in_cluster": 3}

>  <energy>  (20) 
-8.0

>  <cluster_rmsd>  (20) 
1.33

>  <cluster>  (20) 
2

$$$$

     RDKit          3D

 57 60  0  0  0  0  0  0  0  0999 V2000
  137.9800   78.6980  220.8870 N   0  0  0  0  0  0  0  0  0  0  0  0
  138.3710   77.3100  220.8820 C   0  0  2  0  0  0  0  0  0  0  0  0
  137.1330   76.4100  221.0420 C   0  0  0  0  0  0  0  0  0  0  0  0
  137.6090   75.2150  221.9220 C   0  0  0  0  0  0  0  0  0  0  0  0
  139.0740   75.4210  221.9010 N   0  0  0  0  0  0  0  0  0  0  0  0
  140.1120   74.4790  221.7730 C   0  0  0  0  0  0  0  0  0  0  0  0
  139.9560   73.3970  222.4410 O   0  0  0  0  0  0  0  0  0  0  0  0
  141.3420   74.5780  220.9850 C   0  0  0  0  0  0  0  0  0  0  0  0
  141.7840   75.9270  220.6750 N   0  0  0  0  0  0  0  0  0  0  0  0
  141.1240   76.4780  219.4850 C   0  0  0  0  0  0  0  0  0  0  0  0
  140.3270   75.7170  218.9320 O   0  0  0  0  0  0  0  0  0  0  0  0
  141.4590   77.8320  219.0850 C   0  0  0  0  0  0  0  0  0  0  0  0
  142.5800   78.0240  218.3440 C   0  0  0  0  0  0  0  0  0  0  0  0
  142.9620   79.2560  217.8730 C   0  0  0  0  0  0  0  0  0  0  0  0
  142.1710   80.3380  218.1660 C   0  0  0  0  0  0  0  0  0  0  0  0
  142.5290   81.5800  217.6950 C   0  0  0  0  0  0  0  0  0  0  0  0
  141.7270   82.6470  217.9900 C   0  0  0  0  0  0  0  0  0  0  0  0
  142.1410   84.2460  217.4180 Cl  0  0  0  0  0  0  0  0  0  0  0  0
  140.5950   82.4410  218.7430 C   0  0  0  0  0  0  0  0  0  0  0  0
  140.1930   81.2220  219.2350 C   0  0  0  0  0  0  0  0  0  0  0  0
  141.0240   80.1350  218.9250 C   0  0  0  0  0  0  0  0  0  0  0  0
  140.6670   78.9080  219.3820 N   0  0  0  0  0  0  0  0  0  0  0  0
  139.1490   76.8800  222.0680 C   0  0  1  0  0  0  0  0  0  0  0  0
  140.3870   77.4790  222.4110 C   0  0  0  0  0  0  0  0  0  0  0  0
  141.2460   76.8420  223.0890 O   0  0  0  0  0  0  0  0  0  0  0  0
  140.7680   78.8050  222.0390 N   0  0  0  0  0  0  0  0  0  0  0  0
  142.0590   79.3540  222.4460 C   0  0  0  0  0  0  0  0  0  0  0  0
  142.2940   80.6710  221.6930 C   0  0  0  0  0  0  0  0  0  0  0  0
  141.8060   81.6870  222.6780 C   0  0  0  0  0  0  0  0  0  0  0  0
  142.2010   81.1480  224.0350 C   0  0  0  0  0  0  0  0  0  0  0  0
  142.1690   79.6580  223.8620 C   0  0  0  0  0  0  0  0  0  0  0  0
  137.0090   78.8630  220.5710 H   0  0  0  0  0  0  0  0  0  0  0  0
  138.6990   79.2620  220.3640 H   0  0  0  0  0  0  0  0  0  0  0  0
  138.9397   77.2196  219.9448 H   0  0  0  0  0  0  0  0  0  0  0  0
  136.3200   76.9573  221.5415 H   0  0  0  0  0  0  0  0  0  0  0  0
  136.7394   76.0750  220.0710 H   0  0  0  0  0  0  0  0  0  0  0  0
  137.2059   75.2788  222.9435 H   0  0  0  0  0  0  0  0  0  0  0  0
  137.2829   74.2274  221.5636 H   0  0  0  0  0  0  0  0  0  0  0  0
  142.1452   74.0800  221.5479 H   0  0  0  0  0  0  0  0  0  0  0  0
  141.1173   74.1059  220.0172 H   0  0  0  0  0  0  0  0  0  0  0  0
  142.4800   76.4690  221.2100 H   0  0  0  0  0  0  0  0  0  0  0  0
  143.2107   77.1536  218.1103 H   0  0  0  0  0  0  0  0  0  0  0  0
  143.8786   79.3724  217.2761 H   0  0  0  0  0  0  0  0  0  0  0  0
  143.4409   81.7117  217.0940 H   0  0  0  0  0  0  0  0  0  0  0  0
  139.9657   83.3147  218.9679 H   0  0  0  0  0  0  0  0  0  0  0  0
  139.2776   81.1062  219.8339 H   0  0  0  0  0  0  0  0  0  0  0  0
  138.7327   77.2711  223.0080 H   0  0  0  0  0  0  0  0  0  0  0  0
  140.1580   79.4240  221.4710 H   0  0  0  0  0  0  0  0  0  0  0  0
  142.7985   78.5735  222.2137 H   0  0  0  0  0  0  0  0  0  0  0  0
  143.3604   80.8158  221.4652 H   0  0  0  0  0  0  0  0  0  0  0  0
  141.7864   80.7201  220.7184 H   0  0  0  0  0  0  0  0  0  0  0  0
  142.2840   82.6609  222.4960 H   0  0  0  0  0  0  0  0  0  0  0  0
  140.7204   81.8461  222.5997 H   0  0  0  0  0  0  0  0  0  0  0  0
  143.2104   81.4872  224.3109 H   0  0  0  0  0  0  0  0  0  0  0  0
  141.5322   81.4938  224.8370 H   0  0  0  0  0  0  0  0  0  0  0  0
  143.0942   79.2191  224.2637 H   0  0  0  0  0  0  0  0  0  0  0  0
  141.3086   79.2371  224.4028 H   0  0  0  0  0  0  0  0  0  0  0  0
  1  2  1  0
  2  3  1  0
  3  4  1  0
  4  5  1  0
  5  6  1  0
  6  7  2  0
  6  8  1  0
  8  9  1  0
  9 10  1  0
 10 11  2  0
 10 12  1  0
 12 13  2  0
 13 14  1  0
 14 15  2  0
 15 16  1  0
 16 17  2  0
 17 18  1  0
 17 19  1  0
 19 20  2  0
 20 21  1  0
 21 22  2  0
  5 23  1  0
 23 24  1  0
 24 25  2  0
 24 26  1  0
 26 27  1  0
 27 28  1  0
 28 29  1  0
 29 30  1  0
 30 31  1  0
 23  2  1  0
 31 27  1  0
 22 12  1  0
 21 15  1  0
  1 32  1  0
  1 33  1  0
  2 34  1  6
  3 35  1  0
  3 36  1  0
  4 37  1  0
  4 38  1  0
  8 39  1  0
  8 40  1  0
  9 41  1  0
 13 42  1  0
 14 43  1  0
 16 44  1  0
 19 45  1  0
 20 46  1  0
 23 47  1  1
 26 48  1  0
 27 49  1  0
 28 50  1  0
 28 51  1  0
 29 52  1  0
 29 53  1  0
 30 54  1  0
 30 55  1  0
 31 56  1  0
 31 57  1  0
M  END
>  <smiles>  (21) 
N[C@@H]1CCN(C(=O)CNC(=O)c2ccc3cc(Cl)ccc3n2)[C@H]1C(=O)NC1CCCC1

>  <score_type>  (21) 
oracle

>  <origin>  (21) 
autodockgpu

>  <m_score__min__energy>  (21) 
-9.25

>  <m_primary>  (21) 
energy

>  <rmsd>  (21) 
8.063963961755574

>  <m_score__min__rmsd>  (21) 
8.063963961755574

>  <meeko>  (21) 
{"free_energy": -5.97, "intermolecular_energy": -8.06, "internal_energy": -4.74, "cluster_size": 4, "cluster_id": 9, "rank_in_cluster": 1}

>  <energy>  (21) 
-7.73

>  <cluster_rmsd>  (21) 
1.34

>  <cluster>  (21) 
2

$$$$

     RDKit          3D

 57 60  0  0  0  0  0  0  0  0999 V2000
  142.9250   79.4720  218.2000 N   0  0  0  0  0  0  0  0  0  0  0  0
  142.7640   78.0770  218.5260 C   0  0  2  0  0  0  0  0  0  0  0  0
  142.5360   77.2550  217.2450 C   0  0  0  0  0  0  0  0  0  0  0  0
  141.5160   76.1480  217.6470 C   0  0  0  0  0  0  0  0  0  0  0  0
  141.5220   76.2860  219.1200 N   0  0  0  0  0  0  0  0  0  0  0  0
  141.5160   75.2910  220.1160 C   0  0  0  0  0  0  0  0  0  0  0  0
  142.5620   75.2500  220.8540 O   0  0  0  0  0  0  0  0  0  0  0  0
  140.4790   74.3010  220.4110 C   0  0  0  0  0  0  0  0  0  0  0  0
  140.6790   73.5220  221.6210 N   0  0  0  0  0  0  0  0  0  0  0  0
  139.5620   72.6090  221.8960 C   0  0  0  0  0  0  0  0  0  0  0  0
  138.6360   72.6590  221.0830 O   0  0  0  0  0  0  0  0  0  0  0  0
  139.6520   71.7540  223.0640 C   0  0  0  0  0  0  0  0  0  0  0  0
  139.1360   70.5020  222.9850 C   0  0  0  0  0  0  0  0  0  0  0  0
  139.2120   69.5960  224.0140 C   0  0  0  0  0  0  0  0  0  0  0  0
  139.8400   69.9790  225.1730 C   0  0  0  0  0  0  0  0  0  0  0  0
  139.9350   69.0840  226.2130 C   0  0  0  0  0  0  0  0  0  0  0  0
  140.5700   69.4790  227.3580 C   0  0  0  0  0  0  0  0  0  0  0  0
  140.7150   68.3790  228.7100 Cl  0  0  0  0  0  0  0  0  0  0  0  0
  141.0870   70.7500  227.4280 C   0  0  0  0  0  0  0  0  0  0  0  0
  141.0180   71.6810  226.4190 C   0  0  0  0  0  0  0  0  0  0  0  0
  140.3650   71.2630  225.2490 C   0  0  0  0  0  0  0  0  0  0  0  0
  140.2780   72.1430  224.2180 N   0  0  0  0  0  0  0  0  0  0  0  0
  141.5180   77.7500  219.2590 C   0  0  1  0  0  0  0  0  0  0  0  0
  141.2130   78.3300  220.5150 C   0  0  0  0  0  0  0  0  0  0  0  0
  140.6930   79.4830  220.5840 O   0  0  0  0  0  0  0  0  0  0  0  0
  141.4510   77.6950  221.7720 N   0  0  0  0  0  0  0  0  0  0  0  0
  141.1200   78.3680  223.0260 C   0  0  0  0  0  0  0  0  0  0  0  0
  142.2460   79.3530  223.3690 C   0  0  0  0  0  0  0  0  0  0  0  0
  141.7230   80.6370  222.8030 C   0  0  0  0  0  0  0  0  0  0  0  0
  140.2300   80.5980  223.0410 C   0  0  0  0  0  0  0  0  0  0  0  0
  139.8880   79.1380  222.9920 C   0  0  0  0  0  0  0  0  0  0  0  0
  142.0760   80.0420  218.3610 H   0  0  0  0  0  0  0  0  0  0  0  0
  143.3150   79.5560  217.2260 H   0  0  0  0  0  0  0  0  0  0  0  0
  143.6706   77.8569  219.1088 H   0  0  0  0  0  0  0  0  0  0  0  0
  142.1221   77.8899  216.4477 H   0  0  0  0  0  0  0  0  0  0  0  0
  143.4732   76.8295  216.8569 H   0  0  0  0  0  0  0  0  0  0  0  0
  140.5188   76.3444  217.2262 H   0  0  0  0  0  0  0  0  0  0  0  0
  141.7699   75.1414  217.2832 H   0  0  0  0  0  0  0  0  0  0  0  0
  139.5208   74.8329  220.5058 H   0  0  0  0  0  0  0  0  0  0  0  0
  140.5078   73.5795  219.5812 H   0  0  0  0  0  0  0  0  0  0  0  0
  141.5010   73.5760  222.2420 H   0  0  0  0  0  0  0  0  0  0  0  0
  138.6339   70.1988  222.0544 H   0  0  0  0  0  0  0  0  0  0  0  0
  138.7808   68.5892  223.9122 H   0  0  0  0  0  0  0  0  0  0  0  0
  139.5098   68.0733  226.1258 H   0  0  0  0  0  0  0  0  0  0  0  0
  141.5931   71.0440  228.3594 H   0  0  0  0  0  0  0  0  0  0  0  0
  141.4469   72.6887  226.5219 H   0  0  0  0  0  0  0  0  0  0  0  0
  140.6381   78.2620  218.8422 H   0  0  0  0  0  0  0  0  0  0  0  0
  141.8590   76.7430  221.8500 H   0  0  0  0  0  0  0  0  0  0  0  0
  140.9932   77.5661  223.7682 H   0  0  0  0  0  0  0  0  0  0  0  0
  142.3942   79.4271  224.4565 H   0  0  0  0  0  0  0  0  0  0  0  0
  143.2276   79.0600  222.9682 H   0  0  0  0  0  0  0  0  0  0  0  0
  142.1733   81.4976  223.3193 H   0  0  0  0  0  0  0  0  0  0  0  0
  141.9659   80.7441  221.7355 H   0  0  0  0  0  0  0  0  0  0  0  0
  139.9802   81.0245  224.0237 H   0  0  0  0  0  0  0  0  0  0  0  0
  139.6695   81.1873  222.3003 H   0  0  0  0  0  0  0  0  0  0  0  0
  139.2635   78.8751  223.8585 H   0  0  0  0  0  0  0  0  0  0  0  0
  139.3325   78.9146  222.0692 H   0  0  0  0  0  0  0  0  0  0  0  0
  1  2  1  0
  2  3  1  0
  3  4  1  0
  4  5  1  0
  5  6  1  0
  6  7  2  0
  6  8  1  0
  8  9  1  0
  9 10  1  0
 10 11  2  0
 10 12  1  0
 12 13  2  0
 13 14  1  0
 14 15  2  0
 15 16  1  0
 16 17  2  0
 17 18  1  0
 17 19  1  0
 19 20  2  0
 20 21  1  0
 21 22  2  0
  5 23  1  0
 23 24  1  0
 24 25  2  0
 24 26  1  0
 26 27  1  0
 27 28  1  0
 28 29  1  0
 29 30  1  0
 30 31  1  0
 23  2  1  0
 31 27  1  0
 22 12  1  0
 21 15  1  0
  1 32  1  0
  1 33  1  0
  2 34  1  1
  3 35  1  0
  3 36  1  0
  4 37  1  0
  4 38  1  0
  8 39  1  0
  8 40  1  0
  9 41  1  0
 13 42  1  0
 14 43  1  0
 16 44  1  0
 19 45  1  0
 20 46  1  0
 23 47  1  6
 26 48  1  0
 27 49  1  0
 28 50  1  0
 28 51  1  0
 29 52  1  0
 29 53  1  0
 30 54  1  0
 30 55  1  0
 31 56  1  0
 31 57  1  0
M  END
>  <smiles>  (22) 
N[C@@H]1CCN(C(=O)CNC(=O)c2ccc3cc(Cl)ccc3n2)[C@H]1C(=O)NC1CCCC1

>  <score_type>  (22) 
oracle

>  <origin>  (22) 
autodockgpu

>  <m_score__min__energy>  (22) 
-9.25

>  <m_primary>  (22) 
energy

>  <rmsd>  (22) 
2.3228785518785897

>  <m_score__min__rmsd>  (22) 
2.3228785518785897

>  <meeko>  (22) 
{"free_energy": -8.46, "intermolecular_energy": -10.55, "internal_energy": -2.07, "cluster_size": 17, "cluster_id": 1, "rank_in_cluster": 7}

>  <energy>  (22) 
-7.7

>  <cluster_rmsd>  (22) 
0.44

>  <cluster>  (22) 
2

$$$$

     RDKit          3D

 57 60  0  0  0  0  0  0  0  0999 V2000
  142.1850   77.8960  221.0380 N   0  0  0  0  0  0  0  0  0  0  0  0
  140.9760   77.1240  220.8950 C   0  0  2  0  0  0  0  0  0  0  0  0
  139.9880   77.4720  222.0230 C   0  0  0  0  0  0  0  0  0  0  0  0
  139.2830   76.1280  222.3770 C   0  0  0  0  0  0  0  0  0  0  0  0
  139.7220   75.2780  221.2480 N   0  0  0  0  0  0  0  0  0  0  0  0
  138.9920   74.3400  220.4920 C   0  0  0  0  0  0  0  0  0  0  0  0
  139.1570   74.4110  219.2250 O   0  0  0  0  0  0  0  0  0  0  0  0
  138.0720   73.3050  220.9660 C   0  0  0  0  0  0  0  0  0  0  0  0
  138.3780   72.7400  222.2700 N   0  0  0  0  0  0  0  0  0  0  0  0
  139.5110   71.8060  222.2290 C   0  0  0  0  0  0  0  0  0  0  0  0
  140.0040   71.6350  221.1120 O   0  0  0  0  0  0  0  0  0  0  0  0
  139.9340   71.1940  223.4740 C   0  0  0  0  0  0  0  0  0  0  0  0
  140.7000   71.9250  224.3220 C   0  0  0  0  0  0  0  0  0  0  0  0
  141.1140   71.4600  225.5460 C   0  0  0  0  0  0  0  0  0  0  0  0
  140.7310   70.1980  225.9250 C   0  0  0  0  0  0  0  0  0  0  0  0
  141.1260   69.7150  227.1500 C   0  0  0  0  0  0  0  0  0  0  0  0
  140.7310   68.4580  227.5160 C   0  0  0  0  0  0  0  0  0  0  0  0
  141.2090   67.7980  229.0630 Cl  0  0  0  0  0  0  0  0  0  0  0  0
  139.9560   67.7260  226.6490 C   0  0  0  0  0  0  0  0  0  0  0  0
  139.5350   68.1610  225.4150 C   0  0  0  0  0  0  0  0  0  0  0  0
  139.9470   69.4530  225.0520 C   0  0  0  0  0  0  0  0  0  0  0  0
  139.5500   69.9330  223.8450 N   0  0  0  0  0  0  0  0  0  0  0  0
  141.1350   75.6710  221.1410 C   0  0  1  0  0  0  0  0  0  0  0  0
  142.0230   74.8740  220.3760 C   0  0  0  0  0  0  0  0  0  0  0  0
  143.1930   75.2840  220.1120 O   0  0  0  0  0  0  0  0  0  0  0  0
  141.6980   73.5850  219.8530 N   0  0  0  0  0  0  0  0  0  0  0  0
  142.6690   72.8330  219.0610 C   0  0  0  0  0  0  0  0  0  0  0  0
  143.9000   72.5480  219.9310 C   0  0  0  0  0  0  0  0  0  0  0  0
  143.6040   71.1770  220.4550 C   0  0  0  0  0  0  0  0  0  0  0  0
  142.9100   70.4580  219.3190 C   0  0  0  0  0  0  0  0  0  0  0  0
  142.1910   71.5480  218.5800 C   0  0  0  0  0  0  0  0  0  0  0  0
  143.0110   77.4730  220.5780 H   0  0  0  0  0  0  0  0  0  0  0  0
  142.3340   78.1200  222.0550 H   0  0  0  0  0  0  0  0  0  0  0  0
  140.6622   77.3497  219.8652 H   0  0  0  0  0  0  0  0  0  0  0  0
  140.5249   77.8681  222.8976 H   0  0  0  0  0  0  0  0  0  0  0  0
  139.2687   78.2454  221.7157 H   0  0  0  0  0  0  0  0  0  0  0  0
  139.6307   75.7305  223.3419 H   0  0  0  0  0  0  0  0  0  0  0  0
  138.1917   76.2032  222.4927 H   0  0  0  0  0  0  0  0  0  0  0  0
  137.0650   73.7448  221.0159 H   0  0  0  0  0  0  0  0  0  0  0  0
  138.1604   72.4742  220.2505 H   0  0  0  0  0  0  0  0  0  0  0  0
  137.8790   72.9500  223.1480 H   0  0  0  0  0  0  0  0  0  0  0  0
  141.0035   72.9368  224.0151 H   0  0  0  0  0  0  0  0  0  0  0  0
  141.7363   72.0828  226.2054 H   0  0  0  0  0  0  0  0  0  0  0  0
  141.7466   70.3266  227.8214 H   0  0  0  0  0  0  0  0  0  0  0  0
  139.6501   66.7180  226.9657 H   0  0  0  0  0  0  0  0  0  0  0  0
  138.9152   67.5370  224.7544 H   0  0  0  0  0  0  0  0  0  0  0  0
  141.7528   75.4602  222.0264 H   0  0  0  0  0  0  0  0  0  0  0  0
  140.7780   73.1330  220.0120 H   0  0  0  0  0  0  0  0  0  0  0  0
  142.8845   73.4599  218.1832 H   0  0  0  0  0  0  0  0  0  0  0  0
  144.8226   72.5558  219.3320 H   0  0  0  0  0  0  0  0  0  0  0  0
  144.0671   73.2964  220.7197 H   0  0  0  0  0  0  0  0  0  0  0  0
  144.5354   70.6590  220.7273 H   0  0  0  0  0  0  0  0  0  0  0  0
  142.9817   71.2094  221.3615 H   0  0  0  0  0  0  0  0  0  0  0  0
  143.6426   69.9612  218.6660 H   0  0  0  0  0  0  0  0  0  0  0  0
  142.2304   69.6684  219.6721 H   0  0  0  0  0  0  0  0  0  0  0  0
  142.3916   71.4587  217.5022 H   0  0  0  0  0  0  0  0  0  0  0  0
  141.1076   71.4641  218.7509 H   0  0  0  0  0  0  0  0  0  0  0  0
  1  2  1  0
  2  3  1  0
  3  4  1  0
  4  5  1  0
  5  6  1  0
  6  7  2  0
  6  8  1  0
  8  9  1  0
  9 10  1  0
 10 11  2  0
 10 12  1  0
 12 13  2  0
 13 14  1  0
 14 15  2  0
 15 16  1  0
 16 17  2  0
 17 18  1  0
 17 19  1  0
 19 20  2  0
 20 21  1  0
 21 22  2  0
  5 23  1  0
 23 24  1  0
 24 25  2  0
 24 26  1  0
 26 27  1  0
 27 28  1  0
 28 29  1  0
 29 30  1  0
 30 31  1  0
 23  2  1  0
 31 27  1  0
 22 12  1  0
 21 15  1  0
  1 32  1  0
  1 33  1  0
  2 34  1  6
  3 35  1  0
  3 36  1  0
  4 37  1  0
  4 38  1  0
  8 39  1  0
  8 40  1  0
  9 41  1  0
 13 42  1  0
 14 43  1  0
 16 44  1  0
 19 45  1  0
 20 46  1  0
 23 47  1  1
 26 48  1  0
 27 49  1  0
 28 50  1  0
 28 51  1  0
 29 52  1  0
 29 53  1  0
 30 54  1  0
 30 55  1  0
 31 56  1  0
 31 57  1  0
M  END
>  <smiles>  (23) 
N[C@@H]1CCN(C(=O)CNC(=O)c2ccc3cc(Cl)ccc3n2)[C@H]1C(=O)NC1CCCC1

>  <score_type>  (23) 
oracle

>  <origin>  (23) 
autodockgpu

>  <m_score__min__energy>  (23) 
-9.25

>  <m_primary>  (23) 
energy

>  <rmsd>  (23) 
5.530900758896116

>  <m_score__min__rmsd>  (23) 
5.530900758896116

>  <meeko>  (23) 
{"free_energy": -6.91, "intermolecular_energy": -9.0, "internal_energy": -3.81, "cluster_size": 13, "cluster_id": 2, "rank_in_cluster": 12}

>  <energy>  (23) 
-7.4

>  <cluster_rmsd>  (23) 
1.47

>  <cluster>  (23) 
2

$$$$

     RDKit          3D

 57 60  0  0  0  0  0  0  0  0999 V2000
  143.3010   78.0400  218.3320 N   0  0  0  0  0  0  0  0  0  0  0  0
  142.4970   76.9830  218.8950 C   0  0  2  0  0  0  0  0  0  0  0  0
  141.9210   76.1010  217.7730 C   0  0  0  0  0  0  0  0  0  0  0  0
  140.4940   75.7030  218.2590 C   0  0  0  0  0  0  0  0  0  0  0  0
  140.5500   76.1410  219.6710 N   0  0  0  0  0  0  0  0  0  0  0  0
  140.0650   75.5050  220.8290 C   0  0  0  0  0  0  0  0  0  0  0  0
  140.5960   75.8900  221.9290 O   0  0  0  0  0  0  0  0  0  0  0  0
  139.0430   74.4620  220.9370 C   0  0  0  0  0  0  0  0  0  0  0  0
  139.0680   73.6800  222.1620 N   0  0  0  0  0  0  0  0  0  0  0  0
  139.7150   72.3740  221.9840 C   0  0  0  0  0  0  0  0  0  0  0  0
  140.1110   72.1400  220.8400 O   0  0  0  0  0  0  0  0  0  0  0  0
  139.8290   71.5070  223.1420 C   0  0  0  0  0  0  0  0  0  0  0  0
  139.4580   70.2080  223.0110 C   0  0  0  0  0  0  0  0  0  0  0  0
  139.5710   69.2930  224.0280 C   0  0  0  0  0  0  0  0  0  0  0  0
  140.0840   69.7140  225.2280 C   0  0  0  0  0  0  0  0  0  0  0  0
  140.2160   68.8120  226.2580 C   0  0  0  0  0  0  0  0  0  0  0  0
  140.7360   69.2460  227.4450 C   0  0  0  0  0  0  0  0  0  0  0  0
  140.9200   68.1380  228.7860 Cl  0  0  0  0  0  0  0  0  0  0  0  0
  141.1070   70.5640  227.5670 C   0  0  0  0  0  0  0  0  0  0  0  0
  140.9970   71.5040  226.5710 C   0  0  0  0  0  0  0  0  0  0  0  0
  140.4630   71.0460  225.3570 C   0  0  0  0  0  0  0  0  0  0  0  0
  140.3410   71.9340  224.3380 N   0  0  0  0  0  0  0  0  0  0  0  0
  141.2370   77.4340  219.5310 C   0  0  1  0  0  0  0  0  0  0  0  0
  141.2290   78.3480  220.6140 C   0  0  0  0  0  0  0  0  0  0  0  0
  142.1310   79.2310  220.7190 O   0  0  0  0  0  0  0  0  0  0  0  0
  140.2430   78.3600  221.6480 N   0  0  0  0  0  0  0  0  0  0  0  0
  140.3160   79.3280  222.7400 C   0  0  0  0  0  0  0  0  0  0  0  0
  141.3660   78.8520  223.7530 C   0  0  0  0  0  0  0  0  0  0  0  0
  142.5870   79.5970  223.3120 C   0  0  0  0  0  0  0  0  0  0  0  0
  142.0850   80.9470  222.8500 C   0  0  0  0  0  0  0  0  0  0  0  0
  140.7040   80.6680  222.3350 C   0  0  0  0  0  0  0  0  0  0  0  0
  143.3880   78.8720  218.9410 H   0  0  0  0  0  0  0  0  0  0  0  0
  142.9550   78.2580  217.3620 H   0  0  0  0  0  0  0  0  0  0  0  0
  143.1854   76.5042  219.6070 H   0  0  0  0  0  0  0  0  0  0  0  0
  141.8643   76.6644  216.8299 H   0  0  0  0  0  0  0  0  0  0  0  0
  142.5500   75.2199  217.5783 H   0  0  0  0  0  0  0  0  0  0  0  0
  139.7121   76.2378  217.6999 H   0  0  0  0  0  0  0  0  0  0  0  0
  140.2458   74.6402  218.1213 H   0  0  0  0  0  0  0  0  0  0  0  0
  138.0576   74.9455  220.8646 H   0  0  0  0  0  0  0  0  0  0  0  0
  139.2520   73.7518  220.1234 H   0  0  0  0  0  0  0  0  0  0  0  0
  138.6870   73.9780  223.0730 H   0  0  0  0  0  0  0  0  0  0  0  0
  139.0483   69.8734  222.0465 H   0  0  0  0  0  0  0  0  0  0  0  0
  139.2579   68.2484  223.8840 H   0  0  0  0  0  0  0  0  0  0  0  0
  139.9095   67.7635  226.1290 H   0  0  0  0  0  0  0  0  0  0  0  0
  141.5221   70.8898  228.5322 H   0  0  0  0  0  0  0  0  0  0  0  0
  141.3078   72.5492  226.7161 H   0  0  0  0  0  0  0  0  0  0  0  0
  140.7084   78.1877  218.9289 H   0  0  0  0  0  0  0  0  0  0  0  0
  139.4450   77.6960  221.6680 H   0  0  0  0  0  0  0  0  0  0  0  0
  139.2982   79.3847  223.1534 H   0  0  0  0  0  0  0  0  0  0  0  0
  141.0817   79.1237  224.7803 H   0  0  0  0  0  0  0  0  0  0  0  0
  141.4973   77.7601  223.7745 H   0  0  0  0  0  0  0  0  0  0  0  0
  143.2908   79.7134  224.1493 H   0  0  0  0  0  0  0  0  0  0  0  0
  143.1266   79.0650  222.5146 H   0  0  0  0  0  0  0  0  0  0  0  0
  142.0527   81.6591  223.6878 H   0  0  0  0  0  0  0  0  0  0  0  0
  142.7357   81.4009  222.0881 H   0  0  0  0  0  0  0  0  0  0  0  0
  139.9980   81.4000  222.7542 H   0  0  0  0  0  0  0  0  0  0  0  0
  140.6911   80.7456  221.2378 H   0  0  0  0  0  0  0  0  0  0  0  0
  1  2  1  0
  2  3  1  0
  3  4  1  0
  4  5  1  0
  5  6  1  0
  6  7  2  0
  6  8  1  0
  8  9  1  0
  9 10  1  0
 10 11  2  0
 10 12  1  0
 12 13  2  0
 13 14  1  0
 14 15  2  0
 15 16  1  0
 16 17  2  0
 17 18  1  0
 17 19  1  0
 19 20  2  0
 20 21  1  0
 21 22  2  0
  5 23  1  0
 23 24  1  0
 24 25  2  0
 24 26  1  0
 26 27  1  0
 27 28  1  0
 28 29  1  0
 29 30  1  0
 30 31  1  0
 23  2  1  0
 31 27  1  0
 22 12  1  0
 21 15  1  0
  1 32  1  0
  1 33  1  0
  2 34  1  1
  3 35  1  0
  3 36  1  0
  4 37  1  0
  4 38  1  0
  8 39  1  0
  8 40  1  0
  9 41  1  0
 13 42  1  0
 14 43  1  0
 16 44  1  0
 19 45  1  0
 20 46  1  0
 23 47  1  6
 26 48  1  0
 27 49  1  0
 28 50  1  0
 28 51  1  0
 29 52  1  0
 29 53  1  0
 30 54  1  0
 30 55  1  0
 31 56  1  0
 31 57  1  0
M  END
>  <smiles>  (24) 
N[C@@H]1CCN(C(=O)CNC(=O)c2ccc3cc(Cl)ccc3n2)[C@H]1C(=O)NC1CCCC1

>  <score_type>  (24) 
oracle

>  <origin>  (24) 
autodockgpu

>  <m_score__min__energy>  (24) 
-9.25

>  <m_primary>  (24) 
energy

>  <rmsd>  (24) 
2.043702835820115

>  <m_score__min__rmsd>  (24) 
2.043702835820115

>  <meeko>  (24) 
{"free_energy": -8.23, "intermolecular_energy": -10.32, "internal_energy": -2.08, "cluster_size": 17, "cluster_id": 1, "rank_in_cluster": 14}

>  <energy>  (24) 
-7.39

>  <cluster_rmsd>  (24) 
1.47

>  <cluster>  (24) 
2

$$$$

     RDKit          3D

 57 60  0  0  0  0  0  0  0  0999 V2000
  139.8590   73.7480  222.7180 N   0  0  0  0  0  0  0  0  0  0  0  0
  139.7980   73.2900  221.3520 C   0  0  2  0  0  0  0  0  0  0  0  0
  140.7270   74.1400  220.4660 C   0  0  0  0  0  0  0  0  0  0  0  0
  139.9780   74.2780  219.1060 C   0  0  0  0  0  0  0  0  0  0  0  0
  138.9010   73.2790  219.2790 N   0  0  0  0  0  0  0  0  0  0  0  0
  138.3840   72.3460  218.3600 C   0  0  0  0  0  0  0  0  0  0  0  0
  138.2700   72.7680  217.1570 O   0  0  0  0  0  0  0  0  0  0  0  0
  137.9580   70.9660  218.6030 C   0  0  0  0  0  0  0  0  0  0  0  0
  137.8610   70.5740  219.9980 N   0  0  0  0  0  0  0  0  0  0  0  0
  139.1730   70.3160  220.6060 C   0  0  0  0  0  0  0  0  0  0  0  0
  140.1340   70.4510  219.8450 O   0  0  0  0  0  0  0  0  0  0  0  0
  139.2140   69.9420  222.0060 C   0  0  0  0  0  0  0  0  0  0  0  0
  138.8430   68.6820  222.3460 C   0  0  0  0  0  0  0  0  0  0  0  0
  138.8920   68.2100  223.6350 C   0  0  0  0  0  0  0  0  0  0  0  0
  139.3370   69.0550  224.6200 C   0  0  0  0  0  0  0  0  0  0  0  0
  139.4030   68.6010  225.9160 C   0  0  0  0  0  0  0  0  0  0  0  0
  139.8560   69.4530  226.8850 C   0  0  0  0  0  0  0  0  0  0  0  0
  139.9550   68.9240  228.5490 Cl  0  0  0  0  0  0  0  0  0  0  0  0
  140.2270   70.7280  226.5300 C   0  0  0  0  0  0  0  0  0  0  0  0
  140.1800   71.2300  225.2520 C   0  0  0  0  0  0  0  0  0  0  0  0
  139.7150   70.3450  224.2660 C   0  0  0  0  0  0  0  0  0  0  0  0
  139.6580   70.7910  222.9850 N   0  0  0  0  0  0  0  0  0  0  0  0
  138.5050   73.5390  220.6710 C   0  0  1  0  0  0  0  0  0  0  0  0
  137.2860   73.0080  221.1610 C   0  0  0  0  0  0  0  0  0  0  0  0
  136.3380   72.7310  220.3660 O   0  0  0  0  0  0  0  0  0  0  0  0
  137.0200   72.7440  222.5390 N   0  0  0  0  0  0  0  0  0  0  0  0
  135.7280   72.2080  222.9630 C   0  0  0  0  0  0  0  0  0  0  0  0
  135.5700   70.7930  222.3900 C   0  0  0  0  0  0  0  0  0  0  0  0
  136.0420   69.9400  223.5260 C   0  0  0  0  0  0  0  0  0  0  0  0
  135.5670   70.6440  224.7770 C   0  0  0  0  0  0  0  0  0  0  0  0
  135.5620   72.0970  224.4020 C   0  0  0  0  0  0  0  0  0  0  0  0
  139.8310   72.9870  223.4190 H   0  0  0  0  0  0  0  0  0  0  0  0
  139.1280   74.4900  222.8660 H   0  0  0  0  0  0  0  0  0  0  0  0
  140.0318   72.2189  221.4424 H   0  0  0  0  0  0  0  0  0  0  0  0
  140.8925   75.1292  220.9177 H   0  0  0  0  0  0  0  0  0  0  0  0
  141.7177   73.6775  220.3454 H   0  0  0  0  0  0  0  0  0  0  0  0
  139.5720   75.2911  218.9686 H   0  0  0  0  0  0  0  0  0  0  0  0
  140.6099   74.1171  218.2201 H   0  0  0  0  0  0  0  0  0  0  0  0
  136.9671   70.8324  218.1445 H   0  0  0  0  0  0  0  0  0  0  0  0
  138.7409   70.3288  218.1659 H   0  0  0  0  0  0  0  0  0  0  0  0
  136.9860   70.4780  220.5360 H   0  0  0  0  0  0  0  0  0  0  0  0
  138.4867   68.0077  221.5533 H   0  0  0  0  0  0  0  0  0  0  0  0
  138.5825   67.1812  223.8714 H   0  0  0  0  0  0  0  0  0  0  0  0
  139.0980   67.5746  226.1681 H   0  0  0  0  0  0  0  0  0  0  0  0
  140.5877   71.3948  227.3270 H   0  0  0  0  0  0  0  0  0  0  0  0
  140.4871   72.2596  225.0162 H   0  0  0  0  0  0  0  0  0  0  0  0
  138.1110   74.5467  220.8692 H   0  0  0  0  0  0  0  0  0  0  0  0
  137.7200   72.9140  223.2860 H   0  0  0  0  0  0  0  0  0  0  0  0
  134.9757   72.9207  222.5940 H   0  0  0  0  0  0  0  0  0  0  0  0
  134.5207   70.5788  222.1390 H   0  0  0  0  0  0  0  0  0  0  0  0
  136.1246   70.6301  221.4541 H   0  0  0  0  0  0  0  0  0  0  0  0
  135.6035   68.9333  223.4602 H   0  0  0  0  0  0  0  0  0  0  0  0
  137.1345   69.8122  223.5168 H   0  0  0  0  0  0  0  0  0  0  0  0
  134.5564   70.3089  225.0534 H   0  0  0  0  0  0  0  0  0  0  0  0
  136.2072   70.4354  225.6468 H   0  0  0  0  0  0  0  0  0  0  0  0
  134.6064   72.5529  224.7005 H   0  0  0  0  0  0  0  0  0  0  0  0
  136.3832   72.6190  224.9150 H   0  0  0  0  0  0  0  0  0  0  0  0
  1  2  1  0
  2  3  1  0
  3  4  1  0
  4  5  1  0
  5  6  1  0
  6  7  2  0
  6  8  1  0
  8  9  1  0
  9 10  1  0
 10 11  2  0
 10 12  1  0
 12 13  2  0
 13 14  1  0
 14 15  2  0
 15 16  1  0
 16 17  2  0
 17 18  1  0
 17 19  1  0
 19 20  2  0
 20 21  1  0
 21 22  2  0
  5 23  1  0
 23 24  1  0
 24 25  2  0
 24 26  1  0
 26 27  1  0
 27 28  1  0
 28 29  1  0
 29 30  1  0
 30 31  1  0
 23  2  1  0
 31 27  1  0
 22 12  1  0
 21 15  1  0
  1 32  1  0
  1 33  1  0
  2 34  1  1
  3 35  1  0
  3 36  1  0
  4 37  1  0
  4 38  1  0
  8 39  1  0
  8 40  1  0
  9 41  1  0
 13 42  1  0
 14 43  1  0
 16 44  1  0
 19 45  1  0
 20 46  1  0
 23 47  1  6
 26 48  1  0
 27 49  1  0
 28 50  1  0
 28 51  1  0
 29 52  1  0
 29 53  1  0
 30 54  1  0
 30 55  1  0
 31 56  1  0
 31 57  1  0
M  END
>  <smiles>  (25) 
N[C@@H]1CCN(C(=O)CNC(=O)c2ccc3cc(Cl)ccc3n2)[C@H]1C(=O)NC1CCCC1

>  <score_type>  (25) 
oracle

>  <origin>  (25) 
autodockgpu

>  <m_score__min__energy>  (25) 
-9.25

>  <m_primary>  (25) 
energy

>  <rmsd>  (25) 
6.157917145064139

>  <m_score__min__rmsd>  (25) 
6.157917145064139

>  <meeko>  (25) 
{"free_energy": -5.37, "intermolecular_energy": -7.46, "internal_energy": -4.52, "cluster_size": 1, "cluster_id": 11, "rank_in_cluster": 1}

>  <energy>  (25) 
-7.3

>  <cluster_rmsd>  (25) 
1.48

>  <cluster>  (25) 
2

$$$$

     RDKit          3D

 57 60  0  0  0  0  0  0  0  0999 V2000
  143.0820   78.9910  217.6310 N   0  0  0  0  0  0  0  0  0  0  0  0
  142.9980   77.6610  218.1830 C   0  0  2  0  0  0  0  0  0  0  0  0
  143.0770   76.6140  217.0570 C   0  0  0  0  0  0  0  0  0  0  0  0
  142.1100   75.4720  217.4940 C   0  0  0  0  0  0  0  0  0  0  0  0
  141.8440   75.8560  218.8980 N   0  0  0  0  0  0  0  0  0  0  0  0
  141.7560   75.0490  220.0480 C   0  0  0  0  0  0  0  0  0  0  0  0
  142.8410   74.9320  220.7190 O   0  0  0  0  0  0  0  0  0  0  0  0
  140.5940   74.3280  220.5710 C   0  0  0  0  0  0  0  0  0  0  0  0
  140.8500   73.4650  221.7110 N   0  0  0  0  0  0  0  0  0  0  0  0
  139.6620   72.7060  222.1230 C   0  0  0  0  0  0  0  0  0  0  0  0
  138.6460   72.9300  221.4610 O   0  0  0  0  0  0  0  0  0  0  0  0
  139.7930   71.7850  223.2360 C   0  0  0  0  0  0  0  0  0  0  0  0
  139.4080   70.4970  223.0530 C   0  0  0  0  0  0  0  0  0  0  0  0
  139.5360   69.5330  224.0240 C   0  0  0  0  0  0  0  0  0  0  0  0
  140.0780   69.8950  225.2310 C   0  0  0  0  0  0  0  0  0  0  0  0
  140.2240   68.9440  226.2140 C   0  0  0  0  0  0  0  0  0  0  0  0
  140.7730   69.3190  227.4090 C   0  0  0  0  0  0  0  0  0  0  0  0
  140.9770   68.1480  228.6920 Cl  0  0  0  0  0  0  0  0  0  0  0  0
  141.1570   70.6270  227.5840 C   0  0  0  0  0  0  0  0  0  0  0  0
  141.0340   71.6130  226.6350 C   0  0  0  0  0  0  0  0  0  0  0  0
  140.4700   71.2160  225.4130 C   0  0  0  0  0  0  0  0  0  0  0  0
  140.3340   72.1520  224.4390 N   0  0  0  0  0  0  0  0  0  0  0  0
  141.6790   77.3100  218.7590 C   0  0  1  0  0  0  0  0  0  0  0  0
  141.1040   78.0510  219.8220 C   0  0  0  0  0  0  0  0  0  0  0  0
  139.9730   78.6060  219.6830 O   0  0  0  0  0  0  0  0  0  0  0  0
  141.7190   78.2340  221.0980 N   0  0  0  0  0  0  0  0  0  0  0  0
  141.0650   79.0260  222.1370 C   0  0  0  0  0  0  0  0  0  0  0  0
  141.8210   78.8260  223.4580 C   0  0  0  0  0  0  0  0  0  0  0  0
  142.7520   79.9990  223.4670 C   0  0  0  0  0  0  0  0  0  0  0  0
  141.9670   81.1340  222.8460 C   0  0  0  0  0  0  0  0  0  0  0  0
  141.0390   80.4560  221.8830 C   0  0  0  0  0  0  0  0  0  0  0  0
  142.9120   79.0340  216.6110 H   0  0  0  0  0  0  0  0  0  0  0  0
  143.9900   79.4320  217.9300 H   0  0  0  0  0  0  0  0  0  0  0  0
  143.8040   77.6558  218.9316 H   0  0  0  0  0  0  0  0  0  0  0  0
  142.7520   77.0502  216.1009 H   0  0  0  0  0  0  0  0  0  0  0  0
  144.1035   76.2488  216.9057 H   0  0  0  0  0  0  0  0  0  0  0  0
  141.1885   75.4699  216.8934 H   0  0  0  0  0  0  0  0  0  0  0  0
  142.5169   74.4578  217.3685 H   0  0  0  0  0  0  0  0  0  0  0  0
  139.8419   75.0720  220.8723 H   0  0  0  0  0  0  0  0  0  0  0  0
  140.2630   73.6632  219.7595 H   0  0  0  0  0  0  0  0  0  0  0  0
  141.7520   73.3680  222.2020 H   0  0  0  0  0  0  0  0  0  0  0  0
  138.9738   70.2114  222.0835 H   0  0  0  0  0  0  0  0  0  0  0  0
  139.2123   68.4982  223.8382 H   0  0  0  0  0  0  0  0  0  0  0  0
  139.9062   67.9049  226.0427 H   0  0  0  0  0  0  0  0  0  0  0  0
  141.5946   70.9047  228.5543 H   0  0  0  0  0  0  0  0  0  0  0  0
  141.3571   72.6478  226.8214 H   0  0  0  0  0  0  0  0  0  0  0  0
  140.8428   77.6315  218.1208 H   0  0  0  0  0  0  0  0  0  0  0  0
  142.6390   77.8180  221.3400 H   0  0  0  0  0  0  0  0  0  0  0  0
  140.0234   78.6736  222.1658 H   0  0  0  0  0  0  0  0  0  0  0  0
  141.1360   78.8533  224.3182 H   0  0  0  0  0  0  0  0  0  0  0  0
  142.3319   77.8547  223.5330 H   0  0  0  0  0  0  0  0  0  0  0  0
  143.0450   80.2509  224.4969 H   0  0  0  0  0  0  0  0  0  0  0  0
  143.6804   79.7911  222.9148 H   0  0  0  0  0  0  0  0  0  0  0  0
  141.4006   81.6822  223.6133 H   0  0  0  0  0  0  0  0  0  0  0  0
  142.6149   81.8754  222.3555 H   0  0  0  0  0  0  0  0  0  0  0  0
  140.0170   80.8380  222.0231 H   0  0  0  0  0  0  0  0  0  0  0  0
  141.3587   80.6583  220.8501 H   0  0  0  0  0  0  0  0  0  0  0  0
  1  2  1  0
  2  3  1  0
  3  4  1  0
  4  5  1  0
  5  6  1  0
  6  7  2  0
  6  8  1  0
  8  9  1  0
  9 10  1  0
 10 11  2  0
 10 12  1  0
 12 13  2  0
 13 14  1  0
 14 15  2  0
 15 16  1  0
 16 17  2  0
 17 18  1  0
 17 19  1  0
 19 20  2  0
 20 21  1  0
 21 22  2  0
  5 23  1  0
 23 24  1  0
 24 25  2  0
 24 26  1  0
 26 27  1  0
 27 28  1  0
 28 29  1  0
 29 30  1  0
 30 31  1  0
 23  2  1  0
 31 27  1  0
 22 12  1  0
 21 15  1  0
  1 32  1  0
  1 33  1  0
  2 34  1  1
  3 35  1  0
  3 36  1  0
  4 37  1  0
  4 38  1  0
  8 39  1  0
  8 40  1  0
  9 41  1  0
 13 42  1  0
 14 43  1  0
 16 44  1  0
 19 45  1  0
 20 46  1  0
 23 47  1  6
 26 48  1  0
 27 49  1  0
 28 50  1  0
 28 51  1  0
 29 52  1  0
 29 53  1  0
 30 54  1  0
 30 55  1  0
 31 56  1  0
 31 57  1  0
M  END
>  <smiles>  (26) 
N[C@@H]1CCN(C(=O)CNC(=O)c2ccc3cc(Cl)ccc3n2)[C@H]1C(=O)NC1CCCC1

>  <score_type>  (26) 
oracle

>  <origin>  (26) 
autodockgpu

>  <m_score__min__energy>  (26) 
-9.25

>  <m_primary>  (26) 
energy

>  <rmsd>  (26) 
2.37809239219505

>  <m_score__min__rmsd>  (26) 
2.37809239219505

>  <meeko>  (26) 
{"free_energy": -8.73, "intermolecular_energy": -10.81, "internal_energy": -1.91, "cluster_size": 17, "cluster_id": 1, "rank_in_cluster": 4}

>  <energy>  (26) 
-7.18

>  <cluster_rmsd>  (26) 
1.37

>  <cluster>  (26) 
2

$$$$

     RDKit          3D

 57 60  0  0  0  0  0  0  0  0999 V2000
  135.5690   68.8890  225.0410 N   0  0  0  0  0  0  0  0  0  0  0  0
  136.2750   69.5880  223.9960 C   0  0  2  0  0  0  0  0  0  0  0  0
  135.5590   69.3890  222.6480 C   0  0  0  0  0  0  0  0  0  0  0  0
  136.6990   69.2890  221.5900 C   0  0  0  0  0  0  0  0  0  0  0  0
  137.8620   69.7270  222.3940 N   0  0  0  0  0  0  0  0  0  0  0  0
  138.9310   70.5720  222.0410 C   0  0  0  0  0  0  0  0  0  0  0  0
  139.0790   70.7730  220.7850 O   0  0  0  0  0  0  0  0  0  0  0  0
  139.8930   71.2420  222.9190 C   0  0  0  0  0  0  0  0  0  0  0  0
  139.9930   72.6820  222.7580 N   0  0  0  0  0  0  0  0  0  0  0  0
  141.0420   73.0730  221.8070 C   0  0  0  0  0  0  0  0  0  0  0  0
  141.6750   72.1350  221.3160 O   0  0  0  0  0  0  0  0  0  0  0  0
  141.2260   74.4860  221.5370 C   0  0  0  0  0  0  0  0  0  0  0  0
  141.9840   74.8440  220.4700 C   0  0  0  0  0  0  0  0  0  0  0  0
  142.1810   76.1510  220.0970 C   0  0  0  0  0  0  0  0  0  0  0  0
  141.5810   77.1360  220.8400 C   0  0  0  0  0  0  0  0  0  0  0  0
  141.7580   78.4510  220.4790 C   0  0  0  0  0  0  0  0  0  0  0  0
  141.1480   79.4210  221.2260 C   0  0  0  0  0  0  0  0  0  0  0  0
  141.3430   81.1080  220.8100 Cl  0  0  0  0  0  0  0  0  0  0  0  0
  140.3840   79.0480  222.3050 C   0  0  0  0  0  0  0  0  0  0  0  0
  140.1760   77.7500  222.7070 C   0  0  0  0  0  0  0  0  0  0  0  0
  140.8060   76.7640  221.9330 C   0  0  0  0  0  0  0  0  0  0  0  0
  140.6260   75.4650  222.2830 N   0  0  0  0  0  0  0  0  0  0  0  0
  137.6030   69.0230  223.6590 C   0  0  1  0  0  0  0  0  0  0  0  0
  138.6390   68.9150  224.6210 C   0  0  0  0  0  0  0  0  0  0  0  0
  139.1970   67.8000  224.8450 O   0  0  0  0  0  0  0  0  0  0  0  0
  139.1300   70.0090  225.3970 N   0  0  0  0  0  0  0  0  0  0  0  0
  140.1930   69.8100  226.3800 C   0  0  0  0  0  0  0  0  0  0  0  0
  141.4440   70.5680  225.9140 C   0  0  0  0  0  0  0  0  0  0  0  0
  141.3160   71.8660  226.6480 C   0  0  0  0  0  0  0  0  0  0  0  0
  140.7250   71.5060  227.9940 C   0  0  0  0  0  0  0  0  0  0  0  0
  139.8830   70.2980  227.7130 C   0  0  0  0  0  0  0  0  0  0  0  0
  134.9190   69.4860  225.5810 H   0  0  0  0  0  0  0  0  0  0  0  0
  136.2630   68.3680  225.6370 H   0  0  0  0  0  0  0  0  0  0  0  0
  136.3355   70.6146  224.3863 H   0  0  0  0  0  0  0  0  0  0  0  0
  134.9626   68.4648  222.6608 H   0  0  0  0  0  0  0  0  0  0  0  0
  134.8639   70.2122  222.4265 H   0  0  0  0  0  0  0  0  0  0  0  0
  136.8238   68.2587  221.2253 H   0  0  0  0  0  0  0  0  0  0  0  0
  136.5273   69.8795  220.6779 H   0  0  0  0  0  0  0  0  0  0  0  0
  139.6010   71.0373  223.9596 H   0  0  0  0  0  0  0  0  0  0  0  0
  140.8798   70.8397  222.6465 H   0  0  0  0  0  0  0  0  0  0  0  0
  139.4090   73.3830  223.2400 H   0  0  0  0  0  0  0  0  0  0  0  0
  142.4626   74.0511  219.8766 H   0  0  0  0  0  0  0  0  0  0  0  0
  142.8035   76.4015  219.2254 H   0  0  0  0  0  0  0  0  0  0  0  0
  142.3763   78.7169  219.6090 H   0  0  0  0  0  0  0  0  0  0  0  0
  139.9037   79.8462  222.8900 H   0  0  0  0  0  0  0  0  0  0  0  0
  139.5551   77.5003  223.5800 H   0  0  0  0  0  0  0  0  0  0  0  0
  137.5880   67.9250  223.5949 H   0  0  0  0  0  0  0  0  0  0  0  0
  138.7650   70.9750  225.2960 H   0  0  0  0  0  0  0  0  0  0  0  0
  140.3348   68.7212  226.4462 H   0  0  0  0  0  0  0  0  0  0  0  0
  142.3631   70.0361  226.2009 H   0  0  0  0  0  0  0  0  0  0  0  0
  141.5112   70.6819  224.8220 H   0  0  0  0  0  0  0  0  0  0  0  0
  142.3022   72.3367  226.7735 H   0  0  0  0  0  0  0  0  0  0  0  0
  140.6874   72.5855  226.1029 H   0  0  0  0  0  0  0  0  0  0  0  0
  141.5185   71.2689  228.7180 H   0  0  0  0  0  0  0  0  0  0  0  0
  140.1458   72.3308  228.4347 H   0  0  0  0  0  0  0  0  0  0  0  0
  140.1019   69.5146  228.4535 H   0  0  0  0  0  0  0  0  0  0  0  0
  138.8172   70.5630  227.7751 H   0  0  0  0  0  0  0  0  0  0  0  0
  1  2  1  0
  2  3  1  0
  3  4  1  0
  4  5  1  0
  5  6  1  0
  6  7  2  0
  6  8  1  0
  8  9  1  0
  9 10  1  0
 10 11  2  0
 10 12  1  0
 12 13  2  0
 13 14  1  0
 14 15  2  0
 15 16  1  0
 16 17  2  0
 17 18  1  0
 17 19  1  0
 19 20  2  0
 20 21  1  0
 21 22  2  0
  5 23  1  0
 23 24  1  0
 24 25  2  0
 24 26  1  0
 26 27  1  0
 27 28  1  0
 28 29  1  0
 29 30  1  0
 30 31  1  0
 23  2  1  0
 31 27  1  0
 22 12  1  0
 21 15  1  0
  1 32  1  0
  1 33  1  0
  2 34  1  1
  3 35  1  0
  3 36  1  0
  4 37  1  0
  4 38  1  0
  8 39  1  0
  8 40  1  0
  9 41  1  0
 13 42  1  0
 14 43  1  0
 16 44  1  0
 19 45  1  0
 20 46  1  0
 23 47  1  6
 26 48  1  0
 27 49  1  0
 28 50  1  0
 28 51  1  0
 29 52  1  0
 29 53  1  0
 30 54  1  0
 30 55  1  0
 31 56  1  0
 31 57  1  0
M  END
>  <smiles>  (27) 
N[C@@H]1CCN(C(=O)CNC(=O)c2ccc3cc(Cl)ccc3n2)[C@H]1C(=O)NC1CCCC1

>  <score_type>  (27) 
oracle

>  <origin>  (27) 
autodockgpu

>  <m_score__min__energy>  (27) 
-9.25

>  <m_primary>  (27) 
energy

>  <rmsd>  (27) 
9.039757613895242

>  <m_score__min__rmsd>  (27) 
9.039757613895242

>  <meeko>  (27) 
{"free_energy": -7.95, "intermolecular_energy": -10.04, "internal_energy": -1.78, "cluster_size": 1, "cluster_id": 4, "rank_in_cluster": 1}

>  <energy>  (27) 
-7.16

>  <cluster_rmsd>  (27) 
1.38

>  <cluster>  (27) 
2

$$$$

     RDKit          3D

 57 60  0  0  0  0  0  0  0  0999 V2000
  142.2030   78.1440  221.1390 N   0  0  0  0  0  0  0  0  0  0  0  0
  141.0010   77.3690  220.9480 C   0  0  2  0  0  0  0  0  0  0  0  0
  139.9240   77.8030  221.9580 C   0  0  0  0  0  0  0  0  0  0  0  0
  139.1760   76.4910  222.3450 C   0  0  0  0  0  0  0  0  0  0  0  0
  139.7010   75.5600  221.3220 N   0  0  0  0  0  0  0  0  0  0  0  0
  139.0290   74.5730  220.5750 C   0  0  0  0  0  0  0  0  0  0  0  0
  139.4860   74.3730  219.3960 O   0  0  0  0  0  0  0  0  0  0  0  0
  137.8800   73.7560  220.9690 C   0  0  0  0  0  0  0  0  0  0  0  0
  138.0330   73.0110  222.2070 N   0  0  0  0  0  0  0  0  0  0  0  0
  139.0500   71.9560  222.1100 C   0  0  0  0  0  0  0  0  0  0  0  0
  139.5920   71.8560  221.0070 O   0  0  0  0  0  0  0  0  0  0  0  0
  139.3170   71.1560  223.2900 C   0  0  0  0  0  0  0  0  0  0  0  0
  138.9470   69.8510  223.2790 C   0  0  0  0  0  0  0  0  0  0  0  0
  139.1970   68.9940  224.3230 C   0  0  0  0  0  0  0  0  0  0  0  0
  139.8520   69.4850  225.4240 C   0  0  0  0  0  0  0  0  0  0  0  0
  140.1210   68.6420  226.4770 C   0  0  0  0  0  0  0  0  0  0  0  0
  140.7800   69.1450  227.5640 C   0  0  0  0  0  0  0  0  0  0  0  0
  141.1430   68.1150  228.9300 Cl  0  0  0  0  0  0  0  0  0  0  0  0
  141.1490   70.4690  227.5650 C   0  0  0  0  0  0  0  0  0  0  0  0
  140.9040   71.3520  226.5400 C   0  0  0  0  0  0  0  0  0  0  0  0
  140.2280   70.8230  225.4300 C   0  0  0  0  0  0  0  0  0  0  0  0
  139.9690   71.6530  224.3870 N   0  0  0  0  0  0  0  0  0  0  0  0
  141.1230   75.9370  221.3100 C   0  0  1  0  0  0  0  0  0  0  0  0
  142.0650   75.0820  220.6840 C   0  0  0  0  0  0  0  0  0  0  0  0
  143.2090   75.5160  220.3540 O   0  0  0  0  0  0  0  0  0  0  0  0
  141.8240   73.7080  220.3790 N   0  0  0  0  0  0  0  0  0  0  0  0
  142.8450   72.8980  219.7190 C   0  0  0  0  0  0  0  0  0  0  0  0
  143.1540   71.6800  220.6000 C   0  0  0  0  0  0  0  0  0  0  0  0
  142.2630   70.6310  220.0110 C   0  0  0  0  0  0  0  0  0  0  0  0
  142.2640   70.9000  218.5220 C   0  0  0  0  0  0  0  0  0  0  0  0
  142.4610   72.3830  218.4160 C   0  0  0  0  0  0  0  0  0  0  0  0
  143.0200   77.7890  220.6120 H   0  0  0  0  0  0  0  0  0  0  0  0
  142.3780   78.2590  222.1700 H   0  0  0  0  0  0  0  0  0  0  0  0
  140.7785   77.5209  219.8815 H   0  0  0  0  0  0  0  0  0  0  0  0
  140.3881   78.2587  222.8451 H   0  0  0  0  0  0  0  0  0  0  0  0
  139.2426   78.5559  221.5351 H   0  0  0  0  0  0  0  0  0  0  0  0
  139.4350   76.1624  223.3623 H   0  0  0  0  0  0  0  0  0  0  0  0
  138.0797   76.5795  222.3602 H   0  0  0  0  0  0  0  0  0  0  0  0
  137.0129   74.4235  221.0809 H   0  0  0  0  0  0  0  0  0  0  0  0
  137.7621   73.0017  220.1771 H   0  0  0  0  0  0  0  0  0  0  0  0
  137.5050   73.1770  223.0780 H   0  0  0  0  0  0  0  0  0  0  0  0
  138.4230   69.4613  222.3938 H   0  0  0  0  0  0  0  0  0  0  0  0
  138.8803   67.9416  224.2775 H   0  0  0  0  0  0  0  0  0  0  0  0
  139.8127   67.5866  226.4452 H   0  0  0  0  0  0  0  0  0  0  0  0
  141.6790   70.8499  228.4504 H   0  0  0  0  0  0  0  0  0  0  0  0
  141.2177   72.4053  226.5871 H   0  0  0  0  0  0  0  0  0  0  0  0
  141.6608   75.7874  222.2578 H   0  0  0  0  0  0  0  0  0  0  0  0
  140.9320   73.2310  220.6120 H   0  0  0  0  0  0  0  0  0  0  0  0
  143.7050   73.5682  219.5734 H   0  0  0  0  0  0  0  0  0  0  0  0
  144.2130   71.3919  220.5254 H   0  0  0  0  0  0  0  0  0  0  0  0
  142.9819   71.8550  221.6723 H   0  0  0  0  0  0  0  0  0  0  0  0
  142.6584   69.6264  220.2217 H   0  0  0  0  0  0  0  0  0  0  0  0
  141.2486   70.6680  220.4348 H   0  0  0  0  0  0  0  0  0  0  0  0
  143.0863   70.3610  218.0288 H   0  0  0  0  0  0  0  0  0  0  0  0
  141.3389   70.5618  218.0322 H   0  0  0  0  0  0  0  0  0  0  0  0
  143.2536   72.5994  217.6846 H   0  0  0  0  0  0  0  0  0  0  0  0
  141.5275   72.8616  218.0850 H   0  0  0  0  0  0  0  0  0  0  0  0
  1  2  1  0
  2  3  1  0
  3  4  1  0
  4  5  1  0
  5  6  1  0
  6  7  2  0
  6  8  1  0
  8  9  1  0
  9 10  1  0
 10 11  2  0
 10 12  1  0
 12 13  2  0
 13 14  1  0
 14 15  2  0
 15 16  1  0
 16 17  2  0
 17 18  1  0
 17 19  1  0
 19 20  2  0
 20 21  1  0
 21 22  2  0
  5 23  1  0
 23 24  1  0
 24 25  2  0
 24 26  1  0
 26 27  1  0
 27 28  1  0
 28 29  1  0
 29 30  1  0
 30 31  1  0
 23  2  1  0
 31 27  1  0
 22 12  1  0
 21 15  1  0
  1 32  1  0
  1 33  1  0
  2 34  1  6
  3 35  1  0
  3 36  1  0
  4 37  1  0
  4 38  1  0
  8 39  1  0
  8 40  1  0
  9 41  1  0
 13 42  1  0
 14 43  1  0
 16 44  1  0
 19 45  1  0
 20 46  1  0
 23 47  1  1
 26 48  1  0
 27 49  1  0
 28 50  1  0
 28 51  1  0
 29 52  1  0
 29 53  1  0
 30 54  1  0
 30 55  1  0
 31 56  1  0
 31 57  1  0
M  END
>  <smiles>  (28) 
N[C@@H]1CCN(C(=O)CNC(=O)c2ccc3cc(Cl)ccc3n2)[C@H]1C(=O)NC1CCCC1

>  <score_type>  (28) 
oracle

>  <origin>  (28) 
autodockgpu

>  <m_score__min__energy>  (28) 
-9.25

>  <m_primary>  (28) 
energy

>  <rmsd>  (28) 
5.064512218706093

>  <m_score__min__rmsd>  (28) 
5.064512218706093

>  <meeko>  (28) 
{"free_energy": -6.95, "intermolecular_energy": -9.04, "internal_energy": -3.76, "cluster_size": 13, "cluster_id": 2, "rank_in_cluster": 11}

>  <energy>  (28) 
-6.95

>  <cluster_rmsd>  (28) 
1.5

>  <cluster>  (28) 
2

$$$$

     RDKit          3D

 57 60  0  0  0  0  0  0  0  0999 V2000
  137.9810   78.6710  220.8850 N   0  0  0  0  0  0  0  0  0  0  0  0
  138.3730   77.2830  220.8790 C   0  0  2  0  0  0  0  0  0  0  0  0
  137.1360   76.3830  221.0460 C   0  0  0  0  0  0  0  0  0  0  0  0
  137.6180   75.1890  221.9250 C   0  0  0  0  0  0  0  0  0  0  0  0
  139.0830   75.3960  221.8970 N   0  0  0  0  0  0  0  0  0  0  0  0
  140.1210   74.4540  221.7650 C   0  0  0  0  0  0  0  0  0  0  0  0
  139.9740   73.3790  222.4430 O   0  0  0  0  0  0  0  0  0  0  0  0
  141.3410   74.5490  220.9620 C   0  0  0  0  0  0  0  0  0  0  0  0
  141.7890   75.8960  220.6530 N   0  0  0  0  0  0  0  0  0  0  0  0
  141.1210   76.4560  219.4700 C   0  0  0  0  0  0  0  0  0  0  0  0
  140.3140   75.7020  218.9230 O   0  0  0  0  0  0  0  0  0  0  0  0
  141.4600   77.8090  219.0720 C   0  0  0  0  0  0  0  0  0  0  0  0
  142.5860   78.0000  218.3390 C   0  0  0  0  0  0  0  0  0  0  0  0
  142.9730   79.2310  217.8700 C   0  0  0  0  0  0  0  0  0  0  0  0
  142.1810   80.3140  218.1570 C   0  0  0  0  0  0  0  0  0  0  0  0
  142.5440   81.5550  217.6890 C   0  0  0  0  0  0  0  0  0  0  0  0
  141.7410   82.6230  217.9770 C   0  0  0  0  0  0  0  0  0  0  0  0
  142.1610   84.2220  217.4080 Cl  0  0  0  0  0  0  0  0  0  0  0  0
  140.6040   82.4190  218.7230 C   0  0  0  0  0  0  0  0  0  0  0  0
  140.1970   81.2010  219.2130 C   0  0  0  0  0  0  0  0  0  0  0  0
  141.0290   80.1130  218.9090 C   0  0  0  0  0  0  0  0  0  0  0  0
  140.6670   78.8860  219.3640 N   0  0  0  0  0  0  0  0  0  0  0  0
  139.1570   76.8550  222.0610 C   0  0  1  0  0  0  0  0  0  0  0  0
  140.3960   77.4560  222.3970 C   0  0  0  0  0  0  0  0  0  0  0  0
  141.2580   76.8210  223.0750 O   0  0  0  0  0  0  0  0  0  0  0  0
  140.7750   78.7810  222.0200 N   0  0  0  0  0  0  0  0  0  0  0  0
  142.0680   79.3310  222.4200 C   0  0  0  0  0  0  0  0  0  0  0  0
  142.2820   80.6660  221.6920 C   0  0  0  0  0  0  0  0  0  0  0  0
  141.8000   81.6570  222.7050 C   0  0  0  0  0  0  0  0  0  0  0  0
  142.2190   81.0920  224.0450 C   0  0  0  0  0  0  0  0  0  0  0  0
  142.1950   79.6070  223.8410 C   0  0  0  0  0  0  0  0  0  0  0  0
  137.0100   78.8350  220.5670 H   0  0  0  0  0  0  0  0  0  0  0  0
  138.7000   79.2350  220.3630 H   0  0  0  0  0  0  0  0  0  0  0  0
  138.9371   77.1915  219.9391 H   0  0  0  0  0  0  0  0  0  0  0  0
  136.3253   76.9304  221.5492 H   0  0  0  0  0  0  0  0  0  0  0  0
  136.7370   76.0471  220.0775 H   0  0  0  0  0  0  0  0  0  0  0  0
  137.2198   75.2533  222.9484 H   0  0  0  0  0  0  0  0  0  0  0  0
  137.2913   74.2009  221.5688 H   0  0  0  0  0  0  0  0  0  0  0  0
  142.1478   74.0424  221.5120 H   0  0  0  0  0  0  0  0  0  0  0  0
  141.1000   74.0841  219.9947 H   0  0  0  0  0  0  0  0  0  0  0  0
  142.4930   76.4330  221.1830 H   0  0  0  0  0  0  0  0  0  0  0  0
  143.2174   77.1288  218.1102 H   0  0  0  0  0  0  0  0  0  0  0  0
  143.8940   79.3460  217.2796 H   0  0  0  0  0  0  0  0  0  0  0  0
  143.4610   81.6855  217.0956 H   0  0  0  0  0  0  0  0  0  0  0  0
  139.9747   83.2938  218.9436 H   0  0  0  0  0  0  0  0  0  0  0  0
  139.2775   81.0866  219.8058 H   0  0  0  0  0  0  0  0  0  0  0  0
  138.7445   77.2466  223.0026 H   0  0  0  0  0  0  0  0  0  0  0  0
  140.1630   79.3970  221.4520 H   0  0  0  0  0  0  0  0  0  0  0  0
  142.8099   78.5614  222.1607 H   0  0  0  0  0  0  0  0  0  0  0  0
  143.3439   80.8243  221.4525 H   0  0  0  0  0  0  0  0  0  0  0  0
  141.7602   80.7316  220.7259 H   0  0  0  0  0  0  0  0  0  0  0  0
  142.2676   82.6384  222.5371 H   0  0  0  0  0  0  0  0  0  0  0  0
  140.7122   81.8091  222.6454 H   0  0  0  0  0  0  0  0  0  0  0  0
  143.2299   81.4328  224.3133 H   0  0  0  0  0  0  0  0  0  0  0  0
  141.5597   81.4158  224.8638 H   0  0  0  0  0  0  0  0  0  0  0  0
  143.1286   79.1666  224.2211 H   0  0  0  0  0  0  0  0  0  0  0  0
  141.3445   79.1691  224.3840 H   0  0  0  0  0  0  0  0  0  0  0  0
  1  2  1  0
  2  3  1  0
  3  4  1  0
  4  5  1  0
  5  6  1  0
  6  7  2  0
  6  8  1  0
  8  9  1  0
  9 10  1  0
 10 11  2  0
 10 12  1  0
 12 13  2  0
 13 14  1  0
 14 15  2  0
 15 16  1  0
 16 17  2  0
 17 18  1  0
 17 19  1  0
 19 20  2  0
 20 21  1  0
 21 22  2  0
  5 23  1  0
 23 24  1  0
 24 25  2  0
 24 26  1  0
 26 27  1  0
 27 28  1  0
 28 29  1  0
 29 30  1  0
 30 31  1  0
 23  2  1  0
 31 27  1  0
 22 12  1  0
 21 15  1  0
  1 32  1  0
  1 33  1  0
  2 34  1  6
  3 35  1  0
  3 36  1  0
  4 37  1  0
  4 38  1  0
  8 39  1  0
  8 40  1  0
  9 41  1  0
 13 42  1  0
 14 43  1  0
 16 44  1  0
 19 45  1  0
 20 46  1  0
 23 47  1  1
 26 48  1  0
 27 49  1  0
 28 50  1  0
 28 51  1  0
 29 52  1  0
 29 53  1  0
 30 54  1  0
 30 55  1  0
 31 56  1  0
 31 57  1  0
M  END
>  <smiles>  (29) 
N[C@@H]1CCN(C(=O)CNC(=O)c2ccc3cc(Cl)ccc3n2)[C@H]1C(=O)NC1CCCC1

>  <score_type>  (29) 
oracle

>  <origin>  (29) 
autodockgpu

>  <m_score__min__energy>  (29) 
-9.25

>  <m_primary>  (29) 
energy

>  <rmsd>  (29) 
8.05789404257203

>  <m_score__min__rmsd>  (29) 
8.05789404257203

>  <meeko>  (29) 
{"free_energy": -5.97, "intermolecular_energy": -8.06, "internal_energy": -4.74, "cluster_size": 4, "cluster_id": 9, "rank_in_cluster": 2}

>  <energy>  (29) 
-6.91

>  <cluster_rmsd>  (29) 
1.63

>  <cluster>  (29) 
2

$$$$

     RDKit          3D

 57 60  0  0  0  0  0  0  0  0999 V2000
  141.8300   77.9390  223.7990 N   0  0  0  0  0  0  0  0  0  0  0  0
  141.7130   79.1960  223.1010 C   0  0  2  0  0  0  0  0  0  0  0  0
  142.6180   80.2540  223.7580 C   0  0  0  0  0  0  0  0  0  0  0  0
  141.8210   81.5900  223.6600 C   0  0  0  0  0  0  0  0  0  0  0  0
  140.7400   81.2000  222.7280 N   0  0  0  0  0  0  0  0  0  0  0  0
  140.1780   81.9150  221.6530 C   0  0  0  0  0  0  0  0  0  0  0  0
  139.8880   83.1370  221.9000 O   0  0  0  0  0  0  0  0  0  0  0  0
  139.8820   81.4430  220.3000 C   0  0  0  0  0  0  0  0  0  0  0  0
  140.0630   80.0180  220.0760 N   0  0  0  0  0  0  0  0  0  0  0  0
  141.4740   79.6150  220.1210 C   0  0  0  0  0  0  0  0  0  0  0  0
  142.2720   80.5340  220.3180 O   0  0  0  0  0  0  0  0  0  0  0  0
  141.7880   78.2100  219.9400 C   0  0  0  0  0  0  0  0  0  0  0  0
  142.5600   77.8550  218.8820 C   0  0  0  0  0  0  0  0  0  0  0  0
  142.9560   76.5620  218.6460 C   0  0  0  0  0  0  0  0  0  0  0  0
  142.5500   75.5880  219.5220 C   0  0  0  0  0  0  0  0  0  0  0  0
  142.9430   74.2870  219.3100 C   0  0  0  0  0  0  0  0  0  0  0  0
  142.5360   73.3280  220.1970 C   0  0  0  0  0  0  0  0  0  0  0  0
  143.0060   71.6600  219.9700 Cl  0  0  0  0  0  0  0  0  0  0  0  0
  141.7520   73.6990  221.2640 C   0  0  0  0  0  0  0  0  0  0  0  0
  141.3330   74.9820  221.5200 C   0  0  0  0  0  0  0  0  0  0  0  0
  141.7580   75.9560  220.6040 C   0  0  0  0  0  0  0  0  0  0  0  0
  141.3780   77.2420  220.8170 N   0  0  0  0  0  0  0  0  0  0  0  0
  140.3990   79.8660  223.2450 C   0  0  1  0  0  0  0  0  0  0  0  0
  139.1920   79.2470  222.8340 C   0  0  0  0  0  0  0  0  0  0  0  0
  138.1090   79.9030  222.8040 O   0  0  0  0  0  0  0  0  0  0  0  0
  139.0870   77.8810  222.4300 N   0  0  0  0  0  0  0  0  0  0  0  0
  137.8000   77.3150  222.0340 C   0  0  0  0  0  0  0  0  0  0  0  0
  137.8660   76.9340  220.5480 C   0  0  0  0  0  0  0  0  0  0  0  0
  138.2290   75.4830  220.6120 C   0  0  0  0  0  0  0  0  0  0  0  0
  137.4990   74.9420  221.8210 C   0  0  0  0  0  0  0  0  0  0  0  0
  137.4190   76.1130  222.7560 C   0  0  0  0  0  0  0  0  0  0  0  0
  142.5550   77.9340  224.5370 H   0  0  0  0  0  0  0  0  0  0  0  0
  141.9320   77.1630  223.0970 H   0  0  0  0  0  0  0  0  0  0  0  0
  141.9378   78.9193  222.0604 H   0  0  0  0  0  0  0  0  0  0  0  0
  142.8119   79.9966  224.8097 H   0  0  0  0  0  0  0  0  0  0  0  0
  143.5978   80.3221  223.2627 H   0  0  0  0  0  0  0  0  0  0  0  0
  141.4215   81.8958  224.6382 H   0  0  0  0  0  0  0  0  0  0  0  0
  142.4176   82.4532  223.3299 H   0  0  0  0  0  0  0  0  0  0  0  0
  138.8333   81.6896  220.0779 H   0  0  0  0  0  0  0  0  0  0  0  0
  140.6070   81.9445  219.6421 H   0  0  0  0  0  0  0  0  0  0  0  0
  139.3080   79.3360  219.9050 H   0  0  0  0  0  0  0  0  0  0  0  0
  142.8832   78.6391  218.1815 H   0  0  0  0  0  0  0  0  0  0  0  0
  143.5827   76.3135  217.7768 H   0  0  0  0  0  0  0  0  0  0  0  0
  143.5708   74.0233  218.4461 H   0  0  0  0  0  0  0  0  0  0  0  0
  141.4373   72.9108  221.9638 H   0  0  0  0  0  0  0  0  0  0  0  0
  140.7043   75.2299  222.3879 H   0  0  0  0  0  0  0  0  0  0  0  0
  140.0253   79.8405  224.2792 H   0  0  0  0  0  0  0  0  0  0  0  0
  139.9050   77.2430  222.3980 H   0  0  0  0  0  0  0  0  0  0  0  0
  137.0535   78.0909  222.2593 H   0  0  0  0  0  0  0  0  0  0  0  0
  136.8939   77.0810  220.0546 H   0  0  0  0  0  0  0  0  0  0  0  0
  138.5743   77.5421  219.9662 H   0  0  0  0  0  0  0  0  0  0  0  0
  137.9014   74.9632  219.6996 H   0  0  0  0  0  0  0  0  0  0  0  0
  139.3163   75.3353  220.6894 H   0  0  0  0  0  0  0  0  0  0  0  0
  136.4928   74.5931  221.5455 H   0  0  0  0  0  0  0  0  0  0  0  0
  138.0100   74.0777  222.2703 H   0  0  0  0  0  0  0  0  0  0  0  0
  136.3901   76.2173  223.1309 H   0  0  0  0  0  0  0  0  0  0  0  0
  138.0970   75.9580  223.6083 H   0  0  0  0  0  0  0  0  0  0  0  0
  1  2  1  0
  2  3  1  0
  3  4  1  0
  4  5  1  0
  5  6  1  0
  6  7  2  0
  6  8  1  0
  8  9  1  0
  9 10  1  0
 10 11  2  0
 10 12  1  0
 12 13  2  0
 13 14  1  0
 14 15  2  0
 15 16  1  0
 16 17  2  0
 17 18  1  0
 17 19  1  0
 19 20  2  0
 20 21  1  0
 21 22  2  0
  5 23  1  0
 23 24  1  0
 24 25  2  0
 24 26  1  0
 26 27  1  0
 27 28  1  0
 28 29  1  0
 29 30  1  0
 30 31  1  0
 23  2  1  0
 31 27  1  0
 22 12  1  0
 21 15  1  0
  1 32  1  0
  1 33  1  0
  2 34  1  6
  3 35  1  0
  3 36  1  0
  4 37  1  0
  4 38  1  0
  8 39  1  0
  8 40  1  0
  9 41  1  0
 13 42  1  0
 14 43  1  0
 16 44  1  0
 19 45  1  0
 20 46  1  0
 23 47  1  1
 26 48  1  0
 27 49  1  0
 28 50  1  0
 28 51  1  0
 29 52  1  0
 29 53  1  0
 30 54  1  0
 30 55  1  0
 31 56  1  0
 31 57  1  0
M  END
>  <smiles>  (30) 
N[C@@H]1CCN(C(=O)CNC(=O)c2ccc3cc(Cl)ccc3n2)[C@H]1C(=O)NC1CCCC1

>  <score_type>  (30) 
oracle

>  <origin>  (30) 
autodockgpu

>  <m_score__min__energy>  (30) 
-9.25

>  <m_primary>  (30) 
energy

>  <rmsd>  (30) 
7.747651736451268

>  <m_score__min__rmsd>  (30) 
7.747651736451268

>  <meeko>  (30) 
{"free_energy": -5.43, "intermolecular_energy": -7.51, "internal_energy": -4.4, "cluster_size": 1, "cluster_id": 10, "rank_in_cluster": 1}

>  <energy>  (30) 
-6.79

>  <cluster_rmsd>  (30) 
1.02

>  <cluster>  (30) 
2

$$$$

     RDKit          3D

 57 60  0  0  0  0  0  0  0  0999 V2000
  142.9410   79.0700  218.2330 N   0  0  0  0  0  0  0  0  0  0  0  0
  142.4220   77.7860  218.6350 C   0  0  2  0  0  0  0  0  0  0  0  0
  141.9030   77.0160  217.4080 C   0  0  0  0  0  0  0  0  0  0  0  0
  140.6420   76.2490  217.9100 C   0  0  0  0  0  0  0  0  0  0  0  0
  140.7720   76.4310  219.3730 N   0  0  0  0  0  0  0  0  0  0  0  0
  140.5510   75.5120  220.4160 C   0  0  0  0  0  0  0  0  0  0  0  0
  141.5400   75.3380  221.2110 O   0  0  0  0  0  0  0  0  0  0  0  0
  139.3460   74.7320  220.7050 C   0  0  0  0  0  0  0  0  0  0  0  0
  139.3570   73.9980  221.9590 N   0  0  0  0  0  0  0  0  0  0  0  0
  139.7360   72.5890  221.7860 C   0  0  0  0  0  0  0  0  0  0  0  0
  139.9630   72.2510  220.6230 O   0  0  0  0  0  0  0  0  0  0  0  0
  139.8120   71.7540  222.9700 C   0  0  0  0  0  0  0  0  0  0  0  0
  139.3650   70.4760  222.8830 C   0  0  0  0  0  0  0  0  0  0  0  0
  139.4350   69.5870  223.9280 C   0  0  0  0  0  0  0  0  0  0  0  0
  139.9840   70.0150  225.1100 C   0  0  0  0  0  0  0  0  0  0  0  0
  140.0730   69.1390  226.1660 C   0  0  0  0  0  0  0  0  0  0  0  0
  140.6290   69.5790  227.3350 C   0  0  0  0  0  0  0  0  0  0  0  0
  140.7620   68.5050  228.7080 Cl  0  0  0  0  0  0  0  0  0  0  0  0
  141.0760   70.8760  227.4120 C   0  0  0  0  0  0  0  0  0  0  0  0
  141.0100   71.7900  226.3880 C   0  0  0  0  0  0  0  0  0  0  0  0
  140.4390   71.3260  225.1930 C   0  0  0  0  0  0  0  0  0  0  0  0
  140.3580   72.1880  224.1470 N   0  0  0  0  0  0  0  0  0  0  0  0
  141.1790   77.8430  219.4400 C   0  0  1  0  0  0  0  0  0  0  0  0
  141.1180   78.5280  220.6790 C   0  0  0  0  0  0  0  0  0  0  0  0
  140.6840   79.7170  220.7380 O   0  0  0  0  0  0  0  0  0  0  0  0
  141.5240   77.9660  221.9280 N   0  0  0  0  0  0  0  0  0  0  0  0
  141.4430   78.7460  223.1610 C   0  0  0  0  0  0  0  0  0  0  0  0
  142.6420   79.7020  223.2200 C   0  0  0  0  0  0  0  0  0  0  0  0
  142.0680   80.9620  222.6510 C   0  0  0  0  0  0  0  0  0  0  0  0
  140.6400   81.0090  223.1490 C   0  0  0  0  0  0  0  0  0  0  0  0
  140.2500   79.5670  223.2800 C   0  0  0  0  0  0  0  0  0  0  0  0
  143.6610   79.0190  217.4920 H   0  0  0  0  0  0  0  0  0  0  0  0
  143.2470   79.6020  219.0880 H   0  0  0  0  0  0  0  0  0  0  0  0
  143.2652   77.3434  219.1856 H   0  0  0  0  0  0  0  0  0  0  0  0
  141.6345   77.7130  216.6005 H   0  0  0  0  0  0  0  0  0  0  0  0
  142.6631   76.3342  216.9989 H   0  0  0  0  0  0  0  0  0  0  0  0
  139.7146   76.6996  217.5267 H   0  0  0  0  0  0  0  0  0  0  0  0
  140.5871   75.1998  217.5843 H   0  0  0  0  0  0  0  0  0  0  0  0
  138.4918   75.4248  220.7262 H   0  0  0  0  0  0  0  0  0  0  0  0
  139.2835   73.9716  219.9127 H   0  0  0  0  0  0  0  0  0  0  0  0
  139.1320   74.3890  222.8870 H   0  0  0  0  0  0  0  0  0  0  0  0
  138.9268   70.1364  221.9329 H   0  0  0  0  0  0  0  0  0  0  0  0
  139.0604   68.5584  223.8197 H   0  0  0  0  0  0  0  0  0  0  0  0
  139.7049   68.1067  226.0724 H   0  0  0  0  0  0  0  0  0  0  0  0
  141.5191   71.2069  228.3629 H   0  0  0  0  0  0  0  0  0  0  0  0
  141.3811   72.8197  226.4980 H   0  0  0  0  0  0  0  0  0  0  0  0
  140.4517   78.5647  219.0398 H   0  0  0  0  0  0  0  0  0  0  0  0
  141.8840   76.9970  222.0140 H   0  0  0  0  0  0  0  0  0  0  0  0
  141.4252   78.0083  223.9768 H   0  0  0  0  0  0  0  0  0  0  0  0
  142.9833   79.8507  224.2551 H   0  0  0  0  0  0  0  0  0  0  0  0
  143.5269   79.3355  222.6790 H   0  0  0  0  0  0  0  0  0  0  0  0
  142.6300   81.8375  223.0084 H   0  0  0  0  0  0  0  0  0  0  0  0
  142.1205   80.9777  221.5524 H   0  0  0  0  0  0  0  0  0  0  0  0
  140.5825   81.5189  224.1220 H   0  0  0  0  0  0  0  0  0  0  0  0
  139.9753   81.5661  222.4723 H   0  0  0  0  0  0  0  0  0  0  0  0
  139.7817   79.3984  224.2609 H   0  0  0  0  0  0  0  0  0  0  0  0
  139.5330   79.3007  222.4895 H   0  0  0  0  0  0  0  0  0  0  0  0
  1  2  1  0
  2  3  1  0
  3  4  1  0
  4  5  1  0
  5  6  1  0
  6  7  2  0
  6  8  1  0
  8  9  1  0
  9 10  1  0
 10 11  2  0
 10 12  1  0
 12 13  2  0
 13 14  1  0
 14 15  2  0
 15 16  1  0
 16 17  2  0
 17 18  1  0
 17 19  1  0
 19 20  2  0
 20 21  1  0
 21 22  2  0
  5 23  1  0
 23 24  1  0
 24 25  2  0
 24 26  1  0
 26 27  1  0
 27 28  1  0
 28 29  1  0
 29 30  1  0
 30 31  1  0
 23  2  1  0
 31 27  1  0
 22 12  1  0
 21 15  1  0
  1 32  1  0
  1 33  1  0
  2 34  1  1
  3 35  1  0
  3 36  1  0
  4 37  1  0
  4 38  1  0
  8 39  1  0
  8 40  1  0
  9 41  1  0
 13 42  1  0
 14 43  1  0
 16 44  1  0
 19 45  1  0
 20 46  1  0
 23 47  1  6
 26 48  1  0
 27 49  1  0
 28 50  1  0
 28 51  1  0
 29 52  1  0
 29 53  1  0
 30 54  1  0
 30 55  1  0
 31 56  1  0
 31 57  1  0
M  END
>  <smiles>  (31) 
N[C@@H]1CCN(C(=O)CNC(=O)c2ccc3cc(Cl)ccc3n2)[C@H]1C(=O)NC1CCCC1

>  <score_type>  (31) 
oracle

>  <origin>  (31) 
autodockgpu

>  <m_score__min__energy>  (31) 
-9.25

>  <m_primary>  (31) 
energy

>  <rmsd>  (31) 
2.0509170941492605

>  <m_score__min__rmsd>  (31) 
2.0509170941492605

>  <meeko>  (31) 
{"free_energy": -9.25, "intermolecular_energy": -11.34, "internal_energy": -1.73, "cluster_size": 17, "cluster_id": 1, "rank_in_cluster": 1}

>  <energy>  (31) 
-8.07

>  <cluster_rmsd>  (31) 
0.0

>  <cluster>  (31) 
3

$$$$

     RDKit          3D

 57 60  0  0  0  0  0  0  0  0999 V2000
  142.2130   78.6850  222.0540 N   0  0  0  0  0  0  0  0  0  0  0  0
  140.9700   78.0860  221.6360 C   0  0  2  0  0  0  0  0  0  0  0  0
  139.9010   78.2640  222.7290 C   0  0  0  0  0  0  0  0  0  0  0  0
  139.0650   76.9500  222.7000 C   0  0  0  0  0  0  0  0  0  0  0  0
  139.5510   76.3390  221.4430 N   0  0  0  0  0  0  0  0  0  0  0  0
  138.8340   75.6700  220.4320 C   0  0  0  0  0  0  0  0  0  0  0  0
  138.5070   76.3900  219.4260 O   0  0  0  0  0  0  0  0  0  0  0  0
  138.4140   74.2690  220.3870 C   0  0  0  0  0  0  0  0  0  0  0  0
  138.4600   73.5560  221.6520 N   0  0  0  0  0  0  0  0  0  0  0  0
  139.4510   72.4730  221.6550 C   0  0  0  0  0  0  0  0  0  0  0  0
  140.0650   72.3270  220.5960 O   0  0  0  0  0  0  0  0  0  0  0  0
  139.6150   71.7010  222.8730 C   0  0  0  0  0  0  0  0  0  0  0  0
  139.1230   70.4370  222.9030 C   0  0  0  0  0  0  0  0  0  0  0  0
  139.2660   69.6050  223.9860 C   0  0  0  0  0  0  0  0  0  0  0  0
  139.9390   70.0780  225.0840 C   0  0  0  0  0  0  0  0  0  0  0  0
  140.1020   69.2580  226.1760 C   0  0  0  0  0  0  0  0  0  0  0  0
  140.7810   69.7410  227.2600 C   0  0  0  0  0  0  0  0  0  0  0  0
  141.0130   68.7390  228.6750 Cl  0  0  0  0  0  0  0  0  0  0  0  0
  141.2730   71.0240  227.2200 C   0  0  0  0  0  0  0  0  0  0  0  0
  141.1370   71.8820  226.1540 C   0  0  0  0  0  0  0  0  0  0  0  0
  140.4400   71.3740  225.0480 C   0  0  0  0  0  0  0  0  0  0  0  0
  140.2850   72.1790  223.9660 N   0  0  0  0  0  0  0  0  0  0  0  0
  140.9930   76.6070  221.5470 C   0  0  1  0  0  0  0  0  0  0  0  0
  141.8930   75.9200  220.6940 C   0  0  0  0  0  0  0  0  0  0  0  0
  142.6660   76.5620  219.9220 O   0  0  0  0  0  0  0  0  0  0  0  0
  142.0090   74.4980  220.6250 N   0  0  0  0  0  0  0  0  0  0  0  0
  142.9530   73.8680  219.7050 C   0  0  0  0  0  0  0  0  0  0  0  0
  144.3730   74.3250  220.0670 C   0  0  0  0  0  0  0  0  0  0  0  0
  144.8440   73.2160  220.9540 C   0  0  0  0  0  0  0  0  0  0  0  0
  144.2450   71.9560  220.3680 C   0  0  0  0  0  0  0  0  0  0  0  0
  142.9600   72.4160  219.7460 C   0  0  0  0  0  0  0  0  0  0  0  0
  142.9630   78.6390  221.3420 H   0  0  0  0  0  0  0  0  0  0  0  0
  142.4900   78.2890  222.9890 H   0  0  0  0  0  0  0  0  0  0  0  0
  140.7809   78.5681  220.6655 H   0  0  0  0  0  0  0  0  0  0  0  0
  140.3740   78.3987  223.7129 H   0  0  0  0  0  0  0  0  0  0  0  0
  139.2768   79.1525  222.5530 H   0  0  0  0  0  0  0  0  0  0  0  0
  139.2821   76.3129  223.5700 H   0  0  0  0  0  0  0  0  0  0  0  0
  137.9763   77.1022  222.7409 H   0  0  0  0  0  0  0  0  0  0  0  0
  137.3776   74.2386  220.0195 H   0  0  0  0  0  0  0  0  0  0  0  0
  139.1355   73.7609  219.7303 H   0  0  0  0  0  0  0  0  0  0  0  0
  137.8780   73.7620  222.4790 H   0  0  0  0  0  0  0  0  0  0  0  0
  138.5852   70.0617  222.0199 H   0  0  0  0  0  0  0  0  0  0  0  0
  138.8519   68.5860  223.9735 H   0  0  0  0  0  0  0  0  0  0  0  0
  139.6951   68.2360  226.1773 H   0  0  0  0  0  0  0  0  0  0  0  0
  141.8145   71.3907  228.1045 H   0  0  0  0  0  0  0  0  0  0  0  0
  141.5487   72.9020  226.1678 H   0  0  0  0  0  0  0  0  0  0  0  0
  141.4997   76.1426  222.4058 H   0  0  0  0  0  0  0  0  0  0  0  0
  141.4410   73.8620  221.2160 H   0  0  0  0  0  0  0  0  0  0  0  0
  142.6332   74.1730  218.6977 H   0  0  0  0  0  0  0  0  0  0  0  0
  145.0041   74.4144  219.1705 H   0  0  0  0  0  0  0  0  0  0  0  0
  144.4108   75.3168  220.5413 H   0  0  0  0  0  0  0  0  0  0  0  0
  145.9425   73.1589  220.9495 H   0  0  0  0  0  0  0  0  0  0  0  0
  144.5380   73.3683  221.9996 H   0  0  0  0  0  0  0  0  0  0  0  0
  144.9129   71.5227  219.6090 H   0  0  0  0  0  0  0  0  0  0  0  0
  144.0909   71.1713  221.1233 H   0  0  0  0  0  0  0  0  0  0  0  0
  142.8803   72.0169  218.7240 H   0  0  0  0  0  0  0  0  0  0  0  0
  142.1072   72.0548  220.3396 H   0  0  0  0  0  0  0  0  0  0  0  0
  1  2  1  0
  2  3  1  0
  3  4  1  0
  4  5  1  0
  5  6  1  0
  6  7  2  0
  6  8  1  0
  8  9  1  0
  9 10  1  0
 10 11  2  0
 10 12  1  0
 12 13  2  0
 13 14  1  0
 14 15  2  0
 15 16  1  0
 16 17  2  0
 17 18  1  0
 17 19  1  0
 19 20  2  0
 20 21  1  0
 21 22  2  0
  5 23  1  0
 23 24  1  0
 24 25  2  0
 24 26  1  0
 26 27  1  0
 27 28  1  0
 28 29  1  0
 29 30  1  0
 30 31  1  0
 23  2  1  0
 31 27  1  0
 22 12  1  0
 21 15  1  0
  1 32  1  0
  1 33  1  0
  2 34  1  6
  3 35  1  0
  3 36  1  0
  4 37  1  0
  4 38  1  0
  8 39  1  0
  8 40  1  0
  9 41  1  0
 13 42  1  0
 14 43  1  0
 16 44  1  0
 19 45  1  0
 20 46  1  0
 23 47  1  1
 26 48  1  0
 27 49  1  0
 28 50  1  0
 28 51  1  0
 29 52  1  0
 29 53  1  0
 30 54  1  0
 30 55  1  0
 31 56  1  0
 31 57  1  0
M  END
>  <smiles>  (32) 
N[C@@H]1CCN(C(=O)CNC(=O)c2ccc3cc(Cl)ccc3n2)[C@H]1C(=O)NC1CCCC1

>  <score_type>  (32) 
oracle

>  <origin>  (32) 
autodockgpu

>  <m_score__min__energy>  (32) 
-9.25

>  <m_primary>  (32) 
energy

>  <rmsd>  (32) 
4.77158985444385

>  <m_score__min__rmsd>  (32) 
4.77158985444385

>  <meeko>  (32) 
{"free_energy": -7.73, "intermolecular_energy": -9.81, "internal_energy": -2.93, "cluster_size": 13, "cluster_id": 2, "rank_in_cluster": 4}

>  <energy>  (32) 
-7.95

>  <cluster_rmsd>  (32) 
0.0

>  <cluster>  (32) 
4

$$$$

     RDKit          3D

 57 60  0  0  0  0  0  0  0  0999 V2000
  142.9360   79.0760  218.0170 N   0  0  0  0  0  0  0  0  0  0  0  0
  142.6800   77.7570  218.5390 C   0  0  2  0  0  0  0  0  0  0  0  0
  142.6130   76.7350  217.3890 C   0  0  0  0  0  0  0  0  0  0  0  0
  141.5050   75.7220  217.8090 C   0  0  0  0  0  0  0  0  0  0  0  0
  141.3000   76.1040  219.2230 N   0  0  0  0  0  0  0  0  0  0  0  0
  141.1130   75.2900  220.3560 C   0  0  0  0  0  0  0  0  0  0  0  0
  141.6670   75.7100  221.4310 O   0  0  0  0  0  0  0  0  0  0  0  0
  140.3740   74.0300  220.4620 C   0  0  0  0  0  0  0  0  0  0  0  0
  140.6190   73.2570  221.6680 N   0  0  0  0  0  0  0  0  0  0  0  0
  139.5280   72.3220  221.9710 C   0  0  0  0  0  0  0  0  0  0  0  0
  138.5820   72.3520  221.1800 O   0  0  0  0  0  0  0  0  0  0  0  0
  139.6640   71.4700  223.1370 C   0  0  0  0  0  0  0  0  0  0  0  0
  139.2540   70.1800  223.0420 C   0  0  0  0  0  0  0  0  0  0  0  0
  139.3830   69.2770  224.0690 C   0  0  0  0  0  0  0  0  0  0  0  0
  139.9540   69.7040  225.2410 C   0  0  0  0  0  0  0  0  0  0  0  0
  140.1020   68.8140  226.2790 C   0  0  0  0  0  0  0  0  0  0  0  0
  140.6790   69.2520  227.4390 C   0  0  0  0  0  0  0  0  0  0  0  0
  140.8860   68.1600  228.7890 Cl  0  0  0  0  0  0  0  0  0  0  0  0
  141.0890   70.5610  227.5250 C   0  0  0  0  0  0  0  0  0  0  0  0
  140.9650   71.4880  226.5180 C   0  0  0  0  0  0  0  0  0  0  0  0
  140.3720   71.0260  225.3330 C   0  0  0  0  0  0  0  0  0  0  0  0
  140.2330   71.9020  224.3050 N   0  0  0  0  0  0  0  0  0  0  0  0
  141.3280   77.5710  219.1190 C   0  0  1  0  0  0  0  0  0  0  0  0
  140.8630   78.3560  220.2030 C   0  0  0  0  0  0  0  0  0  0  0  0
  139.6810   78.2180  220.6380 O   0  0  0  0  0  0  0  0  0  0  0  0
  141.6500   79.3370  220.8810 N   0  0  0  0  0  0  0  0  0  0  0  0
  141.0890   80.1150  221.9830 C   0  0  0  0  0  0  0  0  0  0  0  0
  140.8410   79.1780  223.1730 C   0  0  0  0  0  0  0  0  0  0  0  0
  142.0900   79.3580  223.9790 C   0  0  0  0  0  0  0  0  0  0  0  0
  142.4530   80.8180  223.8280 C   0  0  0  0  0  0  0  0  0  0  0  0
  141.9450   81.1850  222.4650 C   0  0  0  0  0  0  0  0  0  0  0  0
  142.0910   79.5630  217.6700 H   0  0  0  0  0  0  0  0  0  0  0  0
  143.7160   79.0230  217.3120 H   0  0  0  0  0  0  0  0  0  0  0  0
  143.4826   77.6270  219.2799 H   0  0  0  0  0  0  0  0  0  0  0  0
  142.3437   77.2325  216.4456 H   0  0  0  0  0  0  0  0  0  0  0  0
  143.5810   76.2403  217.2207 H   0  0  0  0  0  0  0  0  0  0  0  0
  140.5880   75.8566  217.2165 H   0  0  0  0  0  0  0  0  0  0  0  0
  141.7729   74.6660  217.6573 H   0  0  0  0  0  0  0  0  0  0  0  0
  139.2998   74.2635  220.4223 H   0  0  0  0  0  0  0  0  0  0  0  0
  140.7248   73.4047  219.6278 H   0  0  0  0  0  0  0  0  0  0  0  0
  141.4560   73.3280  222.2680 H   0  0  0  0  0  0  0  0  0  0  0  0
  138.7977   69.8421  222.0999 H   0  0  0  0  0  0  0  0  0  0  0  0
  139.0376   68.2389  223.9547 H   0  0  0  0  0  0  0  0  0  0  0  0
  139.7636   67.7722  226.1784 H   0  0  0  0  0  0  0  0  0  0  0  0
  141.5497   70.8905  228.4680 H   0  0  0  0  0  0  0  0  0  0  0  0
  141.3088   72.5265  226.6336 H   0  0  0  0  0  0  0  0  0  0  0  0
  140.5377   78.0159  218.4965 H   0  0  0  0  0  0  0  0  0  0  0  0
  142.6370   79.5330  220.6280 H   0  0  0  0  0  0  0  0  0  0  0  0
  140.1722   80.5740  221.5845 H   0  0  0  0  0  0  0  0  0  0  0  0
  139.9507   79.4829  223.7426 H   0  0  0  0  0  0  0  0  0  0  0  0
  140.6481   78.1348  222.8824 H   0  0  0  0  0  0  0  0  0  0  0  0
  141.9057   79.1137  225.0356 H   0  0  0  0  0  0  0  0  0  0  0  0
  142.8990   78.6959  223.6366 H   0  0  0  0  0  0  0  0  0  0  0  0
  141.9620   81.4242  224.6035 H   0  0  0  0  0  0  0  0  0  0  0  0
  143.5328   80.9969  223.9372 H   0  0  0  0  0  0  0  0  0  0  0  0
  141.3700   82.1209  222.5240 H   0  0  0  0  0  0  0  0  0  0  0  0
  142.7905   81.3276  221.7759 H   0  0  0  0  0  0  0  0  0  0  0  0
  1  2  1  0
  2  3  1  0
  3  4  1  0
  4  5  1  0
  5  6  1  0
  6  7  2  0
  6  8  1  0
  8  9  1  0
  9 10  1  0
 10 11  2  0
 10 12  1  0
 12 13  2  0
 13 14  1  0
 14 15  2  0
 15 16  1  0
 16 17  2  0
 17 18  1  0
 17 19  1  0
 19 20  2  0
 20 21  1  0
 21 22  2  0
  5 23  1  0
 23 24  1  0
 24 25  2  0
 24 26  1  0
 26 27  1  0
 27 28  1  0
 28 29  1  0
 29 30  1  0
 30 31  1  0
 23  2  1  0
 31 27  1  0
 22 12  1  0
 21 15  1  0
  1 32  1  0
  1 33  1  0
  2 34  1  1
  3 35  1  0
  3 36  1  0
  4 37  1  0
  4 38  1  0
  8 39  1  0
  8 40  1  0
  9 41  1  0
 13 42  1  0
 14 43  1  0
 16 44  1  0
 19 45  1  0
 20 46  1  0
 23 47  1  6
 26 48  1  0
 27 49  1  0
 28 50  1  0
 28 51  1  0
 29 52  1  0
 29 53  1  0
 30 54  1  0
 30 55  1  0
 31 56  1  0
 31 57  1  0
M  END
>  <smiles>  (33) 
N[C@@H]1CCN(C(=O)CNC(=O)c2ccc3cc(Cl)ccc3n2)[C@H]1C(=O)NC1CCCC1

>  <score_type>  (33) 
oracle

>  <origin>  (33) 
autodockgpu

>  <m_score__min__energy>  (33) 
-9.25

>  <m_primary>  (33) 
energy

>  <rmsd>  (33) 
2.2810547852309266

>  <m_score__min__rmsd>  (33) 
2.2810547852309266

>  <meeko>  (33) 
{"free_energy": -8.36, "intermolecular_energy": -10.45, "internal_energy": -1.91, "cluster_size": 17, "cluster_id": 1, "rank_in_cluster": 12}

>  <energy>  (33) 
-7.88

>  <cluster_rmsd>  (33) 
0.0

>  <cluster>  (33) 
5

$$$$

     RDKit          3D

 57 60  0  0  0  0  0  0  0  0999 V2000
  142.2130   78.5270  221.1960 N   0  0  0  0  0  0  0  0  0  0  0  0
  141.0370   77.7210  220.9790 C   0  0  2  0  0  0  0  0  0  0  0  0
  139.9880   78.0100  222.0680 C   0  0  0  0  0  0  0  0  0  0  0  0
  139.3120   76.6360  222.3580 C   0  0  0  0  0  0  0  0  0  0  0  0
  139.8290   75.8290  221.2310 N   0  0  0  0  0  0  0  0  0  0  0  0
  139.1650   74.8880  220.4210 C   0  0  0  0  0  0  0  0  0  0  0  0
  139.6250   74.7670  219.2320 O   0  0  0  0  0  0  0  0  0  0  0  0
  138.0220   74.0380  220.7590 C   0  0  0  0  0  0  0  0  0  0  0  0
  138.1480   73.2730  221.9880 N   0  0  0  0  0  0  0  0  0  0  0  0
  139.1420   72.1970  221.8840 C   0  0  0  0  0  0  0  0  0  0  0  0
  139.6900   72.1000  220.7830 O   0  0  0  0  0  0  0  0  0  0  0  0
  139.3820   71.3750  223.0550 C   0  0  0  0  0  0  0  0  0  0  0  0
  139.0250   70.0670  223.0060 C   0  0  0  0  0  0  0  0  0  0  0  0
  139.2520   69.1920  224.0390 C   0  0  0  0  0  0  0  0  0  0  0  0
  139.8690   69.6660  225.1690 C   0  0  0  0  0  0  0  0  0  0  0  0
  140.1150   68.8040  226.2120 C   0  0  0  0  0  0  0  0  0  0  0  0
  140.7370   69.2900  227.3290 C   0  0  0  0  0  0  0  0  0  0  0  0
  141.0690   68.2350  228.6830 Cl  0  0  0  0  0  0  0  0  0  0  0  0
  141.0920   70.6170  227.3680 C   0  0  0  0  0  0  0  0  0  0  0  0
  140.8700   71.5180  226.3540 C   0  0  0  0  0  0  0  0  0  0  0  0
  140.2320   71.0070  225.2140 C   0  0  0  0  0  0  0  0  0  0  0  0
  139.9960   71.8550  224.1800 N   0  0  0  0  0  0  0  0  0  0  0  0
  141.2320   76.2680  221.1980 C   0  0  1  0  0  0  0  0  0  0  0  0
  142.1800   75.5180  220.4580 C   0  0  0  0  0  0  0  0  0  0  0  0
  143.2690   76.0460  220.0850 O   0  0  0  0  0  0  0  0  0  0  0  0
  142.0040   74.1530  220.0780 N   0  0  0  0  0  0  0  0  0  0  0  0
  143.0250   73.4550  219.3010 C   0  0  0  0  0  0  0  0  0  0  0  0
  144.2730   73.2740  220.1760 C   0  0  0  0  0  0  0  0  0  0  0  0
  144.0720   71.8960  220.7280 C   0  0  0  0  0  0  0  0  0  0  0  0
  143.4310   71.1080  219.6060 C   0  0  0  0  0  0  0  0  0  0  0  0
  142.6390   72.1300  218.8460 C   0  0  0  0  0  0  0  0  0  0  0  0
  142.3180   79.3070  220.5240 H   0  0  0  0  0  0  0  0  0  0  0  0
  143.0560   77.8990  221.2530 H   0  0  0  0  0  0  0  0  0  0  0  0
  140.7629   77.9621  219.9413 H   0  0  0  0  0  0  0  0  0  0  0  0
  140.4714   78.4013  222.9753 H   0  0  0  0  0  0  0  0  0  0  0  0
  139.2585   78.7676  221.7458 H   0  0  0  0  0  0  0  0  0  0  0  0
  139.6287   76.2259  223.3283 H   0  0  0  0  0  0  0  0  0  0  0  0
  138.2147   76.6736  222.4254 H   0  0  0  0  0  0  0  0  0  0  0  0
  137.1363   74.6837  220.8520 H   0  0  0  0  0  0  0  0  0  0  0  0
  137.9499   73.2963  219.9499 H   0  0  0  0  0  0  0  0  0  0  0  0
  137.6170   73.4400  222.8560 H   0  0  0  0  0  0  0  0  0  0  0  0
  138.5315   69.6908  222.0977 H   0  0  0  0  0  0  0  0  0  0  0  0
  138.9470   68.1379  223.9628 H   0  0  0  0  0  0  0  0  0  0  0  0
  139.8180   67.7467  226.1493 H   0  0  0  0  0  0  0  0  0  0  0  0
  141.5902   70.9850  228.2771 H   0  0  0  0  0  0  0  0  0  0  0  0
  141.1733   72.5725  226.4315 H   0  0  0  0  0  0  0  0  0  0  0  0
  141.8161   76.0543  222.1053 H   0  0  0  0  0  0  0  0  0  0  0  0
  141.1600   73.6050  220.3360 H   0  0  0  0  0  0  0  0  0  0  0  0
  143.1960   74.0778  218.4106 H   0  0  0  0  0  0  0  0  0  0  0  0
  145.1932   73.3336  219.5763 H   0  0  0  0  0  0  0  0  0  0  0  0
  144.3876   74.0481  220.9491 H   0  0  0  0  0  0  0  0  0  0  0  0
  145.0367   71.4494  221.0108 H   0  0  0  0  0  0  0  0  0  0  0  0
  143.4479   71.9032  221.6338 H   0  0  0  0  0  0  0  0  0  0  0  0
  144.1973   70.6507  218.9628 H   0  0  0  0  0  0  0  0  0  0  0  0
  142.8076   70.2801  219.9746 H   0  0  0  0  0  0  0  0  0  0  0  0
  142.8469   72.0335  217.7701 H   0  0  0  0  0  0  0  0  0  0  0  0
  141.5640   71.9739  219.0191 H   0  0  0  0  0  0  0  0  0  0  0  0
  1  2  1  0
  2  3  1  0
  3  4  1  0
  4  5  1  0
  5  6  1  0
  6  7  2  0
  6  8  1  0
  8  9  1  0
  9 10  1  0
 10 11  2  0
 10 12  1  0
 12 13  2  0
 13 14  1  0
 14 15  2  0
 15 16  1  0
 16 17  2  0
 17 18  1  0
 17 19  1  0
 19 20  2  0
 20 21  1  0
 21 22  2  0
  5 23  1  0
 23 24  1  0
 24 25  2  0
 24 26  1  0
 26 27  1  0
 27 28  1  0
 28 29  1  0
 29 30  1  0
 30 31  1  0
 23  2  1  0
 31 27  1  0
 22 12  1  0
 21 15  1  0
  1 32  1  0
  1 33  1  0
  2 34  1  6
  3 35  1  0
  3 36  1  0
  4 37  1  0
  4 38  1  0
  8 39  1  0
  8 40  1  0
  9 41  1  0
 13 42  1  0
 14 43  1  0
 16 44  1  0
 19 45  1  0
 20 46  1  0
 23 47  1  1
 26 48  1  0
 27 49  1  0
 28 50  1  0
 28 51  1  0
 29 52  1  0
 29 53  1  0
 30 54  1  0
 30 55  1  0
 31 56  1  0
 31 57  1  0
M  END
>  <smiles>  (34) 
N[C@@H]1CCN(C(=O)CNC(=O)c2ccc3cc(Cl)ccc3n2)[C@H]1C(=O)NC1CCCC1

>  <score_type>  (34) 
oracle

>  <origin>  (34) 
autodockgpu

>  <m_score__min__energy>  (34) 
-9.25

>  <m_primary>  (34) 
energy

>  <rmsd>  (34) 
4.950840218870441

>  <m_score__min__rmsd>  (34) 
4.950840218870441

>  <meeko>  (34) 
{"free_energy": -7.39, "intermolecular_energy": -9.48, "internal_energy": -3.67, "cluster_size": 13, "cluster_id": 2, "rank_in_cluster": 7}

>  <energy>  (34) 
-7.66

>  <cluster_rmsd>  (34) 
0.75

>  <cluster>  (34) 
5

$$$$

     RDKit          3D

 57 60  0  0  0  0  0  0  0  0999 V2000
  142.1650   78.2410  221.5220 N   0  0  0  0  0  0  0  0  0  0  0  0
  140.9400   77.5230  221.2710 C   0  0  2  0  0  0  0  0  0  0  0  0
  139.8970   77.8590  222.3520 C   0  0  0  0  0  0  0  0  0  0  0  0
  139.1230   76.5290  222.6000 C   0  0  0  0  0  0  0  0  0  0  0  0
  139.6010   75.7140  221.4610 N   0  0  0  0  0  0  0  0  0  0  0  0
  138.8870   74.8390  220.6200 C   0  0  0  0  0  0  0  0  0  0  0  0
  139.2260   74.8670  219.3860 O   0  0  0  0  0  0  0  0  0  0  0  0
  137.8100   73.9120  220.9720 C   0  0  0  0  0  0  0  0  0  0  0  0
  138.0010   73.1640  222.2040 N   0  0  0  0  0  0  0  0  0  0  0  0
  138.9320   72.0400  222.0440 C   0  0  0  0  0  0  0  0  0  0  0  0
  139.3830   71.8960  220.9050 O   0  0  0  0  0  0  0  0  0  0  0  0
  139.2290   71.2290  223.2090 C   0  0  0  0  0  0  0  0  0  0  0  0
  138.9120   69.9100  223.1730 C   0  0  0  0  0  0  0  0  0  0  0  0
  139.1950   69.0450  224.2010 C   0  0  0  0  0  0  0  0  0  0  0  0
  139.8250   69.5420  225.3140 C   0  0  0  0  0  0  0  0  0  0  0  0
  140.1260   68.6910  226.3520 C   0  0  0  0  0  0  0  0  0  0  0  0
  140.7610   69.2000  227.4500 C   0  0  0  0  0  0  0  0  0  0  0  0
  141.1630   68.1600  228.7980 Cl  0  0  0  0  0  0  0  0  0  0  0  0
  141.0750   70.5380  227.4780 C   0  0  0  0  0  0  0  0  0  0  0  0
  140.7970   71.4280  226.4690 C   0  0  0  0  0  0  0  0  0  0  0  0
  140.1460   70.8940  225.3460 C   0  0  0  0  0  0  0  0  0  0  0  0
  139.8570   71.7310  224.3180 N   0  0  0  0  0  0  0  0  0  0  0  0
  141.0310   76.0560  221.4580 C   0  0  1  0  0  0  0  0  0  0  0  0
  141.9360   75.2590  220.7130 C   0  0  0  0  0  0  0  0  0  0  0  0
  143.1050   75.6780  220.4590 O   0  0  0  0  0  0  0  0  0  0  0  0
  141.6300   73.9620  220.2000 N   0  0  0  0  0  0  0  0  0  0  0  0
  142.6170   73.2110  219.4280 C   0  0  0  0  0  0  0  0  0  0  0  0
  143.8330   72.9290  220.3220 C   0  0  0  0  0  0  0  0  0  0  0  0
  143.5290   71.5590  220.8420 C   0  0  0  0  0  0  0  0  0  0  0  0
  142.8580   70.8370  219.6940 C   0  0  0  0  0  0  0  0  0  0  0  0
  142.1520   71.9240  218.9390 C   0  0  0  0  0  0  0  0  0  0  0  0
  142.9790   77.8830  220.9920 H   0  0  0  0  0  0  0  0  0  0  0  0
  142.3250   78.2970  222.5610 H   0  0  0  0  0  0  0  0  0  0  0  0
  140.6990   77.8058  220.2357 H   0  0  0  0  0  0  0  0  0  0  0  0
  140.3924   78.1949  223.2749 H   0  0  0  0  0  0  0  0  0  0  0  0
  139.2266   78.6726  222.0379 H   0  0  0  0  0  0  0  0  0  0  0  0
  139.3954   76.0759  223.5646 H   0  0  0  0  0  0  0  0  0  0  0  0
  138.0300   76.6410  222.6531 H   0  0  0  0  0  0  0  0  0  0  0  0
  136.8816   74.4938  221.0701 H   0  0  0  0  0  0  0  0  0  0  0  0
  137.7833   73.1629  220.1669 H   0  0  0  0  0  0  0  0  0  0  0  0
  137.5510   73.3720  223.1090 H   0  0  0  0  0  0  0  0  0  0  0  0
  138.4053   69.5160  222.2797 H   0  0  0  0  0  0  0  0  0  0  0  0
  138.9237   67.9811  224.1341 H   0  0  0  0  0  0  0  0  0  0  0  0
  139.8615   67.6246  226.2995 H   0  0  0  0  0  0  0  0  0  0  0  0
  141.5856   70.9239  228.3727 H   0  0  0  0  0  0  0  0  0  0  0  0
  141.0676   72.4920  226.5369 H   0  0  0  0  0  0  0  0  0  0  0  0
  141.5850   75.7825  222.3681 H   0  0  0  0  0  0  0  0  0  0  0  0
  140.7120   73.5030  220.3530 H   0  0  0  0  0  0  0  0  0  0  0  0
  142.8469   73.8379  218.5538 H   0  0  0  0  0  0  0  0  0  0  0  0
  144.7666   72.9372  219.7404 H   0  0  0  0  0  0  0  0  0  0  0  0
  143.9845   73.6788  221.1125 H   0  0  0  0  0  0  0  0  0  0  0  0
  144.4557   71.0428  221.1330 H   0  0  0  0  0  0  0  0  0  0  0  0
  142.8892   71.5920  221.7362 H   0  0  0  0  0  0  0  0  0  0  0  0
  143.6038   70.3400  219.0563 H   0  0  0  0  0  0  0  0  0  0  0  0
  142.1727   70.0473  220.0355 H   0  0  0  0  0  0  0  0  0  0  0  0
  142.3750   71.8337  217.8656 H   0  0  0  0  0  0  0  0  0  0  0  0
  141.0655   71.8377  219.0877 H   0  0  0  0  0  0  0  0  0  0  0  0
  1  2  1  0
  2  3  1  0
  3  4  1  0
  4  5  1  0
  5  6  1  0
  6  7  2  0
  6  8  1  0
  8  9  1  0
  9 10  1  0
 10 11  2  0
 10 12  1  0
 12 13  2  0
 13 14  1  0
 14 15  2  0
 15 16  1  0
 16 17  2  0
 17 18  1  0
 17 19  1  0
 19 20  2  0
 20 21  1  0
 21 22  2  0
  5 23  1  0
 23 24  1  0
 24 25  2  0
 24 26  1  0
 26 27  1  0
 27 28  1  0
 28 29  1  0
 29 30  1  0
 30 31  1  0
 23  2  1  0
 31 27  1  0
 22 12  1  0
 21 15  1  0
  1 32  1  0
  1 33  1  0
  2 34  1  6
  3 35  1  0
  3 36  1  0
  4 37  1  0
  4 38  1  0
  8 39  1  0
  8 40  1  0
  9 41  1  0
 13 42  1  0
 14 43  1  0
 16 44  1  0
 19 45  1  0
 20 46  1  0
 23 47  1  1
 26 48  1  0
 27 49  1  0
 28 50  1  0
 28 51  1  0
 29 52  1  0
 29 53  1  0
 30 54  1  0
 30 55  1  0
 31 56  1  0
 31 57  1  0
M  END
>  <smiles>  (35) 
N[C@@H]1CCN(C(=O)CNC(=O)c2ccc3cc(Cl)ccc3n2)[C@H]1C(=O)NC1CCCC1

>  <score_type>  (35) 
oracle

>  <origin>  (35) 
autodockgpu

>  <m_score__min__energy>  (35) 
-9.25

>  <m_primary>  (35) 
energy

>  <rmsd>  (35) 
5.0307124762548465

>  <m_score__min__rmsd>  (35) 
5.0307124762548465

>  <meeko>  (35) 
{"free_energy": -7.18, "intermolecular_energy": -9.27, "internal_energy": -3.72, "cluster_size": 13, "cluster_id": 2, "rank_in_cluster": 9}

>  <energy>  (35) 
-7.81

>  <cluster_rmsd>  (35) 
0.0

>  <cluster>  (35) 
6

$$$$

     RDKit          3D

 57 60  0  0  0  0  0  0  0  0999 V2000
  143.3410   77.9130  216.8780 N   0  0  0  0  0  0  0  0  0  0  0  0
  142.6700   76.9950  217.7650 C   0  0  2  0  0  0  0  0  0  0  0  0
  141.8750   75.9580  216.9510 C   0  0  0  0  0  0  0  0  0  0  0  0
  140.5790   75.6980  217.7770 C   0  0  0  0  0  0  0  0  0  0  0  0
  140.9250   76.3650  219.0520 N   0  0  0  0  0  0  0  0  0  0  0  0
  140.6880   75.9490  220.3760 C   0  0  0  0  0  0  0  0  0  0  0  0
  141.7310   75.8520  221.1140 O   0  0  0  0  0  0  0  0  0  0  0  0
  139.4140   75.6110  221.0130 C   0  0  0  0  0  0  0  0  0  0  0  0
  139.4910   74.6590  222.1080 N   0  0  0  0  0  0  0  0  0  0  0  0
  139.5160   73.2660  221.6450 C   0  0  0  0  0  0  0  0  0  0  0  0
  139.4500   73.1230  220.4230 O   0  0  0  0  0  0  0  0  0  0  0  0
  139.6200   72.2180  222.6430 C   0  0  0  0  0  0  0  0  0  0  0  0
  139.0810   71.0050  222.3590 C   0  0  0  0  0  0  0  0  0  0  0  0
  139.1660   69.9320  223.2110 C   0  0  0  0  0  0  0  0  0  0  0  0
  139.8270   70.0980  224.4020 C   0  0  0  0  0  0  0  0  0  0  0  0
  139.9320   69.0330  225.2660 C   0  0  0  0  0  0  0  0  0  0  0  0
  140.6000   69.2130  226.4460 C   0  0  0  0  0  0  0  0  0  0  0  0
  140.7590   67.8910  227.5800 Cl  0  0  0  0  0  0  0  0  0  0  0  0
  141.1400   70.4460  226.7240 C   0  0  0  0  0  0  0  0  0  0  0  0
  141.0630   71.5390  225.8950 C   0  0  0  0  0  0  0  0  0  0  0  0
  140.3760   71.3420  224.6880 C   0  0  0  0  0  0  0  0  0  0  0  0
  140.2790   72.3900  223.8300 N   0  0  0  0  0  0  0  0  0  0  0  0
  141.5680   77.5910  218.5560 C   0  0  1  0  0  0  0  0  0  0  0  0
  141.7830   78.6730  219.4460 C   0  0  0  0  0  0  0  0  0  0  0  0
  141.8700   79.8590  219.0090 O   0  0  0  0  0  0  0  0  0  0  0  0
  141.9180   78.5350  220.8610 N   0  0  0  0  0  0  0  0  0  0  0  0
  142.1530   79.7030  221.7070 C   0  0  0  0  0  0  0  0  0  0  0  0
  140.8570   80.5220  221.7890 C   0  0  0  0  0  0  0  0  0  0  0  0
  140.2420   80.0100  223.0540 C   0  0  0  0  0  0  0  0  0  0  0  0
  141.4050   79.7550  223.9880 C   0  0  0  0  0  0  0  0  0  0  0  0
  142.5370   79.3920  223.0740 C   0  0  0  0  0  0  0  0  0  0  0  0
  144.3360   77.6840  216.7100 H   0  0  0  0  0  0  0  0  0  0  0  0
  143.1820   78.8980  217.2160 H   0  0  0  0  0  0  0  0  0  0  0  0
  143.4899   76.6183  218.3942 H   0  0  0  0  0  0  0  0  0  0  0  0
  141.6254   76.3569  215.9567 H   0  0  0  0  0  0  0  0  0  0  0  0
  142.4504   75.0350  216.7867 H   0  0  0  0  0  0  0  0  0  0  0  0
  139.6987   76.1587  217.3049 H   0  0  0  0  0  0  0  0  0  0  0  0
  140.3076   74.6367  217.8769 H   0  0  0  0  0  0  0  0  0  0  0  0
  138.9741   76.5405  221.4034 H   0  0  0  0  0  0  0  0  0  0  0  0
  138.8087   75.1243  220.2341 H   0  0  0  0  0  0  0  0  0  0  0  0
  139.5280   74.8990  223.1110 H   0  0  0  0  0  0  0  0  0  0  0  0
  138.5523   70.8760  221.4031 H   0  0  0  0  0  0  0  0  0  0  0  0
  138.7158   68.9640  222.9458 H   0  0  0  0  0  0  0  0  0  0  0  0
  139.4887   68.0584  225.0137 H   0  0  0  0  0  0  0  0  0  0  0  0
  141.6722   70.5664  227.6791 H   0  0  0  0  0  0  0  0  0  0  0  0
  141.5118   72.5074  226.1610 H   0  0  0  0  0  0  0  0  0  0  0  0
  140.9275   78.2516  217.9531 H   0  0  0  0  0  0  0  0  0  0  0  0
  141.8520   77.6180  221.3430 H   0  0  0  0  0  0  0  0  0  0  0  0
  142.9885   80.2442  221.2391 H   0  0  0  0  0  0  0  0  0  0  0  0
  141.0690   81.5993  221.8557 H   0  0  0  0  0  0  0  0  0  0  0  0
  140.2089   80.4145  220.9067 H   0  0  0  0  0  0  0  0  0  0  0  0
  139.5609   80.7600  223.4825 H   0  0  0  0  0  0  0  0  0  0  0  0
  139.6467   79.1011  222.8823 H   0  0  0  0  0  0  0  0  0  0  0  0
  141.6456   80.6585  224.5674 H   0  0  0  0  0  0  0  0  0  0  0  0
  141.1890   78.9675  224.7251 H   0  0  0  0  0  0  0  0  0  0  0  0
  143.4325   79.9695  223.3470 H   0  0  0  0  0  0  0  0  0  0  0  0
  142.7612   78.3189  223.1645 H   0  0  0  0  0  0  0  0  0  0  0  0
  1  2  1  0
  2  3  1  0
  3  4  1  0
  4  5  1  0
  5  6  1  0
  6  7  2  0
  6  8  1  0
  8  9  1  0
  9 10  1  0
 10 11  2  0
 10 12  1  0
 12 13  2  0
 13 14  1  0
 14 15  2  0
 15 16  1  0
 16 17  2  0
 17 18  1  0
 17 19  1  0
 19 20  2  0
 20 21  1  0
 21 22  2  0
  5 23  1  0
 23 24  1  0
 24 25  2  0
 24 26  1  0
 26 27  1  0
 27 28  1  0
 28 29  1  0
 29 30  1  0
 30 31  1  0
 23  2  1  0
 31 27  1  0
 22 12  1  0
 21 15  1  0
  1 32  1  0
  1 33  1  0
  2 34  1  1
  3 35  1  0
  3 36  1  0
  4 37  1  0
  4 38  1  0
  8 39  1  0
  8 40  1  0
  9 41  1  0
 13 42  1  0
 14 43  1  0
 16 44  1  0
 19 45  1  0
 20 46  1  0
 23 47  1  6
 26 48  1  0
 27 49  1  0
 28 50  1  0
 28 51  1  0
 29 52  1  0
 29 53  1  0
 30 54  1  0
 30 55  1  0
 31 56  1  0
 31 57  1  0
M  END
>  <smiles>  (36) 
N[C@@H]1CCN(C(=O)CNC(=O)c2ccc3cc(Cl)ccc3n2)[C@H]1C(=O)NC1CCCC1

>  <score_type>  (36) 
oracle

>  <origin>  (36) 
autodockgpu

>  <m_score__min__energy>  (36) 
-9.25

>  <m_primary>  (36) 
energy

>  <rmsd>  (36) 
2.3233167144897435

>  <m_score__min__rmsd>  (36) 
2.3233167144897435

>  <meeko>  (36) 
{"free_energy": -7.54, "intermolecular_energy": -9.63, "internal_energy": -2.67, "cluster_size": 17, "cluster_id": 1, "rank_in_cluster": 17}

>  <energy>  (36) 
-7.81

>  <cluster_rmsd>  (36) 
0.81

>  <cluster>  (36) 
6

$$$$

     RDKit          3D

 57 60  0  0  0  0  0  0  0  0999 V2000
  143.2600   79.1050  217.7980 N   0  0  0  0  0  0  0  0  0  0  0  0
  142.1810   78.5040  218.5430 C   0  0  2  0  0  0  0  0  0  0  0  0
  141.5490   79.5410  219.4900 C   0  0  0  0  0  0  0  0  0  0  0  0
  141.1750   78.7440  220.7760 C   0  0  0  0  0  0  0  0  0  0  0  0
  141.3580   77.3530  220.3040 N   0  0  0  0  0  0  0  0  0  0  0  0
  140.5670   76.2130  220.5410 C   0  0  0  0  0  0  0  0  0  0  0  0
  139.3850   76.4470  220.9740 O   0  0  0  0  0  0  0  0  0  0  0  0
  140.9210   74.8040  220.3610 C   0  0  0  0  0  0  0  0  0  0  0  0
  140.9590   74.0050  221.5740 N   0  0  0  0  0  0  0  0  0  0  0  0
  140.1010   72.8160  221.4950 C   0  0  0  0  0  0  0  0  0  0  0  0
  139.4780   72.6930  220.4370 O   0  0  0  0  0  0  0  0  0  0  0  0
  140.0710   71.9190  222.6340 C   0  0  0  0  0  0  0  0  0  0  0  0
  139.5540   70.6770  222.4610 C   0  0  0  0  0  0  0  0  0  0  0  0
  139.5230   69.7340  223.4590 C   0  0  0  0  0  0  0  0  0  0  0  0
  140.0410   70.0680  224.6850 C   0  0  0  0  0  0  0  0  0  0  0  0
  140.0290   69.1370  225.6970 C   0  0  0  0  0  0  0  0  0  0  0  0
  140.5540   69.4830  226.9110 C   0  0  0  0  0  0  0  0  0  0  0  0
  140.5600   68.3350  228.2290 Cl  0  0  0  0  0  0  0  0  0  0  0  0
  141.0730   70.7450  227.0750 C   0  0  0  0  0  0  0  0  0  0  0  0
  141.1100   71.7110  226.0990 C   0  0  0  0  0  0  0  0  0  0  0  0
  140.5680   71.3430  224.8570 C   0  0  0  0  0  0  0  0  0  0  0  0
  140.5880   72.2590  223.8560 N   0  0  0  0  0  0  0  0  0  0  0  0
  142.6040   77.4860  219.5340 C   0  0  1  0  0  0  0  0  0  0  0  0
  143.3150   76.3200  219.1540 C   0  0  0  0  0  0  0  0  0  0  0  0
  143.6830   76.1520  217.9530 O   0  0  0  0  0  0  0  0  0  0  0  0
  143.6700   75.2670  220.0520 N   0  0  0  0  0  0  0  0  0  0  0  0
  144.3930   74.0900  219.5760 C   0  0  0  0  0  0  0  0  0  0  0  0
  144.7860   73.2310  220.7850 C   0  0  0  0  0  0  0  0  0  0  0  0
  143.6650   72.2400  220.8440 C   0  0  0  0  0  0  0  0  0  0  0  0
  143.3110   71.9540  219.4010 C   0  0  0  0  0  0  0  0  0  0  0  0
  143.6320   73.2320  218.6840 C   0  0  0  0  0  0  0  0  0  0  0  0
  142.9480   79.7770  217.0750 H   0  0  0  0  0  0  0  0  0  0  0  0
  143.8890   78.3460  217.4300 H   0  0  0  0  0  0  0  0  0  0  0  0
  141.5389   78.0883  217.7525 H   0  0  0  0  0  0  0  0  0  0  0  0
  142.2696   80.3379  219.7258 H   0  0  0  0  0  0  0  0  0  0  0  0
  140.6726   80.0296  219.0393 H   0  0  0  0  0  0  0  0  0  0  0  0
  141.8520   78.9807  221.6101 H   0  0  0  0  0  0  0  0  0  0  0  0
  140.1720   78.9623  221.1712 H   0  0  0  0  0  0  0  0  0  0  0  0
  140.1817   74.3536  219.6824 H   0  0  0  0  0  0  0  0  0  0  0  0
  141.9479   74.8004  219.9667 H   0  0  0  0  0  0  0  0  0  0  0  0
  141.5160   74.2170  222.4160 H   0  0  0  0  0  0  0  0  0  0  0  0
  139.1407   70.4130  221.4764 H   0  0  0  0  0  0  0  0  0  0  0  0
  139.0941   68.7370  223.2802 H   0  0  0  0  0  0  0  0  0  0  0  0
  139.6059   68.1349  225.5332 H   0  0  0  0  0  0  0  0  0  0  0  0
  141.4895   71.0004  228.0605 H   0  0  0  0  0  0  0  0  0  0  0  0
  141.5368   72.7087  226.2789 H   0  0  0  0  0  0  0  0  0  0  0  0
  143.4855   77.8021  220.1111 H   0  0  0  0  0  0  0  0  0  0  0  0
  143.4380   75.2930  221.0630 H   0  0  0  0  0  0  0  0  0  0  0  0
  145.2535   74.4791  219.0119 H   0  0  0  0  0  0  0  0  0  0  0  0
  145.7524   72.7313  220.6225 H   0  0  0  0  0  0  0  0  0  0  0  0
  144.9167   73.8069  221.7131 H   0  0  0  0  0  0  0  0  0  0  0  0
  143.9903   71.3196  221.3510 H   0  0  0  0  0  0  0  0  0  0  0  0
  142.8042   72.6266  221.4093 H   0  0  0  0  0  0  0  0  0  0  0  0
  143.9158   71.1235  219.0080 H   0  0  0  0  0  0  0  0  0  0  0  0
  142.2604   71.6529  219.2763 H   0  0  0  0  0  0  0  0  0  0  0  0
  144.2269   73.0124  217.7852 H   0  0  0  0  0  0  0  0  0  0  0  0
  142.7017   73.7362  218.3835 H   0  0  0  0  0  0  0  0  0  0  0  0
  1  2  1  0
  2  3  1  0
  3  4  1  0
  4  5  1  0
  5  6  1  0
  6  7  2  0
  6  8  1  0
  8  9  1  0
  9 10  1  0
 10 11  2  0
 10 12  1  0
 12 13  2  0
 13 14  1  0
 14 15  2  0
 15 16  1  0
 16 17  2  0
 17 18  1  0
 17 19  1  0
 19 20  2  0
 20 21  1  0
 21 22  2  0
  5 23  1  0
 23 24  1  0
 24 25  2  0
 24 26  1  0
 26 27  1  0
 27 28  1  0
 28 29  1  0
 29 30  1  0
 30 31  1  0
 23  2  1  0
 31 27  1  0
 22 12  1  0
 21 15  1  0
  1 32  1  0
  1 33  1  0
  2 34  1  6
  3 35  1  0
  3 36  1  0
  4 37  1  0
  4 38  1  0
  8 39  1  0
  8 40  1  0
  9 41  1  0
 13 42  1  0
 14 43  1  0
 16 44  1  0
 19 45  1  0
 20 46  1  0
 23 47  1  1
 26 48  1  0
 27 49  1  0
 28 50  1  0
 28 51  1  0
 29 52  1  0
 29 53  1  0
 30 54  1  0
 30 55  1  0
 31 56  1  0
 31 57  1  0
M  END
>  <smiles>  (37) 
N[C@@H]1CCN(C(=O)CNC(=O)c2ccc3cc(Cl)ccc3n2)[C@H]1C(=O)NC1CCCC1

>  <score_type>  (37) 
oracle

>  <origin>  (37) 
autodockgpu

>  <m_score__min__energy>  (37) 
-9.25

>  <m_primary>  (37) 
energy

>  <rmsd>  (37) 
4.94519914642618

>  <m_score__min__rmsd>  (37) 
4.94519914642618

>  <meeko>  (37) 
{"free_energy": -7.53, "intermolecular_energy": -9.61, "internal_energy": -2.59, "cluster_size": 3, "cluster_id": 7, "rank_in_cluster": 1}

>  <energy>  (37) 
-7.63

>  <cluster_rmsd>  (37) 
0.84

>  <cluster>  (37) 
6

$$$$

     RDKit          3D

 57 60  0  0  0  0  0  0  0  0999 V2000
  143.8070   76.7160  219.7320 N   0  0  0  0  0  0  0  0  0  0  0  0
  142.8680   75.6360  219.5530 C   0  0  2  0  0  0  0  0  0  0  0  0
  142.6720   75.3470  218.0540 C   0  0  0  0  0  0  0  0  0  0  0  0
  141.1650   74.9780  217.9030 C   0  0  0  0  0  0  0  0  0  0  0  0
  140.7760   74.8160  219.3220 N   0  0  0  0  0  0  0  0  0  0  0  0
  139.9530   73.8440  219.9220 C   0  0  0  0  0  0  0  0  0  0  0  0
  140.0590   72.6630  219.4390 O   0  0  0  0  0  0  0  0  0  0  0  0
  138.9950   74.0100  221.0160 C   0  0  0  0  0  0  0  0  0  0  0  0
  139.3360   73.3380  222.2590 N   0  0  0  0  0  0  0  0  0  0  0  0
  138.9130   71.9310  222.2740 C   0  0  0  0  0  0  0  0  0  0  0  0
  138.3280   71.5530  221.2570 O   0  0  0  0  0  0  0  0  0  0  0  0
  139.2200   71.1400  223.4500 C   0  0  0  0  0  0  0  0  0  0  0  0
  138.9200   69.8170  223.4310 C   0  0  0  0  0  0  0  0  0  0  0  0
  139.2130   68.9690  224.4710 C   0  0  0  0  0  0  0  0  0  0  0  0
  139.8380   69.4880  225.5770 C   0  0  0  0  0  0  0  0  0  0  0  0
  140.1490   68.6550  226.6260 C   0  0  0  0  0  0  0  0  0  0  0  0
  140.7780   69.1860  227.7180 C   0  0  0  0  0  0  0  0  0  0  0  0
  141.1920   68.1690  229.0780 Cl  0  0  0  0  0  0  0  0  0  0  0  0
  141.0750   70.5280  227.7270 C   0  0  0  0  0  0  0  0  0  0  0  0
  140.7860   71.4020  226.7060 C   0  0  0  0  0  0  0  0  0  0  0  0
  140.1420   70.8440  225.5910 C   0  0  0  0  0  0  0  0  0  0  0  0
  139.8420   71.6650  224.5520 N   0  0  0  0  0  0  0  0  0  0  0  0
  141.4710   75.9600  219.9300 C   0  0  1  0  0  0  0  0  0  0  0  0
  141.1240   76.3680  221.2420 C   0  0  0  0  0  0  0  0  0  0  0  0
  140.9370   75.5110  222.1560 O   0  0  0  0  0  0  0  0  0  0  0  0
  140.9600   77.7300  221.6430 N   0  0  0  0  0  0  0  0  0  0  0  0
  140.5860   78.0660  223.0150 C   0  0  0  0  0  0  0  0  0  0  0  0
  141.7860   78.7290  223.7040 C   0  0  0  0  0  0  0  0  0  0  0  0
  141.4960   80.1850  223.5080 C   0  0  0  0  0  0  0  0  0  0  0  0
  139.9930   80.3110  223.6260 C   0  0  0  0  0  0  0  0  0  0  0  0
  139.4740   78.9940  223.1290 C   0  0  0  0  0  0  0  0  0  0  0  0
  144.2000   76.7780  220.6880 H   0  0  0  0  0  0  0  0  0  0  0  0
  143.3710   77.6120  219.3930 H   0  0  0  0  0  0  0  0  0  0  0  0
  143.2996   74.8320  220.1673 H   0  0  0  0  0  0  0  0  0  0  0  0
  142.9131   76.2373  217.4547 H   0  0  0  0  0  0  0  0  0  0  0  0
  143.3305   74.5396  217.7013 H   0  0  0  0  0  0  0  0  0  0  0  0
  140.5972   75.7852  217.4171 H   0  0  0  0  0  0  0  0  0  0  0  0
  140.9727   74.0961  217.2743 H   0  0  0  0  0  0  0  0  0  0  0  0
  138.9056   75.0859  221.2268 H   0  0  0  0  0  0  0  0  0  0  0  0
  138.0604   73.5445  220.6698 H   0  0  0  0  0  0  0  0  0  0  0  0
  139.8220   73.7670  223.0610 H   0  0  0  0  0  0  0  0  0  0  0  0
  138.4194   69.4048  222.5424 H   0  0  0  0  0  0  0  0  0  0  0  0
  138.9534   67.9014  224.4187 H   0  0  0  0  0  0  0  0  0  0  0  0
  139.8973   67.5849  226.5876 H   0  0  0  0  0  0  0  0  0  0  0  0
  141.5809   70.9322  228.6162 H   0  0  0  0  0  0  0  0  0  0  0  0
  141.0431   72.4702  226.7596 H   0  0  0  0  0  0  0  0  0  0  0  0
  141.1571   76.9507  219.5693 H   0  0  0  0  0  0  0  0  0  0  0  0
  141.0990   78.5250  220.9910 H   0  0  0  0  0  0  0  0  0  0  0  0
  140.2784   77.1173  223.4792 H   0  0  0  0  0  0  0  0  0  0  0  0
  141.8259   78.4702  224.7724 H   0  0  0  0  0  0  0  0  0  0  0  0
  142.7587   78.4132  223.2988 H   0  0  0  0  0  0  0  0  0  0  0  0
  141.9952   80.7852  224.2830 H   0  0  0  0  0  0  0  0  0  0  0  0
  141.8636   80.5498  222.5376 H   0  0  0  0  0  0  0  0  0  0  0  0
  139.6963   80.4778  224.6720 H   0  0  0  0  0  0  0  0  0  0  0  0
  139.5952   81.1634  223.0557 H   0  0  0  0  0  0  0  0  0  0  0  0
  138.7325   78.5973  223.8381 H   0  0  0  0  0  0  0  0  0  0  0  0
  138.9957   79.1269  222.1474 H   0  0  0  0  0  0  0  0  0  0  0  0
  1  2  1  0
  2  3  1  0
  3  4  1  0
  4  5  1  0
  5  6  1  0
  6  7  2  0
  6  8  1  0
  8  9  1  0
  9 10  1  0
 10 11  2  0
 10 12  1  0
 12 13  2  0
 13 14  1  0
 14 15  2  0
 15 16  1  0
 16 17  2  0
 17 18  1  0
 17 19  1  0
 19 20  2  0
 20 21  1  0
 21 22  2  0
  5 23  1  0
 23 24  1  0
 24 25  2  0
 24 26  1  0
 26 27  1  0
 27 28  1  0
 28 29  1  0
 29 30  1  0
 30 31  1  0
 23  2  1  0
 31 27  1  0
 22 12  1  0
 21 15  1  0
  1 32  1  0
  1 33  1  0
  2 34  1  1
  3 35  1  0
  3 36  1  0
  4 37  1  0
  4 38  1  0
  8 39  1  0
  8 40  1  0
  9 41  1  0
 13 42  1  0
 14 43  1  0
 16 44  1  0
 19 45  1  0
 20 46  1  0
 23 47  1  6
 26 48  1  0
 27 49  1  0
 28 50  1  0
 28 51  1  0
 29 52  1  0
 29 53  1  0
 30 54  1  0
 30 55  1  0
 31 56  1  0
 31 57  1  0
M  END
>  <smiles>  (38) 
N[C@@H]1CCN(C(=O)CNC(=O)c2ccc3cc(Cl)ccc3n2)[C@H]1C(=O)NC1CCCC1

>  <score_type>  (38) 
oracle

>  <origin>  (38) 
autodockgpu

>  <m_score__min__energy>  (38) 
-9.25

>  <m_primary>  (38) 
energy

>  <rmsd>  (38) 
2.3102174091044057

>  <m_score__min__rmsd>  (38) 
2.3102174091044057

>  <meeko>  (38) 
{"free_energy": -8.37, "intermolecular_energy": -10.46, "internal_energy": -2.01, "cluster_size": 17, "cluster_id": 1, "rank_in_cluster": 11}

>  <energy>  (38) 
-7.57

>  <cluster_rmsd>  (38) 
0.39

>  <cluster>  (38) 
6

$$$$

     RDKit          3D

 57 60  0  0  0  0  0  0  0  0999 V2000
  143.6850   76.7700  219.7800 N   0  0  0  0  0  0  0  0  0  0  0  0
  142.7720   75.6580  219.6850 C   0  0  2  0  0  0  0  0  0  0  0  0
  142.8930   74.9900  218.3030 C   0  0  0  0  0  0  0  0  0  0  0  0
  141.4430   74.5580  217.9310 C   0  0  0  0  0  0  0  0  0  0  0  0
  140.7530   74.7550  219.2250 N   0  0  0  0  0  0  0  0  0  0  0  0
  139.7890   73.9500  219.8620 C   0  0  0  0  0  0  0  0  0  0  0  0
  139.6320   72.7830  219.3590 O   0  0  0  0  0  0  0  0  0  0  0  0
  138.9460   74.2750  221.0140 C   0  0  0  0  0  0  0  0  0  0  0  0
  139.2620   73.5680  222.2440 N   0  0  0  0  0  0  0  0  0  0  0  0
  138.8540   72.1580  222.2050 C   0  0  0  0  0  0  0  0  0  0  0  0
  138.3000   71.8050  221.1620 O   0  0  0  0  0  0  0  0  0  0  0  0
  139.1390   71.3340  223.3650 C   0  0  0  0  0  0  0  0  0  0  0  0
  138.7020   70.0500  223.3640 C   0  0  0  0  0  0  0  0  0  0  0  0
  138.9590   69.1720  224.3880 C   0  0  0  0  0  0  0  0  0  0  0  0
  139.6920   69.6180  225.4580 C   0  0  0  0  0  0  0  0  0  0  0  0
  139.9690   68.7530  226.4900 C   0  0  0  0  0  0  0  0  0  0  0  0
  140.7070   69.2110  227.5460 C   0  0  0  0  0  0  0  0  0  0  0  0
  141.0840   68.1500  228.8850 Cl  0  0  0  0  0  0  0  0  0  0  0  0
  141.1430   70.5140  227.5380 C   0  0  0  0  0  0  0  0  0  0  0  0
  140.8940   71.4170  226.5330 C   0  0  0  0  0  0  0  0  0  0  0  0
  140.1370   70.9350  225.4540 C   0  0  0  0  0  0  0  0  0  0  0  0
  139.8690   71.7860  224.4310 N   0  0  0  0  0  0  0  0  0  0  0  0
  141.3380   76.0340  219.6570 C   0  0  1  0  0  0  0  0  0  0  0  0
  140.7310   76.7560  220.7140 C   0  0  0  0  0  0  0  0  0  0  0  0
  139.4700   76.7930  220.8290 O   0  0  0  0  0  0  0  0  0  0  0  0
  141.4540   77.4820  221.7100 N   0  0  0  0  0  0  0  0  0  0  0  0
  140.7500   78.2140  222.7600 C   0  0  0  0  0  0  0  0  0  0  0  0
  141.7560   78.5890  223.8580 C   0  0  0  0  0  0  0  0  0  0  0  0
  142.1470   79.9790  223.4640 C   0  0  0  0  0  0  0  0  0  0  0  0
  140.8850   80.6060  222.9120 C   0  0  0  0  0  0  0  0  0  0  0  0
  140.1290   79.4520  222.3230 C   0  0  0  0  0  0  0  0  0  0  0  0
  143.9430   77.0210  220.7510 H   0  0  0  0  0  0  0  0  0  0  0  0
  143.3070   77.5770  219.2190 H   0  0  0  0  0  0  0  0  0  0  0  0
  143.0353   75.0486  220.5621 H   0  0  0  0  0  0  0  0  0  0  0  0
  143.2852   75.7029  217.5628 H   0  0  0  0  0  0  0  0  0  0  0  0
  143.5859   74.1358  218.3180 H   0  0  0  0  0  0  0  0  0  0  0  0
  141.0189   75.1996  217.1445 H   0  0  0  0  0  0  0  0  0  0  0  0
  141.3623   73.5397  217.5228 H   0  0  0  0  0  0  0  0  0  0  0  0
  139.0415   75.3533  221.2096 H   0  0  0  0  0  0  0  0  0  0  0  0
  137.9282   73.9606  220.7397 H   0  0  0  0  0  0  0  0  0  0  0  0
  139.7220   73.9780  223.0710 H   0  0  0  0  0  0  0  0  0  0  0  0
  138.1150   69.6959  222.5037 H   0  0  0  0  0  0  0  0  0  0  0  0
  138.5866   68.1376  224.3511 H   0  0  0  0  0  0  0  0  0  0  0  0
  139.6049   67.7153  226.4667 H   0  0  0  0  0  0  0  0  0  0  0  0
  141.7344   70.8592  228.3988 H   0  0  0  0  0  0  0  0  0  0  0  0
  141.2644   72.4520  226.5716 H   0  0  0  0  0  0  0  0  0  0  0  0
  141.1406   76.8920  218.9975 H   0  0  0  0  0  0  0  0  0  0  0  0
  142.4910   77.5170  221.7340 H   0  0  0  0  0  0  0  0  0  0  0  0
  139.9497   77.5422  223.1037 H   0  0  0  0  0  0  0  0  0  0  0  0
  141.2860   78.5732  224.8524 H   0  0  0  0  0  0  0  0  0  0  0  0
  142.6061   77.8952  223.9349 H   0  0  0  0  0  0  0  0  0  0  0  0
  142.5060   80.5411  224.3387 H   0  0  0  0  0  0  0  0  0  0  0  0
  142.9636   79.9826  222.7271 H   0  0  0  0  0  0  0  0  0  0  0  0
  140.3039   81.0846  223.7141 H   0  0  0  0  0  0  0  0  0  0  0  0
  141.0939   81.3942  222.1736 H   0  0  0  0  0  0  0  0  0  0  0  0
  139.0837   79.4819  222.6644 H   0  0  0  0  0  0  0  0  0  0  0  0
  140.1494   79.5132  221.2249 H   0  0  0  0  0  0  0  0  0  0  0  0
  1  2  1  0
  2  3  1  0
  3  4  1  0
  4  5  1  0
  5  6  1  0
  6  7  2  0
  6  8  1  0
  8  9  1  0
  9 10  1  0
 10 11  2  0
 10 12  1  0
 12 13  2  0
 13 14  1  0
 14 15  2  0
 15 16  1  0
 16 17  2  0
 17 18  1  0
 17 19  1  0
 19 20  2  0
 20 21  1  0
 21 22  2  0
  5 23  1  0
 23 24  1  0
 24 25  2  0
 24 26  1  0
 26 27  1  0
 27 28  1  0
 28 29  1  0
 29 30  1  0
 30 31  1  0
 23  2  1  0
 31 27  1  0
 22 12  1  0
 21 15  1  0
  1 32  1  0
  1 33  1  0
  2 34  1  1
  3 35  1  0
  3 36  1  0
  4 37  1  0
  4 38  1  0
  8 39  1  0
  8 40  1  0
  9 41  1  0
 13 42  1  0
 14 43  1  0
 16 44  1  0
 19 45  1  0
 20 46  1  0
 23 47  1  6
 26 48  1  0
 27 49  1  0
 28 50  1  0
 28 51  1  0
 29 52  1  0
 29 53  1  0
 30 54  1  0
 30 55  1  0
 31 56  1  0
 31 57  1  0
M  END
>  <smiles>  (39) 
N[C@@H]1CCN(C(=O)CNC(=O)c2ccc3cc(Cl)ccc3n2)[C@H]1C(=O)NC1CCCC1

>  <score_type>  (39) 
oracle

>  <origin>  (39) 
autodockgpu

>  <m_score__min__energy>  (39) 
-9.25

>  <m_primary>  (39) 
energy

>  <rmsd>  (39) 
2.1826369963740286

>  <m_score__min__rmsd>  (39) 
2.1826369963740286

>  <meeko>  (39) 
{"free_energy": -8.57, "intermolecular_energy": -10.65, "internal_energy": -1.53, "cluster_size": 17, "cluster_id": 1, "rank_in_cluster": 6}

>  <energy>  (39) 
-7.54

>  <cluster_rmsd>  (39) 
1.36

>  <cluster>  (39) 
6

$$$$

     RDKit          3D

 57 60  0  0  0  0  0  0  0  0999 V2000
  142.1900   78.5250  221.0780 N   0  0  0  0  0  0  0  0  0  0  0  0
  141.0200   77.6940  220.9280 C   0  0  2  0  0  0  0  0  0  0  0  0
  139.9800   78.0440  222.0070 C   0  0  0  0  0  0  0  0  0  0  0  0
  139.3220   76.6850  222.3940 C   0  0  0  0  0  0  0  0  0  0  0  0
  139.8360   75.8100  221.3170 N   0  0  0  0  0  0  0  0  0  0  0  0
  139.1750   74.8100  220.5790 C   0  0  0  0  0  0  0  0  0  0  0  0
  139.6730   74.5620  219.4250 O   0  0  0  0  0  0  0  0  0  0  0  0
  137.9980   74.0260  220.9550 C   0  0  0  0  0  0  0  0  0  0  0  0
  138.1240   73.2480  222.1750 N   0  0  0  0  0  0  0  0  0  0  0  0
  139.1290   72.1830  222.0650 C   0  0  0  0  0  0  0  0  0  0  0  0
  139.6850   72.1050  220.9680 O   0  0  0  0  0  0  0  0  0  0  0  0
  139.3700   71.3500  223.2280 C   0  0  0  0  0  0  0  0  0  0  0  0
  139.0320   70.0380  223.1600 C   0  0  0  0  0  0  0  0  0  0  0  0
  139.2620   69.1520  224.1840 C   0  0  0  0  0  0  0  0  0  0  0  0
  139.8620   69.6210  225.3250 C   0  0  0  0  0  0  0  0  0  0  0  0
  140.1100   68.7490  226.3600 C   0  0  0  0  0  0  0  0  0  0  0  0
  140.7150   69.2290  227.4880 C   0  0  0  0  0  0  0  0  0  0  0  0
  141.0500   68.1620  228.8320 Cl  0  0  0  0  0  0  0  0  0  0  0  0
  141.0520   70.5600  227.5470 C   0  0  0  0  0  0  0  0  0  0  0  0
  140.8260   71.4710  226.5430 C   0  0  0  0  0  0  0  0  0  0  0  0
  140.2060   70.9660  225.3900 C   0  0  0  0  0  0  0  0  0  0  0  0
  139.9680   71.8240  224.3650 N   0  0  0  0  0  0  0  0  0  0  0  0
  141.2340   76.2610  221.2400 C   0  0  1  0  0  0  0  0  0  0  0  0
  142.1830   75.4740  220.5410 C   0  0  0  0  0  0  0  0  0  0  0  0
  143.2520   75.9930  220.1020 O   0  0  0  0  0  0  0  0  0  0  0  0
  142.0290   74.0790  220.2750 N   0  0  0  0  0  0  0  0  0  0  0  0
  143.0500   73.3420  219.5330 C   0  0  0  0  0  0  0  0  0  0  0  0
  144.1400   72.8870  220.5130 C   0  0  0  0  0  0  0  0  0  0  0  0
  143.7010   71.4960  220.8480 C   0  0  0  0  0  0  0  0  0  0  0  0
  143.1190   70.9430  219.5650 C   0  0  0  0  0  0  0  0  0  0  0  0
  142.5660   72.1470  218.8630 C   0  0  0  0  0  0  0  0  0  0  0  0
  142.2760   79.2630  220.3570 H   0  0  0  0  0  0  0  0  0  0  0  0
  143.0410   77.9120  221.1620 H   0  0  0  0  0  0  0  0  0  0  0  0
  140.7316   77.8627  219.8800 H   0  0  0  0  0  0  0  0  0  0  0  0
  140.4688   78.4990  222.8811 H   0  0  0  0  0  0  0  0  0  0  0  0
  139.2392   78.7717  221.6442 H   0  0  0  0  0  0  0  0  0  0  0  0
  139.6530   76.3431  223.3857 H   0  0  0  0  0  0  0  0  0  0  0  0
  138.2251   76.7160  222.4704 H   0  0  0  0  0  0  0  0  0  0  0  0
  137.1553   74.7213  221.0829 H   0  0  0  0  0  0  0  0  0  0  0  0
  137.8534   73.2947  220.1461 H   0  0  0  0  0  0  0  0  0  0  0  0
  137.5850   73.3990  223.0430 H   0  0  0  0  0  0  0  0  0  0  0  0
  138.5517   69.6667  222.2427 H   0  0  0  0  0  0  0  0  0  0  0  0
  138.9728   68.0947  224.0917 H   0  0  0  0  0  0  0  0  0  0  0  0
  139.8276   67.6888  226.2815 H   0  0  0  0  0  0  0  0  0  0  0  0
  141.5381   70.9227  228.4647 H   0  0  0  0  0  0  0  0  0  0  0  0
  141.1129   72.5287  226.6373 H   0  0  0  0  0  0  0  0  0  0  0  0
  141.8298   76.1139  222.1529 H   0  0  0  0  0  0  0  0  0  0  0  0
  141.2050   73.5360  220.5950 H   0  0  0  0  0  0  0  0  0  0  0  0
  143.4127   74.0355  218.7600 H   0  0  0  0  0  0  0  0  0  0  0  0
  145.1313   72.8887  220.0363 H   0  0  0  0  0  0  0  0  0  0  0  0
  144.2460   73.5408  221.3912 H   0  0  0  0  0  0  0  0  0  0  0  0
  144.5582   70.8894  221.1755 H   0  0  0  0  0  0  0  0  0  0  0  0
  142.9701   71.4826  221.6700 H   0  0  0  0  0  0  0  0  0  0  0  0
  143.9000   70.4619  218.9579 H   0  0  0  0  0  0  0  0  0  0  0  0
  142.3546   70.1731  219.7466 H   0  0  0  0  0  0  0  0  0  0  0  0
  142.8997   72.1498  217.8149 H   0  0  0  0  0  0  0  0  0  0  0  0
  141.4666   72.1230  218.8888 H   0  0  0  0  0  0  0  0  0  0  0  0
  1  2  1  0
  2  3  1  0
  3  4  1  0
  4  5  1  0
  5  6  1  0
  6  7  2  0
  6  8  1  0
  8  9  1  0
  9 10  1  0
 10 11  2  0
 10 12  1  0
 12 13  2  0
 13 14  1  0
 14 15  2  0
 15 16  1  0
 16 17  2  0
 17 18  1  0
 17 19  1  0
 19 20  2  0
 20 21  1  0
 21 22  2  0
  5 23  1  0
 23 24  1  0
 24 25  2  0
 24 26  1  0
 26 27  1  0
 27 28  1  0
 28 29  1  0
 29 30  1  0
 30 31  1  0
 23  2  1  0
 31 27  1  0
 22 12  1  0
 21 15  1  0
  1 32  1  0
  1 33  1  0
  2 34  1  6
  3 35  1  0
  3 36  1  0
  4 37  1  0
  4 38  1  0
  8 39  1  0
  8 40  1  0
  9 41  1  0
 13 42  1  0
 14 43  1  0
 16 44  1  0
 19 45  1  0
 20 46  1  0
 23 47  1  1
 26 48  1  0
 27 49  1  0
 28 50  1  0
 28 51  1  0
 29 52  1  0
 29 53  1  0
 30 54  1  0
 30 55  1  0
 31 56  1  0
 31 57  1  0
M  END
>  <smiles>  (40) 
N[C@@H]1CCN(C(=O)CNC(=O)c2ccc3cc(Cl)ccc3n2)[C@H]1C(=O)NC1CCCC1

>  <score_type>  (40) 
oracle

>  <origin>  (40) 
autodockgpu

>  <m_score__min__energy>  (40) 
-9.25

>  <m_primary>  (40) 
energy

>  <rmsd>  (40) 
4.983138594873147

>  <m_score__min__rmsd>  (40) 
4.983138594873147

>  <meeko>  (40) 
{"free_energy": -7.3, "intermolecular_energy": -9.39, "internal_energy": -3.68, "cluster_size": 13, "cluster_id": 2, "rank_in_cluster": 8}

>  <energy>  (40) 
-6.48

>  <cluster_rmsd>  (40) 
1.54

>  <cluster>  (40) 
6

$$$$

     RDKit          3D

 57 60  0  0  0  0  0  0  0  0999 V2000
  143.9970   76.4890  219.5750 N   0  0  0  0  0  0  0  0  0  0  0  0
  142.9610   75.6360  220.1030 C   0  0  2  0  0  0  0  0  0  0  0  0
  142.8000   74.3880  219.2160 C   0  0  0  0  0  0  0  0  0  0  0  0
  141.2710   74.0850  219.2130 C   0  0  0  0  0  0  0  0  0  0  0  0
  140.8080   74.9810  220.2960 N   0  0  0  0  0  0  0  0  0  0  0  0
  139.8660   74.7460  221.3150 C   0  0  0  0  0  0  0  0  0  0  0  0
  140.2770   74.0150  222.2830 O   0  0  0  0  0  0  0  0  0  0  0  0
  138.4850   75.2220  221.4080 C   0  0  0  0  0  0  0  0  0  0  0  0
  138.2970   76.4710  222.1270 N   0  0  0  0  0  0  0  0  0  0  0  0
  136.8800   76.8150  222.3010 C   0  0  0  0  0  0  0  0  0  0  0  0
  136.0850   76.0150  221.8020 O   0  0  0  0  0  0  0  0  0  0  0  0
  136.5570   78.0280  223.0280 C   0  0  0  0  0  0  0  0  0  0  0  0
  135.2620   78.2480  223.3690 C   0  0  0  0  0  0  0  0  0  0  0  0
  134.8560   79.3380  224.0980 C   0  0  0  0  0  0  0  0  0  0  0  0
  135.8070   80.2430  224.4990 C   0  0  0  0  0  0  0  0  0  0  0  0
  135.4230   81.3370  225.2390 C   0  0  0  0  0  0  0  0  0  0  0  0
  136.3830   82.2260  225.6370 C   0  0  0  0  0  0  0  0  0  0  0  0
  135.9470   83.6340  226.5760 Cl  0  0  0  0  0  0  0  0  0  0  0  0
  137.6910   81.9940  225.2840 C   0  0  0  0  0  0  0  0  0  0  0  0
  138.1260   80.9180  224.5470 C   0  0  0  0  0  0  0  0  0  0  0  0
  137.1310   80.0130  224.1460 C   0  0  0  0  0  0  0  0  0  0  0  0
  137.5100   78.9280  223.4230 N   0  0  0  0  0  0  0  0  0  0  0  0
  141.5910   76.1920  220.0050 C   0  0  1  0  0  0  0  0  0  0  0  0
  141.2330   77.4170  220.6200 C   0  0  0  0  0  0  0  0  0  0  0  0
  140.0200   77.7780  220.6810 O   0  0  0  0  0  0  0  0  0  0  0  0
  142.1670   78.3250  221.2070 N   0  0  0  0  0  0  0  0  0  0  0  0
  141.7160   79.5770  221.8090 C   0  0  0  0  0  0  0  0  0  0  0  0
  140.7680   79.2520  222.9720 C   0  0  0  0  0  0  0  0  0  0  0  0
  141.6940   79.2810  224.1490 C   0  0  0  0  0  0  0  0  0  0  0  0
  142.6790   80.3900  223.8530 C   0  0  0  0  0  0  0  0  0  0  0  0
  142.7790   80.4030  222.3560 C   0  0  0  0  0  0  0  0  0  0  0  0
  143.7240   77.4840  219.4970 H   0  0  0  0  0  0  0  0  0  0  0  0
  144.3610   76.0770  218.6770 H   0  0  0  0  0  0  0  0  0  0  0  0
  143.2815   75.4750  221.1429 H   0  0  0  0  0  0  0  0  0  0  0  0
  143.1551   74.5917  218.1950 H   0  0  0  0  0  0  0  0  0  0  0  0
  143.3875   73.5373  219.5917 H   0  0  0  0  0  0  0  0  0  0  0  0
  140.8091   74.3434  218.2487 H   0  0  0  0  0  0  0  0  0  0  0  0
  141.0168   73.0248  219.3594 H   0  0  0  0  0  0  0  0  0  0  0  0
  138.1054   75.3603  220.3849 H   0  0  0  0  0  0  0  0  0  0  0  0
  137.9425   74.4587  221.9851 H   0  0  0  0  0  0  0  0  0  0  0  0
  139.0500   77.0750  222.4900 H   0  0  0  0  0  0  0  0  0  0  0  0
  134.5032   77.5198  223.0466 H   0  0  0  0  0  0  0  0  0  0  0  0
  133.7961   79.4825  224.3542 H   0  0  0  0  0  0  0  0  0  0  0  0
  134.3671   81.4934  225.5048 H   0  0  0  0  0  0  0  0  0  0  0  0
  138.4452   82.7229  225.6156 H   0  0  0  0  0  0  0  0  0  0  0  0
  139.1856   80.7756  224.2883 H   0  0  0  0  0  0  0  0  0  0  0  0
  141.3956   76.6589  219.0284 H   0  0  0  0  0  0  0  0  0  0  0  0
  143.1870   78.1370  221.2340 H   0  0  0  0  0  0  0  0  0  0  0  0
  141.2389   80.1417  220.9945 H   0  0  0  0  0  0  0  0  0  0  0  0
  139.9776   80.0111  223.0670 H   0  0  0  0  0  0  0  0  0  0  0  0
  140.2326   78.2984  222.8534 H   0  0  0  0  0  0  0  0  0  0  0  0
  141.1369   79.4966  225.0726 H   0  0  0  0  0  0  0  0  0  0  0  0
  142.1970   78.3144  224.2997 H   0  0  0  0  0  0  0  0  0  0  0  0
  142.3050   81.3543  224.2275 H   0  0  0  0  0  0  0  0  0  0  0  0
  143.6527   80.2298  224.3391 H   0  0  0  0  0  0  0  0  0  0  0  0
  142.6732   81.4339  221.9873 H   0  0  0  0  0  0  0  0  0  0  0  0
  143.7573   80.0091  222.0431 H   0  0  0  0  0  0  0  0  0  0  0  0
  1  2  1  0
  2  3  1  0
  3  4  1  0
  4  5  1  0
  5  6  1  0
  6  7  2  0
  6  8  1  0
  8  9  1  0
  9 10  1  0
 10 11  2  0
 10 12  1  0
 12 13  2  0
 13 14  1  0
 14 15  2  0
 15 16  1  0
 16 17  2  0
 17 18  1  0
 17 19  1  0
 19 20  2  0
 20 21  1  0
 21 22  2  0
  5 23  1  0
 23 24  1  0
 24 25  2  0
 24 26  1  0
 26 27  1  0
 27 28  1  0
 28 29  1  0
 29 30  1  0
 30 31  1  0
 23  2  1  0
 31 27  1  0
 22 12  1  0
 21 15  1  0
  1 32  1  0
  1 33  1  0
  2 34  1  1
  3 35  1  0
  3 36  1  0
  4 37  1  0
  4 38  1  0
  8 39  1  0
  8 40  1  0
  9 41  1  0
 13 42  1  0
 14 43  1  0
 16 44  1  0
 19 45  1  0
 20 46  1  0
 23 47  1  6
 26 48  1  0
 27 49  1  0
 28 50  1  0
 28 51  1  0
 29 52  1  0
 29 53  1  0
 30 54  1  0
 30 55  1  0
 31 56  1  0
 31 57  1  0
M  END
>  <smiles>  (41) 
N[C@@H]1CCN(C(=O)CNC(=O)c2ccc3cc(Cl)ccc3n2)[C@H]1C(=O)NC1CCCC1

>  <score_type>  (41) 
oracle

>  <origin>  (41) 
autodockgpu

>  <m_score__min__energy>  (41) 
-9.25

>  <m_primary>  (41) 
energy

>  <rmsd>  (41) 
6.87835891452043

>  <m_score__min__rmsd>  (41) 
6.87835891452043

>  <meeko>  (41) 
{"free_energy": -6.88, "intermolecular_energy": -8.97, "internal_energy": -3.15, "cluster_size": 1, "cluster_id": 8, "rank_in_cluster": 1}

>  <energy>  (41) 
-7.53

>  <cluster_rmsd>  (41) 
0.0

>  <cluster>  (41) 
7

$$$$

     RDKit          3D

 57 60  0  0  0  0  0  0  0  0999 V2000
  142.1920   78.8050  221.8340 N   0  0  0  0  0  0  0  0  0  0  0  0
  140.9380   78.1680  221.5140 C   0  0  2  0  0  0  0  0  0  0  0  0
  139.9240   78.3910  222.6500 C   0  0  0  0  0  0  0  0  0  0  0  0
  139.1080   77.0660  222.7350 C   0  0  0  0  0  0  0  0  0  0  0  0
  139.5400   76.3940  221.4900 N   0  0  0  0  0  0  0  0  0  0  0  0
  138.7830   75.6620  220.5550 C   0  0  0  0  0  0  0  0  0  0  0  0
  138.1130   76.3660  219.7220 O   0  0  0  0  0  0  0  0  0  0  0  0
  138.6610   74.2100  220.4170 C   0  0  0  0  0  0  0  0  0  0  0  0
  138.6100   73.4620  221.6620 N   0  0  0  0  0  0  0  0  0  0  0  0
  139.6210   72.3990  221.7240 C   0  0  0  0  0  0  0  0  0  0  0  0
  140.3300   72.2960  220.7210 O   0  0  0  0  0  0  0  0  0  0  0  0
  139.6920   71.5950  222.9300 C   0  0  0  0  0  0  0  0  0  0  0  0
  139.1740   70.3410  222.8980 C   0  0  0  0  0  0  0  0  0  0  0  0
  139.2320   69.4810  223.9670 C   0  0  0  0  0  0  0  0  0  0  0  0
  139.8440   69.9130  225.1160 C   0  0  0  0  0  0  0  0  0  0  0  0
  139.9220   69.0650  226.1960 C   0  0  0  0  0  0  0  0  0  0  0  0
  140.5410   69.5080  227.3310 C   0  0  0  0  0  0  0  0  0  0  0  0
  140.6640   68.4680  228.7320 Cl  0  0  0  0  0  0  0  0  0  0  0  0
  141.0610   70.7800  227.3530 C   0  0  0  0  0  0  0  0  0  0  0  0
  141.0090   71.6650  226.3030 C   0  0  0  0  0  0  0  0  0  0  0  0
  140.3720   71.1990  225.1440 C   0  0  0  0  0  0  0  0  0  0  0  0
  140.3020   72.0330  224.0740 N   0  0  0  0  0  0  0  0  0  0  0  0
  140.9810   76.6860  221.5040 C   0  0  1  0  0  0  0  0  0  0  0  0
  141.8470   75.9660  220.6430 C   0  0  0  0  0  0  0  0  0  0  0  0
  142.5160   76.5680  219.7520 O   0  0  0  0  0  0  0  0  0  0  0  0
  142.0390   74.5520  220.6970 N   0  0  0  0  0  0  0  0  0  0  0  0
  142.9410   73.8840  219.7620 C   0  0  0  0  0  0  0  0  0  0  0  0
  144.3630   74.4180  219.9800 C   0  0  0  0  0  0  0  0  0  0  0  0
  144.9400   73.4000  220.9140 C   0  0  0  0  0  0  0  0  0  0  0  0
  144.3530   72.0770  220.4730 C   0  0  0  0  0  0  0  0  0  0  0  0
  143.0090   72.4400  219.9140 C   0  0  0  0  0  0  0  0  0  0  0  0
  142.8650   78.8280  221.0480 H   0  0  0  0  0  0  0  0  0  0  0  0
  142.5800   78.3800  222.7150 H   0  0  0  0  0  0  0  0  0  0  0  0
  140.6909   78.5942  220.5305 H   0  0  0  0  0  0  0  0  0  0  0  0
  140.4447   78.5850  223.5993 H   0  0  0  0  0  0  0  0  0  0  0  0
  139.2777   79.2605  222.4595 H   0  0  0  0  0  0  0  0  0  0  0  0
  139.3786   76.4804  223.6260 H   0  0  0  0  0  0  0  0  0  0  0  0
  138.0205   77.2058  222.8233 H   0  0  0  0  0  0  0  0  0  0  0  0
  137.7372   73.9998  219.8581 H   0  0  0  0  0  0  0  0  0  0  0  0
  139.5765   73.8789  219.9049 H   0  0  0  0  0  0  0  0  0  0  0  0
  137.9520   73.6310  222.4380 H   0  0  0  0  0  0  0  0  0  0  0  0
  138.6856   69.9980  221.9740 H   0  0  0  0  0  0  0  0  0  0  0  0
  138.7989   68.4719  223.9035 H   0  0  0  0  0  0  0  0  0  0  0  0
  139.4954   68.0523  226.1473 H   0  0  0  0  0  0  0  0  0  0  0  0
  141.5544   71.1137  228.2778 H   0  0  0  0  0  0  0  0  0  0  0  0
  141.4398   72.6751  226.3676 H   0  0  0  0  0  0  0  0  0  0  0  0
  141.5387   76.2755  222.3586 H   0  0  0  0  0  0  0  0  0  0  0  0
  141.5590   73.9480  221.3910 H   0  0  0  0  0  0  0  0  0  0  0  0
  142.5389   74.0965  218.7604 H   0  0  0  0  0  0  0  0  0  0  0  0
  144.9244   74.4564  219.0348 H   0  0  0  0  0  0  0  0  0  0  0  0
  144.3950   75.4458  220.3707 H   0  0  0  0  0  0  0  0  0  0  0  0
  146.0369   73.3810  220.8336 H   0  0  0  0  0  0  0  0  0  0  0  0
  144.7022   73.6250  221.9642 H   0  0  0  0  0  0  0  0  0  0  0  0
  144.9826   71.6082  219.7024 H   0  0  0  0  0  0  0  0  0  0  0  0
  144.2852   71.3504  221.2961 H   0  0  0  0  0  0  0  0  0  0  0  0
  142.8732   71.9581  218.9346 H   0  0  0  0  0  0  0  0  0  0  0  0
  142.2155   72.0974  220.5945 H   0  0  0  0  0  0  0  0  0  0  0  0
  1  2  1  0
  2  3  1  0
  3  4  1  0
  4  5  1  0
  5  6  1  0
  6  7  2  0
  6  8  1  0
  8  9  1  0
  9 10  1  0
 10 11  2  0
 10 12  1  0
 12 13  2  0
 13 14  1  0
 14 15  2  0
 15 16  1  0
 16 17  2  0
 17 18  1  0
 17 19  1  0
 19 20  2  0
 20 21  1  0
 21 22  2  0
  5 23  1  0
 23 24  1  0
 24 25  2  0
 24 26  1  0
 26 27  1  0
 27 28  1  0
 28 29  1  0
 29 30  1  0
 30 31  1  0
 23  2  1  0
 31 27  1  0
 22 12  1  0
 21 15  1  0
  1 32  1  0
  1 33  1  0
  2 34  1  6
  3 35  1  0
  3 36  1  0
  4 37  1  0
  4 38  1  0
  8 39  1  0
  8 40  1  0
  9 41  1  0
 13 42  1  0
 14 43  1  0
 16 44  1  0
 19 45  1  0
 20 46  1  0
 23 47  1  1
 26 48  1  0
 27 49  1  0
 28 50  1  0
 28 51  1  0
 29 52  1  0
 29 53  1  0
 30 54  1  0
 30 55  1  0
 31 56  1  0
 31 57  1  0
M  END
>  <smiles>  (42) 
N[C@@H]1CCN(C(=O)CNC(=O)c2ccc3cc(Cl)ccc3n2)[C@H]1C(=O)NC1CCCC1

>  <score_type>  (42) 
oracle

>  <origin>  (42) 
autodockgpu

>  <m_score__min__energy>  (42) 
-9.25

>  <m_primary>  (42) 
energy

>  <rmsd>  (42) 
4.728291263668377

>  <m_score__min__rmsd>  (42) 
4.728291263668377

>  <meeko>  (42) 
{"free_energy": -8.01, "intermolecular_energy": -10.1, "internal_energy": -2.73, "cluster_size": 13, "cluster_id": 2, "rank_in_cluster": 2}

>  <energy>  (42) 
-7.36

>  <cluster_rmsd>  (42) 
1.39

>  <cluster>  (42) 
7

$$$$

     RDKit          3D

 57 60  0  0  0  0  0  0  0  0999 V2000
  143.2180   78.9840  218.2530 N   0  0  0  0  0  0  0  0  0  0  0  0
  142.6340   77.7410  218.6910 C   0  0  2  0  0  0  0  0  0  0  0  0
  142.1310   76.9360  217.4780 C   0  0  0  0  0  0  0  0  0  0  0  0
  140.8230   76.2420  217.9640 C   0  0  0  0  0  0  0  0  0  0  0  0
  140.9030   76.4860  219.4210 N   0  0  0  0  0  0  0  0  0  0  0  0
  140.6060   75.6250  220.4940 C   0  0  0  0  0  0  0  0  0  0  0  0
  141.5240   75.5160  221.3800 O   0  0  0  0  0  0  0  0  0  0  0  0
  139.3920   74.8390  220.7250 C   0  0  0  0  0  0  0  0  0  0  0  0
  139.3570   74.0830  221.9650 N   0  0  0  0  0  0  0  0  0  0  0  0
  139.8400   72.7060  221.8010 C   0  0  0  0  0  0  0  0  0  0  0  0
  140.1750   72.4050  220.6530 O   0  0  0  0  0  0  0  0  0  0  0  0
  139.8810   71.8540  222.9750 C   0  0  0  0  0  0  0  0  0  0  0  0
  139.4070   70.5880  222.8660 C   0  0  0  0  0  0  0  0  0  0  0  0
  139.4450   69.6840  223.9000 C   0  0  0  0  0  0  0  0  0  0  0  0
  139.9870   70.0860  225.0940 C   0  0  0  0  0  0  0  0  0  0  0  0
  140.0430   69.1940  226.1400 C   0  0  0  0  0  0  0  0  0  0  0  0
  140.5930   69.6070  227.3220 C   0  0  0  0  0  0  0  0  0  0  0  0
  140.6850   68.5120  228.6820 Cl  0  0  0  0  0  0  0  0  0  0  0  0
  141.0680   70.8930  227.4210 C   0  0  0  0  0  0  0  0  0  0  0  0
  141.0360   71.8210  226.4080 C   0  0  0  0  0  0  0  0  0  0  0  0
  140.4710   71.3840  225.2000 C   0  0  0  0  0  0  0  0  0  0  0  0
  140.4230   72.2610  224.1650 N   0  0  0  0  0  0  0  0  0  0  0  0
  141.3640   77.8820  219.4410 C   0  0  1  0  0  0  0  0  0  0  0  0
  141.2830   78.6250  220.6450 C   0  0  0  0  0  0  0  0  0  0  0  0
  141.7560   79.7990  220.7120 O   0  0  0  0  0  0  0  0  0  0  0  0
  140.6860   78.1420  221.8490 N   0  0  0  0  0  0  0  0  0  0  0  0
  140.6560   78.9670  223.0540 C   0  0  0  0  0  0  0  0  0  0  0  0
  142.0240   78.8800  223.7450 C   0  0  0  0  0  0  0  0  0  0  0  0
  142.7250   80.0880  223.2070 C   0  0  0  0  0  0  0  0  0  0  0  0
  141.6550   81.1510  223.0890 C   0  0  0  0  0  0  0  0  0  0  0  0
  140.3990   80.3770  222.8160 C   0  0  0  0  0  0  0  0  0  0  0  0
  142.7920   79.8240  218.6830 H   0  0  0  0  0  0  0  0  0  0  0  0
  143.2340   79.0070  217.2010 H   0  0  0  0  0  0  0  0  0  0  0  0
  143.4370   77.2926  219.2945 H   0  0  0  0  0  0  0  0  0  0  0  0
  141.9209   77.6054  216.6308 H   0  0  0  0  0  0  0  0  0  0  0  0
  142.8780   76.2080  217.1286 H   0  0  0  0  0  0  0  0  0  0  0  0
  139.9296   76.7091  217.5240 H   0  0  0  0  0  0  0  0  0  0  0  0
  140.7398   75.1814  217.6843 H   0  0  0  0  0  0  0  0  0  0  0  0
  138.5368   75.5308  220.7268 H   0  0  0  0  0  0  0  0  0  0  0  0
  139.3603   74.0923  219.9178 H   0  0  0  0  0  0  0  0  0  0  0  0
  139.0380   74.4410  222.8780 H   0  0  0  0  0  0  0  0  0  0  0  0
  138.9725   70.2706  221.9066 H   0  0  0  0  0  0  0  0  0  0  0  0
  139.0511   68.6648  223.7735 H   0  0  0  0  0  0  0  0  0  0  0  0
  139.6540   68.1712  226.0280 H   0  0  0  0  0  0  0  0  0  0  0  0
  141.5059   71.2020  228.3816 H   0  0  0  0  0  0  0  0  0  0  0  0
  141.4280   72.8408  226.5358 H   0  0  0  0  0  0  0  0  0  0  0  0
  140.6823   78.6112  218.9788 H   0  0  0  0  0  0  0  0  0  0  0  0
  140.2510   77.2020  221.9190 H   0  0  0  0  0  0  0  0  0  0  0  0
  139.8275   78.5735  223.6613 H   0  0  0  0  0  0  0  0  0  0  0  0
  141.9226   78.9315  224.8391 H   0  0  0  0  0  0  0  0  0  0  0  0
  142.5572   77.9371  223.5534 H   0  0  0  0  0  0  0  0  0  0  0  0
  143.5169   80.4134  223.8976 H   0  0  0  0  0  0  0  0  0  0  0  0
  143.2094   79.8846  222.2405 H   0  0  0  0  0  0  0  0  0  0  0  0
  141.5664   81.7215  224.0253 H   0  0  0  0  0  0  0  0  0  0  0  0
  141.8764   81.8876  222.3026 H   0  0  0  0  0  0  0  0  0  0  0  0
  139.5979   80.7247  223.4848 H   0  0  0  0  0  0  0  0  0  0  0  0
  140.0863   80.5286  221.7723 H   0  0  0  0  0  0  0  0  0  0  0  0
  1  2  1  0
  2  3  1  0
  3  4  1  0
  4  5  1  0
  5  6  1  0
  6  7  2  0
  6  8  1  0
  8  9  1  0
  9 10  1  0
 10 11  2  0
 10 12  1  0
 12 13  2  0
 13 14  1  0
 14 15  2  0
 15 16  1  0
 16 17  2  0
 17 18  1  0
 17 19  1  0
 19 20  2  0
 20 21  1  0
 21 22  2  0
  5 23  1  0
 23 24  1  0
 24 25  2  0
 24 26  1  0
 26 27  1  0
 27 28  1  0
 28 29  1  0
 29 30  1  0
 30 31  1  0
 23  2  1  0
 31 27  1  0
 22 12  1  0
 21 15  1  0
  1 32  1  0
  1 33  1  0
  2 34  1  1
  3 35  1  0
  3 36  1  0
  4 37  1  0
  4 38  1  0
  8 39  1  0
  8 40  1  0
  9 41  1  0
 13 42  1  0
 14 43  1  0
 16 44  1  0
 19 45  1  0
 20 46  1  0
 23 47  1  6
 26 48  1  0
 27 49  1  0
 28 50  1  0
 28 51  1  0
 29 52  1  0
 29 53  1  0
 30 54  1  0
 30 55  1  0
 31 56  1  0
 31 57  1  0
M  END
>  <smiles>  (43) 
N[C@@H]1CCN(C(=O)CNC(=O)c2ccc3cc(Cl)ccc3n2)[C@H]1C(=O)NC1CCCC1

>  <score_type>  (43) 
oracle

>  <origin>  (43) 
autodockgpu

>  <m_score__min__energy>  (43) 
-9.25

>  <m_primary>  (43) 
energy

>  <rmsd>  (43) 
2.2061557943133345

>  <m_score__min__rmsd>  (43) 
2.2061557943133345

>  <meeko>  (43) 
{"free_energy": -8.45, "intermolecular_energy": -10.54, "internal_energy": -2.04, "cluster_size": 17, "cluster_id": 1, "rank_in_cluster": 9}

>  <energy>  (43) 
-6.75

>  <cluster_rmsd>  (43) 
1.7

>  <cluster>  (43) 
7

$$$$

     RDKit          3D

 57 60  0  0  0  0  0  0  0  0999 V2000
  146.2780   72.5630  219.9890 N   0  0  0  0  0  0  0  0  0  0  0  0
  144.9870   73.1100  219.6560 C   0  0  2  0  0  0  0  0  0  0  0  0
  144.7930   74.4720  220.3480 C   0  0  0  0  0  0  0  0  0  0  0  0
  143.2860   74.5180  220.7430 C   0  0  0  0  0  0  0  0  0  0  0  0
  142.7660   73.3560  219.9890 N   0  0  0  0  0  0  0  0  0  0  0  0
  141.5700   73.2210  219.2590 C   0  0  0  0  0  0  0  0  0  0  0  0
  141.6470   73.5340  218.0200 O   0  0  0  0  0  0  0  0  0  0  0  0
  140.2580   72.7760  219.7310 C   0  0  0  0  0  0  0  0  0  0  0  0
  140.2740   71.8080  220.8150 N   0  0  0  0  0  0  0  0  0  0  0  0
  140.1320   72.4350  222.1350 C   0  0  0  0  0  0  0  0  0  0  0  0
  140.0430   73.6650  222.1200 O   0  0  0  0  0  0  0  0  0  0  0  0
  140.1060   71.5720  223.3010 C   0  0  0  0  0  0  0  0  0  0  0  0
  139.6090   70.3180  223.1600 C   0  0  0  0  0  0  0  0  0  0  0  0
  139.5830   69.4050  224.1860 C   0  0  0  0  0  0  0  0  0  0  0  0
  140.0850   69.7830  225.4050 C   0  0  0  0  0  0  0  0  0  0  0  0
  140.0780   68.8810  226.4440 C   0  0  0  0  0  0  0  0  0  0  0  0
  140.5890   69.2700  227.6510 C   0  0  0  0  0  0  0  0  0  0  0  0
  140.6000   68.1620  229.0030 Cl  0  0  0  0  0  0  0  0  0  0  0  0
  141.0880   70.5440  227.7820 C   0  0  0  0  0  0  0  0  0  0  0  0
  141.1190   71.4810  226.7770 C   0  0  0  0  0  0  0  0  0  0  0  0
  140.5930   71.0690  225.5440 C   0  0  0  0  0  0  0  0  0  0  0  0
  140.6080   71.9560  224.5160 N   0  0  0  0  0  0  0  0  0  0  0  0
  143.8340   72.3730  220.2260 C   0  0  1  0  0  0  0  0  0  0  0  0
  143.6000   71.0060  219.9350 C   0  0  0  0  0  0  0  0  0  0  0  0
  142.4550   70.4950  220.1150 O   0  0  0  0  0  0  0  0  0  0  0  0
  144.5930   70.1100  219.4330 N   0  0  0  0  0  0  0  0  0  0  0  0
  144.2730   68.7090  219.1730 C   0  0  0  0  0  0  0  0  0  0  0  0
  144.6490   68.3780  217.7220 C   0  0  0  0  0  0  0  0  0  0  0  0
  146.0220   67.8020  217.8760 C   0  0  0  0  0  0  0  0  0  0  0  0
  145.9830   67.0230  219.1730 C   0  0  0  0  0  0  0  0  0  0  0  0
  144.9830   67.7590  220.0140 C   0  0  0  0  0  0  0  0  0  0  0  0
  146.2620   71.9040  220.7870 H   0  0  0  0  0  0  0  0  0  0  0  0
  146.9690   73.3490  220.1010 H   0  0  0  0  0  0  0  0  0  0  0  0
  144.9952   73.1021  218.5561 H   0  0  0  0  0  0  0  0  0  0  0  0
  145.4288   74.5442  221.2428 H   0  0  0  0  0  0  0  0  0  0  0  0
  145.0722   75.3100  219.6924 H   0  0  0  0  0  0  0  0  0  0  0  0
  143.1476   74.3920  221.8270 H   0  0  0  0  0  0  0  0  0  0  0  0
  142.7844   75.4701  220.5152 H   0  0  0  0  0  0  0  0  0  0  0  0
  139.7048   73.6617  220.0768 H   0  0  0  0  0  0  0  0  0  0  0  0
  139.7900   72.2633  218.8777 H   0  0  0  0  0  0  0  0  0  0  0  0
  140.3700   70.7860  220.7070 H   0  0  0  0  0  0  0  0  0  0  0  0
  139.2088   70.0186  222.1801 H   0  0  0  0  0  0  0  0  0  0  0  0
  139.1702   68.3968  224.0338 H   0  0  0  0  0  0  0  0  0  0  0  0
  139.6701   67.8687  226.3065 H   0  0  0  0  0  0  0  0  0  0  0  0
  141.4921   70.8349  228.7629 H   0  0  0  0  0  0  0  0  0  0  0  0
  141.5302   72.4897  226.9300 H   0  0  0  0  0  0  0  0  0  0  0  0
  143.9929   72.0917  221.2775 H   0  0  0  0  0  0  0  0  0  0  0  0
  145.5660   70.4100  219.2310 H   0  0  0  0  0  0  0  0  0  0  0  0
  143.1986   68.6072  219.3860 H   0  0  0  0  0  0  0  0  0  0  0  0
  143.9547   67.6438  217.2874 H   0  0  0  0  0  0  0  0  0  0  0  0
  144.6064   69.2445  217.0457 H   0  0  0  0  0  0  0  0  0  0  0  0
  146.2575   67.1358  217.0330 H   0  0  0  0  0  0  0  0  0  0  0  0
  146.7962   68.5833  217.8891 H   0  0  0  0  0  0  0  0  0  0  0  0
  145.6573   65.9873  218.9964 H   0  0  0  0  0  0  0  0  0  0  0  0
  146.9700   66.9557  219.6540 H   0  0  0  0  0  0  0  0  0  0  0  0
  144.2688   67.0446  220.4493 H   0  0  0  0  0  0  0  0  0  0  0  0
  145.4980   68.2915  220.8272 H   0  0  0  0  0  0  0  0  0  0  0  0
  1  2  1  0
  2  3  1  0
  3  4  1  0
  4  5  1  0
  5  6  1  0
  6  7  2  0
  6  8  1  0
  8  9  1  0
  9 10  1  0
 10 11  2  0
 10 12  1  0
 12 13  2  0
 13 14  1  0
 14 15  2  0
 15 16  1  0
 16 17  2  0
 17 18  1  0
 17 19  1  0
 19 20  2  0
 20 21  1  0
 21 22  2  0
  5 23  1  0
 23 24  1  0
 24 25  2  0
 24 26  1  0
 26 27  1  0
 27 28  1  0
 28 29  1  0
 29 30  1  0
 30 31  1  0
 23  2  1  0
 31 27  1  0
 22 12  1  0
 21 15  1  0
  1 32  1  0
  1 33  1  0
  2 34  1  6
  3 35  1  0
  3 36  1  0
  4 37  1  0
  4 38  1  0
  8 39  1  0
  8 40  1  0
  9 41  1  0
 13 42  1  0
 14 43  1  0
 16 44  1  0
 19 45  1  0
 20 46  1  0
 23 47  1  1
 26 48  1  0
 27 49  1  0
 28 50  1  0
 28 51  1  0
 29 52  1  0
 29 53  1  0
 30 54  1  0
 30 55  1  0
 31 56  1  0
 31 57  1  0
M  END
>  <smiles>  (44) 
N[C@@H]1CCN(C(=O)CNC(=O)c2ccc3cc(Cl)ccc3n2)[C@H]1C(=O)NC1CCCC1

>  <score_type>  (44) 
oracle

>  <origin>  (44) 
autodockgpu

>  <m_score__min__energy>  (44) 
-9.25

>  <m_primary>  (44) 
energy

>  <rmsd>  (44) 
7.382152155398155

>  <m_score__min__rmsd>  (44) 
7.382152155398155

>  <meeko>  (44) 
{"free_energy": -8.07, "intermolecular_energy": -10.16, "internal_energy": -2.7, "cluster_size": 1, "cluster_id": 3, "rank_in_cluster": 1}

>  <energy>  (44) 
-6.88

>  <cluster_rmsd>  (44) 
0.0

>  <cluster>  (44) 
8

$$$$

     RDKit          3D

 57 60  0  0  0  0  0  0  0  0999 V2000
  141.0890   78.2370  217.1930 N   0  0  0  0  0  0  0  0  0  0  0  0
  140.5470   77.5430  218.3350 C   0  0  2  0  0  0  0  0  0  0  0  0
  139.6730   78.4970  219.1690 C   0  0  0  0  0  0  0  0  0  0  0  0
  139.9250   78.0880  220.6520 C   0  0  0  0  0  0  0  0  0  0  0  0
  140.6460   76.8090  220.4690 N   0  0  0  0  0  0  0  0  0  0  0  0
  140.5190   75.5970  221.1730 C   0  0  0  0  0  0  0  0  0  0  0  0
  141.4770   75.3290  221.9790 O   0  0  0  0  0  0  0  0  0  0  0  0
  139.4430   74.6070  221.0990 C   0  0  0  0  0  0  0  0  0  0  0  0
  139.2750   73.7710  222.2750 N   0  0  0  0  0  0  0  0  0  0  0  0
  140.2050   72.6340  222.2970 C   0  0  0  0  0  0  0  0  0  0  0  0
  140.9560   72.5570  221.3220 O   0  0  0  0  0  0  0  0  0  0  0  0
  140.1570   71.7360  223.4350 C   0  0  0  0  0  0  0  0  0  0  0  0
  139.6670   70.4850  223.2460 C   0  0  0  0  0  0  0  0  0  0  0  0
  139.6230   69.5410  224.2430 C   0  0  0  0  0  0  0  0  0  0  0  0
  140.0980   69.8840  225.4840 C   0  0  0  0  0  0  0  0  0  0  0  0
  140.0720   68.9510  226.4940 C   0  0  0  0  0  0  0  0  0  0  0  0
  140.5550   69.3060  227.7230 C   0  0  0  0  0  0  0  0  0  0  0  0
  140.5410   68.1570  229.0420 Cl  0  0  0  0  0  0  0  0  0  0  0  0
  141.0470   70.5760  227.9040 C   0  0  0  0  0  0  0  0  0  0  0  0
  141.0950   71.5430  226.9290 C   0  0  0  0  0  0  0  0  0  0  0  0
  140.5980   71.1670  225.6720 C   0  0  0  0  0  0  0  0  0  0  0  0
  140.6310   72.0850  224.6720 N   0  0  0  0  0  0  0  0  0  0  0  0
  141.5460   77.1570  219.3590 C   0  0  1  0  0  0  0  0  0  0  0  0
  142.6410   76.3090  219.0570 C   0  0  0  0  0  0  0  0  0  0  0  0
  143.1340   76.2840  217.8900 O   0  0  0  0  0  0  0  0  0  0  0  0
  143.2660   75.4380  220.0010 N   0  0  0  0  0  0  0  0  0  0  0  0
  144.3820   74.5830  219.6040 C   0  0  0  0  0  0  0  0  0  0  0  0
  144.9580   73.9100  220.8580 C   0  0  0  0  0  0  0  0  0  0  0  0
  144.2450   72.5930  220.8620 C   0  0  0  0  0  0  0  0  0  0  0  0
  144.1170   72.2050  219.4050 C   0  0  0  0  0  0  0  0  0  0  0  0
  144.0310   73.5160  218.6820 C   0  0  0  0  0  0  0  0  0  0  0  0
  140.5590   78.0840  216.3170 H   0  0  0  0  0  0  0  0  0  0  0  0
  142.1160   78.0180  217.1120 H   0  0  0  0  0  0  0  0  0  0  0  0
  140.0487   76.6746  217.8794 H   0  0  0  0  0  0  0  0  0  0  0  0
  139.9728   79.5419  219.0005 H   0  0  0  0  0  0  0  0  0  0  0  0
  138.6096   78.4251  218.8970 H   0  0  0  0  0  0  0  0  0  0  0  0
  140.5444   78.8302  221.1768 H   0  0  0  0  0  0  0  0  0  0  0  0
  139.0144   78.0135  221.2646 H   0  0  0  0  0  0  0  0  0  0  0  0
  138.4990   75.1457  220.9295 H   0  0  0  0  0  0  0  0  0  0  0  0
  139.7193   73.9240  220.2822 H   0  0  0  0  0  0  0  0  0  0  0  0
  138.5920   73.9270  223.0320 H   0  0  0  0  0  0  0  0  0  0  0  0
  139.2879   70.2145  222.2495 H   0  0  0  0  0  0  0  0  0  0  0  0
  139.2176   68.5365  224.0516 H   0  0  0  0  0  0  0  0  0  0  0  0
  139.6717   67.9418  226.3172 H   0  0  0  0  0  0  0  0  0  0  0  0
  141.4301   70.8375  228.9014 H   0  0  0  0  0  0  0  0  0  0  0  0
  141.4976   72.5483  227.1218 H   0  0  0  0  0  0  0  0  0  0  0  0
  142.2659   77.9619  219.5684 H   0  0  0  0  0  0  0  0  0  0  0  0
  142.9630   75.3770  220.9920 H   0  0  0  0  0  0  0  0  0  0  0  0
  145.0940   75.2464  219.0911 H   0  0  0  0  0  0  0  0  0  0  0  0
  146.0464   73.7747  220.7744 H   0  0  0  0  0  0  0  0  0  0  0  0
  144.8149   74.4938  221.7792 H   0  0  0  0  0  0  0  0  0  0  0  0
  144.8291   71.8401  221.4115 H   0  0  0  0  0  0  0  0  0  0  0  0
  143.2649   72.6583  221.3571 H   0  0  0  0  0  0  0  0  0  0  0  0
  144.9972   71.6341  219.0744 H   0  0  0  0  0  0  0  0  0  0  0  0
  143.2457   71.5610  219.2152 H   0  0  0  0  0  0  0  0  0  0  0  0
  144.7300   73.5164  217.8327 H   0  0  0  0  0  0  0  0  0  0  0  0
  143.0089   73.6687  218.3052 H   0  0  0  0  0  0  0  0  0  0  0  0
  1  2  1  0
  2  3  1  0
  3  4  1  0
  4  5  1  0
  5  6  1  0
  6  7  2  0
  6  8  1  0
  8  9  1  0
  9 10  1  0
 10 11  2  0
 10 12  1  0
 12 13  2  0
 13 14  1  0
 14 15  2  0
 15 16  1  0
 16 17  2  0
 17 18  1  0
 17 19  1  0
 19 20  2  0
 20 21  1  0
 21 22  2  0
  5 23  1  0
 23 24  1  0
 24 25  2  0
 24 26  1  0
 26 27  1  0
 27 28  1  0
 28 29  1  0
 29 30  1  0
 30 31  1  0
 23  2  1  0
 31 27  1  0
 22 12  1  0
 21 15  1  0
  1 32  1  0
  1 33  1  0
  2 34  1  6
  3 35  1  0
  3 36  1  0
  4 37  1  0
  4 38  1  0
  8 39  1  0
  8 40  1  0
  9 41  1  0
 13 42  1  0
 14 43  1  0
 16 44  1  0
 19 45  1  0
 20 46  1  0
 23 47  1  1
 26 48  1  0
 27 49  1  0
 28 50  1  0
 28 51  1  0
 29 52  1  0
 29 53  1  0
 30 54  1  0
 30 55  1  0
 31 56  1  0
 31 57  1  0
M  END
>  <smiles>  (45) 
N[C@@H]1CCN(C(=O)CNC(=O)c2ccc3cc(Cl)ccc3n2)[C@H]1C(=O)NC1CCCC1

>  <score_type>  (45) 
oracle

>  <origin>  (45) 
autodockgpu

>  <m_score__min__energy>  (45) 
-9.25

>  <m_primary>  (45) 
energy

>  <rmsd>  (45) 
4.584141620734537

>  <m_score__min__rmsd>  (45) 
4.584141620734537

>  <meeko>  (45) 
{"free_energy": -7.36, "intermolecular_energy": -9.44, "internal_energy": -3.12, "cluster_size": 3, "cluster_id": 7, "rank_in_cluster": 2}

>  <energy>  (45) 
-5.97

>  <cluster_rmsd>  (45) 
0.0

>  <cluster>  (45) 
9

$$$$

     RDKit          3D

 57 60  0  0  0  0  0  0  0  0999 V2000
  143.4870   76.7610  219.2780 N   0  0  0  0  0  0  0  0  0  0  0  0
  142.7240   75.6240  219.7320 C   0  0  2  0  0  0  0  0  0  0  0  0
  142.5480   74.6120  218.5860 C   0  0  0  0  0  0  0  0  0  0  0  0
  141.1140   74.0290  218.7740 C   0  0  0  0  0  0  0  0  0  0  0  0
  140.7820   74.5390  220.1230 N   0  0  0  0  0  0  0  0  0  0  0  0
  140.1320   73.8940  221.1930 C   0  0  0  0  0  0  0  0  0  0  0  0
  140.7420   73.9490  222.3170 O   0  0  0  0  0  0  0  0  0  0  0  0
  138.8600   73.1700  221.1840 C   0  0  0  0  0  0  0  0  0  0  0  0
  137.9440   73.4940  222.2640 N   0  0  0  0  0  0  0  0  0  0  0  0
  137.2710   74.7840  222.0670 C   0  0  0  0  0  0  0  0  0  0  0  0
  137.5960   75.3890  221.0430 O   0  0  0  0  0  0  0  0  0  0  0  0
  136.3080   75.2110  223.0650 C   0  0  0  0  0  0  0  0  0  0  0  0
  135.9520   76.5190  223.0960 C   0  0  0  0  0  0  0  0  0  0  0  0
  135.0140   77.0190  223.9660 C   0  0  0  0  0  0  0  0  0  0  0  0
  134.4130   76.1500  224.8420 C   0  0  0  0  0  0  0  0  0  0  0  0
  133.4640   76.6270  225.7160 C   0  0  0  0  0  0  0  0  0  0  0  0
  132.8690   75.7480  226.5770 C   0  0  0  0  0  0  0  0  0  0  0  0
  131.6590   76.3050  227.7100 Cl  0  0  0  0  0  0  0  0  0  0  0  0
  133.2390   74.4250  226.5390 C   0  0  0  0  0  0  0  0  0  0  0  0
  134.1800   73.8990  225.6860 C   0  0  0  0  0  0  0  0  0  0  0  0
  134.7820   74.8110  224.8060 C   0  0  0  0  0  0  0  0  0  0  0  0
  135.7130   74.3390  223.9370 N   0  0  0  0  0  0  0  0  0  0  0  0
  141.3020   75.9120  220.0340 C   0  0  1  0  0  0  0  0  0  0  0  0
  140.9210   76.8660  221.0100 C   0  0  0  0  0  0  0  0  0  0  0  0
  139.8390   76.7300  221.6560 O   0  0  0  0  0  0  0  0  0  0  0  0
  141.6880   78.0230  221.3450 N   0  0  0  0  0  0  0  0  0  0  0  0
  141.2160   78.9670  222.3550 C   0  0  0  0  0  0  0  0  0  0  0  0
  142.2400   79.0210  223.4970 C   0  0  0  0  0  0  0  0  0  0  0  0
  143.0780   80.2000  223.1120 C   0  0  0  0  0  0  0  0  0  0  0  0
  142.1130   81.1900  222.4960 C   0  0  0  0  0  0  0  0  0  0  0  0
  141.0490   80.3300  221.8800 C   0  0  0  0  0  0  0  0  0  0  0  0
  144.2670   76.5170  218.6430 H   0  0  0  0  0  0  0  0  0  0  0  0
  143.7800   77.3350  220.1100 H   0  0  0  0  0  0  0  0  0  0  0  0
  143.2868   75.2885  220.6155 H   0  0  0  0  0  0  0  0  0  0  0  0
  142.6359   75.1138  217.6111 H   0  0  0  0  0  0  0  0  0  0  0  0
  143.3179   73.8267  218.6084 H   0  0  0  0  0  0  0  0  0  0  0  0
  140.4180   74.4128  218.0135 H   0  0  0  0  0  0  0  0  0  0  0  0
  141.0499   72.9356  218.6720 H   0  0  0  0  0  0  0  0  0  0  0  0
  138.3527   73.3896  220.2330 H   0  0  0  0  0  0  0  0  0  0  0  0
  139.1176   72.1089  221.3170 H   0  0  0  0  0  0  0  0  0  0  0  0
  137.7600   72.9070  223.0930 H   0  0  0  0  0  0  0  0  0  0  0  0
  136.4366   77.2115  222.3921 H   0  0  0  0  0  0  0  0  0  0  0  0
  134.7516   78.0872  223.9608 H   0  0  0  0  0  0  0  0  0  0  0  0
  133.1900   77.6923  225.7219 H   0  0  0  0  0  0  0  0  0  0  0  0
  132.7465   73.7371  227.2421 H   0  0  0  0  0  0  0  0  0  0  0  0
  134.4441   72.8312  225.6929 H   0  0  0  0  0  0  0  0  0  0  0  0
  140.8302   76.5481  219.2706 H   0  0  0  0  0  0  0  0  0  0  0  0
  142.5990   78.2390  220.8970 H   0  0  0  0  0  0  0  0  0  0  0  0
  140.2273   78.5976  222.6647 H   0  0  0  0  0  0  0  0  0  0  0  0
  141.7476   79.1811  224.4675 H   0  0  0  0  0  0  0  0  0  0  0  0
  142.8147   78.0912  223.6202 H   0  0  0  0  0  0  0  0  0  0  0  0
  143.5625   80.6346  223.9987 H   0  0  0  0  0  0  0  0  0  0  0  0
  143.8821   79.9221  222.4147 H   0  0  0  0  0  0  0  0  0  0  0  0
  141.6852   81.8489  223.2660 H   0  0  0  0  0  0  0  0  0  0  0  0
  142.5978   81.8514  221.7629 H   0  0  0  0  0  0  0  0  0  0  0  0
  140.0565   80.7041  222.1714 H   0  0  0  0  0  0  0  0  0  0  0  0
  141.1345   80.3571  220.7837 H   0  0  0  0  0  0  0  0  0  0  0  0
  1  2  1  0
  2  3  1  0
  3  4  1  0
  4  5  1  0
  5  6  1  0
  6  7  2  0
  6  8  1  0
  8  9  1  0
  9 10  1  0
 10 11  2  0
 10 12  1  0
 12 13  2  0
 13 14  1  0
 14 15  2  0
 15 16  1  0
 16 17  2  0
 17 18  1  0
 17 19  1  0
 19 20  2  0
 20 21  1  0
 21 22  2  0
  5 23  1  0
 23 24  1  0
 24 25  2  0
 24 26  1  0
 26 27  1  0
 27 28  1  0
 28 29  1  0
 29 30  1  0
 30 31  1  0
 23  2  1  0
 31 27  1  0
 22 12  1  0
 21 15  1  0
  1 32  1  0
  1 33  1  0
  2 34  1  1
  3 35  1  0
  3 36  1  0
  4 37  1  0
  4 38  1  0
  8 39  1  0
  8 40  1  0
  9 41  1  0
 13 42  1  0
 14 43  1  0
 16 44  1  0
 19 45  1  0
 20 46  1  0
 23 47  1  6
 26 48  1  0
 27 49  1  0
 28 50  1  0
 28 51  1  0
 29 52  1  0
 29 53  1  0
 30 54  1  0
 30 55  1  0
 31 56  1  0
 31 57  1  0
M  END
>  <smiles>  (46) 
N[C@@H]1CCN(C(=O)CNC(=O)c2ccc3cc(Cl)ccc3n2)[C@H]1C(=O)NC1CCCC1

>  <score_type>  (46) 
oracle

>  <origin>  (46) 
autodockgpu

>  <m_score__min__energy>  (46) 
-9.25

>  <m_primary>  (46) 
energy

>  <rmsd>  (46) 
5.329741410446362

>  <m_score__min__rmsd>  (46) 
5.329741410446362

>  <meeko>  (46) 
{"free_energy": -7.66, "intermolecular_energy": -9.74, "internal_energy": -2.2, "cluster_size": 2, "cluster_id": 5, "rank_in_cluster": 2}

>  <energy>  (46) 
-5.97

>  <cluster_rmsd>  (46) 
0.03

>  <cluster>  (46) 
9

$$$$

     RDKit          3D

 57 60  0  0  0  0  0  0  0  0999 V2000
  142.7730   79.4790  217.9860 N   0  0  0  0  0  0  0  0  0  0  0  0
  142.6440   78.1130  218.4320 C   0  0  2  0  0  0  0  0  0  0  0  0
  142.6120   77.1620  217.2230 C   0  0  0  0  0  0  0  0  0  0  0  0
  141.6060   76.0370  217.6150 C   0  0  0  0  0  0  0  0  0  0  0  0
  141.4280   76.3150  219.0570 N   0  0  0  0  0  0  0  0  0  0  0  0
  141.3520   75.4200  220.1420 C   0  0  0  0  0  0  0  0  0  0  0  0
  142.1070   75.7010  221.1370 O   0  0  0  0  0  0  0  0  0  0  0  0
  140.5310   74.2160  220.2760 C   0  0  0  0  0  0  0  0  0  0  0  0
  140.5910   73.5530  221.5680 N   0  0  0  0  0  0  0  0  0  0  0  0
  139.8290   72.2980  221.5950 C   0  0  0  0  0  0  0  0  0  0  0  0
  139.2510   72.0170  220.5420 O   0  0  0  0  0  0  0  0  0  0  0  0
  139.8320   71.5260  222.8220 C   0  0  0  0  0  0  0  0  0  0  0  0
  139.2500   70.3000  222.8120 C   0  0  0  0  0  0  0  0  0  0  0  0
  139.2410   69.4670  223.9040 C   0  0  0  0  0  0  0  0  0  0  0  0
  139.8490   69.8990  225.0550 C   0  0  0  0  0  0  0  0  0  0  0  0
  139.8590   69.0770  226.1580 C   0  0  0  0  0  0  0  0  0  0  0  0
  140.4760   69.5190  227.2960 C   0  0  0  0  0  0  0  0  0  0  0  0
  140.5140   68.5130  228.7260 Cl  0  0  0  0  0  0  0  0  0  0  0  0
  141.0600   70.7630  227.2960 C   0  0  0  0  0  0  0  0  0  0  0  0
  141.0770   71.6200  226.2230 C   0  0  0  0  0  0  0  0  0  0  0  0
  140.4430   71.1550  225.0610 C   0  0  0  0  0  0  0  0  0  0  0  0
  140.4390   71.9630  223.9690 N   0  0  0  0  0  0  0  0  0  0  0  0
  141.3360   77.7820  219.0460 C   0  0  1  0  0  0  0  0  0  0  0  0
  140.8540   78.4590  220.1940 C   0  0  0  0  0  0  0  0  0  0  0  0
  139.8260   79.1960  220.1230 O   0  0  0  0  0  0  0  0  0  0  0  0
  141.4560   78.3780  221.4870 N   0  0  0  0  0  0  0  0  0  0  0  0
  140.9030   79.1200  222.6180 C   0  0  0  0  0  0  0  0  0  0  0  0
  141.8220   78.9240  223.8320 C   0  0  0  0  0  0  0  0  0  0  0  0
  142.7010   80.1340  223.7580 C   0  0  0  0  0  0  0  0  0  0  0  0
  141.8050   81.2480  223.2660 C   0  0  0  0  0  0  0  0  0  0  0  0
  140.7920   80.5530  222.4050 C   0  0  0  0  0  0  0  0  0  0  0  0
  141.9220   79.8560  217.5340 H   0  0  0  0  0  0  0  0  0  0  0  0
  143.6420   79.5700  217.4000 H   0  0  0  0  0  0  0  0  0  0  0  0
  143.4836   78.0043  219.1344 H   0  0  0  0  0  0  0  0  0  0  0  0
  142.2661   77.6927  216.3237 H   0  0  0  0  0  0  0  0  0  0  0  0
  143.6088   76.7595  216.9898 H   0  0  0  0  0  0  0  0  0  0  0  0
  140.6584   76.1314  217.0645 H   0  0  0  0  0  0  0  0  0  0  0  0
  141.9508   75.0177  217.3867 H   0  0  0  0  0  0  0  0  0  0  0  0
  139.4843   74.4981  220.0892 H   0  0  0  0  0  0  0  0  0  0  0  0
  140.9351   73.4952  219.5500 H   0  0  0  0  0  0  0  0  0  0  0  0
  141.1030   73.8950  222.3950 H   0  0  0  0  0  0  0  0  0  0  0  0
  138.7632   69.9578  221.8869 H   0  0  0  0  0  0  0  0  0  0  0  0
  138.7589   68.4794  223.8567 H   0  0  0  0  0  0  0  0  0  0  0  0
  139.3815   68.0866  226.1256 H   0  0  0  0  0  0  0  0  0  0  0  0
  141.5495   71.0966  228.2229 H   0  0  0  0  0  0  0  0  0  0  0  0
  141.5573   72.6084  226.2715 H   0  0  0  0  0  0  0  0  0  0  0  0
  140.4888   78.1980  218.4811 H   0  0  0  0  0  0  0  0  0  0  0  0
  142.2940   77.7960  221.6780 H   0  0  0  0  0  0  0  0  0  0  0  0
  139.8871   78.7243  222.7643 H   0  0  0  0  0  0  0  0  0  0  0  0
  141.2468   78.9050  224.7694 H   0  0  0  0  0  0  0  0  0  0  0  0
  142.3753   77.9734  223.8196 H   0  0  0  0  0  0  0  0  0  0  0  0
  143.1074   80.3764  224.7510 H   0  0  0  0  0  0  0  0  0  0  0  0
  143.5620   79.9755  223.0920 H   0  0  0  0  0  0  0  0  0  0  0  0
  141.3162   81.7569  224.1099 H   0  0  0  0  0  0  0  0  0  0  0  0
  142.3601   82.0248  222.7197 H   0  0  0  0  0  0  0  0  0  0  0  0
  139.7811   80.8903  222.6774 H   0  0  0  0  0  0  0  0  0  0  0  0
  140.9750   80.7895  221.3464 H   0  0  0  0  0  0  0  0  0  0  0  0
  1  2  1  0
  2  3  1  0
  3  4  1  0
  4  5  1  0
  5  6  1  0
  6  7  2  0
  6  8  1  0
  8  9  1  0
  9 10  1  0
 10 11  2  0
 10 12  1  0
 12 13  2  0
 13 14  1  0
 14 15  2  0
 15 16  1  0
 16 17  2  0
 17 18  1  0
 17 19  1  0
 19 20  2  0
 20 21  1  0
 21 22  2  0
  5 23  1  0
 23 24  1  0
 24 25  2  0
 24 26  1  0
 26 27  1  0
 27 28  1  0
 28 29  1  0
 29 30  1  0
 30 31  1  0
 23  2  1  0
 31 27  1  0
 22 12  1  0
 21 15  1  0
  1 32  1  0
  1 33  1  0
  2 34  1  1
  3 35  1  0
  3 36  1  0
  4 37  1  0
  4 38  1  0
  8 39  1  0
  8 40  1  0
  9 41  1  0
 13 42  1  0
 14 43  1  0
 16 44  1  0
 19 45  1  0
 20 46  1  0
 23 47  1  6
 26 48  1  0
 27 49  1  0
 28 50  1  0
 28 51  1  0
 29 52  1  0
 29 53  1  0
 30 54  1  0
 30 55  1  0
 31 56  1  0
 31 57  1  0
M  END
>  <smiles>  (47) 
N[C@@H]1CCN(C(=O)CNC(=O)c2ccc3cc(Cl)ccc3n2)[C@H]1C(=O)NC1CCCC1

>  <score_type>  (47) 
oracle

>  <origin>  (47) 
autodockgpu

>  <m_score__min__energy>  (47) 
-9.25

>  <m_primary>  (47) 
energy

>  <rmsd>  (47) 
2.3132847447163662

>  <m_score__min__rmsd>  (47) 
2.3132847447163662

>  <meeko>  (47) 
{"free_energy": -8.41, "intermolecular_energy": -10.5, "internal_energy": -2.55, "cluster_size": 17, "cluster_id": 1, "rank_in_cluster": 10}

>  <energy>  (47) 
-5.94

>  <cluster_rmsd>  (47) 
0.27

>  <cluster>  (47) 
9

$$$$

     RDKit          3D

 57 60  0  0  0  0  0  0  0  0999 V2000
  143.7330   76.5390  219.3970 N   0  0  0  0  0  0  0  0  0  0  0  0
  142.7870   75.5770  219.9070 C   0  0  2  0  0  0  0  0  0  0  0  0
  142.6930   74.3710  218.9550 C   0  0  0  0  0  0  0  0  0  0  0  0
  141.1940   73.9460  218.9820 C   0  0  0  0  0  0  0  0  0  0  0  0
  140.7010   74.7400  220.1290 N   0  0  0  0  0  0  0  0  0  0  0  0
  139.8170   74.3740  221.1620 C   0  0  0  0  0  0  0  0  0  0  0  0
  140.3130   74.4040  222.3430 O   0  0  0  0  0  0  0  0  0  0  0  0
  138.4170   73.9600  221.0610 C   0  0  0  0  0  0  0  0  0  0  0  0
  137.5750   74.3070  222.1940 N   0  0  0  0  0  0  0  0  0  0  0  0
  136.9230   75.6130  222.0350 C   0  0  0  0  0  0  0  0  0  0  0  0
  137.2020   76.2100  220.9930 O   0  0  0  0  0  0  0  0  0  0  0  0
  136.0330   76.0630  223.0880 C   0  0  0  0  0  0  0  0  0  0  0  0
  135.5920   77.3460  223.0530 C   0  0  0  0  0  0  0  0  0  0  0  0
  134.7090   77.8590  223.9710 C   0  0  0  0  0  0  0  0  0  0  0  0
  134.2550   77.0320  224.9680 C   0  0  0  0  0  0  0  0  0  0  0  0
  133.3630   77.5230  225.8930 C   0  0  0  0  0  0  0  0  0  0  0  0
  132.9140   76.6850  226.8750 C   0  0  0  0  0  0  0  0  0  0  0  0
  131.7820   77.2610  228.0770 Cl  0  0  0  0  0  0  0  0  0  0  0  0
  133.3690   75.3880  226.9030 C   0  0  0  0  0  0  0  0  0  0  0  0
  134.2580   74.8500  226.0040 C   0  0  0  0  0  0  0  0  0  0  0  0
  134.7100   75.7190  225.0000 C   0  0  0  0  0  0  0  0  0  0  0  0
  135.5840   75.2340  224.0810 N   0  0  0  0  0  0  0  0  0  0  0  0
  141.3740   76.0250  219.8850 C   0  0  1  0  0  0  0  0  0  0  0  0
  140.9430   77.1810  220.5810 C   0  0  0  0  0  0  0  0  0  0  0  0
  139.7090   77.4530  220.6770 O   0  0  0  0  0  0  0  0  0  0  0  0
  141.8220   78.1120  221.2150 N   0  0  0  0  0  0  0  0  0  0  0  0
  141.2960   79.2890  221.9010 C   0  0  0  0  0  0  0  0  0  0  0  0
  140.6740   78.8470  223.2330 C   0  0  0  0  0  0  0  0  0  0  0  0
  141.8000   79.0690  224.1940 C   0  0  0  0  0  0  0  0  0  0  0  0
  142.5010   80.3170  223.7060 C   0  0  0  0  0  0  0  0  0  0  0  0
  142.2910   80.2990  222.2200 C   0  0  0  0  0  0  0  0  0  0  0  0
  144.4780   76.1260  218.8100 H   0  0  0  0  0  0  0  0  0  0  0  0
  144.0950   77.1230  220.1950 H   0  0  0  0  0  0  0  0  0  0  0  0
  143.1567   75.3854  220.9251 H   0  0  0  0  0  0  0  0  0  0  0  0
  142.9942   74.6587  217.9369 H   0  0  0  0  0  0  0  0  0  0  0  0
  143.3587   73.5511  219.2627 H   0  0  0  0  0  0  0  0  0  0  0  0
  140.6789   74.2193  218.0493 H   0  0  0  0  0  0  0  0  0  0  0  0
  141.0296   72.8623  219.0742 H   0  0  0  0  0  0  0  0  0  0  0  0
  137.9887   74.4317  220.1643 H   0  0  0  0  0  0  0  0  0  0  0  0
  138.4308   72.8608  221.0225 H   0  0  0  0  0  0  0  0  0  0  0  0
  137.4260   73.7240  223.0330 H   0  0  0  0  0  0  0  0  0  0  0  0
  135.9587   78.0053  222.2524 H   0  0  0  0  0  0  0  0  0  0  0  0
  134.3743   78.9050  223.9090 H   0  0  0  0  0  0  0  0  0  0  0  0
  133.0188   78.5666  225.8435 H   0  0  0  0  0  0  0  0  0  0  0  0
  132.9940   74.7332  227.7034 H   0  0  0  0  0  0  0  0  0  0  0  0
  134.5938   73.8044  226.0676 H   0  0  0  0  0  0  0  0  0  0  0  0
  141.1062   76.5284  218.9443 H   0  0  0  0  0  0  0  0  0  0  0  0
  142.8530   77.9930  221.2190 H   0  0  0  0  0  0  0  0  0  0  0  0
  140.5739   79.7393  221.2040 H   0  0  0  0  0  0  0  0  0  0  0  0
  139.8014   79.4651  223.4908 H   0  0  0  0  0  0  0  0  0  0  0  0
  140.2970   77.8136  223.2241 H   0  0  0  0  0  0  0  0  0  0  0  0
  141.4132   79.2178  225.2130 H   0  0  0  0  0  0  0  0  0  0  0  0
  142.4805   78.2058  224.2348 H   0  0  0  0  0  0  0  0  0  0  0  0
  142.0524   81.2166  224.1527 H   0  0  0  0  0  0  0  0  0  0  0  0
  143.5658   80.3375  223.9812 H   0  0  0  0  0  0  0  0  0  0  0  0
  141.9378   81.2852  221.8844 H   0  0  0  0  0  0  0  0  0  0  0  0
  143.2378   80.0655  221.7110 H   0  0  0  0  0  0  0  0  0  0  0  0
  1  2  1  0
  2  3  1  0
  3  4  1  0
  4  5  1  0
  5  6  1  0
  6  7  2  0
  6  8  1  0
  8  9  1  0
  9 10  1  0
 10 11  2  0
 10 12  1  0
 12 13  2  0
 13 14  1  0
 14 15  2  0
 15 16  1  0
 16 17  2  0
 17 18  1  0
 17 19  1  0
 19 20  2  0
 20 21  1  0
 21 22  2  0
  5 23  1  0
 23 24  1  0
 24 25  2  0
 24 26  1  0
 26 27  1  0
 27 28  1  0
 28 29  1  0
 29 30  1  0
 30 31  1  0
 23  2  1  0
 31 27  1  0
 22 12  1  0
 21 15  1  0
  1 32  1  0
  1 33  1  0
  2 34  1  1
  3 35  1  0
  3 36  1  0
  4 37  1  0
  4 38  1  0
  8 39  1  0
  8 40  1  0
  9 41  1  0
 13 42  1  0
 14 43  1  0
 16 44  1  0
 19 45  1  0
 20 46  1  0
 23 47  1  6
 26 48  1  0
 27 49  1  0
 28 50  1  0
 28 51  1  0
 29 52  1  0
 29 53  1  0
 30 54  1  0
 30 55  1  0
 31 56  1  0
 31 57  1  0
M  END
>  <smiles>  (48) 
N[C@@H]1CCN(C(=O)CNC(=O)c2ccc3cc(Cl)ccc3n2)[C@H]1C(=O)NC1CCCC1

>  <score_type>  (48) 
oracle

>  <origin>  (48) 
autodockgpu

>  <m_score__min__energy>  (48) 
-9.25

>  <m_primary>  (48) 
energy

>  <rmsd>  (48) 
5.743522920175137

>  <m_score__min__rmsd>  (48) 
5.743522920175137

>  <meeko>  (48) 
{"free_energy": -7.88, "intermolecular_energy": -9.97, "internal_energy": -2.24, "cluster_size": 2, "cluster_id": 5, "rank_in_cluster": 1}

>  <energy>  (48) 
-5.92

>  <cluster_rmsd>  (48) 
0.15

>  <cluster>  (48) 
9

$$$$

     RDKit          3D

 57 60  0  0  0  0  0  0  0  0999 V2000
  136.8550   78.6930  223.3460 N   0  0  0  0  0  0  0  0  0  0  0  0
  136.7080   77.5780  222.4440 C   0  0  2  0  0  0  0  0  0  0  0  0
  135.3920   76.8320  222.7320 C   0  0  0  0  0  0  0  0  0  0  0  0
  135.7180   75.3260  222.5020 C   0  0  0  0  0  0  0  0  0  0  0  0
  137.0410   75.4250  221.8460 N   0  0  0  0  0  0  0  0  0  0  0  0
  137.5590   74.7030  220.7540 C   0  0  0  0  0  0  0  0  0  0  0  0
  137.2960   75.1920  219.6000 O   0  0  0  0  0  0  0  0  0  0  0  0
  138.3500   73.4710  220.7670 C   0  0  0  0  0  0  0  0  0  0  0  0
  138.8760   73.0750  222.0630 N   0  0  0  0  0  0  0  0  0  0  0  0
  139.0120   71.6190  222.1960 C   0  0  0  0  0  0  0  0  0  0  0  0
  138.6460   70.9700  221.2140 O   0  0  0  0  0  0  0  0  0  0  0  0
  139.5540   71.0960  223.4360 C   0  0  0  0  0  0  0  0  0  0  0  0
  140.3720   71.8940  224.1670 C   0  0  0  0  0  0  0  0  0  0  0  0
  140.8990   71.5160  225.3780 C   0  0  0  0  0  0  0  0  0  0  0  0
  140.5790   70.2750  225.8660 C   0  0  0  0  0  0  0  0  0  0  0  0
  141.0880   69.8790  227.0810 C   0  0  0  0  0  0  0  0  0  0  0  0
  140.7540   68.6420  227.5580 C   0  0  0  0  0  0  0  0  0  0  0  0
  141.3770   68.0910  229.0960 Cl  0  0  0  0  0  0  0  0  0  0  0  0
  139.9260   67.8410  226.8080 C   0  0  0  0  0  0  0  0  0  0  0  0
  139.3910   68.1890  225.5910 C   0  0  0  0  0  0  0  0  0  0  0  0
  139.7410   69.4610  225.1130 C   0  0  0  0  0  0  0  0  0  0  0  0
  139.2320   69.8550  223.9170 N   0  0  0  0  0  0  0  0  0  0  0  0
  137.6730   76.4740  222.6600 C   0  0  1  0  0  0  0  0  0  0  0  0
  139.0740   76.6750  222.5720 C   0  0  0  0  0  0  0  0  0  0  0  0
  139.8530   75.6970  222.3680 O   0  0  0  0  0  0  0  0  0  0  0  0
  139.7120   77.9460  222.6990 N   0  0  0  0  0  0  0  0  0  0  0  0
  141.1660   78.0650  222.6090 C   0  0  0  0  0  0  0  0  0  0  0  0
  141.5140   78.9980  221.4410 C   0  0  0  0  0  0  0  0  0  0  0  0
  141.6740   80.3180  222.1300 C   0  0  0  0  0  0  0  0  0  0  0  0
  142.3090   79.9950  223.4650 C   0  0  0  0  0  0  0  0  0  0  0  0
  141.8010   78.6220  223.7910 C   0  0  0  0  0  0  0  0  0  0  0  0
  136.6880   79.6150  222.9060 H   0  0  0  0  0  0  0  0  0  0  0  0
  137.7820   78.6190  223.8390 H   0  0  0  0  0  0  0  0  0  0  0  0
  136.8127   78.0484  221.4552 H   0  0  0  0  0  0  0  0  0  0  0  0
  135.0707   77.0031  223.7700 H   0  0  0  0  0  0  0  0  0  0  0  0
  134.5725   77.1789  222.0853 H   0  0  0  0  0  0  0  0  0  0  0  0
  135.7777   74.7751  223.4522 H   0  0  0  0  0  0  0  0  0  0  0  0
  134.9610   74.7802  221.9198 H   0  0  0  0  0  0  0  0  0  0  0  0
  137.7114   72.6551  220.3975 H   0  0  0  0  0  0  0  0  0  0  0  0
  139.2277   73.6707  220.1347 H   0  0  0  0  0  0  0  0  0  0  0  0
  139.1380   73.7170  222.8270 H   0  0  0  0  0  0  0  0  0  0  0  0
  140.6248   72.8890  223.7721 H   0  0  0  0  0  0  0  0  0  0  0  0
  141.5602   72.1909  225.9414 H   0  0  0  0  0  0  0  0  0  0  0  0
  141.7495   70.5433  227.6564 H   0  0  0  0  0  0  0  0  0  0  0  0
  139.6733   66.8493  227.2114 H   0  0  0  0  0  0  0  0  0  0  0  0
  138.7305   67.5135  225.0275 H   0  0  0  0  0  0  0  0  0  0  0  0
  137.8030   76.2316  223.7251 H   0  0  0  0  0  0  0  0  0  0  0  0
  139.1830   78.8250  222.8530 H   0  0  0  0  0  0  0  0  0  0  0  0
  141.5394   77.0384  222.4801 H   0  0  0  0  0  0  0  0  0  0  0  0
  142.4476   78.6893  220.9480 H   0  0  0  0  0  0  0  0  0  0  0  0
  140.7593   79.0053  220.6407 H   0  0  0  0  0  0  0  0  0  0  0  0
  142.3256   80.9826  221.5437 H   0  0  0  0  0  0  0  0  0  0  0  0
  140.7125   80.8392  222.2477 H   0  0  0  0  0  0  0  0  0  0  0  0
  143.4061   79.9965  223.3858 H   0  0  0  0  0  0  0  0  0  0  0  0
  142.0573   80.7328  224.2410 H   0  0  0  0  0  0  0  0  0  0  0  0
  142.6403   77.9802  224.0969 H   0  0  0  0  0  0  0  0  0  0  0  0
  141.0739   78.6782  224.6145 H   0  0  0  0  0  0  0  0  0  0  0  0
  1  2  1  0
  2  3  1  0
  3  4  1  0
  4  5  1  0
  5  6  1  0
  6  7  2  0
  6  8  1  0
  8  9  1  0
  9 10  1  0
 10 11  2  0
 10 12  1  0
 12 13  2  0
 13 14  1  0
 14 15  2  0
 15 16  1  0
 16 17  2  0
 17 18  1  0
 17 19  1  0
 19 20  2  0
 20 21  1  0
 21 22  2  0
  5 23  1  0
 23 24  1  0
 24 25  2  0
 24 26  1  0
 26 27  1  0
 27 28  1  0
 28 29  1  0
 29 30  1  0
 30 31  1  0
 23  2  1  0
 31 27  1  0
 22 12  1  0
 21 15  1  0
  1 32  1  0
  1 33  1  0
  2 34  1  6
  3 35  1  0
  3 36  1  0
  4 37  1  0
  4 38  1  0
  8 39  1  0
  8 40  1  0
  9 41  1  0
 13 42  1  0
 14 43  1  0
 16 44  1  0
 19 45  1  0
 20 46  1  0
 23 47  1  1
 26 48  1  0
 27 49  1  0
 28 50  1  0
 28 51  1  0
 29 52  1  0
 29 53  1  0
 30 54  1  0
 30 55  1  0
 31 56  1  0
 31 57  1  0
M  END
>  <smiles>  (49) 
N[C@@H]1CCN(C(=O)CNC(=O)c2ccc3cc(Cl)ccc3n2)[C@H]1C(=O)NC1CCCC1

>  <score_type>  (49) 
oracle

>  <origin>  (49) 
autodockgpu

>  <m_score__min__energy>  (49) 
-9.25

>  <m_primary>  (49) 
energy

>  <rmsd>  (49) 
3.6768184952527543

>  <m_score__min__rmsd>  (49) 
3.6768184952527543

>  <meeko>  (49) 
{"free_energy": -7.81, "intermolecular_energy": -9.9, "internal_energy": -2.5, "cluster_size": 6, "cluster_id": 6, "rank_in_cluster": 2}

>  <energy>  (49) 
-5.43

>  <cluster_rmsd>  (49) 
0.0

>  <cluster>  (49) 
10

$$$$

     RDKit          3D

 57 60  0  0  0  0  0  0  0  0999 V2000
  142.2030   78.2270  221.5230 N   0  0  0  0  0  0  0  0  0  0  0  0
  140.9710   77.5230  221.2670 C   0  0  2  0  0  0  0  0  0  0  0  0
  139.9270   77.8710  222.3440 C   0  0  0  0  0  0  0  0  0  0  0  0
  139.1380   76.5490  222.5890 C   0  0  0  0  0  0  0  0  0  0  0  0
  139.6110   75.7290  221.4520 N   0  0  0  0  0  0  0  0  0  0  0  0
  138.8900   74.8620  220.6080 C   0  0  0  0  0  0  0  0  0  0  0  0
  139.2220   74.8990  219.3720 O   0  0  0  0  0  0  0  0  0  0  0  0
  137.8140   73.9340  220.9590 C   0  0  0  0  0  0  0  0  0  0  0  0
  138.0070   73.1820  222.1870 N   0  0  0  0  0  0  0  0  0  0  0  0
  138.9260   72.0480  222.0170 C   0  0  0  0  0  0  0  0  0  0  0  0
  139.3660   71.9030  220.8750 O   0  0  0  0  0  0  0  0  0  0  0  0
  139.2240   71.2320  223.1790 C   0  0  0  0  0  0  0  0  0  0  0  0
  138.9150   69.9120  223.1330 C   0  0  0  0  0  0  0  0  0  0  0  0
  139.1990   69.0420  224.1570 C   0  0  0  0  0  0  0  0  0  0  0  0
  139.8240   69.5350  225.2740 C   0  0  0  0  0  0  0  0  0  0  0  0
  140.1270   68.6800  226.3080 C   0  0  0  0  0  0  0  0  0  0  0  0
  140.7570   69.1850  227.4110 C   0  0  0  0  0  0  0  0  0  0  0  0
  141.1600   68.1390  228.7530 Cl  0  0  0  0  0  0  0  0  0  0  0  0
  141.0630   70.5240  227.4470 C   0  0  0  0  0  0  0  0  0  0  0  0
  140.7840   71.4200  226.4430 C   0  0  0  0  0  0  0  0  0  0  0  0
  140.1380   70.8890  225.3160 C   0  0  0  0  0  0  0  0  0  0  0  0
  139.8470   71.7310  224.2920 N   0  0  0  0  0  0  0  0  0  0  0  0
  141.0450   76.0550  221.4540 C   0  0  1  0  0  0  0  0  0  0  0  0
  141.9440   75.2480  220.7130 C   0  0  0  0  0  0  0  0  0  0  0  0
  143.1200   75.6500  220.4700 O   0  0  0  0  0  0  0  0  0  0  0  0
  141.6220   73.9580  220.1900 N   0  0  0  0  0  0  0  0  0  0  0  0
  142.6040   73.1960  219.4230 C   0  0  0  0  0  0  0  0  0  0  0  0
  143.8140   72.9040  220.3210 C   0  0  0  0  0  0  0  0  0  0  0  0
  143.4950   71.5370  220.8430 C   0  0  0  0  0  0  0  0  0  0  0  0
  142.8200   70.8200  219.6940 C   0  0  0  0  0  0  0  0  0  0  0  0
  142.1270   71.9130  218.9350 C   0  0  0  0  0  0  0  0  0  0  0  0
  143.0160   77.8540  221.0030 H   0  0  0  0  0  0  0  0  0  0  0  0
  142.3550   78.2900  222.5630 H   0  0  0  0  0  0  0  0  0  0  0  0
  140.7372   77.8086  220.2308 H   0  0  0  0  0  0  0  0  0  0  0  0
  140.4222   78.2020  223.2688 H   0  0  0  0  0  0  0  0  0  0  0  0
  139.2667   78.6917  222.0272 H   0  0  0  0  0  0  0  0  0  0  0  0
  139.4021   76.0929  223.5545 H   0  0  0  0  0  0  0  0  0  0  0  0
  138.0461   76.6728  222.6381 H   0  0  0  0  0  0  0  0  0  0  0  0
  136.8859   74.5155  221.0610 H   0  0  0  0  0  0  0  0  0  0  0  0
  137.7859   73.1877  220.1513 H   0  0  0  0  0  0  0  0  0  0  0  0
  137.5670   73.3920  223.0960 H   0  0  0  0  0  0  0  0  0  0  0  0
  138.4144   69.5208  222.2350 H   0  0  0  0  0  0  0  0  0  0  0  0
  138.9322   67.9774  224.0833 H   0  0  0  0  0  0  0  0  0  0  0  0
  139.8679   67.6126  226.2486 H   0  0  0  0  0  0  0  0  0  0  0  0
  141.5686   70.9071  228.3457 H   0  0  0  0  0  0  0  0  0  0  0  0
  141.0499   72.4847  226.5179 H   0  0  0  0  0  0  0  0  0  0  0  0
  141.5928   75.7751  222.3659 H   0  0  0  0  0  0  0  0  0  0  0  0
  140.6960   73.5120  220.3340 H   0  0  0  0  0  0  0  0  0  0  0  0
  142.8437   73.8187  218.5485 H   0  0  0  0  0  0  0  0  0  0  0  0
  144.7495   72.9021  219.7423 H   0  0  0  0  0  0  0  0  0  0  0  0
  143.9703   73.6538  221.1105 H   0  0  0  0  0  0  0  0  0  0  0  0
  144.4158   71.0121  221.1374 H   0  0  0  0  0  0  0  0  0  0  0  0
  142.8533   71.5776  221.7355 H   0  0  0  0  0  0  0  0  0  0  0  0
  143.5627   70.3145  219.0593 H   0  0  0  0  0  0  0  0  0  0  0  0
  142.1257   70.0378  220.0348 H   0  0  0  0  0  0  0  0  0  0  0  0
  142.3519   71.8184  217.8624 H   0  0  0  0  0  0  0  0  0  0  0  0
  141.0393   71.8382  219.0809 H   0  0  0  0  0  0  0  0  0  0  0  0
  1  2  1  0
  2  3  1  0
  3  4  1  0
  4  5  1  0
  5  6  1  0
  6  7  2  0
  6  8  1  0
  8  9  1  0
  9 10  1  0
 10 11  2  0
 10 12  1  0
 12 13  2  0
 13 14  1  0
 14 15  2  0
 15 16  1  0
 16 17  2  0
 17 18  1  0
 17 19  1  0
 19 20  2  0
 20 21  1  0
 21 22  2  0
  5 23  1  0
 23 24  1  0
 24 25  2  0
 24 26  1  0
 26 27  1  0
 27 28  1  0
 28 29  1  0
 29 30  1  0
 30 31  1  0
 23  2  1  0
 31 27  1  0
 22 12  1  0
 21 15  1  0
  1 32  1  0
  1 33  1  0
  2 34  1  6
  3 35  1  0
  3 36  1  0
  4 37  1  0
  4 38  1  0
  8 39  1  0
  8 40  1  0
  9 41  1  0
 13 42  1  0
 14 43  1  0
 16 44  1  0
 19 45  1  0
 20 46  1  0
 23 47  1  1
 26 48  1  0
 27 49  1  0
 28 50  1  0
 28 51  1  0
 29 52  1  0
 29 53  1  0
 30 54  1  0
 30 55  1  0
 31 56  1  0
 31 57  1  0
M  END
>  <smiles>  (50) 
N[C@@H]1CCN(C(=O)CNC(=O)c2ccc3cc(Cl)ccc3n2)[C@H]1C(=O)NC1CCCC1

>  <score_type>  (50) 
oracle

>  <origin>  (50) 
autodockgpu

>  <m_score__min__energy>  (50) 
-9.25

>  <m_primary>  (50) 
energy

>  <rmsd>  (50) 
5.037026176592392

>  <m_score__min__rmsd>  (50) 
5.037026176592392

>  <meeko>  (50) 
{"free_energy": -7.16, "intermolecular_energy": -9.25, "internal_energy": -3.74, "cluster_size": 13, "cluster_id": 2, "rank_in_cluster": 10}

>  <energy>  (50) 
-5.37

>  <cluster_rmsd>  (50) 
0.0

>  <cluster>  (50) 
11

$$$$
