
     RDKit          3D

 38 40  0  0  0  0  0  0  0  0999 V2000
  141.1080   71.1970  221.7420 O   0  0  0  0  0  0  0  0  0  0  0  0
  140.7270   72.3150  222.2180 C   0  0  0  0  0  0  0  0  0  0  0  0
  139.9590   72.2580  223.4140 N   0  0  0  0  0  0  0  0  0  0  0  0
  139.6460   71.0020  224.0260 C   0  0  0  0  0  0  0  0  0  0  0  0
  140.4030   70.7670  225.2770 C   0  0  0  0  0  0  0  0  0  0  0  0
  141.0220   71.7310  225.7720 O   0  0  0  0  0  0  0  0  0  0  0  0
  140.3790   69.4590  225.8340 N   0  0  0  0  0  0  0  0  0  0  0  0
  139.6850   68.2730  225.3250 C   0  0  0  0  0  0  0  0  0  0  0  0
  139.3710   67.4420  226.5440 C   0  0  0  0  0  0  0  0  0  0  0  0
  139.9400   68.2150  227.7170 C   0  0  0  0  0  0  0  0  0  0  0  0
  141.0430   69.0060  227.0420 C   0  0  0  0  0  0  0  0  0  0  0  0
  141.0620   73.5810  221.5710 C   0  0  0  0  0  0  0  0  0  0  0  0
  141.9200   73.5450  220.4920 C   0  0  0  0  0  0  0  0  0  0  0  0
  142.2300   74.7590  219.8850 C   0  0  0  0  0  0  0  0  0  0  0  0
  141.6750   75.9450  220.3790 C   0  0  0  0  0  0  0  0  0  0  0  0
  142.0180   77.1270  219.7350 C   0  0  0  0  0  0  0  0  0  0  0  0
  141.4570   78.2880  220.2410 C   0  0  0  0  0  0  0  0  0  0  0  0
  141.8260   79.8380  219.5000 Cl  0  0  0  0  0  0  0  0  0  0  0  0
  140.6030   78.3030  221.3200 C   0  0  0  0  0  0  0  0  0  0  0  0
  140.3020   77.0960  221.9130 C   0  0  0  0  0  0  0  0  0  0  0  0
  140.8230   75.9080  221.4630 C   0  0  0  0  0  0  0  0  0  0  0  0
  140.5260   74.7160  222.0490 N   0  0  0  0  0  0  0  0  0  0  0  0
  139.6220   73.1440  223.8460 H   0  0  0  0  0  0  0  0  0  0  0  0
  138.5708   70.9823  224.2572 H   0  0  0  0  0  0  0  0  0  0  0  0
  139.9262   70.2096  223.3163 H   0  0  0  0  0  0  0  0  0  0  0  0
  138.7589   68.5615  224.8063 H   0  0  0  0  0  0  0  0  0  0  0  0
  140.2977   67.7197  224.5981 H   0  0  0  0  0  0  0  0  0  0  0  0
  138.2837   67.3186  226.6558 H   0  0  0  0  0  0  0  0  0  0  0  0
  139.8018   66.4324  226.4723 H   0  0  0  0  0  0  0  0  0  0  0  0
  139.1860   68.8778  228.1667 H   0  0  0  0  0  0  0  0  0  0  0  0
  140.2825   67.5835  228.5500 H   0  0  0  0  0  0  0  0  0  0  0  0
  141.3675   69.8535  227.6637 H   0  0  0  0  0  0  0  0  0  0  0  0
  141.9607   68.4279  226.8586 H   0  0  0  0  0  0  0  0  0  0  0  0
  142.3417   72.5971  220.1263 H   0  0  0  0  0  0  0  0  0  0  0  0
  142.9089   74.7859  219.0199 H   0  0  0  0  0  0  0  0  0  0  0  0
  142.6980   77.1403  218.8704 H   0  0  0  0  0  0  0  0  0  0  0  0
  140.1760   79.2446  221.6956 H   0  0  0  0  0  0  0  0  0  0  0  0
  139.6208   77.0839  222.7766 H   0  0  0  0  0  0  0  0  0  0  0  0
  1  2  2  0
  2  3  1  0
  3  4  1  0
  4  5  1  0
  5  6  2  0
  5  7  1  0
  7  8  1  0
  8  9  1  0
  9 10  1  0
 10 11  1  0
  2 12  1  0
 12 13  2  0
 13 14  1  0
 14 15  2  0
 15 16  1  0
 16 17  2  0
 17 18  1  0
 17 19  1  0
 19 20  2  0
 20 21  1  0
 21 22  2  0
 11  7  1  0
 22 12  1  0
 21 15  1  0
  3 23  1  0
  4 24  1  0
  4 25  1  0
  8 26  1  0
  8 27  1  0
  9 28  1  0
  9 29  1  0
 10 30  1  0
 10 31  1  0
 11 32  1  0
 11 33  1  0
 13 34  1  0
 14 35  1  0
 16 36  1  0
 19 37  1  0
 20 38  1  0
M  END
>  <smiles>  (1) 
O=C(NCC(=O)N1CCCC1)c1ccc2cc(Cl)ccc2n1

>  <score_type>  (1) 
oracle

>  <origin>  (1) 
autodockgpu

>  <m_score__min__energy>  (1) 
-7.0599999999999996

>  <m_primary>  (1) 
energy

>  <rmsd>  (1) 
8.878167457990763

>  <m_score__min__rmsd>  (1) 
8.878167457990763

>  <meeko>  (1) 
{"free_energy": -6.73, "intermolecular_energy": -7.63, "internal_energy": -0.97, "cluster_size": 8, "cluster_id": 3, "rank_in_cluster": 1}

>  <energy>  (1) 
-7.06

>  <cluster_rmsd>  (1) 
0.0

>  <cluster>  (1) 
1

$$$$

     RDKit          3D

 38 40  0  0  0  0  0  0  0  0999 V2000
  140.3820   72.6560  220.9110 O   0  0  0  0  0  0  0  0  0  0  0  0
  140.0010   72.9180  222.0970 C   0  0  0  0  0  0  0  0  0  0  0  0
  139.5450   74.2460  222.3290 N   0  0  0  0  0  0  0  0  0  0  0  0
  139.5260   75.2100  221.2710 C   0  0  0  0  0  0  0  0  0  0  0  0
  138.8400   76.4660  221.6500 C   0  0  0  0  0  0  0  0  0  0  0  0
  137.5920   76.4590  221.6880 O   0  0  0  0  0  0  0  0  0  0  0  0
  139.6430   77.6010  221.9460 N   0  0  0  0  0  0  0  0  0  0  0  0
  141.1050   77.7030  221.9280 C   0  0  0  0  0  0  0  0  0  0  0  0
  141.4440   78.7590  222.9500 C   0  0  0  0  0  0  0  0  0  0  0  0
  140.1120   79.2330  223.4980 C   0  0  0  0  0  0  0  0  0  0  0  0
  139.1890   78.9230  222.3360 C   0  0  0  0  0  0  0  0  0  0  0  0
  140.0330   71.9140  223.1570 C   0  0  0  0  0  0  0  0  0  0  0  0
  139.5520   70.6540  222.8640 C   0  0  0  0  0  0  0  0  0  0  0  0
  139.5890   69.7060  223.8830 C   0  0  0  0  0  0  0  0  0  0  0  0
  140.0980   70.0550  225.1390 C   0  0  0  0  0  0  0  0  0  0  0  0
  140.1110   69.0700  226.1180 C   0  0  0  0  0  0  0  0  0  0  0  0
  140.6190   69.4380  227.3530 C   0  0  0  0  0  0  0  0  0  0  0  0
  140.6800   68.2680  228.6630 Cl  0  0  0  0  0  0  0  0  0  0  0  0
  141.0930   70.7010  227.6260 C   0  0  0  0  0  0  0  0  0  0  0  0
  141.0530   71.6320  226.6110 C   0  0  0  0  0  0  0  0  0  0  0  0
  140.5620   71.3340  225.3630 C   0  0  0  0  0  0  0  0  0  0  0  0
  140.5230   72.2540  224.3600 N   0  0  0  0  0  0  0  0  0  0  0  0
  139.2230   74.5150  223.2820 H   0  0  0  0  0  0  0  0  0  0  0  0
  140.5636   75.4467  220.9928 H   0  0  0  0  0  0  0  0  0  0  0  0
  138.9683   74.7689  220.4317 H   0  0  0  0  0  0  0  0  0  0  0  0
  141.5616   76.7407  222.2026 H   0  0  0  0  0  0  0  0  0  0  0  0
  141.4852   77.9627  220.9290 H   0  0  0  0  0  0  0  0  0  0  0  0
  142.0608   78.3318  223.7544 H   0  0  0  0  0  0  0  0  0  0  0  0
  142.0213   79.5847  222.5084 H   0  0  0  0  0  0  0  0  0  0  0  0
  139.8254   78.6738  224.4008 H   0  0  0  0  0  0  0  0  0  0  0  0
  140.1026   80.2867  223.8136 H   0  0  0  0  0  0  0  0  0  0  0  0
  138.1358   78.9082  222.6531 H   0  0  0  0  0  0  0  0  0  0  0  0
  139.2259   79.6656  221.5253 H   0  0  0  0  0  0  0  0  0  0  0  0
  139.1561   70.4091  221.8674 H   0  0  0  0  0  0  0  0  0  0  0  0
  139.2194   68.6860  223.7014 H   0  0  0  0  0  0  0  0  0  0  0  0
  139.7384   68.0535  225.9234 H   0  0  0  0  0  0  0  0  0  0  0  0
  141.4897   70.9580  228.6193 H   0  0  0  0  0  0  0  0  0  0  0  0
  141.4267   72.6479  226.8065 H   0  0  0  0  0  0  0  0  0  0  0  0
  1  2  2  0
  2  3  1  0
  3  4  1  0
  4  5  1  0
  5  6  2  0
  5  7  1  0
  7  8  1  0
  8  9  1  0
  9 10  1  0
 10 11  1  0
  2 12  1  0
 12 13  2  0
 13 14  1  0
 14 15  2  0
 15 16  1  0
 16 17  2  0
 17 18  1  0
 17 19  1  0
 19 20  2  0
 20 21  1  0
 21 22  2  0
 11  7  1  0
 22 12  1  0
 21 15  1  0
  3 23  1  0
  4 24  1  0
  4 25  1  0
  8 26  1  0
  8 27  1  0
  9 28  1  0
  9 29  1  0
 10 30  1  0
 10 31  1  0
 11 32  1  0
 11 33  1  0
 13 34  1  0
 14 35  1  0
 16 36  1  0
 19 37  1  0
 20 38  1  0
M  END
>  <smiles>  (2) 
O=C(NCC(=O)N1CCCC1)c1ccc2cc(Cl)ccc2n1

>  <score_type>  (2) 
oracle

>  <origin>  (2) 
autodockgpu

>  <m_score__min__energy>  (2) 
-7.0599999999999996

>  <m_primary>  (2) 
energy

>  <rmsd>  (2) 
3.3082910855763337

>  <m_score__min__rmsd>  (2) 
3.3082910855763337

>  <meeko>  (2) 
{"free_energy": -7.05, "intermolecular_energy": -7.95, "internal_energy": -0.74, "cluster_size": 41, "cluster_id": 1, "rank_in_cluster": 2}

>  <energy>  (2) 
-7.05

>  <cluster_rmsd>  (2) 
0.08

>  <cluster>  (2) 
1

$$$$

     RDKit          3D

 38 40  0  0  0  0  0  0  0  0999 V2000
  140.6310   72.6100  220.8840 O   0  0  0  0  0  0  0  0  0  0  0  0
  140.1280   72.8840  222.0210 C   0  0  0  0  0  0  0  0  0  0  0  0
  139.5920   74.1930  222.1700 N   0  0  0  0  0  0  0  0  0  0  0  0
  139.6290   75.1290  221.0860 C   0  0  0  0  0  0  0  0  0  0  0  0
  140.7400   76.1010  221.2020 C   0  0  0  0  0  0  0  0  0  0  0  0
  141.8050   75.8400  220.6070 O   0  0  0  0  0  0  0  0  0  0  0  0
  140.5240   77.2690  221.9830 N   0  0  0  0  0  0  0  0  0  0  0  0
  139.3150   77.6570  222.7130 C   0  0  0  0  0  0  0  0  0  0  0  0
  139.3260   79.1650  222.7320 C   0  0  0  0  0  0  0  0  0  0  0  0
  140.5950   79.5670  222.0060 C   0  0  0  0  0  0  0  0  0  0  0  0
  141.4640   78.3460  222.2320 C   0  0  0  0  0  0  0  0  0  0  0  0
  140.1050   71.9100  223.1090 C   0  0  0  0  0  0  0  0  0  0  0  0
  139.5850   70.6600  222.8420 C   0  0  0  0  0  0  0  0  0  0  0  0
  139.5700   69.7410  223.8880 C   0  0  0  0  0  0  0  0  0  0  0  0
  140.0690   70.1070  225.1430 C   0  0  0  0  0  0  0  0  0  0  0  0
  140.0290   69.1510  226.1500 C   0  0  0  0  0  0  0  0  0  0  0  0
  140.5290   69.5360  227.3830 C   0  0  0  0  0  0  0  0  0  0  0  0
  140.5250   68.4020  228.7250 Cl  0  0  0  0  0  0  0  0  0  0  0  0
  141.0430   70.7890  227.6290 C   0  0  0  0  0  0  0  0  0  0  0  0
  141.0540   71.6910  226.5870 C   0  0  0  0  0  0  0  0  0  0  0  0
  140.5750   71.3750  225.3400 C   0  0  0  0  0  0  0  0  0  0  0  0
  140.5860   72.2670  224.3110 N   0  0  0  0  0  0  0  0  0  0  0  0
  139.1690   74.4710  223.0800 H   0  0  0  0  0  0  0  0  0  0  0  0
  139.7469   74.5718  220.1449 H   0  0  0  0  0  0  0  0  0  0  0  0
  138.6882   75.6985  221.1092 H   0  0  0  0  0  0  0  0  0  0  0  0
  138.4176   77.2850  222.1969 H   0  0  0  0  0  0  0  0  0  0  0  0
  139.2969   77.2350  223.7287 H   0  0  0  0  0  0  0  0  0  0  0  0
  138.4423   79.5630  222.2117 H   0  0  0  0  0  0  0  0  0  0  0  0
  139.2981   79.5616  223.7576 H   0  0  0  0  0  0  0  0  0  0  0  0
  140.4099   79.7372  220.9351 H   0  0  0  0  0  0  0  0  0  0  0  0
  141.0389   80.5087  222.3613 H   0  0  0  0  0  0  0  0  0  0  0  0
  142.3057   78.3158  221.5244 H   0  0  0  0  0  0  0  0  0  0  0  0
  141.9341   78.3090  223.2258 H   0  0  0  0  0  0  0  0  0  0  0  0
  139.1988   70.4006  221.8452 H   0  0  0  0  0  0  0  0  0  0  0  0
  139.1670   68.7300  223.7282 H   0  0  0  0  0  0  0  0  0  0  0  0
  139.6226   68.1435  225.9777 H   0  0  0  0  0  0  0  0  0  0  0  0
  141.4311   71.0607  228.6218 H   0  0  0  0  0  0  0  0  0  0  0  0
  141.4604   72.6983  226.7605 H   0  0  0  0  0  0  0  0  0  0  0  0
  1  2  2  0
  2  3  1  0
  3  4  1  0
  4  5  1  0
  5  6  2  0
  5  7  1  0
  7  8  1  0
  8  9  1  0
  9 10  1  0
 10 11  1  0
  2 12  1  0
 12 13  2  0
 13 14  1  0
 14 15  2  0
 15 16  1  0
 16 17  2  0
 17 18  1  0
 17 19  1  0
 19 20  2  0
 20 21  1  0
 21 22  2  0
 11  7  1  0
 22 12  1  0
 21 15  1  0
  3 23  1  0
  4 24  1  0
  4 25  1  0
  8 26  1  0
  8 27  1  0
  9 28  1  0
  9 29  1  0
 10 30  1  0
 10 31  1  0
 11 32  1  0
 11 33  1  0
 13 34  1  0
 14 35  1  0
 16 36  1  0
 19 37  1  0
 20 38  1  0
M  END
>  <smiles>  (3) 
O=C(NCC(=O)N1CCCC1)c1ccc2cc(Cl)ccc2n1

>  <score_type>  (3) 
oracle

>  <origin>  (3) 
autodockgpu

>  <m_score__min__energy>  (3) 
-7.0599999999999996

>  <m_primary>  (3) 
energy

>  <rmsd>  (3) 
3.1851446433815886

>  <m_score__min__rmsd>  (3) 
3.1851446433815886

>  <meeko>  (3) 
{"free_energy": -6.94, "intermolecular_energy": -7.84, "internal_energy": -0.72, "cluster_size": 41, "cluster_id": 1, "rank_in_cluster": 16}

>  <energy>  (3) 
-7.05

>  <cluster_rmsd>  (3) 
0.28

>  <cluster>  (3) 
1

$$$$

     RDKit          3D

 38 40  0  0  0  0  0  0  0  0999 V2000
  141.0340   71.2100  221.6250 O   0  0  0  0  0  0  0  0  0  0  0  0
  140.7770   72.3290  222.1770 C   0  0  0  0  0  0  0  0  0  0  0  0
  140.1890   72.2680  223.4700 N   0  0  0  0  0  0  0  0  0  0  0  0
  139.9130   71.0090  224.0930 C   0  0  0  0  0  0  0  0  0  0  0  0
  140.5360   70.8780  225.4290 C   0  0  0  0  0  0  0  0  0  0  0  0
  141.0450   71.8980  225.9360 O   0  0  0  0  0  0  0  0  0  0  0  0
  140.5180   69.5990  226.0510 N   0  0  0  0  0  0  0  0  0  0  0  0
  139.9490   68.3520  225.5350 C   0  0  0  0  0  0  0  0  0  0  0  0
  139.5440   67.5640  226.7550 C   0  0  0  0  0  0  0  0  0  0  0  0
  139.9370   68.4240  227.9400 C   0  0  0  0  0  0  0  0  0  0  0  0
  141.0660   69.2430  227.3460 C   0  0  0  0  0  0  0  0  0  0  0  0
  141.0700   73.5980  221.5170 C   0  0  0  0  0  0  0  0  0  0  0  0
  141.7330   73.5580  220.3080 C   0  0  0  0  0  0  0  0  0  0  0  0
  142.0060   74.7750  219.6910 C   0  0  0  0  0  0  0  0  0  0  0  0
  141.6080   75.9690  220.3020 C   0  0  0  0  0  0  0  0  0  0  0  0
  141.9050   77.1550  219.6420 C   0  0  0  0  0  0  0  0  0  0  0  0
  141.5020   78.3240  220.2660 C   0  0  0  0  0  0  0  0  0  0  0  0
  141.8300   79.8790  219.5150 Cl  0  0  0  0  0  0  0  0  0  0  0  0
  140.8410   78.3430  221.4730 C   0  0  0  0  0  0  0  0  0  0  0  0
  140.5770   77.1330  222.0760 C   0  0  0  0  0  0  0  0  0  0  0  0
  140.9480   75.9370  221.5130 C   0  0  0  0  0  0  0  0  0  0  0  0
  140.6850   74.7420  222.1090 N   0  0  0  0  0  0  0  0  0  0  0  0
  139.9580   73.1530  223.9680 H   0  0  0  0  0  0  0  0  0  0  0  0
  138.8236   70.9028  224.2019 H   0  0  0  0  0  0  0  0  0  0  0  0
  140.3392   70.2233  223.4519 H   0  0  0  0  0  0  0  0  0  0  0  0
  139.0732   68.5607  224.9030 H   0  0  0  0  0  0  0  0  0  0  0  0
  140.6679   67.8008  224.9111 H   0  0  0  0  0  0  0  0  0  0  0  0
  138.4589   67.3837  226.7537 H   0  0  0  0  0  0  0  0  0  0  0  0
  140.0320   66.5787  226.7855 H   0  0  0  0  0  0  0  0  0  0  0  0
  139.1042   69.0634  228.2682 H   0  0  0  0  0  0  0  0  0  0  0  0
  140.2159   67.8547  228.8390 H   0  0  0  0  0  0  0  0  0  0  0  0
  141.2759   70.1364  227.9524 H   0  0  0  0  0  0  0  0  0  0  0  0
  142.0266   68.7095  227.2941 H   0  0  0  0  0  0  0  0  0  0  0  0
  142.0334   72.6037  219.8507 H   0  0  0  0  0  0  0  0  0  0  0  0
  142.5331   74.7982  218.7258 H   0  0  0  0  0  0  0  0  0  0  0  0
  142.4316   77.1650  218.6763 H   0  0  0  0  0  0  0  0  0  0  0  0
  140.5344   79.2908  221.9396 H   0  0  0  0  0  0  0  0  0  0  0  0
  140.0508   77.1247  223.0419 H   0  0  0  0  0  0  0  0  0  0  0  0
  1  2  2  0
  2  3  1  0
  3  4  1  0
  4  5  1  0
  5  6  2  0
  5  7  1  0
  7  8  1  0
  8  9  1  0
  9 10  1  0
 10 11  1  0
  2 12  1  0
 12 13  2  0
 13 14  1  0
 14 15  2  0
 15 16  1  0
 16 17  2  0
 17 18  1  0
 17 19  1  0
 19 20  2  0
 20 21  1  0
 21 22  2  0
 11  7  1  0
 22 12  1  0
 21 15  1  0
  3 23  1  0
  4 24  1  0
  4 25  1  0
  8 26  1  0
  8 27  1  0
  9 28  1  0
  9 29  1  0
 10 30  1  0
 10 31  1  0
 11 32  1  0
 11 33  1  0
 13 34  1  0
 14 35  1  0
 16 36  1  0
 19 37  1  0
 20 38  1  0
M  END
>  <smiles>  (4) 
O=C(NCC(=O)N1CCCC1)c1ccc2cc(Cl)ccc2n1

>  <score_type>  (4) 
oracle

>  <origin>  (4) 
autodockgpu

>  <m_score__min__energy>  (4) 
-7.0599999999999996

>  <m_primary>  (4) 
energy

>  <rmsd>  (4) 
8.905707045273973

>  <m_score__min__rmsd>  (4) 
8.905707045273973

>  <meeko>  (4) 
{"free_energy": -6.7, "intermolecular_energy": -7.59, "internal_energy": -1.05, "cluster_size": 8, "cluster_id": 3, "rank_in_cluster": 4}

>  <energy>  (4) 
-7.05

>  <cluster_rmsd>  (4) 
0.04

>  <cluster>  (4) 
1

$$$$

     RDKit          3D

 38 40  0  0  0  0  0  0  0  0999 V2000
  140.9990   73.9200  220.9770 O   0  0  0  0  0  0  0  0  0  0  0  0
  140.1960   73.8740  221.9650 C   0  0  0  0  0  0  0  0  0  0  0  0
  139.5800   75.1030  222.3290 N   0  0  0  0  0  0  0  0  0  0  0  0
  139.8650   76.3080  221.6100 C   0  0  0  0  0  0  0  0  0  0  0  0
  139.4960   77.5290  222.3620 C   0  0  0  0  0  0  0  0  0  0  0  0
  138.3770   77.5560  222.9130 O   0  0  0  0  0  0  0  0  0  0  0  0
  140.4390   78.5920  222.4100 N   0  0  0  0  0  0  0  0  0  0  0  0
  141.7680   78.6490  221.7970 C   0  0  0  0  0  0  0  0  0  0  0  0
  142.5780   79.5590  222.6850 C   0  0  0  0  0  0  0  0  0  0  0  0
  141.6290   80.0030  223.7810 C   0  0  0  0  0  0  0  0  0  0  0  0
  140.2900   79.8690  223.0820 C   0  0  0  0  0  0  0  0  0  0  0  0
  139.9250   72.6300  222.6800 C   0  0  0  0  0  0  0  0  0  0  0  0
  138.9530   71.7930  222.1720 C   0  0  0  0  0  0  0  0  0  0  0  0
  138.7050   70.6110  222.8630 C   0  0  0  0  0  0  0  0  0  0  0  0
  139.4320   70.3190  224.0230 C   0  0  0  0  0  0  0  0  0  0  0  0
  139.1440   69.1250  224.6730 C   0  0  0  0  0  0  0  0  0  0  0  0
  139.8770   68.8570  225.8180 C   0  0  0  0  0  0  0  0  0  0  0  0
  139.5910   67.3740  226.7170 Cl  0  0  0  0  0  0  0  0  0  0  0  0
  140.8430   69.7050  226.3100 C   0  0  0  0  0  0  0  0  0  0  0  0
  141.0800   70.8730  225.6170 C   0  0  0  0  0  0  0  0  0  0  0  0
  140.3910   71.2000  224.4760 C   0  0  0  0  0  0  0  0  0  0  0  0
  140.6260   72.3540  223.7920 N   0  0  0  0  0  0  0  0  0  0  0  0
  138.9140   75.1220  223.1290 H   0  0  0  0  0  0  0  0  0  0  0  0
  140.9431   76.3412  221.3941 H   0  0  0  0  0  0  0  0  0  0  0  0
  139.2633   76.2930  220.6893 H   0  0  0  0  0  0  0  0  0  0  0  0
  142.2184   77.6461  221.7600 H   0  0  0  0  0  0  0  0  0  0  0  0
  141.7261   79.0179  220.7615 H   0  0  0  0  0  0  0  0  0  0  0  0
  143.4337   79.0165  223.1135 H   0  0  0  0  0  0  0  0  0  0  0  0
  142.9880   80.4144  222.1281 H   0  0  0  0  0  0  0  0  0  0  0  0
  141.6925   79.3452  224.6603 H   0  0  0  0  0  0  0  0  0  0  0  0
  141.8339   81.0090  224.1759 H   0  0  0  0  0  0  0  0  0  0  0  0
  139.4604   79.8484  223.8041 H   0  0  0  0  0  0  0  0  0  0  0  0
  140.0513   80.7047  222.4077 H   0  0  0  0  0  0  0  0  0  0  0  0
  138.3969   72.0495  221.2582 H   0  0  0  0  0  0  0  0  0  0  0  0
  137.9406   69.9087  222.4991 H   0  0  0  0  0  0  0  0  0  0  0  0
  138.3767   68.4311  224.2993 H   0  0  0  0  0  0  0  0  0  0  0  0
  141.4055   69.4597  227.2229 H   0  0  0  0  0  0  0  0  0  0  0  0
  141.8475   71.5665  225.9913 H   0  0  0  0  0  0  0  0  0  0  0  0
  1  2  2  0
  2  3  1  0
  3  4  1  0
  4  5  1  0
  5  6  2  0
  5  7  1  0
  7  8  1  0
  8  9  1  0
  9 10  1  0
 10 11  1  0
  2 12  1  0
 12 13  2  0
 13 14  1  0
 14 15  2  0
 15 16  1  0
 16 17  2  0
 17 18  1  0
 17 19  1  0
 19 20  2  0
 20 21  1  0
 21 22  2  0
 11  7  1  0
 22 12  1  0
 21 15  1  0
  3 23  1  0
  4 24  1  0
  4 25  1  0
  8 26  1  0
  8 27  1  0
  9 28  1  0
  9 29  1  0
 10 30  1  0
 10 31  1  0
 11 32  1  0
 11 33  1  0
 13 34  1  0
 14 35  1  0
 16 36  1  0
 19 37  1  0
 20 38  1  0
M  END
>  <smiles>  (5) 
O=C(NCC(=O)N1CCCC1)c1ccc2cc(Cl)ccc2n1

>  <score_type>  (5) 
oracle

>  <origin>  (5) 
autodockgpu

>  <m_score__min__energy>  (5) 
-7.0599999999999996

>  <m_primary>  (5) 
energy

>  <rmsd>  (5) 
4.071003382981316

>  <m_score__min__rmsd>  (5) 
4.071003382981316

>  <meeko>  (5) 
{"free_energy": -6.92, "intermolecular_energy": -7.81, "internal_energy": -0.86, "cluster_size": 41, "cluster_id": 1, "rank_in_cluster": 20}

>  <energy>  (5) 
-7.05

>  <cluster_rmsd>  (5) 
0.04

>  <cluster>  (5) 
1

$$$$

     RDKit          3D

 38 40  0  0  0  0  0  0  0  0999 V2000
  140.0520   72.2150  220.7410 O   0  0  0  0  0  0  0  0  0  0  0  0
  139.8990   72.5770  221.9530 C   0  0  0  0  0  0  0  0  0  0  0  0
  139.6680   73.9640  222.1680 N   0  0  0  0  0  0  0  0  0  0  0  0
  139.6140   74.8780  221.0670 C   0  0  0  0  0  0  0  0  0  0  0  0
  139.8310   76.2850  221.4760 C   0  0  0  0  0  0  0  0  0  0  0  0
  139.6340   76.5790  222.6730 O   0  0  0  0  0  0  0  0  0  0  0  0
  140.2480   77.2110  220.4810 N   0  0  0  0  0  0  0  0  0  0  0  0
  140.5010   76.9580  219.0600 C   0  0  0  0  0  0  0  0  0  0  0  0
  141.5450   77.9680  218.6560 C   0  0  0  0  0  0  0  0  0  0  0  0
  141.8240   78.7830  219.9040 C   0  0  0  0  0  0  0  0  0  0  0  0
  140.5160   78.6260  220.6550 C   0  0  0  0  0  0  0  0  0  0  0  0
  139.9600   71.6210  223.0550 C   0  0  0  0  0  0  0  0  0  0  0  0
  139.5040   70.3400  222.8230 C   0  0  0  0  0  0  0  0  0  0  0  0
  139.5670   69.4400  223.8820 C   0  0  0  0  0  0  0  0  0  0  0  0
  140.0770   69.8550  225.1180 C   0  0  0  0  0  0  0  0  0  0  0  0
  140.1170   68.9150  226.1400 C   0  0  0  0  0  0  0  0  0  0  0  0
  140.6260   69.3480  227.3530 C   0  0  0  0  0  0  0  0  0  0  0  0
  140.7210   68.2390  228.7130 Cl  0  0  0  0  0  0  0  0  0  0  0  0
  141.0760   70.6320  227.5660 C   0  0  0  0  0  0  0  0  0  0  0  0
  141.0090   71.5150  226.5100 C   0  0  0  0  0  0  0  0  0  0  0  0
  140.5160   71.1520  225.2810 C   0  0  0  0  0  0  0  0  0  0  0  0
  140.4510   72.0250  224.2390 N   0  0  0  0  0  0  0  0  0  0  0  0
  139.5360   74.3140  223.1390 H   0  0  0  0  0  0  0  0  0  0  0  0
  140.3919   74.5994  220.3408 H   0  0  0  0  0  0  0  0  0  0  0  0
  138.6059   74.8120  220.6318 H   0  0  0  0  0  0  0  0  0  0  0  0
  140.8769   75.9349  218.9117 H   0  0  0  0  0  0  0  0  0  0  0  0
  139.5854   77.0510  218.4574 H   0  0  0  0  0  0  0  0  0  0  0  0
  142.4597   77.4604  218.3158 H   0  0  0  0  0  0  0  0  0  0  0  0
  141.2011   78.6001  217.8240 H   0  0  0  0  0  0  0  0  0  0  0  0
  142.6689   78.3702  220.4748 H   0  0  0  0  0  0  0  0  0  0  0  0
  142.1101   79.8268  219.7077 H   0  0  0  0  0  0  0  0  0  0  0  0
  140.6298   78.8853  221.7179 H   0  0  0  0  0  0  0  0  0  0  0  0
  139.7106   79.2819  220.2930 H   0  0  0  0  0  0  0  0  0  0  0  0
  139.1070   70.0424  221.8413 H   0  0  0  0  0  0  0  0  0  0  0  0
  139.2172   68.4057  223.7486 H   0  0  0  0  0  0  0  0  0  0  0  0
  139.7638   67.8835  225.9939 H   0  0  0  0  0  0  0  0  0  0  0  0
  141.4744   70.9416  228.5435 H   0  0  0  0  0  0  0  0  0  0  0  0
  141.3627   72.5462  226.6568 H   0  0  0  0  0  0  0  0  0  0  0  0
  1  2  2  0
  2  3  1  0
  3  4  1  0
  4  5  1  0
  5  6  2  0
  5  7  1  0
  7  8  1  0
  8  9  1  0
  9 10  1  0
 10 11  1  0
  2 12  1  0
 12 13  2  0
 13 14  1  0
 14 15  2  0
 15 16  1  0
 16 17  2  0
 17 18  1  0
 17 19  1  0
 19 20  2  0
 20 21  1  0
 21 22  2  0
 11  7  1  0
 22 12  1  0
 21 15  1  0
  3 23  1  0
  4 24  1  0
  4 25  1  0
  8 26  1  0
  8 27  1  0
  9 28  1  0
  9 29  1  0
 10 30  1  0
 10 31  1  0
 11 32  1  0
 11 33  1  0
 13 34  1  0
 14 35  1  0
 16 36  1  0
 19 37  1  0
 20 38  1  0
M  END
>  <smiles>  (6) 
O=C(NCC(=O)N1CCCC1)c1ccc2cc(Cl)ccc2n1

>  <score_type>  (6) 
oracle

>  <origin>  (6) 
autodockgpu

>  <m_score__min__energy>  (6) 
-7.0599999999999996

>  <m_primary>  (6) 
energy

>  <rmsd>  (6) 
2.2615188655064413

>  <m_score__min__rmsd>  (6) 
2.2615188655064413

>  <meeko>  (6) 
{"free_energy": -6.41, "intermolecular_energy": -7.3, "internal_energy": -1.2, "cluster_size": 41, "cluster_id": 1, "rank_in_cluster": 39}

>  <energy>  (6) 
-7.04

>  <cluster_rmsd>  (6) 
0.24

>  <cluster>  (6) 
1

$$$$

     RDKit          3D

 38 40  0  0  0  0  0  0  0  0999 V2000
  140.2950   72.5210  220.8890 O   0  0  0  0  0  0  0  0  0  0  0  0
  139.9700   72.8170  222.0840 C   0  0  0  0  0  0  0  0  0  0  0  0
  139.5720   74.1640  222.3090 N   0  0  0  0  0  0  0  0  0  0  0  0
  139.5470   75.1110  221.2360 C   0  0  0  0  0  0  0  0  0  0  0  0
  139.4530   76.5120  221.7060 C   0  0  0  0  0  0  0  0  0  0  0  0
  138.8300   76.7300  222.7650 O   0  0  0  0  0  0  0  0  0  0  0  0
  140.0760   77.5210  220.9210 N   0  0  0  0  0  0  0  0  0  0  0  0
  140.8220   77.3620  219.6710 C   0  0  0  0  0  0  0  0  0  0  0  0
  141.8220   78.4910  219.6570 C   0  0  0  0  0  0  0  0  0  0  0  0
  141.5670   79.2720  220.9310 C   0  0  0  0  0  0  0  0  0  0  0  0
  140.1090   78.9470  221.1890 C   0  0  0  0  0  0  0  0  0  0  0  0
  140.0060   71.8300  223.1600 C   0  0  0  0  0  0  0  0  0  0  0  0
  139.5330   70.5630  222.8860 C   0  0  0  0  0  0  0  0  0  0  0  0
  139.5730   69.6320  223.9200 C   0  0  0  0  0  0  0  0  0  0  0  0
  140.0790   70.0040  225.1720 C   0  0  0  0  0  0  0  0  0  0  0  0
  140.0960   69.0350  226.1670 C   0  0  0  0  0  0  0  0  0  0  0  0
  140.6000   69.4260  227.3960 C   0  0  0  0  0  0  0  0  0  0  0  0
  140.6660   68.2770  228.7240 Cl  0  0  0  0  0  0  0  0  0  0  0  0
  141.0670   70.6960  227.6490 C   0  0  0  0  0  0  0  0  0  0  0  0
  141.0220   71.6090  226.6190 C   0  0  0  0  0  0  0  0  0  0  0  0
  140.5350   71.2890  225.3760 C   0  0  0  0  0  0  0  0  0  0  0  0
  140.4930   72.1920  224.3580 N   0  0  0  0  0  0  0  0  0  0  0  0
  139.2970   74.4610  223.2690 H   0  0  0  0  0  0  0  0  0  0  0  0
  140.4697   74.9993  220.6477 H   0  0  0  0  0  0  0  0  0  0  0  0
  138.6500   74.9040  220.6338 H   0  0  0  0  0  0  0  0  0  0  0  0
  141.3376   76.3905  219.6511 H   0  0  0  0  0  0  0  0  0  0  0  0
  140.1604   77.3897  218.7926 H   0  0  0  0  0  0  0  0  0  0  0  0
  142.8484   78.0956  219.6471 H   0  0  0  0  0  0  0  0  0  0  0  0
  141.7136   79.1218  218.7624 H   0  0  0  0  0  0  0  0  0  0  0  0
  142.2093   78.9232  221.7530 H   0  0  0  0  0  0  0  0  0  0  0  0
  141.7825   80.3478  220.8518 H   0  0  0  0  0  0  0  0  0  0  0  0
  139.8268   79.1665  222.2293 H   0  0  0  0  0  0  0  0  0  0  0  0
  139.4053   79.5332  220.5798 H   0  0  0  0  0  0  0  0  0  0  0  0
  139.1409   70.2999  221.8925 H   0  0  0  0  0  0  0  0  0  0  0  0
  139.2084   68.6075  223.7544 H   0  0  0  0  0  0  0  0  0  0  0  0
  139.7293   68.0134  225.9885 H   0  0  0  0  0  0  0  0  0  0  0  0
  141.4618   70.9716  228.6380 H   0  0  0  0  0  0  0  0  0  0  0  0
  141.3891   72.6303  226.7985 H   0  0  0  0  0  0  0  0  0  0  0  0
  1  2  2  0
  2  3  1  0
  3  4  1  0
  4  5  1  0
  5  6  2  0
  5  7  1  0
  7  8  1  0
  8  9  1  0
  9 10  1  0
 10 11  1  0
  2 12  1  0
 12 13  2  0
 13 14  1  0
 14 15  2  0
 15 16  1  0
 16 17  2  0
 17 18  1  0
 17 19  1  0
 19 20  2  0
 20 21  1  0
 21 22  2  0
 11  7  1  0
 22 12  1  0
 21 15  1  0
  3 23  1  0
  4 24  1  0
  4 25  1  0
  8 26  1  0
  8 27  1  0
  9 28  1  0
  9 29  1  0
 10 30  1  0
 10 31  1  0
 11 32  1  0
 11 33  1  0
 13 34  1  0
 14 35  1  0
 16 36  1  0
 19 37  1  0
 20 38  1  0
M  END
>  <smiles>  (7) 
O=C(NCC(=O)N1CCCC1)c1ccc2cc(Cl)ccc2n1

>  <score_type>  (7) 
oracle

>  <origin>  (7) 
autodockgpu

>  <m_score__min__energy>  (7) 
-7.0599999999999996

>  <m_primary>  (7) 
energy

>  <rmsd>  (7) 
2.5715394909464635

>  <m_score__min__rmsd>  (7) 
2.5715394909464635

>  <meeko>  (7) 
{"free_energy": -6.57, "intermolecular_energy": -7.47, "internal_energy": -1.09, "cluster_size": 41, "cluster_id": 1, "rank_in_cluster": 35}

>  <energy>  (7) 
-7.04

>  <cluster_rmsd>  (7) 
0.06

>  <cluster>  (7) 
1

$$$$

     RDKit          3D

 38 40  0  0  0  0  0  0  0  0999 V2000
  139.8040   72.1730  220.8170 O   0  0  0  0  0  0  0  0  0  0  0  0
  139.7550   72.5310  222.0380 C   0  0  0  0  0  0  0  0  0  0  0  0
  139.5880   73.9230  222.2770 N   0  0  0  0  0  0  0  0  0  0  0  0
  139.4840   74.8470  221.1890 C   0  0  0  0  0  0  0  0  0  0  0  0
  139.5160   76.2600  221.6280 C   0  0  0  0  0  0  0  0  0  0  0  0
  138.9830   76.5420  222.7210 O   0  0  0  0  0  0  0  0  0  0  0  0
  140.1500   77.2080  220.7790 N   0  0  0  0  0  0  0  0  0  0  0  0
  140.7970   76.9720  219.4870 C   0  0  0  0  0  0  0  0  0  0  0  0
  141.8660   78.0300  219.3770 C   0  0  0  0  0  0  0  0  0  0  0  0
  141.7510   78.8530  220.6460 C   0  0  0  0  0  0  0  0  0  0  0  0
  140.2960   78.6340  221.0080 C   0  0  0  0  0  0  0  0  0  0  0  0
  139.8650   71.5650  223.1280 C   0  0  0  0  0  0  0  0  0  0  0  0
  139.4500   70.2710  222.8860 C   0  0  0  0  0  0  0  0  0  0  0  0
  139.5600   69.3610  223.9340 C   0  0  0  0  0  0  0  0  0  0  0  0
  140.0740   69.7790  225.1670 C   0  0  0  0  0  0  0  0  0  0  0  0
  140.1620   68.8300  226.1770 C   0  0  0  0  0  0  0  0  0  0  0  0
  140.6730   69.2660  227.3880 C   0  0  0  0  0  0  0  0  0  0  0  0
  140.8260   68.1450  228.7330 Cl  0  0  0  0  0  0  0  0  0  0  0  0
  141.0810   70.5620  227.6100 C   0  0  0  0  0  0  0  0  0  0  0  0
  140.9670   71.4550  226.5660 C   0  0  0  0  0  0  0  0  0  0  0  0
  140.4700   71.0890  225.3400 C   0  0  0  0  0  0  0  0  0  0  0  0
  140.3590   71.9710  224.3090 N   0  0  0  0  0  0  0  0  0  0  0  0
  139.5420   74.2700  223.2580 H   0  0  0  0  0  0  0  0  0  0  0  0
  140.3242   74.6743  220.5004 H   0  0  0  0  0  0  0  0  0  0  0  0
  138.5130   74.6748  220.7015 H   0  0  0  0  0  0  0  0  0  0  0  0
  141.2447   75.9677  219.4583 H   0  0  0  0  0  0  0  0  0  0  0  0
  140.0804   77.0255  218.6541 H   0  0  0  0  0  0  0  0  0  0  0  0
  142.8610   77.5660  219.3082 H   0  0  0  0  0  0  0  0  0  0  0  0
  141.7385   78.6479  218.4759 H   0  0  0  0  0  0  0  0  0  0  0  0
  142.4228   78.4778  221.4320 H   0  0  0  0  0  0  0  0  0  0  0  0
  142.0322   79.9096  220.5259 H   0  0  0  0  0  0  0  0  0  0  0  0
  140.1002   78.8940  222.0587 H   0  0  0  0  0  0  0  0  0  0  0  0
  139.5932   79.2541  220.4321 H   0  0  0  0  0  0  0  0  0  0  0  0
  139.0492   69.9714  221.9064 H   0  0  0  0  0  0  0  0  0  0  0  0
  139.2439   68.3168  223.7934 H   0  0  0  0  0  0  0  0  0  0  0  0
  139.8431   67.7885  226.0234 H   0  0  0  0  0  0  0  0  0  0  0  0
  141.4834   70.8737  228.5852 H   0  0  0  0  0  0  0  0  0  0  0  0
  141.2852   72.4965  226.7208 H   0  0  0  0  0  0  0  0  0  0  0  0
  1  2  2  0
  2  3  1  0
  3  4  1  0
  4  5  1  0
  5  6  2  0
  5  7  1  0
  7  8  1  0
  8  9  1  0
  9 10  1  0
 10 11  1  0
  2 12  1  0
 12 13  2  0
 13 14  1  0
 14 15  2  0
 15 16  1  0
 16 17  2  0
 17 18  1  0
 17 19  1  0
 19 20  2  0
 20 21  1  0
 21 22  2  0
 11  7  1  0
 22 12  1  0
 21 15  1  0
  3 23  1  0
  4 24  1  0
  4 25  1  0
  8 26  1  0
  8 27  1  0
  9 28  1  0
  9 29  1  0
 10 30  1  0
 10 31  1  0
 11 32  1  0
 11 33  1  0
 13 34  1  0
 14 35  1  0
 16 36  1  0
 19 37  1  0
 20 38  1  0
M  END
>  <smiles>  (8) 
O=C(NCC(=O)N1CCCC1)c1ccc2cc(Cl)ccc2n1

>  <score_type>  (8) 
oracle

>  <origin>  (8) 
autodockgpu

>  <m_score__min__energy>  (8) 
-7.0599999999999996

>  <m_primary>  (8) 
energy

>  <rmsd>  (8) 
2.349002536145302

>  <m_score__min__rmsd>  (8) 
2.349002536145302

>  <meeko>  (8) 
{"free_energy": -6.51, "intermolecular_energy": -7.41, "internal_energy": -1.12, "cluster_size": 41, "cluster_id": 1, "rank_in_cluster": 38}

>  <energy>  (8) 
-7.04

>  <cluster_rmsd>  (8) 
0.2

>  <cluster>  (8) 
1

$$$$

     RDKit          3D

 38 40  0  0  0  0  0  0  0  0999 V2000
  140.2080   72.5410  220.8430 O   0  0  0  0  0  0  0  0  0  0  0  0
  139.9260   72.8520  222.0450 C   0  0  0  0  0  0  0  0  0  0  0  0
  139.5630   74.2080  222.2720 N   0  0  0  0  0  0  0  0  0  0  0  0
  139.5240   75.1480  221.1920 C   0  0  0  0  0  0  0  0  0  0  0  0
  139.4620   76.5540  221.6530 C   0  0  0  0  0  0  0  0  0  0  0  0
  138.8600   76.7890  222.7210 O   0  0  0  0  0  0  0  0  0  0  0  0
  140.0900   77.5460  220.8520 N   0  0  0  0  0  0  0  0  0  0  0  0
  140.8140   77.3650  219.5920 C   0  0  0  0  0  0  0  0  0  0  0  0
  141.8330   78.4760  219.5540 C   0  0  0  0  0  0  0  0  0  0  0  0
  141.6130   79.2690  220.8270 C   0  0  0  0  0  0  0  0  0  0  0  0
  140.1530   78.9730  221.1090 C   0  0  0  0  0  0  0  0  0  0  0  0
  139.9760   71.8720  223.1260 C   0  0  0  0  0  0  0  0  0  0  0  0
  139.5170   70.5980  222.8620 C   0  0  0  0  0  0  0  0  0  0  0  0
  139.5690   69.6740  223.9020 C   0  0  0  0  0  0  0  0  0  0  0  0
  140.0730   70.0600  225.1500 C   0  0  0  0  0  0  0  0  0  0  0  0
  140.1020   69.0970  226.1510 C   0  0  0  0  0  0  0  0  0  0  0  0
  140.6040   69.5010  227.3770 C   0  0  0  0  0  0  0  0  0  0  0  0
  140.6850   68.3620  228.7120 Cl  0  0  0  0  0  0  0  0  0  0  0  0
  141.0560   70.7780  227.6210 C   0  0  0  0  0  0  0  0  0  0  0  0
  141.0000   71.6850  226.5860 C   0  0  0  0  0  0  0  0  0  0  0  0
  140.5150   71.3510  225.3450 C   0  0  0  0  0  0  0  0  0  0  0  0
  140.4600   72.2470  224.3220 N   0  0  0  0  0  0  0  0  0  0  0  0
  139.3230   74.5180  223.2360 H   0  0  0  0  0  0  0  0  0  0  0  0
  140.4297   75.0186  220.5813 H   0  0  0  0  0  0  0  0  0  0  0  0
  138.6089   74.9495  220.6148 H   0  0  0  0  0  0  0  0  0  0  0  0
  141.3123   76.3846  219.5716 H   0  0  0  0  0  0  0  0  0  0  0  0
  140.1395   77.3979  218.7237 H   0  0  0  0  0  0  0  0  0  0  0  0
  142.8521   78.0626  219.5295 H   0  0  0  0  0  0  0  0  0  0  0  0
  141.7206   79.1031  218.6573 H   0  0  0  0  0  0  0  0  0  0  0  0
  142.2612   78.9126  221.6411 H   0  0  0  0  0  0  0  0  0  0  0  0
  141.8478   80.3400  220.7383 H   0  0  0  0  0  0  0  0  0  0  0  0
  139.8904   79.2051  222.1517 H   0  0  0  0  0  0  0  0  0  0  0  0
  139.4511   79.5678  220.5061 H   0  0  0  0  0  0  0  0  0  0  0  0
  139.1262   70.3237  221.8710 H   0  0  0  0  0  0  0  0  0  0  0  0
  139.2154   68.6444  223.7439 H   0  0  0  0  0  0  0  0  0  0  0  0
  139.7460   68.0705  225.9793 H   0  0  0  0  0  0  0  0  0  0  0  0
  141.4482   71.0641  228.6081 H   0  0  0  0  0  0  0  0  0  0  0  0
  141.3557   72.7114  226.7590 H   0  0  0  0  0  0  0  0  0  0  0  0
  1  2  2  0
  2  3  1  0
  3  4  1  0
  4  5  1  0
  5  6  2  0
  5  7  1  0
  7  8  1  0
  8  9  1  0
  9 10  1  0
 10 11  1  0
  2 12  1  0
 12 13  2  0
 13 14  1  0
 14 15  2  0
 15 16  1  0
 16 17  2  0
 17 18  1  0
 17 19  1  0
 19 20  2  0
 20 21  1  0
 21 22  2  0
 11  7  1  0
 22 12  1  0
 21 15  1  0
  3 23  1  0
  4 24  1  0
  4 25  1  0
  8 26  1  0
  8 27  1  0
  9 28  1  0
  9 29  1  0
 10 30  1  0
 10 31  1  0
 11 32  1  0
 11 33  1  0
 13 34  1  0
 14 35  1  0
 16 36  1  0
 19 37  1  0
 20 38  1  0
M  END
>  <smiles>  (9) 
O=C(NCC(=O)N1CCCC1)c1ccc2cc(Cl)ccc2n1

>  <score_type>  (9) 
oracle

>  <origin>  (9) 
autodockgpu

>  <m_score__min__energy>  (9) 
-7.0599999999999996

>  <m_primary>  (9) 
energy

>  <rmsd>  (9) 
2.5654665927707123

>  <m_score__min__rmsd>  (9) 
2.5654665927707123

>  <meeko>  (9) 
{"free_energy": -6.56, "intermolecular_energy": -7.45, "internal_energy": -1.1, "cluster_size": 41, "cluster_id": 1, "rank_in_cluster": 36}

>  <energy>  (9) 
-7.03

>  <cluster_rmsd>  (9) 
0.27

>  <cluster>  (9) 
1

$$$$

     RDKit          3D

 38 40  0  0  0  0  0  0  0  0999 V2000
  140.8890   71.2050  221.6350 O   0  0  0  0  0  0  0  0  0  0  0  0
  140.7040   72.3190  222.2250 C   0  0  0  0  0  0  0  0  0  0  0  0
  140.1870   72.2480  223.5480 N   0  0  0  0  0  0  0  0  0  0  0  0
  139.9020   70.9850  224.1580 C   0  0  0  0  0  0  0  0  0  0  0  0
  140.5100   70.8440  225.5010 C   0  0  0  0  0  0  0  0  0  0  0  0
  140.9970   71.8640  226.0290 O   0  0  0  0  0  0  0  0  0  0  0  0
  140.5020   69.5560  226.1040 N   0  0  0  0  0  0  0  0  0  0  0  0
  139.9580   68.3090  225.5630 C   0  0  0  0  0  0  0  0  0  0  0  0
  139.5490   67.4970  226.7660 C   0  0  0  0  0  0  0  0  0  0  0  0
  139.9140   68.3460  227.9680 C   0  0  0  0  0  0  0  0  0  0  0  0
  141.0380   69.1900  227.4010 C   0  0  0  0  0  0  0  0  0  0  0  0
  141.0040   73.5920  221.5760 C   0  0  0  0  0  0  0  0  0  0  0  0
  141.6380   73.5580  220.3510 C   0  0  0  0  0  0  0  0  0  0  0  0
  141.9170   74.7790  219.7450 C   0  0  0  0  0  0  0  0  0  0  0  0
  141.5560   75.9710  220.3830 C   0  0  0  0  0  0  0  0  0  0  0  0
  141.8590   77.1610  219.7320 C   0  0  0  0  0  0  0  0  0  0  0  0
  141.4920   78.3270  220.3830 C   0  0  0  0  0  0  0  0  0  0  0  0
  141.8300   79.8870  219.6470 Cl  0  0  0  0  0  0  0  0  0  0  0  0
  140.8610   78.3410  221.6060 C   0  0  0  0  0  0  0  0  0  0  0  0
  140.5890   77.1270  222.1970 C   0  0  0  0  0  0  0  0  0  0  0  0
  140.9240   75.9330  221.6080 C   0  0  0  0  0  0  0  0  0  0  0  0
  140.6540   74.7340  222.1930 N   0  0  0  0  0  0  0  0  0  0  0  0
  140.0160   73.1290  224.0760 H   0  0  0  0  0  0  0  0  0  0  0  0
  138.8112   70.8794  224.2536 H   0  0  0  0  0  0  0  0  0  0  0  0
  140.3340   70.2031  223.5161 H   0  0  0  0  0  0  0  0  0  0  0  0
  139.0873   68.5144  224.9229 H   0  0  0  0  0  0  0  0  0  0  0  0
  140.6929   67.7775  224.9406 H   0  0  0  0  0  0  0  0  0  0  0  0
  138.4668   67.3006  226.7479 H   0  0  0  0  0  0  0  0  0  0  0  0
  140.0509   66.5184  226.7888 H   0  0  0  0  0  0  0  0  0  0  0  0
  139.0676   68.9682  228.2942 H   0  0  0  0  0  0  0  0  0  0  0  0
  140.1900   67.7680  228.8623 H   0  0  0  0  0  0  0  0  0  0  0  0
  141.2262   70.0778  228.0226 H   0  0  0  0  0  0  0  0  0  0  0  0
  142.0072   68.6718  227.3547 H   0  0  0  0  0  0  0  0  0  0  0  0
  141.9114   72.6055  219.8735 H   0  0  0  0  0  0  0  0  0  0  0  0
  142.4200   74.8072  218.7671 H   0  0  0  0  0  0  0  0  0  0  0  0
  142.3623   77.1759  218.7540 H   0  0  0  0  0  0  0  0  0  0  0  0
  140.5840   79.2873  222.0937 H   0  0  0  0  0  0  0  0  0  0  0  0
  140.0858   77.1137  223.1751 H   0  0  0  0  0  0  0  0  0  0  0  0
  1  2  2  0
  2  3  1  0
  3  4  1  0
  4  5  1  0
  5  6  2  0
  5  7  1  0
  7  8  1  0
  8  9  1  0
  9 10  1  0
 10 11  1  0
  2 12  1  0
 12 13  2  0
 13 14  1  0
 14 15  2  0
 15 16  1  0
 16 17  2  0
 17 18  1  0
 17 19  1  0
 19 20  2  0
 20 21  1  0
 21 22  2  0
 11  7  1  0
 22 12  1  0
 21 15  1  0
  3 23  1  0
  4 24  1  0
  4 25  1  0
  8 26  1  0
  8 27  1  0
  9 28  1  0
  9 29  1  0
 10 30  1  0
 10 31  1  0
 11 32  1  0
 11 33  1  0
 13 34  1  0
 14 35  1  0
 16 36  1  0
 19 37  1  0
 20 38  1  0
M  END
>  <smiles>  (10) 
O=C(NCC(=O)N1CCCC1)c1ccc2cc(Cl)ccc2n1

>  <score_type>  (10) 
oracle

>  <origin>  (10) 
autodockgpu

>  <m_score__min__energy>  (10) 
-7.0599999999999996

>  <m_primary>  (10) 
energy

>  <rmsd>  (10) 
8.908178616503504

>  <m_score__min__rmsd>  (10) 
8.908178616503504

>  <meeko>  (10) 
{"free_energy": -6.64, "intermolecular_energy": -7.54, "internal_energy": -1.09, "cluster_size": 8, "cluster_id": 3, "rank_in_cluster": 7}

>  <energy>  (10) 
-7.03

>  <cluster_rmsd>  (10) 
0.2

>  <cluster>  (10) 
1

$$$$

     RDKit          3D

 38 40  0  0  0  0  0  0  0  0999 V2000
  141.0010   71.2830  221.5810 O   0  0  0  0  0  0  0  0  0  0  0  0
  140.7590   72.3770  222.1870 C   0  0  0  0  0  0  0  0  0  0  0  0
  140.1830   72.2610  223.4820 N   0  0  0  0  0  0  0  0  0  0  0  0
  139.9030   70.9760  224.0490 C   0  0  0  0  0  0  0  0  0  0  0  0
  140.5330   70.7820  225.3750 C   0  0  0  0  0  0  0  0  0  0  0  0
  141.0490   71.7760  225.9250 O   0  0  0  0  0  0  0  0  0  0  0  0
  140.5130   69.4760  225.9370 N   0  0  0  0  0  0  0  0  0  0  0  0
  139.9360   68.2560  225.3680 C   0  0  0  0  0  0  0  0  0  0  0  0
  139.5340   67.4140  226.5520 C   0  0  0  0  0  0  0  0  0  0  0  0
  139.9370   68.2180  227.7740 C   0  0  0  0  0  0  0  0  0  0  0  0
  141.0660   69.0590  227.2120 C   0  0  0  0  0  0  0  0  0  0  0  0
  141.0550   73.6730  221.5830 C   0  0  0  0  0  0  0  0  0  0  0  0
  141.7460   73.6840  220.3890 C   0  0  0  0  0  0  0  0  0  0  0  0
  142.0220   74.9270  219.8250 C   0  0  0  0  0  0  0  0  0  0  0  0
  141.6000   76.0930  220.4730 C   0  0  0  0  0  0  0  0  0  0  0  0
  141.9010   77.3060  219.8650 C   0  0  0  0  0  0  0  0  0  0  0  0
  141.4730   78.4460  220.5240 C   0  0  0  0  0  0  0  0  0  0  0  0
  141.8040   80.0320  219.8420 Cl  0  0  0  0  0  0  0  0  0  0  0  0
  140.7850   78.4140  221.7160 C   0  0  0  0  0  0  0  0  0  0  0  0
  140.5180   77.1790  222.2660 C   0  0  0  0  0  0  0  0  0  0  0  0
  140.9120   76.0090  221.6660 C   0  0  0  0  0  0  0  0  0  0  0  0
  140.6470   74.7900  222.2090 N   0  0  0  0  0  0  0  0  0  0  0  0
  139.9650   73.1240  224.0220 H   0  0  0  0  0  0  0  0  0  0  0  0
  138.8136   70.8707  224.1591 H   0  0  0  0  0  0  0  0  0  0  0  0
  140.3209   70.2175  223.3707 H   0  0  0  0  0  0  0  0  0  0  0  0
  139.0578   68.4970  224.7511 H   0  0  0  0  0  0  0  0  0  0  0  0
  140.6498   67.7312  224.7160 H   0  0  0  0  0  0  0  0  0  0  0  0
  138.4482   67.2380  226.5481 H   0  0  0  0  0  0  0  0  0  0  0  0
  140.0178   66.4263  226.5345 H   0  0  0  0  0  0  0  0  0  0  0  0
  139.1085   68.8448  228.1356 H   0  0  0  0  0  0  0  0  0  0  0  0
  140.2184   67.6071  228.6444 H   0  0  0  0  0  0  0  0  0  0  0  0
  141.2825   69.9230  227.8574 H   0  0  0  0  0  0  0  0  0  0  0  0
  142.0241   68.5248  227.1308 H   0  0  0  0  0  0  0  0  0  0  0  0
  142.0655   72.7503  219.9030 H   0  0  0  0  0  0  0  0  0  0  0  0
  142.5699   74.9919  218.8734 H   0  0  0  0  0  0  0  0  0  0  0  0
  142.4491   77.3575  218.9127 H   0  0  0  0  0  0  0  0  0  0  0  0
  140.4601   79.3408  222.2115 H   0  0  0  0  0  0  0  0  0  0  0  0
  139.9703   77.1291  223.2186 H   0  0  0  0  0  0  0  0  0  0  0  0
  1  2  2  0
  2  3  1  0
  3  4  1  0
  4  5  1  0
  5  6  2  0
  5  7  1  0
  7  8  1  0
  8  9  1  0
  9 10  1  0
 10 11  1  0
  2 12  1  0
 12 13  2  0
 13 14  1  0
 14 15  2  0
 15 16  1  0
 16 17  2  0
 17 18  1  0
 17 19  1  0
 19 20  2  0
 20 21  1  0
 21 22  2  0
 11  7  1  0
 22 12  1  0
 21 15  1  0
  3 23  1  0
  4 24  1  0
  4 25  1  0
  8 26  1  0
  8 27  1  0
  9 28  1  0
  9 29  1  0
 10 30  1  0
 10 31  1  0
 11 32  1  0
 11 33  1  0
 13 34  1  0
 14 35  1  0
 16 36  1  0
 19 37  1  0
 20 38  1  0
M  END
>  <smiles>  (11) 
O=C(NCC(=O)N1CCCC1)c1ccc2cc(Cl)ccc2n1

>  <score_type>  (11) 
oracle

>  <origin>  (11) 
autodockgpu

>  <m_score__min__energy>  (11) 
-7.0599999999999996

>  <m_primary>  (11) 
energy

>  <rmsd>  (11) 
8.892914747577604

>  <m_score__min__rmsd>  (11) 
8.892914747577604

>  <meeko>  (11) 
{"free_energy": -6.69, "intermolecular_energy": -7.59, "internal_energy": -1.06, "cluster_size": 8, "cluster_id": 3, "rank_in_cluster": 5}

>  <energy>  (11) 
-7.03

>  <cluster_rmsd>  (11) 
0.2

>  <cluster>  (11) 
1

$$$$

     RDKit          3D

 38 40  0  0  0  0  0  0  0  0999 V2000
  140.9590   73.8340  220.9640 O   0  0  0  0  0  0  0  0  0  0  0  0
  140.1740   73.8030  221.9660 C   0  0  0  0  0  0  0  0  0  0  0  0
  139.5720   75.0390  222.3290 N   0  0  0  0  0  0  0  0  0  0  0  0
  139.8510   76.2350  221.5920 C   0  0  0  0  0  0  0  0  0  0  0  0
  139.4930   77.4650  222.3350 C   0  0  0  0  0  0  0  0  0  0  0  0
  138.3980   77.4850  222.9340 O   0  0  0  0  0  0  0  0  0  0  0  0
  140.4160   78.5460  222.3170 N   0  0  0  0  0  0  0  0  0  0  0  0
  141.7160   78.6140  221.6450 C   0  0  0  0  0  0  0  0  0  0  0  0
  142.5470   79.5580  222.4770 C   0  0  0  0  0  0  0  0  0  0  0  0
  141.6380   80.0090  223.6040 C   0  0  0  0  0  0  0  0  0  0  0  0
  140.2730   79.8350  222.9680 C   0  0  0  0  0  0  0  0  0  0  0  0
  139.9090   72.5680  222.6990 C   0  0  0  0  0  0  0  0  0  0  0  0
  138.9550   71.7090  222.1910 C   0  0  0  0  0  0  0  0  0  0  0  0
  138.7120   70.5360  222.9000 C   0  0  0  0  0  0  0  0  0  0  0  0
  139.4260   70.2740  224.0750 C   0  0  0  0  0  0  0  0  0  0  0  0
  139.1440   69.0880  224.7420 C   0  0  0  0  0  0  0  0  0  0  0  0
  139.8630   68.8490  225.9020 C   0  0  0  0  0  0  0  0  0  0  0  0
  139.5830   67.3790  226.8220 Cl  0  0  0  0  0  0  0  0  0  0  0  0
  140.8100   69.7190  226.3930 C   0  0  0  0  0  0  0  0  0  0  0  0
  141.0420   70.8770  225.6840 C   0  0  0  0  0  0  0  0  0  0  0  0
  140.3660   71.1760  224.5260 C   0  0  0  0  0  0  0  0  0  0  0  0
  140.5970   72.3200  223.8260 N   0  0  0  0  0  0  0  0  0  0  0  0
  138.9220   75.0710  223.1420 H   0  0  0  0  0  0  0  0  0  0  0  0
  140.9265   76.2636  221.3629 H   0  0  0  0  0  0  0  0  0  0  0  0
  139.2390   76.2107  220.6783 H   0  0  0  0  0  0  0  0  0  0  0  0
  142.1835   77.6189  221.6093 H   0  0  0  0  0  0  0  0  0  0  0  0
  141.6217   78.9596  220.6050 H   0  0  0  0  0  0  0  0  0  0  0  0
  143.4306   79.0406  222.8790 H   0  0  0  0  0  0  0  0  0  0  0  0
  142.9164   80.4081  221.8846 H   0  0  0  0  0  0  0  0  0  0  0  0
  141.7524   79.3723  224.4937 H   0  0  0  0  0  0  0  0  0  0  0  0
  141.8404   81.0272  223.9676 H   0  0  0  0  0  0  0  0  0  0  0  0
  139.4765   79.8154  223.7264 H   0  0  0  0  0  0  0  0  0  0  0  0
  139.9895   80.6510  222.2870 H   0  0  0  0  0  0  0  0  0  0  0  0
  138.4096   71.9418  221.2645 H   0  0  0  0  0  0  0  0  0  0  0  0
  137.9616   69.8176  222.5382 H   0  0  0  0  0  0  0  0  0  0  0  0
  138.3911   68.3778  224.3694 H   0  0  0  0  0  0  0  0  0  0  0  0
  141.3618   69.4974  227.3185 H   0  0  0  0  0  0  0  0  0  0  0  0
  141.7945   71.5868  226.0579 H   0  0  0  0  0  0  0  0  0  0  0  0
  1  2  2  0
  2  3  1  0
  3  4  1  0
  4  5  1  0
  5  6  2  0
  5  7  1  0
  7  8  1  0
  8  9  1  0
  9 10  1  0
 10 11  1  0
  2 12  1  0
 12 13  2  0
 13 14  1  0
 14 15  2  0
 15 16  1  0
 16 17  2  0
 17 18  1  0
 17 19  1  0
 19 20  2  0
 20 21  1  0
 21 22  2  0
 11  7  1  0
 22 12  1  0
 21 15  1  0
  3 23  1  0
  4 24  1  0
  4 25  1  0
  8 26  1  0
  8 27  1  0
  9 28  1  0
  9 29  1  0
 10 30  1  0
 10 31  1  0
 11 32  1  0
 11 33  1  0
 13 34  1  0
 14 35  1  0
 16 36  1  0
 19 37  1  0
 20 38  1  0
M  END
>  <smiles>  (12) 
O=C(NCC(=O)N1CCCC1)c1ccc2cc(Cl)ccc2n1

>  <score_type>  (12) 
oracle

>  <origin>  (12) 
autodockgpu

>  <m_score__min__energy>  (12) 
-7.0599999999999996

>  <m_primary>  (12) 
energy

>  <rmsd>  (12) 
3.9789842306267147

>  <m_score__min__rmsd>  (12) 
3.9789842306267147

>  <meeko>  (12) 
{"free_energy": -6.91, "intermolecular_energy": -7.8, "internal_energy": -0.88, "cluster_size": 41, "cluster_id": 1, "rank_in_cluster": 22}

>  <energy>  (12) 
-6.99

>  <cluster_rmsd>  (12) 
0.22

>  <cluster>  (12) 
1

$$$$

     RDKit          3D

 38 40  0  0  0  0  0  0  0  0999 V2000
  140.2470   72.1550  220.7840 O   0  0  0  0  0  0  0  0  0  0  0  0
  139.9330   72.4950  221.9710 C   0  0  0  0  0  0  0  0  0  0  0  0
  139.5430   73.8510  222.1510 N   0  0  0  0  0  0  0  0  0  0  0  0
  139.5120   74.7590  221.0440 C   0  0  0  0  0  0  0  0  0  0  0  0
  140.6920   75.6520  220.9990 C   0  0  0  0  0  0  0  0  0  0  0  0
  140.6640   76.6880  221.6940 O   0  0  0  0  0  0  0  0  0  0  0  0
  141.7810   75.2740  220.1670 N   0  0  0  0  0  0  0  0  0  0  0  0
  141.9020   74.0840  219.3210 C   0  0  0  0  0  0  0  0  0  0  0  0
  143.3790   73.7870  219.2580 C   0  0  0  0  0  0  0  0  0  0  0  0
  144.0440   74.8730  220.0820 C   0  0  0  0  0  0  0  0  0  0  0  0
  143.0270   75.9910  219.9700 C   0  0  0  0  0  0  0  0  0  0  0  0
  139.9750   71.5470  223.0810 C   0  0  0  0  0  0  0  0  0  0  0  0
  139.4980   70.2720  222.8560 C   0  0  0  0  0  0  0  0  0  0  0  0
  139.5440   69.3780  223.9220 C   0  0  0  0  0  0  0  0  0  0  0  0
  140.0590   69.7940  225.1560 C   0  0  0  0  0  0  0  0  0  0  0  0
  140.0810   68.8600  226.1850 C   0  0  0  0  0  0  0  0  0  0  0  0
  140.5950   69.2940  227.3960 C   0  0  0  0  0  0  0  0  0  0  0  0
  140.6680   68.1930  228.7640 Cl  0  0  0  0  0  0  0  0  0  0  0  0
  141.0650   70.5710  227.6000 C   0  0  0  0  0  0  0  0  0  0  0  0
  141.0150   71.4480  226.5380 C   0  0  0  0  0  0  0  0  0  0  0  0
  140.5190   71.0840  225.3110 C   0  0  0  0  0  0  0  0  0  0  0  0
  140.4710   71.9510  224.2620 N   0  0  0  0  0  0  0  0  0  0  0  0
  139.2770   74.1830  223.1010 H   0  0  0  0  0  0  0  0  0  0  0  0
  139.4775   74.1755  220.1121 H   0  0  0  0  0  0  0  0  0  0  0  0
  138.6215   75.3939  221.1623 H   0  0  0  0  0  0  0  0  0  0  0  0
  141.3578   73.2381  219.7663 H   0  0  0  0  0  0  0  0  0  0  0  0
  141.4742   74.2475  218.3209 H   0  0  0  0  0  0  0  0  0  0  0  0
  143.5907   72.7957  219.6852 H   0  0  0  0  0  0  0  0  0  0  0  0
  143.7498   73.7745  218.2225 H   0  0  0  0  0  0  0  0  0  0  0  0
  144.1836   74.5580  221.1267 H   0  0  0  0  0  0  0  0  0  0  0  0
  145.0536   75.1449  219.7403 H   0  0  0  0  0  0  0  0  0  0  0  0
  143.1797   76.7519  220.7496 H   0  0  0  0  0  0  0  0  0  0  0  0
  143.0774   76.5481  219.0228 H   0  0  0  0  0  0  0  0  0  0  0  0
  139.0981   69.9745  221.8754 H   0  0  0  0  0  0  0  0  0  0  0  0
  139.1772   68.3487  223.7955 H   0  0  0  0  0  0  0  0  0  0  0  0
  139.7109   67.8335  226.0456 H   0  0  0  0  0  0  0  0  0  0  0  0
  141.4664   70.8809  228.5761 H   0  0  0  0  0  0  0  0  0  0  0  0
  141.3851   72.4743  226.6784 H   0  0  0  0  0  0  0  0  0  0  0  0
  1  2  2  0
  2  3  1  0
  3  4  1  0
  4  5  1  0
  5  6  2  0
  5  7  1  0
  7  8  1  0
  8  9  1  0
  9 10  1  0
 10 11  1  0
  2 12  1  0
 12 13  2  0
 13 14  1  0
 14 15  2  0
 15 16  1  0
 16 17  2  0
 17 18  1  0
 17 19  1  0
 19 20  2  0
 20 21  1  0
 21 22  2  0
 11  7  1  0
 22 12  1  0
 21 15  1  0
  3 23  1  0
  4 24  1  0
  4 25  1  0
  8 26  1  0
  8 27  1  0
  9 28  1  0
  9 29  1  0
 10 30  1  0
 10 31  1  0
 11 32  1  0
 11 33  1  0
 13 34  1  0
 14 35  1  0
 16 36  1  0
 19 37  1  0
 20 38  1  0
M  END
>  <smiles>  (13) 
O=C(NCC(=O)N1CCCC1)c1ccc2cc(Cl)ccc2n1

>  <score_type>  (13) 
oracle

>  <origin>  (13) 
autodockgpu

>  <m_score__min__energy>  (13) 
-7.0599999999999996

>  <m_primary>  (13) 
energy

>  <rmsd>  (13) 
2.717253398527602

>  <m_score__min__rmsd>  (13) 
2.717253398527602

>  <meeko>  (13) 
{"free_energy": -6.68, "intermolecular_energy": -7.57, "internal_energy": -0.92, "cluster_size": 41, "cluster_id": 1, "rank_in_cluster": 30}

>  <energy>  (13) 
-6.98

>  <cluster_rmsd>  (13) 
0.21

>  <cluster>  (13) 
1

$$$$

     RDKit          3D

 38 40  0  0  0  0  0  0  0  0999 V2000
  140.9590   73.8720  220.9680 O   0  0  0  0  0  0  0  0  0  0  0  0
  140.1710   73.8390  221.9680 C   0  0  0  0  0  0  0  0  0  0  0  0
  139.5690   75.0760  222.3320 N   0  0  0  0  0  0  0  0  0  0  0  0
  139.8500   76.2730  221.5980 C   0  0  0  0  0  0  0  0  0  0  0  0
  139.4820   77.5010  222.3380 C   0  0  0  0  0  0  0  0  0  0  0  0
  138.3630   77.5360  222.8890 O   0  0  0  0  0  0  0  0  0  0  0  0
  140.4260   78.5640  222.3750 N   0  0  0  0  0  0  0  0  0  0  0  0
  141.7550   78.6140  221.7620 C   0  0  0  0  0  0  0  0  0  0  0  0
  142.5660   79.5320  222.6420 C   0  0  0  0  0  0  0  0  0  0  0  0
  141.6170   79.9880  223.7330 C   0  0  0  0  0  0  0  0  0  0  0  0
  140.2790   79.8480  223.0350 C   0  0  0  0  0  0  0  0  0  0  0  0
  139.9040   72.6030  222.6980 C   0  0  0  0  0  0  0  0  0  0  0  0
  138.9300   71.7610  222.2030 C   0  0  0  0  0  0  0  0  0  0  0  0
  138.6860   70.5860  222.9080 C   0  0  0  0  0  0  0  0  0  0  0  0
  139.4180   70.3060  224.0670 C   0  0  0  0  0  0  0  0  0  0  0  0
  139.1330   69.1200  224.7320 C   0  0  0  0  0  0  0  0  0  0  0  0
  139.8710   68.8640  225.8760 C   0  0  0  0  0  0  0  0  0  0  0  0
  139.5890   67.3910  226.7920 Cl  0  0  0  0  0  0  0  0  0  0  0  0
  140.8390   69.7180  226.3540 C   0  0  0  0  0  0  0  0  0  0  0  0
  141.0720   70.8780  225.6490 C   0  0  0  0  0  0  0  0  0  0  0  0
  140.3780   71.1930  224.5070 C   0  0  0  0  0  0  0  0  0  0  0  0
  140.6100   72.3390  223.8100 N   0  0  0  0  0  0  0  0  0  0  0  0
  138.9160   75.1060  223.1420 H   0  0  0  0  0  0  0  0  0  0  0  0
  140.9273   76.3052  221.3778 H   0  0  0  0  0  0  0  0  0  0  0  0
  139.2456   76.2470  220.6793 H   0  0  0  0  0  0  0  0  0  0  0  0
  142.2045   77.6104  221.7346 H   0  0  0  0  0  0  0  0  0  0  0  0
  141.7138   78.9732  220.7231 H   0  0  0  0  0  0  0  0  0  0  0  0
  143.4207   78.9926  223.0763 H   0  0  0  0  0  0  0  0  0  0  0  0
  142.9774   80.3814  222.0770 H   0  0  0  0  0  0  0  0  0  0  0  0
  141.6795   79.3392  224.6191 H   0  0  0  0  0  0  0  0  0  0  0  0
  141.8225   80.9978  224.1178 H   0  0  0  0  0  0  0  0  0  0  0  0
  139.4492   79.8353  223.7570 H   0  0  0  0  0  0  0  0  0  0  0  0
  140.0420   80.6772  222.3521 H   0  0  0  0  0  0  0  0  0  0  0  0
  138.3695   72.0079  221.2893 H   0  0  0  0  0  0  0  0  0  0  0  0
  137.9201   69.8797  222.5551 H   0  0  0  0  0  0  0  0  0  0  0  0
  138.3634   68.4224  224.3699 H   0  0  0  0  0  0  0  0  0  0  0  0
  141.4062   69.4824  227.2665 H   0  0  0  0  0  0  0  0  0  0  0  0
  141.8403   71.5759  226.0133 H   0  0  0  0  0  0  0  0  0  0  0  0
  1  2  2  0
  2  3  1  0
  3  4  1  0
  4  5  1  0
  5  6  2  0
  5  7  1  0
  7  8  1  0
  8  9  1  0
  9 10  1  0
 10 11  1  0
  2 12  1  0
 12 13  2  0
 13 14  1  0
 14 15  2  0
 15 16  1  0
 16 17  2  0
 17 18  1  0
 17 19  1  0
 19 20  2  0
 20 21  1  0
 21 22  2  0
 11  7  1  0
 22 12  1  0
 21 15  1  0
  3 23  1  0
  4 24  1  0
  4 25  1  0
  8 26  1  0
  8 27  1  0
  9 28  1  0
  9 29  1  0
 10 30  1  0
 10 31  1  0
 11 32  1  0
 11 33  1  0
 13 34  1  0
 14 35  1  0
 16 36  1  0
 19 37  1  0
 20 38  1  0
M  END
>  <smiles>  (14) 
O=C(NCC(=O)N1CCCC1)c1ccc2cc(Cl)ccc2n1

>  <score_type>  (14) 
oracle

>  <origin>  (14) 
autodockgpu

>  <m_score__min__energy>  (14) 
-7.0599999999999996

>  <m_primary>  (14) 
energy

>  <rmsd>  (14) 
4.032570408860315

>  <m_score__min__rmsd>  (14) 
4.032570408860315

>  <meeko>  (14) 
{"free_energy": -6.94, "intermolecular_energy": -7.83, "internal_energy": -0.86, "cluster_size": 41, "cluster_id": 1, "rank_in_cluster": 18}

>  <energy>  (14) 
-6.97

>  <cluster_rmsd>  (14) 
0.2

>  <cluster>  (14) 
1

$$$$

     RDKit          3D

 38 40  0  0  0  0  0  0  0  0999 V2000
  140.0170   72.5630  220.8670 O   0  0  0  0  0  0  0  0  0  0  0  0
  139.7970   72.8640  222.0850 C   0  0  0  0  0  0  0  0  0  0  0  0
  139.4560   74.2210  222.3420 N   0  0  0  0  0  0  0  0  0  0  0  0
  139.3730   75.1720  221.2750 C   0  0  0  0  0  0  0  0  0  0  0  0
  138.7370   76.4440  221.6860 C   0  0  0  0  0  0  0  0  0  0  0  0
  137.4910   76.4730  221.7650 O   0  0  0  0  0  0  0  0  0  0  0  0
  139.5830   77.5520  221.9650 N   0  0  0  0  0  0  0  0  0  0  0  0
  141.0450   77.6120  221.9000 C   0  0  0  0  0  0  0  0  0  0  0  0
  141.4480   78.6480  222.9180 C   0  0  0  0  0  0  0  0  0  0  0  0
  140.1490   79.1560  223.5130 C   0  0  0  0  0  0  0  0  0  0  0  0
  139.1800   78.8830  222.3800 C   0  0  0  0  0  0  0  0  0  0  0  0
  139.8900   71.8720  223.1530 C   0  0  0  0  0  0  0  0  0  0  0  0
  139.4750   70.5860  222.8750 C   0  0  0  0  0  0  0  0  0  0  0  0
  139.5690   69.6510  223.9020 C   0  0  0  0  0  0  0  0  0  0  0  0
  140.0690   70.0380  225.1510 C   0  0  0  0  0  0  0  0  0  0  0  0
  140.1420   69.0640  226.1390 C   0  0  0  0  0  0  0  0  0  0  0  0
  140.6390   69.4700  227.3660 C   0  0  0  0  0  0  0  0  0  0  0  0
  140.7730   68.3170  228.6850 Cl  0  0  0  0  0  0  0  0  0  0  0  0
  141.0480   70.7590  227.6240 C   0  0  0  0  0  0  0  0  0  0  0  0
  140.9510   71.6770  226.6000 C   0  0  0  0  0  0  0  0  0  0  0  0
  140.4670   71.3420  225.3600 C   0  0  0  0  0  0  0  0  0  0  0  0
  140.3710   72.2490  224.3490 N   0  0  0  0  0  0  0  0  0  0  0  0
  139.2660   74.5220  223.3210 H   0  0  0  0  0  0  0  0  0  0  0  0
  140.3905   75.3878  220.9171 H   0  0  0  0  0  0  0  0  0  0  0  0
  138.7471   74.7295  220.4860 H   0  0  0  0  0  0  0  0  0  0  0  0
  141.4820   76.6344  222.1518 H   0  0  0  0  0  0  0  0  0  0  0  0
  141.3997   77.8697  220.8911 H   0  0  0  0  0  0  0  0  0  0  0  0
  142.0777   78.1959  223.6984 H   0  0  0  0  0  0  0  0  0  0  0  0
  142.0348   79.4602  222.4642 H   0  0  0  0  0  0  0  0  0  0  0  0
  139.8757   78.5977  224.4206 H   0  0  0  0  0  0  0  0  0  0  0  0
  140.1810   80.2069  223.8365 H   0  0  0  0  0  0  0  0  0  0  0  0
  138.1378   78.8954  222.7316 H   0  0  0  0  0  0  0  0  0  0  0  0
  139.2114   79.6314  221.5745 H   0  0  0  0  0  0  0  0  0  0  0  0
  139.0862   70.3110  221.8834 H   0  0  0  0  0  0  0  0  0  0  0  0
  139.2515   68.6115  223.7327 H   0  0  0  0  0  0  0  0  0  0  0  0
  139.8225   68.0273  225.9566 H   0  0  0  0  0  0  0  0  0  0  0  0
  141.4381   71.0461  228.6116 H   0  0  0  0  0  0  0  0  0  0  0  0
  141.2724   72.7130  226.7829 H   0  0  0  0  0  0  0  0  0  0  0  0
  1  2  2  0
  2  3  1  0
  3  4  1  0
  4  5  1  0
  5  6  2  0
  5  7  1  0
  7  8  1  0
  8  9  1  0
  9 10  1  0
 10 11  1  0
  2 12  1  0
 12 13  2  0
 13 14  1  0
 14 15  2  0
 15 16  1  0
 16 17  2  0
 17 18  1  0
 17 19  1  0
 19 20  2  0
 20 21  1  0
 21 22  2  0
 11  7  1  0
 22 12  1  0
 21 15  1  0
  3 23  1  0
  4 24  1  0
  4 25  1  0
  8 26  1  0
  8 27  1  0
  9 28  1  0
  9 29  1  0
 10 30  1  0
 10 31  1  0
 11 32  1  0
 11 33  1  0
 13 34  1  0
 14 35  1  0
 16 36  1  0
 19 37  1  0
 20 38  1  0
M  END
>  <smiles>  (15) 
O=C(NCC(=O)N1CCCC1)c1ccc2cc(Cl)ccc2n1

>  <score_type>  (15) 
oracle

>  <origin>  (15) 
autodockgpu

>  <m_score__min__energy>  (15) 
-7.0599999999999996

>  <m_primary>  (15) 
energy

>  <rmsd>  (15) 
3.272727556970602

>  <m_score__min__rmsd>  (15) 
3.272727556970602

>  <meeko>  (15) 
{"free_energy": -7.04, "intermolecular_energy": -7.93, "internal_energy": -0.78, "cluster_size": 41, "cluster_id": 1, "rank_in_cluster": 7}

>  <energy>  (15) 
-6.95

>  <cluster_rmsd>  (15) 
0.99

>  <cluster>  (15) 
1

$$$$

     RDKit          3D

 38 40  0  0  0  0  0  0  0  0999 V2000
  140.5460   72.5870  220.8610 O   0  0  0  0  0  0  0  0  0  0  0  0
  140.0960   72.8760  222.0170 C   0  0  0  0  0  0  0  0  0  0  0  0
  139.6040   74.2000  222.1840 N   0  0  0  0  0  0  0  0  0  0  0  0
  139.6250   75.1340  221.0990 C   0  0  0  0  0  0  0  0  0  0  0  0
  140.7270   76.1170  221.2070 C   0  0  0  0  0  0  0  0  0  0  0  0
  141.7950   75.8610  220.6150 O   0  0  0  0  0  0  0  0  0  0  0  0
  140.5000   77.2900  221.9770 N   0  0  0  0  0  0  0  0  0  0  0  0
  139.2860   77.6730  222.7030 C   0  0  0  0  0  0  0  0  0  0  0  0
  139.2840   79.1810  222.7090 C   0  0  0  0  0  0  0  0  0  0  0  0
  140.5500   79.5890  221.9800 C   0  0  0  0  0  0  0  0  0  0  0  0
  141.4290   78.3780  222.2180 C   0  0  0  0  0  0  0  0  0  0  0  0
  140.0870   71.9030  223.1050 C   0  0  0  0  0  0  0  0  0  0  0  0
  139.5730   70.6490  222.8440 C   0  0  0  0  0  0  0  0  0  0  0  0
  139.5710   69.7310  223.8910 C   0  0  0  0  0  0  0  0  0  0  0  0
  140.0780   70.1030  225.1420 C   0  0  0  0  0  0  0  0  0  0  0  0
  140.0510   69.1470  226.1500 C   0  0  0  0  0  0  0  0  0  0  0  0
  140.5570   69.5370  227.3790 C   0  0  0  0  0  0  0  0  0  0  0  0
  140.5710   68.4050  228.7230 Cl  0  0  0  0  0  0  0  0  0  0  0  0
  141.0650   70.7930  227.6200 C   0  0  0  0  0  0  0  0  0  0  0  0
  141.0620   71.6940  226.5770 C   0  0  0  0  0  0  0  0  0  0  0  0
  140.5770   71.3740  225.3340 C   0  0  0  0  0  0  0  0  0  0  0  0
  140.5750   72.2640  224.3040 N   0  0  0  0  0  0  0  0  0  0  0  0
  139.2240   74.4900  223.1100 H   0  0  0  0  0  0  0  0  0  0  0  0
  139.7427   74.5765  220.1581 H   0  0  0  0  0  0  0  0  0  0  0  0
  138.6787   75.6941  221.1269 H   0  0  0  0  0  0  0  0  0  0  0  0
  138.3925   77.2887  222.1892 H   0  0  0  0  0  0  0  0  0  0  0  0
  139.2702   77.2592  223.7221 H   0  0  0  0  0  0  0  0  0  0  0  0
  138.3970   79.5667  222.1850 H   0  0  0  0  0  0  0  0  0  0  0  0
  139.2525   79.5857  223.7314 H   0  0  0  0  0  0  0  0  0  0  0  0
  140.3643   79.7480  220.9075 H   0  0  0  0  0  0  0  0  0  0  0  0
  140.9850   80.5381  222.3265 H   0  0  0  0  0  0  0  0  0  0  0  0
  142.2722   78.3493  221.5122 H   0  0  0  0  0  0  0  0  0  0  0  0
  141.8971   78.3540  223.2131 H   0  0  0  0  0  0  0  0  0  0  0  0
  139.1813   70.3857  221.8504 H   0  0  0  0  0  0  0  0  0  0  0  0
  139.1726   68.7175  223.7359 H   0  0  0  0  0  0  0  0  0  0  0  0
  139.6501   68.1367  225.9813 H   0  0  0  0  0  0  0  0  0  0  0  0
  141.4593   71.0680  228.6094 H   0  0  0  0  0  0  0  0  0  0  0  0
  141.4622   72.7044  226.7469 H   0  0  0  0  0  0  0  0  0  0  0  0
  1  2  2  0
  2  3  1  0
  3  4  1  0
  4  5  1  0
  5  6  2  0
  5  7  1  0
  7  8  1  0
  8  9  1  0
  9 10  1  0
 10 11  1  0
  2 12  1  0
 12 13  2  0
 13 14  1  0
 14 15  2  0
 15 16  1  0
 16 17  2  0
 17 18  1  0
 17 19  1  0
 19 20  2  0
 20 21  1  0
 21 22  2  0
 11  7  1  0
 22 12  1  0
 21 15  1  0
  3 23  1  0
  4 24  1  0
  4 25  1  0
  8 26  1  0
  8 27  1  0
  9 28  1  0
  9 29  1  0
 10 30  1  0
 10 31  1  0
 11 32  1  0
 11 33  1  0
 13 34  1  0
 14 35  1  0
 16 36  1  0
 19 37  1  0
 20 38  1  0
M  END
>  <smiles>  (16) 
O=C(NCC(=O)N1CCCC1)c1ccc2cc(Cl)ccc2n1

>  <score_type>  (16) 
oracle

>  <origin>  (16) 
autodockgpu

>  <m_score__min__energy>  (16) 
-7.0599999999999996

>  <m_primary>  (16) 
energy

>  <rmsd>  (16) 
3.181968758392417

>  <m_score__min__rmsd>  (16) 
3.181968758392417

>  <meeko>  (16) 
{"free_energy": -6.95, "intermolecular_energy": -7.84, "internal_energy": -0.73, "cluster_size": 41, "cluster_id": 1, "rank_in_cluster": 15}

>  <energy>  (16) 
-6.94

>  <cluster_rmsd>  (16) 
0.99

>  <cluster>  (16) 
1

$$$$

     RDKit          3D

 38 40  0  0  0  0  0  0  0  0999 V2000
  140.8370   72.7880  221.1410 O   0  0  0  0  0  0  0  0  0  0  0  0
  140.1160   72.9090  222.1850 C   0  0  0  0  0  0  0  0  0  0  0  0
  139.3190   74.0840  222.2630 N   0  0  0  0  0  0  0  0  0  0  0  0
  139.3440   75.0580  221.2140 C   0  0  0  0  0  0  0  0  0  0  0  0
  138.7140   76.3400  221.6050 C   0  0  0  0  0  0  0  0  0  0  0  0
  137.4680   76.3840  221.6570 O   0  0  0  0  0  0  0  0  0  0  0  0
  139.5670   77.4400  221.8950 N   0  0  0  0  0  0  0  0  0  0  0  0
  141.0310   77.4820  221.8600 C   0  0  0  0  0  0  0  0  0  0  0  0
  141.4240   78.5200  222.8810 C   0  0  0  0  0  0  0  0  0  0  0  0
  140.1190   79.0460  223.4460 C   0  0  0  0  0  0  0  0  0  0  0  0
  139.1710   78.7780  222.2940 C   0  0  0  0  0  0  0  0  0  0  0  0
  140.1120   71.8980  223.2390 C   0  0  0  0  0  0  0  0  0  0  0  0
  139.6120   70.6490  222.9310 C   0  0  0  0  0  0  0  0  0  0  0  0
  139.6140   69.6960  223.9450 C   0  0  0  0  0  0  0  0  0  0  0  0
  140.1110   70.0280  225.2110 C   0  0  0  0  0  0  0  0  0  0  0  0
  140.0890   69.0370  226.1850 C   0  0  0  0  0  0  0  0  0  0  0  0
  140.5850   69.3890  227.4300 C   0  0  0  0  0  0  0  0  0  0  0  0
  140.6030   68.2110  228.7330 Cl  0  0  0  0  0  0  0  0  0  0  0  0
  141.0800   70.6410  227.7170 C   0  0  0  0  0  0  0  0  0  0  0  0
  141.0730   71.5770  226.7060 C   0  0  0  0  0  0  0  0  0  0  0  0
  140.5960   71.2960  225.4500 C   0  0  0  0  0  0  0  0  0  0  0  0
  140.5910   72.2220  224.4510 N   0  0  0  0  0  0  0  0  0  0  0  0
  138.7110   74.2330  223.0950 H   0  0  0  0  0  0  0  0  0  0  0  0
  140.3913   75.2509  220.9386 H   0  0  0  0  0  0  0  0  0  0  0  0
  138.7681   74.6502  220.3701 H   0  0  0  0  0  0  0  0  0  0  0  0
  141.4511   76.5010  222.1266 H   0  0  0  0  0  0  0  0  0  0  0  0
  141.4103   77.7288  220.8574 H   0  0  0  0  0  0  0  0  0  0  0  0
  142.0322   78.0655  223.6769 H   0  0  0  0  0  0  0  0  0  0  0  0
  142.0289   79.3231  222.4348 H   0  0  0  0  0  0  0  0  0  0  0  0
  139.8203   78.4957  224.3504 H   0  0  0  0  0  0  0  0  0  0  0  0
  140.1563   80.0981  223.7650 H   0  0  0  0  0  0  0  0  0  0  0  0
  138.1218   78.8046  222.6232 H   0  0  0  0  0  0  0  0  0  0  0  0
  139.2283   79.5214  221.4853 H   0  0  0  0  0  0  0  0  0  0  0  0
  139.2282   70.4167  221.9266 H   0  0  0  0  0  0  0  0  0  0  0  0
  139.2262   68.6848  223.7524 H   0  0  0  0  0  0  0  0  0  0  0  0
  139.6995   68.0291  225.9790 H   0  0  0  0  0  0  0  0  0  0  0  0
  141.4671   70.8853  228.7172 H   0  0  0  0  0  0  0  0  0  0  0  0
  141.4632   72.5845  226.9126 H   0  0  0  0  0  0  0  0  0  0  0  0
  1  2  2  0
  2  3  1  0
  3  4  1  0
  4  5  1  0
  5  6  2  0
  5  7  1  0
  7  8  1  0
  8  9  1  0
  9 10  1  0
 10 11  1  0
  2 12  1  0
 12 13  2  0
 13 14  1  0
 14 15  2  0
 15 16  1  0
 16 17  2  0
 17 18  1  0
 17 19  1  0
 19 20  2  0
 20 21  1  0
 21 22  2  0
 11  7  1  0
 22 12  1  0
 21 15  1  0
  3 23  1  0
  4 24  1  0
  4 25  1  0
  8 26  1  0
  8 27  1  0
  9 28  1  0
  9 29  1  0
 10 30  1  0
 10 31  1  0
 11 32  1  0
 11 33  1  0
 13 34  1  0
 14 35  1  0
 16 36  1  0
 19 37  1  0
 20 38  1  0
M  END
>  <smiles>  (17) 
O=C(NCC(=O)N1CCCC1)c1ccc2cc(Cl)ccc2n1

>  <score_type>  (17) 
oracle

>  <origin>  (17) 
autodockgpu

>  <m_score__min__energy>  (17) 
-7.0599999999999996

>  <m_primary>  (17) 
energy

>  <rmsd>  (17) 
3.2336287168263733

>  <m_score__min__rmsd>  (17) 
3.2336287168263733

>  <meeko>  (17) 
{"free_energy": -7.04, "intermolecular_energy": -7.94, "internal_energy": -0.73, "cluster_size": 41, "cluster_id": 1, "rank_in_cluster": 6}

>  <energy>  (17) 
-6.94

>  <cluster_rmsd>  (17) 
1.22

>  <cluster>  (17) 
1

$$$$

     RDKit          3D

 38 40  0  0  0  0  0  0  0  0999 V2000
  140.7210   71.1800  221.5820 O   0  0  0  0  0  0  0  0  0  0  0  0
  140.6810   72.2690  222.2420 C   0  0  0  0  0  0  0  0  0  0  0  0
  140.3340   72.1560  223.6160 N   0  0  0  0  0  0  0  0  0  0  0  0
  140.0520   70.8790  224.1990 C   0  0  0  0  0  0  0  0  0  0  0  0
  140.6210   70.7280  225.5580 C   0  0  0  0  0  0  0  0  0  0  0  0
  141.1060   71.7410  226.1010 O   0  0  0  0  0  0  0  0  0  0  0  0
  140.5800   69.4400  226.1580 N   0  0  0  0  0  0  0  0  0  0  0  0
  140.0350   68.2000  225.6000 C   0  0  0  0  0  0  0  0  0  0  0  0
  139.5820   67.3920  226.7900 C   0  0  0  0  0  0  0  0  0  0  0  0
  139.9240   68.2340  228.0030 C   0  0  0  0  0  0  0  0  0  0  0  0
  141.0740   69.0650  227.4700 C   0  0  0  0  0  0  0  0  0  0  0  0
  140.9730   73.5570  221.6200 C   0  0  0  0  0  0  0  0  0  0  0  0
  141.5680   73.5510  220.3740 C   0  0  0  0  0  0  0  0  0  0  0  0
  141.8410   74.7860  219.7930 C   0  0  0  0  0  0  0  0  0  0  0  0
  141.5130   75.9630  220.4760 C   0  0  0  0  0  0  0  0  0  0  0  0
  141.8070   77.1670  219.8490 C   0  0  0  0  0  0  0  0  0  0  0  0
  141.4740   78.3190  220.5420 C   0  0  0  0  0  0  0  0  0  0  0  0
  141.8040   79.8950  219.8400 Cl  0  0  0  0  0  0  0  0  0  0  0  0
  140.8820   78.3040  221.7850 C   0  0  0  0  0  0  0  0  0  0  0  0
  140.6150   77.0760  222.3510 C   0  0  0  0  0  0  0  0  0  0  0  0
  140.9200   75.8960  221.7190 C   0  0  0  0  0  0  0  0  0  0  0  0
  140.6560   74.6840  222.2790 N   0  0  0  0  0  0  0  0  0  0  0  0
  140.2860   73.0150  224.2020 H   0  0  0  0  0  0  0  0  0  0  0  0
  138.9608   70.7539  224.2594 H   0  0  0  0  0  0  0  0  0  0  0  0
  140.5167   70.1141  223.5595 H   0  0  0  0  0  0  0  0  0  0  0  0
  139.1853   68.4173  224.9361 H   0  0  0  0  0  0  0  0  0  0  0  0
  140.7802   67.6596  224.9977 H   0  0  0  0  0  0  0  0  0  0  0  0
  138.4983   67.2098  226.7413 H   0  0  0  0  0  0  0  0  0  0  0  0
  140.0705   66.4071  226.8252 H   0  0  0  0  0  0  0  0  0  0  0  0
  139.0766   68.8663  228.3067 H   0  0  0  0  0  0  0  0  0  0  0  0
  140.1678   67.6507  228.9032 H   0  0  0  0  0  0  0  0  0  0  0  0
  141.2552   69.9494  228.0985 H   0  0  0  0  0  0  0  0  0  0  0  0
  142.0376   68.5348  227.4505 H   0  0  0  0  0  0  0  0  0  0  0  0
  141.8159   72.6095  219.8619 H   0  0  0  0  0  0  0  0  0  0  0  0
  142.3128   74.8369  218.8006 H   0  0  0  0  0  0  0  0  0  0  0  0
  142.2787   77.2036  218.8560 H   0  0  0  0  0  0  0  0  0  0  0  0
  140.6311   79.2388  222.3077 H   0  0  0  0  0  0  0  0  0  0  0  0
  140.1413   77.0401  223.3431 H   0  0  0  0  0  0  0  0  0  0  0  0
  1  2  2  0
  2  3  1  0
  3  4  1  0
  4  5  1  0
  5  6  2  0
  5  7  1  0
  7  8  1  0
  8  9  1  0
  9 10  1  0
 10 11  1  0
  2 12  1  0
 12 13  2  0
 13 14  1  0
 14 15  2  0
 15 16  1  0
 16 17  2  0
 17 18  1  0
 17 19  1  0
 19 20  2  0
 20 21  1  0
 21 22  2  0
 11  7  1  0
 22 12  1  0
 21 15  1  0
  3 23  1  0
  4 24  1  0
  4 25  1  0
  8 26  1  0
  8 27  1  0
  9 28  1  0
  9 29  1  0
 10 30  1  0
 10 31  1  0
 11 32  1  0
 11 33  1  0
 13 34  1  0
 14 35  1  0
 16 36  1  0
 19 37  1  0
 20 38  1  0
M  END
>  <smiles>  (18) 
O=C(NCC(=O)N1CCCC1)c1ccc2cc(Cl)ccc2n1

>  <score_type>  (18) 
oracle

>  <origin>  (18) 
autodockgpu

>  <m_score__min__energy>  (18) 
-7.0599999999999996

>  <m_primary>  (18) 
energy

>  <rmsd>  (18) 
8.927274196179656

>  <m_score__min__rmsd>  (18) 
8.927274196179656

>  <meeko>  (18) 
{"free_energy": -6.59, "intermolecular_energy": -7.48, "internal_energy": -1.15, "cluster_size": 8, "cluster_id": 3, "rank_in_cluster": 8}

>  <energy>  (18) 
-6.94

>  <cluster_rmsd>  (18) 
1.2

>  <cluster>  (18) 
1

$$$$

     RDKit          3D

 38 40  0  0  0  0  0  0  0  0999 V2000
  140.6130   73.8020  220.6650 O   0  0  0  0  0  0  0  0  0  0  0  0
  140.0310   73.7690  221.7980 C   0  0  0  0  0  0  0  0  0  0  0  0
  139.5930   75.0210  222.3120 N   0  0  0  0  0  0  0  0  0  0  0  0
  139.8050   76.2310  221.5780 C   0  0  0  0  0  0  0  0  0  0  0  0
  139.4870   77.4450  222.3650 C   0  0  0  0  0  0  0  0  0  0  0  0
  138.4160   77.4600  223.0040 O   0  0  0  0  0  0  0  0  0  0  0  0
  140.4210   78.5170  222.3430 N   0  0  0  0  0  0  0  0  0  0  0  0
  141.6960   78.5890  221.6250 C   0  0  0  0  0  0  0  0  0  0  0  0
  142.5670   79.5030  222.4510 C   0  0  0  0  0  0  0  0  0  0  0  0
  141.7050   79.9320  223.6220 C   0  0  0  0  0  0  0  0  0  0  0  0
  140.3160   79.7890  223.0320 C   0  0  0  0  0  0  0  0  0  0  0  0
  139.8290   72.5190  222.5240 C   0  0  0  0  0  0  0  0  0  0  0  0
  139.0930   71.5280  221.9070 C   0  0  0  0  0  0  0  0  0  0  0  0
  138.9080   70.3410  222.6110 C   0  0  0  0  0  0  0  0  0  0  0  0
  139.4600   70.1970  223.8890 C   0  0  0  0  0  0  0  0  0  0  0  0
  139.2450   68.9920  224.5450 C   0  0  0  0  0  0  0  0  0  0  0  0
  139.8010   68.8730  225.8080 C   0  0  0  0  0  0  0  0  0  0  0  0
  139.5870   67.3890  226.7260 Cl  0  0  0  0  0  0  0  0  0  0  0  0
  140.5310   69.8740  226.4070 C   0  0  0  0  0  0  0  0  0  0  0  0
  140.7080   71.0440  225.7020 C   0  0  0  0  0  0  0  0  0  0  0  0
  140.1850   71.2290  224.4460 C   0  0  0  0  0  0  0  0  0  0  0  0
  140.3610   72.3860  223.7500 N   0  0  0  0  0  0  0  0  0  0  0  0
  139.1110   75.0520  223.2350 H   0  0  0  0  0  0  0  0  0  0  0  0
  140.8610   76.2766  221.2735 H   0  0  0  0  0  0  0  0  0  0  0  0
  139.1295   76.2136  220.7100 H   0  0  0  0  0  0  0  0  0  0  0  0
  142.1509   77.5905  221.5464 H   0  0  0  0  0  0  0  0  0  0  0  0
  141.5679   78.9621  220.5982 H   0  0  0  0  0  0  0  0  0  0  0  0
  143.4593   78.9667  222.8062 H   0  0  0  0  0  0  0  0  0  0  0  0
  142.9231   80.3652  221.8681 H   0  0  0  0  0  0  0  0  0  0  0  0
  141.8448   79.2702  224.4894 H   0  0  0  0  0  0  0  0  0  0  0  0
  141.9317   80.9378  224.0053 H   0  0  0  0  0  0  0  0  0  0  0  0
  139.5473   79.7573  223.8182 H   0  0  0  0  0  0  0  0  0  0  0  0
  140.0171   80.6257  222.3835 H   0  0  0  0  0  0  0  0  0  0  0  0
  138.6703   71.6698  220.9014 H   0  0  0  0  0  0  0  0  0  0  0  0
  138.3297   69.5189  222.1640 H   0  0  0  0  0  0  0  0  0  0  0  0
  138.6652   68.1771  224.0869 H   0  0  0  0  0  0  0  0  0  0  0  0
  140.9578   69.7445  227.4125 H   0  0  0  0  0  0  0  0  0  0  0  0
  141.2882   71.8581  226.1609 H   0  0  0  0  0  0  0  0  0  0  0  0
  1  2  2  0
  2  3  1  0
  3  4  1  0
  4  5  1  0
  5  6  2  0
  5  7  1  0
  7  8  1  0
  8  9  1  0
  9 10  1  0
 10 11  1  0
  2 12  1  0
 12 13  2  0
 13 14  1  0
 14 15  2  0
 15 16  1  0
 16 17  2  0
 17 18  1  0
 17 19  1  0
 19 20  2  0
 20 21  1  0
 21 22  2  0
 11  7  1  0
 22 12  1  0
 21 15  1  0
  3 23  1  0
  4 24  1  0
  4 25  1  0
  8 26  1  0
  8 27  1  0
  9 28  1  0
  9 29  1  0
 10 30  1  0
 10 31  1  0
 11 32  1  0
 11 33  1  0
 13 34  1  0
 14 35  1  0
 16 36  1  0
 19 37  1  0
 20 38  1  0
M  END
>  <smiles>  (19) 
O=C(NCC(=O)N1CCCC1)c1ccc2cc(Cl)ccc2n1

>  <score_type>  (19) 
oracle

>  <origin>  (19) 
autodockgpu

>  <m_score__min__energy>  (19) 
-7.0599999999999996

>  <m_primary>  (19) 
energy

>  <rmsd>  (19) 
3.957805954270721

>  <m_score__min__rmsd>  (19) 
3.957805954270721

>  <meeko>  (19) 
{"free_energy": -6.83, "intermolecular_energy": -7.73, "internal_energy": -0.88, "cluster_size": 41, "cluster_id": 1, "rank_in_cluster": 27}

>  <energy>  (19) 
-6.93

>  <cluster_rmsd>  (19) 
1.21

>  <cluster>  (19) 
1

$$$$

     RDKit          3D

 38 40  0  0  0  0  0  0  0  0999 V2000
  139.8310   72.6430  220.7800 O   0  0  0  0  0  0  0  0  0  0  0  0
  139.7090   72.9150  222.0180 C   0  0  0  0  0  0  0  0  0  0  0  0
  139.4430   74.2760  222.3370 N   0  0  0  0  0  0  0  0  0  0  0  0
  139.3240   75.2610  221.3050 C   0  0  0  0  0  0  0  0  0  0  0  0
  138.7780   76.5470  221.7970 C   0  0  0  0  0  0  0  0  0  0  0  0
  137.5510   76.6110  222.0180 O   0  0  0  0  0  0  0  0  0  0  0  0
  139.6830   77.6260  221.9860 N   0  0  0  0  0  0  0  0  0  0  0  0
  141.1290   77.6440  221.7550 C   0  0  0  0  0  0  0  0  0  0  0  0
  141.6770   78.6560  222.7290 C   0  0  0  0  0  0  0  0  0  0  0  0
  140.4700   79.1940  223.4730 C   0  0  0  0  0  0  0  0  0  0  0  0
  139.3710   78.9630  222.4560 C   0  0  0  0  0  0  0  0  0  0  0  0
  139.8360   71.8890  223.0490 C   0  0  0  0  0  0  0  0  0  0  0  0
  139.4450   70.6040  222.7300 C   0  0  0  0  0  0  0  0  0  0  0  0
  139.5710   69.6360  223.7210 C   0  0  0  0  0  0  0  0  0  0  0  0
  140.0770   69.9890  224.9780 C   0  0  0  0  0  0  0  0  0  0  0  0
  140.1810   68.9820  225.9300 C   0  0  0  0  0  0  0  0  0  0  0  0
  140.6840   69.3550  227.1650 C   0  0  0  0  0  0  0  0  0  0  0  0
  140.8570   68.1590  228.4410 Cl  0  0  0  0  0  0  0  0  0  0  0  0
  141.0680   70.6430  227.4650 C   0  0  0  0  0  0  0  0  0  0  0  0
  140.9390   71.5940  226.4760 C   0  0  0  0  0  0  0  0  0  0  0  0
  140.4480   71.2930  225.2290 C   0  0  0  0  0  0  0  0  0  0  0  0
  140.3220   72.2330  224.2530 N   0  0  0  0  0  0  0  0  0  0  0  0
  139.3340   74.5540  223.3340 H   0  0  0  0  0  0  0  0  0  0  0  0
  140.3208   75.4435  220.8771 H   0  0  0  0  0  0  0  0  0  0  0  0
  138.6220   74.8696  220.5539 H   0  0  0  0  0  0  0  0  0  0  0  0
  141.5619   76.6512  221.9471 H   0  0  0  0  0  0  0  0  0  0  0  0
  141.3740   77.9031  220.7144 H   0  0  0  0  0  0  0  0  0  0  0  0
  142.3779   78.1767  223.4283 H   0  0  0  0  0  0  0  0  0  0  0  0
  142.2325   79.4562  222.2180 H   0  0  0  0  0  0  0  0  0  0  0  0
  140.2852   78.6328  224.4008 H   0  0  0  0  0  0  0  0  0  0  0  0
  140.5702   80.2394  223.8001 H   0  0  0  0  0  0  0  0  0  0  0  0
  138.3764   79.0017  222.9243 H   0  0  0  0  0  0  0  0  0  0  0  0
  139.3337   79.7198  221.6586 H   0  0  0  0  0  0  0  0  0  0  0  0
  139.0503   70.3559  221.7337 H   0  0  0  0  0  0  0  0  0  0  0  0
  139.2741   68.5965  223.5178 H   0  0  0  0  0  0  0  0  0  0  0  0
  139.8804   67.9461  225.7144 H   0  0  0  0  0  0  0  0  0  0  0  0
  141.4633   70.9033  228.4580 H   0  0  0  0  0  0  0  0  0  0  0  0
  141.2396   72.6297  226.6927 H   0  0  0  0  0  0  0  0  0  0  0  0
  1  2  2  0
  2  3  1  0
  3  4  1  0
  4  5  1  0
  5  6  2  0
  5  7  1  0
  7  8  1  0
  8  9  1  0
  9 10  1  0
 10 11  1  0
  2 12  1  0
 12 13  2  0
 13 14  1  0
 14 15  2  0
 15 16  1  0
 16 17  2  0
 17 18  1  0
 17 19  1  0
 19 20  2  0
 20 21  1  0
 21 22  2  0
 11  7  1  0
 22 12  1  0
 21 15  1  0
  3 23  1  0
  4 24  1  0
  4 25  1  0
  8 26  1  0
  8 27  1  0
  9 28  1  0
  9 29  1  0
 10 30  1  0
 10 31  1  0
 11 32  1  0
 11 33  1  0
 13 34  1  0
 14 35  1  0
 16 36  1  0
 19 37  1  0
 20 38  1  0
M  END
>  <smiles>  (20) 
O=C(NCC(=O)N1CCCC1)c1ccc2cc(Cl)ccc2n1

>  <score_type>  (20) 
oracle

>  <origin>  (20) 
autodockgpu

>  <m_score__min__energy>  (20) 
-7.0599999999999996

>  <m_primary>  (20) 
energy

>  <rmsd>  (20) 
3.2780849992016123

>  <m_score__min__rmsd>  (20) 
3.2780849992016123

>  <meeko>  (20) 
{"free_energy": -6.99, "intermolecular_energy": -7.89, "internal_energy": -0.8, "cluster_size": 41, "cluster_id": 1, "rank_in_cluster": 12}

>  <energy>  (20) 
-6.92

>  <cluster_rmsd>  (20) 
1.22

>  <cluster>  (20) 
1

$$$$

     RDKit          3D

 38 40  0  0  0  0  0  0  0  0999 V2000
  139.6250   72.0090  220.7740 O   0  0  0  0  0  0  0  0  0  0  0  0
  139.6540   72.3990  221.9860 C   0  0  0  0  0  0  0  0  0  0  0  0
  139.5570   73.8030  222.1950 N   0  0  0  0  0  0  0  0  0  0  0  0
  139.4350   74.7030  221.0880 C   0  0  0  0  0  0  0  0  0  0  0  0
  139.9620   76.0550  221.3840 C   0  0  0  0  0  0  0  0  0  0  0  0
  139.9610   76.4320  222.5730 O   0  0  0  0  0  0  0  0  0  0  0  0
  140.4340   76.8390  220.2960 N   0  0  0  0  0  0  0  0  0  0  0  0
  140.4740   76.4820  218.8750 C   0  0  0  0  0  0  0  0  0  0  0  0
  141.6400   77.2490  218.3040 C   0  0  0  0  0  0  0  0  0  0  0  0
  142.2070   78.0440  219.4640 C   0  0  0  0  0  0  0  0  0  0  0  0
  140.9870   78.1790  220.3530 C   0  0  0  0  0  0  0  0  0  0  0  0
  139.7800   71.4580  223.0950 C   0  0  0  0  0  0  0  0  0  0  0  0
  139.3500   70.1620  222.8920 C   0  0  0  0  0  0  0  0  0  0  0  0
  139.4760   69.2760  223.9580 C   0  0  0  0  0  0  0  0  0  0  0  0
  140.0200   69.7180  225.1700 C   0  0  0  0  0  0  0  0  0  0  0  0
  140.1220   68.7910  226.1990 C   0  0  0  0  0  0  0  0  0  0  0  0
  140.6630   69.2510  227.3880 C   0  0  0  0  0  0  0  0  0  0  0  0
  140.8360   68.1590  228.7550 Cl  0  0  0  0  0  0  0  0  0  0  0  0
  141.0850   70.5480  227.5720 C   0  0  0  0  0  0  0  0  0  0  0  0
  140.9560   71.4170  226.5110 C   0  0  0  0  0  0  0  0  0  0  0  0
  140.4290   71.0280  225.3040 C   0  0  0  0  0  0  0  0  0  0  0  0
  140.3020   71.8870  224.2560 N   0  0  0  0  0  0  0  0  0  0  0  0
  139.5760   74.1770  223.1660 H   0  0  0  0  0  0  0  0  0  0  0  0
  139.9922   74.2880  220.2351 H   0  0  0  0  0  0  0  0  0  0  0  0
  138.3631   74.8081  220.8644 H   0  0  0  0  0  0  0  0  0  0  0  0
  140.6286   75.3997  218.7540 H   0  0  0  0  0  0  0  0  0  0  0  0
  139.5316   76.7284  218.3639 H   0  0  0  0  0  0  0  0  0  0  0  0
  142.3969   76.5577  217.9050 H   0  0  0  0  0  0  0  0  0  0  0  0
  141.3328   77.9010  217.4731 H   0  0  0  0  0  0  0  0  0  0  0  0
  143.0161   77.4971  219.9702 H   0  0  0  0  0  0  0  0  0  0  0  0
  142.6627   79.0024  219.1744 H   0  0  0  0  0  0  0  0  0  0  0  0
  141.2676   78.4539  221.3805 H   0  0  0  0  0  0  0  0  0  0  0  0
  140.2869   78.9656  220.0352 H   0  0  0  0  0  0  0  0  0  0  0  0
  138.9258   69.8430  221.9285 H   0  0  0  0  0  0  0  0  0  0  0  0
  139.1491   68.2314  223.8485 H   0  0  0  0  0  0  0  0  0  0  0  0
  139.7914   67.7490  226.0765 H   0  0  0  0  0  0  0  0  0  0  0  0
  141.5098   70.8786  228.5313 H   0  0  0  0  0  0  0  0  0  0  0  0
  141.2866   72.4588  226.6349 H   0  0  0  0  0  0  0  0  0  0  0  0
  1  2  2  0
  2  3  1  0
  3  4  1  0
  4  5  1  0
  5  6  2  0
  5  7  1  0
  7  8  1  0
  8  9  1  0
  9 10  1  0
 10 11  1  0
  2 12  1  0
 12 13  2  0
 13 14  1  0
 14 15  2  0
 15 16  1  0
 16 17  2  0
 17 18  1  0
 17 19  1  0
 19 20  2  0
 20 21  1  0
 21 22  2  0
 11  7  1  0
 22 12  1  0
 21 15  1  0
  3 23  1  0
  4 24  1  0
  4 25  1  0
  8 26  1  0
  8 27  1  0
  9 28  1  0
  9 29  1  0
 10 30  1  0
 10 31  1  0
 11 32  1  0
 11 33  1  0
 13 34  1  0
 14 35  1  0
 16 36  1  0
 19 37  1  0
 20 38  1  0
M  END
>  <smiles>  (21) 
O=C(NCC(=O)N1CCCC1)c1ccc2cc(Cl)ccc2n1

>  <score_type>  (21) 
oracle

>  <origin>  (21) 
autodockgpu

>  <m_score__min__energy>  (21) 
-7.0599999999999996

>  <m_primary>  (21) 
energy

>  <rmsd>  (21) 
2.0629891134955307

>  <m_score__min__rmsd>  (21) 
2.0629891134955307

>  <meeko>  (21) 
{"free_energy": -6.39, "intermolecular_energy": -7.28, "internal_energy": -1.19, "cluster_size": 41, "cluster_id": 1, "rank_in_cluster": 40}

>  <energy>  (21) 
-6.92

>  <cluster_rmsd>  (21) 
0.27

>  <cluster>  (21) 
1

$$$$

     RDKit          3D

 38 40  0  0  0  0  0  0  0  0999 V2000
  140.4500   73.9540  220.5480 O   0  0  0  0  0  0  0  0  0  0  0  0
  139.9460   73.9010  221.7170 C   0  0  0  0  0  0  0  0  0  0  0  0
  139.5770   75.1460  222.2970 N   0  0  0  0  0  0  0  0  0  0  0  0
  139.7720   76.3740  221.5860 C   0  0  0  0  0  0  0  0  0  0  0  0
  139.4600   77.5680  222.4030 C   0  0  0  0  0  0  0  0  0  0  0  0
  138.3670   77.5910  223.0050 O   0  0  0  0  0  0  0  0  0  0  0  0
  140.4220   78.6140  222.4500 N   0  0  0  0  0  0  0  0  0  0  0  0
  141.7230   78.6750  221.7790 C   0  0  0  0  0  0  0  0  0  0  0  0
  142.5880   79.5350  222.6660 C   0  0  0  0  0  0  0  0  0  0  0  0
  141.6970   79.9490  223.8200 C   0  0  0  0  0  0  0  0  0  0  0  0
  140.3260   79.8650  223.1790 C   0  0  0  0  0  0  0  0  0  0  0  0
  139.7590   72.6340  222.4180 C   0  0  0  0  0  0  0  0  0  0  0  0
  138.9830   71.6690  221.8090 C   0  0  0  0  0  0  0  0  0  0  0  0
  138.8140   70.4660  222.4880 C   0  0  0  0  0  0  0  0  0  0  0  0
  139.4200   70.2810  223.7360 C   0  0  0  0  0  0  0  0  0  0  0  0
  139.2170   69.0610  224.3700 C   0  0  0  0  0  0  0  0  0  0  0  0
  139.8270   68.9010  225.6030 C   0  0  0  0  0  0  0  0  0  0  0  0
  139.6340   67.3960  226.4890 Cl  0  0  0  0  0  0  0  0  0  0  0  0
  140.5970   69.8770  226.1950 C   0  0  0  0  0  0  0  0  0  0  0  0
  140.7580   71.0640  225.5140 C   0  0  0  0  0  0  0  0  0  0  0  0
  140.1830   71.2890  224.2880 C   0  0  0  0  0  0  0  0  0  0  0  0
  140.3430   72.4620  223.6150 N   0  0  0  0  0  0  0  0  0  0  0  0
  139.1600   75.1610  223.2510 H   0  0  0  0  0  0  0  0  0  0  0  0
  140.8231   76.4318  221.2670 H   0  0  0  0  0  0  0  0  0  0  0  0
  139.0835   76.3718  220.7281 H   0  0  0  0  0  0  0  0  0  0  0  0
  142.1535   77.6675  221.6808 H   0  0  0  0  0  0  0  0  0  0  0  0
  141.6412   79.0866  220.7622 H   0  0  0  0  0  0  0  0  0  0  0  0
  143.4518   78.9616  223.0335 H   0  0  0  0  0  0  0  0  0  0  0  0
  142.9882   80.4058  222.1261 H   0  0  0  0  0  0  0  0  0  0  0  0
  141.7883   79.2552  224.6687 H   0  0  0  0  0  0  0  0  0  0  0  0
  141.9371   80.9351  224.2443 H   0  0  0  0  0  0  0  0  0  0  0  0
  139.5298   79.8279  223.9371 H   0  0  0  0  0  0  0  0  0  0  0  0
  140.0716   80.7312  222.5506 H   0  0  0  0  0  0  0  0  0  0  0  0
  138.5174   71.8434  220.8278 H   0  0  0  0  0  0  0  0  0  0  0  0
  138.2061   69.6632  222.0453 H   0  0  0  0  0  0  0  0  0  0  0  0
  138.6056   68.2664  223.9175 H   0  0  0  0  0  0  0  0  0  0  0  0
  141.0668   69.7149  227.1764 H   0  0  0  0  0  0  0  0  0  0  0  0
  141.3682   71.8585  225.9684 H   0  0  0  0  0  0  0  0  0  0  0  0
  1  2  2  0
  2  3  1  0
  3  4  1  0
  4  5  1  0
  5  6  2  0
  5  7  1  0
  7  8  1  0
  8  9  1  0
  9 10  1  0
 10 11  1  0
  2 12  1  0
 12 13  2  0
 13 14  1  0
 14 15  2  0
 15 16  1  0
 16 17  2  0
 17 18  1  0
 17 19  1  0
 19 20  2  0
 20 21  1  0
 21 22  2  0
 11  7  1  0
 22 12  1  0
 21 15  1  0
  3 23  1  0
  4 24  1  0
  4 25  1  0
  8 26  1  0
  8 27  1  0
  9 28  1  0
  9 29  1  0
 10 30  1  0
 10 31  1  0
 11 32  1  0
 11 33  1  0
 13 34  1  0
 14 35  1  0
 16 36  1  0
 19 37  1  0
 20 38  1  0
M  END
>  <smiles>  (22) 
O=C(NCC(=O)N1CCCC1)c1ccc2cc(Cl)ccc2n1

>  <score_type>  (22) 
oracle

>  <origin>  (22) 
autodockgpu

>  <m_score__min__energy>  (22) 
-7.0599999999999996

>  <m_primary>  (22) 
energy

>  <rmsd>  (22) 
4.092251839587194

>  <m_score__min__rmsd>  (22) 
4.092251839587194

>  <meeko>  (22) 
{"free_energy": -6.89, "intermolecular_energy": -7.79, "internal_energy": -0.85, "cluster_size": 41, "cluster_id": 1, "rank_in_cluster": 26}

>  <energy>  (22) 
-6.91

>  <cluster_rmsd>  (22) 
1.19

>  <cluster>  (22) 
1

$$$$

     RDKit          3D

 38 40  0  0  0  0  0  0  0  0999 V2000
  139.0540   72.0190  220.9330 O   0  0  0  0  0  0  0  0  0  0  0  0
  139.3120   72.4060  222.1190 C   0  0  0  0  0  0  0  0  0  0  0  0
  139.3610   73.8130  222.3220 N   0  0  0  0  0  0  0  0  0  0  0  0
  139.1290   74.7190  221.2380 C   0  0  0  0  0  0  0  0  0  0  0  0
  138.5690   76.0170  221.6810 C   0  0  0  0  0  0  0  0  0  0  0  0
  137.3500   76.0640  221.9460 O   0  0  0  0  0  0  0  0  0  0  0  0
  139.4530   77.1260  221.7770 N   0  0  0  0  0  0  0  0  0  0  0  0
  140.8890   77.1650  221.4880 C   0  0  0  0  0  0  0  0  0  0  0  0
  141.4470   78.2410  222.3840 C   0  0  0  0  0  0  0  0  0  0  0  0
  140.2560   78.7900  223.1450 C   0  0  0  0  0  0  0  0  0  0  0  0
  139.1250   78.4790  222.1860 C   0  0  0  0  0  0  0  0  0  0  0  0
  139.5450   71.4580  223.2050 C   0  0  0  0  0  0  0  0  0  0  0  0
  139.2110   70.1370  222.9890 C   0  0  0  0  0  0  0  0  0  0  0  0
  139.4380   69.2450  224.0330 C   0  0  0  0  0  0  0  0  0  0  0  0
  139.9840   69.7060  225.2360 C   0  0  0  0  0  0  0  0  0  0  0  0
  140.1900   68.7720  226.2440 C   0  0  0  0  0  0  0  0  0  0  0  0
  140.7310   69.2520  227.4250 C   0  0  0  0  0  0  0  0  0  0  0  0
  141.0310   68.1540  228.7640 Cl  0  0  0  0  0  0  0  0  0  0  0  0
  141.0570   70.5750  227.6210 C   0  0  0  0  0  0  0  0  0  0  0  0
  140.8280   71.4500  226.5820 C   0  0  0  0  0  0  0  0  0  0  0  0
  140.2950   71.0420  225.3840 C   0  0  0  0  0  0  0  0  0  0  0  0
  140.0700   71.9070  224.3580 N   0  0  0  0  0  0  0  0  0  0  0  0
  139.5690   74.1850  223.2720 H   0  0  0  0  0  0  0  0  0  0  0  0
  140.0845   74.9055  220.7259 H   0  0  0  0  0  0  0  0  0  0  0  0
  138.3906   74.2519  220.5698 H   0  0  0  0  0  0  0  0  0  0  0  0
  141.3542   76.1946  221.7158 H   0  0  0  0  0  0  0  0  0  0  0  0
  141.0877   77.3723  220.4261 H   0  0  0  0  0  0  0  0  0  0  0  0
  142.1861   77.8172  223.0798 H   0  0  0  0  0  0  0  0  0  0  0  0
  141.9618   79.0252  221.8094 H   0  0  0  0  0  0  0  0  0  0  0  0
  140.1210   78.2756  224.1079 H   0  0  0  0  0  0  0  0  0  0  0  0
  140.3421   79.8537  223.4117 H   0  0  0  0  0  0  0  0  0  0  0  0
  138.1483   78.5202  222.6903 H   0  0  0  0  0  0  0  0  0  0  0  0
  139.0378   79.1901  221.3513 H   0  0  0  0  0  0  0  0  0  0  0  0
  138.7834   69.8028  222.0322 H   0  0  0  0  0  0  0  0  0  0  0  0
  139.1888   68.1804  223.9127 H   0  0  0  0  0  0  0  0  0  0  0  0
  139.9372   67.7097  226.1112 H   0  0  0  0  0  0  0  0  0  0  0  0
  141.4851   70.9211  228.5733 H   0  0  0  0  0  0  0  0  0  0  0  0
  141.0808   72.5121  226.7166 H   0  0  0  0  0  0  0  0  0  0  0  0
  1  2  2  0
  2  3  1  0
  3  4  1  0
  4  5  1  0
  5  6  2  0
  5  7  1  0
  7  8  1  0
  8  9  1  0
  9 10  1  0
 10 11  1  0
  2 12  1  0
 12 13  2  0
 13 14  1  0
 14 15  2  0
 15 16  1  0
 16 17  2  0
 17 18  1  0
 17 19  1  0
 19 20  2  0
 20 21  1  0
 21 22  2  0
 11  7  1  0
 22 12  1  0
 21 15  1  0
  3 23  1  0
  4 24  1  0
  4 25  1  0
  8 26  1  0
  8 27  1  0
  9 28  1  0
  9 29  1  0
 10 30  1  0
 10 31  1  0
 11 32  1  0
 11 33  1  0
 13 34  1  0
 14 35  1  0
 16 36  1  0
 19 37  1  0
 20 38  1  0
M  END
>  <smiles>  (23) 
O=C(NCC(=O)N1CCCC1)c1ccc2cc(Cl)ccc2n1

>  <score_type>  (23) 
oracle

>  <origin>  (23) 
autodockgpu

>  <m_score__min__energy>  (23) 
-7.0599999999999996

>  <m_primary>  (23) 
energy

>  <rmsd>  (23) 
2.932063875431513

>  <m_score__min__rmsd>  (23) 
2.932063875431513

>  <meeko>  (23) 
{"free_energy": -6.8, "intermolecular_energy": -7.69, "internal_energy": -0.86, "cluster_size": 41, "cluster_id": 1, "rank_in_cluster": 28}

>  <energy>  (23) 
-6.91

>  <cluster_rmsd>  (23) 
1.22

>  <cluster>  (23) 
1

$$$$

     RDKit          3D

 38 40  0  0  0  0  0  0  0  0999 V2000
  141.5180   71.5260  221.8130 O   0  0  0  0  0  0  0  0  0  0  0  0
  140.8940   72.5920  222.1200 C   0  0  0  0  0  0  0  0  0  0  0  0
  139.8800   72.4610  223.1090 N   0  0  0  0  0  0  0  0  0  0  0  0
  139.5980   71.1910  223.7070 C   0  0  0  0  0  0  0  0  0  0  0  0
  140.3920   70.9430  224.9320 C   0  0  0  0  0  0  0  0  0  0  0  0
  141.0650   71.8890  225.3910 O   0  0  0  0  0  0  0  0  0  0  0  0
  140.3400   69.6450  225.5090 N   0  0  0  0  0  0  0  0  0  0  0  0
  139.5840   68.4790  225.0430 C   0  0  0  0  0  0  0  0  0  0  0  0
  139.2850   67.6770  226.2840 C   0  0  0  0  0  0  0  0  0  0  0  0
  139.9260   68.4420  227.4250 C   0  0  0  0  0  0  0  0  0  0  0  0
  141.0320   69.1820  226.6970 C   0  0  0  0  0  0  0  0  0  0  0  0
  141.2030   73.8740  221.4920 C   0  0  0  0  0  0  0  0  0  0  0  0
  142.0650   73.8720  220.4140 C   0  0  0  0  0  0  0  0  0  0  0  0
  142.3510   75.1000  219.8250 C   0  0  0  0  0  0  0  0  0  0  0  0
  141.7690   76.2670  220.3350 C   0  0  0  0  0  0  0  0  0  0  0  0
  142.0890   77.4650  219.7080 C   0  0  0  0  0  0  0  0  0  0  0  0
  141.5030   78.6070  220.2290 C   0  0  0  0  0  0  0  0  0  0  0  0
  141.8410   80.1740  219.5110 Cl  0  0  0  0  0  0  0  0  0  0  0  0
  140.6460   78.5880  221.3060 C   0  0  0  0  0  0  0  0  0  0  0  0
  140.3700   77.3670  221.8820 C   0  0  0  0  0  0  0  0  0  0  0  0
  140.9160   76.1970  221.4160 C   0  0  0  0  0  0  0  0  0  0  0  0
  140.6420   74.9910  221.9850 N   0  0  0  0  0  0  0  0  0  0  0  0
  139.3380   73.3020  223.3980 H   0  0  0  0  0  0  0  0  0  0  0  0
  138.5299   71.1549  223.9675 H   0  0  0  0  0  0  0  0  0  0  0  0
  139.8670   70.4144  222.9759 H   0  0  0  0  0  0  0  0  0  0  0  0
  138.6506   68.7951  224.5543 H   0  0  0  0  0  0  0  0  0  0  0  0
  140.1484   67.8935  224.3023 H   0  0  0  0  0  0  0  0  0  0  0  0
  138.1987   67.5967  226.4374 H   0  0  0  0  0  0  0  0  0  0  0  0
  139.6750   66.6511  226.2106 H   0  0  0  0  0  0  0  0  0  0  0  0
  139.2150   69.1386  227.8933 H   0  0  0  0  0  0  0  0  0  0  0  0
  140.2753   67.8088  228.2539 H   0  0  0  0  0  0  0  0  0  0  0  0
  141.4121   70.0241  227.2940 H   0  0  0  0  0  0  0  0  0  0  0  0
  141.9193   68.5667  226.4869 H   0  0  0  0  0  0  0  0  0  0  0  0
  142.5075   72.9385  220.0361 H   0  0  0  0  0  0  0  0  0  0  0  0
  143.0314   75.1537  218.9624 H   0  0  0  0  0  0  0  0  0  0  0  0
  142.7703   77.5044  218.8452 H   0  0  0  0  0  0  0  0  0  0  0  0
  140.1973   79.5147  221.6932 H   0  0  0  0  0  0  0  0  0  0  0  0
  139.6888   77.3286  222.7448 H   0  0  0  0  0  0  0  0  0  0  0  0
  1  2  2  0
  2  3  1  0
  3  4  1  0
  4  5  1  0
  5  6  2  0
  5  7  1  0
  7  8  1  0
  8  9  1  0
  9 10  1  0
 10 11  1  0
  2 12  1  0
 12 13  2  0
 13 14  1  0
 14 15  2  0
 15 16  1  0
 16 17  2  0
 17 18  1  0
 17 19  1  0
 19 20  2  0
 20 21  1  0
 21 22  2  0
 11  7  1  0
 22 12  1  0
 21 15  1  0
  3 23  1  0
  4 24  1  0
  4 25  1  0
  8 26  1  0
  8 27  1  0
  9 28  1  0
  9 29  1  0
 10 30  1  0
 10 31  1  0
 11 32  1  0
 11 33  1  0
 13 34  1  0
 14 35  1  0
 16 36  1  0
 19 37  1  0
 20 38  1  0
M  END
>  <smiles>  (24) 
O=C(NCC(=O)N1CCCC1)c1ccc2cc(Cl)ccc2n1

>  <score_type>  (24) 
oracle

>  <origin>  (24) 
autodockgpu

>  <m_score__min__energy>  (24) 
-7.0599999999999996

>  <m_primary>  (24) 
energy

>  <rmsd>  (24) 
8.829695233716281

>  <m_score__min__rmsd>  (24) 
8.829695233716281

>  <meeko>  (24) 
{"free_energy": -6.7, "intermolecular_energy": -7.6, "internal_energy": -0.93, "cluster_size": 8, "cluster_id": 3, "rank_in_cluster": 3}

>  <energy>  (24) 
-6.91

>  <cluster_rmsd>  (24) 
1.2

>  <cluster>  (24) 
1

$$$$

     RDKit          3D

 38 40  0  0  0  0  0  0  0  0999 V2000
  140.6500   72.7150  220.9940 O   0  0  0  0  0  0  0  0  0  0  0  0
  140.0250   72.8870  222.0900 C   0  0  0  0  0  0  0  0  0  0  0  0
  139.3060   74.1070  222.2160 N   0  0  0  0  0  0  0  0  0  0  0  0
  139.3020   75.0690  221.1550 C   0  0  0  0  0  0  0  0  0  0  0  0
  138.6930   76.3600  221.5510 C   0  0  0  0  0  0  0  0  0  0  0  0
  137.4480   76.4290  221.5860 O   0  0  0  0  0  0  0  0  0  0  0  0
  139.5650   77.4390  221.8660 N   0  0  0  0  0  0  0  0  0  0  0  0
  141.0290   77.4500  221.8520 C   0  0  0  0  0  0  0  0  0  0  0  0
  141.4300   78.4690  222.8900 C   0  0  0  0  0  0  0  0  0  0  0  0
  140.1280   79.0150  223.4420 C   0  0  0  0  0  0  0  0  0  0  0  0
  139.1910   78.7800  222.2740 C   0  0  0  0  0  0  0  0  0  0  0  0
  140.0480   71.8870  223.1540 C   0  0  0  0  0  0  0  0  0  0  0  0
  139.5750   70.6240  222.8620 C   0  0  0  0  0  0  0  0  0  0  0  0
  139.6030   69.6810  223.8860 C   0  0  0  0  0  0  0  0  0  0  0  0
  140.0950   70.0380  225.1460 C   0  0  0  0  0  0  0  0  0  0  0  0
  140.1000   69.0580  226.1310 C   0  0  0  0  0  0  0  0  0  0  0  0
  140.5920   69.4340  227.3700 C   0  0  0  0  0  0  0  0  0  0  0  0
  140.6410   68.2700  228.6850 Cl  0  0  0  0  0  0  0  0  0  0  0  0
  141.0580   70.7000  227.6420 C   0  0  0  0  0  0  0  0  0  0  0  0
  141.0260   71.6260  226.6220 C   0  0  0  0  0  0  0  0  0  0  0  0
  140.5520   71.3200  225.3700 C   0  0  0  0  0  0  0  0  0  0  0  0
  140.5220   72.2350  224.3620 N   0  0  0  0  0  0  0  0  0  0  0  0
  138.7770   74.2990  223.0920 H   0  0  0  0  0  0  0  0  0  0  0  0
  140.3408   75.2518  220.8428 H   0  0  0  0  0  0  0  0  0  0  0  0
  138.6958   74.6550  220.3358 H   0  0  0  0  0  0  0  0  0  0  0  0
  141.4242   76.4574  222.1139 H   0  0  0  0  0  0  0  0  0  0  0  0
  141.4275   77.6993  220.8575 H   0  0  0  0  0  0  0  0  0  0  0  0
  142.0176   77.9936  223.6892 H   0  0  0  0  0  0  0  0  0  0  0  0
  142.0581   79.2640  222.4616 H   0  0  0  0  0  0  0  0  0  0  0  0
  139.8051   78.4607  224.3356 H   0  0  0  0  0  0  0  0  0  0  0  0
  140.1823   80.0625  223.7733 H   0  0  0  0  0  0  0  0  0  0  0  0
  138.1379   78.8249  222.5887 H   0  0  0  0  0  0  0  0  0  0  0  0
  139.2748   79.5310  221.4746 H   0  0  0  0  0  0  0  0  0  0  0  0
  139.1918   70.3727  221.8620 H   0  0  0  0  0  0  0  0  0  0  0  0
  139.2395   68.6587  223.7049 H   0  0  0  0  0  0  0  0  0  0  0  0
  139.7333   68.0392  225.9374 H   0  0  0  0  0  0  0  0  0  0  0  0
  141.4424   70.9634  228.6384 H   0  0  0  0  0  0  0  0  0  0  0  0
  141.3925   72.6446  226.8172 H   0  0  0  0  0  0  0  0  0  0  0  0
  1  2  2  0
  2  3  1  0
  3  4  1  0
  4  5  1  0
  5  6  2  0
  5  7  1  0
  7  8  1  0
  8  9  1  0
  9 10  1  0
 10 11  1  0
  2 12  1  0
 12 13  2  0
 13 14  1  0
 14 15  2  0
 15 16  1  0
 16 17  2  0
 17 18  1  0
 17 19  1  0
 19 20  2  0
 20 21  1  0
 21 22  2  0
 11  7  1  0
 22 12  1  0
 21 15  1  0
  3 23  1  0
  4 24  1  0
  4 25  1  0
  8 26  1  0
  8 27  1  0
  9 28  1  0
  9 29  1  0
 10 30  1  0
 10 31  1  0
 11 32  1  0
 11 33  1  0
 13 34  1  0
 14 35  1  0
 16 36  1  0
 19 37  1  0
 20 38  1  0
M  END
>  <smiles>  (25) 
O=C(NCC(=O)N1CCCC1)c1ccc2cc(Cl)ccc2n1

>  <score_type>  (25) 
oracle

>  <origin>  (25) 
autodockgpu

>  <m_score__min__energy>  (25) 
-7.0599999999999996

>  <m_primary>  (25) 
energy

>  <rmsd>  (25) 
3.222199850103464

>  <m_score__min__rmsd>  (25) 
3.222199850103464

>  <meeko>  (25) 
{"free_energy": -7.03, "intermolecular_energy": -7.93, "internal_energy": -0.73, "cluster_size": 41, "cluster_id": 1, "rank_in_cluster": 11}

>  <energy>  (25) 
-6.89

>  <cluster_rmsd>  (25) 
1.23

>  <cluster>  (25) 
1

$$$$

     RDKit          3D

 38 40  0  0  0  0  0  0  0  0999 V2000
  140.9960   73.9080  220.9750 O   0  0  0  0  0  0  0  0  0  0  0  0
  140.2010   73.8750  221.9700 C   0  0  0  0  0  0  0  0  0  0  0  0
  139.5990   75.1120  222.3300 N   0  0  0  0  0  0  0  0  0  0  0  0
  139.8860   76.3090  221.5990 C   0  0  0  0  0  0  0  0  0  0  0  0
  139.5090   77.5380  222.3340 C   0  0  0  0  0  0  0  0  0  0  0  0
  138.3780   77.5770  222.8600 O   0  0  0  0  0  0  0  0  0  0  0  0
  140.4570   78.5960  222.3940 N   0  0  0  0  0  0  0  0  0  0  0  0
  141.8000   78.6400  221.8110 C   0  0  0  0  0  0  0  0  0  0  0  0
  142.5960   79.5510  222.7100 C   0  0  0  0  0  0  0  0  0  0  0  0
  141.6260   80.0100  223.7810 C   0  0  0  0  0  0  0  0  0  0  0  0
  140.3020   79.8780  223.0540 C   0  0  0  0  0  0  0  0  0  0  0  0
  139.9270   72.6390  222.6970 C   0  0  0  0  0  0  0  0  0  0  0  0
  138.9100   71.8310  222.2330 C   0  0  0  0  0  0  0  0  0  0  0  0
  138.6590   70.6560  222.9360 C   0  0  0  0  0  0  0  0  0  0  0  0
  139.4290   70.3420  224.0620 C   0  0  0  0  0  0  0  0  0  0  0  0
  139.1360   69.1570  224.7250 C   0  0  0  0  0  0  0  0  0  0  0  0
  139.9090   68.8680  225.8370 C   0  0  0  0  0  0  0  0  0  0  0  0
  139.6210   67.3930  226.7480 Cl  0  0  0  0  0  0  0  0  0  0  0  0
  140.9200   69.6880  226.2850 C   0  0  0  0  0  0  0  0  0  0  0  0
  141.1590   70.8480  225.5820 C   0  0  0  0  0  0  0  0  0  0  0  0
  140.4310   71.1960  224.4720 C   0  0  0  0  0  0  0  0  0  0  0  0
  140.6690   72.3430  223.7780 N   0  0  0  0  0  0  0  0  0  0  0  0
  138.9400   75.1430  223.1360 H   0  0  0  0  0  0  0  0  0  0  0  0
  140.9655   76.3423  221.3901 H   0  0  0  0  0  0  0  0  0  0  0  0
  139.2905   76.2817  220.6745 H   0  0  0  0  0  0  0  0  0  0  0  0
  142.2444   77.6340  221.7915 H   0  0  0  0  0  0  0  0  0  0  0  0
  141.7838   79.0018  220.7723 H   0  0  0  0  0  0  0  0  0  0  0  0
  143.4380   79.0059  223.1617 H   0  0  0  0  0  0  0  0  0  0  0  0
  143.0243   80.3993  222.1560 H   0  0  0  0  0  0  0  0  0  0  0  0
  141.6662   79.3594  224.6671 H   0  0  0  0  0  0  0  0  0  0  0  0
  141.8283   81.0181  224.1718 H   0  0  0  0  0  0  0  0  0  0  0  0
  139.4570   79.8672  223.7582 H   0  0  0  0  0  0  0  0  0  0  0  0
  140.0834   80.7101  222.3686 H   0  0  0  0  0  0  0  0  0  0  0  0
  138.3218   72.1037  221.3444 H   0  0  0  0  0  0  0  0  0  0  0  0
  137.8584   69.9767  222.6078 H   0  0  0  0  0  0  0  0  0  0  0  0
  138.3340   68.4851  224.3854 H   0  0  0  0  0  0  0  0  0  0  0  0
  141.5153   69.4263  227.1722 H   0  0  0  0  0  0  0  0  0  0  0  0
  141.9615   71.5190  225.9222 H   0  0  0  0  0  0  0  0  0  0  0  0
  1  2  2  0
  2  3  1  0
  3  4  1  0
  4  5  1  0
  5  6  2  0
  5  7  1  0
  7  8  1  0
  8  9  1  0
  9 10  1  0
 10 11  1  0
  2 12  1  0
 12 13  2  0
 13 14  1  0
 14 15  2  0
 15 16  1  0
 16 17  2  0
 17 18  1  0
 17 19  1  0
 19 20  2  0
 20 21  1  0
 21 22  2  0
 11  7  1  0
 22 12  1  0
 21 15  1  0
  3 23  1  0
  4 24  1  0
  4 25  1  0
  8 26  1  0
  8 27  1  0
  9 28  1  0
  9 29  1  0
 10 30  1  0
 10 31  1  0
 11 32  1  0
 11 33  1  0
 13 34  1  0
 14 35  1  0
 16 36  1  0
 19 37  1  0
 20 38  1  0
M  END
>  <smiles>  (26) 
O=C(NCC(=O)N1CCCC1)c1ccc2cc(Cl)ccc2n1

>  <score_type>  (26) 
oracle

>  <origin>  (26) 
autodockgpu

>  <m_score__min__energy>  (26) 
-7.0599999999999996

>  <m_primary>  (26) 
energy

>  <rmsd>  (26) 
4.077578607830333

>  <m_score__min__rmsd>  (26) 
4.077578607830333

>  <meeko>  (26) 
{"free_energy": -6.94, "intermolecular_energy": -7.83, "internal_energy": -0.85, "cluster_size": 41, "cluster_id": 1, "rank_in_cluster": 17}

>  <energy>  (26) 
-6.89

>  <cluster_rmsd>  (26) 
1.24

>  <cluster>  (26) 
1

$$$$

     RDKit          3D

 38 40  0  0  0  0  0  0  0  0999 V2000
  140.0740   72.5710  220.8820 O   0  0  0  0  0  0  0  0  0  0  0  0
  139.8200   72.8700  222.0940 C   0  0  0  0  0  0  0  0  0  0  0  0
  139.4570   74.2220  222.3430 N   0  0  0  0  0  0  0  0  0  0  0  0
  139.3880   75.1720  221.2750 C   0  0  0  0  0  0  0  0  0  0  0  0
  138.7470   76.4450  221.6770 C   0  0  0  0  0  0  0  0  0  0  0  0
  137.5010   76.4750  221.7400 O   0  0  0  0  0  0  0  0  0  0  0  0
  139.5910   77.5530  221.9640 N   0  0  0  0  0  0  0  0  0  0  0  0
  141.0540   77.6120  221.9160 C   0  0  0  0  0  0  0  0  0  0  0  0
  141.4450   78.6490  222.9380 C   0  0  0  0  0  0  0  0  0  0  0  0
  140.1400   79.1580  223.5170 C   0  0  0  0  0  0  0  0  0  0  0  0
  139.1840   78.8850  222.3730 C   0  0  0  0  0  0  0  0  0  0  0  0
  139.8990   71.8790  223.1640 C   0  0  0  0  0  0  0  0  0  0  0  0
  139.4670   70.5980  222.8880 C   0  0  0  0  0  0  0  0  0  0  0  0
  139.5480   69.6640  223.9170 C   0  0  0  0  0  0  0  0  0  0  0  0
  140.0520   70.0460  225.1650 C   0  0  0  0  0  0  0  0  0  0  0  0
  140.1110   69.0730  226.1550 C   0  0  0  0  0  0  0  0  0  0  0  0
  140.6140   69.4750  227.3820 C   0  0  0  0  0  0  0  0  0  0  0  0
  140.7310   68.3220  228.7040 Cl  0  0  0  0  0  0  0  0  0  0  0  0
  141.0400   70.7590  227.6380 C   0  0  0  0  0  0  0  0  0  0  0  0
  140.9550   71.6750  226.6130 C   0  0  0  0  0  0  0  0  0  0  0  0
  140.4670   71.3450  225.3720 C   0  0  0  0  0  0  0  0  0  0  0  0
  140.3850   72.2510  224.3600 N   0  0  0  0  0  0  0  0  0  0  0  0
  139.2390   74.5200  223.3170 H   0  0  0  0  0  0  0  0  0  0  0  0
  140.4101   75.3872  220.9300 H   0  0  0  0  0  0  0  0  0  0  0  0
  138.7720   74.7292  220.4784 H   0  0  0  0  0  0  0  0  0  0  0  0
  141.4875   76.6345  222.1739 H   0  0  0  0  0  0  0  0  0  0  0  0
  141.4210   77.8683  220.9112 H   0  0  0  0  0  0  0  0  0  0  0  0
  142.0652   78.1974  223.7263 H   0  0  0  0  0  0  0  0  0  0  0  0
  142.0373   79.4606  222.4903 H   0  0  0  0  0  0  0  0  0  0  0  0
  139.8557   78.6005  224.4216 H   0  0  0  0  0  0  0  0  0  0  0  0
  140.1690   80.2091  223.8401 H   0  0  0  0  0  0  0  0  0  0  0  0
  138.1377   78.8986  222.7123 H   0  0  0  0  0  0  0  0  0  0  0  0
  139.2253   79.6327  221.5672 H   0  0  0  0  0  0  0  0  0  0  0  0
  139.0751   70.3263  221.8967 H   0  0  0  0  0  0  0  0  0  0  0  0
  139.2167   68.6286  223.7494 H   0  0  0  0  0  0  0  0  0  0  0  0
  139.7769   68.0406  225.9748 H   0  0  0  0  0  0  0  0  0  0  0  0
  141.4338   71.0429  228.6251 H   0  0  0  0  0  0  0  0  0  0  0  0
  141.2896   72.7070  226.7945 H   0  0  0  0  0  0  0  0  0  0  0  0
  1  2  2  0
  2  3  1  0
  3  4  1  0
  4  5  1  0
  5  6  2  0
  5  7  1  0
  7  8  1  0
  8  9  1  0
  9 10  1  0
 10 11  1  0
  2 12  1  0
 12 13  2  0
 13 14  1  0
 14 15  2  0
 15 16  1  0
 16 17  2  0
 17 18  1  0
 17 19  1  0
 19 20  2  0
 20 21  1  0
 21 22  2  0
 11  7  1  0
 22 12  1  0
 21 15  1  0
  3 23  1  0
  4 24  1  0
  4 25  1  0
  8 26  1  0
  8 27  1  0
  9 28  1  0
  9 29  1  0
 10 30  1  0
 10 31  1  0
 11 32  1  0
 11 33  1  0
 13 34  1  0
 14 35  1  0
 16 36  1  0
 19 37  1  0
 20 38  1  0
M  END
>  <smiles>  (27) 
O=C(NCC(=O)N1CCCC1)c1ccc2cc(Cl)ccc2n1

>  <score_type>  (27) 
oracle

>  <origin>  (27) 
autodockgpu

>  <m_score__min__energy>  (27) 
-7.0599999999999996

>  <m_primary>  (27) 
energy

>  <rmsd>  (27) 
3.277301693184513

>  <m_score__min__rmsd>  (27) 
3.277301693184513

>  <meeko>  (27) 
{"free_energy": -7.05, "intermolecular_energy": -7.94, "internal_energy": -0.77, "cluster_size": 41, "cluster_id": 1, "rank_in_cluster": 4}

>  <energy>  (27) 
-6.83

>  <cluster_rmsd>  (27) 
1.17

>  <cluster>  (27) 
1

$$$$

     RDKit          3D

 38 40  0  0  0  0  0  0  0  0999 V2000
  140.6880   72.6780  220.9800 O   0  0  0  0  0  0  0  0  0  0  0  0
  140.0790   72.8760  222.0810 C   0  0  0  0  0  0  0  0  0  0  0  0
  139.4020   74.1210  222.2070 N   0  0  0  0  0  0  0  0  0  0  0  0
  139.4200   75.0770  221.1410 C   0  0  0  0  0  0  0  0  0  0  0  0
  138.7590   76.3520  221.5010 C   0  0  0  0  0  0  0  0  0  0  0  0
  137.5120   76.3910  221.4670 O   0  0  0  0  0  0  0  0  0  0  0  0
  139.5850   77.4520  221.8620 N   0  0  0  0  0  0  0  0  0  0  0  0
  141.0480   77.5000  221.9290 C   0  0  0  0  0  0  0  0  0  0  0  0
  141.3650   78.5280  222.9850 C   0  0  0  0  0  0  0  0  0  0  0  0
  140.0220   79.0420  223.4640 C   0  0  0  0  0  0  0  0  0  0  0  0
  139.1570   78.7840  222.2460 C   0  0  0  0  0  0  0  0  0  0  0  0
  140.0780   71.8820  223.1500 C   0  0  0  0  0  0  0  0  0  0  0  0
  139.5660   70.6320  222.8670 C   0  0  0  0  0  0  0  0  0  0  0  0
  139.5710   69.6940  223.8960 C   0  0  0  0  0  0  0  0  0  0  0  0
  140.0820   70.0420  225.1510 C   0  0  0  0  0  0  0  0  0  0  0  0
  140.0630   69.0670  226.1410 C   0  0  0  0  0  0  0  0  0  0  0  0
  140.5740   69.4340  227.3750 C   0  0  0  0  0  0  0  0  0  0  0  0
  140.5970   68.2760  228.6960 Cl  0  0  0  0  0  0  0  0  0  0  0  0
  141.0800   70.6870  227.6380 C   0  0  0  0  0  0  0  0  0  0  0  0
  141.0700   71.6080  226.6130 C   0  0  0  0  0  0  0  0  0  0  0  0
  140.5790   71.3110  225.3660 C   0  0  0  0  0  0  0  0  0  0  0  0
  140.5700   72.2210  224.3530 N   0  0  0  0  0  0  0  0  0  0  0  0
  138.8870   74.3340  223.0860 H   0  0  0  0  0  0  0  0  0  0  0  0
  140.4665   75.2868  220.8750 H   0  0  0  0  0  0  0  0  0  0  0  0
  138.8632   74.6425  220.2977 H   0  0  0  0  0  0  0  0  0  0  0  0
  141.4530   76.5177  222.2138 H   0  0  0  0  0  0  0  0  0  0  0  0
  141.4945   77.7592  220.9577 H   0  0  0  0  0  0  0  0  0  0  0  0
  141.9193   78.0674  223.8161 H   0  0  0  0  0  0  0  0  0  0  0  0
  141.9955   79.3383  222.5902 H   0  0  0  0  0  0  0  0  0  0  0  0
  139.6640   78.4799  224.3392 H   0  0  0  0  0  0  0  0  0  0  0  0
  140.0322   80.0904  223.7968 H   0  0  0  0  0  0  0  0  0  0  0  0
  138.0873   78.8039  222.5017 H   0  0  0  0  0  0  0  0  0  0  0  0
  139.2671   79.5363  221.4511 H   0  0  0  0  0  0  0  0  0  0  0  0
  139.1705   70.3870  221.8702 H   0  0  0  0  0  0  0  0  0  0  0  0
  139.1745   68.6827  223.7227 H   0  0  0  0  0  0  0  0  0  0  0  0
  139.6640   68.0590  225.9549 H   0  0  0  0  0  0  0  0  0  0  0  0
  141.4780   70.9438  228.6308 H   0  0  0  0  0  0  0  0  0  0  0  0
  141.4692   72.6157  226.8005 H   0  0  0  0  0  0  0  0  0  0  0  0
  1  2  2  0
  2  3  1  0
  3  4  1  0
  4  5  1  0
  5  6  2  0
  5  7  1  0
  7  8  1  0
  8  9  1  0
  9 10  1  0
 10 11  1  0
  2 12  1  0
 12 13  2  0
 13 14  1  0
 14 15  2  0
 15 16  1  0
 16 17  2  0
 17 18  1  0
 17 19  1  0
 19 20  2  0
 20 21  1  0
 21 22  2  0
 11  7  1  0
 22 12  1  0
 21 15  1  0
  3 23  1  0
  4 24  1  0
  4 25  1  0
  8 26  1  0
  8 27  1  0
  9 28  1  0
  9 29  1  0
 10 30  1  0
 10 31  1  0
 11 32  1  0
 11 33  1  0
 13 34  1  0
 14 35  1  0
 16 36  1  0
 19 37  1  0
 20 38  1  0
M  END
>  <smiles>  (28) 
O=C(NCC(=O)N1CCCC1)c1ccc2cc(Cl)ccc2n1

>  <score_type>  (28) 
oracle

>  <origin>  (28) 
autodockgpu

>  <m_score__min__energy>  (28) 
-7.0599999999999996

>  <m_primary>  (28) 
energy

>  <rmsd>  (28) 
3.245408511661016

>  <m_score__min__rmsd>  (28) 
3.245408511661016

>  <meeko>  (28) 
{"free_energy": -7.03, "intermolecular_energy": -7.93, "internal_energy": -0.72, "cluster_size": 41, "cluster_id": 1, "rank_in_cluster": 10}

>  <energy>  (28) 
-6.8

>  <cluster_rmsd>  (28) 
0.53

>  <cluster>  (28) 
1

$$$$

     RDKit          3D

 38 40  0  0  0  0  0  0  0  0999 V2000
  140.2640   72.5470  220.8810 O   0  0  0  0  0  0  0  0  0  0  0  0
  139.9460   72.8430  222.0790 C   0  0  0  0  0  0  0  0  0  0  0  0
  139.5440   74.1880  222.3060 N   0  0  0  0  0  0  0  0  0  0  0  0
  139.5080   75.1340  221.2320 C   0  0  0  0  0  0  0  0  0  0  0  0
  139.4030   76.5350  221.7010 C   0  0  0  0  0  0  0  0  0  0  0  0
  138.7660   76.7490  222.7530 O   0  0  0  0  0  0  0  0  0  0  0  0
  140.0340   77.5460  220.9260 N   0  0  0  0  0  0  0  0  0  0  0  0
  140.7980   77.3890  219.6860 C   0  0  0  0  0  0  0  0  0  0  0  0
  141.7940   78.5210  219.6860 C   0  0  0  0  0  0  0  0  0  0  0  0
  141.5200   79.3000  220.9570 C   0  0  0  0  0  0  0  0  0  0  0  0
  140.0600   78.9710  221.1950 C   0  0  0  0  0  0  0  0  0  0  0  0
  139.9940   71.8560  223.1540 C   0  0  0  0  0  0  0  0  0  0  0  0
  139.5330   70.5840  222.8820 C   0  0  0  0  0  0  0  0  0  0  0  0
  139.5840   69.6540  223.9160 C   0  0  0  0  0  0  0  0  0  0  0  0
  140.0870   70.0310  225.1670 C   0  0  0  0  0  0  0  0  0  0  0  0
  140.1150   69.0630  226.1620 C   0  0  0  0  0  0  0  0  0  0  0  0
  140.6180   69.4590  227.3910 C   0  0  0  0  0  0  0  0  0  0  0  0
  140.6970   68.3110  228.7190 Cl  0  0  0  0  0  0  0  0  0  0  0  0
  141.0720   70.7330  227.6430 C   0  0  0  0  0  0  0  0  0  0  0  0
  141.0170   71.6460  226.6120 C   0  0  0  0  0  0  0  0  0  0  0  0
  140.5320   71.3210  225.3700 C   0  0  0  0  0  0  0  0  0  0  0  0
  140.4780   72.2230  224.3520 N   0  0  0  0  0  0  0  0  0  0  0  0
  139.2740   74.4840  223.2670 H   0  0  0  0  0  0  0  0  0  0  0  0
  140.4302   75.0298  220.6414 H   0  0  0  0  0  0  0  0  0  0  0  0
  138.6113   74.9186  220.6324 H   0  0  0  0  0  0  0  0  0  0  0  0
  141.3170   76.4192  219.6734 H   0  0  0  0  0  0  0  0  0  0  0  0
  140.1487   77.4142  218.7984 H   0  0  0  0  0  0  0  0  0  0  0  0
  142.8218   78.1290  219.6892 H   0  0  0  0  0  0  0  0  0  0  0  0
  141.6950   79.1522  218.7906 H   0  0  0  0  0  0  0  0  0  0  0  0
  142.1522   78.9520  221.7872 H   0  0  0  0  0  0  0  0  0  0  0  0
  141.7337   80.3764  220.8817 H   0  0  0  0  0  0  0  0  0  0  0  0
  139.7633   79.1892  222.2315 H   0  0  0  0  0  0  0  0  0  0  0  0
  139.3632   79.5557  220.5765 H   0  0  0  0  0  0  0  0  0  0  0  0
  139.1416   70.3164  221.8894 H   0  0  0  0  0  0  0  0  0  0  0  0
  139.2301   68.6256  223.7509 H   0  0  0  0  0  0  0  0  0  0  0  0
  139.7575   68.0380  225.9844 H   0  0  0  0  0  0  0  0  0  0  0  0
  141.4647   71.0129  228.6317 H   0  0  0  0  0  0  0  0  0  0  0  0
  141.3743   72.6709  226.7909 H   0  0  0  0  0  0  0  0  0  0  0  0
  1  2  2  0
  2  3  1  0
  3  4  1  0
  4  5  1  0
  5  6  2  0
  5  7  1  0
  7  8  1  0
  8  9  1  0
  9 10  1  0
 10 11  1  0
  2 12  1  0
 12 13  2  0
 13 14  1  0
 14 15  2  0
 15 16  1  0
 16 17  2  0
 17 18  1  0
 17 19  1  0
 19 20  2  0
 20 21  1  0
 21 22  2  0
 11  7  1  0
 22 12  1  0
 21 15  1  0
  3 23  1  0
  4 24  1  0
  4 25  1  0
  8 26  1  0
  8 27  1  0
  9 28  1  0
  9 29  1  0
 10 30  1  0
 10 31  1  0
 11 32  1  0
 11 33  1  0
 13 34  1  0
 14 35  1  0
 16 36  1  0
 19 37  1  0
 20 38  1  0
M  END
>  <smiles>  (29) 
O=C(NCC(=O)N1CCCC1)c1ccc2cc(Cl)ccc2n1

>  <score_type>  (29) 
oracle

>  <origin>  (29) 
autodockgpu

>  <m_score__min__energy>  (29) 
-7.0599999999999996

>  <m_primary>  (29) 
energy

>  <rmsd>  (29) 
2.583800951381686

>  <m_score__min__rmsd>  (29) 
2.583800951381686

>  <meeko>  (29) 
{"free_energy": -6.58, "intermolecular_energy": -7.47, "internal_energy": -1.08, "cluster_size": 41, "cluster_id": 1, "rank_in_cluster": 33}

>  <energy>  (29) 
-6.7

>  <cluster_rmsd>  (29) 
1.7

>  <cluster>  (29) 
1

$$$$

     RDKit          3D

 38 40  0  0  0  0  0  0  0  0999 V2000
  140.8770   72.8480  221.1990 O   0  0  0  0  0  0  0  0  0  0  0  0
  140.1140   72.9220  222.2160 C   0  0  0  0  0  0  0  0  0  0  0  0
  139.2620   74.0590  222.2780 N   0  0  0  0  0  0  0  0  0  0  0  0
  139.2810   75.0480  221.2430 C   0  0  0  0  0  0  0  0  0  0  0  0
  138.6800   76.3340  221.6640 C   0  0  0  0  0  0  0  0  0  0  0  0
  137.4370   76.3890  221.7660 O   0  0  0  0  0  0  0  0  0  0  0  0
  139.5540   77.4240  221.9240 N   0  0  0  0  0  0  0  0  0  0  0  0
  141.0160   77.4520  221.8290 C   0  0  0  0  0  0  0  0  0  0  0  0
  141.4600   78.4820  222.8380 C   0  0  0  0  0  0  0  0  0  0  0  0
  140.1840   79.0180  223.4570 C   0  0  0  0  0  0  0  0  0  0  0  0
  139.1880   78.7640  222.3430 C   0  0  0  0  0  0  0  0  0  0  0  0
  140.1170   71.8980  223.2570 C   0  0  0  0  0  0  0  0  0  0  0  0
  139.6290   70.6490  222.9330 C   0  0  0  0  0  0  0  0  0  0  0  0
  139.6370   69.6820  223.9350 C   0  0  0  0  0  0  0  0  0  0  0  0
  140.1280   70.0030  225.2060 C   0  0  0  0  0  0  0  0  0  0  0  0
  140.1140   69.0000  226.1670 C   0  0  0  0  0  0  0  0  0  0  0  0
  140.6040   69.3400  227.4170 C   0  0  0  0  0  0  0  0  0  0  0  0
  140.6300   68.1460  228.7060 Cl  0  0  0  0  0  0  0  0  0  0  0  0
  141.0860   70.5930  227.7210 C   0  0  0  0  0  0  0  0  0  0  0  0
  141.0730   71.5420  226.7220 C   0  0  0  0  0  0  0  0  0  0  0  0
  140.6020   71.2730  225.4610 C   0  0  0  0  0  0  0  0  0  0  0  0
  140.5890   72.2110  224.4750 N   0  0  0  0  0  0  0  0  0  0  0  0
  138.6170   74.1690  223.0890 H   0  0  0  0  0  0  0  0  0  0  0  0
  140.3255   75.2283  220.9489 H   0  0  0  0  0  0  0  0  0  0  0  0
  138.6810   74.6615  220.4060 H   0  0  0  0  0  0  0  0  0  0  0  0
  141.4371   76.4658  222.0741 H   0  0  0  0  0  0  0  0  0  0  0  0
  141.3566   77.6995  220.8128 H   0  0  0  0  0  0  0  0  0  0  0  0
  142.0951   78.0181  223.6070 H   0  0  0  0  0  0  0  0  0  0  0  0
  142.0545   79.2812  222.3712 H   0  0  0  0  0  0  0  0  0  0  0  0
  139.9165   78.4667  224.3705 H   0  0  0  0  0  0  0  0  0  0  0  0
  140.2443   80.0683  223.7783 H   0  0  0  0  0  0  0  0  0  0  0  0
  138.1531   78.7999  222.7140 H   0  0  0  0  0  0  0  0  0  0  0  0
  139.2205   79.5099  221.5352 H   0  0  0  0  0  0  0  0  0  0  0  0
  139.2493   70.4262  221.9249 H   0  0  0  0  0  0  0  0  0  0  0  0
  139.2589   68.6698  223.7286 H   0  0  0  0  0  0  0  0  0  0  0  0
  139.7346   67.9912  225.9473 H   0  0  0  0  0  0  0  0  0  0  0  0
  141.4679   70.8283  228.7254 H   0  0  0  0  0  0  0  0  0  0  0  0
  141.4533   72.5503  226.9427 H   0  0  0  0  0  0  0  0  0  0  0  0
  1  2  2  0
  2  3  1  0
  3  4  1  0
  4  5  1  0
  5  6  2  0
  5  7  1  0
  7  8  1  0
  8  9  1  0
  9 10  1  0
 10 11  1  0
  2 12  1  0
 12 13  2  0
 13 14  1  0
 14 15  2  0
 15 16  1  0
 16 17  2  0
 17 18  1  0
 17 19  1  0
 19 20  2  0
 20 21  1  0
 21 22  2  0
 11  7  1  0
 22 12  1  0
 21 15  1  0
  3 23  1  0
  4 24  1  0
  4 25  1  0
  8 26  1  0
  8 27  1  0
  9 28  1  0
  9 29  1  0
 10 30  1  0
 10 31  1  0
 11 32  1  0
 11 33  1  0
 13 34  1  0
 14 35  1  0
 16 36  1  0
 19 37  1  0
 20 38  1  0
M  END
>  <smiles>  (30) 
O=C(NCC(=O)N1CCCC1)c1ccc2cc(Cl)ccc2n1

>  <score_type>  (30) 
oracle

>  <origin>  (30) 
autodockgpu

>  <m_score__min__energy>  (30) 
-7.0599999999999996

>  <m_primary>  (30) 
energy

>  <rmsd>  (30) 
3.228654038981337

>  <m_score__min__rmsd>  (30) 
3.228654038981337

>  <meeko>  (30) 
{"free_energy": -7.05, "intermolecular_energy": -7.95, "internal_energy": -0.73, "cluster_size": 41, "cluster_id": 1, "rank_in_cluster": 3}

>  <energy>  (30) 
-6.68

>  <cluster_rmsd>  (30) 
1.95

>  <cluster>  (30) 
1

$$$$

     RDKit          3D

 38 40  0  0  0  0  0  0  0  0999 V2000
  140.4740   73.9360  220.5670 O   0  0  0  0  0  0  0  0  0  0  0  0
  139.9530   73.8830  221.7280 C   0  0  0  0  0  0  0  0  0  0  0  0
  139.5720   75.1290  222.3000 N   0  0  0  0  0  0  0  0  0  0  0  0
  139.7730   76.3550  221.5890 C   0  0  0  0  0  0  0  0  0  0  0  0
  139.4570   77.5510  222.4030 C   0  0  0  0  0  0  0  0  0  0  0  0
  138.3580   77.5790  222.9940 O   0  0  0  0  0  0  0  0  0  0  0  0
  140.4230   78.5920  222.4610 N   0  0  0  0  0  0  0  0  0  0  0  0
  141.7320   78.6470  221.8050 C   0  0  0  0  0  0  0  0  0  0  0  0
  142.5910   79.5030  222.7010 C   0  0  0  0  0  0  0  0  0  0  0  0
  141.6890   79.9210  223.8460 C   0  0  0  0  0  0  0  0  0  0  0  0
  140.3250   79.8430  223.1900 C   0  0  0  0  0  0  0  0  0  0  0  0
  139.7600   72.6170  222.4300 C   0  0  0  0  0  0  0  0  0  0  0  0
  138.9970   71.6480  221.8110 C   0  0  0  0  0  0  0  0  0  0  0  0
  138.8220   70.4460  222.4910 C   0  0  0  0  0  0  0  0  0  0  0  0
  139.4100   70.2660  223.7480 C   0  0  0  0  0  0  0  0  0  0  0  0
  139.2020   69.0470  224.3810 C   0  0  0  0  0  0  0  0  0  0  0  0
  139.7940   68.8920  225.6240 C   0  0  0  0  0  0  0  0  0  0  0  0
  139.5930   67.3880  226.5110 Cl  0  0  0  0  0  0  0  0  0  0  0  0
  140.5510   69.8720  226.2250 C   0  0  0  0  0  0  0  0  0  0  0  0
  140.7180   71.0570  225.5440 C   0  0  0  0  0  0  0  0  0  0  0  0
  140.1610   71.2780  224.3090 C   0  0  0  0  0  0  0  0  0  0  0  0
  140.3270   72.4500  223.6360 N   0  0  0  0  0  0  0  0  0  0  0  0
  139.1410   75.1440  223.2480 H   0  0  0  0  0  0  0  0  0  0  0  0
  140.8262   76.4111  221.2767 H   0  0  0  0  0  0  0  0  0  0  0  0
  139.0902   76.3525  220.7266 H   0  0  0  0  0  0  0  0  0  0  0  0
  142.1589   77.6375  221.7119 H   0  0  0  0  0  0  0  0  0  0  0  0
  141.6635   79.0590  220.7873 H   0  0  0  0  0  0  0  0  0  0  0  0
  143.4484   78.9259  223.0777 H   0  0  0  0  0  0  0  0  0  0  0  0
  143.0008   80.3720  222.1655 H   0  0  0  0  0  0  0  0  0  0  0  0
  141.7680   79.2267  224.6955 H   0  0  0  0  0  0  0  0  0  0  0  0
  141.9288   80.9059  224.2732 H   0  0  0  0  0  0  0  0  0  0  0  0
  139.5205   79.8089  223.9394 H   0  0  0  0  0  0  0  0  0  0  0  0
  140.0815   80.7107  222.5592 H   0  0  0  0  0  0  0  0  0  0  0  0
  138.5462   71.8182  220.8222 H   0  0  0  0  0  0  0  0  0  0  0  0
  138.2233   69.6401  222.0416 H   0  0  0  0  0  0  0  0  0  0  0  0
  138.6006   68.2491  223.9209 H   0  0  0  0  0  0  0  0  0  0  0  0
  141.0062   69.7141  227.2139 H   0  0  0  0  0  0  0  0  0  0  0  0
  141.3188   71.8544  226.0057 H   0  0  0  0  0  0  0  0  0  0  0  0
  1  2  2  0
  2  3  1  0
  3  4  1  0
  4  5  1  0
  5  6  2  0
  5  7  1  0
  7  8  1  0
  8  9  1  0
  9 10  1  0
 10 11  1  0
  2 12  1  0
 12 13  2  0
 13 14  1  0
 14 15  2  0
 15 16  1  0
 16 17  2  0
 17 18  1  0
 17 19  1  0
 19 20  2  0
 20 21  1  0
 21 22  2  0
 11  7  1  0
 22 12  1  0
 21 15  1  0
  3 23  1  0
  4 24  1  0
  4 25  1  0
  8 26  1  0
  8 27  1  0
  9 28  1  0
  9 29  1  0
 10 30  1  0
 10 31  1  0
 11 32  1  0
 11 33  1  0
 13 34  1  0
 14 35  1  0
 16 36  1  0
 19 37  1  0
 20 38  1  0
M  END
>  <smiles>  (31) 
O=C(NCC(=O)N1CCCC1)c1ccc2cc(Cl)ccc2n1

>  <score_type>  (31) 
oracle

>  <origin>  (31) 
autodockgpu

>  <m_score__min__energy>  (31) 
-7.0599999999999996

>  <m_primary>  (31) 
energy

>  <rmsd>  (31) 
4.086973641374208

>  <m_score__min__rmsd>  (31) 
4.086973641374208

>  <meeko>  (31) 
{"free_energy": -6.89, "intermolecular_energy": -7.79, "internal_energy": -0.85, "cluster_size": 41, "cluster_id": 1, "rank_in_cluster": 25}

>  <energy>  (31) 
-6.67

>  <cluster_rmsd>  (31) 
1.98

>  <cluster>  (31) 
1

$$$$

     RDKit          3D

 38 40  0  0  0  0  0  0  0  0999 V2000
  140.7410   72.6490  220.9760 O   0  0  0  0  0  0  0  0  0  0  0  0
  140.1960   72.8980  222.1000 C   0  0  0  0  0  0  0  0  0  0  0  0
  139.6370   74.1970  222.2500 N   0  0  0  0  0  0  0  0  0  0  0  0
  139.6960   75.1500  221.1830 C   0  0  0  0  0  0  0  0  0  0  0  0
  139.5780   76.5490  221.6530 C   0  0  0  0  0  0  0  0  0  0  0  0
  138.9800   76.7520  222.7300 O   0  0  0  0  0  0  0  0  0  0  0  0
  140.1510   77.5730  220.8500 N   0  0  0  0  0  0  0  0  0  0  0  0
  140.8650   77.4300  219.5790 C   0  0  0  0  0  0  0  0  0  0  0  0
  141.8330   78.5850  219.5340 C   0  0  0  0  0  0  0  0  0  0  0  0
  141.5940   79.3620  220.8140 C   0  0  0  0  0  0  0  0  0  0  0  0
  140.1530   78.9990  221.1130 C   0  0  0  0  0  0  0  0  0  0  0  0
  140.1520   71.9060  223.1700 C   0  0  0  0  0  0  0  0  0  0  0  0
  139.6020   70.6740  222.8840 C   0  0  0  0  0  0  0  0  0  0  0  0
  139.5660   69.7380  223.9140 C   0  0  0  0  0  0  0  0  0  0  0  0
  140.0750   70.0710  225.1740 C   0  0  0  0  0  0  0  0  0  0  0  0
  140.0130   69.0990  226.1650 C   0  0  0  0  0  0  0  0  0  0  0  0
  140.5220   69.4510  227.4030 C   0  0  0  0  0  0  0  0  0  0  0  0
  140.4930   68.2960  228.7270 Cl  0  0  0  0  0  0  0  0  0  0  0  0
  141.0660   70.6870  227.6700 C   0  0  0  0  0  0  0  0  0  0  0  0
  141.0970   71.6060  226.6440 C   0  0  0  0  0  0  0  0  0  0  0  0
  140.6100   71.3230  225.3920 C   0  0  0  0  0  0  0  0  0  0  0  0
  140.6420   72.2310  224.3780 N   0  0  0  0  0  0  0  0  0  0  0  0
  139.1800   74.4540  223.1500 H   0  0  0  0  0  0  0  0  0  0  0  0
  140.6580   75.0347  220.6621 H   0  0  0  0  0  0  0  0  0  0  0  0
  138.8434   74.9526  220.5165 H   0  0  0  0  0  0  0  0  0  0  0  0
  141.4058   76.4727  219.5465 H   0  0  0  0  0  0  0  0  0  0  0  0
  140.1781   77.4370  218.7198 H   0  0  0  0  0  0  0  0  0  0  0  0
  142.8690   78.2174  219.4949 H   0  0  0  0  0  0  0  0  0  0  0  0
  141.6817   79.2105  218.6419 H   0  0  0  0  0  0  0  0  0  0  0  0
  142.2682   79.0318  221.6180 H   0  0  0  0  0  0  0  0  0  0  0  0
  141.7791   80.4429  220.7276 H   0  0  0  0  0  0  0  0  0  0  0  0
  139.8938   79.2144  222.1601 H   0  0  0  0  0  0  0  0  0  0  0  0
  139.4173   79.5641  220.5220 H   0  0  0  0  0  0  0  0  0  0  0  0
  139.2082   70.4406  221.8838 H   0  0  0  0  0  0  0  0  0  0  0  0
  139.1387   68.7398  223.7377 H   0  0  0  0  0  0  0  0  0  0  0  0
  139.5830   68.1043  225.9760 H   0  0  0  0  0  0  0  0  0  0  0  0
  141.4617   70.9321  228.6667 H   0  0  0  0  0  0  0  0  0  0  0  0
  141.5267   72.6005  226.8345 H   0  0  0  0  0  0  0  0  0  0  0  0
  1  2  2  0
  2  3  1  0
  3  4  1  0
  4  5  1  0
  5  6  2  0
  5  7  1  0
  7  8  1  0
  8  9  1  0
  9 10  1  0
 10 11  1  0
  2 12  1  0
 12 13  2  0
 13 14  1  0
 14 15  2  0
 15 16  1  0
 16 17  2  0
 17 18  1  0
 17 19  1  0
 19 20  2  0
 20 21  1  0
 21 22  2  0
 11  7  1  0
 22 12  1  0
 21 15  1  0
  3 23  1  0
  4 24  1  0
  4 25  1  0
  8 26  1  0
  8 27  1  0
  9 28  1  0
  9 29  1  0
 10 30  1  0
 10 31  1  0
 11 32  1  0
 11 33  1  0
 13 34  1  0
 14 35  1  0
 16 36  1  0
 19 37  1  0
 20 38  1  0
M  END
>  <smiles>  (32) 
O=C(NCC(=O)N1CCCC1)c1ccc2cc(Cl)ccc2n1

>  <score_type>  (32) 
oracle

>  <origin>  (32) 
autodockgpu

>  <m_score__min__energy>  (32) 
-7.0599999999999996

>  <m_primary>  (32) 
energy

>  <rmsd>  (32) 
2.6114720614068503

>  <m_score__min__rmsd>  (32) 
2.6114720614068503

>  <meeko>  (32) 
{"free_energy": -6.54, "intermolecular_energy": -7.43, "internal_energy": -1.08, "cluster_size": 41, "cluster_id": 1, "rank_in_cluster": 37}

>  <energy>  (32) 
-6.66

>  <cluster_rmsd>  (32) 
1.7

>  <cluster>  (32) 
1

$$$$

     RDKit          3D

 38 40  0  0  0  0  0  0  0  0999 V2000
  139.7410   72.3240  220.8640 O   0  0  0  0  0  0  0  0  0  0  0  0
  139.7210   72.6670  222.0900 C   0  0  0  0  0  0  0  0  0  0  0  0
  139.5710   74.0570  222.3490 N   0  0  0  0  0  0  0  0  0  0  0  0
  139.4520   74.9950  221.2730 C   0  0  0  0  0  0  0  0  0  0  0  0
  138.7890   76.2550  221.6790 C   0  0  0  0  0  0  0  0  0  0  0  0
  137.5440   76.2530  221.7740 O   0  0  0  0  0  0  0  0  0  0  0  0
  139.6090   77.3880  221.9350 N   0  0  0  0  0  0  0  0  0  0  0  0
  141.0690   77.4830  221.8490 C   0  0  0  0  0  0  0  0  0  0  0  0
  141.4580   78.5410  222.8510 C   0  0  0  0  0  0  0  0  0  0  0  0
  140.1550   79.0220  223.4580 C   0  0  0  0  0  0  0  0  0  0  0  0
  139.1780   78.7120  222.3400 C   0  0  0  0  0  0  0  0  0  0  0  0
  139.8450   71.6870  223.1660 C   0  0  0  0  0  0  0  0  0  0  0  0
  139.4450   70.3920  222.9080 C   0  0  0  0  0  0  0  0  0  0  0  0
  139.5690   69.4700  223.9420 C   0  0  0  0  0  0  0  0  0  0  0  0
  140.0820   69.8770  225.1790 C   0  0  0  0  0  0  0  0  0  0  0  0
  140.1840   68.9140  226.1760 C   0  0  0  0  0  0  0  0  0  0  0  0
  140.6940   69.3400  227.3910 C   0  0  0  0  0  0  0  0  0  0  0  0
  140.8650   68.2020  228.7200 Cl  0  0  0  0  0  0  0  0  0  0  0  0
  141.0870   70.6370  227.6300 C   0  0  0  0  0  0  0  0  0  0  0  0
  140.9600   71.5430  226.5990 C   0  0  0  0  0  0  0  0  0  0  0  0
  140.4630   71.1880  225.3690 C   0  0  0  0  0  0  0  0  0  0  0  0
  140.3380   72.0830  224.3510 N   0  0  0  0  0  0  0  0  0  0  0  0
  139.5480   74.3930  223.3340 H   0  0  0  0  0  0  0  0  0  0  0  0
  140.4596   75.2324  220.9010 H   0  0  0  0  0  0  0  0  0  0  0  0
  138.8285   74.5290  220.4957 H   0  0  0  0  0  0  0  0  0  0  0  0
  141.5337   76.5196  222.1057 H   0  0  0  0  0  0  0  0  0  0  0  0
  141.4046   77.7371  220.8327 H   0  0  0  0  0  0  0  0  0  0  0  0
  142.1095   78.1140  223.6277 H   0  0  0  0  0  0  0  0  0  0  0  0
  142.0171   79.3631  222.3803 H   0  0  0  0  0  0  0  0  0  0  0  0
  139.9080   78.4667  224.3749 H   0  0  0  0  0  0  0  0  0  0  0  0
  140.1643   80.0767  223.7704 H   0  0  0  0  0  0  0  0  0  0  0  0
  138.1403   78.7022  222.7049 H   0  0  0  0  0  0  0  0  0  0  0  0
  139.1800   79.4518  221.5259 H   0  0  0  0  0  0  0  0  0  0  0  0
  139.0448   70.1009  221.9256 H   0  0  0  0  0  0  0  0  0  0  0  0
  139.2648   68.4242  223.7880 H   0  0  0  0  0  0  0  0  0  0  0  0
  139.8766   67.8711  226.0092 H   0  0  0  0  0  0  0  0  0  0  0  0
  141.4880   70.9398  228.6085 H   0  0  0  0  0  0  0  0  0  0  0  0
  141.2672   72.5858  226.7671 H   0  0  0  0  0  0  0  0  0  0  0  0
  1  2  2  0
  2  3  1  0
  3  4  1  0
  4  5  1  0
  5  6  2  0
  5  7  1  0
  7  8  1  0
  8  9  1  0
  9 10  1  0
 10 11  1  0
  2 12  1  0
 12 13  2  0
 13 14  1  0
 14 15  2  0
 15 16  1  0
 16 17  2  0
 17 18  1  0
 17 19  1  0
 19 20  2  0
 20 21  1  0
 21 22  2  0
 11  7  1  0
 22 12  1  0
 21 15  1  0
  3 23  1  0
  4 24  1  0
  4 25  1  0
  8 26  1  0
  8 27  1  0
  9 28  1  0
  9 29  1  0
 10 30  1  0
 10 31  1  0
 11 32  1  0
 11 33  1  0
 13 34  1  0
 14 35  1  0
 16 36  1  0
 19 37  1  0
 20 38  1  0
M  END
>  <smiles>  (33) 
O=C(NCC(=O)N1CCCC1)c1ccc2cc(Cl)ccc2n1

>  <score_type>  (33) 
oracle

>  <origin>  (33) 
autodockgpu

>  <m_score__min__energy>  (33) 
-7.0599999999999996

>  <m_primary>  (33) 
energy

>  <rmsd>  (33) 
3.1782461242329165

>  <m_score__min__rmsd>  (33) 
3.1782461242329165

>  <meeko>  (33) 
{"free_energy": -6.98, "intermolecular_energy": -7.87, "internal_energy": -0.81, "cluster_size": 41, "cluster_id": 1, "rank_in_cluster": 13}

>  <energy>  (33) 
-6.58

>  <cluster_rmsd>  (33) 
0.97

>  <cluster>  (33) 
1

$$$$

     RDKit          3D

 38 40  0  0  0  0  0  0  0  0999 V2000
  139.5520   72.2790  220.8600 O   0  0  0  0  0  0  0  0  0  0  0  0
  139.6080   72.6280  222.0840 C   0  0  0  0  0  0  0  0  0  0  0  0
  139.5100   74.0230  222.3420 N   0  0  0  0  0  0  0  0  0  0  0  0
  139.3580   74.9590  221.2700 C   0  0  0  0  0  0  0  0  0  0  0  0
  138.7200   76.2250  221.6970 C   0  0  0  0  0  0  0  0  0  0  0  0
  137.4800   76.2310  221.8420 O   0  0  0  0  0  0  0  0  0  0  0  0
  139.5570   77.3530  221.9140 N   0  0  0  0  0  0  0  0  0  0  0  0
  141.0130   77.4390  221.7680 C   0  0  0  0  0  0  0  0  0  0  0  0
  141.4490   78.4990  222.7480 C   0  0  0  0  0  0  0  0  0  0  0  0
  140.1740   78.9900  223.4060 C   0  0  0  0  0  0  0  0  0  0  0  0
  139.1510   78.6820  222.3310 C   0  0  0  0  0  0  0  0  0  0  0  0
  139.7650   71.6500  223.1570 C   0  0  0  0  0  0  0  0  0  0  0  0
  139.3890   70.3470  222.9010 C   0  0  0  0  0  0  0  0  0  0  0  0
  139.5430   69.4260  223.9330 C   0  0  0  0  0  0  0  0  0  0  0  0
  140.0610   69.8420  225.1650 C   0  0  0  0  0  0  0  0  0  0  0  0
  140.1940   68.8800  226.1590 C   0  0  0  0  0  0  0  0  0  0  0  0
  140.7080   69.3150  227.3690 C   0  0  0  0  0  0  0  0  0  0  0  0
  140.9170   68.1800  228.6940 Cl  0  0  0  0  0  0  0  0  0  0  0  0
  141.0760   70.6200  227.6060 C   0  0  0  0  0  0  0  0  0  0  0  0
  140.9190   71.5240  226.5780 C   0  0  0  0  0  0  0  0  0  0  0  0
  140.4160   71.1610  225.3530 C   0  0  0  0  0  0  0  0  0  0  0  0
  140.2620   72.0550  224.3380 N   0  0  0  0  0  0  0  0  0  0  0  0
  139.5510   74.3630  223.3260 H   0  0  0  0  0  0  0  0  0  0  0  0
  140.3528   75.1880  220.8602 H   0  0  0  0  0  0  0  0  0  0  0  0
  138.7023   74.4960  220.5179 H   0  0  0  0  0  0  0  0  0  0  0  0
  141.4822   76.4740  222.0101 H   0  0  0  0  0  0  0  0  0  0  0  0
  141.3080   77.6867  220.7377 H   0  0  0  0  0  0  0  0  0  0  0  0
  142.1296   78.0718  223.4992 H   0  0  0  0  0  0  0  0  0  0  0  0
  141.9930   79.3158  222.2511 H   0  0  0  0  0  0  0  0  0  0  0  0
  139.9615   78.4395  224.3343 H   0  0  0  0  0  0  0  0  0  0  0  0
  140.2021   80.0458  223.7135 H   0  0  0  0  0  0  0  0  0  0  0  0
  138.1291   78.6803  222.7381 H   0  0  0  0  0  0  0  0  0  0  0  0
  139.1244   79.4186  221.5144 H   0  0  0  0  0  0  0  0  0  0  0  0
  138.9846   70.0489  221.9224 H   0  0  0  0  0  0  0  0  0  0  0  0
  139.2585   68.3744  223.7809 H   0  0  0  0  0  0  0  0  0  0  0  0
  139.9069   67.8311  225.9938 H   0  0  0  0  0  0  0  0  0  0  0  0
  141.4808   70.9300  228.5807 H   0  0  0  0  0  0  0  0  0  0  0  0
  141.2065   72.5726  226.7444 H   0  0  0  0  0  0  0  0  0  0  0  0
  1  2  2  0
  2  3  1  0
  3  4  1  0
  4  5  1  0
  5  6  2  0
  5  7  1  0
  7  8  1  0
  8  9  1  0
  9 10  1  0
 10 11  1  0
  2 12  1  0
 12 13  2  0
 13 14  1  0
 14 15  2  0
 15 16  1  0
 16 17  2  0
 17 18  1  0
 17 19  1  0
 19 20  2  0
 20 21  1  0
 21 22  2  0
 11  7  1  0
 22 12  1  0
 21 15  1  0
  3 23  1  0
  4 24  1  0
  4 25  1  0
  8 26  1  0
  8 27  1  0
  9 28  1  0
  9 29  1  0
 10 30  1  0
 10 31  1  0
 11 32  1  0
 11 33  1  0
 13 34  1  0
 14 35  1  0
 16 36  1  0
 19 37  1  0
 20 38  1  0
M  END
>  <smiles>  (34) 
O=C(NCC(=O)N1CCCC1)c1ccc2cc(Cl)ccc2n1

>  <score_type>  (34) 
oracle

>  <origin>  (34) 
autodockgpu

>  <m_score__min__energy>  (34) 
-7.0599999999999996

>  <m_primary>  (34) 
energy

>  <rmsd>  (34) 
3.1343515299761444

>  <m_score__min__rmsd>  (34) 
3.1343515299761444

>  <meeko>  (34) 
{"free_energy": -6.92, "intermolecular_energy": -7.81, "internal_energy": -0.82, "cluster_size": 41, "cluster_id": 1, "rank_in_cluster": 21}

>  <energy>  (34) 
-6.57

>  <cluster_rmsd>  (34) 
1.01

>  <cluster>  (34) 
1

$$$$

     RDKit          3D

 38 40  0  0  0  0  0  0  0  0999 V2000
  140.1050   72.5800  220.8600 O   0  0  0  0  0  0  0  0  0  0  0  0
  139.8500   72.8720  222.0730 C   0  0  0  0  0  0  0  0  0  0  0  0
  139.4860   74.2230  222.3290 N   0  0  0  0  0  0  0  0  0  0  0  0
  139.4170   75.1780  221.2640 C   0  0  0  0  0  0  0  0  0  0  0  0
  138.7650   76.4450  221.6690 C   0  0  0  0  0  0  0  0  0  0  0  0
  137.5190   76.4600  221.7410 O   0  0  0  0  0  0  0  0  0  0  0  0
  139.5980   77.5630  221.9490 N   0  0  0  0  0  0  0  0  0  0  0  0
  141.0600   77.6380  221.8910 C   0  0  0  0  0  0  0  0  0  0  0  0
  141.4460   78.6810  222.9080 C   0  0  0  0  0  0  0  0  0  0  0  0
  140.1390   79.1760  223.4950 C   0  0  0  0  0  0  0  0  0  0  0  0
  139.1790   78.8900  222.3580 C   0  0  0  0  0  0  0  0  0  0  0  0
  139.9290   71.8760  223.1380 C   0  0  0  0  0  0  0  0  0  0  0  0
  139.4960   70.5960  222.8560 C   0  0  0  0  0  0  0  0  0  0  0  0
  139.5770   69.6570  223.8810 C   0  0  0  0  0  0  0  0  0  0  0  0
  140.0820   70.0330  225.1310 C   0  0  0  0  0  0  0  0  0  0  0  0
  140.1400   69.0560  226.1160 C   0  0  0  0  0  0  0  0  0  0  0  0
  140.6430   69.4510  227.3440 C   0  0  0  0  0  0  0  0  0  0  0  0
  140.7600   68.2920  228.6600 Cl  0  0  0  0  0  0  0  0  0  0  0  0
  141.0700   70.7330  227.6060 C   0  0  0  0  0  0  0  0  0  0  0  0
  140.9850   71.6550  226.5850 C   0  0  0  0  0  0  0  0  0  0  0  0
  140.4970   71.3310  225.3440 C   0  0  0  0  0  0  0  0  0  0  0  0
  140.4150   72.2420  224.3360 N   0  0  0  0  0  0  0  0  0  0  0  0
  139.2670   74.5160  223.3030 H   0  0  0  0  0  0  0  0  0  0  0  0
  140.4396   75.4016  220.9260 H   0  0  0  0  0  0  0  0  0  0  0  0
  138.8090   74.7350  220.4614 H   0  0  0  0  0  0  0  0  0  0  0  0
  141.5060   76.6659  222.1479 H   0  0  0  0  0  0  0  0  0  0  0  0
  141.4175   77.8962  220.8833 H   0  0  0  0  0  0  0  0  0  0  0  0
  142.0768   78.2380  223.6928 H   0  0  0  0  0  0  0  0  0  0  0  0
  142.0259   79.4985  222.4548 H   0  0  0  0  0  0  0  0  0  0  0  0
  139.8672   78.6168  224.4024 H   0  0  0  0  0  0  0  0  0  0  0  0
  140.1579   80.2279  223.8162 H   0  0  0  0  0  0  0  0  0  0  0  0
  138.1349   78.8923  222.7041 H   0  0  0  0  0  0  0  0  0  0  0  0
  139.2066   79.6366  221.5506 H   0  0  0  0  0  0  0  0  0  0  0  0
  139.1036   70.3291  221.8636 H   0  0  0  0  0  0  0  0  0  0  0  0
  139.2450   68.6225  223.7088 H   0  0  0  0  0  0  0  0  0  0  0  0
  139.8047   68.0248  225.9309 H   0  0  0  0  0  0  0  0  0  0  0  0
  141.4647   71.0116  228.5942 H   0  0  0  0  0  0  0  0  0  0  0  0
  141.3199   72.6861  226.7714 H   0  0  0  0  0  0  0  0  0  0  0  0
  1  2  2  0
  2  3  1  0
  3  4  1  0
  4  5  1  0
  5  6  2  0
  5  7  1  0
  7  8  1  0
  8  9  1  0
  9 10  1  0
 10 11  1  0
  2 12  1  0
 12 13  2  0
 13 14  1  0
 14 15  2  0
 15 16  1  0
 16 17  2  0
 17 18  1  0
 17 19  1  0
 19 20  2  0
 20 21  1  0
 21 22  2  0
 11  7  1  0
 22 12  1  0
 21 15  1  0
  3 23  1  0
  4 24  1  0
  4 25  1  0
  8 26  1  0
  8 27  1  0
  9 28  1  0
  9 29  1  0
 10 30  1  0
 10 31  1  0
 11 32  1  0
 11 33  1  0
 13 34  1  0
 14 35  1  0
 16 36  1  0
 19 37  1  0
 20 38  1  0
M  END
>  <smiles>  (35) 
O=C(NCC(=O)N1CCCC1)c1ccc2cc(Cl)ccc2n1

>  <score_type>  (35) 
oracle

>  <origin>  (35) 
autodockgpu

>  <m_score__min__energy>  (35) 
-7.0599999999999996

>  <m_primary>  (35) 
energy

>  <rmsd>  (35) 
3.2747404483936884

>  <m_score__min__rmsd>  (35) 
3.2747404483936884

>  <meeko>  (35) 
{"free_energy": -7.05, "intermolecular_energy": -7.94, "internal_energy": -0.77, "cluster_size": 41, "cluster_id": 1, "rank_in_cluster": 5}

>  <energy>  (35) 
-6.57

>  <cluster_rmsd>  (35) 
0.99

>  <cluster>  (35) 
1

$$$$

     RDKit          3D

 38 40  0  0  0  0  0  0  0  0999 V2000
  140.3850   72.5720  220.8800 O   0  0  0  0  0  0  0  0  0  0  0  0
  140.0160   72.8610  222.0640 C   0  0  0  0  0  0  0  0  0  0  0  0
  139.5840   74.1990  222.2760 N   0  0  0  0  0  0  0  0  0  0  0  0
  139.5730   75.1460  221.2030 C   0  0  0  0  0  0  0  0  0  0  0  0
  139.4810   76.5470  221.6720 C   0  0  0  0  0  0  0  0  0  0  0  0
  138.8660   76.7650  222.7360 O   0  0  0  0  0  0  0  0  0  0  0  0
  140.0960   77.5560  220.8820 N   0  0  0  0  0  0  0  0  0  0  0  0
  140.8330   77.3970  219.6260 C   0  0  0  0  0  0  0  0  0  0  0  0
  141.8300   78.5270  219.6020 C   0  0  0  0  0  0  0  0  0  0  0  0
  141.5850   79.3090  220.8780 C   0  0  0  0  0  0  0  0  0  0  0  0
  140.1290   78.9820  221.1470 C   0  0  0  0  0  0  0  0  0  0  0  0
  140.0380   71.8730  223.1400 C   0  0  0  0  0  0  0  0  0  0  0  0
  139.5530   70.6110  222.8650 C   0  0  0  0  0  0  0  0  0  0  0  0
  139.5800   69.6800  223.9000 C   0  0  0  0  0  0  0  0  0  0  0  0
  140.0850   70.0470  225.1520 C   0  0  0  0  0  0  0  0  0  0  0  0
  140.0880   69.0780  226.1480 C   0  0  0  0  0  0  0  0  0  0  0  0
  140.5920   69.4640  227.3790 C   0  0  0  0  0  0  0  0  0  0  0  0
  140.6420   68.3150  228.7080 Cl  0  0  0  0  0  0  0  0  0  0  0  0
  141.0720   70.7290  227.6330 C   0  0  0  0  0  0  0  0  0  0  0  0
  141.0400   71.6430  226.6030 C   0  0  0  0  0  0  0  0  0  0  0  0
  140.5540   71.3270  225.3580 C   0  0  0  0  0  0  0  0  0  0  0  0
  140.5240   72.2310  224.3400 N   0  0  0  0  0  0  0  0  0  0  0  0
  139.2720   74.4890  223.2260 H   0  0  0  0  0  0  0  0  0  0  0  0
  140.5006   75.0302  220.6232 H   0  0  0  0  0  0  0  0  0  0  0  0
  138.6806   74.9430  220.5927 H   0  0  0  0  0  0  0  0  0  0  0  0
  141.3504   76.4265  219.6034 H   0  0  0  0  0  0  0  0  0  0  0  0
  140.1643   77.4225  218.7530 H   0  0  0  0  0  0  0  0  0  0  0  0
  142.8570   78.1335  219.5832 H   0  0  0  0  0  0  0  0  0  0  0  0
  141.7123   79.1568  218.7078 H   0  0  0  0  0  0  0  0  0  0  0  0
  142.2341   78.9613  221.6951 H   0  0  0  0  0  0  0  0  0  0  0  0
  141.7992   80.3849  220.7970 H   0  0  0  0  0  0  0  0  0  0  0  0
  139.8539   79.2030  222.1889 H   0  0  0  0  0  0  0  0  0  0  0  0
  139.4202   79.5660  220.5416 H   0  0  0  0  0  0  0  0  0  0  0  0
  139.1616   70.3514  221.8703 H   0  0  0  0  0  0  0  0  0  0  0  0
  139.2055   68.6592  223.7338 H   0  0  0  0  0  0  0  0  0  0  0  0
  139.7108   68.0604  225.9686 H   0  0  0  0  0  0  0  0  0  0  0  0
  141.4670   71.0002  228.6232 H   0  0  0  0  0  0  0  0  0  0  0  0
  141.4165   72.6606  226.7838 H   0  0  0  0  0  0  0  0  0  0  0  0
  1  2  2  0
  2  3  1  0
  3  4  1  0
  4  5  1  0
  5  6  2  0
  5  7  1  0
  7  8  1  0
  8  9  1  0
  9 10  1  0
 10 11  1  0
  2 12  1  0
 12 13  2  0
 13 14  1  0
 14 15  2  0
 15 16  1  0
 16 17  2  0
 17 18  1  0
 17 19  1  0
 19 20  2  0
 20 21  1  0
 21 22  2  0
 11  7  1  0
 22 12  1  0
 21 15  1  0
  3 23  1  0
  4 24  1  0
  4 25  1  0
  8 26  1  0
  8 27  1  0
  9 28  1  0
  9 29  1  0
 10 30  1  0
 10 31  1  0
 11 32  1  0
 11 33  1  0
 13 34  1  0
 14 35  1  0
 16 36  1  0
 19 37  1  0
 20 38  1  0
M  END
>  <smiles>  (36) 
O=C(NCC(=O)N1CCCC1)c1ccc2cc(Cl)ccc2n1

>  <score_type>  (36) 
oracle

>  <origin>  (36) 
autodockgpu

>  <m_score__min__energy>  (36) 
-7.0599999999999996

>  <m_primary>  (36) 
energy

>  <rmsd>  (36) 
2.588016566405306

>  <m_score__min__rmsd>  (36) 
2.588016566405306

>  <meeko>  (36) 
{"free_energy": -6.57, "intermolecular_energy": -7.47, "internal_energy": -1.1, "cluster_size": 41, "cluster_id": 1, "rank_in_cluster": 34}

>  <energy>  (36) 
-6.56

>  <cluster_rmsd>  (36) 
1.02

>  <cluster>  (36) 
1

$$$$

     RDKit          3D

 38 40  0  0  0  0  0  0  0  0999 V2000
  139.3890   72.0100  220.7850 O   0  0  0  0  0  0  0  0  0  0  0  0
  139.5030   72.4020  221.9910 C   0  0  0  0  0  0  0  0  0  0  0  0
  139.4820   73.8090  222.1970 N   0  0  0  0  0  0  0  0  0  0  0  0
  139.3380   74.7100  221.0930 C   0  0  0  0  0  0  0  0  0  0  0  0
  139.9320   76.0410  221.3560 C   0  0  0  0  0  0  0  0  0  0  0  0
  139.9940   76.4270  222.5410 O   0  0  0  0  0  0  0  0  0  0  0  0
  140.3930   76.7960  220.2430 N   0  0  0  0  0  0  0  0  0  0  0  0
  140.3610   76.4270  218.8250 C   0  0  0  0  0  0  0  0  0  0  0  0
  141.5340   77.1400  218.2010 C   0  0  0  0  0  0  0  0  0  0  0  0
  142.1800   77.9190  219.3300 C   0  0  0  0  0  0  0  0  0  0  0  0
  141.0030   78.1120  220.2650 C   0  0  0  0  0  0  0  0  0  0  0  0
  139.6490   71.4590  223.0970 C   0  0  0  0  0  0  0  0  0  0  0  0
  139.1940   70.1700  222.9080 C   0  0  0  0  0  0  0  0  0  0  0  0
  139.3390   69.2820  223.9700 C   0  0  0  0  0  0  0  0  0  0  0  0
  139.9260   69.7170  225.1640 C   0  0  0  0  0  0  0  0  0  0  0  0
  140.0460   68.7880  226.1910 C   0  0  0  0  0  0  0  0  0  0  0  0
  140.6300   69.2400  227.3620 C   0  0  0  0  0  0  0  0  0  0  0  0
  140.8300   68.1470  228.7240 Cl  0  0  0  0  0  0  0  0  0  0  0  0
  141.0780   70.5310  227.5310 C   0  0  0  0  0  0  0  0  0  0  0  0
  140.9290   71.4020  226.4740 C   0  0  0  0  0  0  0  0  0  0  0  0
  140.3600   71.0200  225.2850 C   0  0  0  0  0  0  0  0  0  0  0  0
  140.2140   71.8810  224.2400 N   0  0  0  0  0  0  0  0  0  0  0  0
  139.5720   74.1840  223.1640 H   0  0  0  0  0  0  0  0  0  0  0  0
  139.8340   74.2713  220.2146 H   0  0  0  0  0  0  0  0  0  0  0  0
  138.2610   74.8561  220.9236 H   0  0  0  0  0  0  0  0  0  0  0  0
  140.4653   75.3382  218.7079 H   0  0  0  0  0  0  0  0  0  0  0  0
  139.4099   76.7089  218.3496 H   0  0  0  0  0  0  0  0  0  0  0  0
  142.2447   76.4145  217.7784 H   0  0  0  0  0  0  0  0  0  0  0  0
  141.2210   77.7982  217.3772 H   0  0  0  0  0  0  0  0  0  0  0  0
  142.9850   77.3422  219.8089 H   0  0  0  0  0  0  0  0  0  0  0  0
  142.6639   78.8549  219.0139 H   0  0  0  0  0  0  0  0  0  0  0  0
  141.3355   78.3833  221.2779 H   0  0  0  0  0  0  0  0  0  0  0  0
  140.3240   78.9246  219.9673 H   0  0  0  0  0  0  0  0  0  0  0  0
  138.7360   69.8574  221.9580 H   0  0  0  0  0  0  0  0  0  0  0  0
  138.9936   68.2423  223.8714 H   0  0  0  0  0  0  0  0  0  0  0  0
  139.6963   67.7511  226.0794 H   0  0  0  0  0  0  0  0  0  0  0  0
  141.5383   70.8553  228.4760 H   0  0  0  0  0  0  0  0  0  0  0  0
  141.2780   72.4390  226.5869 H   0  0  0  0  0  0  0  0  0  0  0  0
  1  2  2  0
  2  3  1  0
  3  4  1  0
  4  5  1  0
  5  6  2  0
  5  7  1  0
  7  8  1  0
  8  9  1  0
  9 10  1  0
 10 11  1  0
  2 12  1  0
 12 13  2  0
 13 14  1  0
 14 15  2  0
 15 16  1  0
 16 17  2  0
 17 18  1  0
 17 19  1  0
 19 20  2  0
 20 21  1  0
 21 22  2  0
 11  7  1  0
 22 12  1  0
 21 15  1  0
  3 23  1  0
  4 24  1  0
  4 25  1  0
  8 26  1  0
  8 27  1  0
  9 28  1  0
  9 29  1  0
 10 30  1  0
 10 31  1  0
 11 32  1  0
 11 33  1  0
 13 34  1  0
 14 35  1  0
 16 36  1  0
 19 37  1  0
 20 38  1  0
M  END
>  <smiles>  (37) 
O=C(NCC(=O)N1CCCC1)c1ccc2cc(Cl)ccc2n1

>  <score_type>  (37) 
oracle

>  <origin>  (37) 
autodockgpu

>  <m_score__min__energy>  (37) 
-7.0599999999999996

>  <m_primary>  (37) 
energy

>  <rmsd>  (37) 
2.0170404870204925

>  <m_score__min__rmsd>  (37) 
2.0170404870204925

>  <meeko>  (37) 
{"free_energy": -6.36, "intermolecular_energy": -7.26, "internal_energy": -1.19, "cluster_size": 41, "cluster_id": 1, "rank_in_cluster": 41}

>  <energy>  (37) 
-6.54

>  <cluster_rmsd>  (37) 
1.06

>  <cluster>  (37) 
1

$$$$

     RDKit          3D

 38 40  0  0  0  0  0  0  0  0999 V2000
  140.1790   72.5830  220.8970 O   0  0  0  0  0  0  0  0  0  0  0  0
  139.8830   72.8690  222.1020 C   0  0  0  0  0  0  0  0  0  0  0  0
  139.4860   74.2120  222.3470 N   0  0  0  0  0  0  0  0  0  0  0  0
  139.4290   75.1670  221.2810 C   0  0  0  0  0  0  0  0  0  0  0  0
  138.7700   76.4320  221.6760 C   0  0  0  0  0  0  0  0  0  0  0  0
  137.5230   76.4430  221.7400 O   0  0  0  0  0  0  0  0  0  0  0  0
  139.5960   77.5550  221.9580 N   0  0  0  0  0  0  0  0  0  0  0  0
  141.0580   77.6350  221.9100 C   0  0  0  0  0  0  0  0  0  0  0  0
  141.4330   78.6850  222.9260 C   0  0  0  0  0  0  0  0  0  0  0  0
  140.1190   79.1760  223.5020 C   0  0  0  0  0  0  0  0  0  0  0  0
  139.1680   78.8820  222.3590 C   0  0  0  0  0  0  0  0  0  0  0  0
  139.9500   71.8740  223.1690 C   0  0  0  0  0  0  0  0  0  0  0  0
  139.5060   70.5980  222.8880 C   0  0  0  0  0  0  0  0  0  0  0  0
  139.5760   69.6600  223.9140 C   0  0  0  0  0  0  0  0  0  0  0  0
  140.0810   70.0330  225.1640 C   0  0  0  0  0  0  0  0  0  0  0  0
  140.1280   69.0570  226.1510 C   0  0  0  0  0  0  0  0  0  0  0  0
  140.6320   69.4490  227.3810 C   0  0  0  0  0  0  0  0  0  0  0  0
  140.7350   68.2910  228.6990 Cl  0  0  0  0  0  0  0  0  0  0  0  0
  141.0700   70.7280  227.6410 C   0  0  0  0  0  0  0  0  0  0  0  0
  140.9960   71.6490  226.6190 C   0  0  0  0  0  0  0  0  0  0  0  0
  140.5080   71.3270  225.3770 C   0  0  0  0  0  0  0  0  0  0  0  0
  140.4370   72.2380  224.3670 N   0  0  0  0  0  0  0  0  0  0  0  0
  139.2330   74.5010  223.3150 H   0  0  0  0  0  0  0  0  0  0  0  0
  140.4556   75.3924  220.9564 H   0  0  0  0  0  0  0  0  0  0  0  0
  138.8320   74.7225  220.4710 H   0  0  0  0  0  0  0  0  0  0  0  0
  141.5058   76.6657  222.1745 H   0  0  0  0  0  0  0  0  0  0  0  0
  141.4219   77.8898  220.9037 H   0  0  0  0  0  0  0  0  0  0  0  0
  142.0606   78.2484  223.7169 H   0  0  0  0  0  0  0  0  0  0  0  0
  142.0124   79.5033  222.4736 H   0  0  0  0  0  0  0  0  0  0  0  0
  139.8433   78.6185  224.4093 H   0  0  0  0  0  0  0  0  0  0  0  0
  140.1309   80.2290  223.8197 H   0  0  0  0  0  0  0  0  0  0  0  0
  138.1214   78.8811  222.6976 H   0  0  0  0  0  0  0  0  0  0  0  0
  139.1979   79.6258  221.5492 H   0  0  0  0  0  0  0  0  0  0  0  0
  139.1133   70.3333  221.8951 H   0  0  0  0  0  0  0  0  0  0  0  0
  139.2352   68.6283  223.7423 H   0  0  0  0  0  0  0  0  0  0  0  0
  139.7839   68.0286  225.9664 H   0  0  0  0  0  0  0  0  0  0  0  0
  141.4650   71.0048  228.6296 H   0  0  0  0  0  0  0  0  0  0  0  0
  141.3397   72.6773  226.8046 H   0  0  0  0  0  0  0  0  0  0  0  0
  1  2  2  0
  2  3  1  0
  3  4  1  0
  4  5  1  0
  5  6  2  0
  5  7  1  0
  7  8  1  0
  8  9  1  0
  9 10  1  0
 10 11  1  0
  2 12  1  0
 12 13  2  0
 13 14  1  0
 14 15  2  0
 15 16  1  0
 16 17  2  0
 17 18  1  0
 17 19  1  0
 19 20  2  0
 20 21  1  0
 21 22  2  0
 11  7  1  0
 22 12  1  0
 21 15  1  0
  3 23  1  0
  4 24  1  0
  4 25  1  0
  8 26  1  0
  8 27  1  0
  9 28  1  0
  9 29  1  0
 10 30  1  0
 10 31  1  0
 11 32  1  0
 11 33  1  0
 13 34  1  0
 14 35  1  0
 16 36  1  0
 19 37  1  0
 20 38  1  0
M  END
>  <smiles>  (38) 
O=C(NCC(=O)N1CCCC1)c1ccc2cc(Cl)ccc2n1

>  <score_type>  (38) 
oracle

>  <origin>  (38) 
autodockgpu

>  <m_score__min__energy>  (38) 
-7.0599999999999996

>  <m_primary>  (38) 
energy

>  <rmsd>  (38) 
3.277209507450834

>  <m_score__min__rmsd>  (38) 
3.277209507450834

>  <meeko>  (38) 
{"free_energy": -7.06, "intermolecular_energy": -7.96, "internal_energy": -0.76, "cluster_size": 41, "cluster_id": 1, "rank_in_cluster": 1}

>  <energy>  (38) 
-6.51

>  <cluster_rmsd>  (38) 
1.07

>  <cluster>  (38) 
1

$$$$

     RDKit          3D

 38 40  0  0  0  0  0  0  0  0999 V2000
  140.6960   73.8100  220.8050 O   0  0  0  0  0  0  0  0  0  0  0  0
  140.0370   73.8140  221.8940 C   0  0  0  0  0  0  0  0  0  0  0  0
  139.5680   75.0810  222.3370 N   0  0  0  0  0  0  0  0  0  0  0  0
  139.8350   76.2680  221.5820 C   0  0  0  0  0  0  0  0  0  0  0  0
  139.4700   77.5060  222.3070 C   0  0  0  0  0  0  0  0  0  0  0  0
  138.3370   77.5630  222.8280 O   0  0  0  0  0  0  0  0  0  0  0  0
  140.4310   78.5530  222.3640 N   0  0  0  0  0  0  0  0  0  0  0  0
  141.7770   78.5760  221.7860 C   0  0  0  0  0  0  0  0  0  0  0  0
  142.5800   79.4840  222.6820 C   0  0  0  0  0  0  0  0  0  0  0  0
  141.6110   79.9620  223.7460 C   0  0  0  0  0  0  0  0  0  0  0  0
  140.2890   79.8420  223.0140 C   0  0  0  0  0  0  0  0  0  0  0  0
  139.7800   72.5870  222.6430 C   0  0  0  0  0  0  0  0  0  0  0  0
  138.7370   71.7850  222.2270 C   0  0  0  0  0  0  0  0  0  0  0  0
  138.5030   70.6190  222.9500 C   0  0  0  0  0  0  0  0  0  0  0  0
  139.3130   70.3080  224.0490 C   0  0  0  0  0  0  0  0  0  0  0  0
  139.0350   69.1310  224.7340 C   0  0  0  0  0  0  0  0  0  0  0  0
  139.8500   68.8440  225.8170 C   0  0  0  0  0  0  0  0  0  0  0  0
  139.5830   67.3810  226.7530 Cl  0  0  0  0  0  0  0  0  0  0  0  0
  140.8850   69.6580  226.2170 C   0  0  0  0  0  0  0  0  0  0  0  0
  141.1080   70.8100  225.4940 C   0  0  0  0  0  0  0  0  0  0  0  0
  140.3390   71.1550  224.4100 C   0  0  0  0  0  0  0  0  0  0  0  0
  140.5600   72.2930  223.6960 N   0  0  0  0  0  0  0  0  0  0  0  0
  139.0230   75.1420  223.2220 H   0  0  0  0  0  0  0  0  0  0  0  0
  140.9095   76.3015  221.3490 H   0  0  0  0  0  0  0  0  0  0  0  0
  139.2198   76.2253  220.6711 H   0  0  0  0  0  0  0  0  0  0  0  0
  142.2091   77.5645  221.7758 H   0  0  0  0  0  0  0  0  0  0  0  0
  141.7697   78.9299  220.7445 H   0  0  0  0  0  0  0  0  0  0  0  0
  143.4137   78.9323  223.1410 H   0  0  0  0  0  0  0  0  0  0  0  0
  143.0204   80.3234  222.1239 H   0  0  0  0  0  0  0  0  0  0  0  0
  141.6391   79.3166  224.6363 H   0  0  0  0  0  0  0  0  0  0  0  0
  141.8242   80.9699  224.1314 H   0  0  0  0  0  0  0  0  0  0  0  0
  139.4407   79.8471  223.7142 H   0  0  0  0  0  0  0  0  0  0  0  0
  140.0840   80.6719  222.3217 H   0  0  0  0  0  0  0  0  0  0  0  0
  138.1164   72.0559  221.3601 H   0  0  0  0  0  0  0  0  0  0  0  0
  137.6846   69.9441  222.6591 H   0  0  0  0  0  0  0  0  0  0  0  0
  138.2135   68.4643  224.4329 H   0  0  0  0  0  0  0  0  0  0  0  0
  141.5119   69.3985  227.0828 H   0  0  0  0  0  0  0  0  0  0  0  0
  141.9301   71.4758  225.7956 H   0  0  0  0  0  0  0  0  0  0  0  0
  1  2  2  0
  2  3  1  0
  3  4  1  0
  4  5  1  0
  5  6  2  0
  5  7  1  0
  7  8  1  0
  8  9  1  0
  9 10  1  0
 10 11  1  0
  2 12  1  0
 12 13  2  0
 13 14  1  0
 14 15  2  0
 15 16  1  0
 16 17  2  0
 17 18  1  0
 17 19  1  0
 19 20  2  0
 20 21  1  0
 21 22  2  0
 11  7  1  0
 22 12  1  0
 21 15  1  0
  3 23  1  0
  4 24  1  0
  4 25  1  0
  8 26  1  0
  8 27  1  0
  9 28  1  0
  9 29  1  0
 10 30  1  0
 10 31  1  0
 11 32  1  0
 11 33  1  0
 13 34  1  0
 14 35  1  0
 16 36  1  0
 19 37  1  0
 20 38  1  0
M  END
>  <smiles>  (39) 
O=C(NCC(=O)N1CCCC1)c1ccc2cc(Cl)ccc2n1

>  <score_type>  (39) 
oracle

>  <origin>  (39) 
autodockgpu

>  <m_score__min__energy>  (39) 
-7.0599999999999996

>  <m_primary>  (39) 
energy

>  <rmsd>  (39) 
4.039630627816882

>  <m_score__min__rmsd>  (39) 
4.039630627816882

>  <meeko>  (39) 
{"free_energy": -6.93, "intermolecular_energy": -7.82, "internal_energy": -0.82, "cluster_size": 41, "cluster_id": 1, "rank_in_cluster": 19}

>  <energy>  (39) 
-6.41

>  <cluster_rmsd>  (39) 
1.3

>  <cluster>  (39) 
1

$$$$

     RDKit          3D

 38 40  0  0  0  0  0  0  0  0999 V2000
  139.7200   72.3380  220.8560 O   0  0  0  0  0  0  0  0  0  0  0  0
  139.7120   72.6840  222.0820 C   0  0  0  0  0  0  0  0  0  0  0  0
  139.5750   74.0760  222.3380 N   0  0  0  0  0  0  0  0  0  0  0  0
  139.4530   75.0120  221.2620 C   0  0  0  0  0  0  0  0  0  0  0  0
  138.7980   76.2760  221.6700 C   0  0  0  0  0  0  0  0  0  0  0  0
  137.5540   76.2840  221.7620 O   0  0  0  0  0  0  0  0  0  0  0  0
  139.6280   77.4020  221.9300 N   0  0  0  0  0  0  0  0  0  0  0  0
  141.0880   77.4860  221.8480 C   0  0  0  0  0  0  0  0  0  0  0  0
  141.4830   78.5380  222.8540 C   0  0  0  0  0  0  0  0  0  0  0  0
  140.1820   79.0270  223.4590 C   0  0  0  0  0  0  0  0  0  0  0  0
  139.2060   78.7280  222.3390 C   0  0  0  0  0  0  0  0  0  0  0  0
  139.8400   71.7060  223.1590 C   0  0  0  0  0  0  0  0  0  0  0  0
  139.4530   70.4070  222.8980 C   0  0  0  0  0  0  0  0  0  0  0  0
  139.5800   69.4860  223.9340 C   0  0  0  0  0  0  0  0  0  0  0  0
  140.0810   69.8980  225.1740 C   0  0  0  0  0  0  0  0  0  0  0  0
  140.1860   68.9360  226.1710 C   0  0  0  0  0  0  0  0  0  0  0  0
  140.6850   69.3670  227.3890 C   0  0  0  0  0  0  0  0  0  0  0  0
  140.8580   68.2320  228.7190 Cl  0  0  0  0  0  0  0  0  0  0  0  0
  141.0650   70.6680  227.6300 C   0  0  0  0  0  0  0  0  0  0  0  0
  140.9350   71.5720  226.5980 C   0  0  0  0  0  0  0  0  0  0  0  0
  140.4490   71.2130  225.3660 C   0  0  0  0  0  0  0  0  0  0  0  0
  140.3220   72.1070  224.3470 N   0  0  0  0  0  0  0  0  0  0  0  0
  139.5630   74.4140  223.3230 H   0  0  0  0  0  0  0  0  0  0  0  0
  140.4592   75.2444  220.8830 H   0  0  0  0  0  0  0  0  0  0  0  0
  138.8223   74.5473  220.4898 H   0  0  0  0  0  0  0  0  0  0  0  0
  141.5446   76.5183  222.1030 H   0  0  0  0  0  0  0  0  0  0  0  0
  141.4279   77.7406  220.8333 H   0  0  0  0  0  0  0  0  0  0  0  0
  142.1292   78.1037  223.6310 H   0  0  0  0  0  0  0  0  0  0  0  0
  142.0499   79.3571  222.3874 H   0  0  0  0  0  0  0  0  0  0  0  0
  139.9287   78.4710  224.3737 H   0  0  0  0  0  0  0  0  0  0  0  0
  140.1986   80.0808  223.7742 H   0  0  0  0  0  0  0  0  0  0  0  0
  138.1676   78.7245  222.7019 H   0  0  0  0  0  0  0  0  0  0  0  0
  139.2153   79.4705  221.5275 H   0  0  0  0  0  0  0  0  0  0  0  0
  139.0610   70.1122  221.9134 H   0  0  0  0  0  0  0  0  0  0  0  0
  139.2873   68.4371  223.7784 H   0  0  0  0  0  0  0  0  0  0  0  0
  139.8893   67.8903  226.0024 H   0  0  0  0  0  0  0  0  0  0  0  0
  141.4581   70.9748  228.6105 H   0  0  0  0  0  0  0  0  0  0  0  0
  141.2311   72.6177  226.7678 H   0  0  0  0  0  0  0  0  0  0  0  0
  1  2  2  0
  2  3  1  0
  3  4  1  0
  4  5  1  0
  5  6  2  0
  5  7  1  0
  7  8  1  0
  8  9  1  0
  9 10  1  0
 10 11  1  0
  2 12  1  0
 12 13  2  0
 13 14  1  0
 14 15  2  0
 15 16  1  0
 16 17  2  0
 17 18  1  0
 17 19  1  0
 19 20  2  0
 20 21  1  0
 21 22  2  0
 11  7  1  0
 22 12  1  0
 21 15  1  0
  3 23  1  0
  4 24  1  0
  4 25  1  0
  8 26  1  0
  8 27  1  0
  9 28  1  0
  9 29  1  0
 10 30  1  0
 10 31  1  0
 11 32  1  0
 11 33  1  0
 13 34  1  0
 14 35  1  0
 16 36  1  0
 19 37  1  0
 20 38  1  0
M  END
>  <smiles>  (40) 
O=C(NCC(=O)N1CCCC1)c1ccc2cc(Cl)ccc2n1

>  <score_type>  (40) 
oracle

>  <origin>  (40) 
autodockgpu

>  <m_score__min__energy>  (40) 
-7.0599999999999996

>  <m_primary>  (40) 
energy

>  <rmsd>  (40) 
3.1846741275904686

>  <m_score__min__rmsd>  (40) 
3.1846741275904686

>  <meeko>  (40) 
{"free_energy": -6.97, "intermolecular_energy": -7.86, "internal_energy": -0.81, "cluster_size": 41, "cluster_id": 1, "rank_in_cluster": 14}

>  <energy>  (40) 
-6.39

>  <cluster_rmsd>  (40) 
1.43

>  <cluster>  (40) 
1

$$$$

     RDKit          3D

 38 40  0  0  0  0  0  0  0  0999 V2000
  140.1380   72.1140  220.7560 O   0  0  0  0  0  0  0  0  0  0  0  0
  139.8830   72.4630  221.9540 C   0  0  0  0  0  0  0  0  0  0  0  0
  139.5370   73.8290  222.1480 N   0  0  0  0  0  0  0  0  0  0  0  0
  139.4840   74.7370  221.0420 C   0  0  0  0  0  0  0  0  0  0  0  0
  140.3990   75.8910  221.2010 C   0  0  0  0  0  0  0  0  0  0  0  0
  140.4220   76.4660  222.3080 O   0  0  0  0  0  0  0  0  0  0  0  0
  141.1910   76.2710  220.0840 N   0  0  0  0  0  0  0  0  0  0  0  0
  141.2300   75.6600  218.7530 C   0  0  0  0  0  0  0  0  0  0  0  0
  142.6260   75.9070  218.2410 C   0  0  0  0  0  0  0  0  0  0  0  0
  143.3240   76.6910  219.3350 C   0  0  0  0  0  0  0  0  0  0  0  0
  142.1460   77.3610  220.0140 C   0  0  0  0  0  0  0  0  0  0  0  0
  139.9450   71.5140  223.0630 C   0  0  0  0  0  0  0  0  0  0  0  0
  139.4860   70.2320  222.8390 C   0  0  0  0  0  0  0  0  0  0  0  0
  139.5510   69.3390  223.9040 C   0  0  0  0  0  0  0  0  0  0  0  0
  140.0670   69.7610  225.1350 C   0  0  0  0  0  0  0  0  0  0  0  0
  140.1080   68.8270  226.1630 C   0  0  0  0  0  0  0  0  0  0  0  0
  140.6220   69.2670  227.3720 C   0  0  0  0  0  0  0  0  0  0  0  0
  140.7190   68.1660  228.7380 Cl  0  0  0  0  0  0  0  0  0  0  0  0
  141.0750   70.5510  227.5750 C   0  0  0  0  0  0  0  0  0  0  0  0
  141.0060   71.4280  226.5150 C   0  0  0  0  0  0  0  0  0  0  0  0
  140.5080   71.0580  225.2890 C   0  0  0  0  0  0  0  0  0  0  0  0
  140.4410   71.9240  224.2420 N   0  0  0  0  0  0  0  0  0  0  0  0
  139.3190   74.1680  223.1080 H   0  0  0  0  0  0  0  0  0  0  0  0
  139.7608   74.1927  220.1271 H   0  0  0  0  0  0  0  0  0  0  0  0
  138.4590   75.1326  220.9878 H   0  0  0  0  0  0  0  0  0  0  0  0
  141.0294   74.5804  218.8189 H   0  0  0  0  0  0  0  0  0  0  0  0
  140.4673   76.0859  218.0844 H   0  0  0  0  0  0  0  0  0  0  0  0
  143.1440   74.9535  218.0606 H   0  0  0  0  0  0  0  0  0  0  0  0
  142.6206   76.4534  217.2863 H   0  0  0  0  0  0  0  0  0  0  0  0
  143.8631   76.0263  220.0261 H   0  0  0  0  0  0  0  0  0  0  0  0
  144.0921   77.3891  218.9706 H   0  0  0  0  0  0  0  0  0  0  0  0
  142.4144   77.7246  221.0169 H   0  0  0  0  0  0  0  0  0  0  0  0
  141.7718   78.2506  219.4861 H   0  0  0  0  0  0  0  0  0  0  0  0
  139.0858   69.9290  221.8602 H   0  0  0  0  0  0  0  0  0  0  0  0
  139.1980   68.3047  223.7791 H   0  0  0  0  0  0  0  0  0  0  0  0
  139.7521   67.7954  226.0246 H   0  0  0  0  0  0  0  0  0  0  0  0
  141.4778   70.8655  228.5491 H   0  0  0  0  0  0  0  0  0  0  0  0
  141.3616   72.4595  226.6548 H   0  0  0  0  0  0  0  0  0  0  0  0
  1  2  2  0
  2  3  1  0
  3  4  1  0
  4  5  1  0
  5  6  2  0
  5  7  1  0
  7  8  1  0
  8  9  1  0
  9 10  1  0
 10 11  1  0
  2 12  1  0
 12 13  2  0
 13 14  1  0
 14 15  2  0
 15 16  1  0
 16 17  2  0
 17 18  1  0
 17 19  1  0
 19 20  2  0
 20 21  1  0
 21 22  2  0
 11  7  1  0
 22 12  1  0
 21 15  1  0
  3 23  1  0
  4 24  1  0
  4 25  1  0
  8 26  1  0
  8 27  1  0
  9 28  1  0
  9 29  1  0
 10 30  1  0
 10 31  1  0
 11 32  1  0
 11 33  1  0
 13 34  1  0
 14 35  1  0
 16 36  1  0
 19 37  1  0
 20 38  1  0
M  END
>  <smiles>  (41) 
O=C(NCC(=O)N1CCCC1)c1ccc2cc(Cl)ccc2n1

>  <score_type>  (41) 
oracle

>  <origin>  (41) 
autodockgpu

>  <m_score__min__energy>  (41) 
-7.0599999999999996

>  <m_primary>  (41) 
energy

>  <rmsd>  (41) 
2.2268255484991712

>  <m_score__min__rmsd>  (41) 
2.2268255484991712

>  <meeko>  (41) 
{"free_energy": -6.7, "intermolecular_energy": -7.6, "internal_energy": -0.93, "cluster_size": 41, "cluster_id": 1, "rank_in_cluster": 29}

>  <energy>  (41) 
-6.36

>  <cluster_rmsd>  (41) 
1.46

>  <cluster>  (41) 
1

$$$$

     RDKit          3D

 38 40  0  0  0  0  0  0  0  0999 V2000
  140.9390   71.2120  221.6560 O   0  0  0  0  0  0  0  0  0  0  0  0
  140.7330   72.3290  222.2300 C   0  0  0  0  0  0  0  0  0  0  0  0
  140.1840   72.2680  223.5410 N   0  0  0  0  0  0  0  0  0  0  0  0
  139.8910   71.0080  224.1550 C   0  0  0  0  0  0  0  0  0  0  0  0
  140.4740   70.8790  225.5100 C   0  0  0  0  0  0  0  0  0  0  0  0
  140.9280   71.9090  226.0490 O   0  0  0  0  0  0  0  0  0  0  0  0
  140.4810   69.5910  226.1120 N   0  0  0  0  0  0  0  0  0  0  0  0
  139.9750   68.3330  225.5590 C   0  0  0  0  0  0  0  0  0  0  0  0
  139.5580   67.5110  226.7540 C   0  0  0  0  0  0  0  0  0  0  0  0
  139.8800   68.3670  227.9640 C   0  0  0  0  0  0  0  0  0  0  0  0
  140.9980   69.2350  227.4200 C   0  0  0  0  0  0  0  0  0  0  0  0
  141.0410   73.5990  221.5780 C   0  0  0  0  0  0  0  0  0  0  0  0
  141.7620   73.5600  220.4010 C   0  0  0  0  0  0  0  0  0  0  0  0
  142.0490   74.7780  219.7910 C   0  0  0  0  0  0  0  0  0  0  0  0
  141.6090   75.9700  220.3770 C   0  0  0  0  0  0  0  0  0  0  0  0
  141.9230   77.1560  219.7240 C   0  0  0  0  0  0  0  0  0  0  0  0
  141.4780   78.3230  220.3220 C   0  0  0  0  0  0  0  0  0  0  0  0
  141.8220   79.8780  219.5800 Cl  0  0  0  0  0  0  0  0  0  0  0  0
  140.7610   78.3410  221.4970 C   0  0  0  0  0  0  0  0  0  0  0  0
  140.4820   77.1300  222.0940 C   0  0  0  0  0  0  0  0  0  0  0  0
  140.8930   75.9360  221.5550 C   0  0  0  0  0  0  0  0  0  0  0  0
  140.6170   74.7410  222.1440 N   0  0  0  0  0  0  0  0  0  0  0  0
  139.9950   73.1530  224.0560 H   0  0  0  0  0  0  0  0  0  0  0  0
  138.7990   70.8998  224.2308 H   0  0  0  0  0  0  0  0  0  0  0  0
  140.3371   70.2227  223.5271 H   0  0  0  0  0  0  0  0  0  0  0  0
  139.1137   68.5204  224.9009 H   0  0  0  0  0  0  0  0  0  0  0  0
  140.7338   67.8177  224.9518 H   0  0  0  0  0  0  0  0  0  0  0  0
  138.4808   67.2918  226.7133 H   0  0  0  0  0  0  0  0  0  0  0  0
  140.0799   66.5433  226.7870 H   0  0  0  0  0  0  0  0  0  0  0  0
  139.0141   68.9711  228.2726 H   0  0  0  0  0  0  0  0  0  0  0  0
  140.1493   67.7945  228.8639 H   0  0  0  0  0  0  0  0  0  0  0  0
  141.1550   70.1260  228.0456 H   0  0  0  0  0  0  0  0  0  0  0  0
  141.9785   68.7370  227.3932 H   0  0  0  0  0  0  0  0  0  0  0  0
  142.0954   72.6072  219.9640 H   0  0  0  0  0  0  0  0  0  0  0  0
  142.6200   74.8033  218.8511 H   0  0  0  0  0  0  0  0  0  0  0  0
  142.4937   77.1670  218.7837 H   0  0  0  0  0  0  0  0  0  0  0  0
  140.4228   79.2877  221.9436 H   0  0  0  0  0  0  0  0  0  0  0  0
  139.9107   77.1201  223.0340 H   0  0  0  0  0  0  0  0  0  0  0  0
  1  2  2  0
  2  3  1  0
  3  4  1  0
  4  5  1  0
  5  6  2  0
  5  7  1  0
  7  8  1  0
  8  9  1  0
  9 10  1  0
 10 11  1  0
  2 12  1  0
 12 13  2  0
 13 14  1  0
 14 15  2  0
 15 16  1  0
 16 17  2  0
 17 18  1  0
 17 19  1  0
 19 20  2  0
 20 21  1  0
 21 22  2  0
 11  7  1  0
 22 12  1  0
 21 15  1  0
  3 23  1  0
  4 24  1  0
  4 25  1  0
  8 26  1  0
  8 27  1  0
  9 28  1  0
  9 29  1  0
 10 30  1  0
 10 31  1  0
 11 32  1  0
 11 33  1  0
 13 34  1  0
 14 35  1  0
 16 36  1  0
 19 37  1  0
 20 38  1  0
M  END
>  <smiles>  (42) 
O=C(NCC(=O)N1CCCC1)c1ccc2cc(Cl)ccc2n1

>  <score_type>  (42) 
oracle

>  <origin>  (42) 
autodockgpu

>  <m_score__min__energy>  (42) 
-7.0599999999999996

>  <m_primary>  (42) 
energy

>  <rmsd>  (42) 
8.915646974069176

>  <m_score__min__rmsd>  (42) 
8.915646974069176

>  <meeko>  (42) 
{"free_energy": -6.64, "intermolecular_energy": -7.54, "internal_energy": -1.08, "cluster_size": 8, "cluster_id": 3, "rank_in_cluster": 6}

>  <energy>  (42) 
-6.91

>  <cluster_rmsd>  (42) 
0.0

>  <cluster>  (42) 
2

$$$$

     RDKit          3D

 38 40  0  0  0  0  0  0  0  0999 V2000
  140.8210   73.8740  220.8410 O   0  0  0  0  0  0  0  0  0  0  0  0
  140.1170   73.8510  221.9020 C   0  0  0  0  0  0  0  0  0  0  0  0
  139.5930   75.1020  222.3320 N   0  0  0  0  0  0  0  0  0  0  0  0
  139.8580   76.3010  221.5960 C   0  0  0  0  0  0  0  0  0  0  0  0
  139.4980   77.5270  222.3440 C   0  0  0  0  0  0  0  0  0  0  0  0
  138.3880   77.5570  222.9130 O   0  0  0  0  0  0  0  0  0  0  0  0
  140.4390   78.5930  222.3670 N   0  0  0  0  0  0  0  0  0  0  0  0
  141.7580   78.6480  221.7320 C   0  0  0  0  0  0  0  0  0  0  0  0
  142.5800   79.5670  222.5990 C   0  0  0  0  0  0  0  0  0  0  0  0
  141.6480   80.0180  223.7070 C   0  0  0  0  0  0  0  0  0  0  0  0
  140.2980   79.8750  223.0310 C   0  0  0  0  0  0  0  0  0  0  0  0
  139.8650   72.6130  222.6330 C   0  0  0  0  0  0  0  0  0  0  0  0
  138.8910   71.7650  222.1470 C   0  0  0  0  0  0  0  0  0  0  0  0
  138.6610   70.5880  222.8540 C   0  0  0  0  0  0  0  0  0  0  0  0
  139.4070   70.3110  224.0050 C   0  0  0  0  0  0  0  0  0  0  0  0
  139.1360   69.1220  224.6710 C   0  0  0  0  0  0  0  0  0  0  0  0
  139.8860   68.8700  225.8070 C   0  0  0  0  0  0  0  0  0  0  0  0
  139.6230   67.3940  226.7240 Cl  0  0  0  0  0  0  0  0  0  0  0  0
  140.8540   69.7290  226.2770 C   0  0  0  0  0  0  0  0  0  0  0  0
  141.0740   70.8910  225.5700 C   0  0  0  0  0  0  0  0  0  0  0  0
  140.3660   71.2040  224.4350 C   0  0  0  0  0  0  0  0  0  0  0  0
  140.5840   72.3520  223.7370 N   0  0  0  0  0  0  0  0  0  0  0  0
  139.0110   75.1410  223.1950 H   0  0  0  0  0  0  0  0  0  0  0  0
  140.9314   76.3371  221.3584 H   0  0  0  0  0  0  0  0  0  0  0  0
  139.2386   76.2746  220.6873 H   0  0  0  0  0  0  0  0  0  0  0  0
  142.2102   77.6459  221.6960 H   0  0  0  0  0  0  0  0  0  0  0  0
  141.6984   79.0083  220.6944 H   0  0  0  0  0  0  0  0  0  0  0  0
  143.4439   79.0300  223.0178 H   0  0  0  0  0  0  0  0  0  0  0  0
  142.9786   80.4188  222.0284 H   0  0  0  0  0  0  0  0  0  0  0  0
  141.7275   79.3677  224.5906 H   0  0  0  0  0  0  0  0  0  0  0  0
  141.8568   81.0277  224.0903 H   0  0  0  0  0  0  0  0  0  0  0  0
  139.4804   79.8583  223.7667 H   0  0  0  0  0  0  0  0  0  0  0  0
  140.0464   80.7045  222.3539 H   0  0  0  0  0  0  0  0  0  0  0  0
  138.3201   72.0088  221.2389 H   0  0  0  0  0  0  0  0  0  0  0  0
  137.8951   69.8779  222.5089 H   0  0  0  0  0  0  0  0  0  0  0  0
  138.3678   68.4196  224.3152 H   0  0  0  0  0  0  0  0  0  0  0  0
  141.4309   69.4960  227.1841 H   0  0  0  0  0  0  0  0  0  0  0  0
  141.8429   71.5921  225.9266 H   0  0  0  0  0  0  0  0  0  0  0  0
  1  2  2  0
  2  3  1  0
  3  4  1  0
  4  5  1  0
  5  6  2  0
  5  7  1  0
  7  8  1  0
  8  9  1  0
  9 10  1  0
 10 11  1  0
  2 12  1  0
 12 13  2  0
 13 14  1  0
 14 15  2  0
 15 16  1  0
 16 17  2  0
 17 18  1  0
 17 19  1  0
 19 20  2  0
 20 21  1  0
 21 22  2  0
 11  7  1  0
 22 12  1  0
 21 15  1  0
  3 23  1  0
  4 24  1  0
  4 25  1  0
  8 26  1  0
  8 27  1  0
  9 28  1  0
  9 29  1  0
 10 30  1  0
 10 31  1  0
 11 32  1  0
 11 33  1  0
 13 34  1  0
 14 35  1  0
 16 36  1  0
 19 37  1  0
 20 38  1  0
M  END
>  <smiles>  (43) 
O=C(NCC(=O)N1CCCC1)c1ccc2cc(Cl)ccc2n1

>  <score_type>  (43) 
oracle

>  <origin>  (43) 
autodockgpu

>  <m_score__min__energy>  (43) 
-7.0599999999999996

>  <m_primary>  (43) 
energy

>  <rmsd>  (43) 
4.044690521991576

>  <m_score__min__rmsd>  (43) 
4.044690521991576

>  <meeko>  (43) 
{"free_energy": -6.91, "intermolecular_energy": -7.8, "internal_energy": -0.85, "cluster_size": 41, "cluster_id": 1, "rank_in_cluster": 23}

>  <energy>  (43) 
-6.73

>  <cluster_rmsd>  (43) 
0.0

>  <cluster>  (43) 
3

$$$$

     RDKit          3D

 38 40  0  0  0  0  0  0  0  0999 V2000
  139.9720   72.1430  220.7160 O   0  0  0  0  0  0  0  0  0  0  0  0
  139.8420   72.5210  221.9250 C   0  0  0  0  0  0  0  0  0  0  0  0
  139.6230   73.9120  222.1260 N   0  0  0  0  0  0  0  0  0  0  0  0
  139.5560   74.8120  221.0150 C   0  0  0  0  0  0  0  0  0  0  0  0
  140.7590   75.6680  220.8940 C   0  0  0  0  0  0  0  0  0  0  0  0
  140.7540   76.7650  221.4890 O   0  0  0  0  0  0  0  0  0  0  0  0
  141.8420   75.1870  220.1090 N   0  0  0  0  0  0  0  0  0  0  0  0
  141.9360   73.9200  219.3790 C   0  0  0  0  0  0  0  0  0  0  0  0
  143.4060   73.5820  219.3550 C   0  0  0  0  0  0  0  0  0  0  0  0
  144.0940   74.7240  220.0780 C   0  0  0  0  0  0  0  0  0  0  0  0
  143.1060   75.8510  219.8550 C   0  0  0  0  0  0  0  0  0  0  0  0
  139.9160   71.5790  223.0380 C   0  0  0  0  0  0  0  0  0  0  0  0
  139.4620   70.2930  222.8250 C   0  0  0  0  0  0  0  0  0  0  0  0
  139.5370   69.4060  223.8950 C   0  0  0  0  0  0  0  0  0  0  0  0
  140.0580   69.8370  225.1200 C   0  0  0  0  0  0  0  0  0  0  0  0
  140.1100   68.9100  226.1530 C   0  0  0  0  0  0  0  0  0  0  0  0
  140.6290   69.3590  227.3560 C   0  0  0  0  0  0  0  0  0  0  0  0
  140.7400   68.2660  228.7280 Cl  0  0  0  0  0  0  0  0  0  0  0  0
  141.0760   70.6460  227.5500 C   0  0  0  0  0  0  0  0  0  0  0  0
  140.9970   71.5170  226.4840 C   0  0  0  0  0  0  0  0  0  0  0  0
  140.4940   71.1370  225.2640 C   0  0  0  0  0  0  0  0  0  0  0  0
  140.4160   71.9980  224.2120 N   0  0  0  0  0  0  0  0  0  0  0  0
  139.5100   74.2750  223.0960 H   0  0  0  0  0  0  0  0  0  0  0  0
  139.4498   74.2231  220.0920 H   0  0  0  0  0  0  0  0  0  0  0  0
  138.6937   75.4751  221.1785 H   0  0  0  0  0  0  0  0  0  0  0  0
  141.3683   73.1335  219.8978 H   0  0  0  0  0  0  0  0  0  0  0  0
  141.5170   73.9991  218.3650 H   0  0  0  0  0  0  0  0  0  0  0  0
  143.5906   72.6305  219.8751 H   0  0  0  0  0  0  0  0  0  0  0  0
  143.7815   73.4629  218.3280 H   0  0  0  0  0  0  0  0  0  0  0  0
  144.2210   74.5051  221.1485 H   0  0  0  0  0  0  0  0  0  0  0  0
  145.1115   74.9379  219.7191 H   0  0  0  0  0  0  0  0  0  0  0  0
  143.2740   76.6774  220.5612 H   0  0  0  0  0  0  0  0  0  0  0  0
  143.1749   76.3155  218.8603 H   0  0  0  0  0  0  0  0  0  0  0  0
  139.0578   69.9821  221.8503 H   0  0  0  0  0  0  0  0  0  0  0  0
  139.1878   68.3695  223.7780 H   0  0  0  0  0  0  0  0  0  0  0  0
  139.7583   67.8759  226.0228 H   0  0  0  0  0  0  0  0  0  0  0  0
  141.4817   70.9682  228.5204 H   0  0  0  0  0  0  0  0  0  0  0  0
  141.3487   72.5510  226.6152 H   0  0  0  0  0  0  0  0  0  0  0  0
  1  2  2  0
  2  3  1  0
  3  4  1  0
  4  5  1  0
  5  6  2  0
  5  7  1  0
  7  8  1  0
  8  9  1  0
  9 10  1  0
 10 11  1  0
  2 12  1  0
 12 13  2  0
 13 14  1  0
 14 15  2  0
 15 16  1  0
 16 17  2  0
 17 18  1  0
 17 19  1  0
 19 20  2  0
 20 21  1  0
 21 22  2  0
 11  7  1  0
 22 12  1  0
 21 15  1  0
  3 23  1  0
  4 24  1  0
  4 25  1  0
  8 26  1  0
  8 27  1  0
  9 28  1  0
  9 29  1  0
 10 30  1  0
 10 31  1  0
 11 32  1  0
 11 33  1  0
 13 34  1  0
 14 35  1  0
 16 36  1  0
 19 37  1  0
 20 38  1  0
M  END
>  <smiles>  (44) 
O=C(NCC(=O)N1CCCC1)c1ccc2cc(Cl)ccc2n1

>  <score_type>  (44) 
oracle

>  <origin>  (44) 
autodockgpu

>  <m_score__min__energy>  (44) 
-7.0599999999999996

>  <m_primary>  (44) 
energy

>  <rmsd>  (44) 
2.775590924938872

>  <m_score__min__rmsd>  (44) 
2.775590924938872

>  <meeko>  (44) 
{"free_energy": -6.67, "intermolecular_energy": -7.56, "internal_energy": -0.98, "cluster_size": 41, "cluster_id": 1, "rank_in_cluster": 31}

>  <energy>  (44) 
-6.73

>  <cluster_rmsd>  (44) 
0.04

>  <cluster>  (44) 
3

$$$$

     RDKit          3D

 38 40  0  0  0  0  0  0  0  0999 V2000
  139.8840   72.0320  220.7880 O   0  0  0  0  0  0  0  0  0  0  0  0
  139.7970   72.4110  222.0010 C   0  0  0  0  0  0  0  0  0  0  0  0
  139.6050   73.8040  222.2100 N   0  0  0  0  0  0  0  0  0  0  0  0
  139.5180   74.7070  221.1020 C   0  0  0  0  0  0  0  0  0  0  0  0
  140.4150   75.8770  221.2400 C   0  0  0  0  0  0  0  0  0  0  0  0
  140.4410   76.4630  222.3420 O   0  0  0  0  0  0  0  0  0  0  0  0
  141.1900   76.2590  220.1110 N   0  0  0  0  0  0  0  0  0  0  0  0
  141.2250   75.6360  218.7860 C   0  0  0  0  0  0  0  0  0  0  0  0
  142.6120   75.9010  218.2570 C   0  0  0  0  0  0  0  0  0  0  0  0
  143.3080   76.7060  219.3360 C   0  0  0  0  0  0  0  0  0  0  0  0
  142.1270   77.3640  220.0210 C   0  0  0  0  0  0  0  0  0  0  0  0
  139.8910   71.4660  223.1110 C   0  0  0  0  0  0  0  0  0  0  0  0
  139.4650   70.1720  222.8920 C   0  0  0  0  0  0  0  0  0  0  0  0
  139.5590   69.2820  223.9590 C   0  0  0  0  0  0  0  0  0  0  0  0
  140.0700   69.7200  225.1860 C   0  0  0  0  0  0  0  0  0  0  0  0
  140.1420   68.7900  226.2160 C   0  0  0  0  0  0  0  0  0  0  0  0
  140.6510   69.2460  227.4210 C   0  0  0  0  0  0  0  0  0  0  0  0
  140.7840   68.1520  228.7890 Cl  0  0  0  0  0  0  0  0  0  0  0  0
  141.0700   70.5420  227.6190 C   0  0  0  0  0  0  0  0  0  0  0  0
  140.9720   71.4150  226.5570 C   0  0  0  0  0  0  0  0  0  0  0  0
  140.4780   71.0290  225.3350 C   0  0  0  0  0  0  0  0  0  0  0  0
  140.3820   71.8920  224.2860 N   0  0  0  0  0  0  0  0  0  0  0  0
  139.5280   74.1680  223.1820 H   0  0  0  0  0  0  0  0  0  0  0  0
  139.7884   74.1638  220.1845 H   0  0  0  0  0  0  0  0  0  0  0  0
  138.4857   75.0852  221.0648 H   0  0  0  0  0  0  0  0  0  0  0  0
  141.0429   74.5540  218.8643 H   0  0  0  0  0  0  0  0  0  0  0  0
  140.4485   76.0427  218.1215 H   0  0  0  0  0  0  0  0  0  0  0  0
  143.1436   74.9544  218.0799 H   0  0  0  0  0  0  0  0  0  0  0  0
  142.5878   76.4384  217.2975 H   0  0  0  0  0  0  0  0  0  0  0  0
  143.8645   76.0565  220.0277 H   0  0  0  0  0  0  0  0  0  0  0  0
  144.0610   77.4126  218.9569 H   0  0  0  0  0  0  0  0  0  0  0  0
  142.3999   77.7412  221.0176 H   0  0  0  0  0  0  0  0  0  0  0  0
  141.7334   78.2427  219.4891 H   0  0  0  0  0  0  0  0  0  0  0  0
  139.0679   69.8567  221.9158 H   0  0  0  0  0  0  0  0  0  0  0  0
  139.2328   68.2385  223.8378 H   0  0  0  0  0  0  0  0  0  0  0  0
  139.8129   67.7490  226.0819 H   0  0  0  0  0  0  0  0  0  0  0  0
  141.4690   70.8694  228.5904 H   0  0  0  0  0  0  0  0  0  0  0  0
  141.3005   72.4560  226.6927 H   0  0  0  0  0  0  0  0  0  0  0  0
  1  2  2  0
  2  3  1  0
  3  4  1  0
  4  5  1  0
  5  6  2  0
  5  7  1  0
  7  8  1  0
  8  9  1  0
  9 10  1  0
 10 11  1  0
  2 12  1  0
 12 13  2  0
 13 14  1  0
 14 15  2  0
 15 16  1  0
 16 17  2  0
 17 18  1  0
 17 19  1  0
 19 20  2  0
 20 21  1  0
 21 22  2  0
 11  7  1  0
 22 12  1  0
 21 15  1  0
  3 23  1  0
  4 24  1  0
  4 25  1  0
  8 26  1  0
  8 27  1  0
  9 28  1  0
  9 29  1  0
 10 30  1  0
 10 31  1  0
 11 32  1  0
 11 33  1  0
 13 34  1  0
 14 35  1  0
 16 36  1  0
 19 37  1  0
 20 38  1  0
M  END
>  <smiles>  (45) 
O=C(NCC(=O)N1CCCC1)c1ccc2cc(Cl)ccc2n1

>  <score_type>  (45) 
oracle

>  <origin>  (45) 
autodockgpu

>  <m_score__min__energy>  (45) 
-7.0599999999999996

>  <m_primary>  (45) 
energy

>  <rmsd>  (45) 
2.2109513736438626

>  <m_score__min__rmsd>  (45) 
2.2109513736438626

>  <meeko>  (45) 
{"free_energy": -6.66, "intermolecular_energy": -7.56, "internal_energy": -0.99, "cluster_size": 41, "cluster_id": 1, "rank_in_cluster": 32}

>  <energy>  (45) 
-6.7

>  <cluster_rmsd>  (45) 
0.37

>  <cluster>  (45) 
3

$$$$

     RDKit          3D

 38 40  0  0  0  0  0  0  0  0999 V2000
  139.8320   73.7760  222.3620 O   0  0  0  0  0  0  0  0  0  0  0  0
  140.2720   72.5880  222.2350 C   0  0  0  0  0  0  0  0  0  0  0  0
  140.8230   72.2560  220.9660 N   0  0  0  0  0  0  0  0  0  0  0  0
  140.8680   73.2220  219.9100 C   0  0  0  0  0  0  0  0  0  0  0  0
  141.9140   74.2500  220.1150 C   0  0  0  0  0  0  0  0  0  0  0  0
  141.5460   75.3980  220.4390 O   0  0  0  0  0  0  0  0  0  0  0  0
  143.2700   73.8660  219.9290 N   0  0  0  0  0  0  0  0  0  0  0  0
  143.7930   72.5510  219.5510 C   0  0  0  0  0  0  0  0  0  0  0  0
  145.1640   72.4730  220.1740 C   0  0  0  0  0  0  0  0  0  0  0  0
  145.3630   73.8010  220.8790 C   0  0  0  0  0  0  0  0  0  0  0  0
  144.4480   74.7010  220.0740 C   0  0  0  0  0  0  0  0  0  0  0  0
  140.2120   71.6230  223.3300 C   0  0  0  0  0  0  0  0  0  0  0  0
  139.6490   70.3900  223.0720 C   0  0  0  0  0  0  0  0  0  0  0  0
  139.5980   69.4810  224.1250 C   0  0  0  0  0  0  0  0  0  0  0  0
  140.1060   69.8400  225.3780 C   0  0  0  0  0  0  0  0  0  0  0  0
  140.0300   68.8940  226.3930 C   0  0  0  0  0  0  0  0  0  0  0  0
  140.5390   69.2710  227.6250 C   0  0  0  0  0  0  0  0  0  0  0  0
  140.4910   68.1500  228.9760 Cl  0  0  0  0  0  0  0  0  0  0  0  0
  141.0960   70.5080  227.8620 C   0  0  0  0  0  0  0  0  0  0  0  0
  141.1410   71.4000  226.8140 C   0  0  0  0  0  0  0  0  0  0  0  0
  140.6550   71.0910  225.5670 C   0  0  0  0  0  0  0  0  0  0  0  0
  140.7010   71.9730  224.5310 N   0  0  0  0  0  0  0  0  0  0  0  0
  141.1970   71.2970  220.8080 H   0  0  0  0  0  0  0  0  0  0  0  0
  141.0704   72.6988  218.9638 H   0  0  0  0  0  0  0  0  0  0  0  0
  139.8966   73.7378  219.8922 H   0  0  0  0  0  0  0  0  0  0  0  0
  143.1460   71.7521  219.9425 H   0  0  0  0  0  0  0  0  0  0  0  0
  143.8313   72.4237  218.4591 H   0  0  0  0  0  0  0  0  0  0  0  0
  145.2123   71.6436  220.8950 H   0  0  0  0  0  0  0  0  0  0  0  0
  145.9450   72.2885  219.4216 H   0  0  0  0  0  0  0  0  0  0  0  0
  145.0520   73.7486  221.9328 H   0  0  0  0  0  0  0  0  0  0  0  0
  146.4090   74.1392  220.9182 H   0  0  0  0  0  0  0  0  0  0  0  0
  144.2176   75.6289  220.6180 H   0  0  0  0  0  0  0  0  0  0  0  0
  144.8782   75.0371  219.1191 H   0  0  0  0  0  0  0  0  0  0  0  0
  139.2570   70.1360  222.0761 H   0  0  0  0  0  0  0  0  0  0  0  0
  139.1597   68.4837  223.9723 H   0  0  0  0  0  0  0  0  0  0  0  0
  139.5896   67.8997  226.2272 H   0  0  0  0  0  0  0  0  0  0  0  0
  141.4910   70.7741  228.8536 H   0  0  0  0  0  0  0  0  0  0  0  0
  141.5813   72.3941  226.9811 H   0  0  0  0  0  0  0  0  0  0  0  0
  1  2  2  0
  2  3  1  0
  3  4  1  0
  4  5  1  0
  5  6  2  0
  5  7  1  0
  7  8  1  0
  8  9  1  0
  9 10  1  0
 10 11  1  0
  2 12  1  0
 12 13  2  0
 13 14  1  0
 14 15  2  0
 15 16  1  0
 16 17  2  0
 17 18  1  0
 17 19  1  0
 19 20  2  0
 20 21  1  0
 21 22  2  0
 11  7  1  0
 22 12  1  0
 21 15  1  0
  3 23  1  0
  4 24  1  0
  4 25  1  0
  8 26  1  0
  8 27  1  0
  9 28  1  0
  9 29  1  0
 10 30  1  0
 10 31  1  0
 11 32  1  0
 11 33  1  0
 13 34  1  0
 14 35  1  0
 16 36  1  0
 19 37  1  0
 20 38  1  0
M  END
>  <smiles>  (46) 
O=C(NCC(=O)N1CCCC1)c1ccc2cc(Cl)ccc2n1

>  <score_type>  (46) 
oracle

>  <origin>  (46) 
autodockgpu

>  <m_score__min__energy>  (46) 
-7.0599999999999996

>  <m_primary>  (46) 
energy

>  <rmsd>  (46) 
3.80316183205907

>  <m_score__min__rmsd>  (46) 
3.80316183205907

>  <meeko>  (46) 
{"free_energy": -6.91, "intermolecular_energy": -7.81, "internal_energy": -0.73, "cluster_size": 1, "cluster_id": 2, "rank_in_cluster": 1}

>  <energy>  (46) 
-6.7

>  <cluster_rmsd>  (46) 
0.24

>  <cluster>  (46) 
3

$$$$

     RDKit          3D

 38 40  0  0  0  0  0  0  0  0999 V2000
  140.8340   72.7760  221.1730 O   0  0  0  0  0  0  0  0  0  0  0  0
  140.0890   72.8760  222.2010 C   0  0  0  0  0  0  0  0  0  0  0  0
  139.2640   74.0330  222.2660 N   0  0  0  0  0  0  0  0  0  0  0  0
  139.2910   75.0130  221.2230 C   0  0  0  0  0  0  0  0  0  0  0  0
  138.6730   76.2980  221.6240 C   0  0  0  0  0  0  0  0  0  0  0  0
  137.4280   76.3480  221.6940 O   0  0  0  0  0  0  0  0  0  0  0  0
  139.5360   77.3930  221.9020 N   0  0  0  0  0  0  0  0  0  0  0  0
  141.0000   77.4280  221.8450 C   0  0  0  0  0  0  0  0  0  0  0  0
  141.4140   78.4630  222.8600 C   0  0  0  0  0  0  0  0  0  0  0  0
  140.1200   78.9950  223.4450 C   0  0  0  0  0  0  0  0  0  0  0  0
  139.1540   78.7330  222.3070 C   0  0  0  0  0  0  0  0  0  0  0  0
  140.0830   71.8610  223.2500 C   0  0  0  0  0  0  0  0  0  0  0  0
  139.5640   70.6200  222.9430 C   0  0  0  0  0  0  0  0  0  0  0  0
  139.5650   69.6610  223.9520 C   0  0  0  0  0  0  0  0  0  0  0  0
  140.0790   69.9810  225.2140 C   0  0  0  0  0  0  0  0  0  0  0  0
  140.0560   68.9870  226.1840 C   0  0  0  0  0  0  0  0  0  0  0  0
  140.5700   69.3260  227.4240 C   0  0  0  0  0  0  0  0  0  0  0  0
  140.5880   68.1420  228.7220 Cl  0  0  0  0  0  0  0  0  0  0  0  0
  141.0830   70.5710  227.7120 C   0  0  0  0  0  0  0  0  0  0  0  0
  141.0770   71.5120  226.7060 C   0  0  0  0  0  0  0  0  0  0  0  0
  140.5830   71.2430  225.4530 C   0  0  0  0  0  0  0  0  0  0  0  0
  140.5790   72.1730  224.4590 N   0  0  0  0  0  0  0  0  0  0  0  0
  138.6350   74.1650  223.0850 H   0  0  0  0  0  0  0  0  0  0  0  0
  140.3384   75.1993  220.9434 H   0  0  0  0  0  0  0  0  0  0  0  0
  138.7072   74.6145  220.3802 H   0  0  0  0  0  0  0  0  0  0  0  0
  141.4191   76.4447  222.1047 H   0  0  0  0  0  0  0  0  0  0  0  0
  141.3650   77.6739  220.8369 H   0  0  0  0  0  0  0  0  0  0  0  0
  142.0320   78.0050  223.6463 H   0  0  0  0  0  0  0  0  0  0  0  0
  142.0164   79.2632  222.4053 H   0  0  0  0  0  0  0  0  0  0  0  0
  139.8319   78.4452  224.3532 H   0  0  0  0  0  0  0  0  0  0  0  0
  140.1672   80.0465  223.7646 H   0  0  0  0  0  0  0  0  0  0  0  0
  138.1098   78.7658  222.6514 H   0  0  0  0  0  0  0  0  0  0  0  0
  139.2041   79.4763  221.4977 H   0  0  0  0  0  0  0  0  0  0  0  0
  139.1658   70.3976  221.9420 H   0  0  0  0  0  0  0  0  0  0  0  0
  139.1634   68.6554  223.7583 H   0  0  0  0  0  0  0  0  0  0  0  0
  139.6514   67.9850  225.9781 H   0  0  0  0  0  0  0  0  0  0  0  0
  141.4831   70.8057  228.7094 H   0  0  0  0  0  0  0  0  0  0  0  0
  141.4819   72.5135  226.9134 H   0  0  0  0  0  0  0  0  0  0  0  0
  1  2  2  0
  2  3  1  0
  3  4  1  0
  4  5  1  0
  5  6  2  0
  5  7  1  0
  7  8  1  0
  8  9  1  0
  9 10  1  0
 10 11  1  0
  2 12  1  0
 12 13  2  0
 13 14  1  0
 14 15  2  0
 15 16  1  0
 16 17  2  0
 17 18  1  0
 17 19  1  0
 19 20  2  0
 20 21  1  0
 21 22  2  0
 11  7  1  0
 22 12  1  0
 21 15  1  0
  3 23  1  0
  4 24  1  0
  4 25  1  0
  8 26  1  0
  8 27  1  0
  9 28  1  0
  9 29  1  0
 10 30  1  0
 10 31  1  0
 11 32  1  0
 11 33  1  0
 13 34  1  0
 14 35  1  0
 16 36  1  0
 19 37  1  0
 20 38  1  0
M  END
>  <smiles>  (47) 
O=C(NCC(=O)N1CCCC1)c1ccc2cc(Cl)ccc2n1

>  <score_type>  (47) 
oracle

>  <origin>  (47) 
autodockgpu

>  <m_score__min__energy>  (47) 
-7.0599999999999996

>  <m_primary>  (47) 
energy

>  <rmsd>  (47) 
3.2097220804928424

>  <m_score__min__rmsd>  (47) 
3.2097220804928424

>  <meeko>  (47) 
{"free_energy": -7.03, "intermolecular_energy": -7.93, "internal_energy": -0.73, "cluster_size": 41, "cluster_id": 1, "rank_in_cluster": 9}

>  <energy>  (47) 
-6.69

>  <cluster_rmsd>  (47) 
0.26

>  <cluster>  (47) 
3

$$$$

     RDKit          3D

 38 40  0  0  0  0  0  0  0  0999 V2000
  140.7090   72.6890  221.0070 O   0  0  0  0  0  0  0  0  0  0  0  0
  140.0790   72.8710  222.0990 C   0  0  0  0  0  0  0  0  0  0  0  0
  139.3740   74.1000  222.2180 N   0  0  0  0  0  0  0  0  0  0  0  0
  139.3860   75.0590  221.1550 C   0  0  0  0  0  0  0  0  0  0  0  0
  138.7410   76.3390  221.5260 C   0  0  0  0  0  0  0  0  0  0  0  0
  137.4940   76.3850  221.5230 O   0  0  0  0  0  0  0  0  0  0  0  0
  139.5820   77.4360  221.8620 N   0  0  0  0  0  0  0  0  0  0  0  0
  141.0460   77.4760  221.8930 C   0  0  0  0  0  0  0  0  0  0  0  0
  141.3950   78.5060  222.9380 C   0  0  0  0  0  0  0  0  0  0  0  0
  140.0660   79.0290  223.4480 C   0  0  0  0  0  0  0  0  0  0  0  0
  139.1700   78.7710  222.2530 C   0  0  0  0  0  0  0  0  0  0  0  0
  140.0850   71.8750  223.1660 C   0  0  0  0  0  0  0  0  0  0  0  0
  139.5830   70.6210  222.8800 C   0  0  0  0  0  0  0  0  0  0  0  0
  139.5940   69.6820  223.9070 C   0  0  0  0  0  0  0  0  0  0  0  0
  140.1010   70.0310  225.1640 C   0  0  0  0  0  0  0  0  0  0  0  0
  140.0880   69.0540  226.1510 C   0  0  0  0  0  0  0  0  0  0  0  0
  140.5950   69.4220  227.3860 C   0  0  0  0  0  0  0  0  0  0  0  0
  140.6250   68.2610  228.7050 Cl  0  0  0  0  0  0  0  0  0  0  0  0
  141.0910   70.6780  227.6530 C   0  0  0  0  0  0  0  0  0  0  0  0
  141.0750   71.6010  226.6300 C   0  0  0  0  0  0  0  0  0  0  0  0
  140.5880   71.3030  225.3810 C   0  0  0  0  0  0  0  0  0  0  0  0
  140.5730   72.2150  224.3710 N   0  0  0  0  0  0  0  0  0  0  0  0
  138.8420   74.3010  223.0900 H   0  0  0  0  0  0  0  0  0  0  0  0
  140.4308   75.2605  220.8759 H   0  0  0  0  0  0  0  0  0  0  0  0
  138.8138   74.6315  220.3185 H   0  0  0  0  0  0  0  0  0  0  0  0
  141.4523   76.4923  222.1710 H   0  0  0  0  0  0  0  0  0  0  0  0
  141.4698   77.7297  220.9101 H   0  0  0  0  0  0  0  0  0  0  0  0
  141.9669   78.0450  223.7568 H   0  0  0  0  0  0  0  0  0  0  0  0
  142.0204   79.3115  222.5255 H   0  0  0  0  0  0  0  0  0  0  0  0
  139.7268   78.4721  224.3339 H   0  0  0  0  0  0  0  0  0  0  0  0
  140.0898   80.0786  223.7762 H   0  0  0  0  0  0  0  0  0  0  0  0
  138.1072   78.7965  222.5353 H   0  0  0  0  0  0  0  0  0  0  0  0
  139.2639   79.5204  221.4533 H   0  0  0  0  0  0  0  0  0  0  0  0
  139.1908   70.3745  221.8823 H   0  0  0  0  0  0  0  0  0  0  0  0
  139.2052   68.6681  223.7313 H   0  0  0  0  0  0  0  0  0  0  0  0
  139.6965   68.0435  225.9621 H   0  0  0  0  0  0  0  0  0  0  0  0
  141.4858   70.9355  228.6469 H   0  0  0  0  0  0  0  0  0  0  0  0
  141.4658   72.6115  226.8204 H   0  0  0  0  0  0  0  0  0  0  0  0
  1  2  2  0
  2  3  1  0
  3  4  1  0
  4  5  1  0
  5  6  2  0
  5  7  1  0
  7  8  1  0
  8  9  1  0
  9 10  1  0
 10 11  1  0
  2 12  1  0
 12 13  2  0
 13 14  1  0
 14 15  2  0
 15 16  1  0
 16 17  2  0
 17 18  1  0
 17 19  1  0
 19 20  2  0
 20 21  1  0
 21 22  2  0
 11  7  1  0
 22 12  1  0
 21 15  1  0
  3 23  1  0
  4 24  1  0
  4 25  1  0
  8 26  1  0
  8 27  1  0
  9 28  1  0
  9 29  1  0
 10 30  1  0
 10 31  1  0
 11 32  1  0
 11 33  1  0
 13 34  1  0
 14 35  1  0
 16 36  1  0
 19 37  1  0
 20 38  1  0
M  END
>  <smiles>  (48) 
O=C(NCC(=O)N1CCCC1)c1ccc2cc(Cl)ccc2n1

>  <score_type>  (48) 
oracle

>  <origin>  (48) 
autodockgpu

>  <m_score__min__energy>  (48) 
-7.0599999999999996

>  <m_primary>  (48) 
energy

>  <rmsd>  (48) 
3.230815379353804

>  <m_score__min__rmsd>  (48) 
3.230815379353804

>  <meeko>  (48) 
{"free_energy": -7.04, "intermolecular_energy": -7.93, "internal_energy": -0.72, "cluster_size": 41, "cluster_id": 1, "rank_in_cluster": 8}

>  <energy>  (48) 
-6.64

>  <cluster_rmsd>  (48) 
0.25

>  <cluster>  (48) 
3

$$$$

     RDKit          3D

 38 40  0  0  0  0  0  0  0  0999 V2000
  141.0930   71.1830  221.7650 O   0  0  0  0  0  0  0  0  0  0  0  0
  140.7120   72.3070  222.2290 C   0  0  0  0  0  0  0  0  0  0  0  0
  139.9360   72.2620  223.4200 N   0  0  0  0  0  0  0  0  0  0  0  0
  139.6170   71.0130  224.0420 C   0  0  0  0  0  0  0  0  0  0  0  0
  140.3820   70.7780  225.2880 C   0  0  0  0  0  0  0  0  0  0  0  0
  140.9920   71.7460  225.7870 O   0  0  0  0  0  0  0  0  0  0  0  0
  140.3750   69.4660  225.8370 N   0  0  0  0  0  0  0  0  0  0  0  0
  139.6930   68.2760  225.3240 C   0  0  0  0  0  0  0  0  0  0  0  0
  139.3920   67.4340  226.5380 C   0  0  0  0  0  0  0  0  0  0  0  0
  139.9580   68.2060  227.7140 C   0  0  0  0  0  0  0  0  0  0  0  0
  141.0490   69.0130  227.0390 C   0  0  0  0  0  0  0  0  0  0  0  0
  141.0520   73.5660  221.5720 C   0  0  0  0  0  0  0  0  0  0  0  0
  141.9360   73.5220  220.5130 C   0  0  0  0  0  0  0  0  0  0  0  0
  142.2520   74.7290  219.8970 C   0  0  0  0  0  0  0  0  0  0  0  0
  141.6760   75.9180  220.3610 C   0  0  0  0  0  0  0  0  0  0  0  0
  142.0260   77.0930  219.7080 C   0  0  0  0  0  0  0  0  0  0  0  0
  141.4450   78.2570  220.1840 C   0  0  0  0  0  0  0  0  0  0  0  0
  141.8200   79.7990  219.4300 Cl  0  0  0  0  0  0  0  0  0  0  0  0
  140.5650   78.2800  221.2430 C   0  0  0  0  0  0  0  0  0  0  0  0
  140.2600   77.0790  221.8460 C   0  0  0  0  0  0  0  0  0  0  0  0
  140.8000   75.8890  221.4250 C   0  0  0  0  0  0  0  0  0  0  0  0
  140.4970   74.7040  222.0210 N   0  0  0  0  0  0  0  0  0  0  0  0
  139.5980   73.1520  223.8410 H   0  0  0  0  0  0  0  0  0  0  0  0
  138.5436   71.0045  224.2823 H   0  0  0  0  0  0  0  0  0  0  0  0
  139.8844   70.2141  223.3347 H   0  0  0  0  0  0  0  0  0  0  0  0
  138.7620   68.5573  224.8100 H   0  0  0  0  0  0  0  0  0  0  0  0
  140.3099   67.7339  224.5923 H   0  0  0  0  0  0  0  0  0  0  0  0
  138.3064   67.2988  226.6530 H   0  0  0  0  0  0  0  0  0  0  0  0
  139.8324   66.4292  226.4583 H   0  0  0  0  0  0  0  0  0  0  0  0
  139.1989   68.8577  228.1713 H   0  0  0  0  0  0  0  0  0  0  0  0
  140.3110   67.5731  228.5416 H   0  0  0  0  0  0  0  0  0  0  0  0
  141.3670   69.8602  227.6644 H   0  0  0  0  0  0  0  0  0  0  0  0
  141.9720   68.4460  226.8479 H   0  0  0  0  0  0  0  0  0  0  0  0
  142.3726   72.5723  220.1702 H   0  0  0  0  0  0  0  0  0  0  0  0
  142.9518   74.7491  219.0486 H   0  0  0  0  0  0  0  0  0  0  0  0
  142.7260   77.0989  218.8595 H   0  0  0  0  0  0  0  0  0  0  0  0
  140.1215   79.2231  221.5949 H   0  0  0  0  0  0  0  0  0  0  0  0
  139.5595   77.0736  222.6941 H   0  0  0  0  0  0  0  0  0  0  0  0
  1  2  2  0
  2  3  1  0
  3  4  1  0
  4  5  1  0
  5  6  2  0
  5  7  1  0
  7  8  1  0
  8  9  1  0
  9 10  1  0
 10 11  1  0
  2 12  1  0
 12 13  2  0
 13 14  1  0
 14 15  2  0
 15 16  1  0
 16 17  2  0
 17 18  1  0
 17 19  1  0
 19 20  2  0
 20 21  1  0
 21 22  2  0
 11  7  1  0
 22 12  1  0
 21 15  1  0
  3 23  1  0
  4 24  1  0
  4 25  1  0
  8 26  1  0
  8 27  1  0
  9 28  1  0
  9 29  1  0
 10 30  1  0
 10 31  1  0
 11 32  1  0
 11 33  1  0
 13 34  1  0
 14 35  1  0
 16 36  1  0
 19 37  1  0
 20 38  1  0
M  END
>  <smiles>  (49) 
O=C(NCC(=O)N1CCCC1)c1ccc2cc(Cl)ccc2n1

>  <score_type>  (49) 
oracle

>  <origin>  (49) 
autodockgpu

>  <m_score__min__energy>  (49) 
-7.0599999999999996

>  <m_primary>  (49) 
energy

>  <rmsd>  (49) 
8.879265722081774

>  <m_score__min__rmsd>  (49) 
8.879265722081774

>  <meeko>  (49) 
{"free_energy": -6.73, "intermolecular_energy": -7.63, "internal_energy": -0.96, "cluster_size": 8, "cluster_id": 3, "rank_in_cluster": 2}

>  <energy>  (49) 
-6.64

>  <cluster_rmsd>  (49) 
0.28

>  <cluster>  (49) 
3

$$$$

     RDKit          3D

 38 40  0  0  0  0  0  0  0  0999 V2000
  140.9650   73.8640  220.9560 O   0  0  0  0  0  0  0  0  0  0  0  0
  140.1860   73.8290  221.9630 C   0  0  0  0  0  0  0  0  0  0  0  0
  139.5870   75.0640  222.3350 N   0  0  0  0  0  0  0  0  0  0  0  0
  139.8620   76.2630  221.6020 C   0  0  0  0  0  0  0  0  0  0  0  0
  139.5020   77.4900  222.3490 C   0  0  0  0  0  0  0  0  0  0  0  0
  138.4060   77.5070  222.9450 O   0  0  0  0  0  0  0  0  0  0  0  0
  140.4250   78.5710  222.3400 N   0  0  0  0  0  0  0  0  0  0  0  0
  141.7270   78.6410  221.6710 C   0  0  0  0  0  0  0  0  0  0  0  0
  142.5560   79.5810  222.5100 C   0  0  0  0  0  0  0  0  0  0  0  0
  141.6440   80.0270  223.6370 C   0  0  0  0  0  0  0  0  0  0  0  0
  140.2810   79.8560  222.9970 C   0  0  0  0  0  0  0  0  0  0  0  0
  139.9250   72.5910  222.6910 C   0  0  0  0  0  0  0  0  0  0  0  0
  138.9760   71.7300  222.1790 C   0  0  0  0  0  0  0  0  0  0  0  0
  138.7370   70.5540  222.8840 C   0  0  0  0  0  0  0  0  0  0  0  0
  139.4500   70.2910  224.0600 C   0  0  0  0  0  0  0  0  0  0  0  0
  139.1720   69.1020  224.7220 C   0  0  0  0  0  0  0  0  0  0  0  0
  139.8890   68.8630  225.8830 C   0  0  0  0  0  0  0  0  0  0  0  0
  139.6140   67.3880  226.7980 Cl  0  0  0  0  0  0  0  0  0  0  0  0
  140.8320   69.7350  226.3780 C   0  0  0  0  0  0  0  0  0  0  0  0
  141.0600   70.8960  225.6730 C   0  0  0  0  0  0  0  0  0  0  0  0
  140.3850   71.1960  224.5150 C   0  0  0  0  0  0  0  0  0  0  0  0
  140.6120   72.3430  223.8190 N   0  0  0  0  0  0  0  0  0  0  0  0
  138.9410   75.0920  223.1510 H   0  0  0  0  0  0  0  0  0  0  0  0
  140.9372   76.2949  221.3717 H   0  0  0  0  0  0  0  0  0  0  0  0
  139.2486   76.2401  220.6892 H   0  0  0  0  0  0  0  0  0  0  0  0
  142.1941   77.6458  221.6320 H   0  0  0  0  0  0  0  0  0  0  0  0
  141.6358   78.9909  220.6321 H   0  0  0  0  0  0  0  0  0  0  0  0
  143.4384   79.0614  222.9119 H   0  0  0  0  0  0  0  0  0  0  0  0
  142.9271   80.4338  221.9226 H   0  0  0  0  0  0  0  0  0  0  0  0
  141.7562   79.3862  224.5240 H   0  0  0  0  0  0  0  0  0  0  0  0
  141.8455   81.0436  224.0058 H   0  0  0  0  0  0  0  0  0  0  0  0
  139.4827   79.8326  223.7534 H   0  0  0  0  0  0  0  0  0  0  0  0
  139.9994   80.6754  222.3193 H   0  0  0  0  0  0  0  0  0  0  0  0
  138.4311   71.9633  221.2524 H   0  0  0  0  0  0  0  0  0  0  0  0
  137.9904   69.8335  222.5185 H   0  0  0  0  0  0  0  0  0  0  0  0
  138.4236   68.3893  224.3451 H   0  0  0  0  0  0  0  0  0  0  0  0
  141.3836   69.5126  227.3033 H   0  0  0  0  0  0  0  0  0  0  0  0
  141.8088   71.6079  226.0505 H   0  0  0  0  0  0  0  0  0  0  0  0
  1  2  2  0
  2  3  1  0
  3  4  1  0
  4  5  1  0
  5  6  2  0
  5  7  1  0
  7  8  1  0
  8  9  1  0
  9 10  1  0
 10 11  1  0
  2 12  1  0
 12 13  2  0
 13 14  1  0
 14 15  2  0
 15 16  1  0
 16 17  2  0
 17 18  1  0
 17 19  1  0
 19 20  2  0
 20 21  1  0
 21 22  2  0
 11  7  1  0
 22 12  1  0
 21 15  1  0
  3 23  1  0
  4 24  1  0
  4 25  1  0
  8 26  1  0
  8 27  1  0
  9 28  1  0
  9 29  1  0
 10 30  1  0
 10 31  1  0
 11 32  1  0
 11 33  1  0
 13 34  1  0
 14 35  1  0
 16 36  1  0
 19 37  1  0
 20 38  1  0
M  END
>  <smiles>  (50) 
O=C(NCC(=O)N1CCCC1)c1ccc2cc(Cl)ccc2n1

>  <score_type>  (50) 
oracle

>  <origin>  (50) 
autodockgpu

>  <m_score__min__energy>  (50) 
-7.0599999999999996

>  <m_primary>  (50) 
energy

>  <rmsd>  (50) 
4.004294618606258

>  <m_score__min__rmsd>  (50) 
4.004294618606258

>  <meeko>  (50) 
{"free_energy": -6.91, "intermolecular_energy": -7.8, "internal_energy": -0.88, "cluster_size": 41, "cluster_id": 1, "rank_in_cluster": 24}

>  <energy>  (50) 
-6.59

>  <cluster_rmsd>  (50) 
0.39

>  <cluster>  (50) 
3

$$$$
