
     RDKit          3D

 67 70  0  0  0  0  0  0  0  0999 V2000
  143.1460   71.0100  216.0310 C   0  0  0  0  0  0  0  0  0  0  0  0
  144.6460   71.2690  216.1830 C   0  0  0  0  0  0  0  0  0  0  0  0
  144.9510   71.4580  217.6120 C   0  0  0  0  0  0  0  0  0  0  0  0
  145.8930   72.3000  217.8580 O   0  0  0  0  0  0  0  0  0  0  0  0
  144.3720   70.8580  218.7250 N   0  0  0  0  0  0  0  0  0  0  0  0
  144.7480   69.4640  218.9350 C   0  0  0  0  0  0  0  0  0  0  0  0
  146.0260   69.1370  219.3570 C   0  0  0  0  0  0  0  0  0  0  0  0
  146.3030   67.7980  219.5230 C   0  0  0  0  0  0  0  0  0  0  0  0
  145.3850   66.7940  219.2930 C   0  0  0  0  0  0  0  0  0  0  0  0
  144.1190   67.1600  218.8730 C   0  0  0  0  0  0  0  0  0  0  0  0
  143.7790   68.4950  218.6880 C   0  0  0  0  0  0  0  0  0  0  0  0
  143.4750   71.4170  219.6960 C   0  0  0  0  0  0  0  0  0  0  0  0
  143.4670   72.9250  219.5390 C   0  0  0  0  0  0  0  0  0  0  0  0
  142.4080   73.6190  220.3410 C   0  0  0  0  0  0  0  0  0  0  0  0
  141.2090   72.7990  220.4030 N   0  0  0  0  0  0  0  0  0  0  0  0
  140.3180   73.0260  221.4680 C   0  0  0  0  0  0  0  0  0  0  0  0
  140.6270   73.9370  222.2940 O   0  0  0  0  0  0  0  0  0  0  0  0
  139.0550   72.3010  221.7160 C   0  0  0  0  0  0  0  0  0  0  0  0
  139.3640   71.0950  222.5630 C   0  0  1  0  0  0  0  0  0  0  0  0
  140.3230   71.4370  223.6970 C   0  0  0  0  0  0  0  0  0  0  0  0
  139.8920   70.3680  224.7120 C   0  0  1  0  0  0  0  0  0  0  0  0
  140.4070   70.6410  226.0620 C   0  0  0  0  0  0  0  0  0  0  0  0
  140.9140   71.9100  226.3070 C   0  0  0  0  0  0  0  0  0  0  0  0
  141.4070   72.1860  227.5850 C   0  0  0  0  0  0  0  0  0  0  0  0
  141.3870   71.2180  228.5720 C   0  0  0  0  0  0  0  0  0  0  0  0
  140.8820   69.9520  228.3300 C   0  0  0  0  0  0  0  0  0  0  0  0
  140.3930   69.6850  227.0540 C   0  0  0  0  0  0  0  0  0  0  0  0
  138.4060   70.4110  224.5750 C   0  0  0  0  0  0  0  0  0  0  0  0
  138.1840   70.5660  223.1640 N   0  0  0  0  0  0  0  0  0  0  0  0
  137.8320   69.2880  222.6070 C   0  0  0  0  0  0  0  0  0  0  0  0
  141.0410   71.8160  219.3570 C   0  0  0  0  0  0  0  0  0  0  0  0
  142.1380   70.7740  219.6150 C   0  0  0  0  0  0  0  0  0  0  0  0
  142.6849   70.9304  217.0265 H   0  0  0  0  0  0  0  0  0  0  0  0
  142.6844   71.8417  215.4786 H   0  0  0  0  0  0  0  0  0  0  0  0
  142.9900   70.0716  215.4786 H   0  0  0  0  0  0  0  0  0  0  0  0
  145.2112   70.4090  215.7946 H   0  0  0  0  0  0  0  0  0  0  0  0
  144.9299   72.1686  215.6173 H   0  0  0  0  0  0  0  0  0  0  0  0
  146.7841   69.9102  219.5505 H   0  0  0  0  0  0  0  0  0  0  0  0
  147.3116   67.5134  219.8573 H   0  0  0  0  0  0  0  0  0  0  0  0
  145.6513   65.7367  219.4389 H   0  0  0  0  0  0  0  0  0  0  0  0
  143.3672   66.3801  218.6818 H   0  0  0  0  0  0  0  0  0  0  0  0
  142.7698   68.7789  218.3549 H   0  0  0  0  0  0  0  0  0  0  0  0
  143.8185   71.2056  220.7194 H   0  0  0  0  0  0  0  0  0  0  0  0
  144.4476   73.3103  219.8552 H   0  0  0  0  0  0  0  0  0  0  0  0
  143.2497   73.1322  218.4808 H   0  0  0  0  0  0  0  0  0  0  0  0
  142.7811   73.7953  221.3607 H   0  0  0  0  0  0  0  0  0  0  0  0
  142.1635   74.5778  219.8604 H   0  0  0  0  0  0  0  0  0  0  0  0
  138.3471   72.9561  222.2449 H   0  0  0  0  0  0  0  0  0  0  0  0
  138.6015   71.9904  220.7632 H   0  0  0  0  0  0  0  0  0  0  0  0
  139.8182   70.3583  221.8841 H   0  0  0  0  0  0  0  0  0  0  0  0
  141.3746   71.3194  223.3966 H   0  0  0  0  0  0  0  0  0  0  0  0
  140.2764   72.4753  224.0571 H   0  0  0  0  0  0  0  0  0  0  0  0
  140.2951   69.3610  224.5291 H   0  0  0  0  0  0  0  0  0  0  0  0
  140.9272   72.6761  225.5178 H   0  0  0  0  0  0  0  0  0  0  0  0
  141.8149   73.1829  227.8079 H   0  0  0  0  0  0  0  0  0  0  0  0
  141.7806   71.4589  229.5705 H   0  0  0  0  0  0  0  0  0  0  0  0
  140.8676   69.1843  229.1177 H   0  0  0  0  0  0  0  0  0  0  0  0
  139.9859   68.6873  226.8327 H   0  0  0  0  0  0  0  0  0  0  0  0
  137.9538   69.4772  224.9404 H   0  0  0  0  0  0  0  0  0  0  0  0
  137.9530   71.2225  225.1634 H   0  0  0  0  0  0  0  0  0  0  0  0
  137.6356   68.5748  223.4211 H   0  0  0  0  0  0  0  0  0  0  0  0
  136.9297   69.3943  221.9869 H   0  0  0  0  0  0  0  0  0  0  0  0
  138.6615   68.9173  221.9869 H   0  0  0  0  0  0  0  0  0  0  0  0
  140.0451   71.3527  219.4175 H   0  0  0  0  0  0  0  0  0  0  0  0
  141.1198   72.2608  218.3540 H   0  0  0  0  0  0  0  0  0  0  0  0
  141.9286   70.2588  220.5640 H   0  0  0  0  0  0  0  0  0  0  0  0
  142.1438   70.0574  218.7804 H   0  0  0  0  0  0  0  0  0  0  0  0
  1  2  1  0
  2  3  1  0
  3  4  2  0
  3  5  1  0
  5  6  1  0
  6  7  2  0
  7  8  1  0
  8  9  2  0
  9 10  1  0
 10 11  2  0
  5 12  1  0
 12 13  1  0
 13 14  1  0
 14 15  1  0
 15 16  1  0
 16 17  2  0
 16 18  1  0
 18 19  1  0
 19 20  1  0
 20 21  1  0
 21 22  1  0
 22 23  2  0
 23 24  1  0
 24 25  2  0
 25 26  1  0
 26 27  2  0
 21 28  1  0
 28 29  1  0
 29 30  1  0
 15 31  1  0
 31 32  1  0
 11  6  1  0
 32 12  1  0
 29 19  1  0
 27 22  1  0
  1 33  1  0
  1 34  1  0
  1 35  1  0
  2 36  1  0
  2 37  1  0
  7 38  1  0
  8 39  1  0
  9 40  1  0
 10 41  1  0
 11 42  1  0
 12 43  1  0
 13 44  1  0
 13 45  1  0
 14 46  1  0
 14 47  1  0
 18 48  1  0
 18 49  1  0
 19 50  1  6
 20 51  1  0
 20 52  1  0
 21 53  1  6
 23 54  1  0
 24 55  1  0
 25 56  1  0
 26 57  1  0
 27 58  1  0
 28 59  1  0
 28 60  1  0
 30 61  1  0
 30 62  1  0
 30 63  1  0
 31 64  1  0
 31 65  1  0
 32 66  1  0
 32 67  1  0
M  END
>  <smiles>  (1) 
CCC(=O)N(c1ccccc1)C1CCN(C(=O)C[C@H]2C[C@@H](c3ccccc3)CN2C)CC1

>  <score_type>  (1) 
oracle

>  <origin>  (1) 
autodockgpu

>  <m_score__min__energy>  (1) 
-8.6500000000000004

>  <m_primary>  (1) 
energy

>  <rmsd>  (1) 
3.055213825625851

>  <m_score__min__rmsd>  (1) 
3.055213825625851

>  <meeko>  (1) 
{"free_energy": -8.17, "intermolecular_energy": -10.26, "internal_energy": -1.77, "cluster_size": 11, "cluster_id": 1, "rank_in_cluster": 7}

>  <energy>  (1) 
-8.65

>  <cluster_rmsd>  (1) 
0.0

>  <cluster>  (1) 
1

$$$$

     RDKit          3D

 67 70  0  0  0  0  0  0  0  0999 V2000
  142.1900   79.4130  218.9690 C   0  0  0  0  0  0  0  0  0  0  0  0
  141.4870   78.0550  218.9420 C   0  0  0  0  0  0  0  0  0  0  0  0
  141.8960   77.2860  220.1300 C   0  0  0  0  0  0  0  0  0  0  0  0
  143.0780   76.7800  220.0690 O   0  0  0  0  0  0  0  0  0  0  0  0
  141.1910   77.0300  221.3010 N   0  0  0  0  0  0  0  0  0  0  0  0
  141.0360   78.1780  222.1890 C   0  0  0  0  0  0  0  0  0  0  0  0
  141.8050   78.2870  223.3350 C   0  0  0  0  0  0  0  0  0  0  0  0
  141.5920   79.3970  224.1220 C   0  0  0  0  0  0  0  0  0  0  0  0
  140.6680   80.3780  223.8270 C   0  0  0  0  0  0  0  0  0  0  0  0
  139.9180   80.2320  222.6730 C   0  0  0  0  0  0  0  0  0  0  0  0
  140.0880   79.1350  221.8370 C   0  0  0  0  0  0  0  0  0  0  0  0
  140.5870   75.8070  221.7490 C   0  0  0  0  0  0  0  0  0  0  0  0
  139.1010   76.0390  221.9440 C   0  0  0  0  0  0  0  0  0  0  0  0
  138.3140   74.7900  222.1960 C   0  0  0  0  0  0  0  0  0  0  0  0
  138.8730   73.6820  221.4380 N   0  0  0  0  0  0  0  0  0  0  0  0
  138.6060   72.3790  221.8930 C   0  0  0  0  0  0  0  0  0  0  0  0
  137.8890   72.2680  222.9330 O   0  0  0  0  0  0  0  0  0  0  0  0
  139.0830   71.1260  221.2750 C   0  0  0  0  0  0  0  0  0  0  0  0
  139.5580   70.2110  222.3730 C   0  0  1  0  0  0  0  0  0  0  0  0
  140.3160   70.9760  223.4510 C   0  0  0  0  0  0  0  0  0  0  0  0
  140.0270   70.0590  224.6490 C   0  0  1  0  0  0  0  0  0  0  0  0
  140.3460   70.7020  225.9330 C   0  0  0  0  0  0  0  0  0  0  0  0
  139.8420   70.1130  227.0850 C   0  0  0  0  0  0  0  0  0  0  0  0
  140.1370   70.7120  228.3120 C   0  0  0  0  0  0  0  0  0  0  0  0
  140.9090   71.8570  228.3700 C   0  0  0  0  0  0  0  0  0  0  0  0
  141.4130   72.4460  227.2230 C   0  0  0  0  0  0  0  0  0  0  0  0
  141.1140   71.8440  226.0040 C   0  0  0  0  0  0  0  0  0  0  0  0
  138.5840   69.7400  224.4370 C   0  0  0  0  0  0  0  0  0  0  0  0
  138.4650   69.5600  223.0170 N   0  0  0  0  0  0  0  0  0  0  0  0
  138.4430   68.1510  222.7280 C   0  0  0  0  0  0  0  0  0  0  0  0
  139.6610   74.0250  220.2750 C   0  0  0  0  0  0  0  0  0  0  0  0
  140.9280   74.6830  220.8390 C   0  0  0  0  0  0  0  0  0  0  0  0
  142.3501   79.7223  220.0124 H   0  0  0  0  0  0  0  0  0  0  0  0
  143.1604   79.3338  218.4570 H   0  0  0  0  0  0  0  0  0  0  0  0
  141.5651   80.1596  218.4570 H   0  0  0  0  0  0  0  0  0  0  0  0
  140.3970   78.2025  218.9541 H   0  0  0  0  0  0  0  0  0  0  0  0
  141.7644   77.5082  218.0287 H   0  0  0  0  0  0  0  0  0  0  0  0
  142.5502   77.5239  223.6040 H   0  0  0  0  0  0  0  0  0  0  0  0
  142.1923   79.5075  225.0371 H   0  0  0  0  0  0  0  0  0  0  0  0
  140.5318   81.2474  224.4870 H   0  0  0  0  0  0  0  0  0  0  0  0
  139.1734   80.9987  222.4127 H   0  0  0  0  0  0  0  0  0  0  0  0
  139.4891   79.0256  220.9209 H   0  0  0  0  0  0  0  0  0  0  0  0
  140.9915   75.5023  222.7255 H   0  0  0  0  0  0  0  0  0  0  0  0
  138.9665   76.7113  222.8042 H   0  0  0  0  0  0  0  0  0  0  0  0
  138.7216   76.4684  221.0051 H   0  0  0  0  0  0  0  0  0  0  0  0
  138.3476   74.5497  223.2689 H   0  0  0  0  0  0  0  0  0  0  0  0
  137.2730   74.9520  221.8796 H   0  0  0  0  0  0  0  0  0  0  0  0
  138.2617   70.6478  220.7210 H   0  0  0  0  0  0  0  0  0  0  0  0
  139.9041   71.3366  220.5740 H   0  0  0  0  0  0  0  0  0  0  0  0
  140.2166   69.4752  221.8884 H   0  0  0  0  0  0  0  0  0  0  0  0
  141.3919   71.0400  223.2313 H   0  0  0  0  0  0  0  0  0  0  0  0
  140.0204   72.0277  223.5796 H   0  0  0  0  0  0  0  0  0  0  0  0
  140.6475   69.1524  224.7032 H   0  0  0  0  0  0  0  0  0  0  0  0
  139.2285   69.2015  227.0329 H   0  0  0  0  0  0  0  0  0  0  0  0
  139.7510   70.2680  229.2414 H   0  0  0  0  0  0  0  0  0  0  0  0
  141.1276   72.3099  229.3483 H   0  0  0  0  0  0  0  0  0  0  0  0
  142.0276   73.3569  227.2731 H   0  0  0  0  0  0  0  0  0  0  0  0
  141.4998   72.2904  225.0756 H   0  0  0  0  0  0  0  0  0  0  0  0
  138.3059   68.8194  224.9711 H   0  0  0  0  0  0  0  0  0  0  0  0
  137.9189   70.5291  224.8177 H   0  0  0  0  0  0  0  0  0  0  0  0
  138.4341   67.5835  223.6703 H   0  0  0  0  0  0  0  0  0  0  0  0
  137.5410   67.9100  222.1464 H   0  0  0  0  0  0  0  0  0  0  0  0
  139.3370   67.8820  222.1464 H   0  0  0  0  0  0  0  0  0  0  0  0
  139.9162   73.1226  219.7001 H   0  0  0  0  0  0  0  0  0  0  0  0
  139.1184   74.6909  219.5878 H   0  0  0  0  0  0  0  0  0  0  0  0
  141.5052   73.9312  221.3972 H   0  0  0  0  0  0  0  0  0  0  0  0
  141.5189   75.0794  220.0002 H   0  0  0  0  0  0  0  0  0  0  0  0
  1  2  1  0
  2  3  1  0
  3  4  2  0
  3  5  1  0
  5  6  1  0
  6  7  2  0
  7  8  1  0
  8  9  2  0
  9 10  1  0
 10 11  2  0
  5 12  1  0
 12 13  1  0
 13 14  1  0
 14 15  1  0
 15 16  1  0
 16 17  2  0
 16 18  1  0
 18 19  1  0
 19 20  1  0
 20 21  1  0
 21 22  1  0
 22 23  2  0
 23 24  1  0
 24 25  2  0
 25 26  1  0
 26 27  2  0
 21 28  1  0
 28 29  1  0
 29 30  1  0
 15 31  1  0
 31 32  1  0
 11  6  1  0
 32 12  1  0
 29 19  1  0
 27 22  1  0
  1 33  1  0
  1 34  1  0
  1 35  1  0
  2 36  1  0
  2 37  1  0
  7 38  1  0
  8 39  1  0
  9 40  1  0
 10 41  1  0
 11 42  1  0
 12 43  1  0
 13 44  1  0
 13 45  1  0
 14 46  1  0
 14 47  1  0
 18 48  1  0
 18 49  1  0
 19 50  1  6
 20 51  1  0
 20 52  1  0
 21 53  1  6
 23 54  1  0
 24 55  1  0
 25 56  1  0
 26 57  1  0
 27 58  1  0
 28 59  1  0
 28 60  1  0
 30 61  1  0
 30 62  1  0
 30 63  1  0
 31 64  1  0
 31 65  1  0
 32 66  1  0
 32 67  1  0
M  END
>  <smiles>  (2) 
CCC(=O)N(c1ccccc1)C1CCN(C(=O)C[C@H]2C[C@@H](c3ccccc3)CN2C)CC1

>  <score_type>  (2) 
oracle

>  <origin>  (2) 
autodockgpu

>  <m_score__min__energy>  (2) 
-8.6500000000000004

>  <m_primary>  (2) 
energy

>  <rmsd>  (2) 
2.321334148492172

>  <m_score__min__rmsd>  (2) 
2.321334148492172

>  <meeko>  (2) 
{"free_energy": -7.99, "intermolecular_energy": -10.08, "internal_energy": -1.82, "cluster_size": 21, "cluster_id": 2, "rank_in_cluster": 20}

>  <energy>  (2) 
-8.5

>  <cluster_rmsd>  (2) 
0.45

>  <cluster>  (2) 
1

$$$$

     RDKit          3D

 67 70  0  0  0  0  0  0  0  0999 V2000
  142.5860   78.7160  217.2670 C   0  0  0  0  0  0  0  0  0  0  0  0
  142.4060   80.0370  218.0180 C   0  0  0  0  0  0  0  0  0  0  0  0
  141.3200   79.8800  219.0000 C   0  0  0  0  0  0  0  0  0  0  0  0
  140.3200   80.6730  218.8330 O   0  0  0  0  0  0  0  0  0  0  0  0
  141.2220   79.0040  220.0760 N   0  0  0  0  0  0  0  0  0  0  0  0
  141.3990   79.6210  221.3870 C   0  0  0  0  0  0  0  0  0  0  0  0
  142.5170   79.3340  222.1520 C   0  0  0  0  0  0  0  0  0  0  0  0
  142.6040   79.9510  223.3800 C   0  0  0  0  0  0  0  0  0  0  0  0
  141.6510   80.8200  223.8680 C   0  0  0  0  0  0  0  0  0  0  0  0
  140.5480   81.0810  223.0740 C   0  0  0  0  0  0  0  0  0  0  0  0
  140.4040   80.4900  221.8250 C   0  0  0  0  0  0  0  0  0  0  0  0
  140.9600   77.5930  220.0780 C   0  0  0  0  0  0  0  0  0  0  0  0
  142.2810   76.8520  220.1490 C   0  0  0  0  0  0  0  0  0  0  0  0
  142.1450   75.3780  220.3810 C   0  0  0  0  0  0  0  0  0  0  0  0
  141.0120   75.1100  221.2520 N   0  0  0  0  0  0  0  0  0  0  0  0
  140.4350   73.8280  221.1960 C   0  0  0  0  0  0  0  0  0  0  0  0
  140.9530   72.9980  220.3890 O   0  0  0  0  0  0  0  0  0  0  0  0
  139.2810   73.3580  221.9880 C   0  0  0  0  0  0  0  0  0  0  0  0
  139.5550   71.9440  222.4250 C   0  0  1  0  0  0  0  0  0  0  0  0
  140.4080   71.9020  223.6870 C   0  0  0  0  0  0  0  0  0  0  0  0
  139.9280   70.5620  224.2620 C   0  0  1  0  0  0  0  0  0  0  0  0
  140.3220   70.3840  225.6680 C   0  0  0  0  0  0  0  0  0  0  0  0
  140.6970   71.5200  226.3740 C   0  0  0  0  0  0  0  0  0  0  0  0
  141.0750   71.3680  227.7100 C   0  0  0  0  0  0  0  0  0  0  0  0
  141.0730   70.1210  228.3060 C   0  0  0  0  0  0  0  0  0  0  0  0
  140.7000   68.9870  227.6040 C   0  0  0  0  0  0  0  0  0  0  0  0
  140.3250   69.1470  226.2730 C   0  0  0  0  0  0  0  0  0  0  0  0
  138.4580   70.6440  224.0180 C   0  0  0  0  0  0  0  0  0  0  0  0
  138.3460   71.2460  222.7190 N   0  0  0  0  0  0  0  0  0  0  0  0
  138.0800   70.2170  221.7510 C   0  0  0  0  0  0  0  0  0  0  0  0
  140.5780   76.1950  222.1030 C   0  0  0  0  0  0  0  0  0  0  0  0
  139.9870   77.2360  221.1430 C   0  0  0  0  0  0  0  0  0  0  0  0
  142.6978   77.8951  217.9906 H   0  0  0  0  0  0  0  0  0  0  0  0
  141.7048   78.5304  216.6352 H   0  0  0  0  0  0  0  0  0  0  0  0
  143.4847   78.7729  216.6352 H   0  0  0  0  0  0  0  0  0  0  0  0
  143.3399   80.2970  218.5379 H   0  0  0  0  0  0  0  0  0  0  0  0
  142.1554   80.8394  217.3085 H   0  0  0  0  0  0  0  0  0  0  0  0
  143.2981   78.6462  221.7958 H   0  0  0  0  0  0  0  0  0  0  0  0
  143.4828   79.7388  224.0067 H   0  0  0  0  0  0  0  0  0  0  0  0
  141.7638   81.2903  224.8560 H   0  0  0  0  0  0  0  0  0  0  0  0
  139.7710   81.7690  223.4385 H   0  0  0  0  0  0  0  0  0  0  0  0
  139.5257   80.7035  221.1980 H   0  0  0  0  0  0  0  0  0  0  0  0
  140.4707   77.2812  219.1435 H   0  0  0  0  0  0  0  0  0  0  0  0
  142.8138   77.0042  219.1987 H   0  0  0  0  0  0  0  0  0  0  0  0
  142.8268   77.2596  221.0127 H   0  0  0  0  0  0  0  0  0  0  0  0
  141.9904   74.8711  219.4171 H   0  0  0  0  0  0  0  0  0  0  0  0
  143.0622   75.0034  220.8590 H   0  0  0  0  0  0  0  0  0  0  0  0
  139.1482   74.0013  222.8703 H   0  0  0  0  0  0  0  0  0  0  0  0
  138.3634   73.3975  221.3827 H   0  0  0  0  0  0  0  0  0  0  0  0
  140.0843   71.4677  221.5866 H   0  0  0  0  0  0  0  0  0  0  0  0
  141.4836   71.8897  223.4568 H   0  0  0  0  0  0  0  0  0  0  0  0
  140.3015   72.7678  224.3571 H   0  0  0  0  0  0  0  0  0  0  0  0
  140.3754   69.6696  223.7999 H   0  0  0  0  0  0  0  0  0  0  0  0
  140.6963   72.5102  225.8950 H   0  0  0  0  0  0  0  0  0  0  0  0
  141.3774   72.2499  228.2939 H   0  0  0  0  0  0  0  0  0  0  0  0
  141.3739   70.0273  229.3599 H   0  0  0  0  0  0  0  0  0  0  0  0
  140.7000   67.9958  228.0809 H   0  0  0  0  0  0  0  0  0  0  0  0
  140.0238   68.2639  225.6904 H   0  0  0  0  0  0  0  0  0  0  0  0
  138.0058   69.6412  224.0229 H   0  0  0  0  0  0  0  0  0  0  0  0
  137.9350   71.2212  224.7948 H   0  0  0  0  0  0  0  0  0  0  0  0
  137.8374   69.2784  222.2709 H   0  0  0  0  0  0  0  0  0  0  0  0
  137.2300   70.5174  221.1207 H   0  0  0  0  0  0  0  0  0  0  0  0
  138.9691   70.0678  221.1207 H   0  0  0  0  0  0  0  0  0  0  0  0
  139.8148   75.8473  222.8148 H   0  0  0  0  0  0  0  0  0  0  0  0
  141.4027   76.6061  222.7037 H   0  0  0  0  0  0  0  0  0  0  0  0
  139.0804   76.8220  220.6776 H   0  0  0  0  0  0  0  0  0  0  0  0
  139.7466   78.1437  221.7160 H   0  0  0  0  0  0  0  0  0  0  0  0
  1  2  1  0
  2  3  1  0
  3  4  2  0
  3  5  1  0
  5  6  1  0
  6  7  2  0
  7  8  1  0
  8  9  2  0
  9 10  1  0
 10 11  2  0
  5 12  1  0
 12 13  1  0
 13 14  1  0
 14 15  1  0
 15 16  1  0
 16 17  2  0
 16 18  1  0
 18 19  1  0
 19 20  1  0
 20 21  1  0
 21 22  1  0
 22 23  2  0
 23 24  1  0
 24 25  2  0
 25 26  1  0
 26 27  2  0
 21 28  1  0
 28 29  1  0
 29 30  1  0
 15 31  1  0
 31 32  1  0
 11  6  1  0
 32 12  1  0
 29 19  1  0
 27 22  1  0
  1 33  1  0
  1 34  1  0
  1 35  1  0
  2 36  1  0
  2 37  1  0
  7 38  1  0
  8 39  1  0
  9 40  1  0
 10 41  1  0
 11 42  1  0
 12 43  1  0
 13 44  1  0
 13 45  1  0
 14 46  1  0
 14 47  1  0
 18 48  1  0
 18 49  1  0
 19 50  1  6
 20 51  1  0
 20 52  1  0
 21 53  1  6
 23 54  1  0
 24 55  1  0
 25 56  1  0
 26 57  1  0
 27 58  1  0
 28 59  1  0
 28 60  1  0
 30 61  1  0
 30 62  1  0
 30 63  1  0
 31 64  1  0
 31 65  1  0
 32 66  1  0
 32 67  1  0
M  END
>  <smiles>  (3) 
CCC(=O)N(c1ccccc1)C1CCN(C(=O)C[C@H]2C[C@@H](c3ccccc3)CN2C)CC1

>  <score_type>  (3) 
oracle

>  <origin>  (3) 
autodockgpu

>  <m_score__min__energy>  (3) 
-8.6500000000000004

>  <m_primary>  (3) 
energy

>  <rmsd>  (3) 
3.186202587901797

>  <m_score__min__rmsd>  (3) 
3.186202587901797

>  <meeko>  (3) 
{"free_energy": -8.45, "intermolecular_energy": -10.54, "internal_energy": -1.7, "cluster_size": 21, "cluster_id": 2, "rank_in_cluster": 5}

>  <energy>  (3) 
-8.48

>  <cluster_rmsd>  (3) 
1.18

>  <cluster>  (3) 
1

$$$$

     RDKit          3D

 67 70  0  0  0  0  0  0  0  0999 V2000
  142.9210   77.4620  218.5810 C   0  0  0  0  0  0  0  0  0  0  0  0
  141.7360   76.5360  218.8590 C   0  0  0  0  0  0  0  0  0  0  0  0
  141.8480   76.0230  220.2350 C   0  0  0  0  0  0  0  0  0  0  0  0
  142.8810   75.2890  220.4580 O   0  0  0  0  0  0  0  0  0  0  0  0
  141.0000   76.2150  221.3210 N   0  0  0  0  0  0  0  0  0  0  0  0
  141.0940   77.5300  221.9480 C   0  0  0  0  0  0  0  0  0  0  0  0
  141.4460   77.6480  223.2810 C   0  0  0  0  0  0  0  0  0  0  0  0
  141.5040   78.9230  223.7980 C   0  0  0  0  0  0  0  0  0  0  0  0
  141.2320   80.0580  223.0640 C   0  0  0  0  0  0  0  0  0  0  0  0
  140.8820   79.8990  221.7350 C   0  0  0  0  0  0  0  0  0  0  0  0
  140.8080   78.6380  221.1560 C   0  0  0  0  0  0  0  0  0  0  0  0
  140.0430   75.3140  221.8980 C   0  0  0  0  0  0  0  0  0  0  0  0
  138.6890   75.9940  221.9300 C   0  0  0  0  0  0  0  0  0  0  0  0
  137.5560   75.0870  222.3030 C   0  0  0  0  0  0  0  0  0  0  0  0
  137.7860   73.7530  221.7730 N   0  0  0  0  0  0  0  0  0  0  0  0
  137.1260   72.6790  222.3990 C   0  0  0  0  0  0  0  0  0  0  0  0
  136.3730   72.9590  223.3790 O   0  0  0  0  0  0  0  0  0  0  0  0
  137.2300   71.2550  222.0220 C   0  0  0  0  0  0  0  0  0  0  0  0
  138.5660   70.7420  222.4890 C   0  0  1  0  0  0  0  0  0  0  0  0
  139.0710   71.5130  223.7020 C   0  0  0  0  0  0  0  0  0  0  0  0
  139.9330   70.4170  224.3470 C   0  0  1  0  0  0  0  0  0  0  0  0
  140.3010   70.7410  225.7330 C   0  0  0  0  0  0  0  0  0  0  0  0
  141.0910   71.8650  225.9380 C   0  0  0  0  0  0  0  0  0  0  0  0
  141.4490   72.1860  227.2500 C   0  0  0  0  0  0  0  0  0  0  0  0
  141.0260   71.4030  228.3080 C   0  0  0  0  0  0  0  0  0  0  0  0
  140.2380   70.2820  228.1060 C   0  0  0  0  0  0  0  0  0  0  0  0
  139.8860   69.9690  226.7960 C   0  0  0  0  0  0  0  0  0  0  0  0
  139.0600   69.2180  224.1820 C   0  0  0  0  0  0  0  0  0  0  0  0
  138.4910   69.3700  222.8720 N   0  0  0  0  0  0  0  0  0  0  0  0
  139.2040   68.5230  221.9540 C   0  0  0  0  0  0  0  0  0  0  0  0
  138.6810   73.6500  220.6420 C   0  0  0  0  0  0  0  0  0  0  0  0
  140.0660   74.0000  221.2030 C   0  0  0  0  0  0  0  0  0  0  0  0
  143.3536   77.8001  219.5342 H   0  0  0  0  0  0  0  0  0  0  0  0
  143.6839   76.9183  218.0044 H   0  0  0  0  0  0  0  0  0  0  0  0
  142.5778   78.3337  218.0044 H   0  0  0  0  0  0  0  0  0  0  0  0
  140.7955   77.0956  218.7483 H   0  0  0  0  0  0  0  0  0  0  0  0
  141.7405   75.6984  218.1460 H   0  0  0  0  0  0  0  0  0  0  0  0
  141.6689   76.7653  223.8984 H   0  0  0  0  0  0  0  0  0  0  0  0
  141.7828   79.0426  224.8553 H   0  0  0  0  0  0  0  0  0  0  0  0
  141.2913   81.0572  223.5201 H   0  0  0  0  0  0  0  0  0  0  0  0
  140.6582   80.7870  221.1256 H   0  0  0  0  0  0  0  0  0  0  0  0
  140.5304   78.5186  220.0983 H   0  0  0  0  0  0  0  0  0  0  0  0
  140.3026   75.0775  222.9404 H   0  0  0  0  0  0  0  0  0  0  0  0
  138.7313   76.8130  222.6631 H   0  0  0  0  0  0  0  0  0  0  0  0
  138.4881   76.3477  220.9080 H   0  0  0  0  0  0  0  0  0  0  0  0
  137.4784   75.0342  223.3990 H   0  0  0  0  0  0  0  0  0  0  0  0
  136.6224   75.4857  221.8794 H   0  0  0  0  0  0  0  0  0  0  0  0
  136.4226   70.6826  222.5022 H   0  0  0  0  0  0  0  0  0  0  0  0
  137.1396   71.1427  220.9315 H   0  0  0  0  0  0  0  0  0  0  0  0
  139.2518   70.8716  221.6388 H   0  0  0  0  0  0  0  0  0  0  0  0
  139.6686   72.3901  223.4129 H   0  0  0  0  0  0  0  0  0  0  0  0
  138.2897   71.9397  224.3482 H   0  0  0  0  0  0  0  0  0  0  0  0
  140.9236   70.2729  223.8910 H   0  0  0  0  0  0  0  0  0  0  0  0
  141.4250   72.4842  225.0924 H   0  0  0  0  0  0  0  0  0  0  0  0
  142.0737   73.0706  227.4430 H   0  0  0  0  0  0  0  0  0  0  0  0
  141.3215   71.6761  229.3318 H   0  0  0  0  0  0  0  0  0  0  0  0
  139.9025   69.6615  228.9501 H   0  0  0  0  0  0  0  0  0  0  0  0
  139.2614   69.0839  226.6050 H   0  0  0  0  0  0  0  0  0  0  0  0
  139.6524   68.2932  224.2445 H   0  0  0  0  0  0  0  0  0  0  0  0
  138.2930   69.1457  224.9672 H   0  0  0  0  0  0  0  0  0  0  0  0
  139.8121   67.8006  222.5183 H   0  0  0  0  0  0  0  0  0  0  0  0
  138.4855   67.9819  221.3208 H   0  0  0  0  0  0  0  0  0  0  0  0
  139.8597   69.1387  221.3208 H   0  0  0  0  0  0  0  0  0  0  0  0
  138.6749   72.6280  220.2352 H   0  0  0  0  0  0  0  0  0  0  0  0
  138.3867   74.3169  219.8182 H   0  0  0  0  0  0  0  0  0  0  0  0
  140.3724   73.2210  221.9166 H   0  0  0  0  0  0  0  0  0  0  0  0
  140.7782   74.0584  220.3668 H   0  0  0  0  0  0  0  0  0  0  0  0
  1  2  1  0
  2  3  1  0
  3  4  2  0
  3  5  1  0
  5  6  1  0
  6  7  2  0
  7  8  1  0
  8  9  2  0
  9 10  1  0
 10 11  2  0
  5 12  1  0
 12 13  1  0
 13 14  1  0
 14 15  1  0
 15 16  1  0
 16 17  2  0
 16 18  1  0
 18 19  1  0
 19 20  1  0
 20 21  1  0
 21 22  1  0
 22 23  2  0
 23 24  1  0
 24 25  2  0
 25 26  1  0
 26 27  2  0
 21 28  1  0
 28 29  1  0
 29 30  1  0
 15 31  1  0
 31 32  1  0
 11  6  1  0
 32 12  1  0
 29 19  1  0
 27 22  1  0
  1 33  1  0
  1 34  1  0
  1 35  1  0
  2 36  1  0
  2 37  1  0
  7 38  1  0
  8 39  1  0
  9 40  1  0
 10 41  1  0
 11 42  1  0
 12 43  1  0
 13 44  1  0
 13 45  1  0
 14 46  1  0
 14 47  1  0
 18 48  1  0
 18 49  1  0
 19 50  1  6
 20 51  1  0
 20 52  1  0
 21 53  1  6
 23 54  1  0
 24 55  1  0
 25 56  1  0
 26 57  1  0
 27 58  1  0
 28 59  1  0
 28 60  1  0
 30 61  1  0
 30 62  1  0
 30 63  1  0
 31 64  1  0
 31 65  1  0
 32 66  1  0
 32 67  1  0
M  END
>  <smiles>  (4) 
CCC(=O)N(c1ccccc1)C1CCN(C(=O)C[C@H]2C[C@@H](c3ccccc3)CN2C)CC1

>  <score_type>  (4) 
oracle

>  <origin>  (4) 
autodockgpu

>  <m_score__min__energy>  (4) 
-8.6500000000000004

>  <m_primary>  (4) 
energy

>  <rmsd>  (4) 
2.5605618989668564

>  <m_score__min__rmsd>  (4) 
2.5605618989668564

>  <meeko>  (4) 
{"free_energy": -7.83, "intermolecular_energy": -9.91, "internal_energy": -2.03, "cluster_size": 21, "cluster_id": 2, "rank_in_cluster": 21}

>  <energy>  (4) 
-8.29

>  <cluster_rmsd>  (4) 
1.16

>  <cluster>  (4) 
1

$$$$

     RDKit          3D

 67 70  0  0  0  0  0  0  0  0999 V2000
  135.8800   68.9580  223.3460 C   0  0  0  0  0  0  0  0  0  0  0  0
  136.5780   69.2610  224.6720 C   0  0  0  0  0  0  0  0  0  0  0  0
  137.6040   70.2930  224.4430 C   0  0  0  0  0  0  0  0  0  0  0  0
  137.1440   71.4760  224.2260 O   0  0  0  0  0  0  0  0  0  0  0  0
  138.9900   70.1730  224.4260 N   0  0  0  0  0  0  0  0  0  0  0  0
  139.5670   69.5570  225.6170 C   0  0  0  0  0  0  0  0  0  0  0  0
  139.6320   68.1790  225.7320 C   0  0  0  0  0  0  0  0  0  0  0  0
  140.1830   67.6780  226.8910 C   0  0  0  0  0  0  0  0  0  0  0  0
  140.6600   68.4690  227.9150 C   0  0  0  0  0  0  0  0  0  0  0  0
  140.5770   69.8420  227.7620 C   0  0  0  0  0  0  0  0  0  0  0  0
  140.0320   70.4080  226.6160 C   0  0  0  0  0  0  0  0  0  0  0  0
  139.9220   70.5540  223.4040 C   0  0  0  0  0  0  0  0  0  0  0  0
  139.3070   70.2610  222.0500 C   0  0  0  0  0  0  0  0  0  0  0  0
  140.0830   70.8150  220.8920 C   0  0  0  0  0  0  0  0  0  0  0  0
  140.6870   72.0860  221.2560 N   0  0  0  0  0  0  0  0  0  0  0  0
  141.8090   72.5090  220.5200 C   0  0  0  0  0  0  0  0  0  0  0  0
  142.2070   71.7480  219.5880 O   0  0  0  0  0  0  0  0  0  0  0  0
  142.5700   73.7570  220.7330 C   0  0  0  0  0  0  0  0  0  0  0  0
  141.6670   74.9180  220.4120 C   0  0  1  0  0  0  0  0  0  0  0  0
  141.3440   75.7390  221.6550 C   0  0  0  0  0  0  0  0  0  0  0  0
  141.1020   77.1030  220.9910 C   0  0  1  0  0  0  0  0  0  0  0  0
  141.0940   78.2040  221.9660 C   0  0  0  0  0  0  0  0  0  0  0  0
  142.1820   79.0670  221.9640 C   0  0  0  0  0  0  0  0  0  0  0  0
  142.1890   80.1180  222.8830 C   0  0  0  0  0  0  0  0  0  0  0  0
  141.1390   80.2880  223.7670 C   0  0  0  0  0  0  0  0  0  0  0  0
  140.0530   79.4300  223.7710 C   0  0  0  0  0  0  0  0  0  0  0  0
  140.0540   78.3840  222.8510 C   0  0  0  0  0  0  0  0  0  0  0  0
  142.2080   77.1460  219.9890 C   0  0  0  0  0  0  0  0  0  0  0  0
  142.2740   75.8060  219.4750 N   0  0  0  0  0  0  0  0  0  0  0  0
  141.6120   75.7640  218.1990 C   0  0  0  0  0  0  0  0  0  0  0  0
  140.0750   72.8050  222.3510 C   0  0  0  0  0  0  0  0  0  0  0  0
  140.3740   71.9570  223.5950 C   0  0  0  0  0  0  0  0  0  0  0  0
  134.8875   68.5271  223.5442 H   0  0  0  0  0  0  0  0  0  0  0  0
  135.7675   69.8883  222.7699 H   0  0  0  0  0  0  0  0  0  0  0  0
  136.4828   68.2406  222.7699 H   0  0  0  0  0  0  0  0  0  0  0  0
  135.8415   69.6274  225.4023 H   0  0  0  0  0  0  0  0  0  0  0  0
  137.0479   68.3472  225.0646 H   0  0  0  0  0  0  0  0  0  0  0  0
  139.2616   67.5160  224.9363 H   0  0  0  0  0  0  0  0  0  0  0  0
  140.2460   66.5859  227.0061 H   0  0  0  0  0  0  0  0  0  0  0  0
  141.0921   68.0235  228.8232 H   0  0  0  0  0  0  0  0  0  0  0  0
  140.9495   70.4976  228.5628 H   0  0  0  0  0  0  0  0  0  0  0  0
  139.9695   71.5002  226.5010 H   0  0  0  0  0  0  0  0  0  0  0  0
  140.8445   69.9584  223.4684 H   0  0  0  0  0  0  0  0  0  0  0  0
  139.2396   69.1696  221.9301 H   0  0  0  0  0  0  0  0  0  0  0  0
  138.3226   70.7517  222.0359 H   0  0  0  0  0  0  0  0  0  0  0  0
  140.8738   70.1040  220.6108 H   0  0  0  0  0  0  0  0  0  0  0  0
  139.4003   70.9713  220.0438 H   0  0  0  0  0  0  0  0  0  0  0  0
  142.8982   73.8190  221.7811 H   0  0  0  0  0  0  0  0  0  0  0  0
  143.4587   73.7759  220.0851 H   0  0  0  0  0  0  0  0  0  0  0  0
  140.7499   74.4784  219.9928 H   0  0  0  0  0  0  0  0  0  0  0  0
  140.4469   75.3678  222.1720 H   0  0  0  0  0  0  0  0  0  0  0  0
  142.1134   75.7271  222.4411 H   0  0  0  0  0  0  0  0  0  0  0  0
  140.1145   77.2252  220.5220 H   0  0  0  0  0  0  0  0  0  0  0  0
  143.0143   78.9266  221.2587 H   0  0  0  0  0  0  0  0  0  0  0  0
  143.0377   80.8175  222.9042 H   0  0  0  0  0  0  0  0  0  0  0  0
  141.1677   81.1231  224.4823 H   0  0  0  0  0  0  0  0  0  0  0  0
  139.2194   79.5690  224.4751 H   0  0  0  0  0  0  0  0  0  0  0  0
  139.2045   77.6855  222.8308 H   0  0  0  0  0  0  0  0  0  0  0  0
  141.9779   77.8607  219.1851 H   0  0  0  0  0  0  0  0  0  0  0  0
  143.1611   77.4746  220.4290 H   0  0  0  0  0  0  0  0  0  0  0  0
  140.5249   75.6950  218.3520 H   0  0  0  0  0  0  0  0  0  0  0  0
  141.8455   76.6788  217.6345 H   0  0  0  0  0  0  0  0  0  0  0  0
  141.9592   74.8861  217.6345 H   0  0  0  0  0  0  0  0  0  0  0  0
  140.5164   73.8076  222.4506 H   0  0  0  0  0  0  0  0  0  0  0  0
  138.9955   72.9514  222.1988 H   0  0  0  0  0  0  0  0  0  0  0  0
  141.4578   71.9634  223.7828 H   0  0  0  0  0  0  0  0  0  0  0  0
  139.8323   72.3865  224.4506 H   0  0  0  0  0  0  0  0  0  0  0  0
  1  2  1  0
  2  3  1  0
  3  4  2  0
  3  5  1  0
  5  6  1  0
  6  7  2  0
  7  8  1  0
  8  9  2  0
  9 10  1  0
 10 11  2  0
  5 12  1  0
 12 13  1  0
 13 14  1  0
 14 15  1  0
 15 16  1  0
 16 17  2  0
 16 18  1  0
 18 19  1  0
 19 20  1  0
 20 21  1  0
 21 22  1  0
 22 23  2  0
 23 24  1  0
 24 25  2  0
 25 26  1  0
 26 27  2  0
 21 28  1  0
 28 29  1  0
 29 30  1  0
 15 31  1  0
 31 32  1  0
 11  6  1  0
 32 12  1  0
 29 19  1  0
 27 22  1  0
  1 33  1  0
  1 34  1  0
  1 35  1  0
  2 36  1  0
  2 37  1  0
  7 38  1  0
  8 39  1  0
  9 40  1  0
 10 41  1  0
 11 42  1  0
 12 43  1  0
 13 44  1  0
 13 45  1  0
 14 46  1  0
 14 47  1  0
 18 48  1  0
 18 49  1  0
 19 50  1  6
 20 51  1  0
 20 52  1  0
 21 53  1  6
 23 54  1  0
 24 55  1  0
 25 56  1  0
 26 57  1  0
 27 58  1  0
 28 59  1  0
 28 60  1  0
 30 61  1  0
 30 62  1  0
 30 63  1  0
 31 64  1  0
 31 65  1  0
 32 66  1  0
 32 67  1  0
M  END
>  <smiles>  (5) 
CCC(=O)N(c1ccccc1)C1CCN(C(=O)C[C@H]2C[C@@H](c3ccccc3)CN2C)CC1

>  <score_type>  (5) 
oracle

>  <origin>  (5) 
autodockgpu

>  <m_score__min__energy>  (5) 
-8.6500000000000004

>  <m_primary>  (5) 
energy

>  <rmsd>  (5) 
8.010944883828671

>  <m_score__min__rmsd>  (5) 
8.010944883828671

>  <meeko>  (5) 
{"free_energy": -7.69, "intermolecular_energy": -9.78, "internal_energy": -1.73, "cluster_size": 2, "cluster_id": 5, "rank_in_cluster": 2}

>  <energy>  (5) 
-8.27

>  <cluster_rmsd>  (5) 
1.18

>  <cluster>  (5) 
1

$$$$

     RDKit          3D

 67 70  0  0  0  0  0  0  0  0999 V2000
  136.6090   70.5470  224.1710 C   0  0  0  0  0  0  0  0  0  0  0  0
  137.2420   69.5410  223.2080 C   0  0  0  0  0  0  0  0  0  0  0  0
  138.6890   69.4790  223.4710 C   0  0  0  0  0  0  0  0  0  0  0  0
  139.2000   68.2990  223.4160 O   0  0  0  0  0  0  0  0  0  0  0  0
  139.5770   70.5060  223.7730 N   0  0  0  0  0  0  0  0  0  0  0  0
  139.9750   70.5820  225.1740 C   0  0  0  0  0  0  0  0  0  0  0  0
  140.7770   71.6190  225.6210 C   0  0  0  0  0  0  0  0  0  0  0  0
  141.1140   71.6130  226.9570 C   0  0  0  0  0  0  0  0  0  0  0  0
  140.6980   70.6430  227.8450 C   0  0  0  0  0  0  0  0  0  0  0  0
  139.8990   69.6230  227.3600 C   0  0  0  0  0  0  0  0  0  0  0  0
  139.5240   69.5750  226.0230 C   0  0  0  0  0  0  0  0  0  0  0  0
  140.1620   71.4860  222.9020 C   0  0  0  0  0  0  0  0  0  0  0  0
  140.6040   70.8000  221.6240 C   0  0  0  0  0  0  0  0  0  0  0  0
  141.0300   71.7420  220.5390 C   0  0  0  0  0  0  0  0  0  0  0  0
  140.2220   72.9510  220.5790 N   0  0  0  0  0  0  0  0  0  0  0  0
  140.7600   74.1140  219.9980 C   0  0  0  0  0  0  0  0  0  0  0  0
  141.9120   74.0170  219.4750 O   0  0  0  0  0  0  0  0  0  0  0  0
  140.1100   75.4390  219.9400 C   0  0  0  0  0  0  0  0  0  0  0  0
  140.0030   75.9710  221.3440 C   0  0  1  0  0  0  0  0  0  0  0  0
  141.0870   77.0020  221.6370 C   0  0  0  0  0  0  0  0  0  0  0  0
  140.3540   77.8310  222.7020 C   0  0  1  0  0  0  0  0  0  0  0  0
  141.0130   79.1210  222.9560 C   0  0  0  0  0  0  0  0  0  0  0  0
  140.3630   80.2670  222.5180 C   0  0  0  0  0  0  0  0  0  0  0  0
  140.9770   81.5010  222.7510 C   0  0  0  0  0  0  0  0  0  0  0  0
  142.1950   81.5700  223.4000 C   0  0  0  0  0  0  0  0  0  0  0  0
  142.8450   80.4290  223.8390 C   0  0  0  0  0  0  0  0  0  0  0  0
  142.2270   79.2040  223.6020 C   0  0  0  0  0  0  0  0  0  0  0  0
  138.9830   77.9190  222.1180 C   0  0  0  0  0  0  0  0  0  0  0  0
  138.7490   76.6150  221.5620 N   0  0  0  0  0  0  0  0  0  0  0  0
  137.9190   75.8670  222.4660 C   0  0  0  0  0  0  0  0  0  0  0  0
  138.9310   72.8470  221.2190 C   0  0  0  0  0  0  0  0  0  0  0  0
  139.2440   72.6380  222.7070 C   0  0  0  0  0  0  0  0  0  0  0  0
  136.8050   70.2355  225.2076 H   0  0  0  0  0  0  0  0  0  0  0  0
  137.0436   71.5427  223.9989 H   0  0  0  0  0  0  0  0  0  0  0  0
  135.5232   70.5861  223.9989 H   0  0  0  0  0  0  0  0  0  0  0  0
  136.7949   68.5481  223.3639 H   0  0  0  0  0  0  0  0  0  0  0  0
  137.0639   69.8551  222.1689 H   0  0  0  0  0  0  0  0  0  0  0  0
  141.1282   72.4098  224.9417 H   0  0  0  0  0  0  0  0  0  0  0  0
  141.7498   72.4266  227.3363 H   0  0  0  0  0  0  0  0  0  0  0  0
  140.9920   70.6792  228.9044 H   0  0  0  0  0  0  0  0  0  0  0  0
  139.5541   68.8351  228.0458 H   0  0  0  0  0  0  0  0  0  0  0  0
  138.8869   68.7619  225.6449 H   0  0  0  0  0  0  0  0  0  0  0  0
  141.0629   71.9276  223.3530 H   0  0  0  0  0  0  0  0  0  0  0  0
  141.4519   70.1407  221.8614 H   0  0  0  0  0  0  0  0  0  0  0  0
  139.7316   70.2498  221.2416 H   0  0  0  0  0  0  0  0  0  0  0  0
  142.0880   72.0069  220.6822 H   0  0  0  0  0  0  0  0  0  0  0  0
  140.8949   71.2515  219.5637 H   0  0  0  0  0  0  0  0  0  0  0  0
  140.7143   76.1239  219.3271 H   0  0  0  0  0  0  0  0  0  0  0  0
  139.1106   75.3530  219.4886 H   0  0  0  0  0  0  0  0  0  0  0  0
  140.1121   75.0991  222.0057 H   0  0  0  0  0  0  0  0  0  0  0  0
  142.0012   76.5368  222.0344 H   0  0  0  0  0  0  0  0  0  0  0  0
  141.4481   77.5674  220.7653 H   0  0  0  0  0  0  0  0  0  0  0  0
  140.3463   77.3926  223.7108 H   0  0  0  0  0  0  0  0  0  0  0  0
  139.3931   80.2057  222.0027 H   0  0  0  0  0  0  0  0  0  0  0  0
  140.4859   82.4260  222.4145 H   0  0  0  0  0  0  0  0  0  0  0  0
  142.6583   82.5528  223.5716 H   0  0  0  0  0  0  0  0  0  0  0  0
  143.8141   80.4881  224.3561 H   0  0  0  0  0  0  0  0  0  0  0  0
  142.7200   78.2801  223.9387 H   0  0  0  0  0  0  0  0  0  0  0  0
  138.2416   78.1490  222.8974 H   0  0  0  0  0  0  0  0  0  0  0  0
  138.8970   78.7177  221.3665 H   0  0  0  0  0  0  0  0  0  0  0  0
  138.1918   76.1129  223.5029 H   0  0  0  0  0  0  0  0  0  0  0  0
  136.8637   76.1250  222.2935 H   0  0  0  0  0  0  0  0  0  0  0  0
  138.0662   74.7906  222.2935 H   0  0  0  0  0  0  0  0  0  0  0  0
  138.3504   73.7696  221.0714 H   0  0  0  0  0  0  0  0  0  0  0  0
  138.3275   72.0266  220.8034 H   0  0  0  0  0  0  0  0  0  0  0  0
  139.7179   73.5470  223.1059 H   0  0  0  0  0  0  0  0  0  0  0  0
  138.3029   72.4294  223.2369 H   0  0  0  0  0  0  0  0  0  0  0  0
  1  2  1  0
  2  3  1  0
  3  4  2  0
  3  5  1  0
  5  6  1  0
  6  7  2  0
  7  8  1  0
  8  9  2  0
  9 10  1  0
 10 11  2  0
  5 12  1  0
 12 13  1  0
 13 14  1  0
 14 15  1  0
 15 16  1  0
 16 17  2  0
 16 18  1  0
 18 19  1  0
 19 20  1  0
 20 21  1  0
 21 22  1  0
 22 23  2  0
 23 24  1  0
 24 25  2  0
 25 26  1  0
 26 27  2  0
 21 28  1  0
 28 29  1  0
 29 30  1  0
 15 31  1  0
 31 32  1  0
 11  6  1  0
 32 12  1  0
 29 19  1  0
 27 22  1  0
  1 33  1  0
  1 34  1  0
  1 35  1  0
  2 36  1  0
  2 37  1  0
  7 38  1  0
  8 39  1  0
  9 40  1  0
 10 41  1  0
 11 42  1  0
 12 43  1  0
 13 44  1  0
 13 45  1  0
 14 46  1  0
 14 47  1  0
 18 48  1  0
 18 49  1  0
 19 50  1  1
 20 51  1  0
 20 52  1  0
 21 53  1  1
 23 54  1  0
 24 55  1  0
 25 56  1  0
 26 57  1  0
 27 58  1  0
 28 59  1  0
 28 60  1  0
 30 61  1  0
 30 62  1  0
 30 63  1  0
 31 64  1  0
 31 65  1  0
 32 66  1  0
 32 67  1  0
M  END
>  <smiles>  (6) 
CCC(=O)N(c1ccccc1)C1CCN(C(=O)C[C@H]2C[C@@H](c3ccccc3)CN2C)CC1

>  <score_type>  (6) 
oracle

>  <origin>  (6) 
autodockgpu

>  <m_score__min__energy>  (6) 
-8.6500000000000004

>  <m_primary>  (6) 
energy

>  <rmsd>  (6) 
8.434364569246874

>  <m_score__min__rmsd>  (6) 
8.434364569246874

>  <meeko>  (6) 
{"free_energy": -7.72, "intermolecular_energy": -9.81, "internal_energy": -1.92, "cluster_size": 14, "cluster_id": 3, "rank_in_cluster": 13}

>  <energy>  (6) 
-8.23

>  <cluster_rmsd>  (6) 
0.72

>  <cluster>  (6) 
1

$$$$

     RDKit          3D

 67 70  0  0  0  0  0  0  0  0999 V2000
  146.0250   73.9600  221.1980 C   0  0  0  0  0  0  0  0  0  0  0  0
  145.5960   72.6510  220.5330 C   0  0  0  0  0  0  0  0  0  0  0  0
  144.8860   72.9650  219.2810 C   0  0  0  0  0  0  0  0  0  0  0  0
  145.5760   72.7910  218.2080 O   0  0  0  0  0  0  0  0  0  0  0  0
  143.5860   73.4240  219.0940 N   0  0  0  0  0  0  0  0  0  0  0  0
  143.4840   74.7810  218.5670 C   0  0  0  0  0  0  0  0  0  0  0  0
  143.7770   75.0420  217.2390 C   0  0  0  0  0  0  0  0  0  0  0  0
  143.6640   76.3500  216.8240 C   0  0  0  0  0  0  0  0  0  0  0  0
  143.2820   77.3840  217.6520 C   0  0  0  0  0  0  0  0  0  0  0  0
  142.9980   77.0840  218.9720 C   0  0  0  0  0  0  0  0  0  0  0  0
  143.0940   75.7830  219.4510 C   0  0  0  0  0  0  0  0  0  0  0  0
  142.3420   72.7490  219.3330 C   0  0  0  0  0  0  0  0  0  0  0  0
  141.8560   72.1480  218.0280 C   0  0  0  0  0  0  0  0  0  0  0  0
  140.6810   71.2290  218.1780 C   0  0  0  0  0  0  0  0  0  0  0  0
  140.7750   70.4950  219.4300 N   0  0  0  0  0  0  0  0  0  0  0  0
  139.5850   69.9770  219.9730 C   0  0  0  0  0  0  0  0  0  0  0  0
  138.5170   70.1850  219.3220 O   0  0  0  0  0  0  0  0  0  0  0  0
  139.4620   69.2130  221.2300 C   0  0  0  0  0  0  0  0  0  0  0  0
  139.1070   70.1760  222.3320 C   0  0  1  0  0  0  0  0  0  0  0  0
  139.2540   69.5340  223.7070 C   0  0  0  0  0  0  0  0  0  0  0  0
  139.5560   70.7940  224.5330 C   0  0  1  0  0  0  0  0  0  0  0  0
  140.0840   70.4720  225.8670 C   0  0  0  0  0  0  0  0  0  0  0  0
  140.1230   69.1330  226.2330 C   0  0  0  0  0  0  0  0  0  0  0  0
  140.6220   68.8110  227.4970 C   0  0  0  0  0  0  0  0  0  0  0  0
  141.0620   69.8030  228.3540 C   0  0  0  0  0  0  0  0  0  0  0  0
  141.0240   71.1380  227.9930 C   0  0  0  0  0  0  0  0  0  0  0  0
  140.5250   71.4510  226.7310 C   0  0  0  0  0  0  0  0  0  0  0  0
  140.4980   71.5210  223.6320 C   0  0  0  0  0  0  0  0  0  0  0  0
  139.9570   71.3210  222.3160 N   0  0  0  0  0  0  0  0  0  0  0  0
  139.2430   72.5050  221.9220 C   0  0  0  0  0  0  0  0  0  0  0  0
  142.0930   70.3660  220.0090 C   0  0  0  0  0  0  0  0  0  0  0  0
  142.4680   71.7850  220.4560 C   0  0  0  0  0  0  0  0  0  0  0  0
  145.9874   73.8453  222.2914 H   0  0  0  0  0  0  0  0  0  0  0  0
  147.0515   74.2083  220.8904 H   0  0  0  0  0  0  0  0  0  0  0  0
  145.3446   74.7677  220.8904 H   0  0  0  0  0  0  0  0  0  0  0  0
  146.4838   72.0406  220.3114 H   0  0  0  0  0  0  0  0  0  0  0  0
  144.9335   72.0887  221.2075 H   0  0  0  0  0  0  0  0  0  0  0  0
  144.0852   74.2428  216.5488 H   0  0  0  0  0  0  0  0  0  0  0  0
  143.8912   76.5829  215.7732 H   0  0  0  0  0  0  0  0  0  0  0  0
  143.2055   78.4145  217.2749 H   0  0  0  0  0  0  0  0  0  0  0  0
  142.6906   77.8897  219.6549 H   0  0  0  0  0  0  0  0  0  0  0  0
  142.8675   75.5509  220.5021 H   0  0  0  0  0  0  0  0  0  0  0  0
  141.5670   73.4551  219.6657 H   0  0  0  0  0  0  0  0  0  0  0  0
  141.5686   72.9694  217.3552 H   0  0  0  0  0  0  0  0  0  0  0  0
  142.6836   71.5427  217.6296 H   0  0  0  0  0  0  0  0  0  0  0  0
  139.7537   71.8207  218.1723 H   0  0  0  0  0  0  0  0  0  0  0  0
  140.6751   70.5141  217.3420 H   0  0  0  0  0  0  0  0  0  0  0  0
  138.6717   68.4545  221.1291 H   0  0  0  0  0  0  0  0  0  0  0  0
  140.4097   68.7042  221.4601 H   0  0  0  0  0  0  0  0  0  0  0  0
  138.0612   70.4663  222.1530 H   0  0  0  0  0  0  0  0  0  0  0  0
  138.3264   69.0405  224.0326 H   0  0  0  0  0  0  0  0  0  0  0  0
  140.0050   68.7332  223.7761 H   0  0  0  0  0  0  0  0  0  0  0  0
  138.6782   71.4044  224.7918 H   0  0  0  0  0  0  0  0  0  0  0  0
  139.7710   68.3485  225.5470 H   0  0  0  0  0  0  0  0  0  0  0  0
  140.6654   67.7585  227.8138 H   0  0  0  0  0  0  0  0  0  0  0  0
  141.4508   69.5245  229.3446 H   0  0  0  0  0  0  0  0  0  0  0  0
  141.3752   71.9238  228.6779 H   0  0  0  0  0  0  0  0  0  0  0  0
  140.4818   72.5042  226.4165 H   0  0  0  0  0  0  0  0  0  0  0  0
  140.5282   72.5917  223.8822 H   0  0  0  0  0  0  0  0  0  0  0  0
  141.5315   71.1550  223.7214 H   0  0  0  0  0  0  0  0  0  0  0  0
  138.9141   73.0504  222.8189 H   0  0  0  0  0  0  0  0  0  0  0  0
  139.9034   73.1491  221.3228 H   0  0  0  0  0  0  0  0  0  0  0  0
  138.3652   72.2215  221.3228 H   0  0  0  0  0  0  0  0  0  0  0  0
  142.0723   69.6817  220.8700 H   0  0  0  0  0  0  0  0  0  0  0  0
  142.8200   69.9507  219.2956 H   0  0  0  0  0  0  0  0  0  0  0  0
  141.7978   72.0938  221.2718 H   0  0  0  0  0  0  0  0  0  0  0  0
  143.5139   71.7796  220.7968 H   0  0  0  0  0  0  0  0  0  0  0  0
  1  2  1  0
  2  3  1  0
  3  4  2  0
  3  5  1  0
  5  6  1  0
  6  7  2  0
  7  8  1  0
  8  9  2  0
  9 10  1  0
 10 11  2  0
  5 12  1  0
 12 13  1  0
 13 14  1  0
 14 15  1  0
 15 16  1  0
 16 17  2  0
 16 18  1  0
 18 19  1  0
 19 20  1  0
 20 21  1  0
 21 22  1  0
 22 23  2  0
 23 24  1  0
 24 25  2  0
 25 26  1  0
 26 27  2  0
 21 28  1  0
 28 29  1  0
 29 30  1  0
 15 31  1  0
 31 32  1  0
 11  6  1  0
 32 12  1  0
 29 19  1  0
 27 22  1  0
  1 33  1  0
  1 34  1  0
  1 35  1  0
  2 36  1  0
  2 37  1  0
  7 38  1  0
  8 39  1  0
  9 40  1  0
 10 41  1  0
 11 42  1  0
 12 43  1  0
 13 44  1  0
 13 45  1  0
 14 46  1  0
 14 47  1  0
 18 48  1  0
 18 49  1  0
 19 50  1  6
 20 51  1  0
 20 52  1  0
 21 53  1  1
 23 54  1  0
 24 55  1  0
 25 56  1  0
 26 57  1  0
 27 58  1  0
 28 59  1  0
 28 60  1  0
 30 61  1  0
 30 62  1  0
 30 63  1  0
 31 64  1  0
 31 65  1  0
 32 66  1  0
 32 67  1  0
M  END
>  <smiles>  (7) 
CCC(=O)N(c1ccccc1)C1CCN(C(=O)C[C@H]2C[C@@H](c3ccccc3)CN2C)CC1

>  <score_type>  (7) 
oracle

>  <origin>  (7) 
autodockgpu

>  <m_score__min__energy>  (7) 
-8.6500000000000004

>  <m_primary>  (7) 
energy

>  <rmsd>  (7) 
3.2539238864454405

>  <m_score__min__rmsd>  (7) 
3.2539238864454405

>  <meeko>  (7) 
{"free_energy": -7.36, "intermolecular_energy": -9.44, "internal_energy": -2.02, "cluster_size": 2, "cluster_id": 4, "rank_in_cluster": 2}

>  <energy>  (7) 
-8.17

>  <cluster_rmsd>  (7) 
1.47

>  <cluster>  (7) 
1

$$$$

     RDKit          3D

 67 70  0  0  0  0  0  0  0  0999 V2000
  138.0340   80.7920  224.2230 C   0  0  0  0  0  0  0  0  0  0  0  0
  137.3070   80.1470  223.0420 C   0  0  0  0  0  0  0  0  0  0  0  0
  138.2690   79.9490  221.9440 C   0  0  0  0  0  0  0  0  0  0  0  0
  138.0880   80.7070  220.9200 O   0  0  0  0  0  0  0  0  0  0  0  0
  139.3380   79.0620  221.8560 N   0  0  0  0  0  0  0  0  0  0  0  0
  140.5940   79.5590  222.4080 C   0  0  0  0  0  0  0  0  0  0  0  0
  141.3580   80.4740  221.7030 C   0  0  0  0  0  0  0  0  0  0  0  0
  142.5330   80.8860  222.2910 C   0  0  0  0  0  0  0  0  0  0  0  0
  142.9720   80.4370  223.5190 C   0  0  0  0  0  0  0  0  0  0  0  0
  142.1820   79.5220  224.1920 C   0  0  0  0  0  0  0  0  0  0  0  0
  140.9840   79.0690  223.6520 C   0  0  0  0  0  0  0  0  0  0  0  0
  139.3740   77.7340  221.3140 C   0  0  0  0  0  0  0  0  0  0  0  0
  140.8160   77.3620  221.0310 C   0  0  0  0  0  0  0  0  0  0  0  0
  141.0180   75.9210  220.6700 C   0  0  0  0  0  0  0  0  0  0  0  0
  140.0900   75.0830  221.4140 N   0  0  0  0  0  0  0  0  0  0  0  0
  139.7860   73.8170  220.8820 C   0  0  0  0  0  0  0  0  0  0  0  0
  140.3510   73.4980  219.7930 O   0  0  0  0  0  0  0  0  0  0  0  0
  138.8680   72.8230  221.4740 C   0  0  0  0  0  0  0  0  0  0  0  0
  139.6970   71.7400  222.1120 C   0  0  1  0  0  0  0  0  0  0  0  0
  140.1790   72.1470  223.5000 C   0  0  0  0  0  0  0  0  0  0  0  0
  140.3020   70.7540  224.1340 C   0  0  1  0  0  0  0  0  0  0  0  0
  140.4310   70.8170  225.5980 C   0  0  0  0  0  0  0  0  0  0  0  0
  141.1200   71.8970  226.1320 C   0  0  0  0  0  0  0  0  0  0  0  0
  141.2510   71.9720  227.5210 C   0  0  0  0  0  0  0  0  0  0  0  0
  140.7070   70.9950  228.3330 C   0  0  0  0  0  0  0  0  0  0  0  0
  140.0190   69.9170  227.8030 C   0  0  0  0  0  0  0  0  0  0  0  0
  139.8930   69.8500  226.4190 C   0  0  0  0  0  0  0  0  0  0  0  0
  139.0640   70.0890  223.6310 C   0  0  0  0  0  0  0  0  0  0  0  0
  138.9480   70.5370  222.2710 N   0  0  0  0  0  0  0  0  0  0  0  0
  139.4220   69.4980  221.3970 C   0  0  0  0  0  0  0  0  0  0  0  0
  139.5600   75.6340  222.6400 C   0  0  0  0  0  0  0  0  0  0  0  0
  138.6450   76.7830  222.1930 C   0  0  0  0  0  0  0  0  0  0  0  0
  137.6093   80.4152  225.1651 H   0  0  0  0  0  0  0  0  0  0  0  0
  139.1039   80.5405  224.1766 H   0  0  0  0  0  0  0  0  0  0  0  0
  137.9117   81.8842  224.1766 H   0  0  0  0  0  0  0  0  0  0  0  0
  136.8914   79.1760  223.3492 H   0  0  0  0  0  0  0  0  0  0  0  0
  136.4862   80.7983  222.7072 H   0  0  0  0  0  0  0  0  0  0  0  0
  141.0413   80.8535  220.7203 H   0  0  0  0  0  0  0  0  0  0  0  0
  143.1564   81.6140  221.7511 H   0  0  0  0  0  0  0  0  0  0  0  0
  143.9191   80.7946  223.9492 H   0  0  0  0  0  0  0  0  0  0  0  0
  142.5082   79.1459  225.1729 H   0  0  0  0  0  0  0  0  0  0  0  0
  140.3601   78.3424  224.1931 H   0  0  0  0  0  0  0  0  0  0  0  0
  138.8395   77.6847  220.3539 H   0  0  0  0  0  0  0  0  0  0  0  0
  141.1745   77.9808  220.1952 H   0  0  0  0  0  0  0  0  0  0  0  0
  141.3766   77.5371  221.9611 H   0  0  0  0  0  0  0  0  0  0  0  0
  140.8436   75.7883  219.5920 H   0  0  0  0  0  0  0  0  0  0  0  0
  142.0480   75.6283  220.9220 H   0  0  0  0  0  0  0  0  0  0  0  0
  138.2365   73.3056  222.2345 H   0  0  0  0  0  0  0  0  0  0  0  0
  138.2172   72.3959  220.6968 H   0  0  0  0  0  0  0  0  0  0  0  0
  140.5520   71.5795  221.4388 H   0  0  0  0  0  0  0  0  0  0  0  0
  141.1462   72.6696  223.4632 H   0  0  0  0  0  0  0  0  0  0  0  0
  139.5288   72.8536  224.0366 H   0  0  0  0  0  0  0  0  0  0  0  0
  141.2105   70.1963  223.8628 H   0  0  0  0  0  0  0  0  0  0  0  0
  141.5505   72.6716  225.4804 H   0  0  0  0  0  0  0  0  0  0  0  0
  141.7922   72.8166  227.9724 H   0  0  0  0  0  0  0  0  0  0  0  0
  140.8232   71.0757  229.4239 H   0  0  0  0  0  0  0  0  0  0  0  0
  139.5874   69.1413  228.4527 H   0  0  0  0  0  0  0  0  0  0  0  0
  139.3510   69.0049  225.9695 H   0  0  0  0  0  0  0  0  0  0  0  0
  139.1649   68.9945  223.6734 H   0  0  0  0  0  0  0  0  0  0  0  0
  138.1781   70.3395  224.2330 H   0  0  0  0  0  0  0  0  0  0  0  0
  139.8045   68.6597  221.9977 H   0  0  0  0  0  0  0  0  0  0  0  0
  138.5949   69.1470  220.7624 H   0  0  0  0  0  0  0  0  0  0  0  0
  140.2292   69.8926  220.7624 H   0  0  0  0  0  0  0  0  0  0  0  0
  138.9860   74.8736  223.1898 H   0  0  0  0  0  0  0  0  0  0  0  0
  140.3554   75.9775  223.3177 H   0  0  0  0  0  0  0  0  0  0  0  0
  137.7890   76.3672  221.6412 H   0  0  0  0  0  0  0  0  0  0  0  0
  138.3015   77.3249  223.0865 H   0  0  0  0  0  0  0  0  0  0  0  0
  1  2  1  0
  2  3  1  0
  3  4  2  0
  3  5  1  0
  5  6  1  0
  6  7  2  0
  7  8  1  0
  8  9  2  0
  9 10  1  0
 10 11  2  0
  5 12  1  0
 12 13  1  0
 13 14  1  0
 14 15  1  0
 15 16  1  0
 16 17  2  0
 16 18  1  0
 18 19  1  0
 19 20  1  0
 20 21  1  0
 21 22  1  0
 22 23  2  0
 23 24  1  0
 24 25  2  0
 25 26  1  0
 26 27  2  0
 21 28  1  0
 28 29  1  0
 29 30  1  0
 15 31  1  0
 31 32  1  0
 11  6  1  0
 32 12  1  0
 29 19  1  0
 27 22  1  0
  1 33  1  0
  1 34  1  0
  1 35  1  0
  2 36  1  0
  2 37  1  0
  7 38  1  0
  8 39  1  0
  9 40  1  0
 10 41  1  0
 11 42  1  0
 12 43  1  0
 13 44  1  0
 13 45  1  0
 14 46  1  0
 14 47  1  0
 18 48  1  0
 18 49  1  0
 19 50  1  6
 20 51  1  0
 20 52  1  0
 21 53  1  6
 23 54  1  0
 24 55  1  0
 25 56  1  0
 26 57  1  0
 27 58  1  0
 28 59  1  0
 28 60  1  0
 30 61  1  0
 30 62  1  0
 30 63  1  0
 31 64  1  0
 31 65  1  0
 32 66  1  0
 32 67  1  0
M  END
>  <smiles>  (8) 
CCC(=O)N(c1ccccc1)C1CCN(C(=O)C[C@H]2C[C@@H](c3ccccc3)CN2C)CC1

>  <score_type>  (8) 
oracle

>  <origin>  (8) 
autodockgpu

>  <m_score__min__energy>  (8) 
-8.6500000000000004

>  <m_primary>  (8) 
energy

>  <rmsd>  (8) 
3.1011189216745167

>  <m_score__min__rmsd>  (8) 
3.1011189216745167

>  <meeko>  (8) 
{"free_energy": -8.03, "intermolecular_energy": -10.12, "internal_energy": -1.77, "cluster_size": 21, "cluster_id": 2, "rank_in_cluster": 18}

>  <energy>  (8) 
-8.16

>  <cluster_rmsd>  (8) 
1.4

>  <cluster>  (8) 
1

$$$$

     RDKit          3D

 67 70  0  0  0  0  0  0  0  0999 V2000
  143.9900   74.9510  220.0920 C   0  0  0  0  0  0  0  0  0  0  0  0
  143.6490   76.3610  219.6070 C   0  0  0  0  0  0  0  0  0  0  0  0
  142.2150   76.6080  219.8370 C   0  0  0  0  0  0  0  0  0  0  0  0
  141.5490   76.9480  218.7900 O   0  0  0  0  0  0  0  0  0  0  0  0
  141.4840   76.5290  221.0180 N   0  0  0  0  0  0  0  0  0  0  0  0
  141.4500   77.7590  221.8020 C   0  0  0  0  0  0  0  0  0  0  0  0
  141.4400   77.7100  223.1850 C   0  0  0  0  0  0  0  0  0  0  0  0
  141.3990   78.9160  223.8490 C   0  0  0  0  0  0  0  0  0  0  0  0
  141.3660   80.1380  223.2120 C   0  0  0  0  0  0  0  0  0  0  0  0
  141.3760   80.1460  221.8290 C   0  0  0  0  0  0  0  0  0  0  0  0
  141.4180   78.9630  221.1020 C   0  0  0  0  0  0  0  0  0  0  0  0
  140.7540   75.4190  221.5620 C   0  0  0  0  0  0  0  0  0  0  0  0
  139.3340   75.8650  221.8510 C   0  0  0  0  0  0  0  0  0  0  0  0
  138.4040   74.7480  222.2150 C   0  0  0  0  0  0  0  0  0  0  0  0
  138.7460   73.5470  221.4700 N   0  0  0  0  0  0  0  0  0  0  0  0
  138.3370   72.3110  222.0020 C   0  0  0  0  0  0  0  0  0  0  0  0
  137.6930   72.3380  223.0940 O   0  0  0  0  0  0  0  0  0  0  0  0
  138.5890   70.9820  221.4090 C   0  0  0  0  0  0  0  0  0  0  0  0
  139.2960   70.1360  222.4340 C   0  0  1  0  0  0  0  0  0  0  0  0
  140.0160   70.9920  223.4680 C   0  0  0  0  0  0  0  0  0  0  0  0
  139.9800   70.0220  224.6580 C   0  0  1  0  0  0  0  0  0  0  0  0
  140.3070   70.6850  225.9290 C   0  0  0  0  0  0  0  0  0  0  0  0
  139.8070   70.1160  227.0930 C   0  0  0  0  0  0  0  0  0  0  0  0
  140.1080   70.7350  228.3090 C   0  0  0  0  0  0  0  0  0  0  0  0
  140.8830   71.8790  228.3440 C   0  0  0  0  0  0  0  0  0  0  0  0
  141.3830   72.4480  227.1850 C   0  0  0  0  0  0  0  0  0  0  0  0
  141.0780   71.8260  225.9780 C   0  0  0  0  0  0  0  0  0  0  0  0
  138.5920   69.4820  224.5580 C   0  0  0  0  0  0  0  0  0  0  0  0
  138.3780   69.3090  223.1480 N   0  0  0  0  0  0  0  0  0  0  0  0
  138.5500   67.9200  222.8190 C   0  0  0  0  0  0  0  0  0  0  0  0
  139.4820   73.7350  220.2400 C   0  0  0  0  0  0  0  0  0  0  0  0
  140.8670   74.2270  220.6820 C   0  0  0  0  0  0  0  0  0  0  0  0
  143.9944   74.9326  221.1918 H   0  0  0  0  0  0  0  0  0  0  0  0
  143.2374   74.2421  219.7165 H   0  0  0  0  0  0  0  0  0  0  0  0
  144.9834   74.6643  219.7165 H   0  0  0  0  0  0  0  0  0  0  0  0
  144.2453   77.0982  220.1647 H   0  0  0  0  0  0  0  0  0  0  0  0
  143.8769   76.4529  218.5348 H   0  0  0  0  0  0  0  0  0  0  0  0
  141.4637   76.7536  223.7280 H   0  0  0  0  0  0  0  0  0  0  0  0
  141.3922   78.9033  224.9489 H   0  0  0  0  0  0  0  0  0  0  0  0
  141.3328   81.0764  223.7851 H   0  0  0  0  0  0  0  0  0  0  0  0
  141.3502   81.1072  221.2947 H   0  0  0  0  0  0  0  0  0  0  0  0
  141.4258   78.9766  220.0021 H   0  0  0  0  0  0  0  0  0  0  0  0
  141.1860   75.0936  222.5199 H   0  0  0  0  0  0  0  0  0  0  0  0
  139.3597   76.5794  222.6870 H   0  0  0  0  0  0  0  0  0  0  0  0
  138.9465   76.3107  220.9230 H   0  0  0  0  0  0  0  0  0  0  0  0
  138.4865   74.5430  223.2926 H   0  0  0  0  0  0  0  0  0  0  0  0
  137.3739   75.0433  221.9667 H   0  0  0  0  0  0  0  0  0  0  0  0
  137.6344   70.5109  221.1317 H   0  0  0  0  0  0  0  0  0  0  0  0
  139.2081   71.0804  220.5051 H   0  0  0  0  0  0  0  0  0  0  0  0
  140.0169   69.5231  221.8730 H   0  0  0  0  0  0  0  0  0  0  0  0
  141.0454   71.2291  223.1613 H   0  0  0  0  0  0  0  0  0  0  0  0
  139.5714   71.9810  223.6528 H   0  0  0  0  0  0  0  0  0  0  0  0
  140.7370   69.2243  224.6331 H   0  0  0  0  0  0  0  0  0  0  0  0
  139.1920   69.2046  227.0587 H   0  0  0  0  0  0  0  0  0  0  0  0
  139.7246   70.3078  229.2474 H   0  0  0  0  0  0  0  0  0  0  0  0
  141.1074   72.3475  229.3136 H   0  0  0  0  0  0  0  0  0  0  0  0
  141.9990   73.3588  227.2171 H   0  0  0  0  0  0  0  0  0  0  0  0
  141.4616   72.2554  225.0407 H   0  0  0  0  0  0  0  0  0  0  0  0
  138.5093   68.5202  225.0854 H   0  0  0  0  0  0  0  0  0  0  0  0
  137.8477   70.1495  225.0168 H   0  0  0  0  0  0  0  0  0  0  0  0
  138.6230   67.3303  223.7447 H   0  0  0  0  0  0  0  0  0  0  0  0
  137.6879   67.5731  222.2303 H   0  0  0  0  0  0  0  0  0  0  0  0
  139.4706   67.7939  222.2303 H   0  0  0  0  0  0  0  0  0  0  0  0
  139.5654   72.7862  219.6897 H   0  0  0  0  0  0  0  0  0  0  0  0
  138.9853   74.4465  219.5640 H   0  0  0  0  0  0  0  0  0  0  0  0
  141.3762   73.4215  221.2314 H   0  0  0  0  0  0  0  0  0  0  0  0
  141.4414   74.5063  219.7865 H   0  0  0  0  0  0  0  0  0  0  0  0
  1  2  1  0
  2  3  1  0
  3  4  2  0
  3  5  1  0
  5  6  1  0
  6  7  2  0
  7  8  1  0
  8  9  2  0
  9 10  1  0
 10 11  2  0
  5 12  1  0
 12 13  1  0
 13 14  1  0
 14 15  1  0
 15 16  1  0
 16 17  2  0
 16 18  1  0
 18 19  1  0
 19 20  1  0
 20 21  1  0
 21 22  1  0
 22 23  2  0
 23 24  1  0
 24 25  2  0
 25 26  1  0
 26 27  2  0
 21 28  1  0
 28 29  1  0
 29 30  1  0
 15 31  1  0
 31 32  1  0
 11  6  1  0
 32 12  1  0
 29 19  1  0
 27 22  1  0
  1 33  1  0
  1 34  1  0
  1 35  1  0
  2 36  1  0
  2 37  1  0
  7 38  1  0
  8 39  1  0
  9 40  1  0
 10 41  1  0
 11 42  1  0
 12 43  1  0
 13 44  1  0
 13 45  1  0
 14 46  1  0
 14 47  1  0
 18 48  1  0
 18 49  1  0
 19 50  1  6
 20 51  1  0
 20 52  1  0
 21 53  1  6
 23 54  1  0
 24 55  1  0
 25 56  1  0
 26 57  1  0
 27 58  1  0
 28 59  1  0
 28 60  1  0
 30 61  1  0
 30 62  1  0
 30 63  1  0
 31 64  1  0
 31 65  1  0
 32 66  1  0
 32 67  1  0
M  END
>  <smiles>  (9) 
CCC(=O)N(c1ccccc1)C1CCN(C(=O)C[C@H]2C[C@@H](c3ccccc3)CN2C)CC1

>  <score_type>  (9) 
oracle

>  <origin>  (9) 
autodockgpu

>  <m_score__min__energy>  (9) 
-8.6500000000000004

>  <m_primary>  (9) 
energy

>  <rmsd>  (9) 
2.2803904636994554

>  <m_score__min__rmsd>  (9) 
2.2803904636994554

>  <meeko>  (9) 
{"free_energy": -8.09, "intermolecular_energy": -10.18, "internal_energy": -1.81, "cluster_size": 21, "cluster_id": 2, "rank_in_cluster": 16}

>  <energy>  (9) 
-8.07

>  <cluster_rmsd>  (9) 
0.82

>  <cluster>  (9) 
1

$$$$

     RDKit          3D

 67 70  0  0  0  0  0  0  0  0999 V2000
  138.8060   68.2130  222.1080 C   0  0  0  0  0  0  0  0  0  0  0  0
  137.4180   68.1380  222.7470 C   0  0  0  0  0  0  0  0  0  0  0  0
  137.4150   68.9580  223.9700 C   0  0  0  0  0  0  0  0  0  0  0  0
  136.3350   68.8880  224.6670 O   0  0  0  0  0  0  0  0  0  0  0  0
  138.4050   69.7940  224.4760 N   0  0  0  0  0  0  0  0  0  0  0  0
  139.2000   69.2190  225.5570 C   0  0  0  0  0  0  0  0  0  0  0  0
  139.6180   70.0070  226.6160 C   0  0  0  0  0  0  0  0  0  0  0  0
  140.3710   69.3900  227.5900 C   0  0  0  0  0  0  0  0  0  0  0  0
  140.7180   68.0560  227.5570 C   0  0  0  0  0  0  0  0  0  0  0  0
  140.2820   67.3010  226.4820 C   0  0  0  0  0  0  0  0  0  0  0  0
  139.5180   67.8670  225.4680 C   0  0  0  0  0  0  0  0  0  0  0  0
  138.7610   71.1260  224.0780 C   0  0  0  0  0  0  0  0  0  0  0  0
  140.1660   71.1060  223.5090 C   0  0  0  0  0  0  0  0  0  0  0  0
  140.5790   72.3890  222.8520 C   0  0  0  0  0  0  0  0  0  0  0  0
  139.4400   73.0020  222.1890 N   0  0  0  0  0  0  0  0  0  0  0  0
  139.4930   74.3880  221.9510 C   0  0  0  0  0  0  0  0  0  0  0  0
  140.5380   74.9980  222.3280 O   0  0  0  0  0  0  0  0  0  0  0  0
  138.4440   75.2000  221.3020 C   0  0  0  0  0  0  0  0  0  0  0  0
  139.0970   76.4120  220.6930 C   0  0  1  0  0  0  0  0  0  0  0  0
  139.3200   77.5080  221.7290 C   0  0  0  0  0  0  0  0  0  0  0  0
  140.5390   78.1970  221.0970 C   0  0  1  0  0  0  0  0  0  0  0  0
  141.2140   79.1060  222.0350 C   0  0  0  0  0  0  0  0  0  0  0  0
  141.5010   78.6180  223.3030 C   0  0  0  0  0  0  0  0  0  0  0  0
  142.1420   79.4690  224.2060 C   0  0  0  0  0  0  0  0  0  0  0  0
  142.4780   80.7600  223.8400 C   0  0  0  0  0  0  0  0  0  0  0  0
  142.1930   81.2490  222.5770 C   0  0  0  0  0  0  0  0  0  0  0  0
  141.5540   80.3940  221.6840 C   0  0  0  0  0  0  0  0  0  0  0  0
  141.3460   77.0230  220.6540 C   0  0  0  0  0  0  0  0  0  0  0  0
  140.3750   76.0950  220.1450 N   0  0  0  0  0  0  0  0  0  0  0  0
  140.3680   76.1700  218.7090 C   0  0  0  0  0  0  0  0  0  0  0  0
  138.3460   72.1260  221.8350 C   0  0  0  0  0  0  0  0  0  0  0  0
  137.7300   71.7020  223.1750 C   0  0  0  0  0  0  0  0  0  0  0  0
  139.5712   68.2543  222.8971 H   0  0  0  0  0  0  0  0  0  0  0  0
  138.9709   67.3224  221.4837 H   0  0  0  0  0  0  0  0  0  0  0  0
  138.8739   69.1161  221.4837 H   0  0  0  0  0  0  0  0  0  0  0  0
  136.6653   68.5216  222.0426 H   0  0  0  0  0  0  0  0  0  0  0  0
  137.1764   67.0941  222.9957 H   0  0  0  0  0  0  0  0  0  0  0  0
  139.3609   71.0748  226.6764 H   0  0  0  0  0  0  0  0  0  0  0  0
  140.7148   69.9951  228.4418 H   0  0  0  0  0  0  0  0  0  0  0  0
  141.3218   67.6063  228.3590 H   0  0  0  0  0  0  0  0  0  0  0  0
  140.5447   66.2342  226.4291 H   0  0  0  0  0  0  0  0  0  0  0  0
  139.1735   67.2616  224.6167 H   0  0  0  0  0  0  0  0  0  0  0  0
  138.7791   71.8053  224.9430 H   0  0  0  0  0  0  0  0  0  0  0  0
  140.8680   70.8966  224.3296 H   0  0  0  0  0  0  0  0  0  0  0  0
  140.1810   70.3309  222.7286 H   0  0  0  0  0  0  0  0  0  0  0  0
  140.9699   73.0785  223.6147 H   0  0  0  0  0  0  0  0  0  0  0  0
  141.3575   72.1756  222.1048 H   0  0  0  0  0  0  0  0  0  0  0  0
  137.9486   74.6099  220.5169 H   0  0  0  0  0  0  0  0  0  0  0  0
  137.6888   75.5061  222.0409 H   0  0  0  0  0  0  0  0  0  0  0  0
  138.4121   76.7592  219.9054 H   0  0  0  0  0  0  0  0  0  0  0  0
  138.4568   78.1857  221.8040 H   0  0  0  0  0  0  0  0  0  0  0  0
  139.4590   77.1586  222.7627 H   0  0  0  0  0  0  0  0  0  0  0  0
  140.3106   78.8794  220.2650 H   0  0  0  0  0  0  0  0  0  0  0  0
  141.2312   77.5904  223.5881 H   0  0  0  0  0  0  0  0  0  0  0  0
  142.3819   79.1094  225.2175 H   0  0  0  0  0  0  0  0  0  0  0  0
  142.9825   81.4119  224.5684 H   0  0  0  0  0  0  0  0  0  0  0  0
  142.4618   82.2762  222.2895 H   0  0  0  0  0  0  0  0  0  0  0  0
  141.3145   80.7555  220.6731 H   0  0  0  0  0  0  0  0  0  0  0  0
  142.0569   77.3139  219.8666 H   0  0  0  0  0  0  0  0  0  0  0  0
  141.9479   76.5956  221.4695 H   0  0  0  0  0  0  0  0  0  0  0  0
  140.2699   77.2203  218.3972 H   0  0  0  0  0  0  0  0  0  0  0  0
  141.3086   75.7570  218.3157 H   0  0  0  0  0  0  0  0  0  0  0  0
  139.5201   75.5900  218.3157 H   0  0  0  0  0  0  0  0  0  0  0  0
  137.6060   72.6598  221.2206 H   0  0  0  0  0  0  0  0  0  0  0  0
  138.6821   71.2625  221.2422 H   0  0  0  0  0  0  0  0  0  0  0  0
  137.2799   72.5817  223.6582 H   0  0  0  0  0  0  0  0  0  0  0  0
  136.9659   70.9347  222.9818 H   0  0  0  0  0  0  0  0  0  0  0  0
  1  2  1  0
  2  3  1  0
  3  4  2  0
  3  5  1  0
  5  6  1  0
  6  7  2  0
  7  8  1  0
  8  9  2  0
  9 10  1  0
 10 11  2  0
  5 12  1  0
 12 13  1  0
 13 14  1  0
 14 15  1  0
 15 16  1  0
 16 17  2  0
 16 18  1  0
 18 19  1  0
 19 20  1  0
 20 21  1  0
 21 22  1  0
 22 23  2  0
 23 24  1  0
 24 25  2  0
 25 26  1  0
 26 27  2  0
 21 28  1  0
 28 29  1  0
 29 30  1  0
 15 31  1  0
 31 32  1  0
 11  6  1  0
 32 12  1  0
 29 19  1  0
 27 22  1  0
  1 33  1  0
  1 34  1  0
  1 35  1  0
  2 36  1  0
  2 37  1  0
  7 38  1  0
  8 39  1  0
  9 40  1  0
 10 41  1  0
 11 42  1  0
 12 43  1  0
 13 44  1  0
 13 45  1  0
 14 46  1  0
 14 47  1  0
 18 48  1  0
 18 49  1  0
 19 50  1  6
 20 51  1  0
 20 52  1  0
 21 53  1  6
 23 54  1  0
 24 55  1  0
 25 56  1  0
 26 57  1  0
 27 58  1  0
 28 59  1  0
 28 60  1  0
 30 61  1  0
 30 62  1  0
 30 63  1  0
 31 64  1  0
 31 65  1  0
 32 66  1  0
 32 67  1  0
M  END
>  <smiles>  (10) 
CCC(=O)N(c1ccccc1)C1CCN(C(=O)C[C@H]2C[C@@H](c3ccccc3)CN2C)CC1

>  <score_type>  (10) 
oracle

>  <origin>  (10) 
autodockgpu

>  <m_score__min__energy>  (10) 
-8.6500000000000004

>  <m_primary>  (10) 
energy

>  <rmsd>  (10) 
7.986726177339896

>  <m_score__min__rmsd>  (10) 
7.986726177339896

>  <meeko>  (10) 
{"free_energy": -8.38, "intermolecular_energy": -10.47, "internal_energy": -1.44, "cluster_size": 14, "cluster_id": 3, "rank_in_cluster": 5}

>  <energy>  (10) 
-7.9

>  <cluster_rmsd>  (10) 
0.91

>  <cluster>  (10) 
1

$$$$

     RDKit          3D

 67 70  0  0  0  0  0  0  0  0999 V2000
  145.6230   73.8450  216.0550 C   0  0  0  0  0  0  0  0  0  0  0  0
  145.0290   72.5180  216.5310 C   0  0  0  0  0  0  0  0  0  0  0  0
  145.3000   72.3670  217.9710 C   0  0  0  0  0  0  0  0  0  0  0  0
  146.3210   73.0210  218.4020 O   0  0  0  0  0  0  0  0  0  0  0  0
  144.6170   71.6200  218.9250 N   0  0  0  0  0  0  0  0  0  0  0  0
  145.0150   70.2180  219.0080 C   0  0  0  0  0  0  0  0  0  0  0  0
  145.9400   69.6980  218.1190 C   0  0  0  0  0  0  0  0  0  0  0  0
  146.2550   68.3650  218.2590 C   0  0  0  0  0  0  0  0  0  0  0  0
  145.7030   67.5460  219.2220 C   0  0  0  0  0  0  0  0  0  0  0  0
  144.7810   68.1030  220.0920 C   0  0  0  0  0  0  0  0  0  0  0  0
  144.4230   69.4420  220.0010 C   0  0  0  0  0  0  0  0  0  0  0  0
  143.5920   72.0350  219.8410 C   0  0  0  0  0  0  0  0  0  0  0  0
  143.4770   73.5460  219.7910 C   0  0  0  0  0  0  0  0  0  0  0  0
  142.2960   74.0940  220.5330 C   0  0  0  0  0  0  0  0  0  0  0  0
  141.1670   73.1860  220.4200 N   0  0  0  0  0  0  0  0  0  0  0  0
  140.1670   73.2630  221.4070 C   0  0  0  0  0  0  0  0  0  0  0  0
  140.3250   74.1270  222.3210 O   0  0  0  0  0  0  0  0  0  0  0  0
  138.9490   72.4310  221.4790 C   0  0  0  0  0  0  0  0  0  0  0  0
  139.2680   71.2010  222.2870 C   0  0  1  0  0  0  0  0  0  0  0  0
  140.1740   71.5260  223.4690 C   0  0  0  0  0  0  0  0  0  0  0  0
  139.7430   70.4020  224.4230 C   0  0  1  0  0  0  0  0  0  0  0  0
  140.2010   70.6360  225.8020 C   0  0  0  0  0  0  0  0  0  0  0  0
  140.8300   71.8440  226.0690 C   0  0  0  0  0  0  0  0  0  0  0  0
  141.2710   72.0810  227.3740 C   0  0  0  0  0  0  0  0  0  0  0  0
  141.0810   71.1350  228.3640 C   0  0  0  0  0  0  0  0  0  0  0  0
  140.4540   69.9300  228.1000 C   0  0  0  0  0  0  0  0  0  0  0  0
  140.0180   69.7010  226.7970 C   0  0  0  0  0  0  0  0  0  0  0  0
  138.2630   70.4040  224.2340 C   0  0  0  0  0  0  0  0  0  0  0  0
  138.0860   70.6100  222.8230 N   0  0  0  0  0  0  0  0  0  0  0  0
  137.7970   69.3450  222.2010 C   0  0  0  0  0  0  0  0  0  0  0  0
  141.1750   72.2780  219.2960 C   0  0  0  0  0  0  0  0  0  0  0  0
  142.3240   71.3030  219.5850 C   0  0  0  0  0  0  0  0  0  0  0  0
  145.8972   74.4576  216.9265 H   0  0  0  0  0  0  0  0  0  0  0  0
  146.5192   73.6488  215.4481 H   0  0  0  0  0  0  0  0  0  0  0  0
  144.8797   74.3827  215.4481 H   0  0  0  0  0  0  0  0  0  0  0  0
  143.9429   72.5153  216.3568 H   0  0  0  0  0  0  0  0  0  0  0  0
  145.4830   71.6842  215.9754 H   0  0  0  0  0  0  0  0  0  0  0  0
  146.4014   70.3201  217.3379 H   0  0  0  0  0  0  0  0  0  0  0  0
  146.9877   67.9288  217.5642 H   0  0  0  0  0  0  0  0  0  0  0  0
  145.9859   66.4856  219.2963 H   0  0  0  0  0  0  0  0  0  0  0  0
  144.3236   67.4735  220.8695 H   0  0  0  0  0  0  0  0  0  0  0  0
  143.6903   69.8783  220.6959 H   0  0  0  0  0  0  0  0  0  0  0  0
  143.8560   71.7711  220.8757 H   0  0  0  0  0  0  0  0  0  0  0  0
  144.3899   73.9767  220.2281 H   0  0  0  0  0  0  0  0  0  0  0  0
  143.3426   73.8194  218.7340 H   0  0  0  0  0  0  0  0  0  0  0  0
  142.5586   74.2169  221.5941 H   0  0  0  0  0  0  0  0  0  0  0  0
  142.0194   75.0664  220.0995 H   0  0  0  0  0  0  0  0  0  0  0  0
  138.1398   72.9962  221.9645 H   0  0  0  0  0  0  0  0  0  0  0  0
  138.6215   72.1476  220.4679 H   0  0  0  0  0  0  0  0  0  0  0  0
  139.7701   70.5084  221.5955 H   0  0  0  0  0  0  0  0  0  0  0  0
  141.2391   71.4549  223.2033 H   0  0  0  0  0  0  0  0  0  0  0  0
  140.0797   72.5463  223.8690 H   0  0  0  0  0  0  0  0  0  0  0  0
  140.1850   69.4166  224.2141 H   0  0  0  0  0  0  0  0  0  0  0  0
  140.9772   72.5929  225.2769 H   0  0  0  0  0  0  0  0  0  0  0  0
  141.7739   73.0290  227.6155 H   0  0  0  0  0  0  0  0  0  0  0  0
  141.4360   71.3447  229.3838 H   0  0  0  0  0  0  0  0  0  0  0  0
  140.3052   69.1799  228.8907 H   0  0  0  0  0  0  0  0  0  0  0  0
  139.5162   68.7520  226.5571 H   0  0  0  0  0  0  0  0  0  0  0  0
  137.8291   69.4422  224.5449 H   0  0  0  0  0  0  0  0  0  0  0  0
  137.7631   71.1759  224.8376 H   0  0  0  0  0  0  0  0  0  0  0  0
  137.6235   68.5856  222.9777 H   0  0  0  0  0  0  0  0  0  0  0  0
  136.8977   69.4412  221.5749 H   0  0  0  0  0  0  0  0  0  0  0  0
  138.6489   69.0411  221.5749 H   0  0  0  0  0  0  0  0  0  0  0  0
  140.2184   71.7394  219.2267 H   0  0  0  0  0  0  0  0  0  0  0  0
  141.3088   72.8041  218.3393 H   0  0  0  0  0  0  0  0  0  0  0  0
  142.0710   70.7012  220.4703 H   0  0  0  0  0  0  0  0  0  0  0  0
  142.4640   70.6561  218.7065 H   0  0  0  0  0  0  0  0  0  0  0  0
  1  2  1  0
  2  3  1  0
  3  4  2  0
  3  5  1  0
  5  6  1  0
  6  7  2  0
  7  8  1  0
  8  9  2  0
  9 10  1  0
 10 11  2  0
  5 12  1  0
 12 13  1  0
 13 14  1  0
 14 15  1  0
 15 16  1  0
 16 17  2  0
 16 18  1  0
 18 19  1  0
 19 20  1  0
 20 21  1  0
 21 22  1  0
 22 23  2  0
 23 24  1  0
 24 25  2  0
 25 26  1  0
 26 27  2  0
 21 28  1  0
 28 29  1  0
 29 30  1  0
 15 31  1  0
 31 32  1  0
 11  6  1  0
 32 12  1  0
 29 19  1  0
 27 22  1  0
  1 33  1  0
  1 34  1  0
  1 35  1  0
  2 36  1  0
  2 37  1  0
  7 38  1  0
  8 39  1  0
  9 40  1  0
 10 41  1  0
 11 42  1  0
 12 43  1  0
 13 44  1  0
 13 45  1  0
 14 46  1  0
 14 47  1  0
 18 48  1  0
 18 49  1  0
 19 50  1  6
 20 51  1  0
 20 52  1  0
 21 53  1  6
 23 54  1  0
 24 55  1  0
 25 56  1  0
 26 57  1  0
 27 58  1  0
 28 59  1  0
 28 60  1  0
 30 61  1  0
 30 62  1  0
 30 63  1  0
 31 64  1  0
 31 65  1  0
 32 66  1  0
 32 67  1  0
M  END
>  <smiles>  (11) 
CCC(=O)N(c1ccccc1)C1CCN(C(=O)C[C@H]2C[C@@H](c3ccccc3)CN2C)CC1

>  <score_type>  (11) 
oracle

>  <origin>  (11) 
autodockgpu

>  <m_score__min__energy>  (11) 
-8.6500000000000004

>  <m_primary>  (11) 
energy

>  <rmsd>  (11) 
3.0770040657158164

>  <m_score__min__rmsd>  (11) 
3.0770040657158164

>  <meeko>  (11) 
{"free_energy": -8.48, "intermolecular_energy": -10.57, "internal_energy": -1.52, "cluster_size": 11, "cluster_id": 1, "rank_in_cluster": 3}

>  <energy>  (11) 
-7.87

>  <cluster_rmsd>  (11) 
1.03

>  <cluster>  (11) 
1

$$$$

     RDKit          3D

 67 70  0  0  0  0  0  0  0  0999 V2000
  143.5190   72.4350  216.4980 C   0  0  0  0  0  0  0  0  0  0  0  0
  144.8330   73.0840  216.9370 C   0  0  0  0  0  0  0  0  0  0  0  0
  145.1830   72.5850  218.2780 C   0  0  0  0  0  0  0  0  0  0  0  0
  146.3030   73.0170  218.7430 O   0  0  0  0  0  0  0  0  0  0  0  0
  144.4810   71.7170  219.1090 N   0  0  0  0  0  0  0  0  0  0  0  0
  144.9200   70.3270  219.0540 C   0  0  0  0  0  0  0  0  0  0  0  0
  144.4200   69.3970  219.9500 C   0  0  0  0  0  0  0  0  0  0  0  0
  144.8910   68.1080  219.8360 C   0  0  0  0  0  0  0  0  0  0  0  0
  145.8170   67.7140  218.8930 C   0  0  0  0  0  0  0  0  0  0  0  0
  146.2940   68.6720  218.0150 C   0  0  0  0  0  0  0  0  0  0  0  0
  145.8560   69.9890  218.0800 C   0  0  0  0  0  0  0  0  0  0  0  0
  143.4030   71.9980  220.0140 C   0  0  0  0  0  0  0  0  0  0  0  0
  143.2260   73.5010  220.1090 C   0  0  0  0  0  0  0  0  0  0  0  0
  141.9930   73.9270  220.8480 C   0  0  0  0  0  0  0  0  0  0  0  0
  140.9090   72.9920  220.5950 N   0  0  0  0  0  0  0  0  0  0  0  0
  139.8670   72.9310  221.5380 C   0  0  0  0  0  0  0  0  0  0  0  0
  139.9510   73.7050  222.5400 O   0  0  0  0  0  0  0  0  0  0  0  0
  138.6840   72.0490  221.4730 C   0  0  0  0  0  0  0  0  0  0  0  0
  138.9330   70.8630  222.3660 C   0  0  1  0  0  0  0  0  0  0  0  0
  139.9500   71.1830  223.4550 C   0  0  0  0  0  0  0  0  0  0  0  0
  139.4760   70.1940  224.5300 C   0  0  1  0  0  0  0  0  0  0  0  0
  140.0520   70.4880  225.8510 C   0  0  0  0  0  0  0  0  0  0  0  0
  139.9220   69.5170  226.8350 C   0  0  0  0  0  0  0  0  0  0  0  0
  140.4630   69.7820  228.0950 C   0  0  0  0  0  0  0  0  0  0  0  0
  141.1080   70.9780  228.3480 C   0  0  0  0  0  0  0  0  0  0  0  0
  141.2390   71.9480  227.3690 C   0  0  0  0  0  0  0  0  0  0  0  0
  140.6970   71.6770  226.1160 C   0  0  0  0  0  0  0  0  0  0  0  0
  137.9940   70.3390  224.4340 C   0  0  0  0  0  0  0  0  0  0  0  0
  137.7380   70.4470  223.0240 N   0  0  0  0  0  0  0  0  0  0  0  0
  137.2790   69.1750  222.5360 C   0  0  0  0  0  0  0  0  0  0  0  0
  141.0020   72.2020  219.3880 C   0  0  0  0  0  0  0  0  0  0  0  0
  142.1790   71.2480  219.6310 C   0  0  0  0  0  0  0  0  0  0  0  0
  142.9373   72.1477  217.3863 H   0  0  0  0  0  0  0  0  0  0  0  0
  142.9397   73.1506  215.8960 H   0  0  0  0  0  0  0  0  0  0  0  0
  143.7352   71.5401  215.8960 H   0  0  0  0  0  0  0  0  0  0  0  0
  145.6303   72.8230  216.2255 H   0  0  0  0  0  0  0  0  0  0  0  0
  144.7198   74.1779  216.9626 H   0  0  0  0  0  0  0  0  0  0  0  0
  143.6815   69.6748  220.7165 H   0  0  0  0  0  0  0  0  0  0  0  0
  144.5075   67.3508  220.5357 H   0  0  0  0  0  0  0  0  0  0  0  0
  146.1653   66.6719  218.8403 H   0  0  0  0  0  0  0  0  0  0  0  0
  147.0330   68.3855  217.2522 H   0  0  0  0  0  0  0  0  0  0  0  0
  146.2391   70.7457  217.3796 H   0  0  0  0  0  0  0  0  0  0  0  0
  143.6358   71.6411  221.0281 H   0  0  0  0  0  0  0  0  0  0  0  0
  144.1013   73.9198  220.6272 H   0  0  0  0  0  0  0  0  0  0  0  0
  143.1231   73.8738  219.0792 H   0  0  0  0  0  0  0  0  0  0  0  0
  142.2065   73.9528  221.9268 H   0  0  0  0  0  0  0  0  0  0  0  0
  141.6935   74.9269  220.5009 H   0  0  0  0  0  0  0  0  0  0  0  0
  137.7932   72.5945  221.8179 H   0  0  0  0  0  0  0  0  0  0  0  0
  138.5136   71.7169  220.4383 H   0  0  0  0  0  0  0  0  0  0  0  0
  139.3120   70.0665  221.7087 H   0  0  0  0  0  0  0  0  0  0  0  0
  140.9803   70.9756  223.1301 H   0  0  0  0  0  0  0  0  0  0  0  0
  139.9898   72.2367  223.7682 H   0  0  0  0  0  0  0  0  0  0  0  0
  139.7999   69.1532  224.3820 H   0  0  0  0  0  0  0  0  0  0  0  0
  139.4079   68.5668  226.6282 H   0  0  0  0  0  0  0  0  0  0  0  0
  140.3749   69.0313  228.8942 H   0  0  0  0  0  0  0  0  0  0  0  0
  141.5261   71.1630  229.3485 H   0  0  0  0  0  0  0  0  0  0  0  0
  141.7529   72.8987  227.5740 H   0  0  0  0  0  0  0  0  0  0  0  0
  140.7855   72.4294  225.3184 H   0  0  0  0  0  0  0  0  0  0  0  0
  137.4882   69.4578  224.8554 H   0  0  0  0  0  0  0  0  0  0  0  0
  137.6195   71.2068  224.9967 H   0  0  0  0  0  0  0  0  0  0  0  0
  137.0424   68.5194  223.3870 H   0  0  0  0  0  0  0  0  0  0  0  0
  136.3769   69.3210  221.9238 H   0  0  0  0  0  0  0  0  0  0  0  0
  138.0665   68.7113  221.9238 H   0  0  0  0  0  0  0  0  0  0  0  0
  140.0730   71.6365  219.2229 H   0  0  0  0  0  0  0  0  0  0  0  0
  141.1522   72.8262  218.4948 H   0  0  0  0  0  0  0  0  0  0  0  0
  141.9160   70.5514  220.4407 H   0  0  0  0  0  0  0  0  0  0  0  0
  142.3821   70.6984  218.7001 H   0  0  0  0  0  0  0  0  0  0  0  0
  1  2  1  0
  2  3  1  0
  3  4  2  0
  3  5  1  0
  5  6  1  0
  6  7  2  0
  7  8  1  0
  8  9  2  0
  9 10  1  0
 10 11  2  0
  5 12  1  0
 12 13  1  0
 13 14  1  0
 14 15  1  0
 15 16  1  0
 16 17  2  0
 16 18  1  0
 18 19  1  0
 19 20  1  0
 20 21  1  0
 21 22  1  0
 22 23  2  0
 23 24  1  0
 24 25  2  0
 25 26  1  0
 26 27  2  0
 21 28  1  0
 28 29  1  0
 29 30  1  0
 15 31  1  0
 31 32  1  0
 11  6  1  0
 32 12  1  0
 29 19  1  0
 27 22  1  0
  1 33  1  0
  1 34  1  0
  1 35  1  0
  2 36  1  0
  2 37  1  0
  7 38  1  0
  8 39  1  0
  9 40  1  0
 10 41  1  0
 11 42  1  0
 12 43  1  0
 13 44  1  0
 13 45  1  0
 14 46  1  0
 14 47  1  0
 18 48  1  0
 18 49  1  0
 19 50  1  6
 20 51  1  0
 20 52  1  0
 21 53  1  6
 23 54  1  0
 24 55  1  0
 25 56  1  0
 26 57  1  0
 27 58  1  0
 28 59  1  0
 28 60  1  0
 30 61  1  0
 30 62  1  0
 30 63  1  0
 31 64  1  0
 31 65  1  0
 32 66  1  0
 32 67  1  0
M  END
>  <smiles>  (12) 
CCC(=O)N(c1ccccc1)C1CCN(C(=O)C[C@H]2C[C@@H](c3ccccc3)CN2C)CC1

>  <score_type>  (12) 
oracle

>  <origin>  (12) 
autodockgpu

>  <m_score__min__energy>  (12) 
-8.6500000000000004

>  <m_primary>  (12) 
energy

>  <rmsd>  (12) 
2.9522978661905785

>  <m_score__min__rmsd>  (12) 
2.9522978661905785

>  <meeko>  (12) 
{"free_energy": -8.27, "intermolecular_energy": -10.36, "internal_energy": -1.66, "cluster_size": 11, "cluster_id": 1, "rank_in_cluster": 5}

>  <energy>  (12) 
-8.62

>  <cluster_rmsd>  (12) 
0.0

>  <cluster>  (12) 
2

$$$$

     RDKit          3D

 67 70  0  0  0  0  0  0  0  0999 V2000
  146.0590   73.0470  221.7480 C   0  0  0  0  0  0  0  0  0  0  0  0
  146.4060   73.4090  220.3030 C   0  0  0  0  0  0  0  0  0  0  0  0
  145.5620   72.6100  219.3980 C   0  0  0  0  0  0  0  0  0  0  0  0
  145.9000   72.6580  218.1570 O   0  0  0  0  0  0  0  0  0  0  0  0
  144.4570   71.8180  219.6920 N   0  0  0  0  0  0  0  0  0  0  0  0
  144.5340   70.4490  219.1920 C   0  0  0  0  0  0  0  0  0  0  0  0
  144.4320   69.3770  220.0630 C   0  0  0  0  0  0  0  0  0  0  0  0
  144.5230   68.1180  219.5120 C   0  0  0  0  0  0  0  0  0  0  0  0
  144.7070   67.8850  218.1660 C   0  0  0  0  0  0  0  0  0  0  0  0
  144.8040   68.9810  217.3270 C   0  0  0  0  0  0  0  0  0  0  0  0
  144.7190   70.2770  217.8230 C   0  0  0  0  0  0  0  0  0  0  0  0
  143.2680   72.1520  220.4230 C   0  0  0  0  0  0  0  0  0  0  0  0
  143.0950   73.6580  220.4100 C   0  0  0  0  0  0  0  0  0  0  0  0
  141.7770   74.1280  220.9480 C   0  0  0  0  0  0  0  0  0  0  0  0
  140.7280   73.1830  220.5990 N   0  0  0  0  0  0  0  0  0  0  0  0
  139.5650   73.1780  221.3910 C   0  0  0  0  0  0  0  0  0  0  0  0
  139.5180   74.0050  222.3510 O   0  0  0  0  0  0  0  0  0  0  0  0
  138.3940   72.2970  221.2110 C   0  0  0  0  0  0  0  0  0  0  0  0
  138.5730   71.0900  222.0930 C   0  0  1  0  0  0  0  0  0  0  0  0
  139.6790   71.3040  223.1190 C   0  0  0  0  0  0  0  0  0  0  0  0
  139.1710   70.3670  224.2250 C   0  0  1  0  0  0  0  0  0  0  0  0
  139.8500   70.6000  225.5090 C   0  0  0  0  0  0  0  0  0  0  0  0
  139.5960   69.7020  226.5370 C   0  0  0  0  0  0  0  0  0  0  0  0
  140.2330   69.9090  227.7630 C   0  0  0  0  0  0  0  0  0  0  0  0
  141.0910   70.9790  227.9390 C   0  0  0  0  0  0  0  0  0  0  0  0
  141.3460   71.8750  226.9150 C   0  0  0  0  0  0  0  0  0  0  0  0
  140.7070   71.6620  225.6970 C   0  0  0  0  0  0  0  0  0  0  0  0
  137.7080   70.6620  224.2140 C   0  0  0  0  0  0  0  0  0  0  0  0
  137.3820   70.7970  222.8220 N   0  0  0  0  0  0  0  0  0  0  0  0
  136.7690   69.5790  222.3670 C   0  0  0  0  0  0  0  0  0  0  0  0
  140.9780   72.3280  219.4610 C   0  0  0  0  0  0  0  0  0  0  0  0
  142.1000   71.3850  219.9150 C   0  0  0  0  0  0  0  0  0  0  0  0
  146.6538   73.6675  222.4344 H   0  0  0  0  0  0  0  0  0  0  0  0
  144.9884   73.2281  221.9244 H   0  0  0  0  0  0  0  0  0  0  0  0
  146.2852   71.9851  221.9244 H   0  0  0  0  0  0  0  0  0  0  0  0
  146.2182   74.4797  220.1347 H   0  0  0  0  0  0  0  0  0  0  0  0
  147.4677   73.1965  220.1090 H   0  0  0  0  0  0  0  0  0  0  0  0
  144.2853   69.5241  221.1432 H   0  0  0  0  0  0  0  0  0  0  0  0
  144.4445   67.2502  220.1834 H   0  0  0  0  0  0  0  0  0  0  0  0
  144.7746   66.8604  217.7714 H   0  0  0  0  0  0  0  0  0  0  0  0
  144.9510   68.8241  216.2482 H   0  0  0  0  0  0  0  0  0  0  0  0
  144.7959   71.1444  217.1509 H   0  0  0  0  0  0  0  0  0  0  0  0
  143.3554   71.8516  221.4776 H   0  0  0  0  0  0  0  0  0  0  0  0
  143.8953   74.1028  221.0197 H   0  0  0  0  0  0  0  0  0  0  0  0
  143.1379   73.9728  219.3569 H   0  0  0  0  0  0  0  0  0  0  0  0
  141.8405   74.2128  222.0429 H   0  0  0  0  0  0  0  0  0  0  0  0
  141.5385   75.1082  220.5094 H   0  0  0  0  0  0  0  0  0  0  0  0
  137.4770   72.8336  221.4959 H   0  0  0  0  0  0  0  0  0  0  0  0
  138.3086   71.9890  220.1585 H   0  0  0  0  0  0  0  0  0  0  0  0
  138.8297   70.2598  221.4186 H   0  0  0  0  0  0  0  0  0  0  0  0
  140.6621   70.9935  222.7356 H   0  0  0  0  0  0  0  0  0  0  0  0
  139.8436   72.3479  223.4241 H   0  0  0  0  0  0  0  0  0  0  0  0
  139.3788   69.2988  224.0642 H   0  0  0  0  0  0  0  0  0  0  0  0
  138.9130   68.8523  226.3904 H   0  0  0  0  0  0  0  0  0  0  0  0
  140.0503   69.2143  228.5961 H   0  0  0  0  0  0  0  0  0  0  0  0
  141.5813   71.1212  228.9133 H   0  0  0  0  0  0  0  0  0  0  0  0
  142.0293   72.7250  227.0588 H   0  0  0  0  0  0  0  0  0  0  0  0
  140.8906   72.3579  224.8651 H   0  0  0  0  0  0  0  0  0  0  0  0
  137.1409   69.8362  224.6684 H   0  0  0  0  0  0  0  0  0  0  0  0
  137.4573   71.5631  224.7929 H   0  0  0  0  0  0  0  0  0  0  0  0
  136.4651   68.9751  223.2347 H   0  0  0  0  0  0  0  0  0  0  0  0
  135.8842   69.8187  221.7591 H   0  0  0  0  0  0  0  0  0  0  0  0
  137.4887   69.0112  221.7591 H   0  0  0  0  0  0  0  0  0  0  0  0
  140.0747   71.7572  219.1998 H   0  0  0  0  0  0  0  0  0  0  0  0
  141.2565   72.9020  218.5649 H   0  0  0  0  0  0  0  0  0  0  0  0
  141.7207   70.7344  220.7168 H   0  0  0  0  0  0  0  0  0  0  0  0
  142.4237   70.7846  219.0520 H   0  0  0  0  0  0  0  0  0  0  0  0
  1  2  1  0
  2  3  1  0
  3  4  2  0
  3  5  1  0
  5  6  1  0
  6  7  2  0
  7  8  1  0
  8  9  2  0
  9 10  1  0
 10 11  2  0
  5 12  1  0
 12 13  1  0
 13 14  1  0
 14 15  1  0
 15 16  1  0
 16 17  2  0
 16 18  1  0
 18 19  1  0
 19 20  1  0
 20 21  1  0
 21 22  1  0
 22 23  2  0
 23 24  1  0
 24 25  2  0
 25 26  1  0
 26 27  2  0
 21 28  1  0
 28 29  1  0
 29 30  1  0
 15 31  1  0
 31 32  1  0
 11  6  1  0
 32 12  1  0
 29 19  1  0
 27 22  1  0
  1 33  1  0
  1 34  1  0
  1 35  1  0
  2 36  1  0
  2 37  1  0
  7 38  1  0
  8 39  1  0
  9 40  1  0
 10 41  1  0
 11 42  1  0
 12 43  1  0
 13 44  1  0
 13 45  1  0
 14 46  1  0
 14 47  1  0
 18 48  1  0
 18 49  1  0
 19 50  1  6
 20 51  1  0
 20 52  1  0
 21 53  1  6
 23 54  1  0
 24 55  1  0
 25 56  1  0
 26 57  1  0
 27 58  1  0
 28 59  1  0
 28 60  1  0
 30 61  1  0
 30 62  1  0
 30 63  1  0
 31 64  1  0
 31 65  1  0
 32 66  1  0
 32 67  1  0
M  END
>  <smiles>  (13) 
CCC(=O)N(c1ccccc1)C1CCN(C(=O)C[C@H]2C[C@@H](c3ccccc3)CN2C)CC1

>  <score_type>  (13) 
oracle

>  <origin>  (13) 
autodockgpu

>  <m_score__min__energy>  (13) 
-8.6500000000000004

>  <m_primary>  (13) 
energy

>  <rmsd>  (13) 
3.013074802535592

>  <m_score__min__rmsd>  (13) 
3.013074802535592

>  <meeko>  (13) 
{"free_energy": -8.23, "intermolecular_energy": -10.32, "internal_energy": -1.73, "cluster_size": 11, "cluster_id": 1, "rank_in_cluster": 6}

>  <energy>  (13) 
-8.6

>  <cluster_rmsd>  (13) 
0.27

>  <cluster>  (13) 
2

$$$$

     RDKit          3D

 67 70  0  0  0  0  0  0  0  0999 V2000
  138.3160   67.7600  222.2940 C   0  0  0  0  0  0  0  0  0  0  0  0
  137.0680   68.5020  222.7750 C   0  0  0  0  0  0  0  0  0  0  0  0
  137.3540   69.1100  224.0850 C   0  0  0  0  0  0  0  0  0  0  0  0
  136.4360   68.9440  224.9720 O   0  0  0  0  0  0  0  0  0  0  0  0
  138.4660   69.8370  224.4980 N   0  0  0  0  0  0  0  0  0  0  0  0
  139.2300   69.2270  225.5800 C   0  0  0  0  0  0  0  0  0  0  0  0
  139.5480   67.8800  225.5430 C   0  0  0  0  0  0  0  0  0  0  0  0
  140.2640   67.3800  226.6080 C   0  0  0  0  0  0  0  0  0  0  0  0
  140.6680   68.1440  227.6830 C   0  0  0  0  0  0  0  0  0  0  0  0
  140.3310   69.4860  227.6840 C   0  0  0  0  0  0  0  0  0  0  0  0
  139.6100   70.0490  226.6380 C   0  0  0  0  0  0  0  0  0  0  0  0
  138.9700   71.0860  224.0020 C   0  0  0  0  0  0  0  0  0  0  0  0
  140.2250   70.8190  223.1930 C   0  0  0  0  0  0  0  0  0  0  0  0
  140.7300   72.0090  222.4350 C   0  0  0  0  0  0  0  0  0  0  0  0
  139.6140   72.8150  221.9670 N   0  0  0  0  0  0  0  0  0  0  0  0
  139.8630   74.1700  221.6800 C   0  0  0  0  0  0  0  0  0  0  0  0
  141.0490   74.5850  221.8470 O   0  0  0  0  0  0  0  0  0  0  0  0
  138.8720   75.1550  221.2030 C   0  0  0  0  0  0  0  0  0  0  0  0
  138.6640   76.1760  222.2900 C   0  0  1  0  0  0  0  0  0  0  0  0
  139.9460   76.9420  222.5940 C   0  0  0  0  0  0  0  0  0  0  0  0
  139.3330   78.2580  223.0950 C   0  0  1  0  0  0  0  0  0  0  0  0
  140.3210   79.3460  223.1570 C   0  0  0  0  0  0  0  0  0  0  0  0
  141.5440   79.0640  223.7500 C   0  0  0  0  0  0  0  0  0  0  0  0
  142.4930   80.0870  223.8170 C   0  0  0  0  0  0  0  0  0  0  0  0
  142.2150   81.3410  223.3060 C   0  0  0  0  0  0  0  0  0  0  0  0
  140.9960   81.6240  222.7130 C   0  0  0  0  0  0  0  0  0  0  0  0
  140.0560   80.5990  222.6510 C   0  0  0  0  0  0  0  0  0  0  0  0
  138.2230   78.4590  222.1170 C   0  0  0  0  0  0  0  0  0  0  0  0
  137.6840   77.1420  221.9160 N   0  0  0  0  0  0  0  0  0  0  0  0
  136.4830   77.0080  222.6960 C   0  0  0  0  0  0  0  0  0  0  0  0
  138.3390   72.1460  221.8390 C   0  0  0  0  0  0  0  0  0  0  0  0
  137.9100   71.8370  223.2800 C   0  0  0  0  0  0  0  0  0  0  0  0
  138.8955   67.4155  223.1632 H   0  0  0  0  0  0  0  0  0  0  0  0
  138.0160   66.8935  221.6865 H   0  0  0  0  0  0  0  0  0  0  0  0
  138.9340   68.4375  221.6865 H   0  0  0  0  0  0  0  0  0  0  0  0
  136.8034   69.2879  222.0523 H   0  0  0  0  0  0  0  0  0  0  0  0
  136.2262   67.7995  222.8643 H   0  0  0  0  0  0  0  0  0  0  0  0
  139.2431   67.2392  224.7025 H   0  0  0  0  0  0  0  0  0  0  0  0
  140.5283   66.3122  226.6009 H   0  0  0  0  0  0  0  0  0  0  0  0
  141.2392   67.7010  228.5121 H   0  0  0  0  0  0  0  0  0  0  0  0
  140.6397   70.1192  228.5289 H   0  0  0  0  0  0  0  0  0  0  0  0
  139.3461   71.1169  226.6455 H   0  0  0  0  0  0  0  0  0  0  0  0
  139.2610   71.7502  224.8291 H   0  0  0  0  0  0  0  0  0  0  0  0
  141.0159   70.4874  223.8819 H   0  0  0  0  0  0  0  0  0  0  0  0
  139.9638   70.0550  222.4459 H   0  0  0  0  0  0  0  0  0  0  0  0
  141.3663   72.6171  223.0948 H   0  0  0  0  0  0  0  0  0  0  0  0
  141.3119   71.6627  221.5681 H   0  0  0  0  0  0  0  0  0  0  0  0
  139.2457   75.6493  220.2942 H   0  0  0  0  0  0  0  0  0  0  0  0
  137.9221   74.6541  220.9649 H   0  0  0  0  0  0  0  0  0  0  0  0
  138.3349   75.6104  223.1742 H   0  0  0  0  0  0  0  0  0  0  0  0
  140.5474   76.4463  223.3703 H   0  0  0  0  0  0  0  0  0  0  0  0
  140.6474   77.0394  221.7522 H   0  0  0  0  0  0  0  0  0  0  0  0
  138.9710   78.2388  224.1336 H   0  0  0  0  0  0  0  0  0  0  0  0
  141.7596   78.0644  224.1553 H   0  0  0  0  0  0  0  0  0  0  0  0
  143.4712   79.8927  224.2810 H   0  0  0  0  0  0  0  0  0  0  0  0
  142.9780   82.1306  223.3718 H   0  0  0  0  0  0  0  0  0  0  0  0
  140.7784   82.6224  222.3057 H   0  0  0  0  0  0  0  0  0  0  0  0
  139.0782   80.7947  222.1867 H   0  0  0  0  0  0  0  0  0  0  0  0
  137.4585   79.1343  222.5287 H   0  0  0  0  0  0  0  0  0  0  0  0
  138.5673   78.9198  221.1794 H   0  0  0  0  0  0  0  0  0  0  0  0
  136.7358   77.0362  223.7662 H   0  0  0  0  0  0  0  0  0  0  0  0
  135.7978   77.8353  222.4592 H   0  0  0  0  0  0  0  0  0  0  0  0
  135.9969   76.0501  222.4592 H   0  0  0  0  0  0  0  0  0  0  0  0
  137.6049   72.8023  221.3487 H   0  0  0  0  0  0  0  0  0  0  0  0
  138.4077   71.2372  221.2230 H   0  0  0  0  0  0  0  0  0  0  0  0
  137.7157   72.7822  223.8080 H   0  0  0  0  0  0  0  0  0  0  0  0
  137.0009   71.2184  223.2499 H   0  0  0  0  0  0  0  0  0  0  0  0
  1  2  1  0
  2  3  1  0
  3  4  2  0
  3  5  1  0
  5  6  1  0
  6  7  2  0
  7  8  1  0
  8  9  2  0
  9 10  1  0
 10 11  2  0
  5 12  1  0
 12 13  1  0
 13 14  1  0
 14 15  1  0
 15 16  1  0
 16 17  2  0
 16 18  1  0
 18 19  1  0
 19 20  1  0
 20 21  1  0
 21 22  1  0
 22 23  2  0
 23 24  1  0
 24 25  2  0
 25 26  1  0
 26 27  2  0
 21 28  1  0
 28 29  1  0
 29 30  1  0
 15 31  1  0
 31 32  1  0
 11  6  1  0
 32 12  1  0
 29 19  1  0
 27 22  1  0
  1 33  1  0
  1 34  1  0
  1 35  1  0
  2 36  1  0
  2 37  1  0
  7 38  1  0
  8 39  1  0
  9 40  1  0
 10 41  1  0
 11 42  1  0
 12 43  1  0
 13 44  1  0
 13 45  1  0
 14 46  1  0
 14 47  1  0
 18 48  1  0
 18 49  1  0
 19 50  1  1
 20 51  1  0
 20 52  1  0
 21 53  1  1
 23 54  1  0
 24 55  1  0
 25 56  1  0
 26 57  1  0
 27 58  1  0
 28 59  1  0
 28 60  1  0
 30 61  1  0
 30 62  1  0
 30 63  1  0
 31 64  1  0
 31 65  1  0
 32 66  1  0
 32 67  1  0
M  END
>  <smiles>  (14) 
CCC(=O)N(c1ccccc1)C1CCN(C(=O)C[C@H]2C[C@@H](c3ccccc3)CN2C)CC1

>  <score_type>  (14) 
oracle

>  <origin>  (14) 
autodockgpu

>  <m_score__min__energy>  (14) 
-8.6500000000000004

>  <m_primary>  (14) 
energy

>  <rmsd>  (14) 
7.946703904792657

>  <m_score__min__rmsd>  (14) 
7.946703904792657

>  <meeko>  (14) 
{"free_energy": -8.48, "intermolecular_energy": -10.57, "internal_energy": -1.67, "cluster_size": 14, "cluster_id": 3, "rank_in_cluster": 2}

>  <energy>  (14) 
-8.56

>  <cluster_rmsd>  (14) 
0.63

>  <cluster>  (14) 
2

$$$$

     RDKit          3D

 67 70  0  0  0  0  0  0  0  0999 V2000
  142.8650   80.9010  217.8500 C   0  0  0  0  0  0  0  0  0  0  0  0
  141.7890   81.2510  218.8800 C   0  0  0  0  0  0  0  0  0  0  0  0
  140.9770   80.0500  219.1430 C   0  0  0  0  0  0  0  0  0  0  0  0
  140.0930   79.7860  218.2460 O   0  0  0  0  0  0  0  0  0  0  0  0
  141.0280   79.1680  220.2180 N   0  0  0  0  0  0  0  0  0  0  0  0
  141.3190   79.7880  221.5060 C   0  0  0  0  0  0  0  0  0  0  0  0
  140.3860   80.6070  222.1180 C   0  0  0  0  0  0  0  0  0  0  0  0
  140.7420   81.1590  223.3290 C   0  0  0  0  0  0  0  0  0  0  0  0
  141.9580   80.9380  223.9410 C   0  0  0  0  0  0  0  0  0  0  0  0
  142.8650   80.1130  223.2980 C   0  0  0  0  0  0  0  0  0  0  0  0
  142.5630   79.5270  222.0760 C   0  0  0  0  0  0  0  0  0  0  0  0
  140.8220   77.7480  220.2380 C   0  0  0  0  0  0  0  0  0  0  0  0
  142.1710   77.0590  220.1680 C   0  0  0  0  0  0  0  0  0  0  0  0
  142.1160   75.5800  220.4040 C   0  0  0  0  0  0  0  0  0  0  0  0
  141.0900   75.2660  221.3850 N   0  0  0  0  0  0  0  0  0  0  0  0
  140.5590   73.9630  221.3800 C   0  0  0  0  0  0  0  0  0  0  0  0
  141.0230   73.1560  220.5190 O   0  0  0  0  0  0  0  0  0  0  0  0
  139.5110   73.4470  222.2830 C   0  0  0  0  0  0  0  0  0  0  0  0
  139.8300   72.0100  222.6000 C   0  0  1  0  0  0  0  0  0  0  0  0
  140.5500   71.8770  223.9370 C   0  0  0  0  0  0  0  0  0  0  0  0
  140.1010   70.4580  224.3160 C   0  0  1  0  0  0  0  0  0  0  0  0
  140.3600   70.1510  225.7310 C   0  0  0  0  0  0  0  0  0  0  0  0
  140.2590   68.8230  226.1250 C   0  0  0  0  0  0  0  0  0  0  0  0
  140.5030   68.5150  227.4660 C   0  0  0  0  0  0  0  0  0  0  0  0
  140.8340   69.5090  228.3680 C   0  0  0  0  0  0  0  0  0  0  0  0
  140.9350   70.8330  227.9780 C   0  0  0  0  0  0  0  0  0  0  0  0
  140.6910   71.1320  226.6410 C   0  0  0  0  0  0  0  0  0  0  0  0
  138.6610   70.4880  223.9240 C   0  0  0  0  0  0  0  0  0  0  0  0
  138.6450   71.2210  222.6880 N   0  0  0  0  0  0  0  0  0  0  0  0
  138.5460   70.2900  221.5970 C   0  0  0  0  0  0  0  0  0  0  0  0
  140.7040   76.3310  222.2830 C   0  0  0  0  0  0  0  0  0  0  0  0
  139.9780   77.3510  221.3950 C   0  0  0  0  0  0  0  0  0  0  0  0
  143.7867   80.6012  218.3701 H   0  0  0  0  0  0  0  0  0  0  0  0
  142.5131   80.0710  217.2197 H   0  0  0  0  0  0  0  0  0  0  0  0
  143.0687   81.7792  217.2197 H   0  0  0  0  0  0  0  0  0  0  0  0
  142.2652   81.5872  219.8128 H   0  0  0  0  0  0  0  0  0  0  0  0
  141.1493   82.0582  218.4936 H   0  0  0  0  0  0  0  0  0  0  0  0
  139.4066   80.8076  221.6592 H   0  0  0  0  0  0  0  0  0  0  0  0
  140.0163   81.8121  223.8358 H   0  0  0  0  0  0  0  0  0  0  0  0
  142.1994   81.4022  224.9086 H   0  0  0  0  0  0  0  0  0  0  0  0
  143.8424   79.9183  223.7636 H   0  0  0  0  0  0  0  0  0  0  0  0
  143.2883   78.8726  221.5703 H   0  0  0  0  0  0  0  0  0  0  0  0
  140.2514   77.4193  219.3569 H   0  0  0  0  0  0  0  0  0  0  0  0
  142.5966   77.2337  219.1688 H   0  0  0  0  0  0  0  0  0  0  0  0
  142.7872   77.4858  220.9730 H   0  0  0  0  0  0  0  0  0  0  0  0
  141.8826   75.0695  219.4580 H   0  0  0  0  0  0  0  0  0  0  0  0
  143.0911   75.2405  220.7833 H   0  0  0  0  0  0  0  0  0  0  0  0
  139.4942   74.0382  223.2105 H   0  0  0  0  0  0  0  0  0  0  0  0
  138.5245   73.5204  221.8019 H   0  0  0  0  0  0  0  0  0  0  0  0
  140.4722   71.6565  221.7799 H   0  0  0  0  0  0  0  0  0  0  0  0
  141.6421   71.9474  223.8254 H   0  0  0  0  0  0  0  0  0  0  0  0
  140.3195   72.6580  224.6766 H   0  0  0  0  0  0  0  0  0  0  0  0
  140.6491   69.6458  223.8161 H   0  0  0  0  0  0  0  0  0  0  0  0
  139.9947   68.0367  225.4026 H   0  0  0  0  0  0  0  0  0  0  0  0
  140.4310   67.4717  227.8072 H   0  0  0  0  0  0  0  0  0  0  0  0
  141.0212   69.2418  229.4185 H   0  0  0  0  0  0  0  0  0  0  0  0
  141.1987   71.6208  228.6990 H   0  0  0  0  0  0  0  0  0  0  0  0
  140.7640   72.1760  226.3023 H   0  0  0  0  0  0  0  0  0  0  0  0
  138.2757   69.4682  223.7773 H   0  0  0  0  0  0  0  0  0  0  0  0
  138.0251   70.9488  224.6943 H   0  0  0  0  0  0  0  0  0  0  0  0
  138.4375   69.2699  221.9941 H   0  0  0  0  0  0  0  0  0  0  0  0
  137.6693   70.5388  220.9810 H   0  0  0  0  0  0  0  0  0  0  0  0
  139.4555   70.3489  220.9810 H   0  0  0  0  0  0  0  0  0  0  0  0
  140.0316   75.9520  223.0668 H   0  0  0  0  0  0  0  0  0  0  0  0
  141.5694   76.7723  222.7990 H   0  0  0  0  0  0  0  0  0  0  0  0
  139.0448   76.9033  221.0224 H   0  0  0  0  0  0  0  0  0  0  0  0
  139.7634   78.2474  221.9954 H   0  0  0  0  0  0  0  0  0  0  0  0
  1  2  1  0
  2  3  1  0
  3  4  2  0
  3  5  1  0
  5  6  1  0
  6  7  2  0
  7  8  1  0
  8  9  2  0
  9 10  1  0
 10 11  2  0
  5 12  1  0
 12 13  1  0
 13 14  1  0
 14 15  1  0
 15 16  1  0
 16 17  2  0
 16 18  1  0
 18 19  1  0
 19 20  1  0
 20 21  1  0
 21 22  1  0
 22 23  2  0
 23 24  1  0
 24 25  2  0
 25 26  1  0
 26 27  2  0
 21 28  1  0
 28 29  1  0
 29 30  1  0
 15 31  1  0
 31 32  1  0
 11  6  1  0
 32 12  1  0
 29 19  1  0
 27 22  1  0
  1 33  1  0
  1 34  1  0
  1 35  1  0
  2 36  1  0
  2 37  1  0
  7 38  1  0
  8 39  1  0
  9 40  1  0
 10 41  1  0
 11 42  1  0
 12 43  1  0
 13 44  1  0
 13 45  1  0
 14 46  1  0
 14 47  1  0
 18 48  1  0
 18 49  1  0
 19 50  1  6
 20 51  1  0
 20 52  1  0
 21 53  1  6
 23 54  1  0
 24 55  1  0
 25 56  1  0
 26 57  1  0
 27 58  1  0
 28 59  1  0
 28 60  1  0
 30 61  1  0
 30 62  1  0
 30 63  1  0
 31 64  1  0
 31 65  1  0
 32 66  1  0
 32 67  1  0
M  END
>  <smiles>  (15) 
CCC(=O)N(c1ccccc1)C1CCN(C(=O)C[C@H]2C[C@@H](c3ccccc3)CN2C)CC1

>  <score_type>  (15) 
oracle

>  <origin>  (15) 
autodockgpu

>  <m_score__min__energy>  (15) 
-8.6500000000000004

>  <m_primary>  (15) 
energy

>  <rmsd>  (15) 
3.5135367149138244

>  <m_score__min__rmsd>  (15) 
3.5135367149138244

>  <meeko>  (15) 
{"free_energy": -8.39, "intermolecular_energy": -10.47, "internal_energy": -1.68, "cluster_size": 21, "cluster_id": 2, "rank_in_cluster": 6}

>  <energy>  (15) 
-8.54

>  <cluster_rmsd>  (15) 
0.39

>  <cluster>  (15) 
2

$$$$

     RDKit          3D

 67 70  0  0  0  0  0  0  0  0999 V2000
  141.4780   81.6120  218.7840 C   0  0  0  0  0  0  0  0  0  0  0  0
  140.4500   80.5110  218.5130 C   0  0  0  0  0  0  0  0  0  0  0  0
  139.9720   79.9820  219.8010 C   0  0  0  0  0  0  0  0  0  0  0  0
  138.9280   80.5680  220.2740 O   0  0  0  0  0  0  0  0  0  0  0  0
  140.4850   78.9470  220.5760 N   0  0  0  0  0  0  0  0  0  0  0  0
  141.2140   79.3750  221.7650 C   0  0  0  0  0  0  0  0  0  0  0  0
  142.3670   80.1320  221.6470 C   0  0  0  0  0  0  0  0  0  0  0  0
  143.0000   80.4870  222.8180 C   0  0  0  0  0  0  0  0  0  0  0  0
  142.5460   80.1310  224.0700 C   0  0  0  0  0  0  0  0  0  0  0  0
  141.3900   79.3740  224.1470 C   0  0  0  0  0  0  0  0  0  0  0  0
  140.7070   78.9850  223.0020 C   0  0  0  0  0  0  0  0  0  0  0  0
  140.3870   77.5290  220.3780 C   0  0  0  0  0  0  0  0  0  0  0  0
  141.7760   76.9270  220.4720 C   0  0  0  0  0  0  0  0  0  0  0  0
  141.7930   75.4290  220.5040 C   0  0  0  0  0  0  0  0  0  0  0  0
  140.6360   74.9300  221.2310 N   0  0  0  0  0  0  0  0  0  0  0  0
  140.2160   73.6140  220.9630 C   0  0  0  0  0  0  0  0  0  0  0  0
  140.8840   72.9590  220.1080 O   0  0  0  0  0  0  0  0  0  0  0  0
  139.0670   72.9250  221.5840 C   0  0  0  0  0  0  0  0  0  0  0  0
  139.5660   71.6490  222.2080 C   0  0  1  0  0  0  0  0  0  0  0  0
  140.3200   71.9170  223.5050 C   0  0  0  0  0  0  0  0  0  0  0  0
  140.0550   70.5840  224.2210 C   0  0  1  0  0  0  0  0  0  0  0  0
  140.3750   70.6480  225.6550 C   0  0  0  0  0  0  0  0  0  0  0  0
  140.2470   69.4770  226.3910 C   0  0  0  0  0  0  0  0  0  0  0  0
  140.5470   69.5220  227.7550 C   0  0  0  0  0  0  0  0  0  0  0  0
  140.9580   70.7010  228.3470 C   0  0  0  0  0  0  0  0  0  0  0  0
  141.0860   71.8700  227.6160 C   0  0  0  0  0  0  0  0  0  0  0  0
  140.7860   71.8170  226.2580 C   0  0  0  0  0  0  0  0  0  0  0  0
  138.6170   70.3530  223.8970 C   0  0  0  0  0  0  0  0  0  0  0  0
  138.4890   70.7700  222.5290 N   0  0  0  0  0  0  0  0  0  0  0  0
  138.4870   69.6050  221.6860 C   0  0  0  0  0  0  0  0  0  0  0  0
  140.0180   75.8390  222.1690 C   0  0  0  0  0  0  0  0  0  0  0  0
  139.3850   76.9330  221.2990 C   0  0  0  0  0  0  0  0  0  0  0  0
  141.5990   81.7415  219.8696 H   0  0  0  0  0  0  0  0  0  0  0  0
  142.4434   81.3299  218.3386 H   0  0  0  0  0  0  0  0  0  0  0  0
  141.1305   82.5558  218.3386 H   0  0  0  0  0  0  0  0  0  0  0  0
  139.6034   80.9266  217.9468 H   0  0  0  0  0  0  0  0  0  0  0  0
  140.9122   79.7040  217.9255 H   0  0  0  0  0  0  0  0  0  0  0  0
  142.7591   80.4356  220.6651 H   0  0  0  0  0  0  0  0  0  0  0  0
  143.9188   81.0880  222.7502 H   0  0  0  0  0  0  0  0  0  0  0  0
  143.0850   80.4386  224.9782 H   0  0  0  0  0  0  0  0  0  0  0  0
  141.0051   79.0750  225.1331 H   0  0  0  0  0  0  0  0  0  0  0  0
  139.7884   78.3838  223.0705 H   0  0  0  0  0  0  0  0  0  0  0  0
  140.0071   77.2959  219.3723 H   0  0  0  0  0  0  0  0  0  0  0  0
  142.3567   77.2604  219.5993 H   0  0  0  0  0  0  0  0  0  0  0  0
  142.2061   77.2694  221.4248 H   0  0  0  0  0  0  0  0  0  0  0  0
  141.7695   75.0431  219.4742 H   0  0  0  0  0  0  0  0  0  0  0  0
  142.7090   75.0907  221.0104 H   0  0  0  0  0  0  0  0  0  0  0  0
  138.6205   73.5679  222.3569 H   0  0  0  0  0  0  0  0  0  0  0  0
  138.3013   72.7036  220.8260 H   0  0  0  0  0  0  0  0  0  0  0  0
  140.2324   71.1902  221.4627 H   0  0  0  0  0  0  0  0  0  0  0  0
  141.3931   72.0846  223.3305 H   0  0  0  0  0  0  0  0  0  0  0  0
  140.0085   72.8177  224.0543 H   0  0  0  0  0  0  0  0  0  0  0  0
  140.6903   69.7462  223.8978 H   0  0  0  0  0  0  0  0  0  0  0  0
  139.9191   68.5416  225.9141 H   0  0  0  0  0  0  0  0  0  0  0  0
  140.4551   68.6101  228.3633 H   0  0  0  0  0  0  0  0  0  0  0  0
  141.1885   70.7111  229.4225 H   0  0  0  0  0  0  0  0  0  0  0  0
  141.4129   72.8066  228.0913 H   0  0  0  0  0  0  0  0  0  0  0  0
  140.8792   72.7300  225.6515 H   0  0  0  0  0  0  0  0  0  0  0  0
  138.3593   69.2891  224.0056 H   0  0  0  0  0  0  0  0  0  0  0  0
  137.9417   70.9034  224.5686 H   0  0  0  0  0  0  0  0  0  0  0  0
  138.4854   68.7000  222.3113 H   0  0  0  0  0  0  0  0  0  0  0  0
  137.5889   69.6135  221.0510 H   0  0  0  0  0  0  0  0  0  0  0  0
  139.3852   69.6104  221.0510 H   0  0  0  0  0  0  0  0  0  0  0  0
  139.2485   75.3211  222.7603 H   0  0  0  0  0  0  0  0  0  0  0  0
  140.7429   76.2488  222.8877 H   0  0  0  0  0  0  0  0  0  0  0  0
  138.5688   76.4938  220.7067 H   0  0  0  0  0  0  0  0  0  0  0  0
  139.0006   77.7254  221.9580 H   0  0  0  0  0  0  0  0  0  0  0  0
  1  2  1  0
  2  3  1  0
  3  4  2  0
  3  5  1  0
  5  6  1  0
  6  7  2  0
  7  8  1  0
  8  9  2  0
  9 10  1  0
 10 11  2  0
  5 12  1  0
 12 13  1  0
 13 14  1  0
 14 15  1  0
 15 16  1  0
 16 17  2  0
 16 18  1  0
 18 19  1  0
 19 20  1  0
 20 21  1  0
 21 22  1  0
 22 23  2  0
 23 24  1  0
 24 25  2  0
 25 26  1  0
 26 27  2  0
 21 28  1  0
 28 29  1  0
 29 30  1  0
 15 31  1  0
 31 32  1  0
 11  6  1  0
 32 12  1  0
 29 19  1  0
 27 22  1  0
  1 33  1  0
  1 34  1  0
  1 35  1  0
  2 36  1  0
  2 37  1  0
  7 38  1  0
  8 39  1  0
  9 40  1  0
 10 41  1  0
 11 42  1  0
 12 43  1  0
 13 44  1  0
 13 45  1  0
 14 46  1  0
 14 47  1  0
 18 48  1  0
 18 49  1  0
 19 50  1  6
 20 51  1  0
 20 52  1  0
 21 53  1  6
 23 54  1  0
 24 55  1  0
 25 56  1  0
 26 57  1  0
 27 58  1  0
 28 59  1  0
 28 60  1  0
 30 61  1  0
 30 62  1  0
 30 63  1  0
 31 64  1  0
 31 65  1  0
 32 66  1  0
 32 67  1  0
M  END
>  <smiles>  (16) 
CCC(=O)N(c1ccccc1)C1CCN(C(=O)C[C@H]2C[C@@H](c3ccccc3)CN2C)CC1

>  <score_type>  (16) 
oracle

>  <origin>  (16) 
autodockgpu

>  <m_score__min__energy>  (16) 
-8.6500000000000004

>  <m_primary>  (16) 
energy

>  <rmsd>  (16) 
3.2335449261512945

>  <m_score__min__rmsd>  (16) 
3.2335449261512945

>  <meeko>  (16) 
{"free_energy": -8.16, "intermolecular_energy": -10.25, "internal_energy": -1.62, "cluster_size": 21, "cluster_id": 2, "rank_in_cluster": 11}

>  <energy>  (16) 
-8.45

>  <cluster_rmsd>  (16) 
0.45

>  <cluster>  (16) 
2

$$$$

     RDKit          3D

 67 70  0  0  0  0  0  0  0  0999 V2000
  137.7470   67.7480  222.2590 C   0  0  0  0  0  0  0  0  0  0  0  0
  136.6660   68.6120  222.9100 C   0  0  0  0  0  0  0  0  0  0  0  0
  137.2280   69.2500  224.1120 C   0  0  0  0  0  0  0  0  0  0  0  0
  136.4390   69.2860  225.1270 O   0  0  0  0  0  0  0  0  0  0  0  0
  138.4830   69.8200  224.3040 N   0  0  0  0  0  0  0  0  0  0  0  0
  139.2600   69.2390  225.3940 C   0  0  0  0  0  0  0  0  0  0  0  0
  139.4990   67.8760  225.4360 C   0  0  0  0  0  0  0  0  0  0  0  0
  140.2340   67.4080  226.5030 C   0  0  0  0  0  0  0  0  0  0  0  0
  140.7280   68.2160  227.5050 C   0  0  0  0  0  0  0  0  0  0  0  0
  140.4670   69.5730  227.4280 C   0  0  0  0  0  0  0  0  0  0  0  0
  139.7320   70.1060  226.3760 C   0  0  0  0  0  0  0  0  0  0  0  0
  139.1200   70.8810  223.5770 C   0  0  0  0  0  0  0  0  0  0  0  0
  139.9710   70.2760  222.4770 C   0  0  0  0  0  0  0  0  0  0  0  0
  140.5170   71.2770  221.5040 C   0  0  0  0  0  0  0  0  0  0  0  0
  139.5560   72.3480  221.2960 N   0  0  0  0  0  0  0  0  0  0  0  0
  140.0470   73.5820  220.8300 C   0  0  0  0  0  0  0  0  0  0  0  0
  141.2950   73.6640  220.6220 O   0  0  0  0  0  0  0  0  0  0  0  0
  139.2450   74.7930  220.5630 C   0  0  0  0  0  0  0  0  0  0  0  0
  139.2560   75.6470  221.8020 C   0  0  1  0  0  0  0  0  0  0  0  0
  140.5560   76.4310  221.9320 C   0  0  0  0  0  0  0  0  0  0  0  0
  140.0370   77.6340  222.7330 C   0  0  1  0  0  0  0  0  0  0  0  0
  140.9900   78.7540  222.7380 C   0  0  0  0  0  0  0  0  0  0  0  0
  141.6220   79.0490  223.9380 C   0  0  0  0  0  0  0  0  0  0  0  0
  142.5310   80.1110  223.9590 C   0  0  0  0  0  0  0  0  0  0  0  0
  142.7880   80.8410  222.8140 C   0  0  0  0  0  0  0  0  0  0  0  0
  142.1590   80.5480  221.6160 C   0  0  0  0  0  0  0  0  0  0  0  0
  141.2550   79.4900  221.6030 C   0  0  0  0  0  0  0  0  0  0  0  0
  138.7370   77.9060  222.0520 C   0  0  0  0  0  0  0  0  0  0  0  0
  138.1960   76.6020  221.7860 N   0  0  0  0  0  0  0  0  0  0  0  0
  137.1970   76.3020  222.7750 C   0  0  0  0  0  0  0  0  0  0  0  0
  138.1740   72.0460  221.5900 C   0  0  0  0  0  0  0  0  0  0  0  0
  138.1220   71.8810  223.1150 C   0  0  0  0  0  0  0  0  0  0  0  0
  138.3510   67.2652  223.0414 H   0  0  0  0  0  0  0  0  0  0  0  0
  137.2730   66.9771  221.6337 H   0  0  0  0  0  0  0  0  0  0  0  0
  138.3945   68.3802  221.6337 H   0  0  0  0  0  0  0  0  0  0  0  0
  136.3347   69.3855  222.2016 H   0  0  0  0  0  0  0  0  0  0  0  0
  135.8045   67.9866  223.1871 H   0  0  0  0  0  0  0  0  0  0  0  0
  139.1204   67.1997  224.6554 H   0  0  0  0  0  0  0  0  0  0  0  0
  140.4383   66.3286  226.5587 H   0  0  0  0  0  0  0  0  0  0  0  0
  141.3104   67.7959  228.3383 H   0  0  0  0  0  0  0  0  0  0  0  0
  140.8483   70.2417  228.2138 H   0  0  0  0  0  0  0  0  0  0  0  0
  139.5282   71.1855  226.3204 H   0  0  0  0  0  0  0  0  0  0  0  0
  139.7997   71.4519  224.2266 H   0  0  0  0  0  0  0  0  0  0  0  0
  140.8175   69.7514  222.9443 H   0  0  0  0  0  0  0  0  0  0  0  0
  139.3167   69.6020  221.9046 H   0  0  0  0  0  0  0  0  0  0  0  0
  141.4515   71.6991  221.9023 H   0  0  0  0  0  0  0  0  0  0  0  0
  140.7113   70.7765  220.5439 H   0  0  0  0  0  0  0  0  0  0  0  0
  139.6823   75.3513  219.7221 H   0  0  0  0  0  0  0  0  0  0  0  0
  138.2131   74.5154  220.3021 H   0  0  0  0  0  0  0  0  0  0  0  0
  139.1399   74.9521  222.6467 H   0  0  0  0  0  0  0  0  0  0  0  0
  141.3227   75.8682  222.4846 H   0  0  0  0  0  0  0  0  0  0  0  0
  141.0555   76.6764  220.9832 H   0  0  0  0  0  0  0  0  0  0  0  0
  139.9097   77.4565  223.8111 H   0  0  0  0  0  0  0  0  0  0  0  0
  141.4137   78.4642  224.8461 H   0  0  0  0  0  0  0  0  0  0  0  0
  143.0467   80.3681  224.8960 H   0  0  0  0  0  0  0  0  0  0  0  0
  143.5073   81.6722  222.8554 H   0  0  0  0  0  0  0  0  0  0  0  0
  142.3664   81.1309  220.7065 H   0  0  0  0  0  0  0  0  0  0  0  0
  140.7399   79.2351  220.6651 H   0  0  0  0  0  0  0  0  0  0  0  0
  138.0660   78.4798  222.7081 H   0  0  0  0  0  0  0  0  0  0  0  0
  138.8589   78.5050  221.1375 H   0  0  0  0  0  0  0  0  0  0  0  0
  137.6256   76.4307  223.7799 H   0  0  0  0  0  0  0  0  0  0  0  0
  136.3421   76.9831  222.6510 H   0  0  0  0  0  0  0  0  0  0  0  0
  136.8588   75.2627  222.6510 H   0  0  0  0  0  0  0  0  0  0  0  0
  137.5206   72.8700  221.2673 H   0  0  0  0  0  0  0  0  0  0  0  0
  137.8259   71.1450  221.0637 H   0  0  0  0  0  0  0  0  0  0  0  0
  138.3375   72.8499  223.5892 H   0  0  0  0  0  0  0  0  0  0  0  0
  137.1181   71.5295  223.3954 H   0  0  0  0  0  0  0  0  0  0  0  0
  1  2  1  0
  2  3  1  0
  3  4  2  0
  3  5  1  0
  5  6  1  0
  6  7  2  0
  7  8  1  0
  8  9  2  0
  9 10  1  0
 10 11  2  0
  5 12  1  0
 12 13  1  0
 13 14  1  0
 14 15  1  0
 15 16  1  0
 16 17  2  0
 16 18  1  0
 18 19  1  0
 19 20  1  0
 20 21  1  0
 21 22  1  0
 22 23  2  0
 23 24  1  0
 24 25  2  0
 25 26  1  0
 26 27  2  0
 21 28  1  0
 28 29  1  0
 29 30  1  0
 15 31  1  0
 31 32  1  0
 11  6  1  0
 32 12  1  0
 29 19  1  0
 27 22  1  0
  1 33  1  0
  1 34  1  0
  1 35  1  0
  2 36  1  0
  2 37  1  0
  7 38  1  0
  8 39  1  0
  9 40  1  0
 10 41  1  0
 11 42  1  0
 12 43  1  0
 13 44  1  0
 13 45  1  0
 14 46  1  0
 14 47  1  0
 18 48  1  0
 18 49  1  0
 19 50  1  1
 20 51  1  0
 20 52  1  0
 21 53  1  1
 23 54  1  0
 24 55  1  0
 25 56  1  0
 26 57  1  0
 27 58  1  0
 28 59  1  0
 28 60  1  0
 30 61  1  0
 30 62  1  0
 30 63  1  0
 31 64  1  0
 31 65  1  0
 32 66  1  0
 32 67  1  0
M  END
>  <smiles>  (17) 
CCC(=O)N(c1ccccc1)C1CCN(C(=O)C[C@H]2C[C@@H](c3ccccc3)CN2C)CC1

>  <score_type>  (17) 
oracle

>  <origin>  (17) 
autodockgpu

>  <m_score__min__energy>  (17) 
-8.6500000000000004

>  <m_primary>  (17) 
energy

>  <rmsd>  (17) 
7.704818431329849

>  <m_score__min__rmsd>  (17) 
7.704818431329849

>  <meeko>  (17) 
{"free_energy": -7.71, "intermolecular_energy": -9.79, "internal_energy": -1.85, "cluster_size": 14, "cluster_id": 3, "rank_in_cluster": 14}

>  <energy>  (17) 
-8.39

>  <cluster_rmsd>  (17) 
0.73

>  <cluster>  (17) 
2

$$$$

     RDKit          3D

 67 70  0  0  0  0  0  0  0  0999 V2000
  145.8550   74.1700  220.8280 C   0  0  0  0  0  0  0  0  0  0  0  0
  146.3300   72.7280  220.6400 C   0  0  0  0  0  0  0  0  0  0  0  0
  145.4600   72.0670  219.6520 C   0  0  0  0  0  0  0  0  0  0  0  0
  145.8370   72.1910  218.4280 O   0  0  0  0  0  0  0  0  0  0  0  0
  144.2950   71.3340  219.8530 N   0  0  0  0  0  0  0  0  0  0  0  0
  144.3040   69.9960  219.2710 C   0  0  0  0  0  0  0  0  0  0  0  0
  144.4400   68.8810  220.0800 C   0  0  0  0  0  0  0  0  0  0  0  0
  144.4480   67.6550  219.4510 C   0  0  0  0  0  0  0  0  0  0  0  0
  144.3290   67.4950  218.0870 C   0  0  0  0  0  0  0  0  0  0  0  0
  144.1940   68.6340  217.3120 C   0  0  0  0  0  0  0  0  0  0  0  0
  144.1790   69.8990  217.8880 C   0  0  0  0  0  0  0  0  0  0  0  0
  143.1000   71.7030  220.5570 C   0  0  0  0  0  0  0  0  0  0  0  0
  142.9290   73.2070  220.4740 C   0  0  0  0  0  0  0  0  0  0  0  0
  141.6070   73.7020  220.9770 C   0  0  0  0  0  0  0  0  0  0  0  0
  140.5600   72.7440  220.6630 N   0  0  0  0  0  0  0  0  0  0  0  0
  139.3900   72.7760  221.4450 C   0  0  0  0  0  0  0  0  0  0  0  0
  139.3360   73.6470  222.3650 O   0  0  0  0  0  0  0  0  0  0  0  0
  138.2190   71.8890  221.2950 C   0  0  0  0  0  0  0  0  0  0  0  0
  138.3890   70.7250  222.2340 C   0  0  1  0  0  0  0  0  0  0  0  0
  139.5120   70.9690  223.2340 C   0  0  0  0  0  0  0  0  0  0  0  0
  139.0030   70.0970  224.3910 C   0  0  1  0  0  0  0  0  0  0  0  0
  139.7030   70.3810  225.6530 C   0  0  0  0  0  0  0  0  0  0  0  0
  140.4680   71.5380  225.7130 C   0  0  0  0  0  0  0  0  0  0  0  0
  141.1400   71.8210  226.9040 C   0  0  0  0  0  0  0  0  0  0  0  0
  141.0410   70.9690  227.9890 C   0  0  0  0  0  0  0  0  0  0  0  0
  140.2780   69.8150  227.9320 C   0  0  0  0  0  0  0  0  0  0  0  0
  139.6120   69.5400  226.7410 C   0  0  0  0  0  0  0  0  0  0  0  0
  137.5450   70.4180  224.3850 C   0  0  0  0  0  0  0  0  0  0  0  0
  137.2030   70.4900  222.9910 N   0  0  0  0  0  0  0  0  0  0  0  0
  136.5620   69.2620  222.6060 C   0  0  0  0  0  0  0  0  0  0  0  0
  140.8190   71.8370  219.5680 C   0  0  0  0  0  0  0  0  0  0  0  0
  141.9360   70.9150  220.0750 C   0  0  0  0  0  0  0  0  0  0  0  0
  145.7810   74.3946  221.9023 H   0  0  0  0  0  0  0  0  0  0  0  0
  146.5743   74.8571  220.3584 H   0  0  0  0  0  0  0  0  0  0  0  0
  144.8682   74.2951  220.3584 H   0  0  0  0  0  0  0  0  0  0  0  0
  147.3689   72.7251  220.2785 H   0  0  0  0  0  0  0  0  0  0  0  0
  146.2826   72.1907  221.5987 H   0  0  0  0  0  0  0  0  0  0  0  0
  144.5370   68.9694  221.1721 H   0  0  0  0  0  0  0  0  0  0  0  0
  144.5554   66.7535  220.0721 H   0  0  0  0  0  0  0  0  0  0  0  0
  144.3409   66.4948  217.6293 H   0  0  0  0  0  0  0  0  0  0  0  0
  144.0968   68.5363  216.2207 H   0  0  0  0  0  0  0  0  0  0  0  0
  144.0711   70.8004  217.2668 H   0  0  0  0  0  0  0  0  0  0  0  0
  143.1780   71.4516  221.6250 H   0  0  0  0  0  0  0  0  0  0  0  0
  143.7239   73.6783  221.0706 H   0  0  0  0  0  0  0  0  0  0  0  0
  142.9824   73.4736  219.4081 H   0  0  0  0  0  0  0  0  0  0  0  0
  141.6606   73.8373  222.0673 H   0  0  0  0  0  0  0  0  0  0  0  0
  141.3740   74.6607  220.4907 H   0  0  0  0  0  0  0  0  0  0  0  0
  137.3002   72.4392  221.5461 H   0  0  0  0  0  0  0  0  0  0  0  0
  138.1421   71.5326  220.2572 H   0  0  0  0  0  0  0  0  0  0  0  0
  138.6227   69.8579  221.5987 H   0  0  0  0  0  0  0  0  0  0  0  0
  140.4843   70.6223  222.8540 H   0  0  0  0  0  0  0  0  0  0  0  0
  139.6987   72.0235  223.4852 H   0  0  0  0  0  0  0  0  0  0  0  0
  139.1900   69.0187  224.2799 H   0  0  0  0  0  0  0  0  0  0  0  0
  140.5427   72.2124  224.8472 H   0  0  0  0  0  0  0  0  0  0  0  0
  141.7541   72.7305  226.9800 H   0  0  0  0  0  0  0  0  0  0  0  0
  141.5796   71.2133  228.9165 H   0  0  0  0  0  0  0  0  0  0  0  0
  140.2009   69.1397  228.7969 H   0  0  0  0  0  0  0  0  0  0  0  0
  138.9986   68.6300  226.6665 H   0  0  0  0  0  0  0  0  0  0  0  0
  136.9696   69.6262  224.8870 H   0  0  0  0  0  0  0  0  0  0  0  0
  137.3178   71.3506  224.9222 H   0  0  0  0  0  0  0  0  0  0  0  0
  136.2700   68.7026  223.5070 H   0  0  0  0  0  0  0  0  0  0  0  0
  135.6666   69.4875  222.0082 H   0  0  0  0  0  0  0  0  0  0  0  0
  137.2590   68.6563  222.0082 H   0  0  0  0  0  0  0  0  0  0  0  0
  139.9173   71.2555  219.3256 H   0  0  0  0  0  0  0  0  0  0  0  0
  141.1061   72.3687  218.6488 H   0  0  0  0  0  0  0  0  0  0  0  0
  141.5488   70.3025  220.9026 H   0  0  0  0  0  0  0  0  0  0  0  0
  142.2664   70.2752  219.2435 H   0  0  0  0  0  0  0  0  0  0  0  0
  1  2  1  0
  2  3  1  0
  3  4  2  0
  3  5  1  0
  5  6  1  0
  6  7  2  0
  7  8  1  0
  8  9  2  0
  9 10  1  0
 10 11  2  0
  5 12  1  0
 12 13  1  0
 13 14  1  0
 14 15  1  0
 15 16  1  0
 16 17  2  0
 16 18  1  0
 18 19  1  0
 19 20  1  0
 20 21  1  0
 21 22  1  0
 22 23  2  0
 23 24  1  0
 24 25  2  0
 25 26  1  0
 26 27  2  0
 21 28  1  0
 28 29  1  0
 29 30  1  0
 15 31  1  0
 31 32  1  0
 11  6  1  0
 32 12  1  0
 29 19  1  0
 27 22  1  0
  1 33  1  0
  1 34  1  0
  1 35  1  0
  2 36  1  0
  2 37  1  0
  7 38  1  0
  8 39  1  0
  9 40  1  0
 10 41  1  0
 11 42  1  0
 12 43  1  0
 13 44  1  0
 13 45  1  0
 14 46  1  0
 14 47  1  0
 18 48  1  0
 18 49  1  0
 19 50  1  6
 20 51  1  0
 20 52  1  0
 21 53  1  6
 23 54  1  0
 24 55  1  0
 25 56  1  0
 26 57  1  0
 27 58  1  0
 28 59  1  0
 28 60  1  0
 30 61  1  0
 30 62  1  0
 30 63  1  0
 31 64  1  0
 31 65  1  0
 32 66  1  0
 32 67  1  0
M  END
>  <smiles>  (18) 
CCC(=O)N(c1ccccc1)C1CCN(C(=O)C[C@H]2C[C@@H](c3ccccc3)CN2C)CC1

>  <score_type>  (18) 
oracle

>  <origin>  (18) 
autodockgpu

>  <m_score__min__energy>  (18) 
-8.6500000000000004

>  <m_primary>  (18) 
energy

>  <rmsd>  (18) 
2.7252973970593826

>  <m_score__min__rmsd>  (18) 
2.7252973970593826

>  <meeko>  (18) 
{"free_energy": -7.9, "intermolecular_energy": -9.99, "internal_energy": -1.86, "cluster_size": 11, "cluster_id": 1, "rank_in_cluster": 10}

>  <energy>  (18) 
-8.3

>  <cluster_rmsd>  (18) 
1.12

>  <cluster>  (18) 
2

$$$$

     RDKit          3D

 67 70  0  0  0  0  0  0  0  0999 V2000
  142.6100   78.3320  217.1990 C   0  0  0  0  0  0  0  0  0  0  0  0
  141.7000   79.5070  217.5610 C   0  0  0  0  0  0  0  0  0  0  0  0
  141.8190   79.7710  219.0050 C   0  0  0  0  0  0  0  0  0  0  0  0
  142.2550   80.9440  219.3080 O   0  0  0  0  0  0  0  0  0  0  0  0
  141.5320   78.9380  220.0810 N   0  0  0  0  0  0  0  0  0  0  0  0
  141.5570   79.5910  221.3860 C   0  0  0  0  0  0  0  0  0  0  0  0
  142.5750   79.3220  222.2850 C   0  0  0  0  0  0  0  0  0  0  0  0
  142.5210   79.9730  223.4980 C   0  0  0  0  0  0  0  0  0  0  0  0
  141.5220   80.8580  223.8460 C   0  0  0  0  0  0  0  0  0  0  0  0
  140.5220   81.1000  222.9210 C   0  0  0  0  0  0  0  0  0  0  0  0
  140.5220   80.4740  221.6800 C   0  0  0  0  0  0  0  0  0  0  0  0
  141.2030   77.5410  220.0860 C   0  0  0  0  0  0  0  0  0  0  0  0
  142.4890   76.7380  220.0880 C   0  0  0  0  0  0  0  0  0  0  0  0
  142.2940   75.2690  220.3160 C   0  0  0  0  0  0  0  0  0  0  0  0
  141.1930   75.0470  221.2390 N   0  0  0  0  0  0  0  0  0  0  0  0
  140.5530   73.7950  221.2010 C   0  0  0  0  0  0  0  0  0  0  0  0
  140.9910   72.9490  220.3650 O   0  0  0  0  0  0  0  0  0  0  0  0
  139.4160   73.3730  222.0440 C   0  0  0  0  0  0  0  0  0  0  0  0
  139.6480   71.9460  222.4650 C   0  0  1  0  0  0  0  0  0  0  0  0
  140.4880   71.8650  223.7340 C   0  0  0  0  0  0  0  0  0  0  0  0
  139.9660   70.5310  224.2880 C   0  0  1  0  0  0  0  0  0  0  0  0
  140.3430   70.3250  225.6950 C   0  0  0  0  0  0  0  0  0  0  0  0
  140.3190   69.0240  226.1780 C   0  0  0  0  0  0  0  0  0  0  0  0
  140.6750   68.8120  227.5130 C   0  0  0  0  0  0  0  0  0  0  0  0
  141.0380   69.8720  228.3220 C   0  0  0  0  0  0  0  0  0  0  0  0
  141.0630   71.1700  227.8420 C   0  0  0  0  0  0  0  0  0  0  0  0
  140.7070   71.3730  226.5120 C   0  0  0  0  0  0  0  0  0  0  0  0
  138.5010   70.6560  224.0320 C   0  0  0  0  0  0  0  0  0  0  0  0
  138.4180   71.2780  222.7400 N   0  0  0  0  0  0  0  0  0  0  0  0
  138.1320   70.2690  221.7560 C   0  0  0  0  0  0  0  0  0  0  0  0
  140.8520   76.1440  222.1170 C   0  0  0  0  0  0  0  0  0  0  0  0
  140.2660   77.2210  221.1940 C   0  0  0  0  0  0  0  0  0  0  0  0
  142.9784   77.8563  218.1199 H   0  0  0  0  0  0  0  0  0  0  0  0
  142.0429   77.5974  216.6084 H   0  0  0  0  0  0  0  0  0  0  0  0
  143.4631   78.6973  216.6084 H   0  0  0  0  0  0  0  0  0  0  0  0
  142.0057   80.3995  216.9954 H   0  0  0  0  0  0  0  0  0  0  0  0
  140.6571   79.2637  217.3099 H   0  0  0  0  0  0  0  0  0  0  0  0
  143.3881   78.6220  222.0424 H   0  0  0  0  0  0  0  0  0  0  0  0
  143.3187   79.7761  224.2294 H   0  0  0  0  0  0  0  0  0  0  0  0
  141.5204   81.3553  224.8272 H   0  0  0  0  0  0  0  0  0  0  0  0
  139.7121   81.8006  223.1723 H   0  0  0  0  0  0  0  0  0  0  0  0
  139.7243   80.6714  220.9488 H   0  0  0  0  0  0  0  0  0  0  0  0
  140.6550   77.2609  219.1743 H   0  0  0  0  0  0  0  0  0  0  0  0
  142.9824   76.8738  219.1143 H   0  0  0  0  0  0  0  0  0  0  0  0
  143.0943   77.1113  220.9272 H   0  0  0  0  0  0  0  0  0  0  0  0
  142.0690   74.7790  219.3572 H   0  0  0  0  0  0  0  0  0  0  0  0
  143.2142   74.8468  220.7461 H   0  0  0  0  0  0  0  0  0  0  0  0
  139.3517   74.0179  222.9328 H   0  0  0  0  0  0  0  0  0  0  0  0
  138.4743   73.4554  221.4816 H   0  0  0  0  0  0  0  0  0  0  0  0
  140.1717   71.4661  221.6251 H   0  0  0  0  0  0  0  0  0  0  0  0
  141.5649   71.8260  223.5132 H   0  0  0  0  0  0  0  0  0  0  0  0
  140.3991   72.7251  224.4140 H   0  0  0  0  0  0  0  0  0  0  0  0
  140.3925   69.6322  223.8186 H   0  0  0  0  0  0  0  0  0  0  0  0
  140.0284   68.1845  225.5293 H   0  0  0  0  0  0  0  0  0  0  0  0
  140.6661   67.7915  227.9236 H   0  0  0  0  0  0  0  0  0  0  0  0
  141.3129   69.6801  229.3697 H   0  0  0  0  0  0  0  0  0  0  0  0
  141.3539   72.0110  228.4886 H   0  0  0  0  0  0  0  0  0  0  0  0
  140.7165   72.3943  226.1034 H   0  0  0  0  0  0  0  0  0  0  0  0
  138.0218   69.6659  224.0193 H   0  0  0  0  0  0  0  0  0  0  0  0
  137.9863   71.2367  224.8117 H   0  0  0  0  0  0  0  0  0  0  0  0
  137.8656   69.3290  222.2614 H   0  0  0  0  0  0  0  0  0  0  0  0
  137.2917   70.5980  221.1270 H   0  0  0  0  0  0  0  0  0  0  0  0
  139.0199   70.1082  221.1270 H   0  0  0  0  0  0  0  0  0  0  0  0
  140.1079   75.8263  222.8623 H   0  0  0  0  0  0  0  0  0  0  0  0
  141.7233   76.5103  222.6797 H   0  0  0  0  0  0  0  0  0  0  0  0
  139.3193   76.8549  220.7700 H   0  0  0  0  0  0  0  0  0  0  0  0
  140.0969   78.1337  221.7842 H   0  0  0  0  0  0  0  0  0  0  0  0
  1  2  1  0
  2  3  1  0
  3  4  2  0
  3  5  1  0
  5  6  1  0
  6  7  2  0
  7  8  1  0
  8  9  2  0
  9 10  1  0
 10 11  2  0
  5 12  1  0
 12 13  1  0
 13 14  1  0
 14 15  1  0
 15 16  1  0
 16 17  2  0
 16 18  1  0
 18 19  1  0
 19 20  1  0
 20 21  1  0
 21 22  1  0
 22 23  2  0
 23 24  1  0
 24 25  2  0
 25 26  1  0
 26 27  2  0
 21 28  1  0
 28 29  1  0
 29 30  1  0
 15 31  1  0
 31 32  1  0
 11  6  1  0
 32 12  1  0
 29 19  1  0
 27 22  1  0
  1 33  1  0
  1 34  1  0
  1 35  1  0
  2 36  1  0
  2 37  1  0
  7 38  1  0
  8 39  1  0
  9 40  1  0
 10 41  1  0
 11 42  1  0
 12 43  1  0
 13 44  1  0
 13 45  1  0
 14 46  1  0
 14 47  1  0
 18 48  1  0
 18 49  1  0
 19 50  1  6
 20 51  1  0
 20 52  1  0
 21 53  1  6
 23 54  1  0
 24 55  1  0
 25 56  1  0
 26 57  1  0
 27 58  1  0
 28 59  1  0
 28 60  1  0
 30 61  1  0
 30 62  1  0
 30 63  1  0
 31 64  1  0
 31 65  1  0
 32 66  1  0
 32 67  1  0
M  END
>  <smiles>  (19) 
CCC(=O)N(c1ccccc1)C1CCN(C(=O)C[C@H]2C[C@@H](c3ccccc3)CN2C)CC1

>  <score_type>  (19) 
oracle

>  <origin>  (19) 
autodockgpu

>  <m_score__min__energy>  (19) 
-8.6500000000000004

>  <m_primary>  (19) 
energy

>  <rmsd>  (19) 
3.4573995494487164

>  <m_score__min__rmsd>  (19) 
3.4573995494487164

>  <meeko>  (19) 
{"free_energy": -8.62, "intermolecular_energy": -10.71, "internal_energy": -1.68, "cluster_size": 21, "cluster_id": 2, "rank_in_cluster": 1}

>  <energy>  (19) 
-8.21

>  <cluster_rmsd>  (19) 
1.86

>  <cluster>  (19) 
2

$$$$

     RDKit          3D

 67 70  0  0  0  0  0  0  0  0999 V2000
  138.3820   67.7360  222.3270 C   0  0  0  0  0  0  0  0  0  0  0  0
  137.1060   68.4410  222.7890 C   0  0  0  0  0  0  0  0  0  0  0  0
  137.3590   69.0720  224.0960 C   0  0  0  0  0  0  0  0  0  0  0  0
  136.4220   68.9160  224.9640 O   0  0  0  0  0  0  0  0  0  0  0  0
  138.4590   69.8090  224.5220 N   0  0  0  0  0  0  0  0  0  0  0  0
  139.2130   69.2090  225.6180 C   0  0  0  0  0  0  0  0  0  0  0  0
  139.5280   67.8610  225.5970 C   0  0  0  0  0  0  0  0  0  0  0  0
  140.2340   67.3710  226.6740 C   0  0  0  0  0  0  0  0  0  0  0  0
  140.6300   68.1460  227.7440 C   0  0  0  0  0  0  0  0  0  0  0  0
  140.2960   69.4890  227.7280 C   0  0  0  0  0  0  0  0  0  0  0  0
  139.5850   70.0410  226.6700 C   0  0  0  0  0  0  0  0  0  0  0  0
  138.9600   71.0610  224.0300 C   0  0  0  0  0  0  0  0  0  0  0  0
  140.2220   70.8010  223.2310 C   0  0  0  0  0  0  0  0  0  0  0  0
  140.7260   71.9930  222.4760 C   0  0  0  0  0  0  0  0  0  0  0  0
  139.6090   72.7930  221.9980 N   0  0  0  0  0  0  0  0  0  0  0  0
  139.8530   74.1490  221.7130 C   0  0  0  0  0  0  0  0  0  0  0  0
  141.0350   74.5710  221.8890 O   0  0  0  0  0  0  0  0  0  0  0  0
  138.8600   75.1280  221.2280 C   0  0  0  0  0  0  0  0  0  0  0  0
  138.6570   76.1630  222.3020 C   0  0  1  0  0  0  0  0  0  0  0  0
  139.9480   76.9110  222.6110 C   0  0  0  0  0  0  0  0  0  0  0  0
  139.3510   78.2420  223.0920 C   0  0  1  0  0  0  0  0  0  0  0  0
  140.3550   79.3150  223.1540 C   0  0  0  0  0  0  0  0  0  0  0  0
  139.9850   80.5630  222.6720 C   0  0  0  0  0  0  0  0  0  0  0  0
  140.9280   81.5930  222.7230 C   0  0  0  0  0  0  0  0  0  0  0  0
  142.1900   81.3670  223.2400 C   0  0  0  0  0  0  0  0  0  0  0  0
  142.5610   80.1230  223.7210 C   0  0  0  0  0  0  0  0  0  0  0  0
  141.6160   79.1030  223.6660 C   0  0  0  0  0  0  0  0  0  0  0  0
  138.2540   78.4500  222.1010 C   0  0  0  0  0  0  0  0  0  0  0  0
  137.6960   77.1410  221.9080 N   0  0  0  0  0  0  0  0  0  0  0  0
  136.4850   77.0340  222.6760 C   0  0  0  0  0  0  0  0  0  0  0  0
  138.3390   72.1160  221.8610 C   0  0  0  0  0  0  0  0  0  0  0  0
  137.9010   71.8050  223.2980 C   0  0  0  0  0  0  0  0  0  0  0  0
  138.9622   67.4154  223.2049 H   0  0  0  0  0  0  0  0  0  0  0  0
  138.1165   66.8566  221.7219 H   0  0  0  0  0  0  0  0  0  0  0  0
  138.9852   68.4289  221.7219 H   0  0  0  0  0  0  0  0  0  0  0  0
  136.8225   69.2103  222.0557 H   0  0  0  0  0  0  0  0  0  0  0  0
  136.2874   67.7117  222.8782 H   0  0  0  0  0  0  0  0  0  0  0  0
  139.2290   67.2122  224.7605 H   0  0  0  0  0  0  0  0  0  0  0  0
  140.4963   66.3028  226.6808 H   0  0  0  0  0  0  0  0  0  0  0  0
  141.1930   67.7108  228.5828 H   0  0  0  0  0  0  0  0  0  0  0  0
  140.5991   70.1309  228.5683 H   0  0  0  0  0  0  0  0  0  0  0  0
  139.3225   71.1092  226.6637 H   0  0  0  0  0  0  0  0  0  0  0  0
  139.2405   71.7270  224.8593 H   0  0  0  0  0  0  0  0  0  0  0  0
  141.0095   70.4744  223.9261 H   0  0  0  0  0  0  0  0  0  0  0  0
  139.9707   70.0352  222.4825 H   0  0  0  0  0  0  0  0  0  0  0  0
  141.3536   72.6052  223.1402 H   0  0  0  0  0  0  0  0  0  0  0  0
  141.3164   71.6490  221.6140 H   0  0  0  0  0  0  0  0  0  0  0  0
  139.2296   75.6103  220.3111 H   0  0  0  0  0  0  0  0  0  0  0  0
  137.9089   74.6241  221.0011 H   0  0  0  0  0  0  0  0  0  0  0  0
  138.3094   75.6122  223.1885 H   0  0  0  0  0  0  0  0  0  0  0  0
  140.5334   76.4139  223.3985 H   0  0  0  0  0  0  0  0  0  0  0  0
  140.6595   76.9881  221.7756 H   0  0  0  0  0  0  0  0  0  0  0  0
  138.9784   78.2394  224.1270 H   0  0  0  0  0  0  0  0  0  0  0  0
  138.9791   80.7361  222.2619 H   0  0  0  0  0  0  0  0  0  0  0  0
  140.6636   82.5929  222.3483 H   0  0  0  0  0  0  0  0  0  0  0  0
  142.9152   82.1936  223.2699 H   0  0  0  0  0  0  0  0  0  0  0  0
  143.5662   79.9472  224.1317 H   0  0  0  0  0  0  0  0  0  0  0  0
  141.8824   78.1036  224.0403 H   0  0  0  0  0  0  0  0  0  0  0  0
  137.4964   79.1417  222.4980 H   0  0  0  0  0  0  0  0  0  0  0  0
  138.6151   78.8951  221.1621 H   0  0  0  0  0  0  0  0  0  0  0  0
  136.7280   77.0555  223.7486 H   0  0  0  0  0  0  0  0  0  0  0  0
  135.8213   77.8770  222.4334 H   0  0  0  0  0  0  0  0  0  0  0  0
  135.9794   76.0877  222.4334 H   0  0  0  0  0  0  0  0  0  0  0  0
  137.6046   72.7675  221.3649 H   0  0  0  0  0  0  0  0  0  0  0  0
  138.4181   71.2073  221.2462 H   0  0  0  0  0  0  0  0  0  0  0  0
  137.6963   72.7493  223.8237 H   0  0  0  0  0  0  0  0  0  0  0  0
  136.9965   71.1801  223.2606 H   0  0  0  0  0  0  0  0  0  0  0  0
  1  2  1  0
  2  3  1  0
  3  4  2  0
  3  5  1  0
  5  6  1  0
  6  7  2  0
  7  8  1  0
  8  9  2  0
  9 10  1  0
 10 11  2  0
  5 12  1  0
 12 13  1  0
 13 14  1  0
 14 15  1  0
 15 16  1  0
 16 17  2  0
 16 18  1  0
 18 19  1  0
 19 20  1  0
 20 21  1  0
 21 22  1  0
 22 23  2  0
 23 24  1  0
 24 25  2  0
 25 26  1  0
 26 27  2  0
 21 28  1  0
 28 29  1  0
 29 30  1  0
 15 31  1  0
 31 32  1  0
 11  6  1  0
 32 12  1  0
 29 19  1  0
 27 22  1  0
  1 33  1  0
  1 34  1  0
  1 35  1  0
  2 36  1  0
  2 37  1  0
  7 38  1  0
  8 39  1  0
  9 40  1  0
 10 41  1  0
 11 42  1  0
 12 43  1  0
 13 44  1  0
 13 45  1  0
 14 46  1  0
 14 47  1  0
 18 48  1  0
 18 49  1  0
 19 50  1  1
 20 51  1  0
 20 52  1  0
 21 53  1  1
 23 54  1  0
 24 55  1  0
 25 56  1  0
 26 57  1  0
 27 58  1  0
 28 59  1  0
 28 60  1  0
 30 61  1  0
 30 62  1  0
 30 63  1  0
 31 64  1  0
 31 65  1  0
 32 66  1  0
 32 67  1  0
M  END
>  <smiles>  (20) 
CCC(=O)N(c1ccccc1)C1CCN(C(=O)C[C@H]2C[C@@H](c3ccccc3)CN2C)CC1

>  <score_type>  (20) 
oracle

>  <origin>  (20) 
autodockgpu

>  <m_score__min__energy>  (20) 
-8.6500000000000004

>  <m_primary>  (20) 
energy

>  <rmsd>  (20) 
8.507866289431297

>  <m_score__min__rmsd>  (20) 
8.507866289431297

>  <meeko>  (20) 
{"free_energy": -8.47, "intermolecular_energy": -10.56, "internal_energy": -1.65, "cluster_size": 14, "cluster_id": 3, "rank_in_cluster": 3}

>  <energy>  (20) 
-8.19

>  <cluster_rmsd>  (20) 
1.18

>  <cluster>  (20) 
2

$$$$

     RDKit          3D

 67 70  0  0  0  0  0  0  0  0999 V2000
  143.6700   74.4840  220.4780 C   0  0  0  0  0  0  0  0  0  0  0  0
  143.3400   75.7780  219.7320 C   0  0  0  0  0  0  0  0  0  0  0  0
  141.9020   76.0590  219.8840 C   0  0  0  0  0  0  0  0  0  0  0  0
  141.2500   76.1650  218.7790 O   0  0  0  0  0  0  0  0  0  0  0  0
  141.1520   76.2270  221.0440 N   0  0  0  0  0  0  0  0  0  0  0  0
  141.3490   77.5040  221.7210 C   0  0  0  0  0  0  0  0  0  0  0  0
  141.2610   77.5880  223.1000 C   0  0  0  0  0  0  0  0  0  0  0  0
  141.4510   78.8320  223.6600 C   0  0  0  0  0  0  0  0  0  0  0  0
  141.7170   79.9690  222.9250 C   0  0  0  0  0  0  0  0  0  0  0  0
  141.7960   79.8440  221.5490 C   0  0  0  0  0  0  0  0  0  0  0  0
  141.6140   78.6160  220.9250 C   0  0  0  0  0  0  0  0  0  0  0  0
  140.2110   75.3320  221.6550 C   0  0  0  0  0  0  0  0  0  0  0  0
  138.8620   76.0210  221.7290 C   0  0  0  0  0  0  0  0  0  0  0  0
  137.7370   75.1210  222.1440 C   0  0  0  0  0  0  0  0  0  0  0  0
  137.9420   73.7840  221.6100 N   0  0  0  0  0  0  0  0  0  0  0  0
  137.2980   72.7160  222.2610 C   0  0  0  0  0  0  0  0  0  0  0  0
  136.5790   73.0030  223.2650 O   0  0  0  0  0  0  0  0  0  0  0  0
  137.3810   71.2900  221.8850 C   0  0  0  0  0  0  0  0  0  0  0  0
  138.6680   70.7340  222.4340 C   0  0  1  0  0  0  0  0  0  0  0  0
  139.1530   71.5290  223.6400 C   0  0  0  0  0  0  0  0  0  0  0  0
  139.9310   70.4210  224.3660 C   0  0  1  0  0  0  0  0  0  0  0  0
  140.2510   70.7820  225.7550 C   0  0  0  0  0  0  0  0  0  0  0  0
  141.0680   71.8860  225.9560 C   0  0  0  0  0  0  0  0  0  0  0  0
  141.3810   72.2430  227.2700 C   0  0  0  0  0  0  0  0  0  0  0  0
  140.8880   71.5120  228.3350 C   0  0  0  0  0  0  0  0  0  0  0  0
  140.0730   70.4110  228.1380 C   0  0  0  0  0  0  0  0  0  0  0  0
  139.7660   70.0620  226.8250 C   0  0  0  0  0  0  0  0  0  0  0  0
  139.0100   69.2580  224.2050 C   0  0  0  0  0  0  0  0  0  0  0  0
  138.5090   69.3830  222.8650 N   0  0  0  0  0  0  0  0  0  0  0  0
  139.2220   68.4690  222.0150 C   0  0  0  0  0  0  0  0  0  0  0  0
  138.7980   73.6730  220.4500 C   0  0  0  0  0  0  0  0  0  0  0  0
  140.2030   74.0170  220.9630 C   0  0  0  0  0  0  0  0  0  0  0  0
  143.6241   74.6639  221.5622 H   0  0  0  0  0  0  0  0  0  0  0  0
  142.9413   73.7068  220.2041 H   0  0  0  0  0  0  0  0  0  0  0  0
  144.6819   74.1507  220.2041 H   0  0  0  0  0  0  0  0  0  0  0  0
  143.9257   76.6079  220.1541 H   0  0  0  0  0  0  0  0  0  0  0  0
  143.5894   75.6694  218.6662 H   0  0  0  0  0  0  0  0  0  0  0  0
  141.0495   76.7036  223.7189 H   0  0  0  0  0  0  0  0  0  0  0  0
  141.3871   78.9241  224.7543 H   0  0  0  0  0  0  0  0  0  0  0  0
  141.8615   80.9425  223.4164 H   0  0  0  0  0  0  0  0  0  0  0  0
  142.0069   80.7338  220.9377 H   0  0  0  0  0  0  0  0  0  0  0  0
  141.6775   78.5243  219.8307 H   0  0  0  0  0  0  0  0  0  0  0  0
  140.5044   75.0953  222.6884 H   0  0  0  0  0  0  0  0  0  0  0  0
  138.9333   76.8429  222.4566 H   0  0  0  0  0  0  0  0  0  0  0  0
  138.6290   76.3722  220.7129 H   0  0  0  0  0  0  0  0  0  0  0  0
  137.6970   75.0717  223.2422 H   0  0  0  0  0  0  0  0  0  0  0  0
  136.7913   75.5235  221.7520 H   0  0  0  0  0  0  0  0  0  0  0  0
  136.5271   70.7423  222.3103 H   0  0  0  0  0  0  0  0  0  0  0  0
  137.3567   71.1831  220.7905 H   0  0  0  0  0  0  0  0  0  0  0  0
  139.3976   70.7968  221.6132 H   0  0  0  0  0  0  0  0  0  0  0  0
  139.8045   72.3655  223.3469 H   0  0  0  0  0  0  0  0  0  0  0  0
  138.3642   72.0167  224.2316 H   0  0  0  0  0  0  0  0  0  0  0  0
  140.9333   70.2137  223.9631 H   0  0  0  0  0  0  0  0  0  0  0  0
  141.4580   72.4635  225.1048 H   0  0  0  0  0  0  0  0  0  0  0  0
  142.0258   73.1139  227.4590 H   0  0  0  0  0  0  0  0  0  0  0  0
  141.1491   71.8119  229.3606 H   0  0  0  0  0  0  0  0  0  0  0  0
  139.6817   69.8323  228.9878 H   0  0  0  0  0  0  0  0  0  0  0  0
  139.1210   69.1908  226.6378 H   0  0  0  0  0  0  0  0  0  0  0  0
  139.5540   68.3102  224.3305 H   0  0  0  0  0  0  0  0  0  0  0  0
  138.2054   69.2530  224.9551 H   0  0  0  0  0  0  0  0  0  0  0  0
  139.7811   67.7523  222.6345 H   0  0  0  0  0  0  0  0  0  0  0  0
  138.5071   67.9252  221.3800 H   0  0  0  0  0  0  0  0  0  0  0  0
  139.9234   69.0300  221.3800 H   0  0  0  0  0  0  0  0  0  0  0  0
  138.7728   72.6499  220.0467 H   0  0  0  0  0  0  0  0  0  0  0  0
  138.4797   74.3393  219.6347 H   0  0  0  0  0  0  0  0  0  0  0  0
  140.5292   73.2379  221.6677 H   0  0  0  0  0  0  0  0  0  0  0  0
  140.8866   74.0699  220.1028 H   0  0  0  0  0  0  0  0  0  0  0  0
  1  2  1  0
  2  3  1  0
  3  4  2  0
  3  5  1  0
  5  6  1  0
  6  7  2  0
  7  8  1  0
  8  9  2  0
  9 10  1  0
 10 11  2  0
  5 12  1  0
 12 13  1  0
 13 14  1  0
 14 15  1  0
 15 16  1  0
 16 17  2  0
 16 18  1  0
 18 19  1  0
 19 20  1  0
 20 21  1  0
 21 22  1  0
 22 23  2  0
 23 24  1  0
 24 25  2  0
 25 26  1  0
 26 27  2  0
 21 28  1  0
 28 29  1  0
 29 30  1  0
 15 31  1  0
 31 32  1  0
 11  6  1  0
 32 12  1  0
 29 19  1  0
 27 22  1  0
  1 33  1  0
  1 34  1  0
  1 35  1  0
  2 36  1  0
  2 37  1  0
  7 38  1  0
  8 39  1  0
  9 40  1  0
 10 41  1  0
 11 42  1  0
 12 43  1  0
 13 44  1  0
 13 45  1  0
 14 46  1  0
 14 47  1  0
 18 48  1  0
 18 49  1  0
 19 50  1  6
 20 51  1  0
 20 52  1  0
 21 53  1  6
 23 54  1  0
 24 55  1  0
 25 56  1  0
 26 57  1  0
 27 58  1  0
 28 59  1  0
 28 60  1  0
 30 61  1  0
 30 62  1  0
 30 63  1  0
 31 64  1  0
 31 65  1  0
 32 66  1  0
 32 67  1  0
M  END
>  <smiles>  (21) 
CCC(=O)N(c1ccccc1)C1CCN(C(=O)C[C@H]2C[C@@H](c3ccccc3)CN2C)CC1

>  <score_type>  (21) 
oracle

>  <origin>  (21) 
autodockgpu

>  <m_score__min__energy>  (21) 
-8.6500000000000004

>  <m_primary>  (21) 
energy

>  <rmsd>  (21) 
2.5195057099793945

>  <m_score__min__rmsd>  (21) 
2.5195057099793945

>  <meeko>  (21) 
{"free_energy": -8.02, "intermolecular_energy": -10.11, "internal_energy": -2.04, "cluster_size": 21, "cluster_id": 2, "rank_in_cluster": 19}

>  <energy>  (21) 
-8.19

>  <cluster_rmsd>  (21) 
1.92

>  <cluster>  (21) 
2

$$$$

     RDKit          3D

 67 70  0  0  0  0  0  0  0  0999 V2000
  138.3910   67.7010  222.3480 C   0  0  0  0  0  0  0  0  0  0  0  0
  137.1160   68.4370  222.7670 C   0  0  0  0  0  0  0  0  0  0  0  0
  137.3490   69.0840  224.0700 C   0  0  0  0  0  0  0  0  0  0  0  0
  136.3990   68.9390  224.9250 O   0  0  0  0  0  0  0  0  0  0  0  0
  138.4420   69.8280  224.5030 N   0  0  0  0  0  0  0  0  0  0  0  0
  139.1810   69.2410  225.6170 C   0  0  0  0  0  0  0  0  0  0  0  0
  139.3200   67.8670  225.7200 C   0  0  0  0  0  0  0  0  0  0  0  0
  140.0240   67.3940  226.8050 C   0  0  0  0  0  0  0  0  0  0  0  0
  140.5810   68.2080  227.7680 C   0  0  0  0  0  0  0  0  0  0  0  0
  140.4200   69.5760  227.6310 C   0  0  0  0  0  0  0  0  0  0  0  0
  139.7210   70.1140  226.5570 C   0  0  0  0  0  0  0  0  0  0  0  0
  138.9490   71.0740  224.0040 C   0  0  0  0  0  0  0  0  0  0  0  0
  140.1980   70.8010  223.1900 C   0  0  0  0  0  0  0  0  0  0  0  0
  140.7040   71.9890  222.4270 C   0  0  0  0  0  0  0  0  0  0  0  0
  139.5890   72.7990  221.9640 N   0  0  0  0  0  0  0  0  0  0  0  0
  139.8420   74.1520  221.6740 C   0  0  0  0  0  0  0  0  0  0  0  0
  141.0310   74.5630  221.8350 O   0  0  0  0  0  0  0  0  0  0  0  0
  138.8520   75.1410  221.2020 C   0  0  0  0  0  0  0  0  0  0  0  0
  138.6490   76.1600  222.2910 C   0  0  1  0  0  0  0  0  0  0  0  0
  139.9330   76.9250  222.5900 C   0  0  0  0  0  0  0  0  0  0  0  0
  139.3220   78.2400  223.0950 C   0  0  1  0  0  0  0  0  0  0  0  0
  140.3110   79.3280  223.1550 C   0  0  0  0  0  0  0  0  0  0  0  0
  141.5260   79.0520  223.7670 C   0  0  0  0  0  0  0  0  0  0  0  0
  142.4760   80.0750  223.8320 C   0  0  0  0  0  0  0  0  0  0  0  0
  142.2060   81.3220  223.3000 C   0  0  0  0  0  0  0  0  0  0  0  0
  140.9950   81.5990  222.6890 C   0  0  0  0  0  0  0  0  0  0  0  0
  140.0540   80.5750  222.6290 C   0  0  0  0  0  0  0  0  0  0  0  0
  138.2090   78.4430  222.1230 C   0  0  0  0  0  0  0  0  0  0  0  0
  137.6680   77.1270  221.9220 N   0  0  0  0  0  0  0  0  0  0  0  0
  136.4700   76.9930  222.7060 C   0  0  0  0  0  0  0  0  0  0  0  0
  138.3110   72.1340  221.8430 C   0  0  0  0  0  0  0  0  0  0  0  0
  137.8880   71.8280  223.2860 C   0  0  0  0  0  0  0  0  0  0  0  0
  138.9423   67.3828  223.2451 H   0  0  0  0  0  0  0  0  0  0  0  0
  138.1245   66.8178  221.7489 H   0  0  0  0  0  0  0  0  0  0  0  0
  139.0225   68.3735  221.7489 H   0  0  0  0  0  0  0  0  0  0  0  0
  136.8650   69.1995  222.0150 H   0  0  0  0  0  0  0  0  0  0  0  0
  136.2817   67.7245  222.8468 H   0  0  0  0  0  0  0  0  0  0  0  0
  138.8889   67.1862  224.9712 H   0  0  0  0  0  0  0  0  0  0  0  0
  140.1488   66.3061  226.9090 H   0  0  0  0  0  0  0  0  0  0  0  0
  141.1356   67.7840  228.6181 H   0  0  0  0  0  0  0  0  0  0  0  0
  140.8530   70.2492  228.3855 H   0  0  0  0  0  0  0  0  0  0  0  0
  139.5976   71.2021  226.4525 H   0  0  0  0  0  0  0  0  0  0  0  0
  139.2471   71.7381  224.8287 H   0  0  0  0  0  0  0  0  0  0  0  0
  140.9910   70.4675  223.8756 H   0  0  0  0  0  0  0  0  0  0  0  0
  139.9305   70.0366  222.4456 H   0  0  0  0  0  0  0  0  0  0  0  0
  141.3464   72.5954  223.0825 H   0  0  0  0  0  0  0  0  0  0  0  0
  141.2796   71.6391  221.5574 H   0  0  0  0  0  0  0  0  0  0  0  0
  139.2247   75.6364  220.2933 H   0  0  0  0  0  0  0  0  0  0  0  0
  137.9002   74.6428  220.9657 H   0  0  0  0  0  0  0  0  0  0  0  0
  138.3233   75.5937  223.1760 H   0  0  0  0  0  0  0  0  0  0  0  0
  140.5378   76.4283  223.3630 H   0  0  0  0  0  0  0  0  0  0  0  0
  140.6310   77.0231  221.7455 H   0  0  0  0  0  0  0  0  0  0  0  0
  138.9637   78.2189  224.1348 H   0  0  0  0  0  0  0  0  0  0  0  0
  141.7349   78.0576  224.1883 H   0  0  0  0  0  0  0  0  0  0  0  0
  143.4480   79.8861  224.3111 H   0  0  0  0  0  0  0  0  0  0  0  0
  142.9697   82.1111  223.3635 H   0  0  0  0  0  0  0  0  0  0  0  0
  140.7840   82.5924  222.2662 H   0  0  0  0  0  0  0  0  0  0  0  0
  139.0822   80.7660  222.1503 H   0  0  0  0  0  0  0  0  0  0  0  0
  137.4468   79.1182  222.5390 H   0  0  0  0  0  0  0  0  0  0  0  0
  138.5498   78.9049  221.1846 H   0  0  0  0  0  0  0  0  0  0  0  0
  136.7265   77.0217  223.7753 H   0  0  0  0  0  0  0  0  0  0  0  0
  135.7837   77.8200  222.4712 H   0  0  0  0  0  0  0  0  0  0  0  0
  135.9834   76.0348  222.4712 H   0  0  0  0  0  0  0  0  0  0  0  0
  137.5767   72.7922  221.3556 H   0  0  0  0  0  0  0  0  0  0  0  0
  138.3737   71.2243  221.2277 H   0  0  0  0  0  0  0  0  0  0  0  0
  137.6995   72.7745  223.8139 H   0  0  0  0  0  0  0  0  0  0  0  0
  136.9767   71.2124  223.2609 H   0  0  0  0  0  0  0  0  0  0  0  0
  1  2  1  0
  2  3  1  0
  3  4  2  0
  3  5  1  0
  5  6  1  0
  6  7  2  0
  7  8  1  0
  8  9  2  0
  9 10  1  0
 10 11  2  0
  5 12  1  0
 12 13  1  0
 13 14  1  0
 14 15  1  0
 15 16  1  0
 16 17  2  0
 16 18  1  0
 18 19  1  0
 19 20  1  0
 20 21  1  0
 21 22  1  0
 22 23  2  0
 23 24  1  0
 24 25  2  0
 25 26  1  0
 26 27  2  0
 21 28  1  0
 28 29  1  0
 29 30  1  0
 15 31  1  0
 31 32  1  0
 11  6  1  0
 32 12  1  0
 29 19  1  0
 27 22  1  0
  1 33  1  0
  1 34  1  0
  1 35  1  0
  2 36  1  0
  2 37  1  0
  7 38  1  0
  8 39  1  0
  9 40  1  0
 10 41  1  0
 11 42  1  0
 12 43  1  0
 13 44  1  0
 13 45  1  0
 14 46  1  0
 14 47  1  0
 18 48  1  0
 18 49  1  0
 19 50  1  1
 20 51  1  0
 20 52  1  0
 21 53  1  1
 23 54  1  0
 24 55  1  0
 25 56  1  0
 26 57  1  0
 27 58  1  0
 28 59  1  0
 28 60  1  0
 30 61  1  0
 30 62  1  0
 30 63  1  0
 31 64  1  0
 31 65  1  0
 32 66  1  0
 32 67  1  0
M  END
>  <smiles>  (22) 
CCC(=O)N(c1ccccc1)C1CCN(C(=O)C[C@H]2C[C@@H](c3ccccc3)CN2C)CC1

>  <score_type>  (22) 
oracle

>  <origin>  (22) 
autodockgpu

>  <m_score__min__energy>  (22) 
-8.6500000000000004

>  <m_primary>  (22) 
energy

>  <rmsd>  (22) 
7.931211852809471

>  <m_score__min__rmsd>  (22) 
7.931211852809471

>  <meeko>  (22) 
{"free_energy": -8.47, "intermolecular_energy": -10.55, "internal_energy": -1.67, "cluster_size": 14, "cluster_id": 3, "rank_in_cluster": 4}

>  <energy>  (22) 
-8.16

>  <cluster_rmsd>  (22) 
1.12

>  <cluster>  (22) 
2

$$$$

     RDKit          3D

 67 70  0  0  0  0  0  0  0  0999 V2000
  141.3760   78.7540  216.9220 C   0  0  0  0  0  0  0  0  0  0  0  0
  142.5520   79.3580  217.6910 C   0  0  0  0  0  0  0  0  0  0  0  0
  142.0920   79.7400  219.0370 C   0  0  0  0  0  0  0  0  0  0  0  0
  142.0920   81.0060  219.2710 O   0  0  0  0  0  0  0  0  0  0  0  0
  141.6620   78.9330  220.0850 N   0  0  0  0  0  0  0  0  0  0  0  0
  141.5650   79.6060  221.3770 C   0  0  0  0  0  0  0  0  0  0  0  0
  140.4890   80.4290  221.6600 C   0  0  0  0  0  0  0  0  0  0  0  0
  140.4760   81.0330  222.8970 C   0  0  0  0  0  0  0  0  0  0  0  0
  141.4650   80.8570  223.8430 C   0  0  0  0  0  0  0  0  0  0  0  0
  142.5250   80.0270  223.5230 C   0  0  0  0  0  0  0  0  0  0  0  0
  142.5930   79.3900  222.2900 C   0  0  0  0  0  0  0  0  0  0  0  0
  141.2920   77.5470  220.0720 C   0  0  0  0  0  0  0  0  0  0  0  0
  142.5530   76.7050  220.0880 C   0  0  0  0  0  0  0  0  0  0  0  0
  142.3100   75.2410  220.2990 C   0  0  0  0  0  0  0  0  0  0  0  0
  141.1870   75.0450  221.2010 N   0  0  0  0  0  0  0  0  0  0  0  0
  140.5110   73.8130  221.1410 C   0  0  0  0  0  0  0  0  0  0  0  0
  140.9370   72.9610  220.3050 O   0  0  0  0  0  0  0  0  0  0  0  0
  139.3480   73.4180  221.9610 C   0  0  0  0  0  0  0  0  0  0  0  0
  139.5540   71.9970  222.4160 C   0  0  1  0  0  0  0  0  0  0  0  0
  140.4310   71.9280  223.6610 C   0  0  0  0  0  0  0  0  0  0  0  0
  139.8900   70.6250  224.2680 C   0  0  1  0  0  0  0  0  0  0  0  0
  140.3050   70.4490  225.6680 C   0  0  0  0  0  0  0  0  0  0  0  0
  140.3150   69.1550  226.1730 C   0  0  0  0  0  0  0  0  0  0  0  0
  140.7060   68.9710  227.5010 C   0  0  0  0  0  0  0  0  0  0  0  0
  141.0730   70.0500  228.2840 C   0  0  0  0  0  0  0  0  0  0  0  0
  141.0650   71.3400  227.7830 C   0  0  0  0  0  0  0  0  0  0  0  0
  140.6730   71.5160  226.4590 C   0  0  0  0  0  0  0  0  0  0  0  0
  138.4220   70.7840  224.0530 C   0  0  0  0  0  0  0  0  0  0  0  0
  138.3160   71.3710  222.7460 N   0  0  0  0  0  0  0  0  0  0  0  0
  137.9730   70.3430  221.8010 C   0  0  0  0  0  0  0  0  0  0  0  0
  140.8640   76.1430  222.0840 C   0  0  0  0  0  0  0  0  0  0  0  0
  140.3270   77.2450  221.1610 C   0  0  0  0  0  0  0  0  0  0  0  0
  140.6302   78.3710  217.6341 H   0  0  0  0  0  0  0  0  0  0  0  0
  140.9157   79.5272  216.2894 H   0  0  0  0  0  0  0  0  0  0  0  0
  141.7363   77.9294  216.2894 H   0  0  0  0  0  0  0  0  0  0  0  0
  143.3603   78.6164  217.7730 H   0  0  0  0  0  0  0  0  0  0  0  0
  142.9309   80.2436  217.1599 H   0  0  0  0  0  0  0  0  0  0  0  0
  139.6820   80.5929  220.9307 H   0  0  0  0  0  0  0  0  0  0  0  0
  139.6309   81.6920  223.1449 H   0  0  0  0  0  0  0  0  0  0  0  0
  141.4125   81.3601  224.8198 H   0  0  0  0  0  0  0  0  0  0  0  0
  143.3281   79.8687  224.2578 H   0  0  0  0  0  0  0  0  0  0  0  0
  143.4383   78.7314  222.0417 H   0  0  0  0  0  0  0  0  0  0  0  0
  140.7517   77.2921  219.1484 H   0  0  0  0  0  0  0  0  0  0  0  0
  143.0667   76.8343  219.1239 H   0  0  0  0  0  0  0  0  0  0  0  0
  143.1549   77.0523  220.9407 H   0  0  0  0  0  0  0  0  0  0  0  0
  142.0869   74.7663  219.3321 H   0  0  0  0  0  0  0  0  0  0  0  0
  143.2094   74.7871  220.7406 H   0  0  0  0  0  0  0  0  0  0  0  0
  139.2663   74.0808  222.8351 H   0  0  0  0  0  0  0  0  0  0  0  0
  138.4227   73.4979  221.3716 H   0  0  0  0  0  0  0  0  0  0  0  0
  140.0384   71.4793  221.5749 H   0  0  0  0  0  0  0  0  0  0  0  0
  141.4991   71.8527  223.4089 H   0  0  0  0  0  0  0  0  0  0  0  0
  140.3871   72.8088  224.3185 H   0  0  0  0  0  0  0  0  0  0  0  0
  140.2763   69.7016  223.8119 H   0  0  0  0  0  0  0  0  0  0  0  0
  140.0234   68.3001  225.5452 H   0  0  0  0  0  0  0  0  0  0  0  0
  140.7222   67.9576  227.9284 H   0  0  0  0  0  0  0  0  0  0  0  0
  141.3777   69.8794  229.3271 H   0  0  0  0  0  0  0  0  0  0  0  0
  141.3580   72.1959  228.4088 H   0  0  0  0  0  0  0  0  0  0  0  0
  140.6566   72.5305  226.0341 H   0  0  0  0  0  0  0  0  0  0  0  0
  137.9157   69.8079  224.0840 H   0  0  0  0  0  0  0  0  0  0  0  0
  137.9479   71.4010  224.8305 H   0  0  0  0  0  0  0  0  0  0  0  0
  137.6698   69.4343  222.3417 H   0  0  0  0  0  0  0  0  0  0  0  0
  137.1414   70.6884  221.1692 H   0  0  0  0  0  0  0  0  0  0  0  0
  138.8454   70.1199  221.1692 H   0  0  0  0  0  0  0  0  0  0  0  0
  140.0978   75.8411  222.8132 H   0  0  0  0  0  0  0  0  0  0  0  0
  141.7356   76.4775  222.6658 H   0  0  0  0  0  0  0  0  0  0  0  0
  139.3774   76.9112  220.7174 H   0  0  0  0  0  0  0  0  0  0  0  0
  140.1754   78.1571  221.7568 H   0  0  0  0  0  0  0  0  0  0  0  0
  1  2  1  0
  2  3  1  0
  3  4  2  0
  3  5  1  0
  5  6  1  0
  6  7  2  0
  7  8  1  0
  8  9  2  0
  9 10  1  0
 10 11  2  0
  5 12  1  0
 12 13  1  0
 13 14  1  0
 14 15  1  0
 15 16  1  0
 16 17  2  0
 16 18  1  0
 18 19  1  0
 19 20  1  0
 20 21  1  0
 21 22  1  0
 22 23  2  0
 23 24  1  0
 24 25  2  0
 25 26  1  0
 26 27  2  0
 21 28  1  0
 28 29  1  0
 29 30  1  0
 15 31  1  0
 31 32  1  0
 11  6  1  0
 32 12  1  0
 29 19  1  0
 27 22  1  0
  1 33  1  0
  1 34  1  0
  1 35  1  0
  2 36  1  0
  2 37  1  0
  7 38  1  0
  8 39  1  0
  9 40  1  0
 10 41  1  0
 11 42  1  0
 12 43  1  0
 13 44  1  0
 13 45  1  0
 14 46  1  0
 14 47  1  0
 18 48  1  0
 18 49  1  0
 19 50  1  6
 20 51  1  0
 20 52  1  0
 21 53  1  6
 23 54  1  0
 24 55  1  0
 25 56  1  0
 26 57  1  0
 27 58  1  0
 28 59  1  0
 28 60  1  0
 30 61  1  0
 30 62  1  0
 30 63  1  0
 31 64  1  0
 31 65  1  0
 32 66  1  0
 32 67  1  0
M  END
>  <smiles>  (23) 
CCC(=O)N(c1ccccc1)C1CCN(C(=O)C[C@H]2C[C@@H](c3ccccc3)CN2C)CC1

>  <score_type>  (23) 
oracle

>  <origin>  (23) 
autodockgpu

>  <m_score__min__energy>  (23) 
-8.6500000000000004

>  <m_primary>  (23) 
energy

>  <rmsd>  (23) 
3.456637001812844

>  <m_score__min__rmsd>  (23) 
3.456637001812844

>  <meeko>  (23) 
{"free_energy": -8.6, "intermolecular_energy": -10.69, "internal_energy": -1.68, "cluster_size": 21, "cluster_id": 2, "rank_in_cluster": 2}

>  <energy>  (23) 
-8.14

>  <cluster_rmsd>  (23) 
1.62

>  <cluster>  (23) 
2

$$$$

     RDKit          3D

 67 70  0  0  0  0  0  0  0  0999 V2000
  141.9100   79.8050  218.2850 C   0  0  0  0  0  0  0  0  0  0  0  0
  140.5980   80.5050  218.6430 C   0  0  0  0  0  0  0  0  0  0  0  0
  139.9790   79.8010  219.7790 C   0  0  0  0  0  0  0  0  0  0  0  0
  138.7950   80.2010  220.0860 O   0  0  0  0  0  0  0  0  0  0  0  0
  140.4900   78.7730  220.5650 N   0  0  0  0  0  0  0  0  0  0  0  0
  141.1810   79.2100  221.7740 C   0  0  0  0  0  0  0  0  0  0  0  0
  140.7680   78.7640  223.0180 C   0  0  0  0  0  0  0  0  0  0  0  0
  141.4680   79.2310  224.1090 C   0  0  0  0  0  0  0  0  0  0  0  0
  142.5330   80.1010  224.0180 C   0  0  0  0  0  0  0  0  0  0  0  0
  142.9160   80.5250  222.7570 C   0  0  0  0  0  0  0  0  0  0  0  0
  142.2500   80.0890  221.6180 C   0  0  0  0  0  0  0  0  0  0  0  0
  140.4220   77.3540  220.3610 C   0  0  0  0  0  0  0  0  0  0  0  0
  141.8050   76.7650  220.5660 C   0  0  0  0  0  0  0  0  0  0  0  0
  141.8340   75.2670  220.6010 C   0  0  0  0  0  0  0  0  0  0  0  0
  140.6280   74.7570  221.2340 N   0  0  0  0  0  0  0  0  0  0  0  0
  140.2430   73.4380  220.9350 C   0  0  0  0  0  0  0  0  0  0  0  0
  140.9830   72.7880  220.1360 O   0  0  0  0  0  0  0  0  0  0  0  0
  139.0550   72.7370  221.4640 C   0  0  0  0  0  0  0  0  0  0  0  0
  139.5220   71.5030  222.1890 C   0  0  1  0  0  0  0  0  0  0  0  0
  140.3230   71.8540  223.4360 C   0  0  0  0  0  0  0  0  0  0  0  0
  140.0280   70.6040  224.2770 C   0  0  1  0  0  0  0  0  0  0  0  0
  140.3910   70.7830  225.6910 C   0  0  0  0  0  0  0  0  0  0  0  0
  140.0160   69.7840  226.5790 C   0  0  0  0  0  0  0  0  0  0  0  0
  140.3540   69.9400  227.9250 C   0  0  0  0  0  0  0  0  0  0  0  0
  141.0430   71.0600  228.3540 C   0  0  0  0  0  0  0  0  0  0  0  0
  141.4180   72.0570  227.4710 C   0  0  0  0  0  0  0  0  0  0  0  0
  141.0770   71.8940  226.1310 C   0  0  0  0  0  0  0  0  0  0  0  0
  138.5720   70.4060  224.0130 C   0  0  0  0  0  0  0  0  0  0  0  0
  138.4210   70.7030  222.6160 N   0  0  0  0  0  0  0  0  0  0  0  0
  138.3480   69.4670  221.8840 C   0  0  0  0  0  0  0  0  0  0  0  0
  139.9290   75.6610  222.1200 C   0  0  0  0  0  0  0  0  0  0  0  0
  139.3560   76.7480  221.2000 C   0  0  0  0  0  0  0  0  0  0  0  0
  142.4387   79.5229  219.2075 H   0  0  0  0  0  0  0  0  0  0  0  0
  141.6947   78.9019  217.6950 H   0  0  0  0  0  0  0  0  0  0  0  0
  142.5402   80.4867  217.6950 H   0  0  0  0  0  0  0  0  0  0  0  0
  140.8004   81.5498  218.9214 H   0  0  0  0  0  0  0  0  0  0  0  0
  139.9181   80.4895  217.7784 H   0  0  0  0  0  0  0  0  0  0  0  0
  139.9218   78.0702  223.1299 H   0  0  0  0  0  0  0  0  0  0  0  0
  141.1596   78.8904  225.1084 H   0  0  0  0  0  0  0  0  0  0  0  0
  143.0617   80.4473  224.9183 H   0  0  0  0  0  0  0  0  0  0  0  0
  143.7628   81.2196  222.6548 H   0  0  0  0  0  0  0  0  0  0  0  0
  142.5592   80.4294  220.6187 H   0  0  0  0  0  0  0  0  0  0  0  0
  140.1258   77.1178  219.3283 H   0  0  0  0  0  0  0  0  0  0  0  0
  142.4501   77.1037  219.7419 H   0  0  0  0  0  0  0  0  0  0  0  0
  142.1544   77.1117  221.5497 H   0  0  0  0  0  0  0  0  0  0  0  0
  141.8963   74.8805  219.5730 H   0  0  0  0  0  0  0  0  0  0  0  0
  142.7100   74.9379  221.1792 H   0  0  0  0  0  0  0  0  0  0  0  0
  138.5132   73.3949  222.1594 H   0  0  0  0  0  0  0  0  0  0  0  0
  138.3783   72.4617  220.6416 H   0  0  0  0  0  0  0  0  0  0  0  0
  140.1484   70.9520  221.4721 H   0  0  0  0  0  0  0  0  0  0  0  0
  141.3962   71.9606  223.2194 H   0  0  0  0  0  0  0  0  0  0  0  0
  140.0626   72.8123  223.9090 H   0  0  0  0  0  0  0  0  0  0  0  0
  140.6212   69.7154  224.0151 H   0  0  0  0  0  0  0  0  0  0  0  0
  139.4684   68.8952  226.2324 H   0  0  0  0  0  0  0  0  0  0  0  0
  140.0694   69.1644  228.6513 H   0  0  0  0  0  0  0  0  0  0  0  0
  141.2981   71.1601  229.4193 H   0  0  0  0  0  0  0  0  0  0  0  0
  141.9659   72.9465  227.8153 H   0  0  0  0  0  0  0  0  0  0  0  0
  141.3621   72.6708  225.4062 H   0  0  0  0  0  0  0  0  0  0  0  0
  138.2751   69.3683  224.2250 H   0  0  0  0  0  0  0  0  0  0  0  0
  137.9392   71.0427  224.6488 H   0  0  0  0  0  0  0  0  0  0  0  0
  138.2983   68.6251  222.5901 H   0  0  0  0  0  0  0  0  0  0  0  0
  137.4484   69.4683  221.2510 H   0  0  0  0  0  0  0  0  0  0  0  0
  139.2415   69.3624  221.2510 H   0  0  0  0  0  0  0  0  0  0  0  0
  139.1204   75.1361  222.6498 H   0  0  0  0  0  0  0  0  0  0  0  0
  140.5906   76.0784  222.8933 H   0  0  0  0  0  0  0  0  0  0  0  0
  138.5944   76.2997  220.5450 H   0  0  0  0  0  0  0  0  0  0  0  0
  138.9120   77.5368  221.8250 H   0  0  0  0  0  0  0  0  0  0  0  0
  1  2  1  0
  2  3  1  0
  3  4  2  0
  3  5  1  0
  5  6  1  0
  6  7  2  0
  7  8  1  0
  8  9  2  0
  9 10  1  0
 10 11  2  0
  5 12  1  0
 12 13  1  0
 13 14  1  0
 14 15  1  0
 15 16  1  0
 16 17  2  0
 16 18  1  0
 18 19  1  0
 19 20  1  0
 20 21  1  0
 21 22  1  0
 22 23  2  0
 23 24  1  0
 24 25  2  0
 25 26  1  0
 26 27  2  0
 21 28  1  0
 28 29  1  0
 29 30  1  0
 15 31  1  0
 31 32  1  0
 11  6  1  0
 32 12  1  0
 29 19  1  0
 27 22  1  0
  1 33  1  0
  1 34  1  0
  1 35  1  0
  2 36  1  0
  2 37  1  0
  7 38  1  0
  8 39  1  0
  9 40  1  0
 10 41  1  0
 11 42  1  0
 12 43  1  0
 13 44  1  0
 13 45  1  0
 14 46  1  0
 14 47  1  0
 18 48  1  0
 18 49  1  0
 19 50  1  6
 20 51  1  0
 20 52  1  0
 21 53  1  6
 23 54  1  0
 24 55  1  0
 25 56  1  0
 26 57  1  0
 27 58  1  0
 28 59  1  0
 28 60  1  0
 30 61  1  0
 30 62  1  0
 30 63  1  0
 31 64  1  0
 31 65  1  0
 32 66  1  0
 32 67  1  0
M  END
>  <smiles>  (24) 
CCC(=O)N(c1ccccc1)C1CCN(C(=O)C[C@H]2C[C@@H](c3ccccc3)CN2C)CC1

>  <score_type>  (24) 
oracle

>  <origin>  (24) 
autodockgpu

>  <m_score__min__energy>  (24) 
-8.6500000000000004

>  <m_primary>  (24) 
energy

>  <rmsd>  (24) 
3.154103964956435

>  <m_score__min__rmsd>  (24) 
3.154103964956435

>  <meeko>  (24) 
{"free_energy": -8.3, "intermolecular_energy": -10.39, "internal_energy": -1.72, "cluster_size": 21, "cluster_id": 2, "rank_in_cluster": 7}

>  <energy>  (24) 
-8.11

>  <cluster_rmsd>  (24) 
1.34

>  <cluster>  (24) 
2

$$$$

     RDKit          3D

 67 70  0  0  0  0  0  0  0  0999 V2000
  135.1850   70.6780  224.6930 C   0  0  0  0  0  0  0  0  0  0  0  0
  135.8300   69.3140  224.9430 C   0  0  0  0  0  0  0  0  0  0  0  0
  137.1300   69.2700  224.2520 C   0  0  0  0  0  0  0  0  0  0  0  0
  137.1670   68.5090  223.2140 O   0  0  0  0  0  0  0  0  0  0  0  0
  138.3170   69.9260  224.5610 N   0  0  0  0  0  0  0  0  0  0  0  0
  139.1120   69.2960  225.6090 C   0  0  0  0  0  0  0  0  0  0  0  0
  139.2030   67.9170  225.6880 C   0  0  0  0  0  0  0  0  0  0  0  0
  139.9660   67.4010  226.7120 C   0  0  0  0  0  0  0  0  0  0  0  0
  140.6270   68.1800  227.6380 C   0  0  0  0  0  0  0  0  0  0  0  0
  140.5120   69.5540  227.5270 C   0  0  0  0  0  0  0  0  0  0  0  0
  139.7560   70.1340  226.5160 C   0  0  0  0  0  0  0  0  0  0  0  0
  138.8700   71.1200  223.9880 C   0  0  0  0  0  0  0  0  0  0  0  0
  140.1280   70.7560  223.2240 C   0  0  0  0  0  0  0  0  0  0  0  0
  140.6850   71.8720  222.3930 C   0  0  0  0  0  0  0  0  0  0  0  0
  139.6040   72.6780  221.8470 N   0  0  0  0  0  0  0  0  0  0  0  0
  139.9030   74.0000  221.4710 C   0  0  0  0  0  0  0  0  0  0  0  0
  141.1000   74.3880  221.6300 O   0  0  0  0  0  0  0  0  0  0  0  0
  138.9530   74.9800  220.9070 C   0  0  0  0  0  0  0  0  0  0  0  0
  138.6880   76.0320  221.9510 C   0  0  1  0  0  0  0  0  0  0  0  0
  139.9780   76.6950  222.4200 C   0  0  0  0  0  0  0  0  0  0  0  0
  139.4150   78.0640  222.8270 C   0  0  1  0  0  0  0  0  0  0  0  0
  140.4730   79.0690  223.0160 C   0  0  0  0  0  0  0  0  0  0  0  0
  141.7720   78.6940  222.7000 C   0  0  0  0  0  0  0  0  0  0  0  0
  142.7890   79.6370  222.8740 C   0  0  0  0  0  0  0  0  0  0  0  0
  142.5010   80.9040  223.3470 C   0  0  0  0  0  0  0  0  0  0  0  0
  141.2070   81.2790  223.6630 C   0  0  0  0  0  0  0  0  0  0  0  0
  140.2000   80.3340  223.4870 C   0  0  0  0  0  0  0  0  0  0  0  0
  138.4660   78.3400  221.7090 C   0  0  0  0  0  0  0  0  0  0  0  0
  137.8510   77.0690  221.4440 N   0  0  0  0  0  0  0  0  0  0  0  0
  136.5500   77.0470  222.0560 C   0  0  0  0  0  0  0  0  0  0  0  0
  138.3100   72.0430  221.7430 C   0  0  0  0  0  0  0  0  0  0  0  0
  137.8480   71.8510  223.1940 C   0  0  0  0  0  0  0  0  0  0  0  0
  134.9579   71.1583  225.6562 H   0  0  0  0  0  0  0  0  0  0  0  0
  135.8785   71.3123  224.1215 H   0  0  0  0  0  0  0  0  0  0  0  0
  134.2547   70.5444  224.1215 H   0  0  0  0  0  0  0  0  0  0  0  0
  135.9802   69.1684  226.0229 H   0  0  0  0  0  0  0  0  0  0  0  0
  135.1765   68.5159  224.5611 H   0  0  0  0  0  0  0  0  0  0  0  0
  138.6900   67.2639  224.9667 H   0  0  0  0  0  0  0  0  0  0  0  0
  140.0528   66.3076  226.7957 H   0  0  0  0  0  0  0  0  0  0  0  0
  141.2266   67.7235  228.4393 H   0  0  0  0  0  0  0  0  0  0  0  0
  141.0287   70.1993  228.2526 H   0  0  0  0  0  0  0  0  0  0  0  0
  139.6683   71.2274  226.4340 H   0  0  0  0  0  0  0  0  0  0  0  0
  139.1683   71.8318  224.7718 H   0  0  0  0  0  0  0  0  0  0  0  0
  140.8959   70.4493  223.9494 H   0  0  0  0  0  0  0  0  0  0  0  0
  139.8538   69.9494  222.5282 H   0  0  0  0  0  0  0  0  0  0  0  0
  141.3298   72.5053  223.0200 H   0  0  0  0  0  0  0  0  0  0  0  0
  141.2696   71.4459  221.5643 H   0  0  0  0  0  0  0  0  0  0  0  0
  139.3873   75.4462  220.0103 H   0  0  0  0  0  0  0  0  0  0  0  0
  138.0147   74.4805  220.6239 H   0  0  0  0  0  0  0  0  0  0  0  0
  138.1978   75.5099  222.7860 H   0  0  0  0  0  0  0  0  0  0  0  0
  140.4273   76.1645  223.2725 H   0  0  0  0  0  0  0  0  0  0  0  0
  140.7912   76.7207  221.6797 H   0  0  0  0  0  0  0  0  0  0  0  0
  138.9171   78.0903  223.8075 H   0  0  0  0  0  0  0  0  0  0  0  0
  141.9942   77.6845  222.3238 H   0  0  0  0  0  0  0  0  0  0  0  0
  143.8281   79.3687  222.6324 H   0  0  0  0  0  0  0  0  0  0  0  0
  143.3180   81.6294  223.4748 H   0  0  0  0  0  0  0  0  0  0  0  0
  140.9821   82.2877  224.0398 H   0  0  0  0  0  0  0  0  0  0  0  0
  139.1617   80.6041  223.7299 H   0  0  0  0  0  0  0  0  0  0  0  0
  137.7125   79.0820  222.0116 H   0  0  0  0  0  0  0  0  0  0  0  0
  138.9689   78.7564  220.8238 H   0  0  0  0  0  0  0  0  0  0  0  0
  136.6596   77.0489  223.1505 H   0  0  0  0  0  0  0  0  0  0  0  0
  135.9824   77.9357  221.7428 H   0  0  0  0  0  0  0  0  0  0  0  0
  136.0128   76.1396  221.7428 H   0  0  0  0  0  0  0  0  0  0  0  0
  137.6061   72.6860  221.1944 H   0  0  0  0  0  0  0  0  0  0  0  0
  138.3582   71.0911  221.1938 H   0  0  0  0  0  0  0  0  0  0  0  0
  137.6765   72.8372  223.6500 H   0  0  0  0  0  0  0  0  0  0  0  0
  136.9200   71.2604  223.1902 H   0  0  0  0  0  0  0  0  0  0  0  0
  1  2  1  0
  2  3  1  0
  3  4  2  0
  3  5  1  0
  5  6  1  0
  6  7  2  0
  7  8  1  0
  8  9  2  0
  9 10  1  0
 10 11  2  0
  5 12  1  0
 12 13  1  0
 13 14  1  0
 14 15  1  0
 15 16  1  0
 16 17  2  0
 16 18  1  0
 18 19  1  0
 19 20  1  0
 20 21  1  0
 21 22  1  0
 22 23  2  0
 23 24  1  0
 24 25  2  0
 25 26  1  0
 26 27  2  0
 21 28  1  0
 28 29  1  0
 29 30  1  0
 15 31  1  0
 31 32  1  0
 11  6  1  0
 32 12  1  0
 29 19  1  0
 27 22  1  0
  1 33  1  0
  1 34  1  0
  1 35  1  0
  2 36  1  0
  2 37  1  0
  7 38  1  0
  8 39  1  0
  9 40  1  0
 10 41  1  0
 11 42  1  0
 12 43  1  0
 13 44  1  0
 13 45  1  0
 14 46  1  0
 14 47  1  0
 18 48  1  0
 18 49  1  0
 19 50  1  1
 20 51  1  0
 20 52  1  0
 21 53  1  1
 23 54  1  0
 24 55  1  0
 25 56  1  0
 26 57  1  0
 27 58  1  0
 28 59  1  0
 28 60  1  0
 30 61  1  0
 30 62  1  0
 30 63  1  0
 31 64  1  0
 31 65  1  0
 32 66  1  0
 32 67  1  0
M  END
>  <smiles>  (25) 
CCC(=O)N(c1ccccc1)C1CCN(C(=O)C[C@H]2C[C@@H](c3ccccc3)CN2C)CC1

>  <score_type>  (25) 
oracle

>  <origin>  (25) 
autodockgpu

>  <m_score__min__energy>  (25) 
-8.6500000000000004

>  <m_primary>  (25) 
energy

>  <rmsd>  (25) 
7.927954454775614

>  <m_score__min__rmsd>  (25) 
7.927954454775614

>  <meeko>  (25) 
{"free_energy": -8.26, "intermolecular_energy": -10.35, "internal_energy": -1.61, "cluster_size": 14, "cluster_id": 3, "rank_in_cluster": 8}

>  <energy>  (25) 
-8.11

>  <cluster_rmsd>  (25) 
1.81

>  <cluster>  (25) 
2

$$$$

     RDKit          3D

 67 70  0  0  0  0  0  0  0  0999 V2000
  142.5240   78.5660  217.1610 C   0  0  0  0  0  0  0  0  0  0  0  0
  142.5610   79.8660  217.9660 C   0  0  0  0  0  0  0  0  0  0  0  0
  141.4880   79.8290  218.9740 C   0  0  0  0  0  0  0  0  0  0  0  0
  140.5780   80.7270  218.8320 O   0  0  0  0  0  0  0  0  0  0  0  0
  141.3210   78.9680  220.0540 N   0  0  0  0  0  0  0  0  0  0  0  0
  141.4430   79.5970  221.3650 C   0  0  0  0  0  0  0  0  0  0  0  0
  142.5200   79.3080  222.1850 C   0  0  0  0  0  0  0  0  0  0  0  0
  142.5560   79.9370  223.4090 C   0  0  0  0  0  0  0  0  0  0  0  0
  141.5900   80.8200  223.8430 C   0  0  0  0  0  0  0  0  0  0  0  0
  140.5280   81.0840  222.9960 C   0  0  0  0  0  0  0  0  0  0  0  0
  140.4360   80.4800  221.7480 C   0  0  0  0  0  0  0  0  0  0  0  0
  141.0340   77.5610  220.0590 C   0  0  0  0  0  0  0  0  0  0  0  0
  142.3430   76.7970  220.1020 C   0  0  0  0  0  0  0  0  0  0  0  0
  142.1860   75.3250  220.3340 C   0  0  0  0  0  0  0  0  0  0  0  0
  141.0660   75.0750  221.2280 N   0  0  0  0  0  0  0  0  0  0  0  0
  140.4650   73.8040  221.1800 C   0  0  0  0  0  0  0  0  0  0  0  0
  140.9520   72.9670  220.3620 O   0  0  0  0  0  0  0  0  0  0  0  0
  139.3180   73.3520  221.9930 C   0  0  0  0  0  0  0  0  0  0  0  0
  139.5820   71.9370  222.4320 C   0  0  1  0  0  0  0  0  0  0  0  0
  140.4260   71.8900  223.7000 C   0  0  0  0  0  0  0  0  0  0  0  0
  139.9340   70.5520  224.2720 C   0  0  1  0  0  0  0  0  0  0  0  0
  140.3180   70.3730  225.6810 C   0  0  0  0  0  0  0  0  0  0  0  0
  140.6760   71.5090  226.3940 C   0  0  0  0  0  0  0  0  0  0  0  0
  141.0430   71.3560  227.7340 C   0  0  0  0  0  0  0  0  0  0  0  0
  141.0480   70.1060  228.3240 C   0  0  0  0  0  0  0  0  0  0  0  0
  140.6920   68.9720  227.6150 C   0  0  0  0  0  0  0  0  0  0  0  0
  140.3270   69.1330  226.2810 C   0  0  0  0  0  0  0  0  0  0  0  0
  138.4660   70.6430  224.0180 C   0  0  0  0  0  0  0  0  0  0  0  0
  138.3670   71.2460  222.7180 N   0  0  0  0  0  0  0  0  0  0  0  0
  138.1020   70.2180  221.7480 C   0  0  0  0  0  0  0  0  0  0  0  0
  140.6670   76.1660  222.0890 C   0  0  0  0  0  0  0  0  0  0  0  0
  140.0760   77.2190  221.1420 C   0  0  0  0  0  0  0  0  0  0  0  0
  142.4996   77.7087  217.8498 H   0  0  0  0  0  0  0  0  0  0  0  0
  141.6251   78.5527  216.5271 H   0  0  0  0  0  0  0  0  0  0  0  0
  143.4207   78.5016  216.5271 H   0  0  0  0  0  0  0  0  0  0  0  0
  143.5356   79.9636  218.4666 H   0  0  0  0  0  0  0  0  0  0  0  0
  142.4153   80.7258  217.2955 H   0  0  0  0  0  0  0  0  0  0  0  0
  143.3099   78.6087  221.8733 H   0  0  0  0  0  0  0  0  0  0  0  0
  143.4026   79.7233  224.0781 H   0  0  0  0  0  0  0  0  0  0  0  0
  141.6612   81.2991  224.8306 H   0  0  0  0  0  0  0  0  0  0  0  0
  139.7427   81.7845  223.3164 H   0  0  0  0  0  0  0  0  0  0  0  0
  139.5892   80.6938  221.0792 H   0  0  0  0  0  0  0  0  0  0  0  0
  140.5206   77.2594  219.1341 H   0  0  0  0  0  0  0  0  0  0  0  0
  142.8591   76.9420  219.1415 H   0  0  0  0  0  0  0  0  0  0  0  0
  142.9131   77.1931  220.9553 H   0  0  0  0  0  0  0  0  0  0  0  0
  142.0028   74.8229  219.3726 H   0  0  0  0  0  0  0  0  0  0  0  0
  143.1061   74.9333  220.7923 H   0  0  0  0  0  0  0  0  0  0  0  0
  139.2074   74.0009  222.8743 H   0  0  0  0  0  0  0  0  0  0  0  0
  138.3911   73.4002  221.4026 H   0  0  0  0  0  0  0  0  0  0  0  0
  140.1151   71.4581  221.5975 H   0  0  0  0  0  0  0  0  0  0  0  0
  141.5030   71.8714  223.4773 H   0  0  0  0  0  0  0  0  0  0  0  0
  140.3198   72.7564  224.3694 H   0  0  0  0  0  0  0  0  0  0  0  0
  140.3785   69.6565  223.8133 H   0  0  0  0  0  0  0  0  0  0  0  0
  140.6710   72.5008  225.9182 H   0  0  0  0  0  0  0  0  0  0  0  0
  141.3305   72.2385  228.3244 H   0  0  0  0  0  0  0  0  0  0  0  0
  141.3413   70.0105  229.3799 H   0  0  0  0  0  0  0  0  0  0  0  0
  140.6972   67.9791  228.0884 H   0  0  0  0  0  0  0  0  0  0  0  0
  140.0391   68.2494  225.6925 H   0  0  0  0  0  0  0  0  0  0  0  0
  138.0076   69.6430  224.0196 H   0  0  0  0  0  0  0  0  0  0  0  0
  137.9411   71.2231  224.7912 H   0  0  0  0  0  0  0  0  0  0  0  0
  137.8598   69.2785  222.2663 H   0  0  0  0  0  0  0  0  0  0  0  0
  137.2520   70.5188  221.1179 H   0  0  0  0  0  0  0  0  0  0  0  0
  138.9915   70.0704  221.1179 H   0  0  0  0  0  0  0  0  0  0  0  0
  139.9115   75.8303  222.8146 H   0  0  0  0  0  0  0  0  0  0  0  0
  141.5100   76.5616  222.6746 H   0  0  0  0  0  0  0  0  0  0  0  0
  139.1535   76.8217  220.6936 H   0  0  0  0  0  0  0  0  0  0  0  0
  139.8629   78.1297  221.7209 H   0  0  0  0  0  0  0  0  0  0  0  0
  1  2  1  0
  2  3  1  0
  3  4  2  0
  3  5  1  0
  5  6  1  0
  6  7  2  0
  7  8  1  0
  8  9  2  0
  9 10  1  0
 10 11  2  0
  5 12  1  0
 12 13  1  0
 13 14  1  0
 14 15  1  0
 15 16  1  0
 16 17  2  0
 16 18  1  0
 18 19  1  0
 19 20  1  0
 20 21  1  0
 21 22  1  0
 22 23  2  0
 23 24  1  0
 24 25  2  0
 25 26  1  0
 26 27  2  0
 21 28  1  0
 28 29  1  0
 29 30  1  0
 15 31  1  0
 31 32  1  0
 11  6  1  0
 32 12  1  0
 29 19  1  0
 27 22  1  0
  1 33  1  0
  1 34  1  0
  1 35  1  0
  2 36  1  0
  2 37  1  0
  7 38  1  0
  8 39  1  0
  9 40  1  0
 10 41  1  0
 11 42  1  0
 12 43  1  0
 13 44  1  0
 13 45  1  0
 14 46  1  0
 14 47  1  0
 18 48  1  0
 18 49  1  0
 19 50  1  6
 20 51  1  0
 20 52  1  0
 21 53  1  6
 23 54  1  0
 24 55  1  0
 25 56  1  0
 26 57  1  0
 27 58  1  0
 28 59  1  0
 28 60  1  0
 30 61  1  0
 30 62  1  0
 30 63  1  0
 31 64  1  0
 31 65  1  0
 32 66  1  0
 32 67  1  0
M  END
>  <smiles>  (26) 
CCC(=O)N(c1ccccc1)C1CCN(C(=O)C[C@H]2C[C@@H](c3ccccc3)CN2C)CC1

>  <score_type>  (26) 
oracle

>  <origin>  (26) 
autodockgpu

>  <m_score__min__energy>  (26) 
-8.6500000000000004

>  <m_primary>  (26) 
energy

>  <rmsd>  (26) 
3.189497585528927

>  <m_score__min__rmsd>  (26) 
3.189497585528927

>  <meeko>  (26) 
{"free_energy": -8.54, "intermolecular_energy": -10.63, "internal_energy": -1.68, "cluster_size": 21, "cluster_id": 2, "rank_in_cluster": 4}

>  <energy>  (26) 
-8.09

>  <cluster_rmsd>  (26) 
1.87

>  <cluster>  (26) 
2

$$$$

     RDKit          3D

 67 70  0  0  0  0  0  0  0  0999 V2000
  146.7130   73.3090  221.9860 C   0  0  0  0  0  0  0  0  0  0  0  0
  146.0830   74.1360  220.8640 C   0  0  0  0  0  0  0  0  0  0  0  0
  145.5670   73.2210  219.8320 C   0  0  0  0  0  0  0  0  0  0  0  0
  146.3190   73.0920  218.7960 O   0  0  0  0  0  0  0  0  0  0  0  0
  144.3880   72.4820  219.8170 N   0  0  0  0  0  0  0  0  0  0  0  0
  144.4110   71.3080  218.9510 C   0  0  0  0  0  0  0  0  0  0  0  0
  144.9500   70.1140  219.4010 C   0  0  0  0  0  0  0  0  0  0  0  0
  144.9410   69.0570  218.5190 C   0  0  0  0  0  0  0  0  0  0  0  0
  144.4320   69.1330  217.2390 C   0  0  0  0  0  0  0  0  0  0  0  0
  143.9030   70.3430  216.8260 C   0  0  0  0  0  0  0  0  0  0  0  0
  143.8830   71.4460  217.6710 C   0  0  0  0  0  0  0  0  0  0  0  0
  143.1670   72.7030  220.5390 C   0  0  0  0  0  0  0  0  0  0  0  0
  142.6110   74.0590  220.1510 C   0  0  0  0  0  0  0  0  0  0  0  0
  141.2270   74.3220  220.6620 C   0  0  0  0  0  0  0  0  0  0  0  0
  140.4510   73.0920  220.6660 N   0  0  0  0  0  0  0  0  0  0  0  0
  139.3450   73.0210  221.5320 C   0  0  0  0  0  0  0  0  0  0  0  0
  139.1040   74.0430  222.2440 O   0  0  0  0  0  0  0  0  0  0  0  0
  138.4380   71.8670  221.6930 C   0  0  0  0  0  0  0  0  0  0  0  0
  139.1500   70.8190  222.5050 C   0  0  1  0  0  0  0  0  0  0  0  0
  139.9830   71.4420  223.6190 C   0  0  0  0  0  0  0  0  0  0  0  0
  139.9570   70.2800  224.6230 C   0  0  1  0  0  0  0  0  0  0  0  0
  140.3990   70.6920  225.9640 C   0  0  0  0  0  0  0  0  0  0  0  0
  141.0600   71.9080  226.0720 C   0  0  0  0  0  0  0  0  0  0  0  0
  141.4870   72.3140  227.3390 C   0  0  0  0  0  0  0  0  0  0  0  0
  141.2550   71.5210  228.4480 C   0  0  0  0  0  0  0  0  0  0  0  0
  140.5950   70.3090  228.3430 C   0  0  0  0  0  0  0  0  0  0  0  0
  140.1730   69.9120  227.0770 C   0  0  0  0  0  0  0  0  0  0  0  0
  138.5340   69.8390  224.5290 C   0  0  0  0  0  0  0  0  0  0  0  0
  138.2270   69.9280  223.1280 N   0  0  0  0  0  0  0  0  0  0  0  0
  138.2910   68.6110  222.5540 C   0  0  0  0  0  0  0  0  0  0  0  0
  140.8920   72.0450  219.7720 C   0  0  0  0  0  0  0  0  0  0  0  0
  142.2280   71.5660  220.3550 C   0  0  0  0  0  0  0  0  0  0  0  0
  146.4030   73.7159  222.9598 H   0  0  0  0  0  0  0  0  0  0  0  0
  146.3801   72.2639  221.9025 H   0  0  0  0  0  0  0  0  0  0  0  0
  147.8090   73.3525  221.9025 H   0  0  0  0  0  0  0  0  0  0  0  0
  145.2575   74.7399  221.2687 H   0  0  0  0  0  0  0  0  0  0  0  0
  146.8368   74.8066  220.4257 H   0  0  0  0  0  0  0  0  0  0  0  0
  145.3654   70.0151  220.4147 H   0  0  0  0  0  0  0  0  0  0  0  0
  145.3633   68.0980  218.8536 H   0  0  0  0  0  0  0  0  0  0  0  0
  144.4463   68.2607  216.5690 H   0  0  0  0  0  0  0  0  0  0  0  0
  143.4907   70.4335  215.8102 H   0  0  0  0  0  0  0  0  0  0  0  0
  143.4601   72.4047  217.3362 H   0  0  0  0  0  0  0  0  0  0  0  0
  143.3490   72.7333  221.6234 H   0  0  0  0  0  0  0  0  0  0  0  0
  143.2804   74.8344  220.5519 H   0  0  0  0  0  0  0  0  0  0  0  0
  142.5519   74.0750  219.0527 H   0  0  0  0  0  0  0  0  0  0  0  0
  141.2870   74.7171  221.6868 H   0  0  0  0  0  0  0  0  0  0  0  0
  140.7351   75.0546  220.0053 H   0  0  0  0  0  0  0  0  0  0  0  0
  137.5221   72.1830  222.2139 H   0  0  0  0  0  0  0  0  0  0  0  0
  138.1606   71.4615  220.7088 H   0  0  0  0  0  0  0  0  0  0  0  0
  139.7960   70.2781  221.7978 H   0  0  0  0  0  0  0  0  0  0  0  0
  141.0051   71.6765  223.2869 H   0  0  0  0  0  0  0  0  0  0  0  0
  139.6133   72.4045  224.0022 H   0  0  0  0  0  0  0  0  0  0  0  0
  140.6593   69.4613  224.4076 H   0  0  0  0  0  0  0  0  0  0  0  0
  141.2423   72.5337  225.1859 H   0  0  0  0  0  0  0  0  0  0  0  0
  142.0126   73.2733  227.4554 H   0  0  0  0  0  0  0  0  0  0  0  0
  141.6025   71.8608  229.4348 H   0  0  0  0  0  0  0  0  0  0  0  0
  140.4105   69.6820  229.2278 H   0  0  0  0  0  0  0  0  0  0  0  0
  139.6467   68.9529  226.9627 H   0  0  0  0  0  0  0  0  0  0  0  0
  138.4218   68.8052  224.8877 H   0  0  0  0  0  0  0  0  0  0  0  0
  137.8619   70.4529  225.1466 H   0  0  0  0  0  0  0  0  0  0  0  0
  138.3274   67.8617  223.3585 H   0  0  0  0  0  0  0  0  0  0  0  0
  137.4002   68.4383  221.9322 H   0  0  0  0  0  0  0  0  0  0  0  0
  139.1944   68.5255  221.9322 H   0  0  0  0  0  0  0  0  0  0  0  0
  140.1622   71.2223  219.7495 H   0  0  0  0  0  0  0  0  0  0  0  0
  140.9955   72.4007  218.7363 H   0  0  0  0  0  0  0  0  0  0  0  0
  142.0450   71.0893  221.3293 H   0  0  0  0  0  0  0  0  0  0  0  0
  142.6793   70.8487  219.6537 H   0  0  0  0  0  0  0  0  0  0  0  0
  1  2  1  0
  2  3  1  0
  3  4  2  0
  3  5  1  0
  5  6  1  0
  6  7  2  0
  7  8  1  0
  8  9  2  0
  9 10  1  0
 10 11  2  0
  5 12  1  0
 12 13  1  0
 13 14  1  0
 14 15  1  0
 15 16  1  0
 16 17  2  0
 16 18  1  0
 18 19  1  0
 19 20  1  0
 20 21  1  0
 21 22  1  0
 22 23  2  0
 23 24  1  0
 24 25  2  0
 25 26  1  0
 26 27  2  0
 21 28  1  0
 28 29  1  0
 29 30  1  0
 15 31  1  0
 31 32  1  0
 11  6  1  0
 32 12  1  0
 29 19  1  0
 27 22  1  0
  1 33  1  0
  1 34  1  0
  1 35  1  0
  2 36  1  0
  2 37  1  0
  7 38  1  0
  8 39  1  0
  9 40  1  0
 10 41  1  0
 11 42  1  0
 12 43  1  0
 13 44  1  0
 13 45  1  0
 14 46  1  0
 14 47  1  0
 18 48  1  0
 18 49  1  0
 19 50  1  6
 20 51  1  0
 20 52  1  0
 21 53  1  6
 23 54  1  0
 24 55  1  0
 25 56  1  0
 26 57  1  0
 27 58  1  0
 28 59  1  0
 28 60  1  0
 30 61  1  0
 30 62  1  0
 30 63  1  0
 31 64  1  0
 31 65  1  0
 32 66  1  0
 32 67  1  0
M  END
>  <smiles>  (27) 
CCC(=O)N(c1ccccc1)C1CCN(C(=O)C[C@H]2C[C@@H](c3ccccc3)CN2C)CC1

>  <score_type>  (27) 
oracle

>  <origin>  (27) 
autodockgpu

>  <m_score__min__energy>  (27) 
-8.6500000000000004

>  <m_primary>  (27) 
energy

>  <rmsd>  (27) 
2.6626179396214393

>  <m_score__min__rmsd>  (27) 
2.6626179396214393

>  <meeko>  (27) 
{"free_energy": -8.5, "intermolecular_energy": -10.59, "internal_energy": -2.01, "cluster_size": 11, "cluster_id": 1, "rank_in_cluster": 2}

>  <energy>  (27) 
-8.09

>  <cluster_rmsd>  (27) 
1.75

>  <cluster>  (27) 
2

$$$$

     RDKit          3D

 67 70  0  0  0  0  0  0  0  0999 V2000
  143.4880   72.5690  215.8960 C   0  0  0  0  0  0  0  0  0  0  0  0
  144.6150   71.6030  216.2650 C   0  0  0  0  0  0  0  0  0  0  0  0
  144.9420   71.7780  217.6900 C   0  0  0  0  0  0  0  0  0  0  0  0
  145.9140   72.5880  217.9280 O   0  0  0  0  0  0  0  0  0  0  0  0
  144.3560   71.1940  218.8090 N   0  0  0  0  0  0  0  0  0  0  0  0
  144.7220   69.8000  219.0360 C   0  0  0  0  0  0  0  0  0  0  0  0
  146.0300   69.4560  219.3310 C   0  0  0  0  0  0  0  0  0  0  0  0
  146.2930   68.1180  219.5230 C   0  0  0  0  0  0  0  0  0  0  0  0
  145.3340   67.1310  219.4340 C   0  0  0  0  0  0  0  0  0  0  0  0
  144.0380   67.5140  219.1370 C   0  0  0  0  0  0  0  0  0  0  0  0
  143.7100   68.8490  218.9340 C   0  0  0  0  0  0  0  0  0  0  0  0
  143.4610   71.7710  219.7710 C   0  0  0  0  0  0  0  0  0  0  0  0
  143.4770   73.2790  219.6090 C   0  0  0  0  0  0  0  0  0  0  0  0
  142.4230   73.9920  220.4010 C   0  0  0  0  0  0  0  0  0  0  0  0
  141.2110   73.1900  220.4570 N   0  0  0  0  0  0  0  0  0  0  0  0
  140.3160   73.4350  221.5140 C   0  0  0  0  0  0  0  0  0  0  0  0
  140.6330   74.3440  222.3390 O   0  0  0  0  0  0  0  0  0  0  0  0
  139.0400   72.7310  221.7550 C   0  0  0  0  0  0  0  0  0  0  0  0
  139.3530   71.3820  222.3470 C   0  0  1  0  0  0  0  0  0  0  0  0
  140.2490   71.5020  223.5740 C   0  0  0  0  0  0  0  0  0  0  0  0
  139.8100   70.2340  224.3210 C   0  0  1  0  0  0  0  0  0  0  0  0
  140.2550   70.2300  225.7230 C   0  0  0  0  0  0  0  0  0  0  0  0
  140.6650   71.4410  226.2650 C   0  0  0  0  0  0  0  0  0  0  0  0
  141.0910   71.4540  227.5960 C   0  0  0  0  0  0  0  0  0  0  0  0
  141.1020   70.2920  228.3440 C   0  0  0  0  0  0  0  0  0  0  0  0
  140.6930   69.0840  227.8060 C   0  0  0  0  0  0  0  0  0  0  0  0
  140.2700   69.0790  226.4790 C   0  0  0  0  0  0  0  0  0  0  0  0
  138.3310   70.2680  224.1220 C   0  0  0  0  0  0  0  0  0  0  0  0
  138.1660   70.7100  222.7650 N   0  0  0  0  0  0  0  0  0  0  0  0
  137.8830   69.5690  221.9360 C   0  0  0  0  0  0  0  0  0  0  0  0
  141.0350   72.2060  219.4130 C   0  0  0  0  0  0  0  0  0  0  0  0
  142.1140   71.1490  219.6820 C   0  0  0  0  0  0  0  0  0  0  0  0
  143.0279   72.9634  216.8140 H   0  0  0  0  0  0  0  0  0  0  0  0
  143.8973   73.4011  215.3043 H   0  0  0  0  0  0  0  0  0  0  0  0
  142.7283   72.0372  215.3043 H   0  0  0  0  0  0  0  0  0  0  0  0
  144.2887   70.5681  216.0849 H   0  0  0  0  0  0  0  0  0  0  0  0
  145.5025   71.8113  215.6494 H   0  0  0  0  0  0  0  0  0  0  0  0
  146.8219   70.2156  219.4084 H   0  0  0  0  0  0  0  0  0  0  0  0
  147.3249   67.8201  219.7604 H   0  0  0  0  0  0  0  0  0  0  0  0
  145.5910   66.0735  219.5940 H   0  0  0  0  0  0  0  0  0  0  0  0
  143.2528   66.7475  219.0601 H   0  0  0  0  0  0  0  0  0  0  0  0
  142.6775   69.1468  218.6988 H   0  0  0  0  0  0  0  0  0  0  0  0
  143.7946   71.5581  220.7973 H   0  0  0  0  0  0  0  0  0  0  0  0
  144.4611   73.6504  219.9310 H   0  0  0  0  0  0  0  0  0  0  0  0
  143.2703   73.4858  218.5486 H   0  0  0  0  0  0  0  0  0  0  0  0
  142.7914   74.1662  221.4227 H   0  0  0  0  0  0  0  0  0  0  0  0
  142.1965   74.9528  219.9156 H   0  0  0  0  0  0  0  0  0  0  0  0
  138.4211   73.3108  222.4555 H   0  0  0  0  0  0  0  0  0  0  0  0
  138.4862   72.6135  220.8119 H   0  0  0  0  0  0  0  0  0  0  0  0
  139.8618   70.8153  221.5533 H   0  0  0  0  0  0  0  0  0  0  0  0
  141.3162   71.4753  223.3089 H   0  0  0  0  0  0  0  0  0  0  0  0
  140.1515   72.4404  224.1395 H   0  0  0  0  0  0  0  0  0  0  0  0
  140.2553   69.2982  223.9521 H   0  0  0  0  0  0  0  0  0  0  0  0
  140.6548   72.3626  225.6646 H   0  0  0  0  0  0  0  0  0  0  0  0
  141.4209   72.3987  228.0528 H   0  0  0  0  0  0  0  0  0  0  0  0
  141.4431   70.3278  229.3892 H   0  0  0  0  0  0  0  0  0  0  0  0
  140.7017   68.1613  228.4048 H   0  0  0  0  0  0  0  0  0  0  0  0
  139.9401   68.1334  226.0241 H   0  0  0  0  0  0  0  0  0  0  0  0
  137.8958   69.2674  224.2616 H   0  0  0  0  0  0  0  0  0  0  0  0
  137.8247   70.9264  224.8432 H   0  0  0  0  0  0  0  0  0  0  0  0
  137.6670   68.6981  222.5722 H   0  0  0  0  0  0  0  0  0  0  0  0
  137.0111   69.7844  221.3009 H   0  0  0  0  0  0  0  0  0  0  0  0
  138.7545   69.3520  221.3009 H   0  0  0  0  0  0  0  0  0  0  0  0
  140.0319   71.7580  219.4683 H   0  0  0  0  0  0  0  0  0  0  0  0
  141.1270   72.6460  218.4090 H   0  0  0  0  0  0  0  0  0  0  0  0
  141.8898   70.6400  220.6310 H   0  0  0  0  0  0  0  0  0  0  0  0
  142.1150   70.4305  218.8491 H   0  0  0  0  0  0  0  0  0  0  0  0
  1  2  1  0
  2  3  1  0
  3  4  2  0
  3  5  1  0
  5  6  1  0
  6  7  2  0
  7  8  1  0
  8  9  2  0
  9 10  1  0
 10 11  2  0
  5 12  1  0
 12 13  1  0
 13 14  1  0
 14 15  1  0
 15 16  1  0
 16 17  2  0
 16 18  1  0
 18 19  1  0
 19 20  1  0
 20 21  1  0
 21 22  1  0
 22 23  2  0
 23 24  1  0
 24 25  2  0
 25 26  1  0
 26 27  2  0
 21 28  1  0
 28 29  1  0
 29 30  1  0
 15 31  1  0
 31 32  1  0
 11  6  1  0
 32 12  1  0
 29 19  1  0
 27 22  1  0
  1 33  1  0
  1 34  1  0
  1 35  1  0
  2 36  1  0
  2 37  1  0
  7 38  1  0
  8 39  1  0
  9 40  1  0
 10 41  1  0
 11 42  1  0
 12 43  1  0
 13 44  1  0
 13 45  1  0
 14 46  1  0
 14 47  1  0
 18 48  1  0
 18 49  1  0
 19 50  1  6
 20 51  1  0
 20 52  1  0
 21 53  1  6
 23 54  1  0
 24 55  1  0
 25 56  1  0
 26 57  1  0
 27 58  1  0
 28 59  1  0
 28 60  1  0
 30 61  1  0
 30 62  1  0
 30 63  1  0
 31 64  1  0
 31 65  1  0
 32 66  1  0
 32 67  1  0
M  END
>  <smiles>  (28) 
CCC(=O)N(c1ccccc1)C1CCN(C(=O)C[C@H]2C[C@@H](c3ccccc3)CN2C)CC1

>  <score_type>  (28) 
oracle

>  <origin>  (28) 
autodockgpu

>  <m_score__min__energy>  (28) 
-8.6500000000000004

>  <m_primary>  (28) 
energy

>  <rmsd>  (28) 
3.09759871442244

>  <m_score__min__rmsd>  (28) 
3.09759871442244

>  <meeko>  (28) 
{"free_energy": -8.16, "intermolecular_energy": -10.25, "internal_energy": -1.74, "cluster_size": 11, "cluster_id": 1, "rank_in_cluster": 8}

>  <energy>  (28) 
-8.07

>  <cluster_rmsd>  (28) 
1.82

>  <cluster>  (28) 
2

$$$$

     RDKit          3D

 67 70  0  0  0  0  0  0  0  0999 V2000
  138.7940   66.7510  222.4010 C   0  0  0  0  0  0  0  0  0  0  0  0
  138.3630   68.1870  222.0990 C   0  0  0  0  0  0  0  0  0  0  0  0
  138.0620   68.8680  223.3700 C   0  0  0  0  0  0  0  0  0  0  0  0
  136.9220   68.5700  223.8880 O   0  0  0  0  0  0  0  0  0  0  0  0
  138.8270   69.7850  224.0840 N   0  0  0  0  0  0  0  0  0  0  0  0
  139.4610   69.2510  225.2850 C   0  0  0  0  0  0  0  0  0  0  0  0
  139.9410   70.1040  226.2630 C   0  0  0  0  0  0  0  0  0  0  0  0
  140.5330   69.5200  227.3610 C   0  0  0  0  0  0  0  0  0  0  0  0
  140.6660   68.1570  227.5230 C   0  0  0  0  0  0  0  0  0  0  0  0
  140.1740   67.3370  226.5230 C   0  0  0  0  0  0  0  0  0  0  0  0
  139.5660   67.8660  225.3920 C   0  0  0  0  0  0  0  0  0  0  0  0
  139.0890   71.1670  223.7990 C   0  0  0  0  0  0  0  0  0  0  0  0
  140.4120   71.2720  223.0650 C   0  0  0  0  0  0  0  0  0  0  0  0
  140.7000   72.6350  222.5130 C   0  0  0  0  0  0  0  0  0  0  0  0
  139.4680   73.2660  222.0680 N   0  0  0  0  0  0  0  0  0  0  0  0
  139.4480   74.6710  221.9840 C   0  0  0  0  0  0  0  0  0  0  0  0
  140.5140   75.2810  222.2990 O   0  0  0  0  0  0  0  0  0  0  0  0
  138.3020   75.5010  221.5650 C   0  0  0  0  0  0  0  0  0  0  0  0
  138.8380   76.7750  220.9680 C   0  0  1  0  0  0  0  0  0  0  0  0
  139.2120   77.7860  222.0460 C   0  0  0  0  0  0  0  0  0  0  0  0
  140.3080   78.5530  221.2920 C   0  0  1  0  0  0  0  0  0  0  0  0
  141.1150   79.3960  222.1870 C   0  0  0  0  0  0  0  0  0  0  0  0
  140.4430   80.3320  222.9610 C   0  0  0  0  0  0  0  0  0  0  0  0
  141.1950   81.1400  223.8170 C   0  0  0  0  0  0  0  0  0  0  0  0
  142.5690   81.0070  223.8840 C   0  0  0  0  0  0  0  0  0  0  0  0
  143.2420   80.0750  223.1130 C   0  0  0  0  0  0  0  0  0  0  0  0
  142.4850   79.2730  222.2640 C   0  0  0  0  0  0  0  0  0  0  0  0
  141.0460   77.4390  220.6270 C   0  0  0  0  0  0  0  0  0  0  0  0
  140.0150   76.5350  220.1990 N   0  0  0  0  0  0  0  0  0  0  0  0
  139.7800   76.7300  218.7940 C   0  0  0  0  0  0  0  0  0  0  0  0
  138.3660   72.3860  221.7520 C   0  0  0  0  0  0  0  0  0  0  0  0
  137.9360   71.7920  223.1010 C   0  0  0  0  0  0  0  0  0  0  0  0
  138.8385   66.6029  223.4901 H   0  0  0  0  0  0  0  0  0  0  0  0
  138.0665   66.0505  221.9651 H   0  0  0  0  0  0  0  0  0  0  0  0
  139.7870   66.5668  221.9651 H   0  0  0  0  0  0  0  0  0  0  0  0
  139.1757   68.7157  221.5794 H   0  0  0  0  0  0  0  0  0  0  0  0
  137.4704   68.1826  221.4561 H   0  0  0  0  0  0  0  0  0  0  0  0
  139.8539   71.1964  226.1681 H   0  0  0  0  0  0  0  0  0  0  0  0
  140.9214   70.1775  228.1528 H   0  0  0  0  0  0  0  0  0  0  0  0
  141.1474   67.7355  228.4178 H   0  0  0  0  0  0  0  0  0  0  0  0
  140.2662   66.2457  226.6257 H   0  0  0  0  0  0  0  0  0  0  0  0
  139.1772   67.2081  224.6008 H   0  0  0  0  0  0  0  0  0  0  0  0
  139.1950   71.7482  224.7269 H   0  0  0  0  0  0  0  0  0  0  0  0
  141.2174   71.0059  223.7653 H   0  0  0  0  0  0  0  0  0  0  0  0
  140.3525   70.5882  222.2054 H   0  0  0  0  0  0  0  0  0  0  0  0
  141.1633   73.2538  223.2956 H   0  0  0  0  0  0  0  0  0  0  0  0
  141.3841   72.5389  221.6570 H   0  0  0  0  0  0  0  0  0  0  0  0
  137.7051   74.9607  220.8155 H   0  0  0  0  0  0  0  0  0  0  0  0
  137.6599   75.7267  222.4292 H   0  0  0  0  0  0  0  0  0  0  0  0
  138.0327   77.1709  220.3318 H   0  0  0  0  0  0  0  0  0  0  0  0
  138.3651   78.4349  222.3136 H   0  0  0  0  0  0  0  0  0  0  0  0
  139.5168   77.3552  223.0111 H   0  0  0  0  0  0  0  0  0  0  0  0
  139.9436   79.2971  220.5685 H   0  0  0  0  0  0  0  0  0  0  0  0
  139.3494   80.4345  222.9019 H   0  0  0  0  0  0  0  0  0  0  0  0
  140.6889   81.8891  224.4436 H   0  0  0  0  0  0  0  0  0  0  0  0
  143.1400   81.6557  224.5646 H   0  0  0  0  0  0  0  0  0  0  0  0
  144.3357   79.9719  223.1693 H   0  0  0  0  0  0  0  0  0  0  0  0
  142.9927   78.5231  221.6396 H   0  0  0  0  0  0  0  0  0  0  0  0
  141.6198   77.8114  219.7656 H   0  0  0  0  0  0  0  0  0  0  0  0
  141.7741   76.9586  221.2971 H   0  0  0  0  0  0  0  0  0  0  0  0
  138.9402   77.4269  218.6560 H   0  0  0  0  0  0  0  0  0  0  0  0
  140.6835   77.1473  218.3256 H   0  0  0  0  0  0  0  0  0  0  0  0
  139.5365   75.7650  218.3256 H   0  0  0  0  0  0  0  0  0  0  0  0
  137.5388   72.9498  221.2960 H   0  0  0  0  0  0  0  0  0  0  0  0
  138.6515   71.6078  221.0288 H   0  0  0  0  0  0  0  0  0  0  0  0
  137.5247   72.5934  223.7323 H   0  0  0  0  0  0  0  0  0  0  0  0
  137.1762   71.0182  222.9171 H   0  0  0  0  0  0  0  0  0  0  0  0
  1  2  1  0
  2  3  1  0
  3  4  2  0
  3  5  1  0
  5  6  1  0
  6  7  2  0
  7  8  1  0
  8  9  2  0
  9 10  1  0
 10 11  2  0
  5 12  1  0
 12 13  1  0
 13 14  1  0
 14 15  1  0
 15 16  1  0
 16 17  2  0
 16 18  1  0
 18 19  1  0
 19 20  1  0
 20 21  1  0
 21 22  1  0
 22 23  2  0
 23 24  1  0
 24 25  2  0
 25 26  1  0
 26 27  2  0
 21 28  1  0
 28 29  1  0
 29 30  1  0
 15 31  1  0
 31 32  1  0
 11  6  1  0
 32 12  1  0
 29 19  1  0
 27 22  1  0
  1 33  1  0
  1 34  1  0
  1 35  1  0
  2 36  1  0
  2 37  1  0
  7 38  1  0
  8 39  1  0
  9 40  1  0
 10 41  1  0
 11 42  1  0
 12 43  1  0
 13 44  1  0
 13 45  1  0
 14 46  1  0
 14 47  1  0
 18 48  1  0
 18 49  1  0
 19 50  1  6
 20 51  1  0
 20 52  1  0
 21 53  1  6
 23 54  1  0
 24 55  1  0
 25 56  1  0
 26 57  1  0
 27 58  1  0
 28 59  1  0
 28 60  1  0
 30 61  1  0
 30 62  1  0
 30 63  1  0
 31 64  1  0
 31 65  1  0
 32 66  1  0
 32 67  1  0
M  END
>  <smiles>  (29) 
CCC(=O)N(c1ccccc1)C1CCN(C(=O)C[C@H]2C[C@@H](c3ccccc3)CN2C)CC1

>  <score_type>  (29) 
oracle

>  <origin>  (29) 
autodockgpu

>  <m_score__min__energy>  (29) 
-8.6500000000000004

>  <m_primary>  (29) 
energy

>  <rmsd>  (29) 
8.59624176082886

>  <m_score__min__rmsd>  (29) 
8.59624176082886

>  <meeko>  (29) 
{"free_energy": -8.25, "intermolecular_energy": -10.34, "internal_energy": -1.39, "cluster_size": 14, "cluster_id": 3, "rank_in_cluster": 9}

>  <energy>  (29) 
-8.03

>  <cluster_rmsd>  (29) 
1.93

>  <cluster>  (29) 
2

$$$$

     RDKit          3D

 67 70  0  0  0  0  0  0  0  0999 V2000
  136.4820   70.2830  224.2090 C   0  0  0  0  0  0  0  0  0  0  0  0
  137.1340   68.9300  223.9180 C   0  0  0  0  0  0  0  0  0  0  0  0
  138.5710   69.0200  224.2280 C   0  0  0  0  0  0  0  0  0  0  0  0
  139.1360   67.8990  224.5120 O   0  0  0  0  0  0  0  0  0  0  0  0
  139.3990   70.1370  224.2610 N   0  0  0  0  0  0  0  0  0  0  0  0
  139.8990   70.4920  225.5850 C   0  0  0  0  0  0  0  0  0  0  0  0
  140.7370   71.5820  225.7500 C   0  0  0  0  0  0  0  0  0  0  0  0
  141.1710   71.8430  227.0310 C   0  0  0  0  0  0  0  0  0  0  0  0
  140.8170   71.0860  228.1270 C   0  0  0  0  0  0  0  0  0  0  0  0
  139.9780   70.0040  227.9220 C   0  0  0  0  0  0  0  0  0  0  0  0
  139.5070   69.6900  226.6530 C   0  0  0  0  0  0  0  0  0  0  0  0
  139.8370   70.9750  223.1810 C   0  0  0  0  0  0  0  0  0  0  0  0
  139.9660   70.1290  221.9290 C   0  0  0  0  0  0  0  0  0  0  0  0
  140.2020   70.9200  220.6780 C   0  0  0  0  0  0  0  0  0  0  0  0
  139.4830   72.1820  220.7390 N   0  0  0  0  0  0  0  0  0  0  0  0
  139.9450   73.2350  219.9290 C   0  0  0  0  0  0  0  0  0  0  0  0
  140.9550   73.0000  219.1990 O   0  0  0  0  0  0  0  0  0  0  0  0
  139.3650   74.5910  219.8490 C   0  0  0  0  0  0  0  0  0  0  0  0
  139.4750   75.2300  221.2080 C   0  0  1  0  0  0  0  0  0  0  0  0
  140.7180   76.1040  221.3190 C   0  0  0  0  0  0  0  0  0  0  0  0
  140.2200   77.1060  222.3710 C   0  0  1  0  0  0  0  0  0  0  0  0
  141.0780   78.2970  222.4580 C   0  0  0  0  0  0  0  0  0  0  0  0
  141.5680   78.6410  223.7110 C   0  0  0  0  0  0  0  0  0  0  0  0
  142.3850   79.7700  223.8110 C   0  0  0  0  0  0  0  0  0  0  0  0
  142.6920   80.5180  222.6890 C   0  0  0  0  0  0  0  0  0  0  0  0
  142.2060   80.1760  221.4390 C   0  0  0  0  0  0  0  0  0  0  0  0
  141.3930   79.0500  221.3490 C   0  0  0  0  0  0  0  0  0  0  0  0
  138.8250   77.3570  221.9050 C   0  0  0  0  0  0  0  0  0  0  0  0
  138.3540   76.0680  221.4820 N   0  0  0  0  0  0  0  0  0  0  0  0
  137.5190   75.5160  222.5140 C   0  0  0  0  0  0  0  0  0  0  0  0
  138.3510   72.2410  221.6350 C   0  0  0  0  0  0  0  0  0  0  0  0
  138.9580   72.1650  223.0430 C   0  0  0  0  0  0  0  0  0  0  0  0
  136.4114   70.4296  225.2969 H   0  0  0  0  0  0  0  0  0  0  0  0
  137.0920   71.0860  223.7697 H   0  0  0  0  0  0  0  0  0  0  0  0
  135.4738   70.3062  223.7697 H   0  0  0  0  0  0  0  0  0  0  0  0
  136.6688   68.1533  224.5427 H   0  0  0  0  0  0  0  0  0  0  0  0
  136.9955   68.6682  222.8586 H   0  0  0  0  0  0  0  0  0  0  0  0
  141.0414   72.2092  224.8991 H   0  0  0  0  0  0  0  0  0  0  0  0
  141.8375   72.7039  227.1880 H   0  0  0  0  0  0  0  0  0  0  0  0
  141.1891   71.3335  229.1321 H   0  0  0  0  0  0  0  0  0  0  0  0
  139.6790   69.3820  228.7786 H   0  0  0  0  0  0  0  0  0  0  0  0
  138.8408   68.8289  226.4963 H   0  0  0  0  0  0  0  0  0  0  0  0
  140.8337   71.3934  223.3849 H   0  0  0  0  0  0  0  0  0  0  0  0
  140.8105   69.4373  222.0649 H   0  0  0  0  0  0  0  0  0  0  0  0
  139.0065   69.6072  221.7983 H   0  0  0  0  0  0  0  0  0  0  0  0
  141.2785   71.1198  220.5721 H   0  0  0  0  0  0  0  0  0  0  0  0
  139.8406   70.3423  219.8145 H   0  0  0  0  0  0  0  0  0  0  0  0
  139.9179   75.1896  219.1101 H   0  0  0  0  0  0  0  0  0  0  0  0
  138.3111   74.5361  219.5389 H   0  0  0  0  0  0  0  0  0  0  0  0
  139.5238   74.3990  221.9270 H   0  0  0  0  0  0  0  0  0  0  0  0
  141.5908   75.5355  221.6727 H   0  0  0  0  0  0  0  0  0  0  0  0
  141.0685   76.5469  220.3751 H   0  0  0  0  0  0  0  0  0  0  0  0
  140.2501   76.7453  223.4098 H   0  0  0  0  0  0  0  0  0  0  0  0
  141.3200   78.0417  224.5995 H   0  0  0  0  0  0  0  0  0  0  0  0
  142.7876   80.0665  224.7908 H   0  0  0  0  0  0  0  0  0  0  0  0
  143.3362   81.4036  222.7922 H   0  0  0  0  0  0  0  0  0  0  0  0
  142.4534   80.7727  220.5487 H   0  0  0  0  0  0  0  0  0  0  0  0
  140.9923   78.7544  220.3681 H   0  0  0  0  0  0  0  0  0  0  0  0
  138.2049   77.7485  222.7249 H   0  0  0  0  0  0  0  0  0  0  0  0
  138.7794   78.1056  221.1003 H   0  0  0  0  0  0  0  0  0  0  0  0
  137.9271   75.7858  223.4993 H   0  0  0  0  0  0  0  0  0  0  0  0
  136.5002   75.9192  222.4162 H   0  0  0  0  0  0  0  0  0  0  0  0
  137.4908   74.4207  222.4162 H   0  0  0  0  0  0  0  0  0  0  0  0
  137.8002   73.1837  221.5013 H   0  0  0  0  0  0  0  0  0  0  0  0
  137.6327   71.4289  221.4491 H   0  0  0  0  0  0  0  0  0  0  0  0
  139.5503   73.0731  223.2287 H   0  0  0  0  0  0  0  0  0  0  0  0
  138.1395   72.0824  223.7732 H   0  0  0  0  0  0  0  0  0  0  0  0
  1  2  1  0
  2  3  1  0
  3  4  2  0
  3  5  1  0
  5  6  1  0
  6  7  2  0
  7  8  1  0
  8  9  2  0
  9 10  1  0
 10 11  2  0
  5 12  1  0
 12 13  1  0
 13 14  1  0
 14 15  1  0
 15 16  1  0
 16 17  2  0
 16 18  1  0
 18 19  1  0
 19 20  1  0
 20 21  1  0
 21 22  1  0
 22 23  2  0
 23 24  1  0
 24 25  2  0
 25 26  1  0
 26 27  2  0
 21 28  1  0
 28 29  1  0
 29 30  1  0
 15 31  1  0
 31 32  1  0
 11  6  1  0
 32 12  1  0
 29 19  1  0
 27 22  1  0
  1 33  1  0
  1 34  1  0
  1 35  1  0
  2 36  1  0
  2 37  1  0
  7 38  1  0
  8 39  1  0
  9 40  1  0
 10 41  1  0
 11 42  1  0
 12 43  1  0
 13 44  1  0
 13 45  1  0
 14 46  1  0
 14 47  1  0
 18 48  1  0
 18 49  1  0
 19 50  1  1
 20 51  1  0
 20 52  1  0
 21 53  1  1
 23 54  1  0
 24 55  1  0
 25 56  1  0
 26 57  1  0
 27 58  1  0
 28 59  1  0
 28 60  1  0
 30 61  1  0
 30 62  1  0
 30 63  1  0
 31 64  1  0
 31 65  1  0
 32 66  1  0
 32 67  1  0
M  END
>  <smiles>  (30) 
CCC(=O)N(c1ccccc1)C1CCN(C(=O)C[C@H]2C[C@@H](c3ccccc3)CN2C)CC1

>  <score_type>  (30) 
oracle

>  <origin>  (30) 
autodockgpu

>  <m_score__min__energy>  (30) 
-8.6500000000000004

>  <m_primary>  (30) 
energy

>  <rmsd>  (30) 
7.476230533376901

>  <m_score__min__rmsd>  (30) 
7.476230533376901

>  <meeko>  (30) 
{"free_energy": -8.06, "intermolecular_energy": -10.15, "internal_energy": -1.89, "cluster_size": 14, "cluster_id": 3, "rank_in_cluster": 12}

>  <energy>  (30) 
-8.02

>  <cluster_rmsd>  (30) 
1.88

>  <cluster>  (30) 
2

$$$$

     RDKit          3D

 67 70  0  0  0  0  0  0  0  0999 V2000
  138.0130   80.7990  224.0850 C   0  0  0  0  0  0  0  0  0  0  0  0
  137.3300   80.1730  222.8690 C   0  0  0  0  0  0  0  0  0  0  0  0
  138.3400   79.9490  221.8210 C   0  0  0  0  0  0  0  0  0  0  0  0
  138.2090   80.6890  220.7750 O   0  0  0  0  0  0  0  0  0  0  0  0
  139.4060   79.0570  221.7980 N   0  0  0  0  0  0  0  0  0  0  0  0
  140.6460   79.5670  222.3760 C   0  0  0  0  0  0  0  0  0  0  0  0
  141.4350   80.4580  221.6680 C   0  0  0  0  0  0  0  0  0  0  0  0
  142.5920   80.8850  222.2800 C   0  0  0  0  0  0  0  0  0  0  0  0
  142.9890   80.4730  223.5350 C   0  0  0  0  0  0  0  0  0  0  0  0
  142.1740   79.5820  224.2110 C   0  0  0  0  0  0  0  0  0  0  0  0
  140.9930   79.1160  223.6460 C   0  0  0  0  0  0  0  0  0  0  0  0
  139.4540   77.7100  221.3030 C   0  0  0  0  0  0  0  0  0  0  0  0
  140.9060   77.2990  221.1490 C   0  0  0  0  0  0  0  0  0  0  0  0
  141.1010   75.8430  220.8510 C   0  0  0  0  0  0  0  0  0  0  0  0
  140.0980   75.0500  221.5430 N   0  0  0  0  0  0  0  0  0  0  0  0
  139.8070   73.7740  221.0280 C   0  0  0  0  0  0  0  0  0  0  0  0
  140.4500   73.4070  219.9990 O   0  0  0  0  0  0  0  0  0  0  0  0
  138.8210   72.8190  221.5740 C   0  0  0  0  0  0  0  0  0  0  0  0
  139.5730   71.6710  222.1930 C   0  0  1  0  0  0  0  0  0  0  0  0
  140.1970   72.0630  223.5270 C   0  0  0  0  0  0  0  0  0  0  0  0
  140.2150   70.6840  224.2030 C   0  0  1  0  0  0  0  0  0  0  0  0
  140.4570   70.7760  225.6510 C   0  0  0  0  0  0  0  0  0  0  0  0
  141.0810   71.9240  226.1220 C   0  0  0  0  0  0  0  0  0  0  0  0
  141.3180   72.0260  227.4950 C   0  0  0  0  0  0  0  0  0  0  0  0
  140.9410   71.0100  228.3530 C   0  0  0  0  0  0  0  0  0  0  0  0
  140.3190   69.8650  227.8860 C   0  0  0  0  0  0  0  0  0  0  0  0
  140.0860   69.7710  226.5170 C   0  0  0  0  0  0  0  0  0  0  0  0
  138.8790   70.1450  223.8130 C   0  0  0  0  0  0  0  0  0  0  0  0
  138.7110   70.5630  222.4490 N   0  0  0  0  0  0  0  0  0  0  0  0
  139.0050   69.4520  221.5840 C   0  0  0  0  0  0  0  0  0  0  0  0
  139.4830   75.6520  222.7040 C   0  0  0  0  0  0  0  0  0  0  0  0
  138.6350   76.8040  222.1490 C   0  0  0  0  0  0  0  0  0  0  0  0
  137.5687   80.3918  225.0052 H   0  0  0  0  0  0  0  0  0  0  0  0
  139.0877   80.5657  224.0624 H   0  0  0  0  0  0  0  0  0  0  0  0
  137.8740   81.8900  224.0624 H   0  0  0  0  0  0  0  0  0  0  0  0
  136.8740   79.2135  223.1542 H   0  0  0  0  0  0  0  0  0  0  0  0
  136.5446   80.8456  222.4938 H   0  0  0  0  0  0  0  0  0  0  0  0
  141.1509   80.8079  220.6646 H   0  0  0  0  0  0  0  0  0  0  0  0
  143.2353   81.5939  221.7381 H   0  0  0  0  0  0  0  0  0  0  0  0
  143.9234   80.8408  223.9841 H   0  0  0  0  0  0  0  0  0  0  0  0
  142.4663   79.2364  225.2136 H   0  0  0  0  0  0  0  0  0  0  0  0
  140.3488   78.4086  224.1888 H   0  0  0  0  0  0  0  0  0  0  0  0
  138.9965   77.6396  220.3051 H   0  0  0  0  0  0  0  0  0  0  0  0
  141.3447   77.8820  220.3258 H   0  0  0  0  0  0  0  0  0  0  0  0
  141.3952   77.4937  222.1148 H   0  0  0  0  0  0  0  0  0  0  0  0
  141.0099   75.6786  219.7672 H   0  0  0  0  0  0  0  0  0  0  0  0
  142.1002   75.5370  221.1946 H   0  0  0  0  0  0  0  0  0  0  0  0
  138.2046   73.3157  222.3378 H   0  0  0  0  0  0  0  0  0  0  0  0
  138.1610   72.4540  220.7733 H   0  0  0  0  0  0  0  0  0  0  0  0
  140.3542   71.3972  221.4686 H   0  0  0  0  0  0  0  0  0  0  0  0
  141.2098   72.4740  223.4029 H   0  0  0  0  0  0  0  0  0  0  0  0
  139.6684   72.8528  224.0809 H   0  0  0  0  0  0  0  0  0  0  0  0
  141.0356   70.0216  223.8902 H   0  0  0  0  0  0  0  0  0  0  0  0
  141.3797   72.7290  225.4344 H   0  0  0  0  0  0  0  0  0  0  0  0
  141.8096   72.9240  227.8974 H   0  0  0  0  0  0  0  0  0  0  0  0
  141.1395   71.1136  229.4300 H   0  0  0  0  0  0  0  0  0  0  0  0
  140.0198   69.0587  228.5718 H   0  0  0  0  0  0  0  0  0  0  0  0
  139.5937   68.8724  226.1169 H   0  0  0  0  0  0  0  0  0  0  0  0
  138.8645   69.0477  223.8887 H   0  0  0  0  0  0  0  0  0  0  0  0
  138.0723   70.5092  224.4662 H   0  0  0  0  0  0  0  0  0  0  0  0
  139.2395   68.5659  222.1921 H   0  0  0  0  0  0  0  0  0  0  0  0
  138.1319   69.2405  220.9492 H   0  0  0  0  0  0  0  0  0  0  0  0
  139.8684   69.7000  220.9492 H   0  0  0  0  0  0  0  0  0  0  0  0
  138.8486   74.9221  223.2281 H   0  0  0  0  0  0  0  0  0  0  0  0
  140.2287   76.0009  223.4335 H   0  0  0  0  0  0  0  0  0  0  0  0
  137.8166   76.3883  221.5429 H   0  0  0  0  0  0  0  0  0  0  0  0
  138.2339   77.3822  222.9945 H   0  0  0  0  0  0  0  0  0  0  0  0
  1  2  1  0
  2  3  1  0
  3  4  2  0
  3  5  1  0
  5  6  1  0
  6  7  2  0
  7  8  1  0
  8  9  2  0
  9 10  1  0
 10 11  2  0
  5 12  1  0
 12 13  1  0
 13 14  1  0
 14 15  1  0
 15 16  1  0
 16 17  2  0
 16 18  1  0
 18 19  1  0
 19 20  1  0
 20 21  1  0
 21 22  1  0
 22 23  2  0
 23 24  1  0
 24 25  2  0
 25 26  1  0
 26 27  2  0
 21 28  1  0
 28 29  1  0
 29 30  1  0
 15 31  1  0
 31 32  1  0
 11  6  1  0
 32 12  1  0
 29 19  1  0
 27 22  1  0
  1 33  1  0
  1 34  1  0
  1 35  1  0
  2 36  1  0
  2 37  1  0
  7 38  1  0
  8 39  1  0
  9 40  1  0
 10 41  1  0
 11 42  1  0
 12 43  1  0
 13 44  1  0
 13 45  1  0
 14 46  1  0
 14 47  1  0
 18 48  1  0
 18 49  1  0
 19 50  1  6
 20 51  1  0
 20 52  1  0
 21 53  1  6
 23 54  1  0
 24 55  1  0
 25 56  1  0
 26 57  1  0
 27 58  1  0
 28 59  1  0
 28 60  1  0
 30 61  1  0
 30 62  1  0
 30 63  1  0
 31 64  1  0
 31 65  1  0
 32 66  1  0
 32 67  1  0
M  END
>  <smiles>  (31) 
CCC(=O)N(c1ccccc1)C1CCN(C(=O)C[C@H]2C[C@@H](c3ccccc3)CN2C)CC1

>  <score_type>  (31) 
oracle

>  <origin>  (31) 
autodockgpu

>  <m_score__min__energy>  (31) 
-8.6500000000000004

>  <m_primary>  (31) 
energy

>  <rmsd>  (31) 
3.0469620346504933

>  <m_score__min__rmsd>  (31) 
3.0469620346504933

>  <meeko>  (31) 
{"free_energy": -8.09, "intermolecular_energy": -10.18, "internal_energy": -1.75, "cluster_size": 21, "cluster_id": 2, "rank_in_cluster": 15}

>  <energy>  (31) 
-7.99

>  <cluster_rmsd>  (31) 
1.71

>  <cluster>  (31) 
2

$$$$

     RDKit          3D

 67 70  0  0  0  0  0  0  0  0999 V2000
  143.7230   74.7190  220.1120 C   0  0  0  0  0  0  0  0  0  0  0  0
  143.4940   76.1730  219.6960 C   0  0  0  0  0  0  0  0  0  0  0  0
  142.0690   76.4980  219.8770 C   0  0  0  0  0  0  0  0  0  0  0  0
  141.4320   76.7710  218.7920 O   0  0  0  0  0  0  0  0  0  0  0  0
  141.3180   76.5550  221.0460 N   0  0  0  0  0  0  0  0  0  0  0  0
  141.4490   77.7980  221.7990 C   0  0  0  0  0  0  0  0  0  0  0  0
  141.4480   77.7830  223.1840 C   0  0  0  0  0  0  0  0  0  0  0  0
  141.5680   79.0000  223.8180 C   0  0  0  0  0  0  0  0  0  0  0  0
  141.6840   80.2010  223.1520 C   0  0  0  0  0  0  0  0  0  0  0  0
  141.6800   80.1750  221.7680 C   0  0  0  0  0  0  0  0  0  0  0  0
  141.5630   78.9790  221.0710 C   0  0  0  0  0  0  0  0  0  0  0  0
  140.4290   75.5760  221.6040 C   0  0  0  0  0  0  0  0  0  0  0  0
  139.0700   76.2150  221.8140 C   0  0  0  0  0  0  0  0  0  0  0  0
  137.9880   75.2450  222.1840 C   0  0  0  0  0  0  0  0  0  0  0  0
  138.1970   73.9770  221.5040 N   0  0  0  0  0  0  0  0  0  0  0  0
  137.6110   72.8300  222.0690 C   0  0  0  0  0  0  0  0  0  0  0  0
  136.9360   72.9910  223.1310 O   0  0  0  0  0  0  0  0  0  0  0  0
  137.7080   71.4540  221.5430 C   0  0  0  0  0  0  0  0  0  0  0  0
  138.8890   70.7840  222.1940 C   0  0  1  0  0  0  0  0  0  0  0  0
  139.3890   71.5740  223.3970 C   0  0  0  0  0  0  0  0  0  0  0  0
  139.9920   70.4210  224.2140 C   0  0  1  0  0  0  0  0  0  0  0  0
  140.2680   70.8090  225.6050 C   0  0  0  0  0  0  0  0  0  0  0  0
  139.6970   70.0360  226.6080 C   0  0  0  0  0  0  0  0  0  0  0  0
  139.9500   70.3910  227.9350 C   0  0  0  0  0  0  0  0  0  0  0  0
  140.7460   71.4810  228.2340 C   0  0  0  0  0  0  0  0  0  0  0  0
  141.3160   72.2530  227.2360 C   0  0  0  0  0  0  0  0  0  0  0  0
  141.0590   71.8930  225.9160 C   0  0  0  0  0  0  0  0  0  0  0  0
  138.9550   69.3620  224.0400 C   0  0  0  0  0  0  0  0  0  0  0  0
  138.5520   69.4800  222.6660 N   0  0  0  0  0  0  0  0  0  0  0  0
  139.2050   68.4540  221.9000 C   0  0  0  0  0  0  0  0  0  0  0  0
  138.9970   74.0110  220.3000 C   0  0  0  0  0  0  0  0  0  0  0  0
  140.4170   74.3400  220.7800 C   0  0  0  0  0  0  0  0  0  0  0  0
  143.7340   74.6491  221.2097 H   0  0  0  0  0  0  0  0  0  0  0  0
  142.9126   74.0914  219.7127 H   0  0  0  0  0  0  0  0  0  0  0  0
  144.6871   74.3709  219.7127 H   0  0  0  0  0  0  0  0  0  0  0  0
  144.1075   76.8379  220.3217 H   0  0  0  0  0  0  0  0  0  0  0  0
  143.7784   76.3102  218.6423 H   0  0  0  0  0  0  0  0  0  0  0  0
  141.3558   76.8445  223.7503 H   0  0  0  0  0  0  0  0  0  0  0  0
  141.5714   79.0141  224.9179 H   0  0  0  0  0  0  0  0  0  0  0  0
  141.7767   81.1490  223.7021 H   0  0  0  0  0  0  0  0  0  0  0  0
  141.7711   81.1185  221.2099 H   0  0  0  0  0  0  0  0  0  0  0  0
  141.5605   78.9656  219.9711 H   0  0  0  0  0  0  0  0  0  0  0  0
  140.7788   75.2427  222.5922 H   0  0  0  0  0  0  0  0  0  0  0  0
  139.1585   76.9579  222.6204 H   0  0  0  0  0  0  0  0  0  0  0  0
  138.7786   76.6638  220.8529 H   0  0  0  0  0  0  0  0  0  0  0  0
  138.0033   75.0810  223.2716 H   0  0  0  0  0  0  0  0  0  0  0  0
  137.0152   75.6592  221.8805 H   0  0  0  0  0  0  0  0  0  0  0  0
  136.7881   70.8992  221.7794 H   0  0  0  0  0  0  0  0  0  0  0  0
  137.8361   71.4728  220.4506 H   0  0  0  0  0  0  0  0  0  0  0  0
  139.6682   70.7280  221.4196 H   0  0  0  0  0  0  0  0  0  0  0  0
  140.1475   72.3188  223.1141 H   0  0  0  0  0  0  0  0  0  0  0  0
  138.6269   72.1724  223.9177 H   0  0  0  0  0  0  0  0  0  0  0  0
  140.9862   70.0842  223.8850 H   0  0  0  0  0  0  0  0  0  0  0  0
  139.0642   69.1698  226.3644 H   0  0  0  0  0  0  0  0  0  0  0  0
  139.5114   69.7972  228.7505 H   0  0  0  0  0  0  0  0  0  0  0  0
  140.9304   71.7404  229.2869 H   0  0  0  0  0  0  0  0  0  0  0  0
  141.9491   73.1196  227.4774 H   0  0  0  0  0  0  0  0  0  0  0  0
  141.4981   72.4884  225.1019 H   0  0  0  0  0  0  0  0  0  0  0  0
  139.3785   68.3662  224.2374 H   0  0  0  0  0  0  0  0  0  0  0  0
  138.1119   69.4818  224.7363 H   0  0  0  0  0  0  0  0  0  0  0  0
  139.6684   67.7260  222.5821 H   0  0  0  0  0  0  0  0  0  0  0  0
  138.4655   67.9432  221.2658 H   0  0  0  0  0  0  0  0  0  0  0  0
  139.9809   68.9076  221.2658 H   0  0  0  0  0  0  0  0  0  0  0  0
  138.9759   73.0348  219.7934 H   0  0  0  0  0  0  0  0  0  0  0  0
  138.6233   74.7487  219.5747 H   0  0  0  0  0  0  0  0  0  0  0  0
  140.7956   73.5019  221.3836 H   0  0  0  0  0  0  0  0  0  0  0  0
  141.0556   74.5007  219.8989 H   0  0  0  0  0  0  0  0  0  0  0  0
  1  2  1  0
  2  3  1  0
  3  4  2  0
  3  5  1  0
  5  6  1  0
  6  7  2  0
  7  8  1  0
  8  9  2  0
  9 10  1  0
 10 11  2  0
  5 12  1  0
 12 13  1  0
 13 14  1  0
 14 15  1  0
 15 16  1  0
 16 17  2  0
 16 18  1  0
 18 19  1  0
 19 20  1  0
 20 21  1  0
 21 22  1  0
 22 23  2  0
 23 24  1  0
 24 25  2  0
 25 26  1  0
 26 27  2  0
 21 28  1  0
 28 29  1  0
 29 30  1  0
 15 31  1  0
 31 32  1  0
 11  6  1  0
 32 12  1  0
 29 19  1  0
 27 22  1  0
  1 33  1  0
  1 34  1  0
  1 35  1  0
  2 36  1  0
  2 37  1  0
  7 38  1  0
  8 39  1  0
  9 40  1  0
 10 41  1  0
 11 42  1  0
 12 43  1  0
 13 44  1  0
 13 45  1  0
 14 46  1  0
 14 47  1  0
 18 48  1  0
 18 49  1  0
 19 50  1  6
 20 51  1  0
 20 52  1  0
 21 53  1  6
 23 54  1  0
 24 55  1  0
 25 56  1  0
 26 57  1  0
 27 58  1  0
 28 59  1  0
 28 60  1  0
 30 61  1  0
 30 62  1  0
 30 63  1  0
 31 64  1  0
 31 65  1  0
 32 66  1  0
 32 67  1  0
M  END
>  <smiles>  (32) 
CCC(=O)N(c1ccccc1)C1CCN(C(=O)C[C@H]2C[C@@H](c3ccccc3)CN2C)CC1

>  <score_type>  (32) 
oracle

>  <origin>  (32) 
autodockgpu

>  <m_score__min__energy>  (32) 
-8.6500000000000004

>  <m_primary>  (32) 
energy

>  <rmsd>  (32) 
2.6153777465169057

>  <m_score__min__rmsd>  (32) 
2.6153777465169057

>  <meeko>  (32) 
{"free_energy": -8.11, "intermolecular_energy": -10.2, "internal_energy": -1.97, "cluster_size": 21, "cluster_id": 2, "rank_in_cluster": 14}

>  <energy>  (32) 
-7.83

>  <cluster_rmsd>  (32) 
1.9

>  <cluster>  (32) 
2

$$$$

     RDKit          3D

 67 70  0  0  0  0  0  0  0  0999 V2000
  146.3250   73.2450  221.9870 C   0  0  0  0  0  0  0  0  0  0  0  0
  146.5160   73.9200  220.6280 C   0  0  0  0  0  0  0  0  0  0  0  0
  145.5100   73.3920  219.6910 C   0  0  0  0  0  0  0  0  0  0  0  0
  145.9310   72.4590  218.9110 O   0  0  0  0  0  0  0  0  0  0  0  0
  144.1770   73.7570  219.5280 N   0  0  0  0  0  0  0  0  0  0  0  0
  143.8980   74.5390  218.3280 C   0  0  0  0  0  0  0  0  0  0  0  0
  143.7130   75.9090  218.4110 C   0  0  0  0  0  0  0  0  0  0  0  0
  143.4450   76.5720  217.2340 C   0  0  0  0  0  0  0  0  0  0  0  0
  143.3550   75.9460  216.0080 C   0  0  0  0  0  0  0  0  0  0  0  0
  143.5460   74.5760  215.9660 C   0  0  0  0  0  0  0  0  0  0  0  0
  143.8200   73.8520  217.1200 C   0  0  0  0  0  0  0  0  0  0  0  0
  143.0460   73.4630  220.3610 C   0  0  0  0  0  0  0  0  0  0  0  0
  142.2140   74.7210  220.5150 C   0  0  0  0  0  0  0  0  0  0  0  0
  140.8880   74.5020  221.1780 C   0  0  0  0  0  0  0  0  0  0  0  0
  140.3460   73.2070  220.7980 N   0  0  0  0  0  0  0  0  0  0  0  0
  139.3980   72.6200  221.6550 C   0  0  0  0  0  0  0  0  0  0  0  0
  139.0820   73.2710  222.6960 O   0  0  0  0  0  0  0  0  0  0  0  0
  138.7350   71.3150  221.4570 C   0  0  0  0  0  0  0  0  0  0  0  0
  139.3380   70.3310  222.4240 C   0  0  1  0  0  0  0  0  0  0  0  0
  140.1770   71.0300  223.4860 C   0  0  0  0  0  0  0  0  0  0  0  0
  140.0290   70.0090  224.6250 C   0  0  1  0  0  0  0  0  0  0  0  0
  140.4560   70.5560  225.9220 C   0  0  0  0  0  0  0  0  0  0  0  0
  140.2370   69.7720  227.0470 C   0  0  0  0  0  0  0  0  0  0  0  0
  140.6370   70.2770  228.2870 C   0  0  0  0  0  0  0  0  0  0  0  0
  141.2320   71.5210  228.3830 C   0  0  0  0  0  0  0  0  0  0  0  0
  141.4520   72.3040  227.2620 C   0  0  0  0  0  0  0  0  0  0  0  0
  141.0500   71.7940  226.0310 C   0  0  0  0  0  0  0  0  0  0  0  0
  138.5810   69.6610  224.5240 C   0  0  0  0  0  0  0  0  0  0  0  0
  138.3300   69.5930  223.1110 N   0  0  0  0  0  0  0  0  0  0  0  0
  138.3140   68.2130  222.7080 C   0  0  0  0  0  0  0  0  0  0  0  0
  140.8370   72.6350  219.5640 C   0  0  0  0  0  0  0  0  0  0  0  0
  142.3030   72.2820  219.8500 C   0  0  0  0  0  0  0  0  0  0  0  0
  146.5301   73.9699  222.7885 H   0  0  0  0  0  0  0  0  0  0  0  0
  145.2895   72.8844  222.0750 H   0  0  0  0  0  0  0  0  0  0  0  0
  147.0179   72.3952  222.0750 H   0  0  0  0  0  0  0  0  0  0  0  0
  146.3880   75.0074  220.7339 H   0  0  0  0  0  0  0  0  0  0  0  0
  147.5270   73.7137  220.2467 H   0  0  0  0  0  0  0  0  0  0  0  0
  143.7770   76.4421  219.3711 H   0  0  0  0  0  0  0  0  0  0  0  0
  143.2944   77.6609  217.2737 H   0  0  0  0  0  0  0  0  0  0  0  0
  143.1384   76.5173  215.0933 H   0  0  0  0  0  0  0  0  0  0  0  0
  143.4797   74.0507  215.0018 H   0  0  0  0  0  0  0  0  0  0  0  0
  143.9715   72.7632  217.0798 H   0  0  0  0  0  0  0  0  0  0  0  0
  143.3662   73.1685  221.3713 H   0  0  0  0  0  0  0  0  0  0  0  0
  142.7863   75.4417  221.1175 H   0  0  0  0  0  0  0  0  0  0  0  0
  142.0034   75.0875  219.4995 H   0  0  0  0  0  0  0  0  0  0  0  0
  141.0173   74.5359  222.2698 H   0  0  0  0  0  0  0  0  0  0  0  0
  140.1915   75.2911  220.8585 H   0  0  0  0  0  0  0  0  0  0  0  0
  137.6562   71.4123  221.6486 H   0  0  0  0  0  0  0  0  0  0  0  0
  138.8780   70.9686  220.4228 H   0  0  0  0  0  0  0  0  0  0  0  0
  139.9657   69.6604  221.8188 H   0  0  0  0  0  0  0  0  0  0  0  0
  141.2246   71.1475  223.1718 H   0  0  0  0  0  0  0  0  0  0  0  0
  139.8685   72.0572  223.7302 H   0  0  0  0  0  0  0  0  0  0  0  0
  140.6738   69.1215  224.5444 H   0  0  0  0  0  0  0  0  0  0  0  0
  139.7628   68.7829  226.9645 H   0  0  0  0  0  0  0  0  0  0  0  0
  140.4768   69.6785  229.1959 H   0  0  0  0  0  0  0  0  0  0  0  0
  141.5372   71.8970  229.3706 H   0  0  0  0  0  0  0  0  0  0  0  0
  141.9271   73.2929  227.3417 H   0  0  0  0  0  0  0  0  0  0  0  0
  141.2105   72.3941  225.1232 H   0  0  0  0  0  0  0  0  0  0  0  0
  138.3789   68.6915  225.0028 H   0  0  0  0  0  0  0  0  0  0  0  0
  137.9362   70.3942  225.0306 H   0  0  0  0  0  0  0  0  0  0  0  0
  138.3065   67.5704  223.6007 H   0  0  0  0  0  0  0  0  0  0  0  0
  137.4135   68.0168  222.1075 H   0  0  0  0  0  0  0  0  0  0  0  0
  139.2097   67.9960  222.1075 H   0  0  0  0  0  0  0  0  0  0  0  0
  140.2656   71.7326  219.3011 H   0  0  0  0  0  0  0  0  0  0  0  0
  140.7352   73.3284  218.7161 H   0  0  0  0  0  0  0  0  0  0  0  0
  142.3396   71.4808  220.6028 H   0  0  0  0  0  0  0  0  0  0  0  0
  142.7730   71.9517  218.9119 H   0  0  0  0  0  0  0  0  0  0  0  0
  1  2  1  0
  2  3  1  0
  3  4  2  0
  3  5  1  0
  5  6  1  0
  6  7  2  0
  7  8  1  0
  8  9  2  0
  9 10  1  0
 10 11  2  0
  5 12  1  0
 12 13  1  0
 13 14  1  0
 14 15  1  0
 15 16  1  0
 16 17  2  0
 16 18  1  0
 18 19  1  0
 19 20  1  0
 20 21  1  0
 21 22  1  0
 22 23  2  0
 23 24  1  0
 24 25  2  0
 25 26  1  0
 26 27  2  0
 21 28  1  0
 28 29  1  0
 29 30  1  0
 15 31  1  0
 31 32  1  0
 11  6  1  0
 32 12  1  0
 29 19  1  0
 27 22  1  0
  1 33  1  0
  1 34  1  0
  1 35  1  0
  2 36  1  0
  2 37  1  0
  7 38  1  0
  8 39  1  0
  9 40  1  0
 10 41  1  0
 11 42  1  0
 12 43  1  0
 13 44  1  0
 13 45  1  0
 14 46  1  0
 14 47  1  0
 18 48  1  0
 18 49  1  0
 19 50  1  6
 20 51  1  0
 20 52  1  0
 21 53  1  6
 23 54  1  0
 24 55  1  0
 25 56  1  0
 26 57  1  0
 27 58  1  0
 28 59  1  0
 28 60  1  0
 30 61  1  0
 30 62  1  0
 30 63  1  0
 31 64  1  0
 31 65  1  0
 32 66  1  0
 32 67  1  0
M  END
>  <smiles>  (33) 
CCC(=O)N(c1ccccc1)C1CCN(C(=O)C[C@H]2C[C@@H](c3ccccc3)CN2C)CC1

>  <score_type>  (33) 
oracle

>  <origin>  (33) 
autodockgpu

>  <m_score__min__energy>  (33) 
-8.6500000000000004

>  <m_primary>  (33) 
energy

>  <rmsd>  (33) 
2.5124185882854806

>  <m_score__min__rmsd>  (33) 
2.5124185882854806

>  <meeko>  (33) 
{"free_energy": -8.15, "intermolecular_energy": -10.24, "internal_energy": -1.51, "cluster_size": 2, "cluster_id": 4, "rank_in_cluster": 1}

>  <energy>  (33) 
-8.51

>  <cluster_rmsd>  (33) 
0.0

>  <cluster>  (33) 
3

$$$$

     RDKit          3D

 67 70  0  0  0  0  0  0  0  0999 V2000
  142.4070   81.7550  217.8200 C   0  0  0  0  0  0  0  0  0  0  0  0
  142.5810   80.2980  218.2520 C   0  0  0  0  0  0  0  0  0  0  0  0
  141.3820   79.8780  218.9960 C   0  0  0  0  0  0  0  0  0  0  0  0
  140.2740   80.3700  218.5620 O   0  0  0  0  0  0  0  0  0  0  0  0
  141.2750   79.0320  220.0950 N   0  0  0  0  0  0  0  0  0  0  0  0
  141.4670   79.6800  221.3890 C   0  0  0  0  0  0  0  0  0  0  0  0
  142.5450   79.3430  222.1900 C   0  0  0  0  0  0  0  0  0  0  0  0
  142.6490   79.9940  223.3980 C   0  0  0  0  0  0  0  0  0  0  0  0
  141.7480   80.9440  223.8340 C   0  0  0  0  0  0  0  0  0  0  0  0
  140.6840   81.2540  223.0060 C   0  0  0  0  0  0  0  0  0  0  0  0
  140.5250   80.6310  221.7740 C   0  0  0  0  0  0  0  0  0  0  0  0
  140.9920   77.6260  220.1360 C   0  0  0  0  0  0  0  0  0  0  0  0
  142.3020   76.8640  220.0950 C   0  0  0  0  0  0  0  0  0  0  0  0
  142.1640   75.3940  220.3530 C   0  0  0  0  0  0  0  0  0  0  0  0
  141.1110   75.1520  221.3250 N   0  0  0  0  0  0  0  0  0  0  0  0
  140.5100   73.8800  221.3340 C   0  0  0  0  0  0  0  0  0  0  0  0
  140.9400   73.0340  220.4930 O   0  0  0  0  0  0  0  0  0  0  0  0
  139.4240   73.4360  222.2310 C   0  0  0  0  0  0  0  0  0  0  0  0
  139.6740   71.9970  222.5950 C   0  0  1  0  0  0  0  0  0  0  0  0
  140.5000   71.8760  223.8700 C   0  0  0  0  0  0  0  0  0  0  0  0
  139.9930   70.5120  224.3610 C   0  0  1  0  0  0  0  0  0  0  0  0
  140.3570   70.2530  225.7630 C   0  0  0  0  0  0  0  0  0  0  0  0
  140.3460   68.9330  226.1920 C   0  0  0  0  0  0  0  0  0  0  0  0
  140.6890   68.6710  227.5210 C   0  0  0  0  0  0  0  0  0  0  0  0
  141.0290   69.7020  228.3770 C   0  0  0  0  0  0  0  0  0  0  0  0
  141.0410   71.0190  227.9510 C   0  0  0  0  0  0  0  0  0  0  0  0
  140.6970   71.2720  226.6260 C   0  0  0  0  0  0  0  0  0  0  0  0
  138.5300   70.6250  224.0920 C   0  0  0  0  0  0  0  0  0  0  0  0
  138.4520   71.2990  222.8260 N   0  0  0  0  0  0  0  0  0  0  0  0
  138.1940   70.3270  221.7980 C   0  0  0  0  0  0  0  0  0  0  0  0
  140.7720   76.2520  222.2010 C   0  0  0  0  0  0  0  0  0  0  0  0
  140.1130   77.2940  221.2870 C   0  0  0  0  0  0  0  0  0  0  0  0
  142.3306   82.3951  218.7113 H   0  0  0  0  0  0  0  0  0  0  0  0
  143.2745   82.0653  217.2190 H   0  0  0  0  0  0  0  0  0  0  0  0
  141.4908   81.8523  217.2190 H   0  0  0  0  0  0  0  0  0  0  0  0
  142.7069   79.6614  217.3638 H   0  0  0  0  0  0  0  0  0  0  0  0
  143.4709   80.2011  218.8913 H   0  0  0  0  0  0  0  0  0  0  0  0
  143.2833   78.5906  221.8757 H   0  0  0  0  0  0  0  0  0  0  0  0
  143.4971   79.7433  224.0521 H   0  0  0  0  0  0  0  0  0  0  0  0
  141.8719   81.4388  224.8086 H   0  0  0  0  0  0  0  0  0  0  0  0
  139.9504   82.0074  223.3287 H   0  0  0  0  0  0  0  0  0  0  0  0
  139.6771   80.8824  221.1198 H   0  0  0  0  0  0  0  0  0  0  0  0
  140.4151   77.3142  219.2529 H   0  0  0  0  0  0  0  0  0  0  0  0
  142.7492   76.9993  219.0991 H   0  0  0  0  0  0  0  0  0  0  0  0
  142.9300   77.2698  220.9018 H   0  0  0  0  0  0  0  0  0  0  0  0
  141.9147   74.8817  219.4120 H   0  0  0  0  0  0  0  0  0  0  0  0
  143.1146   75.0083  220.7500 H   0  0  0  0  0  0  0  0  0  0  0  0
  139.4161   74.0543  223.1407 H   0  0  0  0  0  0  0  0  0  0  0  0
  138.4507   73.5375  221.7287 H   0  0  0  0  0  0  0  0  0  0  0  0
  140.2157   71.5610  221.7427 H   0  0  0  0  0  0  0  0  0  0  0  0
  141.5800   71.8632  223.6614 H   0  0  0  0  0  0  0  0  0  0  0  0
  140.3892   72.7053  224.5842 H   0  0  0  0  0  0  0  0  0  0  0  0
  140.4391   69.6402  223.8600 H   0  0  0  0  0  0  0  0  0  0  0  0
  140.0752   68.1170  225.5058 H   0  0  0  0  0  0  0  0  0  0  0  0
  140.6885   67.6346  227.8896 H   0  0  0  0  0  0  0  0  0  0  0  0
  141.2957   69.4708  229.4188 H   0  0  0  0  0  0  0  0  0  0  0  0
  141.3127   71.8365  228.6350 H   0  0  0  0  0  0  0  0  0  0  0  0
  140.6966   72.3092  226.2596 H   0  0  0  0  0  0  0  0  0  0  0  0
  138.0669   69.6290  224.0322 H   0  0  0  0  0  0  0  0  0  0  0  0
  137.9971   71.1648  224.8886 H   0  0  0  0  0  0  0  0  0  0  0  0
  137.9380   69.3626  222.2611 H   0  0  0  0  0  0  0  0  0  0  0  0
  137.3552   70.6679  221.1733 H   0  0  0  0  0  0  0  0  0  0  0  0
  139.0914   70.2070  221.1733 H   0  0  0  0  0  0  0  0  0  0  0  0
  140.0707   75.9231  222.9820 H   0  0  0  0  0  0  0  0  0  0  0  0
  141.6536   76.6549  222.7210 H   0  0  0  0  0  0  0  0  0  0  0  0
  139.1623   76.8904  220.9086 H   0  0  0  0  0  0  0  0  0  0  0  0
  139.9384   78.2104  221.8699 H   0  0  0  0  0  0  0  0  0  0  0  0
  1  2  1  0
  2  3  1  0
  3  4  2  0
  3  5  1  0
  5  6  1  0
  6  7  2  0
  7  8  1  0
  8  9  2  0
  9 10  1  0
 10 11  2  0
  5 12  1  0
 12 13  1  0
 13 14  1  0
 14 15  1  0
 15 16  1  0
 16 17  2  0
 16 18  1  0
 18 19  1  0
 19 20  1  0
 20 21  1  0
 21 22  1  0
 22 23  2  0
 23 24  1  0
 24 25  2  0
 25 26  1  0
 26 27  2  0
 21 28  1  0
 28 29  1  0
 29 30  1  0
 15 31  1  0
 31 32  1  0
 11  6  1  0
 32 12  1  0
 29 19  1  0
 27 22  1  0
  1 33  1  0
  1 34  1  0
  1 35  1  0
  2 36  1  0
  2 37  1  0
  7 38  1  0
  8 39  1  0
  9 40  1  0
 10 41  1  0
 11 42  1  0
 12 43  1  0
 13 44  1  0
 13 45  1  0
 14 46  1  0
 14 47  1  0
 18 48  1  0
 18 49  1  0
 19 50  1  6
 20 51  1  0
 20 52  1  0
 21 53  1  6
 23 54  1  0
 24 55  1  0
 25 56  1  0
 26 57  1  0
 27 58  1  0
 28 59  1  0
 28 60  1  0
 30 61  1  0
 30 62  1  0
 30 63  1  0
 31 64  1  0
 31 65  1  0
 32 66  1  0
 32 67  1  0
M  END
>  <smiles>  (34) 
CCC(=O)N(c1ccccc1)C1CCN(C(=O)C[C@H]2C[C@@H](c3ccccc3)CN2C)CC1

>  <score_type>  (34) 
oracle

>  <origin>  (34) 
autodockgpu

>  <m_score__min__energy>  (34) 
-8.6500000000000004

>  <m_primary>  (34) 
energy

>  <rmsd>  (34) 
3.45154103743036

>  <m_score__min__rmsd>  (34) 
3.45154103743036

>  <meeko>  (34) 
{"free_energy": -8.56, "intermolecular_energy": -10.65, "internal_energy": -1.66, "cluster_size": 21, "cluster_id": 2, "rank_in_cluster": 3}

>  <energy>  (34) 
-8.48

>  <cluster_rmsd>  (34) 
0.05

>  <cluster>  (34) 
3

$$$$

     RDKit          3D

 67 70  0  0  0  0  0  0  0  0999 V2000
  138.0090   80.6890  224.0580 C   0  0  0  0  0  0  0  0  0  0  0  0
  137.3740   79.7810  223.0040 C   0  0  0  0  0  0  0  0  0  0  0  0
  138.3400   79.5740  221.9120 C   0  0  0  0  0  0  0  0  0  0  0  0
  138.0930   80.2370  220.8370 O   0  0  0  0  0  0  0  0  0  0  0  0
  139.4730   78.7680  221.8760 N   0  0  0  0  0  0  0  0  0  0  0  0
  140.6780   79.3780  222.4280 C   0  0  0  0  0  0  0  0  0  0  0  0
  141.0350   79.1570  223.7480 C   0  0  0  0  0  0  0  0  0  0  0  0
  142.1820   79.7760  224.1930 C   0  0  0  0  0  0  0  0  0  0  0  0
  142.9690   80.5870  223.4020 C   0  0  0  0  0  0  0  0  0  0  0  0
  142.5790   80.7840  222.0890 C   0  0  0  0  0  0  0  0  0  0  0  0
  141.4320   80.1860  221.5810 C   0  0  0  0  0  0  0  0  0  0  0  0
  139.6180   77.4260  221.3880 C   0  0  0  0  0  0  0  0  0  0  0  0
  141.0430   76.9700  221.6320 C   0  0  0  0  0  0  0  0  0  0  0  0
  141.2730   75.5120  221.3720 C   0  0  0  0  0  0  0  0  0  0  0  0
  140.0960   74.7440  221.7460 N   0  0  0  0  0  0  0  0  0  0  0  0
  139.9230   73.4830  221.1480 C   0  0  0  0  0  0  0  0  0  0  0  0
  140.8140   73.1070  220.3280 O   0  0  0  0  0  0  0  0  0  0  0  0
  138.7990   72.5550  221.3840 C   0  0  0  0  0  0  0  0  0  0  0  0
  139.3220   71.3690  222.1510 C   0  0  1  0  0  0  0  0  0  0  0  0
  140.1260   71.8010  223.3720 C   0  0  0  0  0  0  0  0  0  0  0  0
  139.8890   70.5750  224.2670 C   0  0  1  0  0  0  0  0  0  0  0  0
  140.2650   70.8260  225.6660 C   0  0  0  0  0  0  0  0  0  0  0  0
  139.7770   69.9480  226.6250 C   0  0  0  0  0  0  0  0  0  0  0  0
  140.1250   70.1730  227.9590 C   0  0  0  0  0  0  0  0  0  0  0  0
  140.9320   71.2400  228.3070 C   0  0  0  0  0  0  0  0  0  0  0  0
  141.4190   72.1170  227.3530 C   0  0  0  0  0  0  0  0  0  0  0  0
  141.0680   71.8860  226.0260 C   0  0  0  0  0  0  0  0  0  0  0  0
  138.4390   70.3130  224.0320 C   0  0  0  0  0  0  0  0  0  0  0  0
  138.2580   70.5460  222.6260 N   0  0  0  0  0  0  0  0  0  0  0  0
  138.2220   69.2800  221.9460 C   0  0  0  0  0  0  0  0  0  0  0  0
  139.2030   75.3540  222.7050 C   0  0  0  0  0  0  0  0  0  0  0  0
  138.5720   76.5380  221.9600 C   0  0  0  0  0  0  0  0  0  0  0  0
  137.7516   80.3210  225.0621 H   0  0  0  0  0  0  0  0  0  0  0  0
  139.1021   80.6849  223.9350 H   0  0  0  0  0  0  0  0  0  0  0  0
  137.6301   81.7143  223.9350 H   0  0  0  0  0  0  0  0  0  0  0  0
  137.1155   78.8127  223.4575 H   0  0  0  0  0  0  0  0  0  0  0  0
  136.4592   80.2482  222.6103 H   0  0  0  0  0  0  0  0  0  0  0  0
  140.4314   78.5178  224.4091 H   0  0  0  0  0  0  0  0  0  0  0  0
  142.4875   79.6147  225.2373 H   0  0  0  0  0  0  0  0  0  0  0  0
  143.8771   81.0617  223.8020 H   0  0  0  0  0  0  0  0  0  0  0  0
  143.1881   81.4257  221.4354 H   0  0  0  0  0  0  0  0  0  0  0  0
  141.1275   80.3469  220.5363 H   0  0  0  0  0  0  0  0  0  0  0  0
  139.4520   77.3808  220.3015 H   0  0  0  0  0  0  0  0  0  0  0  0
  141.7079   77.5473  220.9728 H   0  0  0  0  0  0  0  0  0  0  0  0
  141.2511   77.1381  222.6990 H   0  0  0  0  0  0  0  0  0  0  0  0
  141.4801   75.3618  220.3022 H   0  0  0  0  0  0  0  0  0  0  0  0
  142.1299   75.1710  221.9716 H   0  0  0  0  0  0  0  0  0  0  0  0
  138.0153   73.0600  221.9678 H   0  0  0  0  0  0  0  0  0  0  0  0
  138.3680   72.2284  220.4261 H   0  0  0  0  0  0  0  0  0  0  0  0
  139.9590   70.8128  221.4476 H   0  0  0  0  0  0  0  0  0  0  0  0
  141.1915   71.9387  223.1358 H   0  0  0  0  0  0  0  0  0  0  0  0
  139.8360   72.7676  223.8098 H   0  0  0  0  0  0  0  0  0  0  0  0
  140.5103   69.6979  224.0331 H   0  0  0  0  0  0  0  0  0  0  0  0
  139.1353   69.1004  226.3424 H   0  0  0  0  0  0  0  0  0  0  0  0
  139.7531   69.4942  228.7406 H   0  0  0  0  0  0  0  0  0  0  0  0
  141.1927   71.3955  229.3643 H   0  0  0  0  0  0  0  0  0  0  0  0
  142.0602   72.9657  227.6335 H   0  0  0  0  0  0  0  0  0  0  0  0
  141.4407   72.5662  225.2460 H   0  0  0  0  0  0  0  0  0  0  0  0
  138.1840   69.2747  224.2907 H   0  0  0  0  0  0  0  0  0  0  0  0
  137.7915   70.9523  224.6501 H   0  0  0  0  0  0  0  0  0  0  0  0
  138.1989   68.4667  222.6863 H   0  0  0  0  0  0  0  0  0  0  0  0
  137.3220   69.2278  221.3157 H   0  0  0  0  0  0  0  0  0  0  0  0
  139.1176   69.1767  221.3157 H   0  0  0  0  0  0  0  0  0  0  0  0
  138.4291   74.6395  223.0220 H   0  0  0  0  0  0  0  0  0  0  0  0
  139.7295   75.6719  223.6170 H   0  0  0  0  0  0  0  0  0  0  0  0
  137.9404   76.1548  221.1450 H   0  0  0  0  0  0  0  0  0  0  0  0
  137.9698   77.1200  222.6732 H   0  0  0  0  0  0  0  0  0  0  0  0
  1  2  1  0
  2  3  1  0
  3  4  2  0
  3  5  1  0
  5  6  1  0
  6  7  2  0
  7  8  1  0
  8  9  2  0
  9 10  1  0
 10 11  2  0
  5 12  1  0
 12 13  1  0
 13 14  1  0
 14 15  1  0
 15 16  1  0
 16 17  2  0
 16 18  1  0
 18 19  1  0
 19 20  1  0
 20 21  1  0
 21 22  1  0
 22 23  2  0
 23 24  1  0
 24 25  2  0
 25 26  1  0
 26 27  2  0
 21 28  1  0
 28 29  1  0
 29 30  1  0
 15 31  1  0
 31 32  1  0
 11  6  1  0
 32 12  1  0
 29 19  1  0
 27 22  1  0
  1 33  1  0
  1 34  1  0
  1 35  1  0
  2 36  1  0
  2 37  1  0
  7 38  1  0
  8 39  1  0
  9 40  1  0
 10 41  1  0
 11 42  1  0
 12 43  1  0
 13 44  1  0
 13 45  1  0
 14 46  1  0
 14 47  1  0
 18 48  1  0
 18 49  1  0
 19 50  1  6
 20 51  1  0
 20 52  1  0
 21 53  1  6
 23 54  1  0
 24 55  1  0
 25 56  1  0
 26 57  1  0
 27 58  1  0
 28 59  1  0
 28 60  1  0
 30 61  1  0
 30 62  1  0
 30 63  1  0
 31 64  1  0
 31 65  1  0
 32 66  1  0
 32 67  1  0
M  END
>  <smiles>  (35) 
CCC(=O)N(c1ccccc1)C1CCN(C(=O)C[C@H]2C[C@@H](c3ccccc3)CN2C)CC1

>  <score_type>  (35) 
oracle

>  <origin>  (35) 
autodockgpu

>  <m_score__min__energy>  (35) 
-8.6500000000000004

>  <m_primary>  (35) 
energy

>  <rmsd>  (35) 
3.0183039741392794

>  <m_score__min__rmsd>  (35) 
3.0183039741392794

>  <meeko>  (35) 
{"free_energy": -8.21, "intermolecular_energy": -10.3, "internal_energy": -1.76, "cluster_size": 21, "cluster_id": 2, "rank_in_cluster": 8}

>  <energy>  (35) 
-8.47

>  <cluster_rmsd>  (35) 
0.07

>  <cluster>  (35) 
3

$$$$

     RDKit          3D

 67 70  0  0  0  0  0  0  0  0999 V2000
  135.1510   70.6610  224.6340 C   0  0  0  0  0  0  0  0  0  0  0  0
  136.5590   71.0300  224.1640 C   0  0  0  0  0  0  0  0  0  0  0  0
  137.4850   69.9500  224.5480 C   0  0  0  0  0  0  0  0  0  0  0  0
  136.9200   68.8920  225.0140 O   0  0  0  0  0  0  0  0  0  0  0  0
  138.8740   69.9130  224.4810 N   0  0  0  0  0  0  0  0  0  0  0  0
  139.5300   69.3650  225.6640 C   0  0  0  0  0  0  0  0  0  0  0  0
  139.9520   70.2010  226.6830 C   0  0  0  0  0  0  0  0  0  0  0  0
  140.5700   69.6050  227.7600 C   0  0  0  0  0  0  0  0  0  0  0  0
  140.7820   68.2460  227.8640 C   0  0  0  0  0  0  0  0  0  0  0  0
  140.3460   67.4430  226.8240 C   0  0  0  0  0  0  0  0  0  0  0  0
  139.7160   67.9850  225.7110 C   0  0  0  0  0  0  0  0  0  0  0  0
  139.7440   70.3220  223.4160 C   0  0  0  0  0  0  0  0  0  0  0  0
  138.9960   70.2000  222.1020 C   0  0  0  0  0  0  0  0  0  0  0  0
  139.7120   70.8040  220.9320 C   0  0  0  0  0  0  0  0  0  0  0  0
  140.4410   71.9920  221.3480 N   0  0  0  0  0  0  0  0  0  0  0  0
  141.5260   72.4020  220.5530 C   0  0  0  0  0  0  0  0  0  0  0  0
  141.7840   71.7060  219.5250 O   0  0  0  0  0  0  0  0  0  0  0  0
  142.3960   73.5690  220.8030 C   0  0  0  0  0  0  0  0  0  0  0  0
  141.6430   74.8110  220.4040 C   0  0  1  0  0  0  0  0  0  0  0  0
  141.4310   75.7440  221.5900 C   0  0  0  0  0  0  0  0  0  0  0  0
  141.3580   77.0810  220.8380 C   0  0  1  0  0  0  0  0  0  0  0  0
  141.4910   78.2360  221.7390 C   0  0  0  0  0  0  0  0  0  0  0  0
  141.3090   78.0110  223.0960 C   0  0  0  0  0  0  0  0  0  0  0  0
  141.4320   79.0980  223.9660 C   0  0  0  0  0  0  0  0  0  0  0  0
  141.7270   80.3580  223.4800 C   0  0  0  0  0  0  0  0  0  0  0  0
  141.9100   80.5850  222.1270 C   0  0  0  0  0  0  0  0  0  0  0  0
  141.7850   79.4970  221.2680 C   0  0  0  0  0  0  0  0  0  0  0  0
  142.4550   76.9210  219.8390 C   0  0  0  0  0  0  0  0  0  0  0  0
  142.3510   75.5530  219.4130 N   0  0  0  0  0  0  0  0  0  0  0  0
  141.6830   75.5120  218.1410 C   0  0  0  0  0  0  0  0  0  0  0  0
  139.9810   72.6460  222.5520 C   0  0  0  0  0  0  0  0  0  0  0  0
  140.3160   71.6670  223.6850 C   0  0  0  0  0  0  0  0  0  0  0  0
  135.1217   70.6533  225.7336 H   0  0  0  0  0  0  0  0  0  0  0  0
  134.4316   71.4010  224.2532 H   0  0  0  0  0  0  0  0  0  0  0  0
  134.8870   69.6633  224.2532 H   0  0  0  0  0  0  0  0  0  0  0  0
  136.5643   71.1504  223.0706 H   0  0  0  0  0  0  0  0  0  0  0  0
  136.8732   71.9756  224.6300 H   0  0  0  0  0  0  0  0  0  0  0  0
  139.8010   71.2895  226.6351 H   0  0  0  0  0  0  0  0  0  0  0  0
  140.9137   70.2487  228.5831 H   0  0  0  0  0  0  0  0  0  0  0  0
  141.2810   67.8145  228.7442 H   0  0  0  0  0  0  0  0  0  0  0  0
  140.5013   66.3555  226.8801 H   0  0  0  0  0  0  0  0  0  0  0  0
  139.3728   67.3412  224.8878 H   0  0  0  0  0  0  0  0  0  0  0  0
  140.6201   69.6605  223.3460 H   0  0  0  0  0  0  0  0  0  0  0  0
  138.8345   69.1319  221.8943 H   0  0  0  0  0  0  0  0  0  0  0  0
  138.0548   70.7569  222.2199 H   0  0  0  0  0  0  0  0  0  0  0  0
  140.4194   70.0692  220.5201 H   0  0  0  0  0  0  0  0  0  0  0  0
  138.9744   71.0854  220.1660 H   0  0  0  0  0  0  0  0  0  0  0  0
  142.6558   73.6179  221.8707 H   0  0  0  0  0  0  0  0  0  0  0  0
  143.3242   73.4832  220.2190 H   0  0  0  0  0  0  0  0  0  0  0  0
  140.6761   74.4636  220.0111 H   0  0  0  0  0  0  0  0  0  0  0  0
  140.4971   75.5219  222.1270 H   0  0  0  0  0  0  0  0  0  0  0  0
  142.1964   75.6870  222.3780 H   0  0  0  0  0  0  0  0  0  0  0  0
  140.3912   77.2943  220.3587 H   0  0  0  0  0  0  0  0  0  0  0  0
  141.0746   77.0058  223.4763 H   0  0  0  0  0  0  0  0  0  0  0  0
  141.2928   78.9495  225.0470 H   0  0  0  0  0  0  0  0  0  0  0  0
  141.8183   81.1984  224.1838 H   0  0  0  0  0  0  0  0  0  0  0  0
  142.1457   81.5890  221.7444 H   0  0  0  0  0  0  0  0  0  0  0  0
  141.9243   79.6475  220.1873 H   0  0  0  0  0  0  0  0  0  0  0  0
  142.3116   77.6054  218.9899 H   0  0  0  0  0  0  0  0  0  0  0  0
  143.4438   77.1559  220.2597 H   0  0  0  0  0  0  0  0  0  0  0  0
  140.5965   75.4453  218.2994 H   0  0  0  0  0  0  0  0  0  0  0  0
  141.9156   76.4261  217.5751 H   0  0  0  0  0  0  0  0  0  0  0  0
  142.0256   74.6332  217.5751 H   0  0  0  0  0  0  0  0  0  0  0  0
  140.5059   73.6015  222.6982 H   0  0  0  0  0  0  0  0  0  0  0  0
  138.9072   72.8810  222.5115 H   0  0  0  0  0  0  0  0  0  0  0  0
  141.4090   71.5813  223.7744 H   0  0  0  0  0  0  0  0  0  0  0  0
  139.8808   72.0514  224.6192 H   0  0  0  0  0  0  0  0  0  0  0  0
  1  2  1  0
  2  3  1  0
  3  4  2  0
  3  5  1  0
  5  6  1  0
  6  7  2  0
  7  8  1  0
  8  9  2  0
  9 10  1  0
 10 11  2  0
  5 12  1  0
 12 13  1  0
 13 14  1  0
 14 15  1  0
 15 16  1  0
 16 17  2  0
 16 18  1  0
 18 19  1  0
 19 20  1  0
 20 21  1  0
 21 22  1  0
 22 23  2  0
 23 24  1  0
 24 25  2  0
 25 26  1  0
 26 27  2  0
 21 28  1  0
 28 29  1  0
 29 30  1  0
 15 31  1  0
 31 32  1  0
 11  6  1  0
 32 12  1  0
 29 19  1  0
 27 22  1  0
  1 33  1  0
  1 34  1  0
  1 35  1  0
  2 36  1  0
  2 37  1  0
  7 38  1  0
  8 39  1  0
  9 40  1  0
 10 41  1  0
 11 42  1  0
 12 43  1  0
 13 44  1  0
 13 45  1  0
 14 46  1  0
 14 47  1  0
 18 48  1  0
 18 49  1  0
 19 50  1  6
 20 51  1  0
 20 52  1  0
 21 53  1  6
 23 54  1  0
 24 55  1  0
 25 56  1  0
 26 57  1  0
 27 58  1  0
 28 59  1  0
 28 60  1  0
 30 61  1  0
 30 62  1  0
 30 63  1  0
 31 64  1  0
 31 65  1  0
 32 66  1  0
 32 67  1  0
M  END
>  <smiles>  (36) 
CCC(=O)N(c1ccccc1)C1CCN(C(=O)C[C@H]2C[C@@H](c3ccccc3)CN2C)CC1

>  <score_type>  (36) 
oracle

>  <origin>  (36) 
autodockgpu

>  <m_score__min__energy>  (36) 
-8.6500000000000004

>  <m_primary>  (36) 
energy

>  <rmsd>  (36) 
7.525768977385436

>  <m_score__min__rmsd>  (36) 
7.525768977385436

>  <meeko>  (36) 
{"free_energy": -7.91, "intermolecular_energy": -10.0, "internal_energy": -1.66, "cluster_size": 2, "cluster_id": 5, "rank_in_cluster": 1}

>  <energy>  (36) 
-8.47

>  <cluster_rmsd>  (36) 
0.1

>  <cluster>  (36) 
3

$$$$

     RDKit          3D

 67 70  0  0  0  0  0  0  0  0999 V2000
  134.6320   68.6490  225.1460 C   0  0  0  0  0  0  0  0  0  0  0  0
  135.6350   69.7860  225.3480 C   0  0  0  0  0  0  0  0  0  0  0  0
  136.8830   69.4480  224.6430 C   0  0  0  0  0  0  0  0  0  0  0  0
  136.7680   68.5320  223.7460 O   0  0  0  0  0  0  0  0  0  0  0  0
  138.1610   69.9720  224.8090 N   0  0  0  0  0  0  0  0  0  0  0  0
  139.0190   69.2200  225.7180 C   0  0  0  0  0  0  0  0  0  0  0  0
  139.2540   67.8720  225.5080 C   0  0  0  0  0  0  0  0  0  0  0  0
  140.0680   67.2340  226.4170 C   0  0  0  0  0  0  0  0  0  0  0  0
  140.6440   67.8630  227.5000 C   0  0  0  0  0  0  0  0  0  0  0  0
  140.3860   69.2110  227.6770 C   0  0  0  0  0  0  0  0  0  0  0  0
  139.5730   69.9100  226.7940 C   0  0  0  0  0  0  0  0  0  0  0  0
  138.7530   71.1310  224.2040 C   0  0  0  0  0  0  0  0  0  0  0  0
  140.0410   70.7190  223.5180 C   0  0  0  0  0  0  0  0  0  0  0  0
  140.6460   71.7890  222.6600 C   0  0  0  0  0  0  0  0  0  0  0  0
  139.6010   72.5770  222.0280 N   0  0  0  0  0  0  0  0  0  0  0  0
  139.9310   73.8770  221.6020 C   0  0  0  0  0  0  0  0  0  0  0  0
  141.1230   74.2610  221.7970 O   0  0  0  0  0  0  0  0  0  0  0  0
  139.0190   74.8370  220.9490 C   0  0  0  0  0  0  0  0  0  0  0  0
  138.7230   75.9430  221.9260 C   0  0  1  0  0  0  0  0  0  0  0  0
  140.0000   76.6110  222.4210 C   0  0  0  0  0  0  0  0  0  0  0  0
  139.4400   78.0070  222.7340 C   0  0  1  0  0  0  0  0  0  0  0  0
  140.5040   79.0050  222.9210 C   0  0  0  0  0  0  0  0  0  0  0  0
  140.1330   80.2470  223.4180 C   0  0  0  0  0  0  0  0  0  0  0  0
  141.1320   81.2070  223.6020 C   0  0  0  0  0  0  0  0  0  0  0  0
  142.4500   80.9190  223.2960 C   0  0  0  0  0  0  0  0  0  0  0  0
  142.8220   79.6810  222.8020 C   0  0  0  0  0  0  0  0  0  0  0  0
  141.8210   78.7310  222.6210 C   0  0  0  0  0  0  0  0  0  0  0  0
  138.5480   78.2390  221.5600 C   0  0  0  0  0  0  0  0  0  0  0  0
  137.9250   76.9650  221.3300 N   0  0  0  0  0  0  0  0  0  0  0  0
  136.5980   76.9900  221.8810 C   0  0  0  0  0  0  0  0  0  0  0  0
  138.3060   71.9490  221.8950 C   0  0  0  0  0  0  0  0  0  0  0  0
  137.7760   71.8320  223.3310 C   0  0  0  0  0  0  0  0  0  0  0  0
  134.3010   68.2737  226.1256 H   0  0  0  0  0  0  0  0  0  0  0  0
  133.7633   69.0219  224.5836 H   0  0  0  0  0  0  0  0  0  0  0  0
  135.1104   67.8336  224.5836 H   0  0  0  0  0  0  0  0  0  0  0  0
  135.2216   70.7205  224.9407 H   0  0  0  0  0  0  0  0  0  0  0  0
  135.8363   69.9209  226.4210 H   0  0  0  0  0  0  0  0  0  0  0  0
  138.8115   67.3360  224.6554 H   0  0  0  0  0  0  0  0  0  0  0  0
  140.2699   66.1626  226.2709 H   0  0  0  0  0  0  0  0  0  0  0  0
  141.2878   67.3113  228.2008 H   0  0  0  0  0  0  0  0  0  0  0  0
  140.8329   69.7385  228.5326 H   0  0  0  0  0  0  0  0  0  0  0  0
  139.3716   70.9814  226.9406 H   0  0  0  0  0  0  0  0  0  0  0  0
  139.0243   71.8781  224.9644 H   0  0  0  0  0  0  0  0  0  0  0  0
  140.7718   70.4425  224.2923 H   0  0  0  0  0  0  0  0  0  0  0  0
  139.7914   69.8805  222.8511 H   0  0  0  0  0  0  0  0  0  0  0  0
  141.2692   72.4462  223.2843 H   0  0  0  0  0  0  0  0  0  0  0  0
  141.2615   71.3177  221.8796 H   0  0  0  0  0  0  0  0  0  0  0  0
  139.4973   75.2525  220.0498 H   0  0  0  0  0  0  0  0  0  0  0  0
  138.0874   74.3338  220.6508 H   0  0  0  0  0  0  0  0  0  0  0  0
  138.1871   75.4700  222.7621 H   0  0  0  0  0  0  0  0  0  0  0  0
  140.4016   76.1177  223.3184 H   0  0  0  0  0  0  0  0  0  0  0  0
  140.8464   76.5890  221.7188 H   0  0  0  0  0  0  0  0  0  0  0  0
  138.8982   78.0895  223.6877 H   0  0  0  0  0  0  0  0  0  0  0  0
  139.0832   80.4691  223.6600 H   0  0  0  0  0  0  0  0  0  0  0  0
  140.8679   82.2004  223.9936 H   0  0  0  0  0  0  0  0  0  0  0  0
  143.2189   81.6907  223.4486 H   0  0  0  0  0  0  0  0  0  0  0  0
  143.8714   79.4558  222.5610 H   0  0  0  0  0  0  0  0  0  0  0  0
  142.0873   77.7382  222.2293 H   0  0  0  0  0  0  0  0  0  0  0  0
  137.7935   79.0059  221.7894 H   0  0  0  0  0  0  0  0  0  0  0  0
  139.0982   78.6027  220.6797 H   0  0  0  0  0  0  0  0  0  0  0  0
  136.6570   76.9889  222.9794 H   0  0  0  0  0  0  0  0  0  0  0  0
  136.0776   77.8981  221.5427 H   0  0  0  0  0  0  0  0  0  0  0  0
  136.0437   76.1021  221.5427 H   0  0  0  0  0  0  0  0  0  0  0  0
  137.6350   72.5707  221.2840 H   0  0  0  0  0  0  0  0  0  0  0  0
  138.3687   70.9711  221.3952 H   0  0  0  0  0  0  0  0  0  0  0  0
  137.5953   72.8406  223.7310 H   0  0  0  0  0  0  0  0  0  0  0  0
  136.8420   71.2512  223.3135 H   0  0  0  0  0  0  0  0  0  0  0  0
  1  2  1  0
  2  3  1  0
  3  4  2  0
  3  5  1  0
  5  6  1  0
  6  7  2  0
  7  8  1  0
  8  9  2  0
  9 10  1  0
 10 11  2  0
  5 12  1  0
 12 13  1  0
 13 14  1  0
 14 15  1  0
 15 16  1  0
 16 17  2  0
 16 18  1  0
 18 19  1  0
 19 20  1  0
 20 21  1  0
 21 22  1  0
 22 23  2  0
 23 24  1  0
 24 25  2  0
 25 26  1  0
 26 27  2  0
 21 28  1  0
 28 29  1  0
 29 30  1  0
 15 31  1  0
 31 32  1  0
 11  6  1  0
 32 12  1  0
 29 19  1  0
 27 22  1  0
  1 33  1  0
  1 34  1  0
  1 35  1  0
  2 36  1  0
  2 37  1  0
  7 38  1  0
  8 39  1  0
  9 40  1  0
 10 41  1  0
 11 42  1  0
 12 43  1  0
 13 44  1  0
 13 45  1  0
 14 46  1  0
 14 47  1  0
 18 48  1  0
 18 49  1  0
 19 50  1  1
 20 51  1  0
 20 52  1  0
 21 53  1  1
 23 54  1  0
 24 55  1  0
 25 56  1  0
 26 57  1  0
 27 58  1  0
 28 59  1  0
 28 60  1  0
 30 61  1  0
 30 62  1  0
 30 63  1  0
 31 64  1  0
 31 65  1  0
 32 66  1  0
 32 67  1  0
M  END
>  <smiles>  (37) 
CCC(=O)N(c1ccccc1)C1CCN(C(=O)C[C@H]2C[C@@H](c3ccccc3)CN2C)CC1

>  <score_type>  (37) 
oracle

>  <origin>  (37) 
autodockgpu

>  <m_score__min__energy>  (37) 
-8.6500000000000004

>  <m_primary>  (37) 
energy

>  <rmsd>  (37) 
8.230710225726396

>  <m_score__min__rmsd>  (37) 
8.230710225726396

>  <meeko>  (37) 
{"free_energy": -8.29, "intermolecular_energy": -10.38, "internal_energy": -1.58, "cluster_size": 14, "cluster_id": 3, "rank_in_cluster": 7}

>  <energy>  (37) 
-8.38

>  <cluster_rmsd>  (37) 
1.18

>  <cluster>  (37) 
3

$$$$

     RDKit          3D

 67 70  0  0  0  0  0  0  0  0999 V2000
  141.8720   79.4950  218.1680 C   0  0  0  0  0  0  0  0  0  0  0  0
  140.4960   80.1080  218.4360 C   0  0  0  0  0  0  0  0  0  0  0  0
  139.9270   79.4840  219.6430 C   0  0  0  0  0  0  0  0  0  0  0  0
  138.7590   79.9110  219.9750 O   0  0  0  0  0  0  0  0  0  0  0  0
  140.4700   78.5080  220.4720 N   0  0  0  0  0  0  0  0  0  0  0  0
  141.1390   79.0180  221.6640 C   0  0  0  0  0  0  0  0  0  0  0  0
  140.7590   78.5830  222.9230 C   0  0  0  0  0  0  0  0  0  0  0  0
  141.4350   79.1200  223.9960 C   0  0  0  0  0  0  0  0  0  0  0  0
  142.4480   80.0480  223.8740 C   0  0  0  0  0  0  0  0  0  0  0  0
  142.7980   80.4590  222.6000 C   0  0  0  0  0  0  0  0  0  0  0  0
  142.1540   79.9530  221.4780 C   0  0  0  0  0  0  0  0  0  0  0  0
  140.4520   77.0800  220.3270 C   0  0  0  0  0  0  0  0  0  0  0  0
  141.8010   76.5300  220.7470 C   0  0  0  0  0  0  0  0  0  0  0  0
  141.8470   75.0360  220.8550 C   0  0  0  0  0  0  0  0  0  0  0  0
  140.5730   74.5290  221.3390 N   0  0  0  0  0  0  0  0  0  0  0  0
  140.2530   73.1900  221.0510 C   0  0  0  0  0  0  0  0  0  0  0  0
  141.1060   72.5220  220.3930 O   0  0  0  0  0  0  0  0  0  0  0  0
  139.0140   72.4880  221.4420 C   0  0  0  0  0  0  0  0  0  0  0  0
  139.3960   71.2700  222.2400 C   0  0  1  0  0  0  0  0  0  0  0  0
  140.2690   71.6330  223.4350 C   0  0  0  0  0  0  0  0  0  0  0  0
  139.8950   70.4750  224.3720 C   0  0  1  0  0  0  0  0  0  0  0  0
  140.3230   70.7190  225.7580 C   0  0  0  0  0  0  0  0  0  0  0  0
  141.0440   71.8790  226.0090 C   0  0  0  0  0  0  0  0  0  0  0  0
  141.4580   72.1250  227.3200 C   0  0  0  0  0  0  0  0  0  0  0  0
  141.1560   71.2340  228.3330 C   0  0  0  0  0  0  0  0  0  0  0  0
  140.4370   70.0770  228.0860 C   0  0  0  0  0  0  0  0  0  0  0  0
  140.0280   69.8390  226.7760 C   0  0  0  0  0  0  0  0  0  0  0  0
  138.4190   70.3920  224.1660 C   0  0  0  0  0  0  0  0  0  0  0  0
  138.2450   70.6040  222.7560 N   0  0  0  0  0  0  0  0  0  0  0  0
  138.0380   69.3320  222.1170 C   0  0  0  0  0  0  0  0  0  0  0  0
  139.7440   75.4560  222.0760 C   0  0  0  0  0  0  0  0  0  0  0  0
  139.2880   76.4890  221.0380 C   0  0  0  0  0  0  0  0  0  0  0  0
  142.3677   79.2742  219.1248 H   0  0  0  0  0  0  0  0  0  0  0  0
  141.7533   78.5646  217.5932 H   0  0  0  0  0  0  0  0  0  0  0  0
  142.4843   80.2055  217.5932 H   0  0  0  0  0  0  0  0  0  0  0  0
  140.5981   81.1920  218.5929 H   0  0  0  0  0  0  0  0  0  0  0  0
  139.8336   79.9318  217.5757 H   0  0  0  0  0  0  0  0  0  0  0  0
  139.9557   77.8440  223.0593 H   0  0  0  0  0  0  0  0  0  0  0  0
  141.1513   78.7905  225.0064 H   0  0  0  0  0  0  0  0  0  0  0  0
  142.9611   80.4484  224.7608 H   0  0  0  0  0  0  0  0  0  0  0  0
  143.6010   81.2001  222.4733 H   0  0  0  0  0  0  0  0  0  0  0  0
  142.4387   80.2827  220.4679 H   0  0  0  0  0  0  0  0  0  0  0  0
  140.3056   76.7921  219.2755 H   0  0  0  0  0  0  0  0  0  0  0  0
  142.5489   76.8457  220.0047 H   0  0  0  0  0  0  0  0  0  0  0  0
  142.0057   76.9267  221.7523 H   0  0  0  0  0  0  0  0  0  0  0  0
  142.0566   74.6062  219.8644 H   0  0  0  0  0  0  0  0  0  0  0  0
  142.6394   74.7511  221.5628 H   0  0  0  0  0  0  0  0  0  0  0  0
  138.3867   73.1526  222.0541 H   0  0  0  0  0  0  0  0  0  0  0  0
  138.4454   72.1936  220.5476 H   0  0  0  0  0  0  0  0  0  0  0  0
  139.9453   70.6164  221.5464 H   0  0  0  0  0  0  0  0  0  0  0  0
  141.3390   71.6272  223.1801 H   0  0  0  0  0  0  0  0  0  0  0  0
  140.1110   72.6413  223.8453 H   0  0  0  0  0  0  0  0  0  0  0  0
  140.3971   69.5201  224.1575 H   0  0  0  0  0  0  0  0  0  0  0  0
  141.2822   72.5837  225.1987 H   0  0  0  0  0  0  0  0  0  0  0  0
  142.0298   73.0364  227.5487 H   0  0  0  0  0  0  0  0  0  0  0  0
  141.4943   71.4490  229.3574 H   0  0  0  0  0  0  0  0  0  0  0  0
  140.1974   69.3712  228.8950 H   0  0  0  0  0  0  0  0  0  0  0  0
  139.4561   68.9272  226.5490 H   0  0  0  0  0  0  0  0  0  0  0  0
  138.0394   69.4026  224.4611 H   0  0  0  0  0  0  0  0  0  0  0  0
  137.8681   71.1259  224.7725 H   0  0  0  0  0  0  0  0  0  0  0  0
  137.9112   68.5530  222.8833 H   0  0  0  0  0  0  0  0  0  0  0  0
  137.1357   69.3794  221.4895 H   0  0  0  0  0  0  0  0  0  0  0  0
  138.9087   69.0909  221.4895 H   0  0  0  0  0  0  0  0  0  0  0  0
  138.8776   74.9376  222.5126 H   0  0  0  0  0  0  0  0  0  0  0  0
  140.2859   75.9211  222.9127 H   0  0  0  0  0  0  0  0  0  0  0  0
  138.6311   75.9970  220.3056 H   0  0  0  0  0  0  0  0  0  0  0  0
  138.7497   77.2947  221.5587 H   0  0  0  0  0  0  0  0  0  0  0  0
  1  2  1  0
  2  3  1  0
  3  4  2  0
  3  5  1  0
  5  6  1  0
  6  7  2  0
  7  8  1  0
  8  9  2  0
  9 10  1  0
 10 11  2  0
  5 12  1  0
 12 13  1  0
 13 14  1  0
 14 15  1  0
 15 16  1  0
 16 17  2  0
 16 18  1  0
 18 19  1  0
 19 20  1  0
 20 21  1  0
 21 22  1  0
 22 23  2  0
 23 24  1  0
 24 25  2  0
 25 26  1  0
 26 27  2  0
 21 28  1  0
 28 29  1  0
 29 30  1  0
 15 31  1  0
 31 32  1  0
 11  6  1  0
 32 12  1  0
 29 19  1  0
 27 22  1  0
  1 33  1  0
  1 34  1  0
  1 35  1  0
  2 36  1  0
  2 37  1  0
  7 38  1  0
  8 39  1  0
  9 40  1  0
 10 41  1  0
 11 42  1  0
 12 43  1  0
 13 44  1  0
 13 45  1  0
 14 46  1  0
 14 47  1  0
 18 48  1  0
 18 49  1  0
 19 50  1  6
 20 51  1  0
 20 52  1  0
 21 53  1  6
 23 54  1  0
 24 55  1  0
 25 56  1  0
 26 57  1  0
 27 58  1  0
 28 59  1  0
 28 60  1  0
 30 61  1  0
 30 62  1  0
 30 63  1  0
 31 64  1  0
 31 65  1  0
 32 66  1  0
 32 67  1  0
M  END
>  <smiles>  (38) 
CCC(=O)N(c1ccccc1)C1CCN(C(=O)C[C@H]2C[C@@H](c3ccccc3)CN2C)CC1

>  <score_type>  (38) 
oracle

>  <origin>  (38) 
autodockgpu

>  <m_score__min__energy>  (38) 
-8.6500000000000004

>  <m_primary>  (38) 
energy

>  <rmsd>  (38) 
2.961980424941346

>  <m_score__min__rmsd>  (38) 
2.961980424941346

>  <meeko>  (38) 
{"free_energy": -8.19, "intermolecular_energy": -10.28, "internal_energy": -1.77, "cluster_size": 21, "cluster_id": 2, "rank_in_cluster": 9}

>  <energy>  (38) 
-8.37

>  <cluster_rmsd>  (38) 
0.92

>  <cluster>  (38) 
3

$$$$

     RDKit          3D

 67 70  0  0  0  0  0  0  0  0999 V2000
  146.3460   73.3190  221.6850 C   0  0  0  0  0  0  0  0  0  0  0  0
  146.5240   73.7230  220.2200 C   0  0  0  0  0  0  0  0  0  0  0  0
  145.6390   72.8910  219.3880 C   0  0  0  0  0  0  0  0  0  0  0  0
  145.8400   72.9850  218.1200 O   0  0  0  0  0  0  0  0  0  0  0  0
  144.6200   72.0250  219.7740 N   0  0  0  0  0  0  0  0  0  0  0  0
  144.8640   70.6190  219.4720 C   0  0  0  0  0  0  0  0  0  0  0  0
  145.8590   70.2540  218.5810 C   0  0  0  0  0  0  0  0  0  0  0  0
  146.0180   68.9060  218.3450 C   0  0  0  0  0  0  0  0  0  0  0  0
  145.2490   67.9300  218.9420 C   0  0  0  0  0  0  0  0  0  0  0  0
  144.2630   68.3340  219.8260 C   0  0  0  0  0  0  0  0  0  0  0  0
  144.0550   69.6790  220.1060 C   0  0  0  0  0  0  0  0  0  0  0  0
  143.3800   72.3190  220.4340 C   0  0  0  0  0  0  0  0  0  0  0  0
  143.3230   73.8050  220.7260 C   0  0  0  0  0  0  0  0  0  0  0  0
  141.9890   74.2830  221.2140 C   0  0  0  0  0  0  0  0  0  0  0  0
  140.9220   73.5380  220.5660 N   0  0  0  0  0  0  0  0  0  0  0  0
  139.6750   73.4850  221.2160 C   0  0  0  0  0  0  0  0  0  0  0  0
  139.5750   74.1000  222.3200 O   0  0  0  0  0  0  0  0  0  0  0  0
  138.4710   72.7790  220.7330 C   0  0  0  0  0  0  0  0  0  0  0  0
  138.3050   71.5240  221.5470 C   0  0  1  0  0  0  0  0  0  0  0  0
  139.4980   71.2880  222.4650 C   0  0  0  0  0  0  0  0  0  0  0  0
  138.7960   70.4980  223.5800 C   0  0  1  0  0  0  0  0  0  0  0  0
  139.6150   70.4030  224.7970 C   0  0  0  0  0  0  0  0  0  0  0  0
  140.4440   71.4770  225.0940 C   0  0  0  0  0  0  0  0  0  0  0  0
  141.2290   71.4020  226.2470 C   0  0  0  0  0  0  0  0  0  0  0  0
  141.1760   70.2880  227.0650 C   0  0  0  0  0  0  0  0  0  0  0  0
  140.3510   69.2170  226.7710 C   0  0  0  0  0  0  0  0  0  0  0  0
  139.5720   69.2990  225.6200 C   0  0  0  0  0  0  0  0  0  0  0  0
  137.5210   71.2610  223.7260 C   0  0  0  0  0  0  0  0  0  0  0  0
  137.1480   71.5920  222.3790 N   0  0  0  0  0  0  0  0  0  0  0  0
  136.1260   70.6800  221.9420 C   0  0  0  0  0  0  0  0  0  0  0  0
  141.2430   72.9110  219.3030 C   0  0  0  0  0  0  0  0  0  0  0  0
  142.2280   71.7900  219.6580 C   0  0  0  0  0  0  0  0  0  0  0  0
  146.7037   74.1309  222.3353 H   0  0  0  0  0  0  0  0  0  0  0  0
  145.2812   73.1300  221.8865 H   0  0  0  0  0  0  0  0  0  0  0  0
  146.9250   72.4057  221.8865 H   0  0  0  0  0  0  0  0  0  0  0  0
  146.2604   74.7835  220.0942 H   0  0  0  0  0  0  0  0  0  0  0  0
  147.5708   73.5754  219.9159 H   0  0  0  0  0  0  0  0  0  0  0  0
  146.4923   71.0045  218.0852 H   0  0  0  0  0  0  0  0  0  0  0  0
  146.8023   68.5910  217.6410 H   0  0  0  0  0  0  0  0  0  0  0  0
  145.4134   66.8646  218.7231 H   0  0  0  0  0  0  0  0  0  0  0  0
  143.6330   67.5767  220.3154 H   0  0  0  0  0  0  0  0  0  0  0  0
  143.2711   69.9935  220.8107 H   0  0  0  0  0  0  0  0  0  0  0  0
  143.3169   71.8033  221.4036 H   0  0  0  0  0  0  0  0  0  0  0  0
  144.0747   74.0347  221.4955 H   0  0  0  0  0  0  0  0  0  0  0  0
  143.5162   74.3224  219.7747 H   0  0  0  0  0  0  0  0  0  0  0  0
  141.9260   74.1359  222.3023 H   0  0  0  0  0  0  0  0  0  0  0  0
  141.8796   75.3506  220.9728 H   0  0  0  0  0  0  0  0  0  0  0  0
  137.5873   73.4224  220.8559 H   0  0  0  0  0  0  0  0  0  0  0  0
  138.5781   72.5297  219.6670 H   0  0  0  0  0  0  0  0  0  0  0  0
  138.2121   70.7042  220.8195 H   0  0  0  0  0  0  0  0  0  0  0  0
  140.2848   70.6966  221.9739 H   0  0  0  0  0  0  0  0  0  0  0  0
  140.0283   72.1947  222.7916 H   0  0  0  0  0  0  0  0  0  0  0  0
  138.6188   69.4351  223.3588 H   0  0  0  0  0  0  0  0  0  0  0  0
  140.4813   72.3609  224.4403 H   0  0  0  0  0  0  0  0  0  0  0  0
  141.8960   72.2372  226.5070 H   0  0  0  0  0  0  0  0  0  0  0  0
  141.8029   70.2528  227.9682 H   0  0  0  0  0  0  0  0  0  0  0  0
  140.3119   68.3322  227.4234 H   0  0  0  0  0  0  0  0  0  0  0  0
  138.9063   68.4623  225.3615 H   0  0  0  0  0  0  0  0  0  0  0  0
  136.7481   70.6403  224.2028 H   0  0  0  0  0  0  0  0  0  0  0  0
  137.6353   72.1519  224.3610 H   0  0  0  0  0  0  0  0  0  0  0  0
  135.6302   70.2375  222.8186 H   0  0  0  0  0  0  0  0  0  0  0  0
  135.3850   71.2225  221.3365 H   0  0  0  0  0  0  0  0  0  0  0  0
  136.5810   69.8822  221.3365 H   0  0  0  0  0  0  0  0  0  0  0  0
  140.3376   72.4969  218.8353 H   0  0  0  0  0  0  0  0  0  0  0  0
  141.6699   73.6247  218.5830 H   0  0  0  0  0  0  0  0  0  0  0  0
  141.7071   71.0308  220.2599 H   0  0  0  0  0  0  0  0  0  0  0  0
  142.6074   71.3483  218.7247 H   0  0  0  0  0  0  0  0  0  0  0  0
  1  2  1  0
  2  3  1  0
  3  4  2  0
  3  5  1  0
  5  6  1  0
  6  7  2  0
  7  8  1  0
  8  9  2  0
  9 10  1  0
 10 11  2  0
  5 12  1  0
 12 13  1  0
 13 14  1  0
 14 15  1  0
 15 16  1  0
 16 17  2  0
 16 18  1  0
 18 19  1  0
 19 20  1  0
 20 21  1  0
 21 22  1  0
 22 23  2  0
 23 24  1  0
 24 25  2  0
 25 26  1  0
 26 27  2  0
 21 28  1  0
 28 29  1  0
 29 30  1  0
 15 31  1  0
 31 32  1  0
 11  6  1  0
 32 12  1  0
 29 19  1  0
 27 22  1  0
  1 33  1  0
  1 34  1  0
  1 35  1  0
  2 36  1  0
  2 37  1  0
  7 38  1  0
  8 39  1  0
  9 40  1  0
 10 41  1  0
 11 42  1  0
 12 43  1  0
 13 44  1  0
 13 45  1  0
 14 46  1  0
 14 47  1  0
 18 48  1  0
 18 49  1  0
 19 50  1  6
 20 51  1  0
 20 52  1  0
 21 53  1  6
 23 54  1  0
 24 55  1  0
 25 56  1  0
 26 57  1  0
 27 58  1  0
 28 59  1  0
 28 60  1  0
 30 61  1  0
 30 62  1  0
 30 63  1  0
 31 64  1  0
 31 65  1  0
 32 66  1  0
 32 67  1  0
M  END
>  <smiles>  (39) 
CCC(=O)N(c1ccccc1)C1CCN(C(=O)C[C@H]2C[C@@H](c3ccccc3)CN2C)CC1

>  <score_type>  (39) 
oracle

>  <origin>  (39) 
autodockgpu

>  <m_score__min__energy>  (39) 
-8.6500000000000004

>  <m_primary>  (39) 
energy

>  <rmsd>  (39) 
3.25367137424465

>  <m_score__min__rmsd>  (39) 
3.25367137424465

>  <meeko>  (39) 
{"free_energy": -7.87, "intermolecular_energy": -9.96, "internal_energy": -1.61, "cluster_size": 11, "cluster_id": 1, "rank_in_cluster": 11}

>  <energy>  (39) 
-8.29

>  <cluster_rmsd>  (39) 
0.88

>  <cluster>  (39) 
3

$$$$

     RDKit          3D

 67 70  0  0  0  0  0  0  0  0999 V2000
  143.5290   72.4180  216.3470 C   0  0  0  0  0  0  0  0  0  0  0  0
  144.8310   73.0890  216.7870 C   0  0  0  0  0  0  0  0  0  0  0  0
  145.1770   72.6140  218.1370 C   0  0  0  0  0  0  0  0  0  0  0  0
  146.3220   73.0080  218.5740 O   0  0  0  0  0  0  0  0  0  0  0  0
  144.4490   71.8030  219.0010 N   0  0  0  0  0  0  0  0  0  0  0  0
  144.8370   70.3960  218.9950 C   0  0  0  0  0  0  0  0  0  0  0  0
  144.3770   69.5370  219.9790 C   0  0  0  0  0  0  0  0  0  0  0  0
  144.7970   68.2270  219.9060 C   0  0  0  0  0  0  0  0  0  0  0  0
  145.6350   67.7470  218.9210 C   0  0  0  0  0  0  0  0  0  0  0  0
  146.0740   68.6370  217.9570 C   0  0  0  0  0  0  0  0  0  0  0  0
  145.6850   69.9700  217.9760 C   0  0  0  0  0  0  0  0  0  0  0  0
  143.3870   72.1560  219.9000 C   0  0  0  0  0  0  0  0  0  0  0  0
  143.1670   73.6540  219.8300 C   0  0  0  0  0  0  0  0  0  0  0  0
  141.9410   74.1270  220.5520 C   0  0  0  0  0  0  0  0  0  0  0  0
  140.8790   73.1410  220.4370 N   0  0  0  0  0  0  0  0  0  0  0  0
  139.8650   73.1590  221.4110 C   0  0  0  0  0  0  0  0  0  0  0  0
  139.9510   74.0430  222.3160 O   0  0  0  0  0  0  0  0  0  0  0  0
  138.7080   72.2440  221.4800 C   0  0  0  0  0  0  0  0  0  0  0  0
  139.0900   71.0670  222.3380 C   0  0  1  0  0  0  0  0  0  0  0  0
  140.0380   71.4740  223.4590 C   0  0  0  0  0  0  0  0  0  0  0  0
  139.6750   70.3950  224.4900 C   0  0  1  0  0  0  0  0  0  0  0  0
  140.1860   70.7110  225.8320 C   0  0  0  0  0  0  0  0  0  0  0  0
  140.9270   71.8770  225.9750 C   0  0  0  0  0  0  0  0  0  0  0  0
  141.4190   72.1920  227.2440 C   0  0  0  0  0  0  0  0  0  0  0  0
  141.1710   71.3620  228.3210 C   0  0  0  0  0  0  0  0  0  0  0  0
  140.4320   70.2000  228.1820 C   0  0  0  0  0  0  0  0  0  0  0  0
  139.9460   69.8930  226.9140 C   0  0  0  0  0  0  0  0  0  0  0  0
  138.1890   70.3540  224.3650 C   0  0  0  0  0  0  0  0  0  0  0  0
  137.9460   70.4800  222.9550 N   0  0  0  0  0  0  0  0  0  0  0  0
  137.6610   69.1780  222.4150 C   0  0  0  0  0  0  0  0  0  0  0  0
  140.9650   72.2220  219.3240 C   0  0  0  0  0  0  0  0  0  0  0  0
  142.1760   71.3340  219.6390 C   0  0  0  0  0  0  0  0  0  0  0  0
  142.9516   72.1204  217.2348 H   0  0  0  0  0  0  0  0  0  0  0  0
  142.9380   73.1238  215.7449 H   0  0  0  0  0  0  0  0  0  0  0  0
  143.7609   71.5271  215.7449 H   0  0  0  0  0  0  0  0  0  0  0  0
  145.6369   72.8279  216.0854 H   0  0  0  0  0  0  0  0  0  0  0  0
  144.7037   74.1816  216.7965 H   0  0  0  0  0  0  0  0  0  0  0  0
  143.7083   69.8841  220.7805 H   0  0  0  0  0  0  0  0  0  0  0  0
  144.4446   67.5248  220.6759 H   0  0  0  0  0  0  0  0  0  0  0  0
  145.9440   66.6915  218.9026 H   0  0  0  0  0  0  0  0  0  0  0  0
  146.7441   68.2819  217.1602 H   0  0  0  0  0  0  0  0  0  0  0  0
  146.0378   70.6715  217.2056 H   0  0  0  0  0  0  0  0  0  0  0  0
  143.6568   71.9234  220.9407 H   0  0  0  0  0  0  0  0  0  0  0  0
  144.0422   74.1527  220.2720 H   0  0  0  0  0  0  0  0  0  0  0  0
  143.0264   73.9047  218.7682 H   0  0  0  0  0  0  0  0  0  0  0  0
  142.1813   74.2800  221.6145 H   0  0  0  0  0  0  0  0  0  0  0  0
  141.6028   75.0728  220.1036 H   0  0  0  0  0  0  0  0  0  0  0  0
  137.8471   72.7650  221.9244 H   0  0  0  0  0  0  0  0  0  0  0  0
  138.4309   71.9048  220.4710 H   0  0  0  0  0  0  0  0  0  0  0  0
  139.5787   70.3488  221.6632 H   0  0  0  0  0  0  0  0  0  0  0  0
  141.0919   71.4107  223.1504 H   0  0  0  0  0  0  0  0  0  0  0  0
  139.9374   72.5124  223.8079 H   0  0  0  0  0  0  0  0  0  0  0  0
  140.1315   69.4095  224.3154 H   0  0  0  0  0  0  0  0  0  0  0  0
  141.1209   72.5335  225.1139 H   0  0  0  0  0  0  0  0  0  0  0  0
  142.0092   73.1091  227.3874 H   0  0  0  0  0  0  0  0  0  0  0  0
  141.5697   71.6308  229.3103 H   0  0  0  0  0  0  0  0  0  0  0  0
  140.2358   69.5429  229.0421 H   0  0  0  0  0  0  0  0  0  0  0  0
  139.3562   68.9753  226.7728 H   0  0  0  0  0  0  0  0  0  0  0  0
  137.7925   69.4008  224.7448 H   0  0  0  0  0  0  0  0  0  0  0  0
  137.6970   71.1465  224.9480 H   0  0  0  0  0  0  0  0  0  0  0  0
  137.5051   68.4656  223.2385 H   0  0  0  0  0  0  0  0  0  0  0  0
  136.7526   69.2283  221.7967 H   0  0  0  0  0  0  0  0  0  0  0  0
  138.5073   68.8442  221.7967 H   0  0  0  0  0  0  0  0  0  0  0  0
  140.0496   71.6165  219.2503 H   0  0  0  0  0  0  0  0  0  0  0  0
  141.0734   72.7448  218.3623 H   0  0  0  0  0  0  0  0  0  0  0  0
  141.9548   70.7269  220.5292 H   0  0  0  0  0  0  0  0  0  0  0  0
  142.3718   70.6881  218.7704 H   0  0  0  0  0  0  0  0  0  0  0  0
  1  2  1  0
  2  3  1  0
  3  4  2  0
  3  5  1  0
  5  6  1  0
  6  7  2  0
  7  8  1  0
  8  9  2  0
  9 10  1  0
 10 11  2  0
  5 12  1  0
 12 13  1  0
 13 14  1  0
 14 15  1  0
 15 16  1  0
 16 17  2  0
 16 18  1  0
 18 19  1  0
 19 20  1  0
 20 21  1  0
 21 22  1  0
 22 23  2  0
 23 24  1  0
 24 25  2  0
 25 26  1  0
 26 27  2  0
 21 28  1  0
 28 29  1  0
 29 30  1  0
 15 31  1  0
 31 32  1  0
 11  6  1  0
 32 12  1  0
 29 19  1  0
 27 22  1  0
  1 33  1  0
  1 34  1  0
  1 35  1  0
  2 36  1  0
  2 37  1  0
  7 38  1  0
  8 39  1  0
  9 40  1  0
 10 41  1  0
 11 42  1  0
 12 43  1  0
 13 44  1  0
 13 45  1  0
 14 46  1  0
 14 47  1  0
 18 48  1  0
 18 49  1  0
 19 50  1  6
 20 51  1  0
 20 52  1  0
 21 53  1  6
 23 54  1  0
 24 55  1  0
 25 56  1  0
 26 57  1  0
 27 58  1  0
 28 59  1  0
 28 60  1  0
 30 61  1  0
 30 62  1  0
 30 63  1  0
 31 64  1  0
 31 65  1  0
 32 66  1  0
 32 67  1  0
M  END
>  <smiles>  (40) 
CCC(=O)N(c1ccccc1)C1CCN(C(=O)C[C@H]2C[C@@H](c3ccccc3)CN2C)CC1

>  <score_type>  (40) 
oracle

>  <origin>  (40) 
autodockgpu

>  <m_score__min__energy>  (40) 
-8.6500000000000004

>  <m_primary>  (40) 
energy

>  <rmsd>  (40) 
2.9402638016888347

>  <m_score__min__rmsd>  (40) 
2.9402638016888347

>  <meeko>  (40) 
{"free_energy": -8.29, "intermolecular_energy": -10.38, "internal_energy": -1.68, "cluster_size": 11, "cluster_id": 1, "rank_in_cluster": 4}

>  <energy>  (40) 
-8.26

>  <cluster_rmsd>  (40) 
0.82

>  <cluster>  (40) 
3

$$$$

     RDKit          3D

 67 70  0  0  0  0  0  0  0  0999 V2000
  136.0870   69.6400  224.9840 C   0  0  0  0  0  0  0  0  0  0  0  0
  136.8090   69.0780  223.7580 C   0  0  0  0  0  0  0  0  0  0  0  0
  138.2560   69.0470  224.0340 C   0  0  0  0  0  0  0  0  0  0  0  0
  138.8290   67.9200  223.7920 O   0  0  0  0  0  0  0  0  0  0  0  0
  139.0850   70.0540  224.5170 N   0  0  0  0  0  0  0  0  0  0  0  0
  139.6670   69.7910  225.8290 C   0  0  0  0  0  0  0  0  0  0  0  0
  139.5460   68.5420  226.4140 C   0  0  0  0  0  0  0  0  0  0  0  0
  140.1170   68.3800  227.6560 C   0  0  0  0  0  0  0  0  0  0  0  0
  140.7870   69.3820  228.3260 C   0  0  0  0  0  0  0  0  0  0  0  0
  140.8860   70.6170  227.7100 C   0  0  0  0  0  0  0  0  0  0  0  0
  140.3320   70.8420  226.4560 C   0  0  0  0  0  0  0  0  0  0  0  0
  139.4550   71.2980  223.9050 C   0  0  0  0  0  0  0  0  0  0  0  0
  140.7050   71.0800  223.0750 C   0  0  0  0  0  0  0  0  0  0  0  0
  141.0730   72.2440  222.2060 C   0  0  0  0  0  0  0  0  0  0  0  0
  139.8730   72.9040  221.7160 N   0  0  0  0  0  0  0  0  0  0  0  0
  139.9860   74.2470  221.3130 C   0  0  0  0  0  0  0  0  0  0  0  0
  141.1320   74.7810  221.4030 O   0  0  0  0  0  0  0  0  0  0  0  0
  138.8930   75.0950  220.7960 C   0  0  0  0  0  0  0  0  0  0  0  0
  138.5970   76.1570  221.8220 C   0  0  1  0  0  0  0  0  0  0  0  0
  139.8760   76.7570  222.3940 C   0  0  0  0  0  0  0  0  0  0  0  0
  139.3480   78.1510  222.7640 C   0  0  1  0  0  0  0  0  0  0  0  0
  140.4340   79.1030  223.0400 C   0  0  0  0  0  0  0  0  0  0  0  0
  141.7330   78.6780  222.7980 C   0  0  0  0  0  0  0  0  0  0  0  0
  142.7760   79.5710  223.0560 C   0  0  0  0  0  0  0  0  0  0  0  0
  142.5140   80.8400  223.5380 C   0  0  0  0  0  0  0  0  0  0  0  0
  141.2200   81.2660  223.7800 C   0  0  0  0  0  0  0  0  0  0  0  0
  140.1860   80.3710  223.5210 C   0  0  0  0  0  0  0  0  0  0  0  0
  138.5040   78.4730  221.5750 C   0  0  0  0  0  0  0  0  0  0  0  0
  137.8510   77.2340  221.2560 N   0  0  0  0  0  0  0  0  0  0  0  0
  136.5070   77.2720  221.7640 C   0  0  0  0  0  0  0  0  0  0  0  0
  138.6630   72.1130  221.6890 C   0  0  0  0  0  0  0  0  0  0  0  0
  138.3080   71.8860  223.1650 C   0  0  0  0  0  0  0  0  0  0  0  0
  136.5698   69.2642  225.8981 H   0  0  0  0  0  0  0  0  0  0  0  0
  136.1377   70.7387  224.9677 H   0  0  0  0  0  0  0  0  0  0  0  0
  135.0343   69.3212  224.9677 H   0  0  0  0  0  0  0  0  0  0  0  0
  136.4497   68.0590  223.5518 H   0  0  0  0  0  0  0  0  0  0  0  0
  136.6084   69.7122  222.8819 H   0  0  0  0  0  0  0  0  0  0  0  0
  139.0187   67.7184  225.9103 H   0  0  0  0  0  0  0  0  0  0  0  0
  140.0342   67.3963  228.1412 H   0  0  0  0  0  0  0  0  0  0  0  0
  141.2284   69.2052  229.3179 H   0  0  0  0  0  0  0  0  0  0  0  0
  141.4129   71.4354  228.2224 H   0  0  0  0  0  0  0  0  0  0  0  0
  140.4164   71.8254  225.9705 H   0  0  0  0  0  0  0  0  0  0  0  0
  139.7068   72.0529  224.6644 H   0  0  0  0  0  0  0  0  0  0  0  0
  141.5433   70.8807  223.7588 H   0  0  0  0  0  0  0  0  0  0  0  0
  140.4957   70.2354  222.4021 H   0  0  0  0  0  0  0  0  0  0  0  0
  141.6685   72.9603  222.7910 H   0  0  0  0  0  0  0  0  0  0  0  0
  141.6586   71.8809  221.3485 H   0  0  0  0  0  0  0  0  0  0  0  0
  139.2019   75.5658  219.8510 H   0  0  0  0  0  0  0  0  0  0  0  0
  137.9959   74.4867  220.6085 H   0  0  0  0  0  0  0  0  0  0  0  0
  138.0190   75.6577  222.6136 H   0  0  0  0  0  0  0  0  0  0  0  0
  140.2318   76.2040  223.2758 H   0  0  0  0  0  0  0  0  0  0  0  0
  140.7448   76.7457  221.7195 H   0  0  0  0  0  0  0  0  0  0  0  0
  138.7766   78.2002  223.7026 H   0  0  0  0  0  0  0  0  0  0  0  0
  141.9354   77.6672  222.4142 H   0  0  0  0  0  0  0  0  0  0  0  0
  143.8157   79.2614  222.8739 H   0  0  0  0  0  0  0  0  0  0  0  0
  143.3519   81.5254  223.7332 H   0  0  0  0  0  0  0  0  0  0  0  0
  141.0156   82.2765  224.1636 H   0  0  0  0  0  0  0  0  0  0  0  0
  139.1471   80.6825  223.7043 H   0  0  0  0  0  0  0  0  0  0  0  0
  137.7656   79.2505  221.8205 H   0  0  0  0  0  0  0  0  0  0  0  0
  139.0952   78.8646  220.7341 H   0  0  0  0  0  0  0  0  0  0  0  0
  136.5306   77.2713  222.8638 H   0  0  0  0  0  0  0  0  0  0  0  0
  136.0063   78.1847  221.4085 H   0  0  0  0  0  0  0  0  0  0  0  0
  135.9555   76.3891  221.4085 H   0  0  0  0  0  0  0  0  0  0  0  0
  137.8562   72.6569  221.1759 H   0  0  0  0  0  0  0  0  0  0  0  0
  138.7984   71.1666  221.1449 H   0  0  0  0  0  0  0  0  0  0  0  0
  138.0407   72.8498  223.6229 H   0  0  0  0  0  0  0  0  0  0  0  0
  137.4612   71.1858  223.2178 H   0  0  0  0  0  0  0  0  0  0  0  0
  1  2  1  0
  2  3  1  0
  3  4  2  0
  3  5  1  0
  5  6  1  0
  6  7  2  0
  7  8  1  0
  8  9  2  0
  9 10  1  0
 10 11  2  0
  5 12  1  0
 12 13  1  0
 13 14  1  0
 14 15  1  0
 15 16  1  0
 16 17  2  0
 16 18  1  0
 18 19  1  0
 19 20  1  0
 20 21  1  0
 21 22  1  0
 22 23  2  0
 23 24  1  0
 24 25  2  0
 25 26  1  0
 26 27  2  0
 21 28  1  0
 28 29  1  0
 29 30  1  0
 15 31  1  0
 31 32  1  0
 11  6  1  0
 32 12  1  0
 29 19  1  0
 27 22  1  0
  1 33  1  0
  1 34  1  0
  1 35  1  0
  2 36  1  0
  2 37  1  0
  7 38  1  0
  8 39  1  0
  9 40  1  0
 10 41  1  0
 11 42  1  0
 12 43  1  0
 13 44  1  0
 13 45  1  0
 14 46  1  0
 14 47  1  0
 18 48  1  0
 18 49  1  0
 19 50  1  1
 20 51  1  0
 20 52  1  0
 21 53  1  1
 23 54  1  0
 24 55  1  0
 25 56  1  0
 26 57  1  0
 27 58  1  0
 28 59  1  0
 28 60  1  0
 30 61  1  0
 30 62  1  0
 30 63  1  0
 31 64  1  0
 31 65  1  0
 32 66  1  0
 32 67  1  0
M  END
>  <smiles>  (41) 
CCC(=O)N(c1ccccc1)C1CCN(C(=O)C[C@H]2C[C@@H](c3ccccc3)CN2C)CC1

>  <score_type>  (41) 
oracle

>  <origin>  (41) 
autodockgpu

>  <m_score__min__energy>  (41) 
-8.6500000000000004

>  <m_primary>  (41) 
energy

>  <rmsd>  (41) 
7.958337431606587

>  <m_score__min__rmsd>  (41) 
7.958337431606587

>  <meeko>  (41) 
{"free_energy": -8.37, "intermolecular_energy": -10.46, "internal_energy": -1.36, "cluster_size": 14, "cluster_id": 3, "rank_in_cluster": 6}

>  <energy>  (41) 
-8.25

>  <cluster_rmsd>  (41) 
1.22

>  <cluster>  (41) 
3

$$$$

     RDKit          3D

 67 70  0  0  0  0  0  0  0  0999 V2000
  137.9310   80.6020  222.3630 C   0  0  0  0  0  0  0  0  0  0  0  0
  138.6380   80.9510  221.0520 C   0  0  0  0  0  0  0  0  0  0  0  0
  139.1370   79.7090  220.4370 C   0  0  0  0  0  0  0  0  0  0  0  0
  138.7240   79.4940  219.2370 O   0  0  0  0  0  0  0  0  0  0  0  0
  139.9820   78.7390  220.9660 N   0  0  0  0  0  0  0  0  0  0  0  0
  140.9430   79.2320  221.9470 C   0  0  0  0  0  0  0  0  0  0  0  0
  141.9730   80.0720  221.5600 C   0  0  0  0  0  0  0  0  0  0  0  0
  142.8420   80.4860  222.5450 C   0  0  0  0  0  0  0  0  0  0  0  0
  142.7330   80.1090  223.8670 C   0  0  0  0  0  0  0  0  0  0  0  0
  141.6900   79.2690  224.2160 C   0  0  0  0  0  0  0  0  0  0  0  0
  140.7810   78.8180  223.2670 C   0  0  0  0  0  0  0  0  0  0  0  0
  140.0320   77.3300  220.6950 C   0  0  0  0  0  0  0  0  0  0  0  0
  141.4350   76.8290  220.9770 C   0  0  0  0  0  0  0  0  0  0  0  0
  141.5690   75.3370  220.9460 C   0  0  0  0  0  0  0  0  0  0  0  0
  140.3610   74.7140  221.4630 N   0  0  0  0  0  0  0  0  0  0  0  0
  140.0950   73.3870  221.0770 C   0  0  0  0  0  0  0  0  0  0  0  0
  140.9360   72.8310  220.3080 O   0  0  0  0  0  0  0  0  0  0  0  0
  138.9260   72.5810  221.4810 C   0  0  0  0  0  0  0  0  0  0  0  0
  139.4250   71.3680  222.2210 C   0  0  1  0  0  0  0  0  0  0  0  0
  140.2270   71.7560  223.4580 C   0  0  0  0  0  0  0  0  0  0  0  0
  139.9650   70.5110  224.3190 C   0  0  1  0  0  0  0  0  0  0  0  0
  140.3340   70.7200  225.7270 C   0  0  0  0  0  0  0  0  0  0  0  0
  141.0700   71.8570  226.0330 C   0  0  0  0  0  0  0  0  0  0  0  0
  141.4280   72.0700  227.3660 C   0  0  0  0  0  0  0  0  0  0  0  0
  141.0570   71.1690  228.3480 C   0  0  0  0  0  0  0  0  0  0  0  0
  140.3230   70.0350  228.0460 C   0  0  0  0  0  0  0  0  0  0  0  0
  139.9710   69.8300  226.7150 C   0  0  0  0  0  0  0  0  0  0  0  0
  138.5130   70.2770  224.0680 C   0  0  0  0  0  0  0  0  0  0  0  0
  138.3460   70.5500  222.6670 N   0  0  0  0  0  0  0  0  0  0  0  0
  138.2960   69.3030  221.9540 C   0  0  0  0  0  0  0  0  0  0  0  0
  139.5360   75.5210  222.3330 C   0  0  0  0  0  0  0  0  0  0  0  0
  138.9540   76.6110  221.4220 C   0  0  0  0  0  0  0  0  0  0  0  0
  138.5585   80.9117  223.2117 H   0  0  0  0  0  0  0  0  0  0  0  0
  136.9655   81.1270  222.4100 H   0  0  0  0  0  0  0  0  0  0  0  0
  137.7606   79.5163  222.4100 H   0  0  0  0  0  0  0  0  0  0  0  0
  137.9295   81.4429  220.3694 H   0  0  0  0  0  0  0  0  0  0  0  0
  139.4775   81.6336  221.2501 H   0  0  0  0  0  0  0  0  0  0  0  0
  142.0918   80.3937  220.5148 H   0  0  0  0  0  0  0  0  0  0  0  0
  143.6685   81.1542  222.2616 H   0  0  0  0  0  0  0  0  0  0  0  0
  143.4519   80.4645  224.6199 H   0  0  0  0  0  0  0  0  0  0  0  0
  141.5787   78.9527  225.2636 H   0  0  0  0  0  0  0  0  0  0  0  0
  139.9540   78.1506  223.5510 H   0  0  0  0  0  0  0  0  0  0  0  0
  139.8293   77.1248  219.6335 H   0  0  0  0  0  0  0  0  0  0  0  0
  142.1118   77.2525  220.2203 H   0  0  0  0  0  0  0  0  0  0  0  0
  141.6870   77.1492  221.9988 H   0  0  0  0  0  0  0  0  0  0  0  0
  141.7323   75.0082  219.9091 H   0  0  0  0  0  0  0  0  0  0  0  0
  142.4228   75.0400  221.5727 H   0  0  0  0  0  0  0  0  0  0  0  0
  138.2727   73.1750  222.1371 H   0  0  0  0  0  0  0  0  0  0  0  0
  138.3499   72.2757  220.5950 H   0  0  0  0  0  0  0  0  0  0  0  0
  140.0584   70.8202  221.5078 H   0  0  0  0  0  0  0  0  0  0  0  0
  141.2961   71.8833  223.2325 H   0  0  0  0  0  0  0  0  0  0  0  0
  139.9488   72.7153  223.9188 H   0  0  0  0  0  0  0  0  0  0  0  0
  140.5750   69.6313  224.0660 H   0  0  0  0  0  0  0  0  0  0  0  0
  141.3628   72.5696  225.2479 H   0  0  0  0  0  0  0  0  0  0  0  0
  142.0105   72.9627  227.6377 H   0  0  0  0  0  0  0  0  0  0  0  0
  141.3516   71.3577  229.3909 H   0  0  0  0  0  0  0  0  0  0  0  0
  140.0284   69.3215  228.8297 H   0  0  0  0  0  0  0  0  0  0  0  0
  139.3892   68.9363  226.4451 H   0  0  0  0  0  0  0  0  0  0  0  0
  138.2408   69.2362  224.2973 H   0  0  0  0  0  0  0  0  0  0  0  0
  137.8704   70.9089  224.6987 H   0  0  0  0  0  0  0  0  0  0  0  0
  138.2626   68.4708  222.6726 H   0  0  0  0  0  0  0  0  0  0  0  0
  137.3961   69.2779  221.3219 H   0  0  0  0  0  0  0  0  0  0  0  0
  139.1910   69.2059  221.3219 H   0  0  0  0  0  0  0  0  0  0  0  0
  138.7313   74.9154  222.7753 H   0  0  0  0  0  0  0  0  0  0  0  0
  140.1074   75.9433  223.1727 H   0  0  0  0  0  0  0  0  0  0  0  0
  138.2765   76.1450  220.6914 H   0  0  0  0  0  0  0  0  0  0  0  0
  138.4095   77.3349  222.0460 H   0  0  0  0  0  0  0  0  0  0  0  0
  1  2  1  0
  2  3  1  0
  3  4  2  0
  3  5  1  0
  5  6  1  0
  6  7  2  0
  7  8  1  0
  8  9  2  0
  9 10  1  0
 10 11  2  0
  5 12  1  0
 12 13  1  0
 13 14  1  0
 14 15  1  0
 15 16  1  0
 16 17  2  0
 16 18  1  0
 18 19  1  0
 19 20  1  0
 20 21  1  0
 21 22  1  0
 22 23  2  0
 23 24  1  0
 24 25  2  0
 25 26  1  0
 26 27  2  0
 21 28  1  0
 28 29  1  0
 29 30  1  0
 15 31  1  0
 31 32  1  0
 11  6  1  0
 32 12  1  0
 29 19  1  0
 27 22  1  0
  1 33  1  0
  1 34  1  0
  1 35  1  0
  2 36  1  0
  2 37  1  0
  7 38  1  0
  8 39  1  0
  9 40  1  0
 10 41  1  0
 11 42  1  0
 12 43  1  0
 13 44  1  0
 13 45  1  0
 14 46  1  0
 14 47  1  0
 18 48  1  0
 18 49  1  0
 19 50  1  6
 20 51  1  0
 20 52  1  0
 21 53  1  6
 23 54  1  0
 24 55  1  0
 25 56  1  0
 26 57  1  0
 27 58  1  0
 28 59  1  0
 28 60  1  0
 30 61  1  0
 30 62  1  0
 30 63  1  0
 31 64  1  0
 31 65  1  0
 32 66  1  0
 32 67  1  0
M  END
>  <smiles>  (42) 
CCC(=O)N(c1ccccc1)C1CCN(C(=O)C[C@H]2C[C@@H](c3ccccc3)CN2C)CC1

>  <score_type>  (42) 
oracle

>  <origin>  (42) 
autodockgpu

>  <m_score__min__energy>  (42) 
-8.6500000000000004

>  <m_primary>  (42) 
energy

>  <rmsd>  (42) 
2.956944856044063

>  <m_score__min__rmsd>  (42) 
2.956944856044063

>  <meeko>  (42) 
{"free_energy": -8.14, "intermolecular_energy": -10.22, "internal_energy": -1.8, "cluster_size": 21, "cluster_id": 2, "rank_in_cluster": 12}

>  <energy>  (42) 
-8.17

>  <cluster_rmsd>  (42) 
0.8

>  <cluster>  (42) 
3

$$$$

     RDKit          3D

 67 70  0  0  0  0  0  0  0  0999 V2000
  137.8770   80.5460  223.9610 C   0  0  0  0  0  0  0  0  0  0  0  0
  138.1080   81.0060  222.5200 C   0  0  0  0  0  0  0  0  0  0  0  0
  138.3810   79.8250  221.6840 C   0  0  0  0  0  0  0  0  0  0  0  0
  137.5020   79.5910  220.7730 O   0  0  0  0  0  0  0  0  0  0  0  0
  139.4440   78.9300  221.7390 N   0  0  0  0  0  0  0  0  0  0  0  0
  140.6510   79.4500  222.3730 C   0  0  0  0  0  0  0  0  0  0  0  0
  140.9760   79.0840  223.6680 C   0  0  0  0  0  0  0  0  0  0  0  0
  142.1280   79.6260  224.1960 C   0  0  0  0  0  0  0  0  0  0  0  0
  142.9480   80.4950  223.5090 C   0  0  0  0  0  0  0  0  0  0  0  0
  142.5890   80.8370  222.2170 C   0  0  0  0  0  0  0  0  0  0  0  0
  141.4400   80.3230  221.6290 C   0  0  0  0  0  0  0  0  0  0  0  0
  139.5150   77.5740  221.2750 C   0  0  0  0  0  0  0  0  0  0  0  0
  140.9620   77.1220  221.3110 C   0  0  0  0  0  0  0  0  0  0  0  0
  141.1520   75.6560  221.0630 C   0  0  0  0  0  0  0  0  0  0  0  0
  140.0480   74.9030  221.6360 N   0  0  0  0  0  0  0  0  0  0  0  0
  139.7880   73.6250  221.1100 C   0  0  0  0  0  0  0  0  0  0  0  0
  140.5430   73.2220  220.1750 O   0  0  0  0  0  0  0  0  0  0  0  0
  138.7150   72.7070  221.5440 C   0  0  0  0  0  0  0  0  0  0  0  0
  139.3550   71.5210  222.2160 C   0  0  1  0  0  0  0  0  0  0  0  0
  140.1070   71.9300  223.4770 C   0  0  0  0  0  0  0  0  0  0  0  0
  139.9950   70.6160  224.2650 C   0  0  1  0  0  0  0  0  0  0  0  0
  140.3380   70.7860  225.6850 C   0  0  0  0  0  0  0  0  0  0  0  0
  141.0940   71.8980  226.0300 C   0  0  0  0  0  0  0  0  0  0  0  0
  141.4290   72.0740  227.3750 C   0  0  0  0  0  0  0  0  0  0  0  0
  141.0150   71.1620  228.3290 C   0  0  0  0  0  0  0  0  0  0  0  0
  140.2620   70.0530  227.9870 C   0  0  0  0  0  0  0  0  0  0  0  0
  139.9330   69.8850  226.6450 C   0  0  0  0  0  0  0  0  0  0  0  0
  138.5800   70.2270  223.9930 C   0  0  0  0  0  0  0  0  0  0  0  0
  138.3800   70.5570  222.6090 N   0  0  0  0  0  0  0  0  0  0  0  0
  138.4770   69.3550  221.8260 C   0  0  0  0  0  0  0  0  0  0  0  0
  139.3110   75.5430  222.7020 C   0  0  0  0  0  0  0  0  0  0  0  0
  138.5720   76.7060  222.0270 C   0  0  0  0  0  0  0  0  0  0  0  0
  138.2599   81.3086  224.6552 H   0  0  0  0  0  0  0  0  0  0  0  0
  136.7999   80.4024  224.1319 H   0  0  0  0  0  0  0  0  0  0  0  0
  138.4051   79.5963  224.1319 H   0  0  0  0  0  0  0  0  0  0  0  0
  137.2109   81.5229  222.1484 H   0  0  0  0  0  0  0  0  0  0  0  0
  138.9622   81.6980  222.4805 H   0  0  0  0  0  0  0  0  0  0  0  0
  140.3452   78.3939  224.2476 H   0  0  0  0  0  0  0  0  0  0  0  0
  142.4086   79.3496  225.2230 H   0  0  0  0  0  0  0  0  0  0  0  0
  143.8581   80.9034  223.9725 H   0  0  0  0  0  0  0  0  0  0  0  0
  143.2251   81.5285  221.6450 H   0  0  0  0  0  0  0  0  0  0  0  0
  141.1607   80.5989  220.6014 H   0  0  0  0  0  0  0  0  0  0  0  0
  139.1837   77.4970  220.2289 H   0  0  0  0  0  0  0  0  0  0  0  0
  141.5166   77.6774  220.5403 H   0  0  0  0  0  0  0  0  0  0  0  0
  141.3314   77.3220  222.3276 H   0  0  0  0  0  0  0  0  0  0  0  0
  141.1928   75.4731  219.9791 H   0  0  0  0  0  0  0  0  0  0  0  0
  142.0913   75.3308  221.5342 H   0  0  0  0  0  0  0  0  0  0  0  0
  138.0483   73.2213  222.2518 H   0  0  0  0  0  0  0  0  0  0  0  0
  138.1216   72.3790  220.6778 H   0  0  0  0  0  0  0  0  0  0  0  0
  140.0478   71.0930  221.4765 H   0  0  0  0  0  0  0  0  0  0  0  0
  141.1533   72.1951  223.2649 H   0  0  0  0  0  0  0  0  0  0  0  0
  139.7180   72.8221  223.9897 H   0  0  0  0  0  0  0  0  0  0  0  0
  140.7048   69.8306  223.9661 H   0  0  0  0  0  0  0  0  0  0  0  0
  141.4199   72.6197  225.2665 H   0  0  0  0  0  0  0  0  0  0  0  0
  142.0275   72.9458  227.6780 H   0  0  0  0  0  0  0  0  0  0  0  0
  141.2903   71.3219  229.3819 H   0  0  0  0  0  0  0  0  0  0  0  0
  139.9349   69.3297  228.7485 H   0  0  0  0  0  0  0  0  0  0  0  0
  139.3354   69.0120  226.3439 H   0  0  0  0  0  0  0  0  0  0  0  0
  138.4328   69.1501  224.1619 H   0  0  0  0  0  0  0  0  0  0  0  0
  137.8682   70.7423  224.6547 H   0  0  0  0  0  0  0  0  0  0  0  0
  138.5472   68.4855  222.4962 H   0  0  0  0  0  0  0  0  0  0  0  0
  137.5838   69.2577  221.1914 H   0  0  0  0  0  0  0  0  0  0  0  0
  139.3743   69.4022  221.1914 H   0  0  0  0  0  0  0  0  0  0  0  0
  138.5958   74.8403  223.1543 H   0  0  0  0  0  0  0  0  0  0  0  0
  139.9697   75.8858  223.5135 H   0  0  0  0  0  0  0  0  0  0  0  0
  137.8237   76.3002  221.3303 H   0  0  0  0  0  0  0  0  0  0  0  0
  138.0861   77.3110  222.8067 H   0  0  0  0  0  0  0  0  0  0  0  0
  1  2  1  0
  2  3  1  0
  3  4  2  0
  3  5  1  0
  5  6  1  0
  6  7  2  0
  7  8  1  0
  8  9  2  0
  9 10  1  0
 10 11  2  0
  5 12  1  0
 12 13  1  0
 13 14  1  0
 14 15  1  0
 15 16  1  0
 16 17  2  0
 16 18  1  0
 18 19  1  0
 19 20  1  0
 20 21  1  0
 21 22  1  0
 22 23  2  0
 23 24  1  0
 24 25  2  0
 25 26  1  0
 26 27  2  0
 21 28  1  0
 28 29  1  0
 29 30  1  0
 15 31  1  0
 31 32  1  0
 11  6  1  0
 32 12  1  0
 29 19  1  0
 27 22  1  0
  1 33  1  0
  1 34  1  0
  1 35  1  0
  2 36  1  0
  2 37  1  0
  7 38  1  0
  8 39  1  0
  9 40  1  0
 10 41  1  0
 11 42  1  0
 12 43  1  0
 13 44  1  0
 13 45  1  0
 14 46  1  0
 14 47  1  0
 18 48  1  0
 18 49  1  0
 19 50  1  6
 20 51  1  0
 20 52  1  0
 21 53  1  6
 23 54  1  0
 24 55  1  0
 25 56  1  0
 26 57  1  0
 27 58  1  0
 28 59  1  0
 28 60  1  0
 30 61  1  0
 30 62  1  0
 30 63  1  0
 31 64  1  0
 31 65  1  0
 32 66  1  0
 32 67  1  0
M  END
>  <smiles>  (43) 
CCC(=O)N(c1ccccc1)C1CCN(C(=O)C[C@H]2C[C@@H](c3ccccc3)CN2C)CC1

>  <score_type>  (43) 
oracle

>  <origin>  (43) 
autodockgpu

>  <m_score__min__energy>  (43) 
-8.6500000000000004

>  <m_primary>  (43) 
energy

>  <rmsd>  (43) 
2.962179186122048

>  <m_score__min__rmsd>  (43) 
2.962179186122048

>  <meeko>  (43) 
{"free_energy": -8.19, "intermolecular_energy": -10.28, "internal_energy": -1.77, "cluster_size": 21, "cluster_id": 2, "rank_in_cluster": 10}

>  <energy>  (43) 
-8.15

>  <cluster_rmsd>  (43) 
0.48

>  <cluster>  (43) 
3

$$$$

     RDKit          3D

 67 70  0  0  0  0  0  0  0  0999 V2000
  146.7010   73.3690  222.2520 C   0  0  0  0  0  0  0  0  0  0  0  0
  145.9800   74.1820  221.1760 C   0  0  0  0  0  0  0  0  0  0  0  0
  145.6400   73.2890  220.0550 C   0  0  0  0  0  0  0  0  0  0  0  0
  146.4630   73.3210  219.0670 O   0  0  0  0  0  0  0  0  0  0  0  0
  144.5610   72.4220  219.9130 N   0  0  0  0  0  0  0  0  0  0  0  0
  144.7460   71.3710  218.9180 C   0  0  0  0  0  0  0  0  0  0  0  0
  144.3100   71.5520  217.6170 C   0  0  0  0  0  0  0  0  0  0  0  0
  144.5150   70.5080  216.7420 C   0  0  0  0  0  0  0  0  0  0  0  0
  145.1190   69.3200  217.0980 C   0  0  0  0  0  0  0  0  0  0  0  0
  145.5400   69.1770  218.4080 C   0  0  0  0  0  0  0  0  0  0  0  0
  145.3620   70.1950  219.3370 C   0  0  0  0  0  0  0  0  0  0  0  0
  143.3070   72.4100  220.6120 C   0  0  0  0  0  0  0  0  0  0  0  0
  142.6660   73.7790  220.4870 C   0  0  0  0  0  0  0  0  0  0  0  0
  141.2530   73.8410  220.9810 C   0  0  0  0  0  0  0  0  0  0  0  0
  140.5670   72.5900  220.6980 N   0  0  0  0  0  0  0  0  0  0  0  0
  139.4450   72.2700  221.4830 C   0  0  0  0  0  0  0  0  0  0  0  0
  139.1110   73.1030  222.3780 O   0  0  0  0  0  0  0  0  0  0  0  0
  138.6180   71.0520  221.3630 C   0  0  0  0  0  0  0  0  0  0  0  0
  139.0230   70.0990  222.4550 C   0  0  1  0  0  0  0  0  0  0  0  0
  139.9520   70.7640  223.4640 C   0  0  0  0  0  0  0  0  0  0  0  0
  139.6090   69.9230  224.7030 C   0  0  1  0  0  0  0  0  0  0  0  0
  140.1000   70.5360  225.9460 C   0  0  0  0  0  0  0  0  0  0  0  0
  140.8960   71.6670  225.8290 C   0  0  0  0  0  0  0  0  0  0  0  0
  141.3710   72.2610  227.0010 C   0  0  0  0  0  0  0  0  0  0  0  0
  141.0520   71.7320  228.2380 C   0  0  0  0  0  0  0  0  0  0  0  0
  140.2590   70.6050  228.3570 C   0  0  0  0  0  0  0  0  0  0  0  0
  139.7900   70.0190  227.1850 C   0  0  0  0  0  0  0  0  0  0  0  0
  138.1250   69.8160  224.5870 C   0  0  0  0  0  0  0  0  0  0  0  0
  137.8900   69.6280  223.1820 N   0  0  0  0  0  0  0  0  0  0  0  0
  137.6440   68.2330  222.9350 C   0  0  0  0  0  0  0  0  0  0  0  0
  141.1070   71.7830  219.6280 C   0  0  0  0  0  0  0  0  0  0  0  0
  142.4570   71.2790  220.1560 C   0  0  0  0  0  0  0  0  0  0  0  0
  146.3897   73.7200  223.2469 H   0  0  0  0  0  0  0  0  0  0  0  0
  146.4440   72.3052  222.1415 H   0  0  0  0  0  0  0  0  0  0  0  0
  147.7879   73.4970  222.1415 H   0  0  0  0  0  0  0  0  0  0  0  0
  145.0602   74.6163  221.5949 H   0  0  0  0  0  0  0  0  0  0  0  0
  146.6313   74.9948  220.8223 H   0  0  0  0  0  0  0  0  0  0  0  0
  143.8230   72.4850  217.2970 H   0  0  0  0  0  0  0  0  0  0  0  0
  144.1784   70.6283  215.7017 H   0  0  0  0  0  0  0  0  0  0  0  0
  145.2612   68.5129  216.3643 H   0  0  0  0  0  0  0  0  0  0  0  0
  146.0246   68.2401  218.7200 H   0  0  0  0  0  0  0  0  0  0  0  0
  145.6993   70.0747  220.3771 H   0  0  0  0  0  0  0  0  0  0  0  0
  143.4554   72.2260  221.6863 H   0  0  0  0  0  0  0  0  0  0  0  0
  143.2663   74.4956  221.0668 H   0  0  0  0  0  0  0  0  0  0  0  0
  142.6373   74.0186  219.4138 H   0  0  0  0  0  0  0  0  0  0  0  0
  141.2550   74.0168  222.0669 H   0  0  0  0  0  0  0  0  0  0  0  0
  140.7292   74.6616  220.4689 H   0  0  0  0  0  0  0  0  0  0  0  0
  137.5546   71.3118  221.4710 H   0  0  0  0  0  0  0  0  0  0  0  0
  138.7679   70.5866  220.3777 H   0  0  0  0  0  0  0  0  0  0  0  0
  139.5350   69.2654  221.9520 H   0  0  0  0  0  0  0  0  0  0  0  0
  141.0095   70.6641  223.1783 H   0  0  0  0  0  0  0  0  0  0  0  0
  139.8220   71.8501  223.5804 H   0  0  0  0  0  0  0  0  0  0  0  0
  140.0924   68.9359  224.7460 H   0  0  0  0  0  0  0  0  0  0  0  0
  141.1457   72.0836  224.8420 H   0  0  0  0  0  0  0  0  0  0  0  0
  142.0047   73.1580  226.9390 H   0  0  0  0  0  0  0  0  0  0  0  0
  141.4370   72.2177  229.1468 H   0  0  0  0  0  0  0  0  0  0  0  0
  140.0080   70.1867  229.3429 H   0  0  0  0  0  0  0  0  0  0  0  0
  139.1568   69.1218  227.2493 H   0  0  0  0  0  0  0  0  0  0  0  0
  137.7503   68.9570  225.1629 H   0  0  0  0  0  0  0  0  0  0  0  0
  137.6080   70.7020  224.9841 H   0  0  0  0  0  0  0  0  0  0  0  0
  137.5503   67.7018  223.8937 H   0  0  0  0  0  0  0  0  0  0  0  0
  136.7122   68.1210  222.3612 H   0  0  0  0  0  0  0  0  0  0  0  0
  138.4812   67.8090  222.3612 H   0  0  0  0  0  0  0  0  0  0  0  0
  140.4387   70.9381  219.4054 H   0  0  0  0  0  0  0  0  0  0  0  0
  141.2146   72.3529  218.6934 H   0  0  0  0  0  0  0  0  0  0  0  0
  142.2808   70.5978  221.0016 H   0  0  0  0  0  0  0  0  0  0  0  0
  142.9784   70.7554  219.3412 H   0  0  0  0  0  0  0  0  0  0  0  0
  1  2  1  0
  2  3  1  0
  3  4  2  0
  3  5  1  0
  5  6  1  0
  6  7  2  0
  7  8  1  0
  8  9  2  0
  9 10  1  0
 10 11  2  0
  5 12  1  0
 12 13  1  0
 13 14  1  0
 14 15  1  0
 15 16  1  0
 16 17  2  0
 16 18  1  0
 18 19  1  0
 19 20  1  0
 20 21  1  0
 21 22  1  0
 22 23  2  0
 23 24  1  0
 24 25  2  0
 25 26  1  0
 26 27  2  0
 21 28  1  0
 28 29  1  0
 29 30  1  0
 15 31  1  0
 31 32  1  0
 11  6  1  0
 32 12  1  0
 29 19  1  0
 27 22  1  0
  1 33  1  0
  1 34  1  0
  1 35  1  0
  2 36  1  0
  2 37  1  0
  7 38  1  0
  8 39  1  0
  9 40  1  0
 10 41  1  0
 11 42  1  0
 12 43  1  0
 13 44  1  0
 13 45  1  0
 14 46  1  0
 14 47  1  0
 18 48  1  0
 18 49  1  0
 19 50  1  6
 20 51  1  0
 20 52  1  0
 21 53  1  6
 23 54  1  0
 24 55  1  0
 25 56  1  0
 26 57  1  0
 27 58  1  0
 28 59  1  0
 28 60  1  0
 30 61  1  0
 30 62  1  0
 30 63  1  0
 31 64  1  0
 31 65  1  0
 32 66  1  0
 32 67  1  0
M  END
>  <smiles>  (44) 
CCC(=O)N(c1ccccc1)C1CCN(C(=O)C[C@H]2C[C@@H](c3ccccc3)CN2C)CC1

>  <score_type>  (44) 
oracle

>  <origin>  (44) 
autodockgpu

>  <m_score__min__energy>  (44) 
-8.6500000000000004

>  <m_primary>  (44) 
energy

>  <rmsd>  (44) 
2.480870950239255

>  <m_score__min__rmsd>  (44) 
2.480870950239255

>  <meeko>  (44) 
{"free_energy": -8.07, "intermolecular_energy": -10.16, "internal_energy": -1.87, "cluster_size": 11, "cluster_id": 1, "rank_in_cluster": 9}

>  <energy>  (44) 
-8.06

>  <cluster_rmsd>  (44) 
1.57

>  <cluster>  (44) 
3

$$$$

     RDKit          3D

 67 70  0  0  0  0  0  0  0  0999 V2000
  146.3380   73.0850  221.9570 C   0  0  0  0  0  0  0  0  0  0  0  0
  146.5510   73.7560  220.5990 C   0  0  0  0  0  0  0  0  0  0  0  0
  145.7740   73.0270  219.5830 C   0  0  0  0  0  0  0  0  0  0  0  0
  146.2870   73.0290  218.4030 O   0  0  0  0  0  0  0  0  0  0  0  0
  144.5700   72.3430  219.7150 N   0  0  0  0  0  0  0  0  0  0  0  0
  144.4960   71.0840  218.9810 C   0  0  0  0  0  0  0  0  0  0  0  0
  144.0940   71.0670  217.6560 C   0  0  0  0  0  0  0  0  0  0  0  0
  144.0430   69.8370  217.0380 C   0  0  0  0  0  0  0  0  0  0  0  0
  144.3660   68.6520  217.6660 C   0  0  0  0  0  0  0  0  0  0  0  0
  144.7630   68.7100  218.9900 C   0  0  0  0  0  0  0  0  0  0  0  0
  144.8350   69.9210  219.6680 C   0  0  0  0  0  0  0  0  0  0  0  0
  143.4050   72.6920  220.4770 C   0  0  0  0  0  0  0  0  0  0  0  0
  143.0050   74.1130  220.1310 C   0  0  0  0  0  0  0  0  0  0  0  0
  141.6770   74.5280  220.6890 C   0  0  0  0  0  0  0  0  0  0  0  0
  140.7590   73.4000  220.6920 N   0  0  0  0  0  0  0  0  0  0  0  0
  139.6770   73.4430  221.5900 C   0  0  0  0  0  0  0  0  0  0  0  0
  139.5810   74.4690  222.3280 O   0  0  0  0  0  0  0  0  0  0  0  0
  138.6420   72.4020  221.7560 C   0  0  0  0  0  0  0  0  0  0  0  0
  139.2680   71.2240  222.4530 C   0  0  1  0  0  0  0  0  0  0  0  0
  140.1530   71.6640  223.6130 C   0  0  0  0  0  0  0  0  0  0  0  0
  140.0340   70.4150  224.4990 C   0  0  1  0  0  0  0  0  0  0  0  0
  140.5140   70.6550  225.8690 C   0  0  0  0  0  0  0  0  0  0  0  0
  140.4610   69.5910  226.7590 C   0  0  0  0  0  0  0  0  0  0  0  0
  140.9130   69.8020  228.0640 C   0  0  0  0  0  0  0  0  0  0  0  0
  141.3970   71.0390  228.4500 C   0  0  0  0  0  0  0  0  0  0  0  0
  141.4500   72.1010  227.5640 C   0  0  0  0  0  0  0  0  0  0  0  0
  140.9980   71.8820  226.2660 C   0  0  0  0  0  0  0  0  0  0  0  0
  138.5800   70.1030  224.3780 C   0  0  0  0  0  0  0  0  0  0  0  0
  138.2760   70.3540  222.9960 N   0  0  0  0  0  0  0  0  0  0  0  0
  138.2300   69.1000  222.2950 C   0  0  0  0  0  0  0  0  0  0  0  0
  141.0460   72.3290  219.7660 C   0  0  0  0  0  0  0  0  0  0  0  0
  142.3310   71.6800  220.2990 C   0  0  0  0  0  0  0  0  0  0  0  0
  146.5655   73.8017  222.7598 H   0  0  0  0  0  0  0  0  0  0  0  0
  145.2916   72.7571  222.0439 H   0  0  0  0  0  0  0  0  0  0  0  0
  147.0037   72.2136  222.0439 H   0  0  0  0  0  0  0  0  0  0  0  0
  146.2105   74.8010  220.6454 H   0  0  0  0  0  0  0  0  0  0  0  0
  147.6191   73.7384  220.3366 H   0  0  0  0  0  0  0  0  0  0  0  0
  143.8281   71.9915  217.1225 H   0  0  0  0  0  0  0  0  0  0  0  0
  143.7271   69.7975  215.9851 H   0  0  0  0  0  0  0  0  0  0  0  0
  144.3097   67.6923  217.1315 H   0  0  0  0  0  0  0  0  0  0  0  0
  145.0265   67.7804  219.5158 H   0  0  0  0  0  0  0  0  0  0  0  0
  145.1518   69.9599  220.7207 H   0  0  0  0  0  0  0  0  0  0  0  0
  143.6193   72.6758  221.5558 H   0  0  0  0  0  0  0  0  0  0  0  0
  143.7735   74.7940  220.5255 H   0  0  0  0  0  0  0  0  0  0  0  0
  142.9175   74.1601  219.0355 H   0  0  0  0  0  0  0  0  0  0  0  0
  141.8125   74.8890  221.7192 H   0  0  0  0  0  0  0  0  0  0  0  0
  141.2589   75.3295  220.0622 H   0  0  0  0  0  0  0  0  0  0  0  0
  137.8121   72.7951  222.3615 H   0  0  0  0  0  0  0  0  0  0  0  0
  138.2479   72.0979  220.7751 H   0  0  0  0  0  0  0  0  0  0  0  0
  139.8651   70.7044  221.6891 H   0  0  0  0  0  0  0  0  0  0  0  0
  141.1900   71.8453  223.2940 H   0  0  0  0  0  0  0  0  0  0  0  0
  139.8654   72.6113  224.0925 H   0  0  0  0  0  0  0  0  0  0  0  0
  140.6654   69.5664  224.1968 H   0  0  0  0  0  0  0  0  0  0  0  0
  140.0743   68.6100  226.4458 H   0  0  0  0  0  0  0  0  0  0  0  0
  140.8837   68.9771  228.7911 H   0  0  0  0  0  0  0  0  0  0  0  0
  141.7472   71.1817  229.4830 H   0  0  0  0  0  0  0  0  0  0  0  0
  141.8357   73.0832  227.8747 H   0  0  0  0  0  0  0  0  0  0  0  0
  141.0280   72.7080  225.5402 H   0  0  0  0  0  0  0  0  0  0  0  0
  138.3845   69.0515  224.6351 H   0  0  0  0  0  0  0  0  0  0  0  0
  137.9629   70.7063  225.0600 H   0  0  0  0  0  0  0  0  0  0  0  0
  138.1997   68.2747  223.0216 H   0  0  0  0  0  0  0  0  0  0  0  0
  137.3300   69.0658  221.6635 H   0  0  0  0  0  0  0  0  0  0  0  0
  139.1251   68.9999  221.6635 H   0  0  0  0  0  0  0  0  0  0  0  0
  140.2223   71.6002  219.7498 H   0  0  0  0  0  0  0  0  0  0  0  0
  141.1630   72.6934  218.7347 H   0  0  0  0  0  0  0  0  0  0  0  0
  142.1190   71.2061  221.2688 H   0  0  0  0  0  0  0  0  0  0  0  0
  142.6732   70.9305  219.5702 H   0  0  0  0  0  0  0  0  0  0  0  0
  1  2  1  0
  2  3  1  0
  3  4  2  0
  3  5  1  0
  5  6  1  0
  6  7  2  0
  7  8  1  0
  8  9  2  0
  9 10  1  0
 10 11  2  0
  5 12  1  0
 12 13  1  0
 13 14  1  0
 14 15  1  0
 15 16  1  0
 16 17  2  0
 16 18  1  0
 18 19  1  0
 19 20  1  0
 20 21  1  0
 21 22  1  0
 22 23  2  0
 23 24  1  0
 24 25  2  0
 25 26  1  0
 26 27  2  0
 21 28  1  0
 28 29  1  0
 29 30  1  0
 15 31  1  0
 31 32  1  0
 11  6  1  0
 32 12  1  0
 29 19  1  0
 27 22  1  0
  1 33  1  0
  1 34  1  0
  1 35  1  0
  2 36  1  0
  2 37  1  0
  7 38  1  0
  8 39  1  0
  9 40  1  0
 10 41  1  0
 11 42  1  0
 12 43  1  0
 13 44  1  0
 13 45  1  0
 14 46  1  0
 14 47  1  0
 18 48  1  0
 18 49  1  0
 19 50  1  6
 20 51  1  0
 20 52  1  0
 21 53  1  6
 23 54  1  0
 24 55  1  0
 25 56  1  0
 26 57  1  0
 27 58  1  0
 28 59  1  0
 28 60  1  0
 30 61  1  0
 30 62  1  0
 30 63  1  0
 31 64  1  0
 31 65  1  0
 32 66  1  0
 32 67  1  0
M  END
>  <smiles>  (45) 
CCC(=O)N(c1ccccc1)C1CCN(C(=O)C[C@H]2C[C@@H](c3ccccc3)CN2C)CC1

>  <score_type>  (45) 
oracle

>  <origin>  (45) 
autodockgpu

>  <m_score__min__energy>  (45) 
-8.6500000000000004

>  <m_primary>  (45) 
energy

>  <rmsd>  (45) 
2.9886196289353633

>  <m_score__min__rmsd>  (45) 
2.9886196289353633

>  <meeko>  (45) 
{"free_energy": -8.65, "intermolecular_energy": -10.74, "internal_energy": -1.99, "cluster_size": 11, "cluster_id": 1, "rank_in_cluster": 1}

>  <energy>  (45) 
-7.72

>  <cluster_rmsd>  (45) 
1.49

>  <cluster>  (45) 
3

$$$$

     RDKit          3D

 67 70  0  0  0  0  0  0  0  0999 V2000
  143.7210   74.5820  220.0940 C   0  0  0  0  0  0  0  0  0  0  0  0
  143.5320   76.0440  219.6850 C   0  0  0  0  0  0  0  0  0  0  0  0
  142.1070   76.3920  219.8180 C   0  0  0  0  0  0  0  0  0  0  0  0
  141.5050   76.6470  218.7090 O   0  0  0  0  0  0  0  0  0  0  0  0
  141.3240   76.4870  220.9640 N   0  0  0  0  0  0  0  0  0  0  0  0
  141.4280   77.7580  221.6740 C   0  0  0  0  0  0  0  0  0  0  0  0
  141.5220   78.9480  220.9730 C   0  0  0  0  0  0  0  0  0  0  0  0
  141.6250   80.1010  221.7180 C   0  0  0  0  0  0  0  0  0  0  0  0
  141.6390   80.1220  223.0970 C   0  0  0  0  0  0  0  0  0  0  0  0
  141.5430   78.9120  223.7620 C   0  0  0  0  0  0  0  0  0  0  0  0
  141.4360   77.7140  223.0660 C   0  0  0  0  0  0  0  0  0  0  0  0
  140.4260   75.5230  221.5330 C   0  0  0  0  0  0  0  0  0  0  0  0
  139.0710   76.1750  221.7270 C   0  0  0  0  0  0  0  0  0  0  0  0
  137.9800   75.2190  222.1070 C   0  0  0  0  0  0  0  0  0  0  0  0
  138.1830   73.9390  221.4480 N   0  0  0  0  0  0  0  0  0  0  0  0
  137.5860   72.8050  222.0290 C   0  0  0  0  0  0  0  0  0  0  0  0
  136.9080   72.9880  223.0840 O   0  0  0  0  0  0  0  0  0  0  0  0
  137.6750   71.4200  221.5240 C   0  0  0  0  0  0  0  0  0  0  0  0
  138.8650   70.7610  222.1690 C   0  0  1  0  0  0  0  0  0  0  0  0
  139.3650   71.5560  223.3690 C   0  0  0  0  0  0  0  0  0  0  0  0
  139.9830   70.4090  224.1820 C   0  0  1  0  0  0  0  0  0  0  0  0
  140.2630   70.7980  225.5720 C   0  0  0  0  0  0  0  0  0  0  0  0
  139.7050   70.0210  226.5780 C   0  0  0  0  0  0  0  0  0  0  0  0
  139.9620   70.3780  227.9040 C   0  0  0  0  0  0  0  0  0  0  0  0
  140.7500   71.4750  228.1980 C   0  0  0  0  0  0  0  0  0  0  0  0
  141.3080   72.2520  227.1980 C   0  0  0  0  0  0  0  0  0  0  0  0
  141.0470   71.8890  225.8790 C   0  0  0  0  0  0  0  0  0  0  0  0
  138.9550   69.3400  224.0140 C   0  0  0  0  0  0  0  0  0  0  0  0
  138.5440   69.4550  222.6420 N   0  0  0  0  0  0  0  0  0  0  0  0
  139.2020   68.4350  221.8720 C   0  0  0  0  0  0  0  0  0  0  0  0
  138.9880   73.9480  220.2470 C   0  0  0  0  0  0  0  0  0  0  0  0
  140.4090   74.2740  220.7280 C   0  0  0  0  0  0  0  0  0  0  0  0
  143.7307   74.5066  221.1914 H   0  0  0  0  0  0  0  0  0  0  0  0
  142.8933   73.9790  219.6923 H   0  0  0  0  0  0  0  0  0  0  0  0
  144.6748   74.2093  219.6923 H   0  0  0  0  0  0  0  0  0  0  0  0
  144.1337   76.6920  220.3392 H   0  0  0  0  0  0  0  0  0  0  0  0
  143.8566   76.1865  218.6437 H   0  0  0  0  0  0  0  0  0  0  0  0
  141.5148   78.9712  219.8733 H   0  0  0  0  0  0  0  0  0  0  0  0
  141.7004   81.0594  221.1835 H   0  0  0  0  0  0  0  0  0  0  0  0
  141.7237   81.0691  223.6500 H   0  0  0  0  0  0  0  0  0  0  0  0
  141.5515   78.8984  224.8619 H   0  0  0  0  0  0  0  0  0  0  0  0
  141.3596   76.7557  223.6007 H   0  0  0  0  0  0  0  0  0  0  0  0
  140.7690   75.2022  222.5277 H   0  0  0  0  0  0  0  0  0  0  0  0
  139.1615   76.9296  222.5223 H   0  0  0  0  0  0  0  0  0  0  0  0
  138.7872   76.6109  220.7578 H   0  0  0  0  0  0  0  0  0  0  0  0
  137.9888   75.0721  223.1971 H   0  0  0  0  0  0  0  0  0  0  0  0
  137.0117   75.6355  221.7924 H   0  0  0  0  0  0  0  0  0  0  0  0
  136.7585   70.8695  221.7828 H   0  0  0  0  0  0  0  0  0  0  0  0
  137.7871   71.4205  220.4297 H   0  0  0  0  0  0  0  0  0  0  0  0
  139.6402   70.7121  221.3901 H   0  0  0  0  0  0  0  0  0  0  0  0
  140.1150   72.3076  223.0815 H   0  0  0  0  0  0  0  0  0  0  0  0
  138.6007   72.1477  223.8941 H   0  0  0  0  0  0  0  0  0  0  0  0
  140.9785   70.0827  223.8466 H   0  0  0  0  0  0  0  0  0  0  0  0
  139.0785   69.1493  226.3380 H   0  0  0  0  0  0  0  0  0  0  0  0
  139.5332   69.7804  228.7219 H   0  0  0  0  0  0  0  0  0  0  0  0
  140.9377   71.7361  229.2500 H   0  0  0  0  0  0  0  0  0  0  0  0
  141.9346   73.1242  227.4361 H   0  0  0  0  0  0  0  0  0  0  0  0
  141.4771   72.4876  225.0625 H   0  0  0  0  0  0  0  0  0  0  0  0
  139.3888   68.3481  224.2090 H   0  0  0  0  0  0  0  0  0  0  0  0
  138.1147   69.4511  224.7151 H   0  0  0  0  0  0  0  0  0  0  0  0
  139.6710   67.7080  222.5513 H   0  0  0  0  0  0  0  0  0  0  0  0
  138.4645   67.9214  221.2377 H   0  0  0  0  0  0  0  0  0  0  0  0
  139.9740   68.8951  221.2377 H   0  0  0  0  0  0  0  0  0  0  0  0
  138.9616   72.9641  219.7558 H   0  0  0  0  0  0  0  0  0  0  0  0
  138.6228   74.6769  219.5085 H   0  0  0  0  0  0  0  0  0  0  0  0
  140.7790   73.4427  221.3461 H   0  0  0  0  0  0  0  0  0  0  0  0
  141.0528   74.4161  219.8475 H   0  0  0  0  0  0  0  0  0  0  0  0
  1  2  1  0
  2  3  1  0
  3  4  2  0
  3  5  1  0
  5  6  1  0
  6  7  2  0
  7  8  1  0
  8  9  2  0
  9 10  1  0
 10 11  2  0
  5 12  1  0
 12 13  1  0
 13 14  1  0
 14 15  1  0
 15 16  1  0
 16 17  2  0
 16 18  1  0
 18 19  1  0
 19 20  1  0
 20 21  1  0
 21 22  1  0
 22 23  2  0
 23 24  1  0
 24 25  2  0
 25 26  1  0
 26 27  2  0
 21 28  1  0
 28 29  1  0
 29 30  1  0
 15 31  1  0
 31 32  1  0
 11  6  1  0
 32 12  1  0
 29 19  1  0
 27 22  1  0
  1 33  1  0
  1 34  1  0
  1 35  1  0
  2 36  1  0
  2 37  1  0
  7 38  1  0
  8 39  1  0
  9 40  1  0
 10 41  1  0
 11 42  1  0
 12 43  1  0
 13 44  1  0
 13 45  1  0
 14 46  1  0
 14 47  1  0
 18 48  1  0
 18 49  1  0
 19 50  1  6
 20 51  1  0
 20 52  1  0
 21 53  1  6
 23 54  1  0
 24 55  1  0
 25 56  1  0
 26 57  1  0
 27 58  1  0
 28 59  1  0
 28 60  1  0
 30 61  1  0
 30 62  1  0
 30 63  1  0
 31 64  1  0
 31 65  1  0
 32 66  1  0
 32 67  1  0
M  END
>  <smiles>  (46) 
CCC(=O)N(c1ccccc1)C1CCN(C(=O)C[C@H]2C[C@@H](c3ccccc3)CN2C)CC1

>  <score_type>  (46) 
oracle

>  <origin>  (46) 
autodockgpu

>  <m_score__min__energy>  (46) 
-8.6500000000000004

>  <m_primary>  (46) 
energy

>  <rmsd>  (46) 
2.604015355294991

>  <m_score__min__rmsd>  (46) 
2.604015355294991

>  <meeko>  (46) 
{"free_energy": -8.07, "intermolecular_energy": -10.15, "internal_energy": -1.96, "cluster_size": 21, "cluster_id": 2, "rank_in_cluster": 17}

>  <energy>  (46) 
-7.71

>  <cluster_rmsd>  (46) 
0.85

>  <cluster>  (46) 
3

$$$$

     RDKit          3D

 67 70  0  0  0  0  0  0  0  0999 V2000
  140.9920   80.1790  218.3800 C   0  0  0  0  0  0  0  0  0  0  0  0
  139.5220   80.2420  218.7960 C   0  0  0  0  0  0  0  0  0  0  0  0
  139.3970   79.7360  220.1740 C   0  0  0  0  0  0  0  0  0  0  0  0
  138.4910   80.3130  220.8830 O   0  0  0  0  0  0  0  0  0  0  0  0
  140.1160   78.7330  220.8150 N   0  0  0  0  0  0  0  0  0  0  0  0
  140.9830   79.1930  221.8940 C   0  0  0  0  0  0  0  0  0  0  0  0
  140.7430   78.8050  223.2010 C   0  0  0  0  0  0  0  0  0  0  0  0
  141.6030   79.2900  224.1620 C   0  0  0  0  0  0  0  0  0  0  0  0
  142.6650   80.1240  223.8840 C   0  0  0  0  0  0  0  0  0  0  0  0
  142.8730   80.4900  222.5660 C   0  0  0  0  0  0  0  0  0  0  0  0
  142.0400   80.0330  221.5520 C   0  0  0  0  0  0  0  0  0  0  0  0
  140.1140   77.3180  220.5730 C   0  0  0  0  0  0  0  0  0  0  0  0
  141.5000   76.7730  220.8570 C   0  0  0  0  0  0  0  0  0  0  0  0
  141.5820   75.2760  220.8580 C   0  0  0  0  0  0  0  0  0  0  0  0
  140.3560   74.7080  221.3960 N   0  0  0  0  0  0  0  0  0  0  0  0
  140.0400   73.3840  221.0400 C   0  0  0  0  0  0  0  0  0  0  0  0
  140.8560   72.7820  220.2780 O   0  0  0  0  0  0  0  0  0  0  0  0
  138.8470   72.6280  221.4700 C   0  0  0  0  0  0  0  0  0  0  0  0
  139.3080   71.4080  222.2220 C   0  0  1  0  0  0  0  0  0  0  0  0
  140.1680   71.7820  223.4240 C   0  0  0  0  0  0  0  0  0  0  0  0
  139.8730   70.5710  224.3210 C   0  0  1  0  0  0  0  0  0  0  0  0
  140.2970   70.7900  225.7120 C   0  0  0  0  0  0  0  0  0  0  0  0
  139.9130   69.8450  226.6530 C   0  0  0  0  0  0  0  0  0  0  0  0
  140.3090   70.0390  227.9790 C   0  0  0  0  0  0  0  0  0  0  0  0
  141.0600   71.1440  228.3360 C   0  0  0  0  0  0  0  0  0  0  0  0
  141.4440   72.0880  227.3990 C   0  0  0  0  0  0  0  0  0  0  0  0
  141.0460   71.8870  226.0800 C   0  0  0  0  0  0  0  0  0  0  0  0
  138.4030   70.4050  224.1210 C   0  0  0  0  0  0  0  0  0  0  0  0
  138.2040   70.6550  222.7200 N   0  0  0  0  0  0  0  0  0  0  0  0
  138.0690   69.3970  222.0380 C   0  0  0  0  0  0  0  0  0  0  0  0
  139.5670   75.5630  222.2530 C   0  0  0  0  0  0  0  0  0  0  0  0
  139.0170   76.6530  221.3240 C   0  0  0  0  0  0  0  0  0  0  0  0
  141.6264   80.1518  219.2782 H   0  0  0  0  0  0  0  0  0  0  0  0
  141.1651   79.2726  217.7813 H   0  0  0  0  0  0  0  0  0  0  0  0
  141.2420   81.0673  217.7813 H   0  0  0  0  0  0  0  0  0  0  0  0
  139.1692   81.2829  218.7508 H   0  0  0  0  0  0  0  0  0  0  0  0
  138.9141   79.6277  218.1155 H   0  0  0  0  0  0  0  0  0  0  0  0
  139.9053   78.1409  223.4601 H   0  0  0  0  0  0  0  0  0  0  0  0
  141.4330   78.9957  225.2082 H   0  0  0  0  0  0  0  0  0  0  0  0
  143.3261   80.4870  224.6847 H   0  0  0  0  0  0  0  0  0  0  0  0
  143.7130   81.1548  222.3163 H   0  0  0  0  0  0  0  0  0  0  0  0
  142.2110   80.3271  220.5059 H   0  0  0  0  0  0  0  0  0  0  0  0
  139.8963   77.0987  219.5173 H   0  0  0  0  0  0  0  0  0  0  0  0
  142.1859   77.1558  220.0870 H   0  0  0  0  0  0  0  0  0  0  0  0
  141.7696   77.1056  221.8703 H   0  0  0  0  0  0  0  0  0  0  0  0
  141.7267   74.9190  219.8277 H   0  0  0  0  0  0  0  0  0  0  0  0
  142.4293   74.9626  221.4856 H   0  0  0  0  0  0  0  0  0  0  0  0
  138.2246   73.2557  222.1247 H   0  0  0  0  0  0  0  0  0  0  0  0
  138.2498   72.3315  220.5951 H   0  0  0  0  0  0  0  0  0  0  0  0
  139.8900   70.8131  221.5027 H   0  0  0  0  0  0  0  0  0  0  0  0
  141.2342   71.8507  223.1622 H   0  0  0  0  0  0  0  0  0  0  0  0
  139.9527   72.7638  223.8710 H   0  0  0  0  0  0  0  0  0  0  0  0
  140.4308   69.6570  224.0691 H   0  0  0  0  0  0  0  0  0  0  0  0
  139.3143   68.9688  226.3635 H   0  0  0  0  0  0  0  0  0  0  0  0
  140.0205   69.3056  228.7464 H   0  0  0  0  0  0  0  0  0  0  0  0
  141.3585   71.2756  229.3865 H   0  0  0  0  0  0  0  0  0  0  0  0
  142.0421   72.9654  227.6863 H   0  0  0  0  0  0  0  0  0  0  0  0
  141.3361   72.6209  225.3137 H   0  0  0  0  0  0  0  0  0  0  0  0
  138.0870   69.3845  224.3833 H   0  0  0  0  0  0  0  0  0  0  0  0
  137.8136   71.0825  224.7563 H   0  0  0  0  0  0  0  0  0  0  0  0
  137.9821   68.5868  222.7769 H   0  0  0  0  0  0  0  0  0  0  0  0
  137.1678   69.4166  221.4076 H   0  0  0  0  0  0  0  0  0  0  0  0
  138.9538   69.2249  221.4076 H   0  0  0  0  0  0  0  0  0  0  0  0
  138.7447   74.9962  222.7141 H   0  0  0  0  0  0  0  0  0  0  0  0
  140.1602   75.9830  223.0787 H   0  0  0  0  0  0  0  0  0  0  0  0
  138.3171   76.1962  220.6088 H   0  0  0  0  0  0  0  0  0  0  0  0
  138.5041   77.4089  221.9368 H   0  0  0  0  0  0  0  0  0  0  0  0
  1  2  1  0
  2  3  1  0
  3  4  2  0
  3  5  1  0
  5  6  1  0
  6  7  2  0
  7  8  1  0
  8  9  2  0
  9 10  1  0
 10 11  2  0
  5 12  1  0
 12 13  1  0
 13 14  1  0
 14 15  1  0
 15 16  1  0
 16 17  2  0
 16 18  1  0
 18 19  1  0
 19 20  1  0
 20 21  1  0
 21 22  1  0
 22 23  2  0
 23 24  1  0
 24 25  2  0
 25 26  1  0
 26 27  2  0
 21 28  1  0
 28 29  1  0
 29 30  1  0
 15 31  1  0
 31 32  1  0
 11  6  1  0
 32 12  1  0
 29 19  1  0
 27 22  1  0
  1 33  1  0
  1 34  1  0
  1 35  1  0
  2 36  1  0
  2 37  1  0
  7 38  1  0
  8 39  1  0
  9 40  1  0
 10 41  1  0
 11 42  1  0
 12 43  1  0
 13 44  1  0
 13 45  1  0
 14 46  1  0
 14 47  1  0
 18 48  1  0
 18 49  1  0
 19 50  1  6
 20 51  1  0
 20 52  1  0
 21 53  1  6
 23 54  1  0
 24 55  1  0
 25 56  1  0
 26 57  1  0
 27 58  1  0
 28 59  1  0
 28 60  1  0
 30 61  1  0
 30 62  1  0
 30 63  1  0
 31 64  1  0
 31 65  1  0
 32 66  1  0
 32 67  1  0
M  END
>  <smiles>  (47) 
CCC(=O)N(c1ccccc1)C1CCN(C(=O)C[C@H]2C[C@@H](c3ccccc3)CN2C)CC1

>  <score_type>  (47) 
oracle

>  <origin>  (47) 
autodockgpu

>  <m_score__min__energy>  (47) 
-8.6500000000000004

>  <m_primary>  (47) 
energy

>  <rmsd>  (47) 
3.033210299596557

>  <m_score__min__rmsd>  (47) 
3.033210299596557

>  <meeko>  (47) 
{"free_energy": -8.11, "intermolecular_energy": -10.2, "internal_energy": -1.81, "cluster_size": 21, "cluster_id": 2, "rank_in_cluster": 13}

>  <energy>  (47) 
-8.15

>  <cluster_rmsd>  (47) 
0.0

>  <cluster>  (47) 
4

$$$$

     RDKit          3D

 67 70  0  0  0  0  0  0  0  0999 V2000
  134.6350   68.6270  225.3750 C   0  0  0  0  0  0  0  0  0  0  0  0
  135.5520   69.8500  225.3250 C   0  0  0  0  0  0  0  0  0  0  0  0
  136.7860   69.4870  224.6080 C   0  0  0  0  0  0  0  0  0  0  0  0
  136.6450   68.5760  223.7110 O   0  0  0  0  0  0  0  0  0  0  0  0
  138.0760   69.9850  224.7630 N   0  0  0  0  0  0  0  0  0  0  0  0
  138.9400   69.1910  225.6300 C   0  0  0  0  0  0  0  0  0  0  0  0
  139.2430   67.8790  225.3080 C   0  0  0  0  0  0  0  0  0  0  0  0
  140.0580   67.1960  226.1830 C   0  0  0  0  0  0  0  0  0  0  0  0
  140.5720   67.7490  227.3370 C   0  0  0  0  0  0  0  0  0  0  0  0
  140.2470   69.0630  227.6250 C   0  0  0  0  0  0  0  0  0  0  0  0
  139.4300   69.8040  226.7810 C   0  0  0  0  0  0  0  0  0  0  0  0
  138.6750   71.1540  224.1830 C   0  0  0  0  0  0  0  0  0  0  0  0
  139.9620   70.7500  223.4910 C   0  0  0  0  0  0  0  0  0  0  0  0
  140.5750   71.8330  222.6560 C   0  0  0  0  0  0  0  0  0  0  0  0
  139.5340   72.6380  222.0370 N   0  0  0  0  0  0  0  0  0  0  0  0
  139.8710   73.9440  221.6370 C   0  0  0  0  0  0  0  0  0  0  0  0
  141.0650   74.3200  221.8430 O   0  0  0  0  0  0  0  0  0  0  0  0
  138.9650   74.9210  221.0010 C   0  0  0  0  0  0  0  0  0  0  0  0
  138.6640   76.0040  222.0020 C   0  0  1  0  0  0  0  0  0  0  0  0
  139.9270   76.7410  222.4280 C   0  0  0  0  0  0  0  0  0  0  0  0
  139.3090   78.1020  222.7830 C   0  0  1  0  0  0  0  0  0  0  0  0
  140.3240   79.1580  222.9170 C   0  0  0  0  0  0  0  0  0  0  0  0
  139.9290   80.4610  222.6490 C   0  0  0  0  0  0  0  0  0  0  0  0
  140.8810   81.4760  222.7720 C   0  0  0  0  0  0  0  0  0  0  0  0
  142.1780   81.1820  223.1510 C   0  0  0  0  0  0  0  0  0  0  0  0
  142.5750   79.8830  223.4190 C   0  0  0  0  0  0  0  0  0  0  0  0
  141.6200   78.8780  223.2940 C   0  0  0  0  0  0  0  0  0  0  0  0
  138.3390   78.2880  221.6640 C   0  0  0  0  0  0  0  0  0  0  0  0
  137.7770   76.9810  221.4600 N   0  0  0  0  0  0  0  0  0  0  0  0
  136.4840   76.9290  222.0860 C   0  0  0  0  0  0  0  0  0  0  0  0
  138.2370   72.0180  221.8890 C   0  0  0  0  0  0  0  0  0  0  0  0
  137.7030   71.8750  223.3210 C   0  0  0  0  0  0  0  0  0  0  0  0
  134.4355   68.3609  226.4235 H   0  0  0  0  0  0  0  0  0  0  0  0
  133.6864   68.8590  224.8687 H   0  0  0  0  0  0  0  0  0  0  0  0
  135.1236   67.7814  224.8687 H   0  0  0  0  0  0  0  0  0  0  0  0
  135.0452   70.6711  224.7969 H   0  0  0  0  0  0  0  0  0  0  0  0
  135.7951   70.1777  226.3465 H   0  0  0  0  0  0  0  0  0  0  0  0
  138.8512   67.4045  224.3962 H   0  0  0  0  0  0  0  0  0  0  0  0
  140.3130   66.1520  225.9486 H   0  0  0  0  0  0  0  0  0  0  0  0
  141.2195   67.1644  228.0071 H   0  0  0  0  0  0  0  0  0  0  0  0
  140.6430   69.5292  228.5392 H   0  0  0  0  0  0  0  0  0  0  0  0
  139.1763   70.8484  227.0154 H   0  0  0  0  0  0  0  0  0  0  0  0
  138.9479   71.8843  224.9590 H   0  0  0  0  0  0  0  0  0  0  0  0
  140.6897   70.4540  224.2609 H   0  0  0  0  0  0  0  0  0  0  0  0
  139.7087   69.9272  222.8063 H   0  0  0  0  0  0  0  0  0  0  0  0
  141.1997   72.4749  223.2946 H   0  0  0  0  0  0  0  0  0  0  0  0
  141.1911   71.3746  221.8684 H   0  0  0  0  0  0  0  0  0  0  0  0
  139.4501   75.3570  220.1152 H   0  0  0  0  0  0  0  0  0  0  0  0
  138.0346   74.4266  220.6847 H   0  0  0  0  0  0  0  0  0  0  0  0
  138.2050   75.4979  222.8641 H   0  0  0  0  0  0  0  0  0  0  0  0
  140.4066   76.2674  223.2973 H   0  0  0  0  0  0  0  0  0  0  0  0
  140.7313   76.7699  221.6781 H   0  0  0  0  0  0  0  0  0  0  0  0
  138.8197   78.1499  223.7670 H   0  0  0  0  0  0  0  0  0  0  0  0
  138.8956   80.6882  222.3482 H   0  0  0  0  0  0  0  0  0  0  0  0
  140.5964   82.5183  222.5656 H   0  0  0  0  0  0  0  0  0  0  0  0
  142.9102   81.9979  223.2415 H   0  0  0  0  0  0  0  0  0  0  0  0
  143.6078   79.6534  223.7199 H   0  0  0  0  0  0  0  0  0  0  0  0
  141.9062   77.8362  223.5009 H   0  0  0  0  0  0  0  0  0  0  0  0
  137.5567   79.0094  221.9424 H   0  0  0  0  0  0  0  0  0  0  0  0
  138.8159   78.6867  220.7564 H   0  0  0  0  0  0  0  0  0  0  0  0
  136.6054   76.9339  223.1793 H   0  0  0  0  0  0  0  0  0  0  0  0
  135.8925   77.8041  221.7789 H   0  0  0  0  0  0  0  0  0  0  0  0
  135.9646   76.0092  221.7789 H   0  0  0  0  0  0  0  0  0  0  0  0
  137.5700   72.6542  221.2888 H   0  0  0  0  0  0  0  0  0  0  0  0
  138.2972   71.0498  221.3705 H   0  0  0  0  0  0  0  0  0  0  0  0
  137.5246   72.8763  223.7399 H   0  0  0  0  0  0  0  0  0  0  0  0
  136.7672   71.2976  223.2897 H   0  0  0  0  0  0  0  0  0  0  0  0
  1  2  1  0
  2  3  1  0
  3  4  2  0
  3  5  1  0
  5  6  1  0
  6  7  2  0
  7  8  1  0
  8  9  2  0
  9 10  1  0
 10 11  2  0
  5 12  1  0
 12 13  1  0
 13 14  1  0
 14 15  1  0
 15 16  1  0
 16 17  2  0
 16 18  1  0
 18 19  1  0
 19 20  1  0
 20 21  1  0
 21 22  1  0
 22 23  2  0
 23 24  1  0
 24 25  2  0
 25 26  1  0
 26 27  2  0
 21 28  1  0
 28 29  1  0
 29 30  1  0
 15 31  1  0
 31 32  1  0
 11  6  1  0
 32 12  1  0
 29 19  1  0
 27 22  1  0
  1 33  1  0
  1 34  1  0
  1 35  1  0
  2 36  1  0
  2 37  1  0
  7 38  1  0
  8 39  1  0
  9 40  1  0
 10 41  1  0
 11 42  1  0
 12 43  1  0
 13 44  1  0
 13 45  1  0
 14 46  1  0
 14 47  1  0
 18 48  1  0
 18 49  1  0
 19 50  1  1
 20 51  1  0
 20 52  1  0
 21 53  1  1
 23 54  1  0
 24 55  1  0
 25 56  1  0
 26 57  1  0
 27 58  1  0
 28 59  1  0
 28 60  1  0
 30 61  1  0
 30 62  1  0
 30 63  1  0
 31 64  1  0
 31 65  1  0
 32 66  1  0
 32 67  1  0
M  END
>  <smiles>  (48) 
CCC(=O)N(c1ccccc1)C1CCN(C(=O)C[C@H]2C[C@@H](c3ccccc3)CN2C)CC1

>  <score_type>  (48) 
oracle

>  <origin>  (48) 
autodockgpu

>  <m_score__min__energy>  (48) 
-8.6500000000000004

>  <m_primary>  (48) 
energy

>  <rmsd>  (48) 
8.441853976713675

>  <m_score__min__rmsd>  (48) 
8.441853976713675

>  <meeko>  (48) 
{"free_energy": -8.17, "intermolecular_energy": -10.25, "internal_energy": -1.62, "cluster_size": 14, "cluster_id": 3, "rank_in_cluster": 10}

>  <energy>  (48) 
-7.36

>  <cluster_rmsd>  (48) 
1.52

>  <cluster>  (48) 
4

$$$$

     RDKit          3D

 67 70  0  0  0  0  0  0  0  0999 V2000
  138.2900   67.7310  222.3360 C   0  0  0  0  0  0  0  0  0  0  0  0
  137.0460   68.4950  222.7930 C   0  0  0  0  0  0  0  0  0  0  0  0
  137.3220   69.1110  224.1020 C   0  0  0  0  0  0  0  0  0  0  0  0
  136.3970   68.9500  224.9820 O   0  0  0  0  0  0  0  0  0  0  0  0
  138.4310   69.8400  224.5180 N   0  0  0  0  0  0  0  0  0  0  0  0
  139.1980   69.2260  225.5970 C   0  0  0  0  0  0  0  0  0  0  0  0
  139.5300   67.8830  225.5460 C   0  0  0  0  0  0  0  0  0  0  0  0
  140.2490   67.3790  226.6080 C   0  0  0  0  0  0  0  0  0  0  0  0
  140.6400   68.1360  227.6920 C   0  0  0  0  0  0  0  0  0  0  0  0
  140.2890   69.4740  227.7080 C   0  0  0  0  0  0  0  0  0  0  0  0
  139.5660   70.0400  226.6650 C   0  0  0  0  0  0  0  0  0  0  0  0
  138.9300   71.0940  224.0310 C   0  0  0  0  0  0  0  0  0  0  0  0
  140.2030   70.8410  223.2470 C   0  0  0  0  0  0  0  0  0  0  0  0
  140.7080   72.0360  222.4970 C   0  0  0  0  0  0  0  0  0  0  0  0
  139.5920   72.8280  222.0050 N   0  0  0  0  0  0  0  0  0  0  0  0
  139.8310   74.1850  221.7220 C   0  0  0  0  0  0  0  0  0  0  0  0
  141.0080   74.6150  221.9110 O   0  0  0  0  0  0  0  0  0  0  0  0
  138.8370   75.1580  221.2240 C   0  0  0  0  0  0  0  0  0  0  0  0
  138.6170   76.1940  222.2940 C   0  0  1  0  0  0  0  0  0  0  0  0
  139.8980   76.9540  222.6120 C   0  0  0  0  0  0  0  0  0  0  0  0
  139.2850   78.2800  223.0860 C   0  0  1  0  0  0  0  0  0  0  0  0
  140.2790   79.3620  223.1530 C   0  0  0  0  0  0  0  0  0  0  0  0
  141.4940   79.0750  223.7600 C   0  0  0  0  0  0  0  0  0  0  0  0
  142.4490   80.0920  223.8320 C   0  0  0  0  0  0  0  0  0  0  0  0
  142.1840   81.3460  223.3120 C   0  0  0  0  0  0  0  0  0  0  0  0
  140.9730   81.6340  222.7060 C   0  0  0  0  0  0  0  0  0  0  0  0
  140.0270   80.6150  222.6390 C   0  0  0  0  0  0  0  0  0  0  0  0
  138.1950   78.4760  222.0850 C   0  0  0  0  0  0  0  0  0  0  0  0
  137.6500   77.1620  221.8900 N   0  0  0  0  0  0  0  0  0  0  0  0
  136.4340   77.0450  222.6490 C   0  0  0  0  0  0  0  0  0  0  0  0
  138.3280   72.1430  221.8540 C   0  0  0  0  0  0  0  0  0  0  0  0
  137.8750   71.8310  223.2860 C   0  0  0  0  0  0  0  0  0  0  0  0
  138.8522   67.3857  223.2162 H   0  0  0  0  0  0  0  0  0  0  0  0
  137.9861   66.8636  221.7316 H   0  0  0  0  0  0  0  0  0  0  0  0
  138.9262   68.3943  221.7316 H   0  0  0  0  0  0  0  0  0  0  0  0
  136.8029   69.2781  222.0597 H   0  0  0  0  0  0  0  0  0  0  0  0
  136.1933   67.8051  222.8767 H   0  0  0  0  0  0  0  0  0  0  0  0
  139.2339   67.2482  224.6978 H   0  0  0  0  0  0  0  0  0  0  0  0
  140.5261   66.3146  226.5899 H   0  0  0  0  0  0  0  0  0  0  0  0
  141.2131   67.6900  228.5182 H   0  0  0  0  0  0  0  0  0  0  0  0
  140.5874   70.1008  228.5612 H   0  0  0  0  0  0  0  0  0  0  0  0
  139.2911   71.1050  226.6827 H   0  0  0  0  0  0  0  0  0  0  0  0
  139.1969   71.7624  224.8629 H   0  0  0  0  0  0  0  0  0  0  0  0
  140.9844   70.5199  223.9515 H   0  0  0  0  0  0  0  0  0  0  0  0
  139.9656   70.0728  222.4964 H   0  0  0  0  0  0  0  0  0  0  0  0
  141.3235   72.6529  223.1682 H   0  0  0  0  0  0  0  0  0  0  0  0
  141.3109   71.6952  221.6424 H   0  0  0  0  0  0  0  0  0  0  0  0
  139.2136   75.6406  220.3101 H   0  0  0  0  0  0  0  0  0  0  0  0
  137.8912   74.6484  220.9879 H   0  0  0  0  0  0  0  0  0  0  0  0
  138.2681   75.6422  223.1793 H   0  0  0  0  0  0  0  0  0  0  0  0
  140.4816   76.4635  223.4050 H   0  0  0  0  0  0  0  0  0  0  0  0
  140.6154   77.0364  221.7822 H   0  0  0  0  0  0  0  0  0  0  0  0
  138.9039   78.2761  224.1179 H   0  0  0  0  0  0  0  0  0  0  0  0
  141.6988   78.0759  224.1722 H   0  0  0  0  0  0  0  0  0  0  0  0
  143.4212   79.8936  224.3069 H   0  0  0  0  0  0  0  0  0  0  0  0
  142.9515   82.1309  223.3814 H   0  0  0  0  0  0  0  0  0  0  0  0
  140.7658   82.6320  222.2924 H   0  0  0  0  0  0  0  0  0  0  0  0
  139.0551   80.8151  222.1643 H   0  0  0  0  0  0  0  0  0  0  0  0
  137.4280   79.1620  222.4738 H   0  0  0  0  0  0  0  0  0  0  0  0
  138.5607   78.9219  221.1483 H   0  0  0  0  0  0  0  0  0  0  0  0
  136.6688   77.0676  223.7234 H   0  0  0  0  0  0  0  0  0  0  0  0
  135.7656   77.8830  222.4021 H   0  0  0  0  0  0  0  0  0  0  0  0
  135.9376   76.0949  222.4021 H   0  0  0  0  0  0  0  0  0  0  0  0
  137.5954   72.7893  221.3484 H   0  0  0  0  0  0  0  0  0  0  0  0
  138.4200   71.2341  221.2413 H   0  0  0  0  0  0  0  0  0  0  0  0
  137.6586   72.7746  223.8083 H   0  0  0  0  0  0  0  0  0  0  0  0
  136.9747   71.2008  223.2389 H   0  0  0  0  0  0  0  0  0  0  0  0
  1  2  1  0
  2  3  1  0
  3  4  2  0
  3  5  1  0
  5  6  1  0
  6  7  2  0
  7  8  1  0
  8  9  2  0
  9 10  1  0
 10 11  2  0
  5 12  1  0
 12 13  1  0
 13 14  1  0
 14 15  1  0
 15 16  1  0
 16 17  2  0
 16 18  1  0
 18 19  1  0
 19 20  1  0
 20 21  1  0
 21 22  1  0
 22 23  2  0
 23 24  1  0
 24 25  2  0
 25 26  1  0
 26 27  2  0
 21 28  1  0
 28 29  1  0
 29 30  1  0
 15 31  1  0
 31 32  1  0
 11  6  1  0
 32 12  1  0
 29 19  1  0
 27 22  1  0
  1 33  1  0
  1 34  1  0
  1 35  1  0
  2 36  1  0
  2 37  1  0
  7 38  1  0
  8 39  1  0
  9 40  1  0
 10 41  1  0
 11 42  1  0
 12 43  1  0
 13 44  1  0
 13 45  1  0
 14 46  1  0
 14 47  1  0
 18 48  1  0
 18 49  1  0
 19 50  1  1
 20 51  1  0
 20 52  1  0
 21 53  1  1
 23 54  1  0
 24 55  1  0
 25 56  1  0
 26 57  1  0
 27 58  1  0
 28 59  1  0
 28 60  1  0
 30 61  1  0
 30 62  1  0
 30 63  1  0
 31 64  1  0
 31 65  1  0
 32 66  1  0
 32 67  1  0
M  END
>  <smiles>  (49) 
CCC(=O)N(c1ccccc1)C1CCN(C(=O)C[C@H]2C[C@@H](c3ccccc3)CN2C)CC1

>  <score_type>  (49) 
oracle

>  <origin>  (49) 
autodockgpu

>  <m_score__min__energy>  (49) 
-8.6500000000000004

>  <m_primary>  (49) 
energy

>  <rmsd>  (49) 
7.956030970571398

>  <m_score__min__rmsd>  (49) 
7.956030970571398

>  <meeko>  (49) 
{"free_energy": -8.51, "intermolecular_energy": -10.59, "internal_energy": -1.64, "cluster_size": 14, "cluster_id": 3, "rank_in_cluster": 1}

>  <energy>  (49) 
-7.91

>  <cluster_rmsd>  (49) 
0.0

>  <cluster>  (49) 
5

$$$$

     RDKit          3D

 67 70  0  0  0  0  0  0  0  0999 V2000
  138.7870   67.4510  222.4600 C   0  0  0  0  0  0  0  0  0  0  0  0
  137.5080   68.2700  222.6380 C   0  0  0  0  0  0  0  0  0  0  0  0
  137.6200   69.0610  223.8750 C   0  0  0  0  0  0  0  0  0  0  0  0
  136.6080   68.9780  224.6660 O   0  0  0  0  0  0  0  0  0  0  0  0
  138.6570   69.8830  224.3070 N   0  0  0  0  0  0  0  0  0  0  0  0
  139.3550   69.4150  225.4990 C   0  0  0  0  0  0  0  0  0  0  0  0
  139.9870   70.3150  226.3410 C   0  0  0  0  0  0  0  0  0  0  0  0
  140.6300   69.7900  227.4400 C   0  0  0  0  0  0  0  0  0  0  0  0
  140.6710   68.4430  227.7310 C   0  0  0  0  0  0  0  0  0  0  0  0
  140.0280   67.5750  226.8660 C   0  0  0  0  0  0  0  0  0  0  0  0
  139.3610   68.0440  225.7400 C   0  0  0  0  0  0  0  0  0  0  0  0
  139.1390   71.1100  223.7400 C   0  0  0  0  0  0  0  0  0  0  0  0
  140.2730   70.7930  222.7840 C   0  0  0  0  0  0  0  0  0  0  0  0
  140.7220   71.9590  221.9570 C   0  0  0  0  0  0  0  0  0  0  0  0
  139.5860   72.8030  221.6230 N   0  0  0  0  0  0  0  0  0  0  0  0
  139.8460   74.1460  221.2940 C   0  0  0  0  0  0  0  0  0  0  0  0
  141.0580   74.5180  221.3080 O   0  0  0  0  0  0  0  0  0  0  0  0
  138.8400   75.1650  220.9340 C   0  0  0  0  0  0  0  0  0  0  0  0
  138.7120   76.1260  222.0860 C   0  0  1  0  0  0  0  0  0  0  0  0
  140.0460   76.7820  222.4200 C   0  0  0  0  0  0  0  0  0  0  0  0
  139.5280   78.1020  223.0110 C   0  0  1  0  0  0  0  0  0  0  0  0
  140.5890   79.1140  223.1290 C   0  0  0  0  0  0  0  0  0  0  0  0
  140.1990   80.4170  223.4070 C   0  0  0  0  0  0  0  0  0  0  0  0
  141.1950   81.3910  223.5230 C   0  0  0  0  0  0  0  0  0  0  0  0
  142.5270   81.0580  223.3620 C   0  0  0  0  0  0  0  0  0  0  0  0
  142.9180   79.7590  223.0840 C   0  0  0  0  0  0  0  0  0  0  0  0
  141.9200   78.7960  222.9710 C   0  0  0  0  0  0  0  0  0  0  0  0
  138.4270   78.4400  222.0620 C   0  0  0  0  0  0  0  0  0  0  0  0
  137.7960   77.1780  221.7860 N   0  0  0  0  0  0  0  0  0  0  0  0
  136.5960   77.0770  222.5710 C   0  0  0  0  0  0  0  0  0  0  0  0
  138.2820   72.1810  221.6610 C   0  0  0  0  0  0  0  0  0  0  0  0
  138.0250   71.8950  223.1470 C   0  0  0  0  0  0  0  0  0  0  0  0
  139.1953   67.1895  223.4474 H   0  0  0  0  0  0  0  0  0  0  0  0
  138.5585   66.5308  221.9023 H   0  0  0  0  0  0  0  0  0  0  0  0
  139.5272   68.0435  221.9023 H   0  0  0  0  0  0  0  0  0  0  0  0
  137.3779   68.9441  221.7785 H   0  0  0  0  0  0  0  0  0  0  0  0
  136.6394   67.5981  222.7011 H   0  0  0  0  0  0  0  0  0  0  0  0
  139.9759   71.3967  226.1416 H   0  0  0  0  0  0  0  0  0  0  0  0
  141.1395   70.4845  228.1241 H   0  0  0  0  0  0  0  0  0  0  0  0
  141.1977   68.0703  228.6219 H   0  0  0  0  0  0  0  0  0  0  0  0
  140.0450   66.4948  227.0730 H   0  0  0  0  0  0  0  0  0  0  0  0
  138.8508   67.3492  225.0567 H   0  0  0  0  0  0  0  0  0  0  0  0
  139.5535   71.7676  224.5183 H   0  0  0  0  0  0  0  0  0  0  0  0
  141.1312   70.4365  223.3726 H   0  0  0  0  0  0  0  0  0  0  0  0
  139.8934   70.0352  222.0829 H   0  0  0  0  0  0  0  0  0  0  0  0
  141.4569   72.5470  222.5263 H   0  0  0  0  0  0  0  0  0  0  0  0
  141.1786   71.5865  221.0282 H   0  0  0  0  0  0  0  0  0  0  0  0
  139.1634   75.7055  220.0322 H   0  0  0  0  0  0  0  0  0  0  0  0
  137.8710   74.6868  220.7282 H   0  0  0  0  0  0  0  0  0  0  0  0
  138.3532   75.5295  222.9377 H   0  0  0  0  0  0  0  0  0  0  0  0
  140.6192   76.1984  223.1554 H   0  0  0  0  0  0  0  0  0  0  0  0
  140.7451   76.8849  221.5770 H   0  0  0  0  0  0  0  0  0  0  0  0
  139.1735   78.0410  224.0505 H   0  0  0  0  0  0  0  0  0  0  0  0
  139.1372   80.6755  223.5323 H   0  0  0  0  0  0  0  0  0  0  0  0
  140.9163   82.4318  223.7444 H   0  0  0  0  0  0  0  0  0  0  0  0
  143.2929   81.8419  223.4568 H   0  0  0  0  0  0  0  0  0  0  0  0
  143.9790   79.4979  222.9571 H   0  0  0  0  0  0  0  0  0  0  0  0
  142.2007   77.7556  222.7501 H   0  0  0  0  0  0  0  0  0  0  0  0
  137.7146   79.1389  222.5246 H   0  0  0  0  0  0  0  0  0  0  0  0
  138.7946   78.9343  221.1507 H   0  0  0  0  0  0  0  0  0  0  0  0
  136.8543   77.0987  223.6400 H   0  0  0  0  0  0  0  0  0  0  0  0
  135.9324   77.9225  222.3368 H   0  0  0  0  0  0  0  0  0  0  0  0
  136.0831   76.1325  222.3368 H   0  0  0  0  0  0  0  0  0  0  0  0
  137.5166   72.8615  221.2597 H   0  0  0  0  0  0  0  0  0  0  0  0
  138.2407   71.2673  221.0499 H   0  0  0  0  0  0  0  0  0  0  0  0
  137.9311   72.8494  223.6858 H   0  0  0  0  0  0  0  0  0  0  0  0
  137.0982   71.3091  223.2354 H   0  0  0  0  0  0  0  0  0  0  0  0
  1  2  1  0
  2  3  1  0
  3  4  2  0
  3  5  1  0
  5  6  1  0
  6  7  2  0
  7  8  1  0
  8  9  2  0
  9 10  1  0
 10 11  2  0
  5 12  1  0
 12 13  1  0
 13 14  1  0
 14 15  1  0
 15 16  1  0
 16 17  2  0
 16 18  1  0
 18 19  1  0
 19 20  1  0
 20 21  1  0
 21 22  1  0
 22 23  2  0
 23 24  1  0
 24 25  2  0
 25 26  1  0
 26 27  2  0
 21 28  1  0
 28 29  1  0
 29 30  1  0
 15 31  1  0
 31 32  1  0
 11  6  1  0
 32 12  1  0
 29 19  1  0
 27 22  1  0
  1 33  1  0
  1 34  1  0
  1 35  1  0
  2 36  1  0
  2 37  1  0
  7 38  1  0
  8 39  1  0
  9 40  1  0
 10 41  1  0
 11 42  1  0
 12 43  1  0
 13 44  1  0
 13 45  1  0
 14 46  1  0
 14 47  1  0
 18 48  1  0
 18 49  1  0
 19 50  1  1
 20 51  1  0
 20 52  1  0
 21 53  1  1
 23 54  1  0
 24 55  1  0
 25 56  1  0
 26 57  1  0
 27 58  1  0
 28 59  1  0
 28 60  1  0
 30 61  1  0
 30 62  1  0
 30 63  1  0
 31 64  1  0
 31 65  1  0
 32 66  1  0
 32 67  1  0
M  END
>  <smiles>  (50) 
CCC(=O)N(c1ccccc1)C1CCN(C(=O)C[C@H]2C[C@@H](c3ccccc3)CN2C)CC1

>  <score_type>  (50) 
oracle

>  <origin>  (50) 
autodockgpu

>  <m_score__min__energy>  (50) 
-8.6500000000000004

>  <m_primary>  (50) 
energy

>  <rmsd>  (50) 
8.295043339728121

>  <m_score__min__rmsd>  (50) 
8.295043339728121

>  <meeko>  (50) 
{"free_energy": -8.15, "intermolecular_energy": -10.24, "internal_energy": -1.68, "cluster_size": 14, "cluster_id": 3, "rank_in_cluster": 11}

>  <energy>  (50) 
-7.69

>  <cluster_rmsd>  (50) 
0.82

>  <cluster>  (50) 
5

$$$$
