
     RDKit          3D

 54 58  0  0  0  0  0  0  0  0999 V2000
  141.8930   79.5180  223.1220 O   0  0  0  0  0  0  0  0  0  0  0  0
  140.6400   79.4280  223.1770 C   0  0  0  0  0  0  0  0  0  0  0  0
  139.8800   80.6020  223.6580 C   0  0  0  0  0  0  0  0  0  0  0  0
  138.4090   80.3930  223.6350 C   0  0  0  0  0  0  0  0  0  0  0  0
  137.5890   81.5640  224.0070 C   0  0  0  0  0  0  0  0  0  0  0  0
  136.9570   82.3300  223.0330 C   0  0  0  0  0  0  0  0  0  0  0  0
  136.1460   83.3920  223.3310 C   0  0  0  0  0  0  0  0  0  0  0  0
  135.9260   83.7410  224.6360 C   0  0  0  0  0  0  0  0  0  0  0  0
  136.5620   82.9690  225.6030 C   0  0  0  0  0  0  0  0  0  0  0  0
  136.2900   83.3260  227.0180 C   0  0  0  0  0  0  0  0  0  0  0  0
  136.7880   84.3280  227.5480 O   0  0  0  0  0  0  0  0  0  0  0  0
  135.4030   82.4060  227.6840 N   0  0  0  0  0  0  0  0  0  0  0  0
  134.8690   81.2370  226.9950 C   0  0  0  0  0  0  0  0  0  0  0  0
  133.5260   80.9770  227.6630 C   0  0  0  0  0  0  0  0  0  0  0  0
  133.7130   80.6190  229.0600 N   0  0  0  0  0  0  0  0  0  0  0  0
  134.4750   81.5530  229.8170 C   0  0  0  0  0  0  0  0  0  0  0  0
  135.0700   82.7030  229.0560 C   0  0  0  0  0  0  0  0  0  0  0  0
  137.3730   81.9110  225.3320 C   0  0  0  0  0  0  0  0  0  0  0  0
  137.8460   79.2910  223.2610 N   0  0  0  0  0  0  0  0  0  0  0  0
  138.5730   78.1430  222.8180 C   0  0  0  0  0  0  0  0  0  0  0  0
  137.9840   76.9690  222.4270 C   0  0  0  0  0  0  0  0  0  0  0  0
  138.7550   75.8830  221.9990 C   0  0  0  0  0  0  0  0  0  0  0  0
  140.1190   75.9630  221.9600 C   0  0  0  0  0  0  0  0  0  0  0  0
  141.0170   74.9130  221.5050 C   0  0  0  0  0  0  0  0  0  0  0  0
  142.1920   75.2650  220.8240 C   0  0  0  0  0  0  0  0  0  0  0  0
  143.0600   74.3100  220.3460 C   0  0  0  0  0  0  0  0  0  0  0  0
  142.7790   72.9790  220.5360 C   0  0  0  0  0  0  0  0  0  0  0  0
  141.6210   72.6100  221.2110 C   0  0  0  0  0  0  0  0  0  0  0  0
  141.3490   71.2780  221.3980 F   0  0  0  0  0  0  0  0  0  0  0  0
  140.7460   73.5760  221.6910 C   0  0  0  0  0  0  0  0  0  0  0  0
  140.7000   77.1470  222.3590 C   0  0  0  0  0  0  0  0  0  0  0  0
  139.9410   78.2200  222.7820 C   0  0  0  0  0  0  0  0  0  0  0  0
  140.1868   80.8181  224.6920 H   0  0  0  0  0  0  0  0  0  0  0  0
  140.1033   81.4381  222.9790 H   0  0  0  0  0  0  0  0  0  0  0  0
  137.1160   82.0708  221.9759 H   0  0  0  0  0  0  0  0  0  0  0  0
  135.6709   83.9651  222.5211 H   0  0  0  0  0  0  0  0  0  0  0  0
  135.2793   84.5887  224.9065 H   0  0  0  0  0  0  0  0  0  0  0  0
  134.7356   81.4454  225.9232 H   0  0  0  0  0  0  0  0  0  0  0  0
  135.5426   80.3699  227.0617 H   0  0  0  0  0  0  0  0  0  0  0  0
  132.9092   81.8857  227.6016 H   0  0  0  0  0  0  0  0  0  0  0  0
  133.0268   80.1442  227.1460 H   0  0  0  0  0  0  0  0  0  0  0  0
  134.1440   79.6570  229.1380 H   0  0  0  0  0  0  0  0  0  0  0  0
  133.8170   81.9703  230.5935 H   0  0  0  0  0  0  0  0  0  0  0  0
  135.3331   80.9840  230.2041 H   0  0  0  0  0  0  0  0  0  0  0  0
  134.3451   83.5303  229.0619 H   0  0  0  0  0  0  0  0  0  0  0  0
  136.0152   82.9546  229.5592 H   0  0  0  0  0  0  0  0  0  0  0  0
  137.8471   81.3432  226.1462 H   0  0  0  0  0  0  0  0  0  0  0  0
  136.8879   76.8792  222.4501 H   0  0  0  0  0  0  0  0  0  0  0  0
  138.2569   74.9523  221.6897 H   0  0  0  0  0  0  0  0  0  0  0  0
  142.4248   76.3288  220.6686 H   0  0  0  0  0  0  0  0  0  0  0  0
  143.9746   74.6112  219.8142 H   0  0  0  0  0  0  0  0  0  0  0  0
  143.4666   72.2090  220.1561 H   0  0  0  0  0  0  0  0  0  0  0  0
  139.8322   73.2714  222.2222 H   0  0  0  0  0  0  0  0  0  0  0  0
  141.7959   77.2397  222.3400 H   0  0  0  0  0  0  0  0  0  0  0  0
  1  2  2  0
  2  3  1  0
  3  4  1  0
  4  5  1  0
  5  6  2  0
  6  7  1  0
  7  8  2  0
  8  9  1  0
  9 10  1  0
 10 11  2  0
 10 12  1  0
 12 13  1  0
 13 14  1  0
 14 15  1  0
 15 16  1  0
 16 17  1  0
  9 18  2  0
  4 19  2  0
 19 20  1  0
 20 21  2  0
 21 22  1  0
 22 23  2  0
 23 24  1  0
 24 25  2  0
 25 26  1  0
 26 27  2  0
 27 28  1  0
 28 29  1  0
 28 30  2  0
 23 31  1  0
 31 32  2  0
 32  2  1  0
 18  5  1  0
 32 20  1  0
 17 12  1  0
 30 24  1  0
  3 33  1  0
  3 34  1  0
  6 35  1  0
  7 36  1  0
  8 37  1  0
 13 38  1  0
 13 39  1  0
 14 40  1  0
 14 41  1  0
 15 42  1  0
 16 43  1  0
 16 44  1  0
 17 45  1  0
 17 46  1  0
 18 47  1  0
 21 48  1  0
 22 49  1  0
 25 50  1  0
 26 51  1  0
 27 52  1  0
 30 53  1  0
 31 54  1  0
M  END
>  <smiles>  (1) 
O=C1CC(c2cccc(C(=O)N3CCNCC3)c2)=Nc2ccc(-c3cccc(F)c3)cc21

>  <score_type>  (1) 
oracle

>  <origin>  (1) 
autodockgpu

>  <m_score__min__energy>  (1) 
-7.9900000000000002

>  <m_primary>  (1) 
energy

>  <rmsd>  (1) 
12.114598286234024

>  <m_score__min__rmsd>  (1) 
12.114598286234024

>  <meeko>  (1) 
{"free_energy": -7.94, "intermolecular_energy": -8.84, "internal_energy": -0.97, "cluster_size": 35, "cluster_id": 1, "rank_in_cluster": 25}

>  <energy>  (1) 
-7.99

>  <cluster_rmsd>  (1) 
0.0

>  <cluster>  (1) 
1

$$$$

     RDKit          3D

 54 58  0  0  0  0  0  0  0  0999 V2000
  140.4570   70.5040  220.8180 O   0  0  0  0  0  0  0  0  0  0  0  0
  141.0290   71.6230  220.8000 C   0  0  0  0  0  0  0  0  0  0  0  0
  140.2550   72.8040  221.2400 C   0  0  0  0  0  0  0  0  0  0  0  0
  141.0480   74.0610  221.2190 C   0  0  0  0  0  0  0  0  0  0  0  0
  140.3640   75.2600  221.7430 C   0  0  0  0  0  0  0  0  0  0  0  0
  138.9850   75.2710  221.9240 C   0  0  0  0  0  0  0  0  0  0  0  0
  138.3110   76.3390  222.4550 C   0  0  0  0  0  0  0  0  0  0  0  0
  138.9970   77.4600  222.8360 C   0  0  0  0  0  0  0  0  0  0  0  0
  140.3760   77.4400  222.6520 C   0  0  0  0  0  0  0  0  0  0  0  0
  141.1210   78.6420  223.1030 C   0  0  0  0  0  0  0  0  0  0  0  0
  141.5690   78.7410  224.2520 O   0  0  0  0  0  0  0  0  0  0  0  0
  141.2620   79.6490  222.0820 N   0  0  0  0  0  0  0  0  0  0  0  0
  140.6890   79.4660  220.7540 C   0  0  0  0  0  0  0  0  0  0  0  0
  141.5980   80.2630  219.8290 C   0  0  0  0  0  0  0  0  0  0  0  0
  141.5310   81.6800  220.1460 N   0  0  0  0  0  0  0  0  0  0  0  0
  141.7990   81.9980  221.5080 C   0  0  0  0  0  0  0  0  0  0  0  0
  141.9980   80.8370  222.4390 C   0  0  0  0  0  0  0  0  0  0  0  0
  141.0670   76.3920  222.1250 C   0  0  0  0  0  0  0  0  0  0  0  0
  142.2790   74.1270  220.8290 N   0  0  0  0  0  0  0  0  0  0  0  0
  143.0270   72.9960  220.3790 C   0  0  0  0  0  0  0  0  0  0  0  0
  144.3300   73.0580  219.9590 C   0  0  0  0  0  0  0  0  0  0  0  0
  145.0070   71.9090  219.5340 C   0  0  0  0  0  0  0  0  0  0  0  0
  144.3860   70.6910  219.5260 C   0  0  0  0  0  0  0  0  0  0  0  0
  144.9970   69.4320  219.1370 C   0  0  0  0  0  0  0  0  0  0  0  0
  144.8730   68.3200  219.9840 C   0  0  0  0  0  0  0  0  0  0  0  0
  145.4590   67.1130  219.6780 C   0  0  0  0  0  0  0  0  0  0  0  0
  146.1820   66.9820  218.5180 C   0  0  0  0  0  0  0  0  0  0  0  0
  146.3150   68.0710  217.6640 C   0  0  0  0  0  0  0  0  0  0  0  0
  147.0380   67.9320  216.5060 F   0  0  0  0  0  0  0  0  0  0  0  0
  145.7240   69.2880  217.9760 C   0  0  0  0  0  0  0  0  0  0  0  0
  143.0750   70.6420  219.9480 C   0  0  0  0  0  0  0  0  0  0  0  0
  142.4050   71.7740  220.3670 C   0  0  0  0  0  0  0  0  0  0  0  0
  139.3898   72.9246  220.5715 H   0  0  0  0  0  0  0  0  0  0  0  0
  139.9488   72.6264  222.2815 H   0  0  0  0  0  0  0  0  0  0  0  0
  138.4094   74.3818  221.6273 H   0  0  0  0  0  0  0  0  0  0  0  0
  137.2184   76.2954  222.5751 H   0  0  0  0  0  0  0  0  0  0  0  0
  138.4841   78.3329  223.2661 H   0  0  0  0  0  0  0  0  0  0  0  0
  140.6881   78.4020  220.4750 H   0  0  0  0  0  0  0  0  0  0  0  0
  139.6430   79.8024  220.7016 H   0  0  0  0  0  0  0  0  0  0  0  0
  142.6339   79.9136  219.9503 H   0  0  0  0  0  0  0  0  0  0  0  0
  141.2668   80.1148  218.7906 H   0  0  0  0  0  0  0  0  0  0  0  0
  140.5920   82.0760  219.8650 H   0  0  0  0  0  0  0  0  0  0  0  0
  142.7133   82.6090  221.5351 H   0  0  0  0  0  0  0  0  0  0  0  0
  140.8963   82.5114  221.8707 H   0  0  0  0  0  0  0  0  0  0  0  0
  143.0690   80.5865  222.4513 H   0  0  0  0  0  0  0  0  0  0  0  0
  141.6186   81.1559  223.4210 H   0  0  0  0  0  0  0  0  0  0  0  0
  142.1593   76.4424  222.0050 H   0  0  0  0  0  0  0  0  0  0  0  0
  144.8522   74.0262  219.9558 H   0  0  0  0  0  0  0  0  0  0  0  0
  146.0528   71.9870  219.2020 H   0  0  0  0  0  0  0  0  0  0  0  0
  144.2938   68.4154  220.9143 H   0  0  0  0  0  0  0  0  0  0  0  0
  145.3487   66.2568  220.3598 H   0  0  0  0  0  0  0  0  0  0  0  0
  146.6534   66.0207  218.2658 H   0  0  0  0  0  0  0  0  0  0  0  0
  145.8370   70.1421  217.2921 H   0  0  0  0  0  0  0  0  0  0  0  0
  142.5488   69.6760  219.9511 H   0  0  0  0  0  0  0  0  0  0  0  0
  1  2  2  0
  2  3  1  0
  3  4  1  0
  4  5  1  0
  5  6  2  0
  6  7  1  0
  7  8  2  0
  8  9  1  0
  9 10  1  0
 10 11  2  0
 10 12  1  0
 12 13  1  0
 13 14  1  0
 14 15  1  0
 15 16  1  0
 16 17  1  0
  9 18  2  0
  4 19  2  0
 19 20  1  0
 20 21  2  0
 21 22  1  0
 22 23  2  0
 23 24  1  0
 24 25  2  0
 25 26  1  0
 26 27  2  0
 27 28  1  0
 28 29  1  0
 28 30  2  0
 23 31  1  0
 31 32  2  0
 32  2  1  0
 18  5  1  0
 32 20  1  0
 17 12  1  0
 30 24  1  0
  3 33  1  0
  3 34  1  0
  6 35  1  0
  7 36  1  0
  8 37  1  0
 13 38  1  0
 13 39  1  0
 14 40  1  0
 14 41  1  0
 15 42  1  0
 16 43  1  0
 16 44  1  0
 17 45  1  0
 17 46  1  0
 18 47  1  0
 21 48  1  0
 22 49  1  0
 25 50  1  0
 26 51  1  0
 27 52  1  0
 30 53  1  0
 31 54  1  0
M  END
>  <smiles>  (2) 
O=C1CC(c2cccc(C(=O)N3CCNCC3)c2)=Nc2ccc(-c3cccc(F)c3)cc21

>  <score_type>  (2) 
oracle

>  <origin>  (2) 
autodockgpu

>  <m_score__min__energy>  (2) 
-7.9900000000000002

>  <m_primary>  (2) 
energy

>  <rmsd>  (2) 
7.446392251620484

>  <m_score__min__rmsd>  (2) 
7.446392251620484

>  <meeko>  (2) 
{"free_energy": -7.65, "intermolecular_energy": -8.55, "internal_energy": -1.02, "cluster_size": 7, "cluster_id": 4, "rank_in_cluster": 5}

>  <energy>  (2) 
-7.99

>  <cluster_rmsd>  (2) 
0.08

>  <cluster>  (2) 
1

$$$$

     RDKit          3D

 54 58  0  0  0  0  0  0  0  0999 V2000
  141.9780   79.1420  223.0510 O   0  0  0  0  0  0  0  0  0  0  0  0
  140.7300   78.9920  223.0580 C   0  0  0  0  0  0  0  0  0  0  0  0
  139.8980   80.1230  223.5240 C   0  0  0  0  0  0  0  0  0  0  0  0
  138.4400   79.8450  223.4440 C   0  0  0  0  0  0  0  0  0  0  0  0
  137.5530   80.9710  223.7990 C   0  0  0  0  0  0  0  0  0  0  0  0
  136.7770   81.5990  222.8300 C   0  0  0  0  0  0  0  0  0  0  0  0
  135.9020   82.6120  223.1170 C   0  0  0  0  0  0  0  0  0  0  0  0
  135.7600   83.0490  224.4070 C   0  0  0  0  0  0  0  0  0  0  0  0
  136.5400   82.4150  225.3690 C   0  0  0  0  0  0  0  0  0  0  0  0
  136.3540   82.8650  226.7710 C   0  0  0  0  0  0  0  0  0  0  0  0
  136.9600   83.8410  227.2310 O   0  0  0  0  0  0  0  0  0  0  0  0
  135.4140   82.0630  227.5130 N   0  0  0  0  0  0  0  0  0  0  0  0
  134.7510   80.9160  226.9050 C   0  0  0  0  0  0  0  0  0  0  0  0
  133.4170   80.8130  227.6290 C   0  0  0  0  0  0  0  0  0  0  0  0
  133.6230   80.5080  229.0360 N   0  0  0  0  0  0  0  0  0  0  0  0
  134.4940   81.4040  229.7170 C   0  0  0  0  0  0  0  0  0  0  0  0
  135.1610   82.4560  228.8780 C   0  0  0  0  0  0  0  0  0  0  0  0
  137.4170   81.4090  225.1080 C   0  0  0  0  0  0  0  0  0  0  0  0
  137.9440   78.7230  223.0380 N   0  0  0  0  0  0  0  0  0  0  0  0
  138.7400   77.6160  222.6100 C   0  0  0  0  0  0  0  0  0  0  0  0
  138.2220   76.4210  222.1840 C   0  0  0  0  0  0  0  0  0  0  0  0
  139.0600   75.3770  221.7730 C   0  0  0  0  0  0  0  0  0  0  0  0
  140.4190   75.5220  221.7850 C   0  0  0  0  0  0  0  0  0  0  0  0
  141.3810   74.5220  221.3530 C   0  0  0  0  0  0  0  0  0  0  0  0
  141.0910   73.1630  221.5510 C   0  0  0  0  0  0  0  0  0  0  0  0
  141.9810   72.1770  221.1890 C   0  0  0  0  0  0  0  0  0  0  0  0
  143.1810   72.5200  220.6180 C   0  0  0  0  0  0  0  0  0  0  0  0
  143.4870   73.8610  220.4110 C   0  0  0  0  0  0  0  0  0  0  0  0
  144.6870   74.1950  219.8380 F   0  0  0  0  0  0  0  0  0  0  0  0
  142.5880   74.8540  220.7790 C   0  0  0  0  0  0  0  0  0  0  0  0
  140.9270   76.7270  222.2180 C   0  0  0  0  0  0  0  0  0  0  0  0
  140.1040   77.7580  222.6250 C   0  0  0  0  0  0  0  0  0  0  0  0
  140.1563   80.3397  224.5711 H   0  0  0  0  0  0  0  0  0  0  0  0
  140.1060   80.9777  222.8635 H   0  0  0  0  0  0  0  0  0  0  0  0
  136.8708   81.2664  221.7857 H   0  0  0  0  0  0  0  0  0  0  0  0
  135.3130   83.0749  222.3115 H   0  0  0  0  0  0  0  0  0  0  0  0
  135.0647   83.8600  224.6693 H   0  0  0  0  0  0  0  0  0  0  0  0
  134.5965   81.0828  225.8288 H   0  0  0  0  0  0  0  0  0  0  0  0
  135.3459   79.9952  226.9953 H   0  0  0  0  0  0  0  0  0  0  0  0
  132.8824   81.7703  227.5407 H   0  0  0  0  0  0  0  0  0  0  0  0
  132.8262   80.0051  227.1728 H   0  0  0  0  0  0  0  0  0  0  0  0
  133.9700   79.5160  229.1500 H   0  0  0  0  0  0  0  0  0  0  0  0
  133.9061   81.9175  230.4921 H   0  0  0  0  0  0  0  0  0  0  0  0
  135.3116   80.7781  230.1041 H   0  0  0  0  0  0  0  0  0  0  0  0
  134.5142   83.3457  228.8648 H   0  0  0  0  0  0  0  0  0  0  0  0
  136.1433   82.6441  229.3359 H   0  0  0  0  0  0  0  0  0  0  0  0
  138.0057   80.9526  225.9174 H   0  0  0  0  0  0  0  0  0  0  0  0
  137.1313   76.2796  222.1646 H   0  0  0  0  0  0  0  0  0  0  0  0
  138.6186   74.4275  221.4360 H   0  0  0  0  0  0  0  0  0  0  0  0
  140.1305   72.8793  222.0059 H   0  0  0  0  0  0  0  0  0  0  0  0
  141.7314   71.1189  221.3567 H   0  0  0  0  0  0  0  0  0  0  0  0
  143.8973   71.7382  220.3255 H   0  0  0  0  0  0  0  0  0  0  0  0
  142.8416   75.9111  220.6111 H   0  0  0  0  0  0  0  0  0  0  0  0
  142.0172   76.8716  222.2401 H   0  0  0  0  0  0  0  0  0  0  0  0
  1  2  2  0
  2  3  1  0
  3  4  1  0
  4  5  1  0
  5  6  2  0
  6  7  1  0
  7  8  2  0
  8  9  1  0
  9 10  1  0
 10 11  2  0
 10 12  1  0
 12 13  1  0
 13 14  1  0
 14 15  1  0
 15 16  1  0
 16 17  1  0
  9 18  2  0
  4 19  2  0
 19 20  1  0
 20 21  2  0
 21 22  1  0
 22 23  2  0
 23 24  1  0
 24 25  2  0
 25 26  1  0
 26 27  2  0
 27 28  1  0
 28 29  1  0
 28 30  2  0
 23 31  1  0
 31 32  2  0
 32  2  1  0
 18  5  1  0
 32 20  1  0
 17 12  1  0
 30 24  1  0
  3 33  1  0
  3 34  1  0
  6 35  1  0
  7 36  1  0
  8 37  1  0
 13 38  1  0
 13 39  1  0
 14 40  1  0
 14 41  1  0
 15 42  1  0
 16 43  1  0
 16 44  1  0
 17 45  1  0
 17 46  1  0
 18 47  1  0
 21 48  1  0
 22 49  1  0
 25 50  1  0
 26 51  1  0
 27 52  1  0
 30 53  1  0
 31 54  1  0
M  END
>  <smiles>  (3) 
O=C1CC(c2cccc(C(=O)N3CCNCC3)c2)=Nc2ccc(-c3cccc(F)c3)cc21

>  <score_type>  (3) 
oracle

>  <origin>  (3) 
autodockgpu

>  <m_score__min__energy>  (3) 
-7.9900000000000002

>  <m_primary>  (3) 
energy

>  <rmsd>  (3) 
11.783255267730924

>  <m_score__min__rmsd>  (3) 
11.783255267730924

>  <meeko>  (3) 
{"free_energy": -7.96, "intermolecular_energy": -8.86, "internal_energy": -1.01, "cluster_size": 35, "cluster_id": 1, "rank_in_cluster": 17}

>  <energy>  (3) 
-7.99

>  <cluster_rmsd>  (3) 
0.06

>  <cluster>  (3) 
1

$$$$

     RDKit          3D

 54 58  0  0  0  0  0  0  0  0999 V2000
  142.0280   79.0800  223.2820 O   0  0  0  0  0  0  0  0  0  0  0  0
  140.7790   78.9790  223.1830 C   0  0  0  0  0  0  0  0  0  0  0  0
  139.9530   80.1170  223.6430 C   0  0  0  0  0  0  0  0  0  0  0  0
  138.4970   79.9020  223.4340 C   0  0  0  0  0  0  0  0  0  0  0  0
  137.6250   81.0430  223.7780 C   0  0  0  0  0  0  0  0  0  0  0  0
  136.8980   81.7050  222.7950 C   0  0  0  0  0  0  0  0  0  0  0  0
  136.0370   82.7340  223.0700 C   0  0  0  0  0  0  0  0  0  0  0  0
  135.8620   83.1520  224.3620 C   0  0  0  0  0  0  0  0  0  0  0  0
  136.5930   82.4840  225.3390 C   0  0  0  0  0  0  0  0  0  0  0  0
  136.3690   82.9140  226.7410 C   0  0  0  0  0  0  0  0  0  0  0  0
  136.9540   83.8920  227.2270 O   0  0  0  0  0  0  0  0  0  0  0  0
  135.4220   82.0940  227.4520 N   0  0  0  0  0  0  0  0  0  0  0  0
  134.7870   80.9460  226.8150 C   0  0  0  0  0  0  0  0  0  0  0  0
  133.4370   80.8190  227.5070 C   0  0  0  0  0  0  0  0  0  0  0  0
  133.6150   80.5000  228.9140 N   0  0  0  0  0  0  0  0  0  0  0  0
  134.4590   81.3980  229.6260 C   0  0  0  0  0  0  0  0  0  0  0  0
  135.1330   82.4670  228.8150 C   0  0  0  0  0  0  0  0  0  0  0  0
  137.4550   81.4610  225.0890 C   0  0  0  0  0  0  0  0  0  0  0  0
  137.9960   78.8220  222.9310 N   0  0  0  0  0  0  0  0  0  0  0  0
  138.7840   77.7080  222.5070 C   0  0  0  0  0  0  0  0  0  0  0  0
  138.2600   76.5570  221.9790 C   0  0  0  0  0  0  0  0  0  0  0  0
  139.0890   75.5040  221.5790 C   0  0  0  0  0  0  0  0  0  0  0  0
  140.4480   75.5930  221.7050 C   0  0  0  0  0  0  0  0  0  0  0  0
  141.4050   74.5790  221.2970 C   0  0  0  0  0  0  0  0  0  0  0  0
  141.0910   73.2250  221.4870 C   0  0  0  0  0  0  0  0  0  0  0  0
  141.9740   72.2260  221.1470 C   0  0  0  0  0  0  0  0  0  0  0  0
  143.1930   72.5510  220.6050 C   0  0  0  0  0  0  0  0  0  0  0  0
  143.5230   73.8870  220.4050 C   0  0  0  0  0  0  0  0  0  0  0  0
  144.7420   74.2040  219.8620 F   0  0  0  0  0  0  0  0  0  0  0  0
  142.6300   74.8930  220.7510 C   0  0  0  0  0  0  0  0  0  0  0  0
  140.9620   76.7540  222.2410 C   0  0  0  0  0  0  0  0  0  0  0  0
  140.1470   77.7940  222.6370 C   0  0  0  0  0  0  0  0  0  0  0  0
  140.1339   80.2693  224.7173 H   0  0  0  0  0  0  0  0  0  0  0  0
  140.2439   80.9954  223.0481 H   0  0  0  0  0  0  0  0  0  0  0  0
  137.0199   81.3879  221.7488 H   0  0  0  0  0  0  0  0  0  0  0  0
  135.4865   83.2242  222.2535 H   0  0  0  0  0  0  0  0  0  0  0  0
  135.1774   83.9751  224.6149 H   0  0  0  0  0  0  0  0  0  0  0  0
  134.6555   81.1236  225.7374 H   0  0  0  0  0  0  0  0  0  0  0  0
  135.3906   80.0312  226.9083 H   0  0  0  0  0  0  0  0  0  0  0  0
  132.8932   81.7710  227.4175 H   0  0  0  0  0  0  0  0  0  0  0  0
  132.8660   80.0100  227.0279 H   0  0  0  0  0  0  0  0  0  0  0  0
  133.9690   79.5100  229.0240 H   0  0  0  0  0  0  0  0  0  0  0  0
  133.8469   81.8956  230.3926 H   0  0  0  0  0  0  0  0  0  0  0  0
  135.2744   80.7772  230.0257 H   0  0  0  0  0  0  0  0  0  0  0  0
  134.4766   83.3495  228.7974 H   0  0  0  0  0  0  0  0  0  0  0  0
  136.1024   82.6600  229.2977 H   0  0  0  0  0  0  0  0  0  0  0  0
  138.0049   80.9763  225.9092 H   0  0  0  0  0  0  0  0  0  0  0  0
  137.1699   76.4598  221.8680 H   0  0  0  0  0  0  0  0  0  0  0  0
  138.6419   74.5917  221.1573 H   0  0  0  0  0  0  0  0  0  0  0  0
  140.1155   72.9555  221.9181 H   0  0  0  0  0  0  0  0  0  0  0  0
  141.7046   71.1718  221.3087 H   0  0  0  0  0  0  0  0  0  0  0  0
  143.9049   71.7586  220.3304 H   0  0  0  0  0  0  0  0  0  0  0  0
  142.9025   75.9462  220.5881 H   0  0  0  0  0  0  0  0  0  0  0  0
  142.0514   76.8540  222.3561 H   0  0  0  0  0  0  0  0  0  0  0  0
  1  2  2  0
  2  3  1  0
  3  4  1  0
  4  5  1  0
  5  6  2  0
  6  7  1  0
  7  8  2  0
  8  9  1  0
  9 10  1  0
 10 11  2  0
 10 12  1  0
 12 13  1  0
 13 14  1  0
 14 15  1  0
 15 16  1  0
 16 17  1  0
  9 18  2  0
  4 19  2  0
 19 20  1  0
 20 21  2  0
 21 22  1  0
 22 23  2  0
 23 24  1  0
 24 25  2  0
 25 26  1  0
 26 27  2  0
 27 28  1  0
 28 29  1  0
 28 30  2  0
 23 31  1  0
 31 32  2  0
 32  2  1  0
 18  5  1  0
 32 20  1  0
 17 12  1  0
 30 24  1  0
  3 33  1  0
  3 34  1  0
  6 35  1  0
  7 36  1  0
  8 37  1  0
 13 38  1  0
 13 39  1  0
 14 40  1  0
 14 41  1  0
 15 42  1  0
 16 43  1  0
 16 44  1  0
 17 45  1  0
 17 46  1  0
 18 47  1  0
 21 48  1  0
 22 49  1  0
 25 50  1  0
 26 51  1  0
 27 52  1  0
 30 53  1  0
 31 54  1  0
M  END
>  <smiles>  (4) 
O=C1CC(c2cccc(C(=O)N3CCNCC3)c2)=Nc2ccc(-c3cccc(F)c3)cc21

>  <score_type>  (4) 
oracle

>  <origin>  (4) 
autodockgpu

>  <m_score__min__energy>  (4) 
-7.9900000000000002

>  <m_primary>  (4) 
energy

>  <rmsd>  (4) 
11.765342480519768

>  <m_score__min__rmsd>  (4) 
11.765342480519768

>  <meeko>  (4) 
{"free_energy": -7.96, "intermolecular_energy": -8.86, "internal_energy": -1.0, "cluster_size": 35, "cluster_id": 1, "rank_in_cluster": 18}

>  <energy>  (4) 
-7.99

>  <cluster_rmsd>  (4) 
0.06

>  <cluster>  (4) 
1

$$$$

     RDKit          3D

 54 58  0  0  0  0  0  0  0  0999 V2000
  142.0480   79.2120  223.0490 O   0  0  0  0  0  0  0  0  0  0  0  0
  140.7960   79.0950  223.0570 C   0  0  0  0  0  0  0  0  0  0  0  0
  139.9940   80.2520  223.5100 C   0  0  0  0  0  0  0  0  0  0  0  0
  138.5300   80.0120  223.4320 C   0  0  0  0  0  0  0  0  0  0  0  0
  137.6720   81.1650  223.7730 C   0  0  0  0  0  0  0  0  0  0  0  0
  136.9820   81.8580  222.7830 C   0  0  0  0  0  0  0  0  0  0  0  0
  136.1360   82.8990  223.0550 C   0  0  0  0  0  0  0  0  0  0  0  0
  135.9370   83.3010  224.3480 C   0  0  0  0  0  0  0  0  0  0  0  0
  136.6310   82.6030  225.3310 C   0  0  0  0  0  0  0  0  0  0  0  0
  136.3820   83.0150  226.7350 C   0  0  0  0  0  0  0  0  0  0  0  0
  136.9440   83.9970  227.2380 O   0  0  0  0  0  0  0  0  0  0  0  0
  135.4380   82.1730  227.4240 N   0  0  0  0  0  0  0  0  0  0  0  0
  134.8300   81.0220  226.7680 C   0  0  0  0  0  0  0  0  0  0  0  0
  133.4730   80.8680  227.4400 C   0  0  0  0  0  0  0  0  0  0  0  0
  133.6370   80.5370  228.8460 N   0  0  0  0  0  0  0  0  0  0  0  0
  134.4580   81.4400  229.5790 C   0  0  0  0  0  0  0  0  0  0  0  0
  135.1250   82.5280  228.7870 C   0  0  0  0  0  0  0  0  0  0  0  0
  137.4780   81.5660  225.0860 C   0  0  0  0  0  0  0  0  0  0  0  0
  138.0040   78.8990  223.0380 N   0  0  0  0  0  0  0  0  0  0  0  0
  138.7710   77.7670  222.6230 C   0  0  0  0  0  0  0  0  0  0  0  0
  138.2220   76.5810  222.2110 C   0  0  0  0  0  0  0  0  0  0  0  0
  139.0310   75.5110  221.8120 C   0  0  0  0  0  0  0  0  0  0  0  0
  140.3940   75.6200  221.8230 C   0  0  0  0  0  0  0  0  0  0  0  0
  141.3290   74.5900  221.4030 C   0  0  0  0  0  0  0  0  0  0  0  0
  141.0030   73.2410  221.6130 C   0  0  0  0  0  0  0  0  0  0  0  0
  141.8660   72.2290  221.2630 C   0  0  0  0  0  0  0  0  0  0  0  0
  143.0770   72.5340  220.6910 C   0  0  0  0  0  0  0  0  0  0  0  0
  143.4180   73.8640  220.4720 C   0  0  0  0  0  0  0  0  0  0  0  0
  144.6290   74.1600  219.8980 F   0  0  0  0  0  0  0  0  0  0  0  0
  142.5460   74.8840  220.8280 C   0  0  0  0  0  0  0  0  0  0  0  0
  140.9340   76.8160  222.2430 C   0  0  0  0  0  0  0  0  0  0  0  0
  140.1380   77.8730  222.6370 C   0  0  0  0  0  0  0  0  0  0  0  0
  140.2574   80.4731  224.5548 H   0  0  0  0  0  0  0  0  0  0  0  0
  140.2248   81.0936  222.8404 H   0  0  0  0  0  0  0  0  0  0  0  0
  137.1228   81.5556  221.7348 H   0  0  0  0  0  0  0  0  0  0  0  0
  135.6155   83.4131  222.2335 H   0  0  0  0  0  0  0  0  0  0  0  0
  135.2627   84.1336  224.5972 H   0  0  0  0  0  0  0  0  0  0  0  0
  134.7106   81.2077  225.6904 H   0  0  0  0  0  0  0  0  0  0  0  0
  135.4463   80.1157  226.8612 H   0  0  0  0  0  0  0  0  0  0  0  0
  132.9164   81.8127  227.3528 H   0  0  0  0  0  0  0  0  0  0  0  0
  132.9204   80.0559  226.9449 H   0  0  0  0  0  0  0  0  0  0  0  0
  134.0050   79.5520  228.9520 H   0  0  0  0  0  0  0  0  0  0  0  0
  133.8287   81.9198  230.3431 H   0  0  0  0  0  0  0  0  0  0  0  0
  135.2777   80.8279  229.9833 H   0  0  0  0  0  0  0  0  0  0  0  0
  134.4544   83.3998  228.7692 H   0  0  0  0  0  0  0  0  0  0  0  0
  136.0847   82.7320  229.2843 H   0  0  0  0  0  0  0  0  0  0  0  0
  137.9972   81.0573  225.9116 H   0  0  0  0  0  0  0  0  0  0  0  0
  137.1279   76.4682  222.1936 H   0  0  0  0  0  0  0  0  0  0  0  0
  138.5643   74.5700  221.4853 H   0  0  0  0  0  0  0  0  0  0  0  0
  140.0343   72.9872  222.0683 H   0  0  0  0  0  0  0  0  0  0  0  0
  141.5876   71.1797  221.4404 H   0  0  0  0  0  0  0  0  0  0  0  0
  143.7730   71.7306  220.4078 H   0  0  0  0  0  0  0  0  0  0  0  0
  142.8282   75.9322  220.6501 H   0  0  0  0  0  0  0  0  0  0  0  0
  142.0277   76.9317  222.2650 H   0  0  0  0  0  0  0  0  0  0  0  0
  1  2  2  0
  2  3  1  0
  3  4  1  0
  4  5  1  0
  5  6  2  0
  6  7  1  0
  7  8  2  0
  8  9  1  0
  9 10  1  0
 10 11  2  0
 10 12  1  0
 12 13  1  0
 13 14  1  0
 14 15  1  0
 15 16  1  0
 16 17  1  0
  9 18  2  0
  4 19  2  0
 19 20  1  0
 20 21  2  0
 21 22  1  0
 22 23  2  0
 23 24  1  0
 24 25  2  0
 25 26  1  0
 26 27  2  0
 27 28  1  0
 28 29  1  0
 28 30  2  0
 23 31  1  0
 31 32  2  0
 32  2  1  0
 18  5  1  0
 32 20  1  0
 17 12  1  0
 30 24  1  0
  3 33  1  0
  3 34  1  0
  6 35  1  0
  7 36  1  0
  8 37  1  0
 13 38  1  0
 13 39  1  0
 14 40  1  0
 14 41  1  0
 15 42  1  0
 16 43  1  0
 16 44  1  0
 17 45  1  0
 17 46  1  0
 18 47  1  0
 21 48  1  0
 22 49  1  0
 25 50  1  0
 26 51  1  0
 27 52  1  0
 30 53  1  0
 31 54  1  0
M  END
>  <smiles>  (5) 
O=C1CC(c2cccc(C(=O)N3CCNCC3)c2)=Nc2ccc(-c3cccc(F)c3)cc21

>  <score_type>  (5) 
oracle

>  <origin>  (5) 
autodockgpu

>  <m_score__min__energy>  (5) 
-7.9900000000000002

>  <m_primary>  (5) 
energy

>  <rmsd>  (5) 
11.821061128001709

>  <m_score__min__rmsd>  (5) 
11.821061128001709

>  <meeko>  (5) 
{"free_energy": -7.99, "intermolecular_energy": -8.88, "internal_energy": -0.99, "cluster_size": 35, "cluster_id": 1, "rank_in_cluster": 5}

>  <energy>  (5) 
-7.99

>  <cluster_rmsd>  (5) 
0.06

>  <cluster>  (5) 
1

$$$$

     RDKit          3D

 54 58  0  0  0  0  0  0  0  0999 V2000
  140.4730   70.6840  221.0290 O   0  0  0  0  0  0  0  0  0  0  0  0
  141.0330   71.8060  220.9500 C   0  0  0  0  0  0  0  0  0  0  0  0
  140.2660   72.9960  221.3780 C   0  0  0  0  0  0  0  0  0  0  0  0
  141.0470   74.2570  221.2840 C   0  0  0  0  0  0  0  0  0  0  0  0
  140.3720   75.4680  221.7930 C   0  0  0  0  0  0  0  0  0  0  0  0
  138.9900   75.5030  221.9460 C   0  0  0  0  0  0  0  0  0  0  0  0
  138.3250   76.5820  222.4620 C   0  0  0  0  0  0  0  0  0  0  0  0
  139.0220   77.6930  222.8540 C   0  0  0  0  0  0  0  0  0  0  0  0
  140.4030   77.6500  222.6970 C   0  0  0  0  0  0  0  0  0  0  0  0
  141.1590   78.8400  223.1610 C   0  0  0  0  0  0  0  0  0  0  0  0
  141.7490   78.8580  224.2480 O   0  0  0  0  0  0  0  0  0  0  0  0
  141.1320   79.9380  222.2290 N   0  0  0  0  0  0  0  0  0  0  0  0
  140.3980   79.8470  220.9720 C   0  0  0  0  0  0  0  0  0  0  0  0
  141.1520   80.7630  220.0180 C   0  0  0  0  0  0  0  0  0  0  0  0
  141.0780   82.1420  220.4720 N   0  0  0  0  0  0  0  0  0  0  0  0
  141.5100   82.3510  221.8120 C   0  0  0  0  0  0  0  0  0  0  0  0
  141.8670   81.1230  222.5990 C   0  0  0  0  0  0  0  0  0  0  0  0
  141.0870   76.5900  222.1860 C   0  0  0  0  0  0  0  0  0  0  0  0
  142.2610   74.3190  220.8450 N   0  0  0  0  0  0  0  0  0  0  0  0
  143.0020   73.1780  220.4060 C   0  0  0  0  0  0  0  0  0  0  0  0
  144.2870   73.2360  219.9340 C   0  0  0  0  0  0  0  0  0  0  0  0
  144.9570   72.0780  219.5230 C   0  0  0  0  0  0  0  0  0  0  0  0
  144.3470   70.8560  219.5810 C   0  0  0  0  0  0  0  0  0  0  0  0
  144.9550   69.5880  219.2120 C   0  0  0  0  0  0  0  0  0  0  0  0
  144.7810   68.4770  220.0500 C   0  0  0  0  0  0  0  0  0  0  0  0
  145.3610   67.2620  219.7640 C   0  0  0  0  0  0  0  0  0  0  0  0
  146.1260   67.1230  218.6330 C   0  0  0  0  0  0  0  0  0  0  0  0
  146.3080   68.2120  217.7870 C   0  0  0  0  0  0  0  0  0  0  0  0
  147.0730   68.0640  216.6580 F   0  0  0  0  0  0  0  0  0  0  0  0
  145.7240   69.4370  218.0800 C   0  0  0  0  0  0  0  0  0  0  0  0
  143.0540   70.8120  220.0550 C   0  0  0  0  0  0  0  0  0  0  0  0
  142.3900   71.9520  220.4600 C   0  0  0  0  0  0  0  0  0  0  0  0
  139.3754   73.0872  220.7388 H   0  0  0  0  0  0  0  0  0  0  0  0
  140.0004   72.8524  222.4358 H   0  0  0  0  0  0  0  0  0  0  0  0
  138.4051   74.6236  221.6383 H   0  0  0  0  0  0  0  0  0  0  0  0
  137.2298   76.5565  222.5618 H   0  0  0  0  0  0  0  0  0  0  0  0
  138.5152   78.5753  223.2721 H   0  0  0  0  0  0  0  0  0  0  0  0
  140.3968   78.8128  220.5973 H   0  0  0  0  0  0  0  0  0  0  0  0
  139.3433   80.1389  221.0834 H   0  0  0  0  0  0  0  0  0  0  0  0
  142.2062   80.4521  219.9749 H   0  0  0  0  0  0  0  0  0  0  0  0
  140.6948   80.6917  219.0201 H   0  0  0  0  0  0  0  0  0  0  0  0
  140.0980   82.5180  220.3490 H   0  0  0  0  0  0  0  0  0  0  0  0
  142.3992   82.9977  221.7797 H   0  0  0  0  0  0  0  0  0  0  0  0
  140.6455   82.7895  222.3320 H   0  0  0  0  0  0  0  0  0  0  0  0
  142.9386   80.9216  222.4533 H   0  0  0  0  0  0  0  0  0  0  0  0
  141.6068   81.3371  223.6461 H   0  0  0  0  0  0  0  0  0  0  0  0
  142.1821   76.6223  222.0869 H   0  0  0  0  0  0  0  0  0  0  0  0
  144.7998   74.2075  219.8772 H   0  0  0  0  0  0  0  0  0  0  0  0
  145.9885   72.1522  219.1482 H   0  0  0  0  0  0  0  0  0  0  0  0
  144.1668   68.5790  220.9568 H   0  0  0  0  0  0  0  0  0  0  0  0
  145.2121   66.4062  220.4389 H   0  0  0  0  0  0  0  0  0  0  0  0
  146.5928   66.1554  218.3968 H   0  0  0  0  0  0  0  0  0  0  0  0
  145.8765   70.2914  217.4042 H   0  0  0  0  0  0  0  0  0  0  0  0
  142.5373   69.8426  220.1121 H   0  0  0  0  0  0  0  0  0  0  0  0
  1  2  2  0
  2  3  1  0
  3  4  1  0
  4  5  1  0
  5  6  2  0
  6  7  1  0
  7  8  2  0
  8  9  1  0
  9 10  1  0
 10 11  2  0
 10 12  1  0
 12 13  1  0
 13 14  1  0
 14 15  1  0
 15 16  1  0
 16 17  1  0
  9 18  2  0
  4 19  2  0
 19 20  1  0
 20 21  2  0
 21 22  1  0
 22 23  2  0
 23 24  1  0
 24 25  2  0
 25 26  1  0
 26 27  2  0
 27 28  1  0
 28 29  1  0
 28 30  2  0
 23 31  1  0
 31 32  2  0
 32  2  1  0
 18  5  1  0
 32 20  1  0
 17 12  1  0
 30 24  1  0
  3 33  1  0
  3 34  1  0
  6 35  1  0
  7 36  1  0
  8 37  1  0
 13 38  1  0
 13 39  1  0
 14 40  1  0
 14 41  1  0
 15 42  1  0
 16 43  1  0
 16 44  1  0
 17 45  1  0
 17 46  1  0
 18 47  1  0
 21 48  1  0
 22 49  1  0
 25 50  1  0
 26 51  1  0
 27 52  1  0
 30 53  1  0
 31 54  1  0
M  END
>  <smiles>  (6) 
O=C1CC(c2cccc(C(=O)N3CCNCC3)c2)=Nc2ccc(-c3cccc(F)c3)cc21

>  <score_type>  (6) 
oracle

>  <origin>  (6) 
autodockgpu

>  <m_score__min__energy>  (6) 
-7.9900000000000002

>  <m_primary>  (6) 
energy

>  <rmsd>  (6) 
7.599155151710868

>  <m_score__min__rmsd>  (6) 
7.599155151710868

>  <meeko>  (6) 
{"free_energy": -7.67, "intermolecular_energy": -8.56, "internal_energy": -0.98, "cluster_size": 7, "cluster_id": 4, "rank_in_cluster": 4}

>  <energy>  (6) 
-7.98

>  <cluster_rmsd>  (6) 
0.06

>  <cluster>  (6) 
1

$$$$

     RDKit          3D

 54 58  0  0  0  0  0  0  0  0999 V2000
  142.0710   79.1510  223.2240 O   0  0  0  0  0  0  0  0  0  0  0  0
  140.8200   79.0560  223.1570 C   0  0  0  0  0  0  0  0  0  0  0  0
  140.0110   80.2110  223.6050 C   0  0  0  0  0  0  0  0  0  0  0  0
  138.5500   79.9990  223.4360 C   0  0  0  0  0  0  0  0  0  0  0  0
  137.6920   81.1540  223.7690 C   0  0  0  0  0  0  0  0  0  0  0  0
  137.0090   81.8450  222.7740 C   0  0  0  0  0  0  0  0  0  0  0  0
  136.1630   82.8890  223.0380 C   0  0  0  0  0  0  0  0  0  0  0  0
  135.9580   83.2940  224.3290 C   0  0  0  0  0  0  0  0  0  0  0  0
  136.6450   82.5970  225.3180 C   0  0  0  0  0  0  0  0  0  0  0  0
  136.3890   83.0140  226.7190 C   0  0  0  0  0  0  0  0  0  0  0  0
  136.9520   83.9940  227.2240 O   0  0  0  0  0  0  0  0  0  0  0  0
  135.4380   82.1770  227.4040 N   0  0  0  0  0  0  0  0  0  0  0  0
  134.8280   81.0280  226.7460 C   0  0  0  0  0  0  0  0  0  0  0  0
  133.4660   80.8800  227.4110 C   0  0  0  0  0  0  0  0  0  0  0  0
  133.6200   80.5510  228.8190 N   0  0  0  0  0  0  0  0  0  0  0  0
  134.4400   81.4530  229.5540 C   0  0  0  0  0  0  0  0  0  0  0  0
  135.1170   82.5370  228.7640 C   0  0  0  0  0  0  0  0  0  0  0  0
  137.4920   81.5590  225.0800 C   0  0  0  0  0  0  0  0  0  0  0  0
  138.0310   78.9100  222.9730 N   0  0  0  0  0  0  0  0  0  0  0  0
  138.8030   77.7800  222.5610 C   0  0  0  0  0  0  0  0  0  0  0  0
  138.2590   76.6190  222.0750 C   0  0  0  0  0  0  0  0  0  0  0  0
  139.0740   75.5500  221.6850 C   0  0  0  0  0  0  0  0  0  0  0  0
  140.4350   75.6340  221.7770 C   0  0  0  0  0  0  0  0  0  0  0  0
  141.3770   74.6030  221.3740 C   0  0  0  0  0  0  0  0  0  0  0  0
  141.0480   73.2550  221.5820 C   0  0  0  0  0  0  0  0  0  0  0  0
  141.9160   72.2420  221.2470 C   0  0  0  0  0  0  0  0  0  0  0  0
  143.1350   72.5460  220.6940 C   0  0  0  0  0  0  0  0  0  0  0  0
  143.4800   73.8750  220.4770 C   0  0  0  0  0  0  0  0  0  0  0  0
  144.6990   74.1700  219.9210 F   0  0  0  0  0  0  0  0  0  0  0  0
  142.6020   74.8960  220.8170 C   0  0  0  0  0  0  0  0  0  0  0  0
  140.9690   76.8050  222.2700 C   0  0  0  0  0  0  0  0  0  0  0  0
  140.1680   77.8610  222.6570 C   0  0  0  0  0  0  0  0  0  0  0  0
  140.2178   80.3913  224.6702 H   0  0  0  0  0  0  0  0  0  0  0  0
  140.2924   81.0712  222.9798 H   0  0  0  0  0  0  0  0  0  0  0  0
  137.1549   81.5391  221.7275 H   0  0  0  0  0  0  0  0  0  0  0  0
  135.6482   83.4021  222.2123 H   0  0  0  0  0  0  0  0  0  0  0  0
  135.2840   84.1285  224.5726 H   0  0  0  0  0  0  0  0  0  0  0  0
  134.7151   81.2133  225.6676 H   0  0  0  0  0  0  0  0  0  0  0  0
  135.4399   80.1191  226.8436 H   0  0  0  0  0  0  0  0  0  0  0  0
  132.9133   81.8266  227.3187 H   0  0  0  0  0  0  0  0  0  0  0  0
  132.9138   80.0686  226.9143 H   0  0  0  0  0  0  0  0  0  0  0  0
  133.9840   79.5660  228.9290 H   0  0  0  0  0  0  0  0  0  0  0  0
  133.8078   81.9373  230.3128 H   0  0  0  0  0  0  0  0  0  0  0  0
  135.2550   80.8384  229.9640 H   0  0  0  0  0  0  0  0  0  0  0  0
  134.4500   83.4113  228.7393 H   0  0  0  0  0  0  0  0  0  0  0  0
  136.0739   82.7389  229.2676 H   0  0  0  0  0  0  0  0  0  0  0  0
  138.0068   81.0522  225.9095 H   0  0  0  0  0  0  0  0  0  0  0  0
  137.1662   76.5264  221.9904 H   0  0  0  0  0  0  0  0  0  0  0  0
  138.6125   74.6291  221.2989 H   0  0  0  0  0  0  0  0  0  0  0  0
  140.0727   73.0023  222.0235 H   0  0  0  0  0  0  0  0  0  0  0  0
  141.6346   71.1930  221.4214 H   0  0  0  0  0  0  0  0  0  0  0  0
  143.8354   71.7419  220.4239 H   0  0  0  0  0  0  0  0  0  0  0  0
  142.8864   75.9438  220.6405 H   0  0  0  0  0  0  0  0  0  0  0  0
  142.0613   76.9008  222.3574 H   0  0  0  0  0  0  0  0  0  0  0  0
  1  2  2  0
  2  3  1  0
  3  4  1  0
  4  5  1  0
  5  6  2  0
  6  7  1  0
  7  8  2  0
  8  9  1  0
  9 10  1  0
 10 11  2  0
 10 12  1  0
 12 13  1  0
 13 14  1  0
 14 15  1  0
 15 16  1  0
 16 17  1  0
  9 18  2  0
  4 19  2  0
 19 20  1  0
 20 21  2  0
 21 22  1  0
 22 23  2  0
 23 24  1  0
 24 25  2  0
 25 26  1  0
 26 27  2  0
 27 28  1  0
 28 29  1  0
 28 30  2  0
 23 31  1  0
 31 32  2  0
 32  2  1  0
 18  5  1  0
 32 20  1  0
 17 12  1  0
 30 24  1  0
  3 33  1  0
  3 34  1  0
  6 35  1  0
  7 36  1  0
  8 37  1  0
 13 38  1  0
 13 39  1  0
 14 40  1  0
 14 41  1  0
 15 42  1  0
 16 43  1  0
 16 44  1  0
 17 45  1  0
 17 46  1  0
 18 47  1  0
 21 48  1  0
 22 49  1  0
 25 50  1  0
 26 51  1  0
 27 52  1  0
 30 53  1  0
 31 54  1  0
M  END
>  <smiles>  (7) 
O=C1CC(c2cccc(C(=O)N3CCNCC3)c2)=Nc2ccc(-c3cccc(F)c3)cc21

>  <score_type>  (7) 
oracle

>  <origin>  (7) 
autodockgpu

>  <m_score__min__energy>  (7) 
-7.9900000000000002

>  <m_primary>  (7) 
energy

>  <rmsd>  (7) 
11.802026253045206

>  <m_score__min__rmsd>  (7) 
11.802026253045206

>  <meeko>  (7) 
{"free_energy": -7.99, "intermolecular_energy": -8.88, "internal_energy": -1.0, "cluster_size": 35, "cluster_id": 1, "rank_in_cluster": 3}

>  <energy>  (7) 
-7.98

>  <cluster_rmsd>  (7) 
0.15

>  <cluster>  (7) 
1

$$$$

     RDKit          3D

 54 58  0  0  0  0  0  0  0  0999 V2000
  141.8970   79.5700  223.1060 O   0  0  0  0  0  0  0  0  0  0  0  0
  140.6450   79.4820  223.1690 C   0  0  0  0  0  0  0  0  0  0  0  0
  139.8900   80.6580  223.6520 C   0  0  0  0  0  0  0  0  0  0  0  0
  138.4180   80.4520  223.6390 C   0  0  0  0  0  0  0  0  0  0  0  0
  137.6030   81.6250  224.0130 C   0  0  0  0  0  0  0  0  0  0  0  0
  136.9860   82.4030  223.0390 C   0  0  0  0  0  0  0  0  0  0  0  0
  136.1790   83.4690  223.3380 C   0  0  0  0  0  0  0  0  0  0  0  0
  135.9490   83.8080  224.6440 C   0  0  0  0  0  0  0  0  0  0  0  0
  136.5710   83.0240  225.6110 C   0  0  0  0  0  0  0  0  0  0  0  0
  136.2870   83.3710  227.0250 C   0  0  0  0  0  0  0  0  0  0  0  0
  136.7710   84.3760  227.5630 O   0  0  0  0  0  0  0  0  0  0  0  0
  135.4080   82.4380  227.6830 N   0  0  0  0  0  0  0  0  0  0  0  0
  134.8900   81.2660  226.9860 C   0  0  0  0  0  0  0  0  0  0  0  0
  133.5470   80.9870  227.6460 C   0  0  0  0  0  0  0  0  0  0  0  0
  133.7320   80.6240  229.0420 N   0  0  0  0  0  0  0  0  0  0  0  0
  134.4790   81.5630  229.8070 C   0  0  0  0  0  0  0  0  0  0  0  0
  135.0650   82.7240  229.0540 C   0  0  0  0  0  0  0  0  0  0  0  0
  137.3770   81.9630  225.3390 C   0  0  0  0  0  0  0  0  0  0  0  0
  137.8510   79.3500  223.2710 N   0  0  0  0  0  0  0  0  0  0  0  0
  138.5730   78.2000  222.8270 C   0  0  0  0  0  0  0  0  0  0  0  0
  137.9790   77.0260  222.4420 C   0  0  0  0  0  0  0  0  0  0  0  0
  138.7460   75.9370  222.0110 C   0  0  0  0  0  0  0  0  0  0  0  0
  140.1100   76.0140  221.9640 C   0  0  0  0  0  0  0  0  0  0  0  0
  141.0020   74.9620  221.5070 C   0  0  0  0  0  0  0  0  0  0  0  0
  142.1770   75.3100  220.8210 C   0  0  0  0  0  0  0  0  0  0  0  0
  143.0400   74.3520  220.3400 C   0  0  0  0  0  0  0  0  0  0  0  0
  142.7560   73.0220  220.5320 C   0  0  0  0  0  0  0  0  0  0  0  0
  141.5990   72.6570  221.2110 C   0  0  0  0  0  0  0  0  0  0  0  0
  141.3240   71.3260  221.3990 F   0  0  0  0  0  0  0  0  0  0  0  0
  140.7290   73.6250  221.6930 C   0  0  0  0  0  0  0  0  0  0  0  0
  140.6950   77.1980  222.3560 C   0  0  0  0  0  0  0  0  0  0  0  0
  139.9420   78.2740  222.7820 C   0  0  0  0  0  0  0  0  0  0  0  0
  140.2038   80.8759  224.6835 H   0  0  0  0  0  0  0  0  0  0  0  0
  140.1103   81.4919  222.9693 H   0  0  0  0  0  0  0  0  0  0  0  0
  137.1535   82.1511  221.9814 H   0  0  0  0  0  0  0  0  0  0  0  0
  135.7159   84.0524  222.5285 H   0  0  0  0  0  0  0  0  0  0  0  0
  135.3049   84.6574  224.9155 H   0  0  0  0  0  0  0  0  0  0  0  0
  134.7592   81.4780  225.9146 H   0  0  0  0  0  0  0  0  0  0  0  0
  135.5731   80.4064  227.0522 H   0  0  0  0  0  0  0  0  0  0  0  0
  132.9199   81.8888  227.5863 H   0  0  0  0  0  0  0  0  0  0  0  0
  133.0597   80.1513  227.1224 H   0  0  0  0  0  0  0  0  0  0  0  0
  134.1740   79.6670  229.1180 H   0  0  0  0  0  0  0  0  0  0  0  0
  133.8122   81.9691  230.5819 H   0  0  0  0  0  0  0  0  0  0  0  0
  135.3416   81.0021  230.1960 H   0  0  0  0  0  0  0  0  0  0  0  0
  134.3307   83.5430  229.0604 H   0  0  0  0  0  0  0  0  0  0  0  0
  136.0049   82.9836  229.5631 H   0  0  0  0  0  0  0  0  0  0  0  0
  137.8396   81.3855  226.1529 H   0  0  0  0  0  0  0  0  0  0  0  0
  136.8829   76.9383  222.4722 H   0  0  0  0  0  0  0  0  0  0  0  0
  138.2443   75.0068  221.7061 H   0  0  0  0  0  0  0  0  0  0  0  0
  142.4130   76.3729  220.6645 H   0  0  0  0  0  0  0  0  0  0  0  0
  143.9532   74.6501  219.8041 H   0  0  0  0  0  0  0  0  0  0  0  0
  143.4403   72.2498  220.1506 H   0  0  0  0  0  0  0  0  0  0  0  0
  139.8160   73.3225  222.2267 H   0  0  0  0  0  0  0  0  0  0  0  0
  141.7909   77.2885  222.3289 H   0  0  0  0  0  0  0  0  0  0  0  0
  1  2  2  0
  2  3  1  0
  3  4  1  0
  4  5  1  0
  5  6  2  0
  6  7  1  0
  7  8  2  0
  8  9  1  0
  9 10  1  0
 10 11  2  0
 10 12  1  0
 12 13  1  0
 13 14  1  0
 14 15  1  0
 15 16  1  0
 16 17  1  0
  9 18  2  0
  4 19  2  0
 19 20  1  0
 20 21  2  0
 21 22  1  0
 22 23  2  0
 23 24  1  0
 24 25  2  0
 25 26  1  0
 26 27  2  0
 27 28  1  0
 28 29  1  0
 28 30  2  0
 23 31  1  0
 31 32  2  0
 32  2  1  0
 18  5  1  0
 32 20  1  0
 17 12  1  0
 30 24  1  0
  3 33  1  0
  3 34  1  0
  6 35  1  0
  7 36  1  0
  8 37  1  0
 13 38  1  0
 13 39  1  0
 14 40  1  0
 14 41  1  0
 15 42  1  0
 16 43  1  0
 16 44  1  0
 17 45  1  0
 17 46  1  0
 18 47  1  0
 21 48  1  0
 22 49  1  0
 25 50  1  0
 26 51  1  0
 27 52  1  0
 30 53  1  0
 31 54  1  0
M  END
>  <smiles>  (8) 
O=C1CC(c2cccc(C(=O)N3CCNCC3)c2)=Nc2ccc(-c3cccc(F)c3)cc21

>  <score_type>  (8) 
oracle

>  <origin>  (8) 
autodockgpu

>  <m_score__min__energy>  (8) 
-7.9900000000000002

>  <m_primary>  (8) 
energy

>  <rmsd>  (8) 
12.14215059489599

>  <m_score__min__rmsd>  (8) 
12.14215059489599

>  <meeko>  (8) 
{"free_energy": -7.95, "intermolecular_energy": -8.85, "internal_energy": -0.96, "cluster_size": 35, "cluster_id": 1, "rank_in_cluster": 21}

>  <energy>  (8) 
-7.98

>  <cluster_rmsd>  (8) 
0.08

>  <cluster>  (8) 
1

$$$$

     RDKit          3D

 54 58  0  0  0  0  0  0  0  0999 V2000
  142.0600   79.1320  223.2230 O   0  0  0  0  0  0  0  0  0  0  0  0
  140.8080   79.0430  223.1480 C   0  0  0  0  0  0  0  0  0  0  0  0
  140.0020   80.1980  223.5990 C   0  0  0  0  0  0  0  0  0  0  0  0
  138.5410   79.9940  223.4210 C   0  0  0  0  0  0  0  0  0  0  0  0
  137.6870   81.1510  223.7570 C   0  0  0  0  0  0  0  0  0  0  0  0
  137.0080   81.8480  222.7630 C   0  0  0  0  0  0  0  0  0  0  0  0
  136.1650   82.8940  223.0300 C   0  0  0  0  0  0  0  0  0  0  0  0
  135.9580   83.2940  224.3220 C   0  0  0  0  0  0  0  0  0  0  0  0
  136.6410   82.5900  225.3100 C   0  0  0  0  0  0  0  0  0  0  0  0
  136.3830   83.0010  226.7120 C   0  0  0  0  0  0  0  0  0  0  0  0
  136.9410   83.9830  227.2200 O   0  0  0  0  0  0  0  0  0  0  0  0
  135.4360   82.1580  227.3960 N   0  0  0  0  0  0  0  0  0  0  0  0
  134.8330   81.0060  226.7340 C   0  0  0  0  0  0  0  0  0  0  0  0
  133.4720   80.8490  227.3980 C   0  0  0  0  0  0  0  0  0  0  0  0
  133.6280   80.5170  228.8060 N   0  0  0  0  0  0  0  0  0  0  0  0
  134.4440   81.4220  229.5430 C   0  0  0  0  0  0  0  0  0  0  0  0
  135.1140   82.5110  228.7570 C   0  0  0  0  0  0  0  0  0  0  0  0
  137.4840   81.5500  225.0690 C   0  0  0  0  0  0  0  0  0  0  0  0
  138.0200   78.9100  222.9470 N   0  0  0  0  0  0  0  0  0  0  0  0
  138.7890   77.7800  222.5320 C   0  0  0  0  0  0  0  0  0  0  0  0
  138.2430   76.6250  222.0350 C   0  0  0  0  0  0  0  0  0  0  0  0
  139.0550   75.5550  221.6410 C   0  0  0  0  0  0  0  0  0  0  0  0
  140.4170   75.6320  221.7420 C   0  0  0  0  0  0  0  0  0  0  0  0
  141.3560   74.6000  221.3370 C   0  0  0  0  0  0  0  0  0  0  0  0
  141.0270   73.2530  221.5500 C   0  0  0  0  0  0  0  0  0  0  0  0
  141.8940   72.2390  221.2130 C   0  0  0  0  0  0  0  0  0  0  0  0
  143.1100   72.5400  220.6540 C   0  0  0  0  0  0  0  0  0  0  0  0
  143.4550   73.8690  220.4320 C   0  0  0  0  0  0  0  0  0  0  0  0
  144.6720   74.1620  219.8710 F   0  0  0  0  0  0  0  0  0  0  0  0
  142.5790   74.8910  220.7740 C   0  0  0  0  0  0  0  0  0  0  0  0
  140.9520   76.7980  222.2460 C   0  0  0  0  0  0  0  0  0  0  0  0
  140.1540   77.8540  222.6360 C   0  0  0  0  0  0  0  0  0  0  0  0
  140.2040   80.3704  224.6665 H   0  0  0  0  0  0  0  0  0  0  0  0
  140.2905   81.0609  222.9807 H   0  0  0  0  0  0  0  0  0  0  0  0
  137.1546   81.5456  221.7156 H   0  0  0  0  0  0  0  0  0  0  0  0
  135.6542   83.4127  222.2054 H   0  0  0  0  0  0  0  0  0  0  0  0
  135.2860   84.1295  224.5676 H   0  0  0  0  0  0  0  0  0  0  0  0
  134.7196   81.1932  225.6560 H   0  0  0  0  0  0  0  0  0  0  0  0
  135.4501   80.1004  226.8293 H   0  0  0  0  0  0  0  0  0  0  0  0
  132.9142   81.7928  227.3081 H   0  0  0  0  0  0  0  0  0  0  0  0
  132.9240   80.0361  226.8991 H   0  0  0  0  0  0  0  0  0  0  0  0
  133.9980   79.5330  228.9130 H   0  0  0  0  0  0  0  0  0  0  0  0
  133.8096   81.9006  230.3036 H   0  0  0  0  0  0  0  0  0  0  0  0
  135.2628   80.8106  229.9502 H   0  0  0  0  0  0  0  0  0  0  0  0
  134.4423   83.3819  228.7359 H   0  0  0  0  0  0  0  0  0  0  0  0
  136.0703   82.7158  229.2606 H   0  0  0  0  0  0  0  0  0  0  0  0
  137.9938   81.0365  225.8975 H   0  0  0  0  0  0  0  0  0  0  0  0
  137.1502   76.5377  221.9444 H   0  0  0  0  0  0  0  0  0  0  0  0
  138.5914   74.6396  221.2447 H   0  0  0  0  0  0  0  0  0  0  0  0
  140.0537   73.0016  221.9966 H   0  0  0  0  0  0  0  0  0  0  0  0
  141.6129   71.1906  221.3912 H   0  0  0  0  0  0  0  0  0  0  0  0
  143.8085   71.7347  220.3828 H   0  0  0  0  0  0  0  0  0  0  0  0
  142.8633   75.9383  220.5943 H   0  0  0  0  0  0  0  0  0  0  0  0
  142.0442   76.8891  222.3398 H   0  0  0  0  0  0  0  0  0  0  0  0
  1  2  2  0
  2  3  1  0
  3  4  1  0
  4  5  1  0
  5  6  2  0
  6  7  1  0
  7  8  2  0
  8  9  1  0
  9 10  1  0
 10 11  2  0
 10 12  1  0
 12 13  1  0
 13 14  1  0
 14 15  1  0
 15 16  1  0
 16 17  1  0
  9 18  2  0
  4 19  2  0
 19 20  1  0
 20 21  2  0
 21 22  1  0
 22 23  2  0
 23 24  1  0
 24 25  2  0
 25 26  1  0
 26 27  2  0
 27 28  1  0
 28 29  1  0
 28 30  2  0
 23 31  1  0
 31 32  2  0
 32  2  1  0
 18  5  1  0
 32 20  1  0
 17 12  1  0
 30 24  1  0
  3 33  1  0
  3 34  1  0
  6 35  1  0
  7 36  1  0
  8 37  1  0
 13 38  1  0
 13 39  1  0
 14 40  1  0
 14 41  1  0
 15 42  1  0
 16 43  1  0
 16 44  1  0
 17 45  1  0
 17 46  1  0
 18 47  1  0
 21 48  1  0
 22 49  1  0
 25 50  1  0
 26 51  1  0
 27 52  1  0
 30 53  1  0
 31 54  1  0
M  END
>  <smiles>  (9) 
O=C1CC(c2cccc(C(=O)N3CCNCC3)c2)=Nc2ccc(-c3cccc(F)c3)cc21

>  <score_type>  (9) 
oracle

>  <origin>  (9) 
autodockgpu

>  <m_score__min__energy>  (9) 
-7.9900000000000002

>  <m_primary>  (9) 
energy

>  <rmsd>  (9) 
11.78787479031153

>  <m_score__min__rmsd>  (9) 
11.78787479031153

>  <meeko>  (9) 
{"free_energy": -7.98, "intermolecular_energy": -8.88, "internal_energy": -0.99, "cluster_size": 35, "cluster_id": 1, "rank_in_cluster": 6}

>  <energy>  (9) 
-7.97

>  <cluster_rmsd>  (9) 
0.2

>  <cluster>  (9) 
1

$$$$

     RDKit          3D

 54 58  0  0  0  0  0  0  0  0999 V2000
  141.9470   79.7630  221.9640 O   0  0  0  0  0  0  0  0  0  0  0  0
  140.8110   79.3610  222.3200 C   0  0  0  0  0  0  0  0  0  0  0  0
  139.8750   80.3490  222.8980 C   0  0  0  0  0  0  0  0  0  0  0  0
  138.5500   79.7670  223.2380 C   0  0  0  0  0  0  0  0  0  0  0  0
  137.5350   80.7240  223.7250 C   0  0  0  0  0  0  0  0  0  0  0  0
  136.4950   81.1400  222.9000 C   0  0  0  0  0  0  0  0  0  0  0  0
  135.5030   81.9840  223.3210 C   0  0  0  0  0  0  0  0  0  0  0  0
  135.5050   82.4570  224.6060 C   0  0  0  0  0  0  0  0  0  0  0  0
  136.5500   82.0360  225.4230 C   0  0  0  0  0  0  0  0  0  0  0  0
  136.5270   82.5190  226.8260 C   0  0  0  0  0  0  0  0  0  0  0  0
  137.2830   83.4150  227.2220 O   0  0  0  0  0  0  0  0  0  0  0  0
  135.5520   81.8510  227.6500 N   0  0  0  0  0  0  0  0  0  0  0  0
  134.7070   80.7900  227.1140 C   0  0  0  0  0  0  0  0  0  0  0  0
  133.4280   80.8640  227.9360 C   0  0  0  0  0  0  0  0  0  0  0  0
  133.6990   80.5490  229.3290 N   0  0  0  0  0  0  0  0  0  0  0  0
  134.7250   81.3350  229.9280 C   0  0  0  0  0  0  0  0  0  0  0  0
  135.4530   82.2860  229.0220 C   0  0  0  0  0  0  0  0  0  0  0  0
  137.5470   81.2000  225.0270 C   0  0  0  0  0  0  0  0  0  0  0  0
  138.2500   78.5210  223.0750 N   0  0  0  0  0  0  0  0  0  0  0  0
  139.1560   77.5530  222.5410 C   0  0  0  0  0  0  0  0  0  0  0  0
  138.8480   76.2290  222.3710 C   0  0  0  0  0  0  0  0  0  0  0  0
  139.7820   75.3340  221.8370 C   0  0  0  0  0  0  0  0  0  0  0  0
  141.0290   75.7570  221.4690 C   0  0  0  0  0  0  0  0  0  0  0  0
  142.0650   74.9270  220.8780 C   0  0  0  0  0  0  0  0  0  0  0  0
  143.0630   75.5290  220.0980 C   0  0  0  0  0  0  0  0  0  0  0  0
  144.0490   74.7860  219.4900 C   0  0  0  0  0  0  0  0  0  0  0  0
  144.0660   73.4220  219.6450 C   0  0  0  0  0  0  0  0  0  0  0  0
  143.0870   72.8050  220.4160 C   0  0  0  0  0  0  0  0  0  0  0  0
  143.1120   71.4420  220.5680 F   0  0  0  0  0  0  0  0  0  0  0  0
  142.0930   73.5580  221.0270 C   0  0  0  0  0  0  0  0  0  0  0  0
  141.3280   77.0900  221.6480 C   0  0  0  0  0  0  0  0  0  0  0  0
  140.4090   77.9750  222.1750 C   0  0  0  0  0  0  0  0  0  0  0  0
  140.3224   80.7605  223.8148 H   0  0  0  0  0  0  0  0  0  0  0  0
  139.7068   81.1257  222.1375 H   0  0  0  0  0  0  0  0  0  0  0  0
  136.4687   80.7743  221.8629 H   0  0  0  0  0  0  0  0  0  0  0  0
  134.7038   82.2825  222.6266 H   0  0  0  0  0  0  0  0  0  0  0  0
  134.7208   83.1350  224.9737 H   0  0  0  0  0  0  0  0  0  0  0  0
  134.4944   80.9639  226.0488 H   0  0  0  0  0  0  0  0  0  0  0  0
  135.1871   79.8024  227.1783 H   0  0  0  0  0  0  0  0  0  0  0  0
  133.0129   81.8804  227.8689 H   0  0  0  0  0  0  0  0  0  0  0  0
  132.7077   80.1332  227.5397 H   0  0  0  0  0  0  0  0  0  0  0  0
  133.9260   79.5230  229.4370 H   0  0  0  0  0  0  0  0  0  0  0  0
  134.2661   81.9261  230.7342 H   0  0  0  0  0  0  0  0  0  0  0  0
  135.4845   80.6149  230.2664 H   0  0  0  0  0  0  0  0  0  0  0  0
  134.9231   83.2498  229.0390 H   0  0  0  0  0  0  0  0  0  0  0  0
  136.4827   82.3532  229.4030 H   0  0  0  0  0  0  0  0  0  0  0  0
  138.3456   80.9078  225.7247 H   0  0  0  0  0  0  0  0  0  0  0  0
  137.8511   75.8637  222.6587 H   0  0  0  0  0  0  0  0  0  0  0  0
  139.5092   74.2758  221.7116 H   0  0  0  0  0  0  0  0  0  0  0  0
  143.0575   76.6214  219.9691 H   0  0  0  0  0  0  0  0  0  0  0  0
  144.8199   75.2827  218.8826 H   0  0  0  0  0  0  0  0  0  0  0  0
  144.8499   72.8204  219.1618 H   0  0  0  0  0  0  0  0  0  0  0  0
  141.3234   73.0582  221.6336 H   0  0  0  0  0  0  0  0  0  0  0  0
  142.3247   77.4585  221.3636 H   0  0  0  0  0  0  0  0  0  0  0  0
  1  2  2  0
  2  3  1  0
  3  4  1  0
  4  5  1  0
  5  6  2  0
  6  7  1  0
  7  8  2  0
  8  9  1  0
  9 10  1  0
 10 11  2  0
 10 12  1  0
 12 13  1  0
 13 14  1  0
 14 15  1  0
 15 16  1  0
 16 17  1  0
  9 18  2  0
  4 19  2  0
 19 20  1  0
 20 21  2  0
 21 22  1  0
 22 23  2  0
 23 24  1  0
 24 25  2  0
 25 26  1  0
 26 27  2  0
 27 28  1  0
 28 29  1  0
 28 30  2  0
 23 31  1  0
 31 32  2  0
 32  2  1  0
 18  5  1  0
 32 20  1  0
 17 12  1  0
 30 24  1  0
  3 33  1  0
  3 34  1  0
  6 35  1  0
  7 36  1  0
  8 37  1  0
 13 38  1  0
 13 39  1  0
 14 40  1  0
 14 41  1  0
 15 42  1  0
 16 43  1  0
 16 44  1  0
 17 45  1  0
 17 46  1  0
 18 47  1  0
 21 48  1  0
 22 49  1  0
 25 50  1  0
 26 51  1  0
 27 52  1  0
 30 53  1  0
 31 54  1  0
M  END
>  <smiles>  (10) 
O=C1CC(c2cccc(C(=O)N3CCNCC3)c2)=Nc2ccc(-c3cccc(F)c3)cc21

>  <score_type>  (10) 
oracle

>  <origin>  (10) 
autodockgpu

>  <m_score__min__energy>  (10) 
-7.9900000000000002

>  <m_primary>  (10) 
energy

>  <rmsd>  (10) 
11.858094880275802

>  <m_score__min__rmsd>  (10) 
11.858094880275802

>  <meeko>  (10) 
{"free_energy": -7.73, "intermolecular_energy": -8.63, "internal_energy": -0.96, "cluster_size": 35, "cluster_id": 1, "rank_in_cluster": 35}

>  <energy>  (10) 
-7.97

>  <cluster_rmsd>  (10) 
0.09

>  <cluster>  (10) 
1

$$$$

     RDKit          3D

 54 58  0  0  0  0  0  0  0  0999 V2000
  142.0350   79.0260  223.5030 O   0  0  0  0  0  0  0  0  0  0  0  0
  140.7910   78.9680  223.3310 C   0  0  0  0  0  0  0  0  0  0  0  0
  139.9740   80.1160  223.7800 C   0  0  0  0  0  0  0  0  0  0  0  0
  138.5270   79.9530  223.4830 C   0  0  0  0  0  0  0  0  0  0  0  0
  137.6700   81.1090  223.8140 C   0  0  0  0  0  0  0  0  0  0  0  0
  136.9820   81.7940  222.8180 C   0  0  0  0  0  0  0  0  0  0  0  0
  136.1370   82.8390  223.0800 C   0  0  0  0  0  0  0  0  0  0  0  0
  135.9370   83.2510  224.3690 C   0  0  0  0  0  0  0  0  0  0  0  0
  136.6290   82.5610  225.3590 C   0  0  0  0  0  0  0  0  0  0  0  0
  136.3800   82.9850  226.7590 C   0  0  0  0  0  0  0  0  0  0  0  0
  136.9440   83.9690  227.2550 O   0  0  0  0  0  0  0  0  0  0  0  0
  135.4330   82.1510  227.4540 N   0  0  0  0  0  0  0  0  0  0  0  0
  134.8230   80.9960  226.8060 C   0  0  0  0  0  0  0  0  0  0  0  0
  133.4650   80.8500  227.4780 C   0  0  0  0  0  0  0  0  0  0  0  0
  133.6260   80.5300  228.8870 N   0  0  0  0  0  0  0  0  0  0  0  0
  134.4480   81.4380  229.6130 C   0  0  0  0  0  0  0  0  0  0  0  0
  135.1200   82.5180  228.8140 C   0  0  0  0  0  0  0  0  0  0  0  0
  137.4760   81.5220  225.1230 C   0  0  0  0  0  0  0  0  0  0  0  0
  138.0230   78.9050  222.9180 N   0  0  0  0  0  0  0  0  0  0  0  0
  138.8010   77.7800  222.5030 C   0  0  0  0  0  0  0  0  0  0  0  0
  138.2740   76.6630  221.9090 C   0  0  0  0  0  0  0  0  0  0  0  0
  139.0940   75.5970  221.5230 C   0  0  0  0  0  0  0  0  0  0  0  0
  140.4450   75.6400  221.7280 C   0  0  0  0  0  0  0  0  0  0  0  0
  141.3940   74.6090  221.3420 C   0  0  0  0  0  0  0  0  0  0  0  0
  141.0740   73.2630  221.5720 C   0  0  0  0  0  0  0  0  0  0  0  0
  141.9490   72.2500  221.2530 C   0  0  0  0  0  0  0  0  0  0  0  0
  143.1660   72.5530  220.6950 C   0  0  0  0  0  0  0  0  0  0  0  0
  143.5020   73.8810  220.4570 C   0  0  0  0  0  0  0  0  0  0  0  0
  144.7200   74.1750  219.8970 F   0  0  0  0  0  0  0  0  0  0  0  0
  142.6180   74.9010  220.7810 C   0  0  0  0  0  0  0  0  0  0  0  0
  140.9620   76.7670  222.3290 C   0  0  0  0  0  0  0  0  0  0  0  0
  140.1560   77.8200  222.7120 C   0  0  0  0  0  0  0  0  0  0  0  0
  140.0977   80.2299  224.8671 H   0  0  0  0  0  0  0  0  0  0  0  0
  140.3239   81.0025  223.2307 H   0  0  0  0  0  0  0  0  0  0  0  0
  137.1231   81.4821  221.7726 H   0  0  0  0  0  0  0  0  0  0  0  0
  135.6187   83.3474  222.2536 H   0  0  0  0  0  0  0  0  0  0  0  0
  135.2628   84.0860  224.6105 H   0  0  0  0  0  0  0  0  0  0  0  0
  134.7050   81.1738  225.7269 H   0  0  0  0  0  0  0  0  0  0  0  0
  135.4373   80.0891  226.9066 H   0  0  0  0  0  0  0  0  0  0  0  0
  132.9103   81.7951  227.3825 H   0  0  0  0  0  0  0  0  0  0  0  0
  132.9118   80.0346  226.9889 H   0  0  0  0  0  0  0  0  0  0  0  0
  133.9920   79.5460  229.0010 H   0  0  0  0  0  0  0  0  0  0  0  0
  133.8183   81.9259  230.3715 H   0  0  0  0  0  0  0  0  0  0  0  0
  135.2657   80.8271  230.0231 H   0  0  0  0  0  0  0  0  0  0  0  0
  134.4527   83.3921  228.7888 H   0  0  0  0  0  0  0  0  0  0  0  0
  136.0797   82.7228  229.3109 H   0  0  0  0  0  0  0  0  0  0  0  0
  137.9954   81.0208  225.9531 H   0  0  0  0  0  0  0  0  0  0  0  0
  137.1898   76.6036  221.7330 H   0  0  0  0  0  0  0  0  0  0  0  0
  138.6454   74.7121  221.0480 H   0  0  0  0  0  0  0  0  0  0  0  0
  140.1005   73.0111  222.0180 H   0  0  0  0  0  0  0  0  0  0  0  0
  141.6745   71.2021  221.4443 H   0  0  0  0  0  0  0  0  0  0  0  0
  143.8717   71.7494  220.4375 H   0  0  0  0  0  0  0  0  0  0  0  0
  142.8961   75.9478  220.5889 H   0  0  0  0  0  0  0  0  0  0  0  0
  142.0455   76.8291  222.5082 H   0  0  0  0  0  0  0  0  0  0  0  0
  1  2  2  0
  2  3  1  0
  3  4  1  0
  4  5  1  0
  5  6  2  0
  6  7  1  0
  7  8  2  0
  8  9  1  0
  9 10  1  0
 10 11  2  0
 10 12  1  0
 12 13  1  0
 13 14  1  0
 14 15  1  0
 15 16  1  0
 16 17  1  0
  9 18  2  0
  4 19  2  0
 19 20  1  0
 20 21  2  0
 21 22  1  0
 22 23  2  0
 23 24  1  0
 24 25  2  0
 25 26  1  0
 26 27  2  0
 27 28  1  0
 28 29  1  0
 28 30  2  0
 23 31  1  0
 31 32  2  0
 32  2  1  0
 18  5  1  0
 32 20  1  0
 17 12  1  0
 30 24  1  0
  3 33  1  0
  3 34  1  0
  6 35  1  0
  7 36  1  0
  8 37  1  0
 13 38  1  0
 13 39  1  0
 14 40  1  0
 14 41  1  0
 15 42  1  0
 16 43  1  0
 16 44  1  0
 17 45  1  0
 17 46  1  0
 18 47  1  0
 21 48  1  0
 22 49  1  0
 25 50  1  0
 26 51  1  0
 27 52  1  0
 30 53  1  0
 31 54  1  0
M  END
>  <smiles>  (11) 
O=C1CC(c2cccc(C(=O)N3CCNCC3)c2)=Nc2ccc(-c3cccc(F)c3)cc21

>  <score_type>  (11) 
oracle

>  <origin>  (11) 
autodockgpu

>  <m_score__min__energy>  (11) 
-7.9900000000000002

>  <m_primary>  (11) 
energy

>  <rmsd>  (11) 
11.780927546078317

>  <m_score__min__rmsd>  (11) 
11.780927546078317

>  <meeko>  (11) 
{"free_energy": -7.95, "intermolecular_energy": -8.84, "internal_energy": -1.0, "cluster_size": 35, "cluster_id": 1, "rank_in_cluster": 22}

>  <energy>  (11) 
-7.97

>  <cluster_rmsd>  (11) 
0.07

>  <cluster>  (11) 
1

$$$$

     RDKit          3D

 54 58  0  0  0  0  0  0  0  0999 V2000
  140.3610   70.5830  220.4750 O   0  0  0  0  0  0  0  0  0  0  0  0
  140.9780   71.6740  220.5730 C   0  0  0  0  0  0  0  0  0  0  0  0
  140.2150   72.8670  221.0020 C   0  0  0  0  0  0  0  0  0  0  0  0
  141.0580   74.0840  221.1260 C   0  0  0  0  0  0  0  0  0  0  0  0
  140.3760   75.2860  221.6480 C   0  0  0  0  0  0  0  0  0  0  0  0
  138.9920   75.3180  221.7810 C   0  0  0  0  0  0  0  0  0  0  0  0
  138.3190   76.3880  222.3080 C   0  0  0  0  0  0  0  0  0  0  0  0
  139.0100   77.4900  222.7330 C   0  0  0  0  0  0  0  0  0  0  0  0
  140.3940   77.4490  222.5960 C   0  0  0  0  0  0  0  0  0  0  0  0
  141.1430   78.6290  223.0940 C   0  0  0  0  0  0  0  0  0  0  0  0
  141.6960   78.6340  224.2020 O   0  0  0  0  0  0  0  0  0  0  0  0
  141.1560   79.7350  222.1710 N   0  0  0  0  0  0  0  0  0  0  0  0
  140.4650   79.6590  220.8890 C   0  0  0  0  0  0  0  0  0  0  0  0
  141.2580   80.5760  219.9690 C   0  0  0  0  0  0  0  0  0  0  0  0
  141.1800   81.9530  220.4310 N   0  0  0  0  0  0  0  0  0  0  0  0
  141.5670   82.1480  221.7870 C   0  0  0  0  0  0  0  0  0  0  0  0
  141.8880   80.9100  222.5760 C   0  0  0  0  0  0  0  0  0  0  0  0
  141.0850   76.3990  222.0750 C   0  0  0  0  0  0  0  0  0  0  0  0
  142.3220   74.1120  220.8600 N   0  0  0  0  0  0  0  0  0  0  0  0
  143.0630   72.9720  220.4210 C   0  0  0  0  0  0  0  0  0  0  0  0
  144.4020   72.9950  220.1300 C   0  0  0  0  0  0  0  0  0  0  0  0
  145.0690   71.8380  219.7090 C   0  0  0  0  0  0  0  0  0  0  0  0
  144.4010   70.6530  219.5750 C   0  0  0  0  0  0  0  0  0  0  0  0
  144.9950   69.3870  219.1770 C   0  0  0  0  0  0  0  0  0  0  0  0
  144.8360   68.2660  220.0050 C   0  0  0  0  0  0  0  0  0  0  0  0
  145.4030   67.0520  219.6900 C   0  0  0  0  0  0  0  0  0  0  0  0
  146.1420   66.9240  218.5410 C   0  0  0  0  0  0  0  0  0  0  0  0
  146.3100   68.0230  217.7050 C   0  0  0  0  0  0  0  0  0  0  0  0
  147.0480   67.8870  216.5570 F   0  0  0  0  0  0  0  0  0  0  0  0
  145.7380   69.2470  218.0260 C   0  0  0  0  0  0  0  0  0  0  0  0
  143.0550   70.6430  219.8670 C   0  0  0  0  0  0  0  0  0  0  0  0
  142.3940   71.7820  220.2820 C   0  0  0  0  0  0  0  0  0  0  0  0
  139.4250   73.0622  220.2618 H   0  0  0  0  0  0  0  0  0  0  0  0
  139.8015   72.6513  221.9983 H   0  0  0  0  0  0  0  0  0  0  0  0
  138.4119   74.4447  221.4480 H   0  0  0  0  0  0  0  0  0  0  0  0
  137.2224   76.3616  222.3897 H   0  0  0  0  0  0  0  0  0  0  0  0
  138.4973   78.3639  223.1612 H   0  0  0  0  0  0  0  0  0  0  0  0
  140.4690   78.6277  220.5065 H   0  0  0  0  0  0  0  0  0  0  0  0
  139.4093   79.9581  220.9664 H   0  0  0  0  0  0  0  0  0  0  0  0
  142.3106   80.2566  219.9592 H   0  0  0  0  0  0  0  0  0  0  0  0
  140.8340   80.5163  218.9558 H   0  0  0  0  0  0  0  0  0  0  0  0
  140.2070   82.3380  220.2780 H   0  0  0  0  0  0  0  0  0  0  0  0
  142.4614   82.7883  221.7908 H   0  0  0  0  0  0  0  0  0  0  0  0
  140.6884   82.5888  222.2806 H   0  0  0  0  0  0  0  0  0  0  0  0
  142.9622   80.7007  222.4647 H   0  0  0  0  0  0  0  0  0  0  0  0
  141.5952   81.1175  223.6158 H   0  0  0  0  0  0  0  0  0  0  0  0
  142.1815   76.4321  221.9943 H   0  0  0  0  0  0  0  0  0  0  0  0
  144.9615   73.9370  220.2287 H   0  0  0  0  0  0  0  0  0  0  0  0
  146.1446   71.8833  219.4832 H   0  0  0  0  0  0  0  0  0  0  0  0
  144.2444   68.3593  220.9276 H   0  0  0  0  0  0  0  0  0  0  0  0
  145.2643   66.1880  220.3566 H   0  0  0  0  0  0  0  0  0  0  0  0
  146.5991   65.9575  218.2824 H   0  0  0  0  0  0  0  0  0  0  0  0
  145.8791   70.1091  217.3575 H   0  0  0  0  0  0  0  0  0  0  0  0
  142.4920   69.7033  219.7670 H   0  0  0  0  0  0  0  0  0  0  0  0
  1  2  2  0
  2  3  1  0
  3  4  1  0
  4  5  1  0
  5  6  2  0
  6  7  1  0
  7  8  2  0
  8  9  1  0
  9 10  1  0
 10 11  2  0
 10 12  1  0
 12 13  1  0
 13 14  1  0
 14 15  1  0
 15 16  1  0
 16 17  1  0
  9 18  2  0
  4 19  2  0
 19 20  1  0
 20 21  2  0
 21 22  1  0
 22 23  2  0
 23 24  1  0
 24 25  2  0
 25 26  1  0
 26 27  2  0
 27 28  1  0
 28 29  1  0
 28 30  2  0
 23 31  1  0
 31 32  2  0
 32  2  1  0
 18  5  1  0
 32 20  1  0
 17 12  1  0
 30 24  1  0
  3 33  1  0
  3 34  1  0
  6 35  1  0
  7 36  1  0
  8 37  1  0
 13 38  1  0
 13 39  1  0
 14 40  1  0
 14 41  1  0
 15 42  1  0
 16 43  1  0
 16 44  1  0
 17 45  1  0
 17 46  1  0
 18 47  1  0
 21 48  1  0
 22 49  1  0
 25 50  1  0
 26 51  1  0
 27 52  1  0
 30 53  1  0
 31 54  1  0
M  END
>  <smiles>  (12) 
O=C1CC(c2cccc(C(=O)N3CCNCC3)c2)=Nc2ccc(-c3cccc(F)c3)cc21

>  <score_type>  (12) 
oracle

>  <origin>  (12) 
autodockgpu

>  <m_score__min__energy>  (12) 
-7.9900000000000002

>  <m_primary>  (12) 
energy

>  <rmsd>  (12) 
7.545474494804531

>  <m_score__min__rmsd>  (12) 
7.545474494804531

>  <meeko>  (12) 
{"free_energy": -7.76, "intermolecular_energy": -8.65, "internal_energy": -0.99, "cluster_size": 7, "cluster_id": 4, "rank_in_cluster": 1}

>  <energy>  (12) 
-7.97

>  <cluster_rmsd>  (12) 
0.09

>  <cluster>  (12) 
1

$$$$

     RDKit          3D

 54 58  0  0  0  0  0  0  0  0999 V2000
  140.0820   70.9230  220.6060 O   0  0  0  0  0  0  0  0  0  0  0  0
  140.7370   71.9890  220.7250 C   0  0  0  0  0  0  0  0  0  0  0  0
  140.0140   73.2030  221.1620 C   0  0  0  0  0  0  0  0  0  0  0  0
  140.9000   74.3870  221.3100 C   0  0  0  0  0  0  0  0  0  0  0  0
  140.2570   75.6060  221.8420 C   0  0  0  0  0  0  0  0  0  0  0  0
  138.8880   75.6400  222.0880 C   0  0  0  0  0  0  0  0  0  0  0  0
  138.2560   76.7270  222.6280 C   0  0  0  0  0  0  0  0  0  0  0  0
  138.9740   77.8460  222.9530 C   0  0  0  0  0  0  0  0  0  0  0  0
  140.3420   77.8030  222.7040 C   0  0  0  0  0  0  0  0  0  0  0  0
  141.1230   79.0030  223.0940 C   0  0  0  0  0  0  0  0  0  0  0  0
  141.7480   79.0590  224.1620 O   0  0  0  0  0  0  0  0  0  0  0  0
  141.0770   80.0630  222.1190 N   0  0  0  0  0  0  0  0  0  0  0  0
  140.3030   79.9280  220.8910 C   0  0  0  0  0  0  0  0  0  0  0  0
  141.0350   80.7960  219.8770 C   0  0  0  0  0  0  0  0  0  0  0  0
  140.9890   82.1940  220.2760 N   0  0  0  0  0  0  0  0  0  0  0  0
  141.4650   82.4530  221.5930 C   0  0  0  0  0  0  0  0  0  0  0  0
  141.8350   81.2530  222.4180 C   0  0  0  0  0  0  0  0  0  0  0  0
  140.9930   76.7360  222.1660 C   0  0  0  0  0  0  0  0  0  0  0  0
  142.1670   74.3730  221.0560 N   0  0  0  0  0  0  0  0  0  0  0  0
  142.8700   73.2110  220.6090 C   0  0  0  0  0  0  0  0  0  0  0  0
  144.2120   73.1890  220.3310 C   0  0  0  0  0  0  0  0  0  0  0  0
  144.8400   72.0150  219.9010 C   0  0  0  0  0  0  0  0  0  0  0  0
  144.1310   70.8560  219.7450 C   0  0  0  0  0  0  0  0  0  0  0  0
  144.6820   69.5750  219.3350 C   0  0  0  0  0  0  0  0  0  0  0  0
  145.7860   69.5500  218.4700 C   0  0  0  0  0  0  0  0  0  0  0  0
  146.3260   68.3640  218.0270 C   0  0  0  0  0  0  0  0  0  0  0  0
  145.7810   67.1730  218.4370 C   0  0  0  0  0  0  0  0  0  0  0  0
  144.6880   67.1760  219.2970 C   0  0  0  0  0  0  0  0  0  0  0  0
  144.1510   65.9810  219.7030 F   0  0  0  0  0  0  0  0  0  0  0  0
  144.1440   68.3740  219.7410 C   0  0  0  0  0  0  0  0  0  0  0  0
  142.7820   70.8920  220.0240 C   0  0  0  0  0  0  0  0  0  0  0  0
  142.1600   72.0490  220.4480 C   0  0  0  0  0  0  0  0  0  0  0  0
  139.2392   73.4364  220.4169 H   0  0  0  0  0  0  0  0  0  0  0  0
  139.5828   72.9900  222.1513 H   0  0  0  0  0  0  0  0  0  0  0  0
  138.2869   74.7536  221.8372 H   0  0  0  0  0  0  0  0  0  0  0  0
  137.1700   76.7014  222.8010 H   0  0  0  0  0  0  0  0  0  0  0  0
  138.4937   78.7344  223.3890 H   0  0  0  0  0  0  0  0  0  0  0  0
  140.2804   78.8793  220.5597 H   0  0  0  0  0  0  0  0  0  0  0  0
  139.2550   80.2352  221.0231 H   0  0  0  0  0  0  0  0  0  0  0  0
  142.0843   80.4720  219.8136 H   0  0  0  0  0  0  0  0  0  0  0  0
  140.5454   80.6891  218.8978 H   0  0  0  0  0  0  0  0  0  0  0  0
  140.0090   82.5750  220.1680 H   0  0  0  0  0  0  0  0  0  0  0  0
  142.3588   83.0883  221.5068 H   0  0  0  0  0  0  0  0  0  0  0  0
  140.6218   82.9219  222.1213 H   0  0  0  0  0  0  0  0  0  0  0  0
  142.8994   81.0340  222.2472 H   0  0  0  0  0  0  0  0  0  0  0  0
  141.6105   81.5116  223.4633 H   0  0  0  0  0  0  0  0  0  0  0  0
  142.0786   76.7690  221.9920 H   0  0  0  0  0  0  0  0  0  0  0  0
  144.8044   74.1085  220.4478 H   0  0  0  0  0  0  0  0  0  0  0  0
  145.9186   72.0243  219.6855 H   0  0  0  0  0  0  0  0  0  0  0  0
  146.2303   70.5000  218.1381 H   0  0  0  0  0  0  0  0  0  0  0  0
  147.1908   68.3707  217.3472 H   0  0  0  0  0  0  0  0  0  0  0  0
  146.2065   66.2209  218.0872 H   0  0  0  0  0  0  0  0  0  0  0  0
  143.2790   68.3637  220.4204 H   0  0  0  0  0  0  0  0  0  0  0  0
  142.1856   69.9753  219.9058 H   0  0  0  0  0  0  0  0  0  0  0  0
  1  2  2  0
  2  3  1  0
  3  4  1  0
  4  5  1  0
  5  6  2  0
  6  7  1  0
  7  8  2  0
  8  9  1  0
  9 10  1  0
 10 11  2  0
 10 12  1  0
 12 13  1  0
 13 14  1  0
 14 15  1  0
 15 16  1  0
 16 17  1  0
  9 18  2  0
  4 19  2  0
 19 20  1  0
 20 21  2  0
 21 22  1  0
 22 23  2  0
 23 24  1  0
 24 25  2  0
 25 26  1  0
 26 27  2  0
 27 28  1  0
 28 29  1  0
 28 30  2  0
 23 31  1  0
 31 32  2  0
 32  2  1  0
 18  5  1  0
 32 20  1  0
 17 12  1  0
 30 24  1  0
  3 33  1  0
  3 34  1  0
  6 35  1  0
  7 36  1  0
  8 37  1  0
 13 38  1  0
 13 39  1  0
 14 40  1  0
 14 41  1  0
 15 42  1  0
 16 43  1  0
 16 44  1  0
 17 45  1  0
 17 46  1  0
 18 47  1  0
 21 48  1  0
 22 49  1  0
 25 50  1  0
 26 51  1  0
 27 52  1  0
 30 53  1  0
 31 54  1  0
M  END
>  <smiles>  (13) 
O=C1CC(c2cccc(C(=O)N3CCNCC3)c2)=Nc2ccc(-c3cccc(F)c3)cc21

>  <score_type>  (13) 
oracle

>  <origin>  (13) 
autodockgpu

>  <m_score__min__energy>  (13) 
-7.9900000000000002

>  <m_primary>  (13) 
energy

>  <rmsd>  (13) 
7.669798852344271

>  <m_score__min__rmsd>  (13) 
7.669798852344271

>  <meeko>  (13) 
{"free_energy": -7.56, "intermolecular_energy": -8.46, "internal_energy": -0.99, "cluster_size": 7, "cluster_id": 4, "rank_in_cluster": 7}

>  <energy>  (13) 
-7.97

>  <cluster_rmsd>  (13) 
0.13

>  <cluster>  (13) 
1

$$$$

     RDKit          3D

 54 58  0  0  0  0  0  0  0  0999 V2000
  140.3410   70.6830  220.1690 O   0  0  0  0  0  0  0  0  0  0  0  0
  140.9780   71.7470  220.3760 C   0  0  0  0  0  0  0  0  0  0  0  0
  140.2170   72.9340  220.8220 C   0  0  0  0  0  0  0  0  0  0  0  0
  141.0800   74.1160  221.0790 C   0  0  0  0  0  0  0  0  0  0  0  0
  140.3940   75.3050  221.6250 C   0  0  0  0  0  0  0  0  0  0  0  0
  139.0100   75.3270  221.7650 C   0  0  0  0  0  0  0  0  0  0  0  0
  138.3330   76.3840  222.3120 C   0  0  0  0  0  0  0  0  0  0  0  0
  139.0200   77.4830  222.7520 C   0  0  0  0  0  0  0  0  0  0  0  0
  140.4040   77.4520  222.6080 C   0  0  0  0  0  0  0  0  0  0  0  0
  141.1480   78.6280  223.1230 C   0  0  0  0  0  0  0  0  0  0  0  0
  141.7100   78.6160  224.2260 O   0  0  0  0  0  0  0  0  0  0  0  0
  141.1460   79.7510  222.2200 N   0  0  0  0  0  0  0  0  0  0  0  0
  140.4450   79.6940  220.9420 C   0  0  0  0  0  0  0  0  0  0  0  0
  141.2240   80.6340  220.0330 C   0  0  0  0  0  0  0  0  0  0  0  0
  141.1400   82.0010  220.5220 N   0  0  0  0  0  0  0  0  0  0  0  0
  141.5370   82.1740  221.8780 C   0  0  0  0  0  0  0  0  0  0  0  0
  141.8730   80.9240  222.6410 C   0  0  0  0  0  0  0  0  0  0  0  0
  141.0980   76.4150  222.0660 C   0  0  0  0  0  0  0  0  0  0  0  0
  142.3610   74.1220  220.9040 N   0  0  0  0  0  0  0  0  0  0  0  0
  143.1010   72.9870  220.4490 C   0  0  0  0  0  0  0  0  0  0  0  0
  144.4580   72.9870  220.2550 C   0  0  0  0  0  0  0  0  0  0  0  0
  145.1230   71.8380  219.8120 C   0  0  0  0  0  0  0  0  0  0  0  0
  144.4360   70.6830  219.5600 C   0  0  0  0  0  0  0  0  0  0  0  0
  145.0240   69.4260  219.1280 C   0  0  0  0  0  0  0  0  0  0  0  0
  144.9000   68.2940  219.9480 C   0  0  0  0  0  0  0  0  0  0  0  0
  145.4640   67.0880  219.6010 C   0  0  0  0  0  0  0  0  0  0  0  0
  146.1640   66.9780  218.4260 C   0  0  0  0  0  0  0  0  0  0  0  0
  146.2970   68.0870  217.5970 C   0  0  0  0  0  0  0  0  0  0  0  0
  146.9970   67.9670  216.4230 F   0  0  0  0  0  0  0  0  0  0  0  0
  145.7280   69.3030  217.9510 C   0  0  0  0  0  0  0  0  0  0  0  0
  143.0730   70.6970  219.7560 C   0  0  0  0  0  0  0  0  0  0  0  0
  142.4140   71.8290  220.1920 C   0  0  0  0  0  0  0  0  0  0  0  0
  139.4876   73.1960  220.0414 H   0  0  0  0  0  0  0  0  0  0  0  0
  139.7273   72.6723  221.7716 H   0  0  0  0  0  0  0  0  0  0  0  0
  138.4335   74.4558  221.4206 H   0  0  0  0  0  0  0  0  0  0  0  0
  137.2369   76.3499  222.3978 H   0  0  0  0  0  0  0  0  0  0  0  0
  138.5045   78.3469  223.1969 H   0  0  0  0  0  0  0  0  0  0  0  0
  140.4533   78.6701  220.5401 H   0  0  0  0  0  0  0  0  0  0  0  0
  139.3878   79.9839  221.0334 H   0  0  0  0  0  0  0  0  0  0  0  0
  142.2787   80.3225  220.0085 H   0  0  0  0  0  0  0  0  0  0  0  0
  140.7922   80.5905  219.0222 H   0  0  0  0  0  0  0  0  0  0  0  0
  140.1640   82.3820  220.3830 H   0  0  0  0  0  0  0  0  0  0  0  0
  142.4270   82.8204  221.8862 H   0  0  0  0  0  0  0  0  0  0  0  0
  140.6597   82.5998  222.3870 H   0  0  0  0  0  0  0  0  0  0  0  0
  142.9477   80.7247  222.5173 H   0  0  0  0  0  0  0  0  0  0  0  0
  141.5870   81.1101  223.6867 H   0  0  0  0  0  0  0  0  0  0  0  0
  142.1938   76.4563  221.9795 H   0  0  0  0  0  0  0  0  0  0  0  0
  145.0330   73.9041  220.4505 H   0  0  0  0  0  0  0  0  0  0  0  0
  146.2128   71.8645  219.6646 H   0  0  0  0  0  0  0  0  0  0  0  0
  144.3385   68.3727  220.8906 H   0  0  0  0  0  0  0  0  0  0  0  0
  145.3543   66.2160  220.2625 H   0  0  0  0  0  0  0  0  0  0  0  0
  146.6178   66.0174  218.1410 H   0  0  0  0  0  0  0  0  0  0  0  0
  145.8402   70.1731  217.2874 H   0  0  0  0  0  0  0  0  0  0  0  0
  142.4942   69.7823  219.5600 H   0  0  0  0  0  0  0  0  0  0  0  0
  1  2  2  0
  2  3  1  0
  3  4  1  0
  4  5  1  0
  5  6  2  0
  6  7  1  0
  7  8  2  0
  8  9  1  0
  9 10  1  0
 10 11  2  0
 10 12  1  0
 12 13  1  0
 13 14  1  0
 14 15  1  0
 15 16  1  0
 16 17  1  0
  9 18  2  0
  4 19  2  0
 19 20  1  0
 20 21  2  0
 21 22  1  0
 22 23  2  0
 23 24  1  0
 24 25  2  0
 25 26  1  0
 26 27  2  0
 27 28  1  0
 28 29  1  0
 28 30  2  0
 23 31  1  0
 31 32  2  0
 32  2  1  0
 18  5  1  0
 32 20  1  0
 17 12  1  0
 30 24  1  0
  3 33  1  0
  3 34  1  0
  6 35  1  0
  7 36  1  0
  8 37  1  0
 13 38  1  0
 13 39  1  0
 14 40  1  0
 14 41  1  0
 15 42  1  0
 16 43  1  0
 16 44  1  0
 17 45  1  0
 17 46  1  0
 18 47  1  0
 21 48  1  0
 22 49  1  0
 25 50  1  0
 26 51  1  0
 27 52  1  0
 30 53  1  0
 31 54  1  0
M  END
>  <smiles>  (14) 
O=C1CC(c2cccc(C(=O)N3CCNCC3)c2)=Nc2ccc(-c3cccc(F)c3)cc21

>  <score_type>  (14) 
oracle

>  <origin>  (14) 
autodockgpu

>  <m_score__min__energy>  (14) 
-7.9900000000000002

>  <m_primary>  (14) 
energy

>  <rmsd>  (14) 
7.610850143964067

>  <m_score__min__rmsd>  (14) 
7.610850143964067

>  <meeko>  (14) 
{"free_energy": -7.69, "intermolecular_energy": -8.59, "internal_energy": -0.98, "cluster_size": 7, "cluster_id": 4, "rank_in_cluster": 3}

>  <energy>  (14) 
-7.97

>  <cluster_rmsd>  (14) 
0.2

>  <cluster>  (14) 
1

$$$$

     RDKit          3D

 54 58  0  0  0  0  0  0  0  0999 V2000
  139.8730   74.2950  222.3390 O   0  0  0  0  0  0  0  0  0  0  0  0
  140.7860   73.9200  221.5610 C   0  0  0  0  0  0  0  0  0  0  0  0
  140.9770   72.4660  221.3650 C   0  0  0  0  0  0  0  0  0  0  0  0
  142.0530   72.1460  220.3910 C   0  0  0  0  0  0  0  0  0  0  0  0
  142.2260   70.7140  220.0740 C   0  0  0  0  0  0  0  0  0  0  0  0
  141.1240   69.8760  219.9420 C   0  0  0  0  0  0  0  0  0  0  0  0
  141.2290   68.5550  219.5990 C   0  0  0  0  0  0  0  0  0  0  0  0
  142.4610   68.0040  219.3680 C   0  0  0  0  0  0  0  0  0  0  0  0
  143.5570   68.8500  219.5020 C   0  0  0  0  0  0  0  0  0  0  0  0
  144.8870   68.2580  219.2120 C   0  0  0  0  0  0  0  0  0  0  0  0
  145.7390   68.0980  220.0950 O   0  0  0  0  0  0  0  0  0  0  0  0
  145.0680   67.8990  217.8280 N   0  0  0  0  0  0  0  0  0  0  0  0
  144.0210   68.1350  216.8410 C   0  0  0  0  0  0  0  0  0  0  0  0
  144.2260   67.0470  215.7950 C   0  0  0  0  0  0  0  0  0  0  0  0
  145.5060   67.2170  215.1280 N   0  0  0  0  0  0  0  0  0  0  0  0
  146.6280   67.2870  216.0030 C   0  0  0  0  0  0  0  0  0  0  0  0
  146.3290   67.2930  217.4740 C   0  0  0  0  0  0  0  0  0  0  0  0
  143.4770   70.1640  219.8430 C   0  0  0  0  0  0  0  0  0  0  0  0
  142.7710   73.0400  219.7940 N   0  0  0  0  0  0  0  0  0  0  0  0
  142.6100   74.4460  219.9960 C   0  0  0  0  0  0  0  0  0  0  0  0
  143.3720   75.4000  219.3730 C   0  0  0  0  0  0  0  0  0  0  0  0
  143.1590   76.7630  219.6120 C   0  0  0  0  0  0  0  0  0  0  0  0
  142.1840   77.1800  220.4760 C   0  0  0  0  0  0  0  0  0  0  0  0
  141.8540   78.5630  220.7760 C   0  0  0  0  0  0  0  0  0  0  0  0
  141.6020   79.4510  219.7200 C   0  0  0  0  0  0  0  0  0  0  0  0
  141.3160   80.7780  219.9480 C   0  0  0  0  0  0  0  0  0  0  0  0
  141.2720   81.2530  221.2350 C   0  0  0  0  0  0  0  0  0  0  0  0
  141.5160   80.3880  222.2960 C   0  0  0  0  0  0  0  0  0  0  0  0
  141.4680   80.8700  223.5800 F   0  0  0  0  0  0  0  0  0  0  0  0
  141.8060   79.0500  222.0630 C   0  0  0  0  0  0  0  0  0  0  0  0
  141.4280   76.2110  221.0980 C   0  0  0  0  0  0  0  0  0  0  0  0
  141.6360   74.8660  220.8650 C   0  0  0  0  0  0  0  0  0  0  0  0
  141.2353   72.0130  222.3336 H   0  0  0  0  0  0  0  0  0  0  0  0
  140.0370   72.0631  220.9599 H   0  0  0  0  0  0  0  0  0  0  0  0
  140.1223   70.2938  220.1214 H   0  0  0  0  0  0  0  0  0  0  0  0
  140.3239   67.9363  219.5090 H   0  0  0  0  0  0  0  0  0  0  0  0
  142.5781   66.9460  219.0905 H   0  0  0  0  0  0  0  0  0  0  0  0
  143.0261   68.0478  217.3020 H   0  0  0  0  0  0  0  0  0  0  0  0
  144.0758   69.1449  216.4084 H   0  0  0  0  0  0  0  0  0  0  0  0
  144.2017   66.0632  216.2864 H   0  0  0  0  0  0  0  0  0  0  0  0
  143.4228   67.1170  215.0467 H   0  0  0  0  0  0  0  0  0  0  0  0
  145.4860   68.0690  214.5040 H   0  0  0  0  0  0  0  0  0  0  0  0
  147.2688   66.4173  215.7955 H   0  0  0  0  0  0  0  0  0  0  0  0
  147.0985   68.2597  215.7969 H   0  0  0  0  0  0  0  0  0  0  0  0
  146.3200   66.2511  217.8266 H   0  0  0  0  0  0  0  0  0  0  0  0
  147.1121   67.9023  217.9489 H   0  0  0  0  0  0  0  0  0  0  0  0
  144.3857   70.7772  219.9336 H   0  0  0  0  0  0  0  0  0  0  0  0
  144.1631   75.0899  218.6744 H   0  0  0  0  0  0  0  0  0  0  0  0
  143.7839   77.5083  219.0982 H   0  0  0  0  0  0  0  0  0  0  0  0
  141.6337   79.0783  218.6855 H   0  0  0  0  0  0  0  0  0  0  0  0
  141.1235   81.4548  219.1025 H   0  0  0  0  0  0  0  0  0  0  0  0
  141.0450   82.3122  221.4261 H   0  0  0  0  0  0  0  0  0  0  0  0
  141.9983   78.3760  222.9108 H   0  0  0  0  0  0  0  0  0  0  0  0
  140.6374   76.5168  221.7991 H   0  0  0  0  0  0  0  0  0  0  0  0
  1  2  2  0
  2  3  1  0
  3  4  1  0
  4  5  1  0
  5  6  2  0
  6  7  1  0
  7  8  2  0
  8  9  1  0
  9 10  1  0
 10 11  2  0
 10 12  1  0
 12 13  1  0
 13 14  1  0
 14 15  1  0
 15 16  1  0
 16 17  1  0
  9 18  2  0
  4 19  2  0
 19 20  1  0
 20 21  2  0
 21 22  1  0
 22 23  2  0
 23 24  1  0
 24 25  2  0
 25 26  1  0
 26 27  2  0
 27 28  1  0
 28 29  1  0
 28 30  2  0
 23 31  1  0
 31 32  2  0
 32  2  1  0
 18  5  1  0
 32 20  1  0
 17 12  1  0
 30 24  1  0
  3 33  1  0
  3 34  1  0
  6 35  1  0
  7 36  1  0
  8 37  1  0
 13 38  1  0
 13 39  1  0
 14 40  1  0
 14 41  1  0
 15 42  1  0
 16 43  1  0
 16 44  1  0
 17 45  1  0
 17 46  1  0
 18 47  1  0
 21 48  1  0
 22 49  1  0
 25 50  1  0
 26 51  1  0
 27 52  1  0
 30 53  1  0
 31 54  1  0
M  END
>  <smiles>  (15) 
O=C1CC(c2cccc(C(=O)N3CCNCC3)c2)=Nc2ccc(-c3cccc(F)c3)cc21

>  <score_type>  (15) 
oracle

>  <origin>  (15) 
autodockgpu

>  <m_score__min__energy>  (15) 
-7.9900000000000002

>  <m_primary>  (15) 
energy

>  <rmsd>  (15) 
8.56920494139634

>  <m_score__min__rmsd>  (15) 
8.56920494139634

>  <meeko>  (15) 
{"free_energy": -7.73, "intermolecular_energy": -8.63, "internal_energy": -0.86, "cluster_size": 1, "cluster_id": 5, "rank_in_cluster": 1}

>  <energy>  (15) 
-7.96

>  <cluster_rmsd>  (15) 
0.18

>  <cluster>  (15) 
1

$$$$

     RDKit          3D

 54 58  0  0  0  0  0  0  0  0999 V2000
  141.8910   79.6440  222.8800 O   0  0  0  0  0  0  0  0  0  0  0  0
  140.6490   79.5260  223.0320 C   0  0  0  0  0  0  0  0  0  0  0  0
  139.8960   80.7010  223.5210 C   0  0  0  0  0  0  0  0  0  0  0  0
  138.4330   80.4560  223.6170 C   0  0  0  0  0  0  0  0  0  0  0  0
  137.6120   81.6220  224.0010 C   0  0  0  0  0  0  0  0  0  0  0  0
  136.9860   82.4020  223.0350 C   0  0  0  0  0  0  0  0  0  0  0  0
  136.1740   83.4610  223.3420 C   0  0  0  0  0  0  0  0  0  0  0  0
  135.9460   83.7910  224.6510 C   0  0  0  0  0  0  0  0  0  0  0  0
  136.5760   83.0050  225.6110 C   0  0  0  0  0  0  0  0  0  0  0  0
  136.2950   83.3420  227.0290 C   0  0  0  0  0  0  0  0  0  0  0  0
  136.7880   84.3370  227.5760 O   0  0  0  0  0  0  0  0  0  0  0  0
  135.4070   82.4110  227.6770 N   0  0  0  0  0  0  0  0  0  0  0  0
  134.8790   81.2500  226.9700 C   0  0  0  0  0  0  0  0  0  0  0  0
  133.5330   80.9780  227.6270 C   0  0  0  0  0  0  0  0  0  0  0  0
  133.7130   80.6010  229.0190 N   0  0  0  0  0  0  0  0  0  0  0  0
  134.4690   81.5260  229.7930 C   0  0  0  0  0  0  0  0  0  0  0  0
  135.0660   82.6880  229.0510 C   0  0  0  0  0  0  0  0  0  0  0  0
  137.3880   81.9500  225.3300 C   0  0  0  0  0  0  0  0  0  0  0  0
  137.8740   79.3260  223.3330 N   0  0  0  0  0  0  0  0  0  0  0  0
  138.5970   78.1780  222.8850 C   0  0  0  0  0  0  0  0  0  0  0  0
  138.0120   76.9740  222.5880 C   0  0  0  0  0  0  0  0  0  0  0  0
  138.7790   75.8890  222.1480 C   0  0  0  0  0  0  0  0  0  0  0  0
  140.1340   76.0000  222.0030 C   0  0  0  0  0  0  0  0  0  0  0  0
  141.0230   74.9530  221.5260 C   0  0  0  0  0  0  0  0  0  0  0  0
  142.1860   75.3090  220.8270 C   0  0  0  0  0  0  0  0  0  0  0  0
  143.0450   74.3580  220.3280 C   0  0  0  0  0  0  0  0  0  0  0  0
  142.7680   73.0260  220.5140 C   0  0  0  0  0  0  0  0  0  0  0  0
  141.6220   72.6520  221.2070 C   0  0  0  0  0  0  0  0  0  0  0  0
  141.3540   71.3190  221.3900 F   0  0  0  0  0  0  0  0  0  0  0  0
  140.7560   73.6150  221.7080 C   0  0  0  0  0  0  0  0  0  0  0  0
  140.7100   77.2140  222.3080 C   0  0  0  0  0  0  0  0  0  0  0  0
  139.9560   78.2860  222.7420 C   0  0  0  0  0  0  0  0  0  0  0  0
  140.2728   80.9678  224.5194 H   0  0  0  0  0  0  0  0  0  0  0  0
  140.0461   81.5130  222.7943 H   0  0  0  0  0  0  0  0  0  0  0  0
  137.1506   82.1570  221.9753 H   0  0  0  0  0  0  0  0  0  0  0  0
  135.7051   84.0463  222.5373 H   0  0  0  0  0  0  0  0  0  0  0  0
  135.2976   84.6348  224.9297 H   0  0  0  0  0  0  0  0  0  0  0  0
  134.7509   81.4722  225.9003 H   0  0  0  0  0  0  0  0  0  0  0  0
  135.5542   80.3836  227.0292 H   0  0  0  0  0  0  0  0  0  0  0  0
  132.9147   81.8863  227.5750 H   0  0  0  0  0  0  0  0  0  0  0  0
  133.0383   80.1516  227.0957 H   0  0  0  0  0  0  0  0  0  0  0  0
  134.1470   79.6390  229.0870 H   0  0  0  0  0  0  0  0  0  0  0  0
  133.8059   81.9313  230.5715 H   0  0  0  0  0  0  0  0  0  0  0  0
  135.3262   80.9534  230.1769 H   0  0  0  0  0  0  0  0  0  0  0  0
  134.3394   83.5137  229.0645 H   0  0  0  0  0  0  0  0  0  0  0  0
  136.0080   82.9343  229.5628 H   0  0  0  0  0  0  0  0  0  0  0  0
  137.8564   81.3700  226.1388 H   0  0  0  0  0  0  0  0  0  0  0  0
  136.9235   76.8590  222.6972 H   0  0  0  0  0  0  0  0  0  0  0  0
  138.2849   74.9340  221.9157 H   0  0  0  0  0  0  0  0  0  0  0  0
  142.4163   76.3738  220.6744 H   0  0  0  0  0  0  0  0  0  0  0  0
  143.9500   74.6630  219.7822 H   0  0  0  0  0  0  0  0  0  0  0  0
  143.4491   72.2589  220.1169 H   0  0  0  0  0  0  0  0  0  0  0  0
  139.8517   73.3069  222.2533 H   0  0  0  0  0  0  0  0  0  0  0  0
  141.7986   77.3321  222.2030 H   0  0  0  0  0  0  0  0  0  0  0  0
  1  2  2  0
  2  3  1  0
  3  4  1  0
  4  5  1  0
  5  6  2  0
  6  7  1  0
  7  8  2  0
  8  9  1  0
  9 10  1  0
 10 11  2  0
 10 12  1  0
 12 13  1  0
 13 14  1  0
 14 15  1  0
 15 16  1  0
 16 17  1  0
  9 18  2  0
  4 19  2  0
 19 20  1  0
 20 21  2  0
 21 22  1  0
 22 23  2  0
 23 24  1  0
 24 25  2  0
 25 26  1  0
 26 27  2  0
 27 28  1  0
 28 29  1  0
 28 30  2  0
 23 31  1  0
 31 32  2  0
 32  2  1  0
 18  5  1  0
 32 20  1  0
 17 12  1  0
 30 24  1  0
  3 33  1  0
  3 34  1  0
  6 35  1  0
  7 36  1  0
  8 37  1  0
 13 38  1  0
 13 39  1  0
 14 40  1  0
 14 41  1  0
 15 42  1  0
 16 43  1  0
 16 44  1  0
 17 45  1  0
 17 46  1  0
 18 47  1  0
 21 48  1  0
 22 49  1  0
 25 50  1  0
 26 51  1  0
 27 52  1  0
 30 53  1  0
 31 54  1  0
M  END
>  <smiles>  (16) 
O=C1CC(c2cccc(C(=O)N3CCNCC3)c2)=Nc2ccc(-c3cccc(F)c3)cc21

>  <score_type>  (16) 
oracle

>  <origin>  (16) 
autodockgpu

>  <m_score__min__energy>  (16) 
-7.9900000000000002

>  <m_primary>  (16) 
energy

>  <rmsd>  (16) 
12.14360904729897

>  <m_score__min__rmsd>  (16) 
12.14360904729897

>  <meeko>  (16) 
{"free_energy": -7.93, "intermolecular_energy": -8.82, "internal_energy": -0.97, "cluster_size": 35, "cluster_id": 1, "rank_in_cluster": 30}

>  <energy>  (16) 
-7.96

>  <cluster_rmsd>  (16) 
0.44

>  <cluster>  (16) 
1

$$$$

     RDKit          3D

 54 58  0  0  0  0  0  0  0  0999 V2000
  141.0960   79.8120  223.8940 O   0  0  0  0  0  0  0  0  0  0  0  0
  140.2550   79.1430  223.2410 C   0  0  0  0  0  0  0  0  0  0  0  0
  140.7620   78.1240  222.2980 C   0  0  0  0  0  0  0  0  0  0  0  0
  139.6770   77.3670  221.6190 C   0  0  0  0  0  0  0  0  0  0  0  0
  140.1170   76.2650  220.7410 C   0  0  0  0  0  0  0  0  0  0  0  0
  139.7540   76.2350  219.3980 C   0  0  0  0  0  0  0  0  0  0  0  0
  140.1780   75.2630  218.5330 C   0  0  0  0  0  0  0  0  0  0  0  0
  140.9990   74.2620  218.9770 C   0  0  0  0  0  0  0  0  0  0  0  0
  141.3580   74.3000  220.3210 C   0  0  0  0  0  0  0  0  0  0  0  0
  142.2800   73.2350  220.7880 C   0  0  0  0  0  0  0  0  0  0  0  0
  141.9330   72.3880  221.6220 O   0  0  0  0  0  0  0  0  0  0  0  0
  143.5840   73.2940  220.1800 N   0  0  0  0  0  0  0  0  0  0  0  0
  143.9240   74.3340  219.2160 C   0  0  0  0  0  0  0  0  0  0  0  0
  144.9670   73.6950  218.3100 C   0  0  0  0  0  0  0  0  0  0  0  0
  146.1710   73.3810  219.0620 N   0  0  0  0  0  0  0  0  0  0  0  0
  145.9570   72.5810  220.2200 C   0  0  0  0  0  0  0  0  0  0  0  0
  144.5280   72.2730  220.5660 C   0  0  0  0  0  0  0  0  0  0  0  0
  140.9480   75.2530  221.2000 C   0  0  0  0  0  0  0  0  0  0  0  0
  138.4190   77.5920  221.8080 N   0  0  0  0  0  0  0  0  0  0  0  0
  137.9190   78.5920  222.6990 C   0  0  0  0  0  0  0  0  0  0  0  0
  136.5870   78.8410  222.8990 C   0  0  0  0  0  0  0  0  0  0  0  0
  136.1650   79.8330  223.7910 C   0  0  0  0  0  0  0  0  0  0  0  0
  137.0720   80.5830  224.4870 C   0  0  0  0  0  0  0  0  0  0  0  0
  136.7490   81.6150  225.4590 C   0  0  0  0  0  0  0  0  0  0  0  0
  136.7990   82.9620  225.0690 C   0  0  0  0  0  0  0  0  0  0  0  0
  136.5340   83.9790  225.9570 C   0  0  0  0  0  0  0  0  0  0  0  0
  136.2100   83.6800  227.2570 C   0  0  0  0  0  0  0  0  0  0  0  0
  136.1520   82.3510  227.6630 C   0  0  0  0  0  0  0  0  0  0  0  0
  135.8260   82.0610  228.9630 F   0  0  0  0  0  0  0  0  0  0  0  0
  136.4220   81.3270  226.7650 C   0  0  0  0  0  0  0  0  0  0  0  0
  138.4080   80.3260  224.2750 C   0  0  0  0  0  0  0  0  0  0  0  0
  138.8280   79.3480  223.3950 C   0  0  0  0  0  0  0  0  0  0  0  0
  141.3700   78.6275  221.5320 H   0  0  0  0  0  0  0  0  0  0  0  0
  141.3510   77.4011  222.8815 H   0  0  0  0  0  0  0  0  0  0  0  0
  139.0963   77.0288  219.0141 H   0  0  0  0  0  0  0  0  0  0  0  0
  139.8589   75.2862  217.4806 H   0  0  0  0  0  0  0  0  0  0  0  0
  141.3569   73.4677  218.3055 H   0  0  0  0  0  0  0  0  0  0  0  0
  143.0371   74.6313  218.6371 H   0  0  0  0  0  0  0  0  0  0  0  0
  144.2986   75.2465  219.7029 H   0  0  0  0  0  0  0  0  0  0  0  0
  144.5559   72.7690  217.8817 H   0  0  0  0  0  0  0  0  0  0  0  0
  145.2230   74.4028  217.5078 H   0  0  0  0  0  0  0  0  0  0  0  0
  146.6800   74.2680  219.3290 H   0  0  0  0  0  0  0  0  0  0  0  0
  146.4775   71.6242  220.0663 H   0  0  0  0  0  0  0  0  0  0  0  0
  146.3385   73.1781  221.0614 H   0  0  0  0  0  0  0  0  0  0  0  0
  144.2467   71.3369  220.0614 H   0  0  0  0  0  0  0  0  0  0  0  0
  144.4805   72.2024  221.6627 H   0  0  0  0  0  0  0  0  0  0  0  0
  141.2681   75.2223  222.2519 H   0  0  0  0  0  0  0  0  0  0  0  0
  135.8376   78.2521  222.3499 H   0  0  0  0  0  0  0  0  0  0  0  0
  135.0891   80.0119  223.9342 H   0  0  0  0  0  0  0  0  0  0  0  0
  137.0561   83.2107  224.0288 H   0  0  0  0  0  0  0  0  0  0  0  0
  136.5815   85.0271  225.6266 H   0  0  0  0  0  0  0  0  0  0  0  0
  135.9975   84.4870  227.9736 H   0  0  0  0  0  0  0  0  0  0  0  0
  136.3744   80.2800  227.0988 H   0  0  0  0  0  0  0  0  0  0  0  0
  139.1601   80.9148  224.8206 H   0  0  0  0  0  0  0  0  0  0  0  0
  1  2  2  0
  2  3  1  0
  3  4  1  0
  4  5  1  0
  5  6  2  0
  6  7  1  0
  7  8  2  0
  8  9  1  0
  9 10  1  0
 10 11  2  0
 10 12  1  0
 12 13  1  0
 13 14  1  0
 14 15  1  0
 15 16  1  0
 16 17  1  0
  9 18  2  0
  4 19  2  0
 19 20  1  0
 20 21  2  0
 21 22  1  0
 22 23  2  0
 23 24  1  0
 24 25  2  0
 25 26  1  0
 26 27  2  0
 27 28  1  0
 28 29  1  0
 28 30  2  0
 23 31  1  0
 31 32  2  0
 32  2  1  0
 18  5  1  0
 32 20  1  0
 17 12  1  0
 30 24  1  0
  3 33  1  0
  3 34  1  0
  6 35  1  0
  7 36  1  0
  8 37  1  0
 13 38  1  0
 13 39  1  0
 14 40  1  0
 14 41  1  0
 15 42  1  0
 16 43  1  0
 16 44  1  0
 17 45  1  0
 17 46  1  0
 18 47  1  0
 21 48  1  0
 22 49  1  0
 25 50  1  0
 26 51  1  0
 27 52  1  0
 30 53  1  0
 31 54  1  0
M  END
>  <smiles>  (17) 
O=C1CC(c2cccc(C(=O)N3CCNCC3)c2)=Nc2ccc(-c3cccc(F)c3)cc21

>  <score_type>  (17) 
oracle

>  <origin>  (17) 
autodockgpu

>  <m_score__min__energy>  (17) 
-7.9900000000000002

>  <m_primary>  (17) 
energy

>  <rmsd>  (17) 
7.926592470165657

>  <m_score__min__rmsd>  (17) 
7.926592470165657

>  <meeko>  (17) 
{"free_energy": -7.86, "intermolecular_energy": -8.76, "internal_energy": -0.83, "cluster_size": 3, "cluster_id": 2, "rank_in_cluster": 2}

>  <energy>  (17) 
-7.96

>  <cluster_rmsd>  (17) 
0.23

>  <cluster>  (17) 
1

$$$$

     RDKit          3D

 54 58  0  0  0  0  0  0  0  0999 V2000
  141.9280   79.3760  222.9340 O   0  0  0  0  0  0  0  0  0  0  0  0
  140.6980   79.1170  222.9570 C   0  0  0  0  0  0  0  0  0  0  0  0
  139.7810   80.1530  223.4780 C   0  0  0  0  0  0  0  0  0  0  0  0
  138.3520   79.7520  223.4130 C   0  0  0  0  0  0  0  0  0  0  0  0
  137.3770   80.7830  223.8230 C   0  0  0  0  0  0  0  0  0  0  0  0
  136.4270   81.2620  222.9270 C   0  0  0  0  0  0  0  0  0  0  0  0
  135.4710   82.1780  223.2740 C   0  0  0  0  0  0  0  0  0  0  0  0
  135.4200   82.6640  224.5520 C   0  0  0  0  0  0  0  0  0  0  0  0
  136.3740   82.1800  225.4420 C   0  0  0  0  0  0  0  0  0  0  0  0
  136.2910   82.6790  226.8370 C   0  0  0  0  0  0  0  0  0  0  0  0
  136.9590   83.6450  227.2280 O   0  0  0  0  0  0  0  0  0  0  0  0
  135.3690   81.9380  227.6600 N   0  0  0  0  0  0  0  0  0  0  0  0
  134.6290   80.7990  227.1310 C   0  0  0  0  0  0  0  0  0  0  0  0
  133.3380   80.7700  227.9370 C   0  0  0  0  0  0  0  0  0  0  0  0
  133.6190   80.5010  229.3380 N   0  0  0  0  0  0  0  0  0  0  0  0
  134.5620   81.3840  229.9360 C   0  0  0  0  0  0  0  0  0  0  0  0
  135.2140   82.3830  229.0240 C   0  0  0  0  0  0  0  0  0  0  0  0
  137.3340   81.2710  225.1210 C   0  0  0  0  0  0  0  0  0  0  0  0
  137.9470   78.6050  222.9760 N   0  0  0  0  0  0  0  0  0  0  0  0
  138.8270   77.5870  222.4940 C   0  0  0  0  0  0  0  0  0  0  0  0
  138.4070   76.3670  222.0350 C   0  0  0  0  0  0  0  0  0  0  0  0
  139.3230   75.4150  221.5720 C   0  0  0  0  0  0  0  0  0  0  0  0
  140.6650   75.6780  221.5660 C   0  0  0  0  0  0  0  0  0  0  0  0
  141.7010   74.7810  221.0820 C   0  0  0  0  0  0  0  0  0  0  0  0
  142.8130   75.3170  220.4140 C   0  0  0  0  0  0  0  0  0  0  0  0
  143.8060   74.5100  219.9080 C   0  0  0  0  0  0  0  0  0  0  0  0
  143.7190   73.1490  220.0570 C   0  0  0  0  0  0  0  0  0  0  0  0
  142.6260   72.5970  220.7180 C   0  0  0  0  0  0  0  0  0  0  0  0
  142.5480   71.2360  220.8650 F   0  0  0  0  0  0  0  0  0  0  0  0
  141.6240   73.4140  221.2260 C   0  0  0  0  0  0  0  0  0  0  0  0
  141.0750   76.9070  222.0330 C   0  0  0  0  0  0  0  0  0  0  0  0
  140.1740   77.8480  222.4910 C   0  0  0  0  0  0  0  0  0  0  0  0
  140.0407   80.3546  224.5277 H   0  0  0  0  0  0  0  0  0  0  0  0
  139.9006   81.0451  222.8457 H   0  0  0  0  0  0  0  0  0  0  0  0
  136.4448   80.8877  221.8928 H   0  0  0  0  0  0  0  0  0  0  0  0
  134.7433   82.5236  222.5250 H   0  0  0  0  0  0  0  0  0  0  0  0
  134.6631   83.4002  224.8604 H   0  0  0  0  0  0  0  0  0  0  0  0
  134.4154   80.9382  226.0609 H   0  0  0  0  0  0  0  0  0  0  0  0
  135.1943   79.8592  227.2160 H   0  0  0  0  0  0  0  0  0  0  0  0
  132.8343   81.7440  227.8492 H   0  0  0  0  0  0  0  0  0  0  0  0
  132.6908   79.9720  227.5441 H   0  0  0  0  0  0  0  0  0  0  0  0
  133.9350   79.5000  229.4640 H   0  0  0  0  0  0  0  0  0  0  0  0
  134.0414   81.9433  230.7273 H   0  0  0  0  0  0  0  0  0  0  0  0
  135.3784   80.7398  230.2945 H   0  0  0  0  0  0  0  0  0  0  0  0
  134.6001   83.2958  229.0197 H   0  0  0  0  0  0  0  0  0  0  0  0
  136.2285   82.5479  229.4158 H   0  0  0  0  0  0  0  0  0  0  0  0
  138.0600   80.9305  225.8739 H   0  0  0  0  0  0  0  0  0  0  0  0
  137.3326   76.1313  222.0301 H   0  0  0  0  0  0  0  0  0  0  0  0
  138.9586   74.4429  221.2084 H   0  0  0  0  0  0  0  0  0  0  0  0
  142.8925   76.4073  220.2922 H   0  0  0  0  0  0  0  0  0  0  0  0
  144.6663   74.9544  219.3860 H   0  0  0  0  0  0  0  0  0  0  0  0
  144.5093   72.4974  219.6560 H   0  0  0  0  0  0  0  0  0  0  0  0
  140.7643   72.9663  221.7461 H   0  0  0  0  0  0  0  0  0  0  0  0
  142.1488   77.1454  222.0414 H   0  0  0  0  0  0  0  0  0  0  0  0
  1  2  2  0
  2  3  1  0
  3  4  1  0
  4  5  1  0
  5  6  2  0
  6  7  1  0
  7  8  2  0
  8  9  1  0
  9 10  1  0
 10 11  2  0
 10 12  1  0
 12 13  1  0
 13 14  1  0
 14 15  1  0
 15 16  1  0
 16 17  1  0
  9 18  2  0
  4 19  2  0
 19 20  1  0
 20 21  2  0
 21 22  1  0
 22 23  2  0
 23 24  1  0
 24 25  2  0
 25 26  1  0
 26 27  2  0
 27 28  1  0
 28 29  1  0
 28 30  2  0
 23 31  1  0
 31 32  2  0
 32  2  1  0
 18  5  1  0
 32 20  1  0
 17 12  1  0
 30 24  1  0
  3 33  1  0
  3 34  1  0
  6 35  1  0
  7 36  1  0
  8 37  1  0
 13 38  1  0
 13 39  1  0
 14 40  1  0
 14 41  1  0
 15 42  1  0
 16 43  1  0
 16 44  1  0
 17 45  1  0
 17 46  1  0
 18 47  1  0
 21 48  1  0
 22 49  1  0
 25 50  1  0
 26 51  1  0
 27 52  1  0
 30 53  1  0
 31 54  1  0
M  END
>  <smiles>  (18) 
O=C1CC(c2cccc(C(=O)N3CCNCC3)c2)=Nc2ccc(-c3cccc(F)c3)cc21

>  <score_type>  (18) 
oracle

>  <origin>  (18) 
autodockgpu

>  <m_score__min__energy>  (18) 
-7.9900000000000002

>  <m_primary>  (18) 
energy

>  <rmsd>  (18) 
11.83198378672725

>  <m_score__min__rmsd>  (18) 
11.83198378672725

>  <meeko>  (18) 
{"free_energy": -7.93, "intermolecular_energy": -8.83, "internal_energy": -1.01, "cluster_size": 35, "cluster_id": 1, "rank_in_cluster": 27}

>  <energy>  (18) 
-7.96

>  <cluster_rmsd>  (18) 
0.16

>  <cluster>  (18) 
1

$$$$

     RDKit          3D

 54 58  0  0  0  0  0  0  0  0999 V2000
  142.0410   79.1010  223.2270 O   0  0  0  0  0  0  0  0  0  0  0  0
  140.7910   78.9880  223.1590 C   0  0  0  0  0  0  0  0  0  0  0  0
  139.9660   80.1290  223.6120 C   0  0  0  0  0  0  0  0  0  0  0  0
  138.5080   79.8970  223.4430 C   0  0  0  0  0  0  0  0  0  0  0  0
  137.6330   81.0380  223.7810 C   0  0  0  0  0  0  0  0  0  0  0  0
  136.9060   81.6960  222.7940 C   0  0  0  0  0  0  0  0  0  0  0  0
  136.0440   82.7240  223.0650 C   0  0  0  0  0  0  0  0  0  0  0  0
  135.8670   83.1480  224.3540 C   0  0  0  0  0  0  0  0  0  0  0  0
  136.5980   82.4840  225.3350 C   0  0  0  0  0  0  0  0  0  0  0  0
  136.3730   82.9200  226.7350 C   0  0  0  0  0  0  0  0  0  0  0  0
  136.9560   83.8990  227.2180 O   0  0  0  0  0  0  0  0  0  0  0  0
  135.4250   82.1020  227.4480 N   0  0  0  0  0  0  0  0  0  0  0  0
  134.7900   80.9520  226.8140 C   0  0  0  0  0  0  0  0  0  0  0  0
  133.4400   80.8270  227.5050 C   0  0  0  0  0  0  0  0  0  0  0  0
  133.6160   80.5130  228.9140 N   0  0  0  0  0  0  0  0  0  0  0  0
  134.4600   81.4140  229.6240 C   0  0  0  0  0  0  0  0  0  0  0  0
  135.1340   82.4800  228.8090 C   0  0  0  0  0  0  0  0  0  0  0  0
  137.4610   81.4610  225.0900 C   0  0  0  0  0  0  0  0  0  0  0  0
  138.0040   78.8020  222.9750 N   0  0  0  0  0  0  0  0  0  0  0  0
  138.7920   77.6850  222.5580 C   0  0  0  0  0  0  0  0  0  0  0  0
  138.2660   76.5180  222.0680 C   0  0  0  0  0  0  0  0  0  0  0  0
  139.0960   75.4630  221.6730 C   0  0  0  0  0  0  0  0  0  0  0  0
  140.4560   75.5670  221.7650 C   0  0  0  0  0  0  0  0  0  0  0  0
  141.4120   74.5510  221.3570 C   0  0  0  0  0  0  0  0  0  0  0  0
  141.1040   73.1980  221.5650 C   0  0  0  0  0  0  0  0  0  0  0  0
  141.9880   72.1990  221.2250 C   0  0  0  0  0  0  0  0  0  0  0  0
  143.2000   72.5220  220.6690 C   0  0  0  0  0  0  0  0  0  0  0  0
  143.5240   73.8570  220.4520 C   0  0  0  0  0  0  0  0  0  0  0  0
  144.7360   74.1720  219.8940 F   0  0  0  0  0  0  0  0  0  0  0  0
  142.6310   74.8640  220.7970 C   0  0  0  0  0  0  0  0  0  0  0  0
  140.9720   76.7430  222.2630 C   0  0  0  0  0  0  0  0  0  0  0  0
  140.1570   77.7860  222.6540 C   0  0  0  0  0  0  0  0  0  0  0  0
  140.1709   80.3079  224.6778 H   0  0  0  0  0  0  0  0  0  0  0  0
  140.2347   80.9956  222.9901 H   0  0  0  0  0  0  0  0  0  0  0  0
  137.0295   81.3757  221.7490 H   0  0  0  0  0  0  0  0  0  0  0  0
  135.4931   83.2097  222.2461 H   0  0  0  0  0  0  0  0  0  0  0  0
  135.1817   83.9719  224.6024 H   0  0  0  0  0  0  0  0  0  0  0  0
  134.6593   81.1265  225.7358 H   0  0  0  0  0  0  0  0  0  0  0  0
  135.3935   80.0374  226.9107 H   0  0  0  0  0  0  0  0  0  0  0  0
  132.8960   81.7785  227.4114 H   0  0  0  0  0  0  0  0  0  0  0  0
  132.8702   80.0158  227.0283 H   0  0  0  0  0  0  0  0  0  0  0  0
  133.9710   79.5240  229.0290 H   0  0  0  0  0  0  0  0  0  0  0  0
  133.8475   81.9143  230.3885 H   0  0  0  0  0  0  0  0  0  0  0  0
  135.2752   80.7949  230.0268 H   0  0  0  0  0  0  0  0  0  0  0  0
  134.4768   83.3618  228.7870 H   0  0  0  0  0  0  0  0  0  0  0  0
  136.1028   82.6754  229.2919 H   0  0  0  0  0  0  0  0  0  0  0  0
  138.0103   80.9800  225.9127 H   0  0  0  0  0  0  0  0  0  0  0  0
  137.1746   76.4091  221.9840 H   0  0  0  0  0  0  0  0  0  0  0  0
  138.6480   74.5371  221.2831 H   0  0  0  0  0  0  0  0  0  0  0  0
  140.1344   72.9295  222.0097 H   0  0  0  0  0  0  0  0  0  0  0  0
  141.7236   71.1454  221.3985 H   0  0  0  0  0  0  0  0  0  0  0  0
  143.9119   71.7290  220.3962 H   0  0  0  0  0  0  0  0  0  0  0  0
  142.8988   75.9165  220.6221 H   0  0  0  0  0  0  0  0  0  0  0  0
  142.0628   76.8539  222.3514 H   0  0  0  0  0  0  0  0  0  0  0  0
  1  2  2  0
  2  3  1  0
  3  4  1  0
  4  5  1  0
  5  6  2  0
  6  7  1  0
  7  8  2  0
  8  9  1  0
  9 10  1  0
 10 11  2  0
 10 12  1  0
 12 13  1  0
 13 14  1  0
 14 15  1  0
 15 16  1  0
 16 17  1  0
  9 18  2  0
  4 19  2  0
 19 20  1  0
 20 21  2  0
 21 22  1  0
 22 23  2  0
 23 24  1  0
 24 25  2  0
 25 26  1  0
 26 27  2  0
 27 28  1  0
 28 29  1  0
 28 30  2  0
 23 31  1  0
 31 32  2  0
 32  2  1  0
 18  5  1  0
 32 20  1  0
 17 12  1  0
 30 24  1  0
  3 33  1  0
  3 34  1  0
  6 35  1  0
  7 36  1  0
  8 37  1  0
 13 38  1  0
 13 39  1  0
 14 40  1  0
 14 41  1  0
 15 42  1  0
 16 43  1  0
 16 44  1  0
 17 45  1  0
 17 46  1  0
 18 47  1  0
 21 48  1  0
 22 49  1  0
 25 50  1  0
 26 51  1  0
 27 52  1  0
 30 53  1  0
 31 54  1  0
M  END
>  <smiles>  (19) 
O=C1CC(c2cccc(C(=O)N3CCNCC3)c2)=Nc2ccc(-c3cccc(F)c3)cc21

>  <score_type>  (19) 
oracle

>  <origin>  (19) 
autodockgpu

>  <m_score__min__energy>  (19) 
-7.9900000000000002

>  <m_primary>  (19) 
energy

>  <rmsd>  (19) 
11.768015644628306

>  <m_score__min__rmsd>  (19) 
11.768015644628306

>  <meeko>  (19) 
{"free_energy": -7.98, "intermolecular_energy": -8.88, "internal_energy": -1.0, "cluster_size": 35, "cluster_id": 1, "rank_in_cluster": 7}

>  <energy>  (19) 
-7.96

>  <cluster_rmsd>  (19) 
0.22

>  <cluster>  (19) 
1

$$$$

     RDKit          3D

 54 58  0  0  0  0  0  0  0  0999 V2000
  141.3730   79.7080  223.7500 O   0  0  0  0  0  0  0  0  0  0  0  0
  140.5460   78.8620  223.3240 C   0  0  0  0  0  0  0  0  0  0  0  0
  141.0730   77.6130  222.7330 C   0  0  0  0  0  0  0  0  0  0  0  0
  140.0030   76.6730  222.3070 C   0  0  0  0  0  0  0  0  0  0  0  0
  140.4630   75.3640  221.8030 C   0  0  0  0  0  0  0  0  0  0  0  0
  141.7080   75.2310  221.1970 C   0  0  0  0  0  0  0  0  0  0  0  0
  142.2000   74.0310  220.7600 C   0  0  0  0  0  0  0  0  0  0  0  0
  141.4580   72.8910  220.9120 C   0  0  0  0  0  0  0  0  0  0  0  0
  140.2140   73.0330  221.5190 C   0  0  0  0  0  0  0  0  0  0  0  0
  139.4310   71.7880  221.7180 C   0  0  0  0  0  0  0  0  0  0  0  0
  138.7550   71.2880  220.8100 O   0  0  0  0  0  0  0  0  0  0  0  0
  139.5440   71.2420  223.0460 N   0  0  0  0  0  0  0  0  0  0  0  0
  140.3480   71.9000  224.0700 C   0  0  0  0  0  0  0  0  0  0  0  0
  140.8160   70.7710  224.9770 C   0  0  0  0  0  0  0  0  0  0  0  0
  139.6830   70.1470  225.6400 N   0  0  0  0  0  0  0  0  0  0  0  0
  138.6570   69.6920  224.7640 C   0  0  0  0  0  0  0  0  0  0  0  0
  138.8290   70.0160  223.3080 C   0  0  0  0  0  0  0  0  0  0  0  0
  139.7040   74.2140  221.9600 C   0  0  0  0  0  0  0  0  0  0  0  0
  138.7400   76.9280  222.4130 N   0  0  0  0  0  0  0  0  0  0  0  0
  138.2220   78.1420  222.9600 C   0  0  0  0  0  0  0  0  0  0  0  0
  136.8850   78.4220  223.0700 C   0  0  0  0  0  0  0  0  0  0  0  0
  136.4430   79.6310  223.6200 C   0  0  0  0  0  0  0  0  0  0  0  0
  137.3350   80.5670  224.0630 C   0  0  0  0  0  0  0  0  0  0  0  0
  136.9930   81.8390  224.6780 C   0  0  0  0  0  0  0  0  0  0  0  0
  136.9380   81.9300  226.0770 C   0  0  0  0  0  0  0  0  0  0  0  0
  136.5890   83.1020  226.7080 C   0  0  0  0  0  0  0  0  0  0  0  0
  136.2870   84.2140  225.9620 C   0  0  0  0  0  0  0  0  0  0  0  0
  136.3380   84.1450  224.5740 C   0  0  0  0  0  0  0  0  0  0  0  0
  136.0360   85.2610  223.8350 F   0  0  0  0  0  0  0  0  0  0  0  0
  136.6890   82.9610  223.9390 C   0  0  0  0  0  0  0  0  0  0  0  0
  138.6770   80.2750  223.9440 C   0  0  0  0  0  0  0  0  0  0  0  0
  139.1150   79.0840  223.4020 C   0  0  0  0  0  0  0  0  0  0  0  0
  141.6824   77.8713  221.8544 H   0  0  0  0  0  0  0  0  0  0  0  0
  141.6646   77.1065  223.5098 H   0  0  0  0  0  0  0  0  0  0  0  0
  142.3253   76.1315  221.0629 H   0  0  0  0  0  0  0  0  0  0  0  0
  143.1917   73.9827  220.2866 H   0  0  0  0  0  0  0  0  0  0  0  0
  141.8264   71.9121  220.5715 H   0  0  0  0  0  0  0  0  0  0  0  0
  141.2076   72.4153  223.6167 H   0  0  0  0  0  0  0  0  0  0  0  0
  139.7794   72.6659  224.6178 H   0  0  0  0  0  0  0  0  0  0  0  0
  141.3426   70.0168  224.3738 H   0  0  0  0  0  0  0  0  0  0  0  0
  141.4909   71.1850  225.7406 H   0  0  0  0  0  0  0  0  0  0  0  0
  139.2730   70.8020  226.3620 H   0  0  0  0  0  0  0  0  0  0  0  0
  138.5975   68.5977  224.8584 H   0  0  0  0  0  0  0  0  0  0  0  0
  137.7480   70.2267  225.0766 H   0  0  0  0  0  0  0  0  0  0  0  0
  139.3801   69.1896  222.8353 H   0  0  0  0  0  0  0  0  0  0  0  0
  137.8177   70.1508  222.8969 H   0  0  0  0  0  0  0  0  0  0  0  0
  138.7109   74.2562  222.4311 H   0  0  0  0  0  0  0  0  0  0  0  0
  136.1472   77.6848  222.7205 H   0  0  0  0  0  0  0  0  0  0  0  0
  135.3639   79.8303  223.6966 H   0  0  0  0  0  0  0  0  0  0  0  0
  137.1793   81.0444  226.6832 H   0  0  0  0  0  0  0  0  0  0  0  0
  136.5522   83.1476  227.8064 H   0  0  0  0  0  0  0  0  0  0  0  0
  136.0063   85.1542  226.4592 H   0  0  0  0  0  0  0  0  0  0  0  0
  136.7244   82.9189  222.8404 H   0  0  0  0  0  0  0  0  0  0  0  0
  139.4180   81.0106  224.2901 H   0  0  0  0  0  0  0  0  0  0  0  0
  1  2  2  0
  2  3  1  0
  3  4  1  0
  4  5  1  0
  5  6  2  0
  6  7  1  0
  7  8  2  0
  8  9  1  0
  9 10  1  0
 10 11  2  0
 10 12  1  0
 12 13  1  0
 13 14  1  0
 14 15  1  0
 15 16  1  0
 16 17  1  0
  9 18  2  0
  4 19  2  0
 19 20  1  0
 20 21  2  0
 21 22  1  0
 22 23  2  0
 23 24  1  0
 24 25  2  0
 25 26  1  0
 26 27  2  0
 27 28  1  0
 28 29  1  0
 28 30  2  0
 23 31  1  0
 31 32  2  0
 32  2  1  0
 18  5  1  0
 32 20  1  0
 17 12  1  0
 30 24  1  0
  3 33  1  0
  3 34  1  0
  6 35  1  0
  7 36  1  0
  8 37  1  0
 13 38  1  0
 13 39  1  0
 14 40  1  0
 14 41  1  0
 15 42  1  0
 16 43  1  0
 16 44  1  0
 17 45  1  0
 17 46  1  0
 18 47  1  0
 21 48  1  0
 22 49  1  0
 25 50  1  0
 26 51  1  0
 27 52  1  0
 30 53  1  0
 31 54  1  0
M  END
>  <smiles>  (20) 
O=C1CC(c2cccc(C(=O)N3CCNCC3)c2)=Nc2ccc(-c3cccc(F)c3)cc21

>  <score_type>  (20) 
oracle

>  <origin>  (20) 
autodockgpu

>  <m_score__min__energy>  (20) 
-7.9900000000000002

>  <m_primary>  (20) 
energy

>  <rmsd>  (20) 
7.574219189631889

>  <m_score__min__rmsd>  (20) 
7.574219189631889

>  <meeko>  (20) 
{"free_energy": -7.27, "intermolecular_energy": -8.17, "internal_energy": -1.0, "cluster_size": 1, "cluster_id": 6, "rank_in_cluster": 1}

>  <energy>  (20) 
-7.96

>  <cluster_rmsd>  (20) 
0.14

>  <cluster>  (20) 
1

$$$$

     RDKit          3D

 54 58  0  0  0  0  0  0  0  0999 V2000
  142.0870   79.2690  222.9670 O   0  0  0  0  0  0  0  0  0  0  0  0
  140.8350   79.1630  223.0130 C   0  0  0  0  0  0  0  0  0  0  0  0
  140.0560   80.3360  223.4660 C   0  0  0  0  0  0  0  0  0  0  0  0
  138.5880   80.1070  223.4350 C   0  0  0  0  0  0  0  0  0  0  0  0
  137.7500   81.2740  223.7780 C   0  0  0  0  0  0  0  0  0  0  0  0
  137.1250   82.0190  222.7830 C   0  0  0  0  0  0  0  0  0  0  0  0
  136.2980   83.0760  223.0530 C   0  0  0  0  0  0  0  0  0  0  0  0
  136.0540   83.4410  224.3490 C   0  0  0  0  0  0  0  0  0  0  0  0
  136.6840   82.6910  225.3370 C   0  0  0  0  0  0  0  0  0  0  0  0
  136.3860   83.0650  226.7420 C   0  0  0  0  0  0  0  0  0  0  0  0
  136.9180   84.0420  227.2860 O   0  0  0  0  0  0  0  0  0  0  0  0
  135.4330   82.1940  227.3810 N   0  0  0  0  0  0  0  0  0  0  0  0
  134.8620   81.0520  226.6780 C   0  0  0  0  0  0  0  0  0  0  0  0
  133.4870   80.8620  227.3030 C   0  0  0  0  0  0  0  0  0  0  0  0
  133.6120   80.4990  228.7060 N   0  0  0  0  0  0  0  0  0  0  0  0
  134.3970   81.3950  229.4850 C   0  0  0  0  0  0  0  0  0  0  0  0
  135.0730   82.5110  228.7410 C   0  0  0  0  0  0  0  0  0  0  0  0
  137.5110   81.6380  225.0940 C   0  0  0  0  0  0  0  0  0  0  0  0
  138.0430   78.9910  223.0790 N   0  0  0  0  0  0  0  0  0  0  0  0
  138.7880   77.8440  222.6640 C   0  0  0  0  0  0  0  0  0  0  0  0
  138.2180   76.6550  222.2910 C   0  0  0  0  0  0  0  0  0  0  0  0
  139.0070   75.5710  221.8910 C   0  0  0  0  0  0  0  0  0  0  0  0
  140.3700   75.6680  221.8610 C   0  0  0  0  0  0  0  0  0  0  0  0
  141.2850   74.6220  221.4340 C   0  0  0  0  0  0  0  0  0  0  0  0
  140.9540   73.2810  221.6820 C   0  0  0  0  0  0  0  0  0  0  0  0
  141.7990   72.2540  221.3270 C   0  0  0  0  0  0  0  0  0  0  0  0
  142.9940   72.5370  220.7140 C   0  0  0  0  0  0  0  0  0  0  0  0
  143.3390   73.8590  220.4570 C   0  0  0  0  0  0  0  0  0  0  0  0
  144.5340   74.1340  219.8420 F   0  0  0  0  0  0  0  0  0  0  0  0
  142.4860   74.8940  220.8180 C   0  0  0  0  0  0  0  0  0  0  0  0
  140.9310   76.8670  222.2410 C   0  0  0  0  0  0  0  0  0  0  0  0
  140.1560   77.9380  222.6370 C   0  0  0  0  0  0  0  0  0  0  0  0
  140.3514   80.5753  224.4982 H   0  0  0  0  0  0  0  0  0  0  0  0
  140.2742   81.1624  222.7736 H   0  0  0  0  0  0  0  0  0  0  0  0
  137.3034   81.7465  221.7323 H   0  0  0  0  0  0  0  0  0  0  0  0
  135.8294   83.6322  222.2277 H   0  0  0  0  0  0  0  0  0  0  0  0
  135.3932   84.2847  224.5971 H   0  0  0  0  0  0  0  0  0  0  0  0
  134.7733   81.2635  225.6022 H   0  0  0  0  0  0  0  0  0  0  0  0
  135.4882   80.1521  226.7680 H   0  0  0  0  0  0  0  0  0  0  0  0
  132.9190   81.8004  227.2209 H   0  0  0  0  0  0  0  0  0  0  0  0
  132.9626   80.0542  226.7714 H   0  0  0  0  0  0  0  0  0  0  0  0
  133.9910   79.5170  228.7990 H   0  0  0  0  0  0  0  0  0  0  0  0
  133.7376   81.8476  230.2403 H   0  0  0  0  0  0  0  0  0  0  0  0
  135.2126   80.7841  229.8993 H   0  0  0  0  0  0  0  0  0  0  0  0
  134.3911   83.3740  228.7232 H   0  0  0  0  0  0  0  0  0  0  0  0
  136.0138   82.7155  229.2730 H   0  0  0  0  0  0  0  0  0  0  0  0
  137.9794   81.0879  225.9234 H   0  0  0  0  0  0  0  0  0  0  0  0
  137.1230   76.5512  222.3063 H   0  0  0  0  0  0  0  0  0  0  0  0
  138.5237   74.6277  221.5966 H   0  0  0  0  0  0  0  0  0  0  0  0
  139.9974   73.0452  222.1713 H   0  0  0  0  0  0  0  0  0  0  0  0
  141.5177   71.2109  221.5337 H   0  0  0  0  0  0  0  0  0  0  0  0
  143.6751   71.7221  220.4276 H   0  0  0  0  0  0  0  0  0  0  0  0
  142.7713   75.9360  220.6108 H   0  0  0  0  0  0  0  0  0  0  0  0
  142.0257   76.9738  222.2285 H   0  0  0  0  0  0  0  0  0  0  0  0
  1  2  2  0
  2  3  1  0
  3  4  1  0
  4  5  1  0
  5  6  2  0
  6  7  1  0
  7  8  2  0
  8  9  1  0
  9 10  1  0
 10 11  2  0
 10 12  1  0
 12 13  1  0
 13 14  1  0
 14 15  1  0
 15 16  1  0
 16 17  1  0
  9 18  2  0
  4 19  2  0
 19 20  1  0
 20 21  2  0
 21 22  1  0
 22 23  2  0
 23 24  1  0
 24 25  2  0
 25 26  1  0
 26 27  2  0
 27 28  1  0
 28 29  1  0
 28 30  2  0
 23 31  1  0
 31 32  2  0
 32  2  1  0
 18  5  1  0
 32 20  1  0
 17 12  1  0
 30 24  1  0
  3 33  1  0
  3 34  1  0
  6 35  1  0
  7 36  1  0
  8 37  1  0
 13 38  1  0
 13 39  1  0
 14 40  1  0
 14 41  1  0
 15 42  1  0
 16 43  1  0
 16 44  1  0
 17 45  1  0
 17 46  1  0
 18 47  1  0
 21 48  1  0
 22 49  1  0
 25 50  1  0
 26 51  1  0
 27 52  1  0
 30 53  1  0
 31 54  1  0
M  END
>  <smiles>  (21) 
O=C1CC(c2cccc(C(=O)N3CCNCC3)c2)=Nc2ccc(-c3cccc(F)c3)cc21

>  <score_type>  (21) 
oracle

>  <origin>  (21) 
autodockgpu

>  <m_score__min__energy>  (21) 
-7.9900000000000002

>  <m_primary>  (21) 
energy

>  <rmsd>  (21) 
11.832470548287958

>  <m_score__min__rmsd>  (21) 
11.832470548287958

>  <meeko>  (21) 
{"free_energy": -7.97, "intermolecular_energy": -8.87, "internal_energy": -0.98, "cluster_size": 35, "cluster_id": 1, "rank_in_cluster": 10}

>  <energy>  (21) 
-7.95

>  <cluster_rmsd>  (21) 
0.93

>  <cluster>  (21) 
1

$$$$

     RDKit          3D

 54 58  0  0  0  0  0  0  0  0999 V2000
  142.0430   79.2130  223.0420 O   0  0  0  0  0  0  0  0  0  0  0  0
  140.7920   79.0870  223.0500 C   0  0  0  0  0  0  0  0  0  0  0  0
  139.9820   80.2370  223.5060 C   0  0  0  0  0  0  0  0  0  0  0  0
  138.5190   79.9860  223.4290 C   0  0  0  0  0  0  0  0  0  0  0  0
  137.6530   81.1310  223.7730 C   0  0  0  0  0  0  0  0  0  0  0  0
  136.9470   81.8120  222.7860 C   0  0  0  0  0  0  0  0  0  0  0  0
  136.0920   82.8460  223.0610 C   0  0  0  0  0  0  0  0  0  0  0  0
  135.9020   83.2520  224.3540 C   0  0  0  0  0  0  0  0  0  0  0  0
  136.6120   82.5650  225.3340 C   0  0  0  0  0  0  0  0  0  0  0  0
  136.3720   82.9820  226.7380 C   0  0  0  0  0  0  0  0  0  0  0  0
  136.9430   83.9610  227.2370 O   0  0  0  0  0  0  0  0  0  0  0  0
  135.4260   82.1470  227.4330 N   0  0  0  0  0  0  0  0  0  0  0  0
  134.8070   80.9990  226.7810 C   0  0  0  0  0  0  0  0  0  0  0  0
  133.4520   80.8540  227.4600 C   0  0  0  0  0  0  0  0  0  0  0  0
  133.6200   80.5250  228.8660 N   0  0  0  0  0  0  0  0  0  0  0  0
  134.4500   81.4240  229.5930 C   0  0  0  0  0  0  0  0  0  0  0  0
  135.1210   82.5070  228.7970 C   0  0  0  0  0  0  0  0  0  0  0  0
  137.4670   81.5370  225.0860 C   0  0  0  0  0  0  0  0  0  0  0  0
  138.0020   78.8690  223.0330 N   0  0  0  0  0  0  0  0  0  0  0  0
  138.7770   77.7430  222.6150 C   0  0  0  0  0  0  0  0  0  0  0  0
  138.2360   76.5540  222.2010 C   0  0  0  0  0  0  0  0  0  0  0  0
  139.0540   75.4910  221.7990 C   0  0  0  0  0  0  0  0  0  0  0  0
  140.4160   75.6110  221.8100 C   0  0  0  0  0  0  0  0  0  0  0  0
  141.3590   74.5890  221.3870 C   0  0  0  0  0  0  0  0  0  0  0  0
  141.0440   73.2380  221.5980 C   0  0  0  0  0  0  0  0  0  0  0  0
  141.9150   72.2320  221.2450 C   0  0  0  0  0  0  0  0  0  0  0  0
  143.1210   72.5470  220.6710 C   0  0  0  0  0  0  0  0  0  0  0  0
  143.4510   73.8800  220.4510 C   0  0  0  0  0  0  0  0  0  0  0  0
  144.6580   74.1870  219.8750 F   0  0  0  0  0  0  0  0  0  0  0  0
  142.5720   74.8930  220.8100 C   0  0  0  0  0  0  0  0  0  0  0  0
  140.9470   76.8100  222.2320 C   0  0  0  0  0  0  0  0  0  0  0  0
  140.1430   77.8600  222.6290 C   0  0  0  0  0  0  0  0  0  0  0  0
  140.2449   80.4581  224.5510 H   0  0  0  0  0  0  0  0  0  0  0  0
  140.2058   81.0817  222.8378 H   0  0  0  0  0  0  0  0  0  0  0  0
  137.0816   81.5062  221.7380 H   0  0  0  0  0  0  0  0  0  0  0  0
  135.5578   83.3503  222.2423 H   0  0  0  0  0  0  0  0  0  0  0  0
  135.2224   84.0795  224.6059 H   0  0  0  0  0  0  0  0  0  0  0  0
  134.6834   81.1846  225.7038 H   0  0  0  0  0  0  0  0  0  0  0  0
  135.4180   80.0888  226.8721 H   0  0  0  0  0  0  0  0  0  0  0  0
  132.9003   81.8017  227.3733 H   0  0  0  0  0  0  0  0  0  0  0  0
  132.8929   80.0437  226.9692 H   0  0  0  0  0  0  0  0  0  0  0  0
  133.9840   79.5380  228.9720 H   0  0  0  0  0  0  0  0  0  0  0  0
  133.8272   81.9090  230.3591 H   0  0  0  0  0  0  0  0  0  0  0  0
  135.2678   80.8070  229.9936 H   0  0  0  0  0  0  0  0  0  0  0  0
  134.4561   83.3831  228.7804 H   0  0  0  0  0  0  0  0  0  0  0  0
  136.0838   82.7063  229.2902 H   0  0  0  0  0  0  0  0  0  0  0  0
  137.9996   81.0382  225.9091 H   0  0  0  0  0  0  0  0  0  0  0  0
  137.1428   76.4328  222.1842 H   0  0  0  0  0  0  0  0  0  0  0  0
  138.5949   74.5471  221.4700 H   0  0  0  0  0  0  0  0  0  0  0  0
  140.0787   72.9766  222.0561 H   0  0  0  0  0  0  0  0  0  0  0  0
  141.6454   71.1804  221.4222 H   0  0  0  0  0  0  0  0  0  0  0  0
  143.8230   71.7494  220.3864 H   0  0  0  0  0  0  0  0  0  0  0  0
  142.8458   75.9435  220.6327 H   0  0  0  0  0  0  0  0  0  0  0  0
  142.0398   76.9341  222.2532 H   0  0  0  0  0  0  0  0  0  0  0  0
  1  2  2  0
  2  3  1  0
  3  4  1  0
  4  5  1  0
  5  6  2  0
  6  7  1  0
  7  8  2  0
  8  9  1  0
  9 10  1  0
 10 11  2  0
 10 12  1  0
 12 13  1  0
 13 14  1  0
 14 15  1  0
 15 16  1  0
 16 17  1  0
  9 18  2  0
  4 19  2  0
 19 20  1  0
 20 21  2  0
 21 22  1  0
 22 23  2  0
 23 24  1  0
 24 25  2  0
 25 26  1  0
 26 27  2  0
 27 28  1  0
 28 29  1  0
 28 30  2  0
 23 31  1  0
 31 32  2  0
 32  2  1  0
 18  5  1  0
 32 20  1  0
 17 12  1  0
 30 24  1  0
  3 33  1  0
  3 34  1  0
  6 35  1  0
  7 36  1  0
  8 37  1  0
 13 38  1  0
 13 39  1  0
 14 40  1  0
 14 41  1  0
 15 42  1  0
 16 43  1  0
 16 44  1  0
 17 45  1  0
 17 46  1  0
 18 47  1  0
 21 48  1  0
 22 49  1  0
 25 50  1  0
 26 51  1  0
 27 52  1  0
 30 53  1  0
 31 54  1  0
M  END
>  <smiles>  (22) 
O=C1CC(c2cccc(C(=O)N3CCNCC3)c2)=Nc2ccc(-c3cccc(F)c3)cc21

>  <score_type>  (22) 
oracle

>  <origin>  (22) 
autodockgpu

>  <m_score__min__energy>  (22) 
-7.9900000000000002

>  <m_primary>  (22) 
energy

>  <rmsd>  (22) 
11.812878050785146

>  <m_score__min__rmsd>  (22) 
11.812878050785146

>  <meeko>  (22) 
{"free_energy": -7.99, "intermolecular_energy": -8.88, "internal_energy": -1.0, "cluster_size": 35, "cluster_id": 1, "rank_in_cluster": 2}

>  <energy>  (22) 
-7.95

>  <cluster_rmsd>  (22) 
0.15

>  <cluster>  (22) 
1

$$$$

     RDKit          3D

 54 58  0  0  0  0  0  0  0  0999 V2000
  141.9720   79.0850  223.2490 O   0  0  0  0  0  0  0  0  0  0  0  0
  140.7230   78.9620  223.1800 C   0  0  0  0  0  0  0  0  0  0  0  0
  139.8880   80.0920  223.6410 C   0  0  0  0  0  0  0  0  0  0  0  0
  138.4320   79.8490  223.4680 C   0  0  0  0  0  0  0  0  0  0  0  0
  137.5480   80.9800  223.8140 C   0  0  0  0  0  0  0  0  0  0  0  0
  136.7800   81.6090  222.8390 C   0  0  0  0  0  0  0  0  0  0  0  0
  135.9080   82.6260  223.1180 C   0  0  0  0  0  0  0  0  0  0  0  0
  135.7610   83.0680  224.4060 C   0  0  0  0  0  0  0  0  0  0  0  0
  136.5330   82.4330  225.3740 C   0  0  0  0  0  0  0  0  0  0  0  0
  136.3410   82.8880  226.7740 C   0  0  0  0  0  0  0  0  0  0  0  0
  136.9400   83.8710  227.2310 O   0  0  0  0  0  0  0  0  0  0  0  0
  135.4060   82.0840  227.5180 N   0  0  0  0  0  0  0  0  0  0  0  0
  134.7520   80.9290  226.9140 C   0  0  0  0  0  0  0  0  0  0  0  0
  133.4170   80.8200  227.6370 C   0  0  0  0  0  0  0  0  0  0  0  0
  133.6230   80.5230  229.0450 N   0  0  0  0  0  0  0  0  0  0  0  0
  134.4870   81.4290  229.7240 C   0  0  0  0  0  0  0  0  0  0  0  0
  135.1480   82.4820  228.8810 C   0  0  0  0  0  0  0  0  0  0  0  0
  137.4070   81.4220  225.1200 C   0  0  0  0  0  0  0  0  0  0  0  0
  137.9380   78.7530  222.9910 N   0  0  0  0  0  0  0  0  0  0  0  0
  138.7360   77.6460  222.5670 C   0  0  0  0  0  0  0  0  0  0  0  0
  138.2200   76.4790  222.0680 C   0  0  0  0  0  0  0  0  0  0  0  0
  139.0590   75.4330  221.6650 C   0  0  0  0  0  0  0  0  0  0  0  0
  140.4180   75.5480  221.7600 C   0  0  0  0  0  0  0  0  0  0  0  0
  141.3830   74.5440  221.3450 C   0  0  0  0  0  0  0  0  0  0  0  0
  141.0930   73.1870  221.5560 C   0  0  0  0  0  0  0  0  0  0  0  0
  141.9860   72.1980  221.2110 C   0  0  0  0  0  0  0  0  0  0  0  0
  143.1900   72.5360  220.6440 C   0  0  0  0  0  0  0  0  0  0  0  0
  143.4960   73.8750  220.4240 C   0  0  0  0  0  0  0  0  0  0  0  0
  144.7000   74.2040  219.8560 F   0  0  0  0  0  0  0  0  0  0  0  0
  142.5940   74.8710  220.7750 C   0  0  0  0  0  0  0  0  0  0  0  0
  140.9240   76.7250  222.2670 C   0  0  0  0  0  0  0  0  0  0  0  0
  140.0990   77.7580  222.6650 C   0  0  0  0  0  0  0  0  0  0  0  0
  140.0899   80.2639  224.7086 H   0  0  0  0  0  0  0  0  0  0  0  0
  140.1502   80.9659  223.0266 H   0  0  0  0  0  0  0  0  0  0  0  0
  136.8783   81.2733  221.7961 H   0  0  0  0  0  0  0  0  0  0  0  0
  135.3251   83.0885  222.3079 H   0  0  0  0  0  0  0  0  0  0  0  0
  135.0682   83.8831  224.6621 H   0  0  0  0  0  0  0  0  0  0  0  0
  134.5979   81.0897  225.8368 H   0  0  0  0  0  0  0  0  0  0  0  0
  135.3533   80.0128  227.0093 H   0  0  0  0  0  0  0  0  0  0  0  0
  132.8759   81.7731  227.5435 H   0  0  0  0  0  0  0  0  0  0  0  0
  132.8325   80.0059  227.1836 H   0  0  0  0  0  0  0  0  0  0  0  0
  133.9760   79.5340  229.1650 H   0  0  0  0  0  0  0  0  0  0  0  0
  133.8941   81.9418  230.4957 H   0  0  0  0  0  0  0  0  0  0  0  0
  135.3083   80.8108  230.1156 H   0  0  0  0  0  0  0  0  0  0  0  0
  134.4949   83.3670  228.8625 H   0  0  0  0  0  0  0  0  0  0  0  0
  136.1281   82.6795  229.3396 H   0  0  0  0  0  0  0  0  0  0  0  0
  137.9893   80.9651  225.9337 H   0  0  0  0  0  0  0  0  0  0  0  0
  137.1296   76.3620  221.9826 H   0  0  0  0  0  0  0  0  0  0  0  0
  138.6190   74.5068  221.2668 H   0  0  0  0  0  0  0  0  0  0  0  0
  140.1297   72.9074  222.0076 H   0  0  0  0  0  0  0  0  0  0  0  0
  141.7362   71.1416  221.3887 H   0  0  0  0  0  0  0  0  0  0  0  0
  143.9091   71.7517  220.3651 H   0  0  0  0  0  0  0  0  0  0  0  0
  142.8477   75.9264  220.5970 H   0  0  0  0  0  0  0  0  0  0  0  0
  142.0137   76.8448  222.3570 H   0  0  0  0  0  0  0  0  0  0  0  0
  1  2  2  0
  2  3  1  0
  3  4  1  0
  4  5  1  0
  5  6  2  0
  6  7  1  0
  7  8  2  0
  8  9  1  0
  9 10  1  0
 10 11  2  0
 10 12  1  0
 12 13  1  0
 13 14  1  0
 14 15  1  0
 15 16  1  0
 16 17  1  0
  9 18  2  0
  4 19  2  0
 19 20  1  0
 20 21  2  0
 21 22  1  0
 22 23  2  0
 23 24  1  0
 24 25  2  0
 25 26  1  0
 26 27  2  0
 27 28  1  0
 28 29  1  0
 28 30  2  0
 23 31  1  0
 31 32  2  0
 32  2  1  0
 18  5  1  0
 32 20  1  0
 17 12  1  0
 30 24  1  0
  3 33  1  0
  3 34  1  0
  6 35  1  0
  7 36  1  0
  8 37  1  0
 13 38  1  0
 13 39  1  0
 14 40  1  0
 14 41  1  0
 15 42  1  0
 16 43  1  0
 16 44  1  0
 17 45  1  0
 17 46  1  0
 18 47  1  0
 21 48  1  0
 22 49  1  0
 25 50  1  0
 26 51  1  0
 27 52  1  0
 30 53  1  0
 31 54  1  0
M  END
>  <smiles>  (23) 
O=C1CC(c2cccc(C(=O)N3CCNCC3)c2)=Nc2ccc(-c3cccc(F)c3)cc21

>  <score_type>  (23) 
oracle

>  <origin>  (23) 
autodockgpu

>  <m_score__min__energy>  (23) 
-7.9900000000000002

>  <m_primary>  (23) 
energy

>  <rmsd>  (23) 
11.783732934812985

>  <m_score__min__rmsd>  (23) 
11.783732934812985

>  <meeko>  (23) 
{"free_energy": -7.96, "intermolecular_energy": -8.86, "internal_energy": -1.0, "cluster_size": 35, "cluster_id": 1, "rank_in_cluster": 19}

>  <energy>  (23) 
-7.95

>  <cluster_rmsd>  (23) 
0.92

>  <cluster>  (23) 
1

$$$$

     RDKit          3D

 54 58  0  0  0  0  0  0  0  0999 V2000
  142.7970   75.2670  220.6160 O   0  0  0  0  0  0  0  0  0  0  0  0
  141.6960   74.9420  221.1290 C   0  0  0  0  0  0  0  0  0  0  0  0
  141.3440   73.5060  221.1630 C   0  0  0  0  0  0  0  0  0  0  0  0
  140.0440   73.2410  221.8330 C   0  0  0  0  0  0  0  0  0  0  0  0
  139.6830   71.8170  221.9920 C   0  0  0  0  0  0  0  0  0  0  0  0
  139.8700   70.9150  220.9500 C   0  0  0  0  0  0  0  0  0  0  0  0
  139.5990   69.5770  221.0660 C   0  0  0  0  0  0  0  0  0  0  0  0
  139.1230   69.0750  222.2460 C   0  0  0  0  0  0  0  0  0  0  0  0
  138.9380   69.9850  223.2820 C   0  0  0  0  0  0  0  0  0  0  0  0
  138.4590   69.4300  224.5720 C   0  0  0  0  0  0  0  0  0  0  0  0
  137.2810   69.0880  224.7410 O   0  0  0  0  0  0  0  0  0  0  0  0
  139.4880   69.3330  225.5760 N   0  0  0  0  0  0  0  0  0  0  0  0
  140.8520   69.7730  225.3060 C   0  0  0  0  0  0  0  0  0  0  0  0
  141.7230   68.8970  226.1970 C   0  0  0  0  0  0  0  0  0  0  0  0
  141.4430   69.1610  227.5990 N   0  0  0  0  0  0  0  0  0  0  0  0
  140.0730   69.0410  227.9660 C   0  0  0  0  0  0  0  0  0  0  0  0
  139.1030   68.7760  226.8500 C   0  0  0  0  0  0  0  0  0  0  0  0
  139.1980   71.3180  223.1910 C   0  0  0  0  0  0  0  0  0  0  0  0
  139.2800   74.1680  222.3110 N   0  0  0  0  0  0  0  0  0  0  0  0
  139.6000   75.5600  222.2590 C   0  0  0  0  0  0  0  0  0  0  0  0
  138.7930   76.5480  222.7580 C   0  0  0  0  0  0  0  0  0  0  0  0
  139.1680   77.8940  222.6790 C   0  0  0  0  0  0  0  0  0  0  0  0
  140.3520   78.2600  222.1010 C   0  0  0  0  0  0  0  0  0  0  0  0
  140.8570   79.6180  221.9910 C   0  0  0  0  0  0  0  0  0  0  0  0
  141.3730   80.2510  223.1320 C   0  0  0  0  0  0  0  0  0  0  0  0
  141.8350   81.5460  223.0900 C   0  0  0  0  0  0  0  0  0  0  0  0
  141.7970   82.2450  221.9090 C   0  0  0  0  0  0  0  0  0  0  0  0
  141.2910   81.6350  220.7650 C   0  0  0  0  0  0  0  0  0  0  0  0
  141.2580   82.3390  219.5890 F   0  0  0  0  0  0  0  0  0  0  0  0
  140.8240   80.3280  220.8110 C   0  0  0  0  0  0  0  0  0  0  0  0
  141.1530   77.2570  221.6010 C   0  0  0  0  0  0  0  0  0  0  0  0
  140.7850   75.9280  221.6760 C   0  0  0  0  0  0  0  0  0  0  0  0
  141.2873   73.1347  220.1291 H   0  0  0  0  0  0  0  0  0  0  0  0
  142.1235   72.9904  221.7431 H   0  0  0  0  0  0  0  0  0  0  0  0
  140.2524   71.2926  219.9902 H   0  0  0  0  0  0  0  0  0  0  0  0
  139.7643   68.9063  220.2099 H   0  0  0  0  0  0  0  0  0  0  0  0
  138.8978   68.0054  222.3696 H   0  0  0  0  0  0  0  0  0  0  0  0
  141.1058   69.6224  224.2463 H   0  0  0  0  0  0  0  0  0  0  0  0
  140.9923   70.8447  225.5103 H   0  0  0  0  0  0  0  0  0  0  0  0
  141.5152   67.8390  225.9791 H   0  0  0  0  0  0  0  0  0  0  0  0
  142.7803   69.1244  225.9960 H   0  0  0  0  0  0  0  0  0  0  0  0
  141.8050   70.1150  227.8730 H   0  0  0  0  0  0  0  0  0  0  0  0
  139.9905   68.2125  228.6848 H   0  0  0  0  0  0  0  0  0  0  0  0
  139.7917   70.0246  228.3701 H   0  0  0  0  0  0  0  0  0  0  0  0
  139.0040   67.6868  226.7326 H   0  0  0  0  0  0  0  0  0  0  0  0
  138.1599   69.2664  227.1330 H   0  0  0  0  0  0  0  0  0  0  0  0
  139.0271   71.9842  224.0494 H   0  0  0  0  0  0  0  0  0  0  0  0
  137.8355   76.2793  223.2280 H   0  0  0  0  0  0  0  0  0  0  0  0
  138.5014   78.6679  223.0873 H   0  0  0  0  0  0  0  0  0  0  0  0
  141.4089   79.6986  224.0826 H   0  0  0  0  0  0  0  0  0  0  0  0
  142.2334   82.0197  223.9993 H   0  0  0  0  0  0  0  0  0  0  0  0
  142.1643   83.2810  221.8672 H   0  0  0  0  0  0  0  0  0  0  0  0
  140.4256   79.8571  219.9002 H   0  0  0  0  0  0  0  0  0  0  0  0
  142.1110   77.5216  221.1296 H   0  0  0  0  0  0  0  0  0  0  0  0
  1  2  2  0
  2  3  1  0
  3  4  1  0
  4  5  1  0
  5  6  2  0
  6  7  1  0
  7  8  2  0
  8  9  1  0
  9 10  1  0
 10 11  2  0
 10 12  1  0
 12 13  1  0
 13 14  1  0
 14 15  1  0
 15 16  1  0
 16 17  1  0
  9 18  2  0
  4 19  2  0
 19 20  1  0
 20 21  2  0
 21 22  1  0
 22 23  2  0
 23 24  1  0
 24 25  2  0
 25 26  1  0
 26 27  2  0
 27 28  1  0
 28 29  1  0
 28 30  2  0
 23 31  1  0
 31 32  2  0
 32  2  1  0
 18  5  1  0
 32 20  1  0
 17 12  1  0
 30 24  1  0
  3 33  1  0
  3 34  1  0
  6 35  1  0
  7 36  1  0
  8 37  1  0
 13 38  1  0
 13 39  1  0
 14 40  1  0
 14 41  1  0
 15 42  1  0
 16 43  1  0
 16 44  1  0
 17 45  1  0
 17 46  1  0
 18 47  1  0
 21 48  1  0
 22 49  1  0
 25 50  1  0
 26 51  1  0
 27 52  1  0
 30 53  1  0
 31 54  1  0
M  END
>  <smiles>  (24) 
O=C1CC(c2cccc(C(=O)N3CCNCC3)c2)=Nc2ccc(-c3cccc(F)c3)cc21

>  <score_type>  (24) 
oracle

>  <origin>  (24) 
autodockgpu

>  <m_score__min__energy>  (24) 
-7.9900000000000002

>  <m_primary>  (24) 
energy

>  <rmsd>  (24) 
7.9293409935150425

>  <m_score__min__rmsd>  (24) 
7.9293409935150425

>  <meeko>  (24) 
{"free_energy": -7.71, "intermolecular_energy": -8.6, "internal_energy": -0.97, "cluster_size": 3, "cluster_id": 3, "rank_in_cluster": 3}

>  <energy>  (24) 
-7.95

>  <cluster_rmsd>  (24) 
0.91

>  <cluster>  (24) 
1

$$$$

     RDKit          3D

 54 58  0  0  0  0  0  0  0  0999 V2000
  142.0160   79.2220  222.9650 O   0  0  0  0  0  0  0  0  0  0  0  0
  140.7690   79.0660  223.0050 C   0  0  0  0  0  0  0  0  0  0  0  0
  139.9430   80.2020  223.4690 C   0  0  0  0  0  0  0  0  0  0  0  0
  138.4850   79.9160  223.4300 C   0  0  0  0  0  0  0  0  0  0  0  0
  137.6000   81.0450  223.7830 C   0  0  0  0  0  0  0  0  0  0  0  0
  136.8400   81.6850  222.8110 C   0  0  0  0  0  0  0  0  0  0  0  0
  135.9670   82.7010  223.0960 C   0  0  0  0  0  0  0  0  0  0  0  0
  135.8130   83.1290  224.3870 C   0  0  0  0  0  0  0  0  0  0  0  0
  136.5780   82.4820  225.3530 C   0  0  0  0  0  0  0  0  0  0  0  0
  136.3790   82.9220  226.7570 C   0  0  0  0  0  0  0  0  0  0  0  0
  136.9760   83.8980  227.2280 O   0  0  0  0  0  0  0  0  0  0  0  0
  135.4370   82.1120  227.4860 N   0  0  0  0  0  0  0  0  0  0  0  0
  134.7850   80.9650  226.8660 C   0  0  0  0  0  0  0  0  0  0  0  0
  133.4450   80.8500  227.5790 C   0  0  0  0  0  0  0  0  0  0  0  0
  133.6420   80.5370  228.9850 N   0  0  0  0  0  0  0  0  0  0  0  0
  134.5030   81.4340  229.6790 C   0  0  0  0  0  0  0  0  0  0  0  0
  135.1710   82.4950  228.8520 C   0  0  0  0  0  0  0  0  0  0  0  0
  137.4520   81.4720  225.0940 C   0  0  0  0  0  0  0  0  0  0  0  0
  137.9850   78.7830  223.0590 N   0  0  0  0  0  0  0  0  0  0  0  0
  138.7760   77.6720  222.6340 C   0  0  0  0  0  0  0  0  0  0  0  0
  138.2540   76.4650  222.2450 C   0  0  0  0  0  0  0  0  0  0  0  0
  139.0870   75.4180  221.8350 C   0  0  0  0  0  0  0  0  0  0  0  0
  140.4450   75.5690  221.8110 C   0  0  0  0  0  0  0  0  0  0  0  0
  141.4020   74.5650  221.3760 C   0  0  0  0  0  0  0  0  0  0  0  0
  141.1070   73.2070  221.5730 C   0  0  0  0  0  0  0  0  0  0  0  0
  141.9910   72.2180  221.2080 C   0  0  0  0  0  0  0  0  0  0  0  0
  143.1920   72.5560  220.6350 C   0  0  0  0  0  0  0  0  0  0  0  0
  143.5020   73.8960  220.4280 C   0  0  0  0  0  0  0  0  0  0  0  0
  144.7030   74.2250  219.8520 F   0  0  0  0  0  0  0  0  0  0  0  0
  142.6090   74.8920  220.7990 C   0  0  0  0  0  0  0  0  0  0  0  0
  140.9580   76.7850  222.2070 C   0  0  0  0  0  0  0  0  0  0  0  0
  140.1390   77.8200  222.6130 C   0  0  0  0  0  0  0  0  0  0  0  0
  140.2256   80.4403  224.5050 H   0  0  0  0  0  0  0  0  0  0  0  0
  140.1307   81.0445  222.7871 H   0  0  0  0  0  0  0  0  0  0  0  0
  136.9445   81.3606  221.7651 H   0  0  0  0  0  0  0  0  0  0  0  0
  135.3896   83.1731  222.2874 H   0  0  0  0  0  0  0  0  0  0  0  0
  135.1201   83.9426  224.6476 H   0  0  0  0  0  0  0  0  0  0  0  0
  134.6381   81.1374  225.7896 H   0  0  0  0  0  0  0  0  0  0  0  0
  135.3843   80.0469  226.9558 H   0  0  0  0  0  0  0  0  0  0  0  0
  132.9059   81.8049  227.4927 H   0  0  0  0  0  0  0  0  0  0  0  0
  132.8620   80.0421  227.1128 H   0  0  0  0  0  0  0  0  0  0  0  0
  133.9920   79.5470  229.0960 H   0  0  0  0  0  0  0  0  0  0  0  0
  133.9061   81.9394  230.4525 H   0  0  0  0  0  0  0  0  0  0  0  0
  135.3209   80.8102  230.0688 H   0  0  0  0  0  0  0  0  0  0  0  0
  134.5196   83.3813  228.8394 H   0  0  0  0  0  0  0  0  0  0  0  0
  136.1486   82.6854  229.3189 H   0  0  0  0  0  0  0  0  0  0  0  0
  138.0282   81.0047  225.9062 H   0  0  0  0  0  0  0  0  0  0  0  0
  137.1640   76.3176  222.2554 H   0  0  0  0  0  0  0  0  0  0  0  0
  138.6424   74.4599  221.5277 H   0  0  0  0  0  0  0  0  0  0  0  0
  140.1464   72.9269  222.0300 H   0  0  0  0  0  0  0  0  0  0  0  0
  141.7366   71.1609  221.3745 H   0  0  0  0  0  0  0  0  0  0  0  0
  143.9050   71.7715  220.3413 H   0  0  0  0  0  0  0  0  0  0  0  0
  142.8668   75.9481  220.6312 H   0  0  0  0  0  0  0  0  0  0  0  0
  142.0477   76.9351  222.1995 H   0  0  0  0  0  0  0  0  0  0  0  0
  1  2  2  0
  2  3  1  0
  3  4  1  0
  4  5  1  0
  5  6  2  0
  6  7  1  0
  7  8  2  0
  8  9  1  0
  9 10  1  0
 10 11  2  0
 10 12  1  0
 12 13  1  0
 13 14  1  0
 14 15  1  0
 15 16  1  0
 16 17  1  0
  9 18  2  0
  4 19  2  0
 19 20  1  0
 20 21  2  0
 21 22  1  0
 22 23  2  0
 23 24  1  0
 24 25  2  0
 25 26  1  0
 26 27  2  0
 27 28  1  0
 28 29  1  0
 28 30  2  0
 23 31  1  0
 31 32  2  0
 32  2  1  0
 18  5  1  0
 32 20  1  0
 17 12  1  0
 30 24  1  0
  3 33  1  0
  3 34  1  0
  6 35  1  0
  7 36  1  0
  8 37  1  0
 13 38  1  0
 13 39  1  0
 14 40  1  0
 14 41  1  0
 15 42  1  0
 16 43  1  0
 16 44  1  0
 17 45  1  0
 17 46  1  0
 18 47  1  0
 21 48  1  0
 22 49  1  0
 25 50  1  0
 26 51  1  0
 27 52  1  0
 30 53  1  0
 31 54  1  0
M  END
>  <smiles>  (25) 
O=C1CC(c2cccc(C(=O)N3CCNCC3)c2)=Nc2ccc(-c3cccc(F)c3)cc21

>  <score_type>  (25) 
oracle

>  <origin>  (25) 
autodockgpu

>  <m_score__min__energy>  (25) 
-7.9900000000000002

>  <m_primary>  (25) 
energy

>  <rmsd>  (25) 
11.811761001995501

>  <m_score__min__rmsd>  (25) 
11.811761001995501

>  <meeko>  (25) 
{"free_energy": -7.96, "intermolecular_energy": -8.86, "internal_energy": -1.0, "cluster_size": 35, "cluster_id": 1, "rank_in_cluster": 15}

>  <energy>  (25) 
-7.94

>  <cluster_rmsd>  (25) 
0.91

>  <cluster>  (25) 
1

$$$$

     RDKit          3D

 54 58  0  0  0  0  0  0  0  0999 V2000
  142.0210   79.0390  223.4760 O   0  0  0  0  0  0  0  0  0  0  0  0
  140.7760   78.9780  223.3130 C   0  0  0  0  0  0  0  0  0  0  0  0
  139.9600   80.1290  223.7590 C   0  0  0  0  0  0  0  0  0  0  0  0
  138.5120   79.9620  223.4740 C   0  0  0  0  0  0  0  0  0  0  0  0
  137.6560   81.1200  223.8030 C   0  0  0  0  0  0  0  0  0  0  0  0
  136.9730   81.8070  222.8050 C   0  0  0  0  0  0  0  0  0  0  0  0
  136.1280   82.8530  223.0650 C   0  0  0  0  0  0  0  0  0  0  0  0
  135.9240   83.2640  224.3540 C   0  0  0  0  0  0  0  0  0  0  0  0
  136.6120   82.5710  225.3460 C   0  0  0  0  0  0  0  0  0  0  0  0
  136.3570   82.9940  226.7450 C   0  0  0  0  0  0  0  0  0  0  0  0
  136.9200   83.9770  227.2440 O   0  0  0  0  0  0  0  0  0  0  0  0
  135.4080   82.1600  227.4360 N   0  0  0  0  0  0  0  0  0  0  0  0
  134.7980   81.0060  226.7840 C   0  0  0  0  0  0  0  0  0  0  0  0
  133.4380   80.8610  227.4520 C   0  0  0  0  0  0  0  0  0  0  0  0
  133.5940   80.5390  228.8610 N   0  0  0  0  0  0  0  0  0  0  0  0
  134.4150   81.4450  229.5910 C   0  0  0  0  0  0  0  0  0  0  0  0
  135.0890   82.5260  228.7950 C   0  0  0  0  0  0  0  0  0  0  0  0
  137.4570   81.5310  225.1120 C   0  0  0  0  0  0  0  0  0  0  0  0
  138.0060   78.9100  222.9180 N   0  0  0  0  0  0  0  0  0  0  0  0
  138.7820   77.7830  222.5070 C   0  0  0  0  0  0  0  0  0  0  0  0
  138.2520   76.6610  221.9230 C   0  0  0  0  0  0  0  0  0  0  0  0
  139.0710   75.5930  221.5390 C   0  0  0  0  0  0  0  0  0  0  0  0
  140.4230   75.6400  221.7350 C   0  0  0  0  0  0  0  0  0  0  0  0
  141.3710   74.6080  221.3480 C   0  0  0  0  0  0  0  0  0  0  0  0
  141.0450   73.2610  221.5710 C   0  0  0  0  0  0  0  0  0  0  0  0
  141.9180   72.2470  221.2530 C   0  0  0  0  0  0  0  0  0  0  0  0
  143.1390   72.5480  220.7020 C   0  0  0  0  0  0  0  0  0  0  0  0
  143.4810   73.8760  220.4710 C   0  0  0  0  0  0  0  0  0  0  0  0
  144.7020   74.1690  219.9190 F   0  0  0  0  0  0  0  0  0  0  0  0
  142.5980   74.8980  220.7950 C   0  0  0  0  0  0  0  0  0  0  0  0
  140.9430   76.7710  222.3240 C   0  0  0  0  0  0  0  0  0  0  0  0
  140.1380   77.8260  222.7060 C   0  0  0  0  0  0  0  0  0  0  0  0
  140.0913   80.2516  224.8442 H   0  0  0  0  0  0  0  0  0  0  0  0
  140.3046   81.0115  223.2001 H   0  0  0  0  0  0  0  0  0  0  0  0
  137.1180   81.4962  221.7598 H   0  0  0  0  0  0  0  0  0  0  0  0
  135.6132   83.3628  222.2373 H   0  0  0  0  0  0  0  0  0  0  0  0
  135.2504   84.0998  224.5942 H   0  0  0  0  0  0  0  0  0  0  0  0
  134.6833   81.1856  225.7048 H   0  0  0  0  0  0  0  0  0  0  0  0
  135.4108   80.0981  226.8848 H   0  0  0  0  0  0  0  0  0  0  0  0
  132.8850   81.8070  227.3560 H   0  0  0  0  0  0  0  0  0  0  0  0
  132.8854   80.0468  226.9603 H   0  0  0  0  0  0  0  0  0  0  0  0
  133.9600   79.5540  228.9750 H   0  0  0  0  0  0  0  0  0  0  0  0
  133.7840   81.9318  230.3492 H   0  0  0  0  0  0  0  0  0  0  0  0
  135.2313   80.8330  230.0021 H   0  0  0  0  0  0  0  0  0  0  0  0
  134.4208   83.3994  228.7675 H   0  0  0  0  0  0  0  0  0  0  0  0
  136.0465   82.7316  229.2959 H   0  0  0  0  0  0  0  0  0  0  0  0
  137.9713   81.0270  225.9435 H   0  0  0  0  0  0  0  0  0  0  0  0
  137.1668   76.5995  221.7538 H   0  0  0  0  0  0  0  0  0  0  0  0
  138.6207   74.7040  221.0733 H   0  0  0  0  0  0  0  0  0  0  0  0
  140.0682   73.0105  222.0105 H   0  0  0  0  0  0  0  0  0  0  0  0
  141.6392   71.1994  221.4393 H   0  0  0  0  0  0  0  0  0  0  0  0
  143.8430   71.7429  220.4446 H   0  0  0  0  0  0  0  0  0  0  0  0
  142.8806   75.9447  220.6088 H   0  0  0  0  0  0  0  0  0  0  0  0
  142.0278   76.8357  222.4946 H   0  0  0  0  0  0  0  0  0  0  0  0
  1  2  2  0
  2  3  1  0
  3  4  1  0
  4  5  1  0
  5  6  2  0
  6  7  1  0
  7  8  2  0
  8  9  1  0
  9 10  1  0
 10 11  2  0
 10 12  1  0
 12 13  1  0
 13 14  1  0
 14 15  1  0
 15 16  1  0
 16 17  1  0
  9 18  2  0
  4 19  2  0
 19 20  1  0
 20 21  2  0
 21 22  1  0
 22 23  2  0
 23 24  1  0
 24 25  2  0
 25 26  1  0
 26 27  2  0
 27 28  1  0
 28 29  1  0
 28 30  2  0
 23 31  1  0
 31 32  2  0
 32  2  1  0
 18  5  1  0
 32 20  1  0
 17 12  1  0
 30 24  1  0
  3 33  1  0
  3 34  1  0
  6 35  1  0
  7 36  1  0
  8 37  1  0
 13 38  1  0
 13 39  1  0
 14 40  1  0
 14 41  1  0
 15 42  1  0
 16 43  1  0
 16 44  1  0
 17 45  1  0
 17 46  1  0
 18 47  1  0
 21 48  1  0
 22 49  1  0
 25 50  1  0
 26 51  1  0
 27 52  1  0
 30 53  1  0
 31 54  1  0
M  END
>  <smiles>  (26) 
O=C1CC(c2cccc(C(=O)N3CCNCC3)c2)=Nc2ccc(-c3cccc(F)c3)cc21

>  <score_type>  (26) 
oracle

>  <origin>  (26) 
autodockgpu

>  <m_score__min__energy>  (26) 
-7.9900000000000002

>  <m_primary>  (26) 
energy

>  <rmsd>  (26) 
11.78664871460514

>  <m_score__min__rmsd>  (26) 
11.78664871460514

>  <meeko>  (26) 
{"free_energy": -7.96, "intermolecular_energy": -8.85, "internal_energy": -0.99, "cluster_size": 35, "cluster_id": 1, "rank_in_cluster": 20}

>  <energy>  (26) 
-7.94

>  <cluster_rmsd>  (26) 
0.13

>  <cluster>  (26) 
1

$$$$

     RDKit          3D

 54 58  0  0  0  0  0  0  0  0999 V2000
  142.9360   75.4520  220.3010 O   0  0  0  0  0  0  0  0  0  0  0  0
  141.8760   75.0680  220.8580 C   0  0  0  0  0  0  0  0  0  0  0  0
  141.5690   73.6210  220.8430 C   0  0  0  0  0  0  0  0  0  0  0  0
  140.3170   73.2830  221.5690 C   0  0  0  0  0  0  0  0  0  0  0  0
  140.0090   71.8430  221.6790 C   0  0  0  0  0  0  0  0  0  0  0  0
  140.3840   70.9560  220.6760 C   0  0  0  0  0  0  0  0  0  0  0  0
  140.1660   69.6060  220.7560 C   0  0  0  0  0  0  0  0  0  0  0  0
  139.5550   69.0750  221.8590 C   0  0  0  0  0  0  0  0  0  0  0  0
  139.1830   69.9710  222.8570 C   0  0  0  0  0  0  0  0  0  0  0  0
  138.5570   69.3860  224.0690 C   0  0  0  0  0  0  0  0  0  0  0  0
  137.4230   68.8900  224.0450 O   0  0  0  0  0  0  0  0  0  0  0  0
  139.3920   69.4570  225.2410 N   0  0  0  0  0  0  0  0  0  0  0  0
  140.7130   70.0740  225.1930 C   0  0  0  0  0  0  0  0  0  0  0  0
  141.5160   69.3490  226.2630 C   0  0  0  0  0  0  0  0  0  0  0  0
  140.9570   69.6060  227.5810 N   0  0  0  0  0  0  0  0  0  0  0  0
  139.5710   69.3070  227.7070 C   0  0  0  0  0  0  0  0  0  0  0  0
  138.8610   68.8840  226.4530 C   0  0  0  0  0  0  0  0  0  0  0  0
  139.3870   71.3150  222.8000 C   0  0  0  0  0  0  0  0  0  0  0  0
  139.5550   74.1620  222.1320 N   0  0  0  0  0  0  0  0  0  0  0  0
  139.8290   75.5640  222.1300 C   0  0  0  0  0  0  0  0  0  0  0  0
  139.0220   76.5030  222.7190 C   0  0  0  0  0  0  0  0  0  0  0  0
  139.3530   77.8620  222.6840 C   0  0  0  0  0  0  0  0  0  0  0  0
  140.4910   78.2920  222.0600 C   0  0  0  0  0  0  0  0  0  0  0  0
  140.9480   79.6700  221.9880 C   0  0  0  0  0  0  0  0  0  0  0  0
  141.4230   80.2950  223.1510 C   0  0  0  0  0  0  0  0  0  0  0  0
  141.8380   81.6070  223.1440 C   0  0  0  0  0  0  0  0  0  0  0  0
  141.7930   82.3290  221.9770 C   0  0  0  0  0  0  0  0  0  0  0  0
  141.3290   81.7270  220.8130 C   0  0  0  0  0  0  0  0  0  0  0  0
  141.2890   82.4550  219.6510 F   0  0  0  0  0  0  0  0  0  0  0  0
  140.9080   80.4040  220.8230 C   0  0  0  0  0  0  0  0  0  0  0  0
  141.2920   77.3400  221.4690 C   0  0  0  0  0  0  0  0  0  0  0  0
  140.9680   75.9980  221.5010 C   0  0  0  0  0  0  0  0  0  0  0  0
  141.4659   73.2958  219.7972 H   0  0  0  0  0  0  0  0  0  0  0  0
  142.3946   73.1053  221.3553 H   0  0  0  0  0  0  0  0  0  0  0  0
  140.8778   71.3562  219.7782 H   0  0  0  0  0  0  0  0  0  0  0  0
  140.4824   68.9484  219.9329 H   0  0  0  0  0  0  0  0  0  0  0  0
  139.3673   67.9951  221.9523 H   0  0  0  0  0  0  0  0  0  0  0  0
  141.1709   69.9341  224.2027 H   0  0  0  0  0  0  0  0  0  0  0  0
  140.6723   71.1595  225.3666 H   0  0  0  0  0  0  0  0  0  0  0  0
  141.4910   68.2675  226.0638 H   0  0  0  0  0  0  0  0  0  0  0  0
  142.5530   69.7151  226.2388 H   0  0  0  0  0  0  0  0  0  0  0  0
  141.1350   70.6080  227.8670 H   0  0  0  0  0  0  0  0  0  0  0  0
  139.4699   68.4926  228.4395 H   0  0  0  0  0  0  0  0  0  0  0  0
  139.0949   70.2522  228.0069 H   0  0  0  0  0  0  0  0  0  0  0  0
  138.9283   67.7890  226.3732 H   0  0  0  0  0  0  0  0  0  0  0  0
  137.8264   69.2469  226.5426 H   0  0  0  0  0  0  0  0  0  0  0  0
  139.0656   71.9680  223.6248 H   0  0  0  0  0  0  0  0  0  0  0  0
  138.1002   76.1830  223.2268 H   0  0  0  0  0  0  0  0  0  0  0  0
  138.6884   78.5946  223.1652 H   0  0  0  0  0  0  0  0  0  0  0  0
  141.4646   79.7231  224.0898 H   0  0  0  0  0  0  0  0  0  0  0  0
  142.2042   82.0754  224.0695 H   0  0  0  0  0  0  0  0  0  0  0  0
  142.1224   83.3784  221.9632 H   0  0  0  0  0  0  0  0  0  0  0  0
  140.5407   79.9396  219.8960 H   0  0  0  0  0  0  0  0  0  0  0  0
  142.2134   77.6568  220.9584 H   0  0  0  0  0  0  0  0  0  0  0  0
  1  2  2  0
  2  3  1  0
  3  4  1  0
  4  5  1  0
  5  6  2  0
  6  7  1  0
  7  8  2  0
  8  9  1  0
  9 10  1  0
 10 11  2  0
 10 12  1  0
 12 13  1  0
 13 14  1  0
 14 15  1  0
 15 16  1  0
 16 17  1  0
  9 18  2  0
  4 19  2  0
 19 20  1  0
 20 21  2  0
 21 22  1  0
 22 23  2  0
 23 24  1  0
 24 25  2  0
 25 26  1  0
 26 27  2  0
 27 28  1  0
 28 29  1  0
 28 30  2  0
 23 31  1  0
 31 32  2  0
 32  2  1  0
 18  5  1  0
 32 20  1  0
 17 12  1  0
 30 24  1  0
  3 33  1  0
  3 34  1  0
  6 35  1  0
  7 36  1  0
  8 37  1  0
 13 38  1  0
 13 39  1  0
 14 40  1  0
 14 41  1  0
 15 42  1  0
 16 43  1  0
 16 44  1  0
 17 45  1  0
 17 46  1  0
 18 47  1  0
 21 48  1  0
 22 49  1  0
 25 50  1  0
 26 51  1  0
 27 52  1  0
 30 53  1  0
 31 54  1  0
M  END
>  <smiles>  (27) 
O=C1CC(c2cccc(C(=O)N3CCNCC3)c2)=Nc2ccc(-c3cccc(F)c3)cc21

>  <score_type>  (27) 
oracle

>  <origin>  (27) 
autodockgpu

>  <m_score__min__energy>  (27) 
-7.9900000000000002

>  <m_primary>  (27) 
energy

>  <rmsd>  (27) 
7.813327543609207

>  <m_score__min__rmsd>  (27) 
7.813327543609207

>  <meeko>  (27) 
{"free_energy": -7.9, "intermolecular_energy": -8.79, "internal_energy": -0.91, "cluster_size": 3, "cluster_id": 3, "rank_in_cluster": 2}

>  <energy>  (27) 
-7.93

>  <cluster_rmsd>  (27) 
0.85

>  <cluster>  (27) 
1

$$$$

     RDKit          3D

 54 58  0  0  0  0  0  0  0  0999 V2000
  141.1120   80.0800  223.8470 O   0  0  0  0  0  0  0  0  0  0  0  0
  140.2780   79.3830  223.2160 C   0  0  0  0  0  0  0  0  0  0  0  0
  140.7940   78.3740  222.2660 C   0  0  0  0  0  0  0  0  0  0  0  0
  139.7180   77.5820  221.6150 C   0  0  0  0  0  0  0  0  0  0  0  0
  140.1720   76.4890  220.7320 C   0  0  0  0  0  0  0  0  0  0  0  0
  139.8760   76.5020  219.3730 C   0  0  0  0  0  0  0  0  0  0  0  0
  140.3180   75.5390  218.5050 C   0  0  0  0  0  0  0  0  0  0  0  0
  141.0870   74.5040  218.9640 C   0  0  0  0  0  0  0  0  0  0  0  0
  141.3770   74.4990  220.3250 C   0  0  0  0  0  0  0  0  0  0  0  0
  142.2440   73.3970  220.8110 C   0  0  0  0  0  0  0  0  0  0  0  0
  141.8530   72.5800  221.6550 O   0  0  0  0  0  0  0  0  0  0  0  0
  143.5520   73.3830  220.2070 N   0  0  0  0  0  0  0  0  0  0  0  0
  143.9450   74.3920  219.2310 C   0  0  0  0  0  0  0  0  0  0  0  0
  144.9590   73.6900  218.3380 C   0  0  0  0  0  0  0  0  0  0  0  0
  146.1430   73.3280  219.0990 N   0  0  0  0  0  0  0  0  0  0  0  0
  145.8860   72.5560  220.2670 C   0  0  0  0  0  0  0  0  0  0  0  0
  144.4430   72.3230  220.6110 C   0  0  0  0  0  0  0  0  0  0  0  0
  140.9490   75.4430  221.2060 C   0  0  0  0  0  0  0  0  0  0  0  0
  138.4580   77.7700  221.8310 N   0  0  0  0  0  0  0  0  0  0  0  0
  137.9490   78.7590  222.7280 C   0  0  0  0  0  0  0  0  0  0  0  0
  136.6140   78.9690  222.9570 C   0  0  0  0  0  0  0  0  0  0  0  0
  136.1820   79.9540  223.8530 C   0  0  0  0  0  0  0  0  0  0  0  0
  137.0810   80.7340  224.5260 C   0  0  0  0  0  0  0  0  0  0  0  0
  136.7490   81.7610  225.4990 C   0  0  0  0  0  0  0  0  0  0  0  0
  136.5100   81.3900  226.8310 C   0  0  0  0  0  0  0  0  0  0  0  0
  136.1620   82.3180  227.7860 C   0  0  0  0  0  0  0  0  0  0  0  0
  136.0460   83.6410  227.4380 C   0  0  0  0  0  0  0  0  0  0  0  0
  136.2810   84.0300  226.1230 C   0  0  0  0  0  0  0  0  0  0  0  0
  136.1640   85.3540  225.7840 F   0  0  0  0  0  0  0  0  0  0  0  0
  136.6300   83.0910  225.1620 C   0  0  0  0  0  0  0  0  0  0  0  0
  138.4190   80.5150  224.2850 C   0  0  0  0  0  0  0  0  0  0  0  0
  138.8490   79.5450  223.4000 C   0  0  0  0  0  0  0  0  0  0  0  0
  141.3697   78.8913  221.4843 H   0  0  0  0  0  0  0  0  0  0  0  0
  141.4168   77.6718  222.8396 H   0  0  0  0  0  0  0  0  0  0  0  0
  139.2593   77.3225  218.9776 H   0  0  0  0  0  0  0  0  0  0  0  0
  140.0548   75.5975  217.4386 H   0  0  0  0  0  0  0  0  0  0  0  0
  141.4570   73.7162  218.2913 H   0  0  0  0  0  0  0  0  0  0  0  0
  143.0756   74.7241  218.6446 H   0  0  0  0  0  0  0  0  0  0  0  0
  144.3615   75.2920  219.7069 H   0  0  0  0  0  0  0  0  0  0  0  0
  144.5045   72.7794  217.9206 H   0  0  0  0  0  0  0  0  0  0  0  0
  145.2523   74.3733  217.5274 H   0  0  0  0  0  0  0  0  0  0  0  0
  146.6950   74.1920  219.3550 H   0  0  0  0  0  0  0  0  0  0  0  0
  146.3598   71.5729  220.1290 H   0  0  0  0  0  0  0  0  0  0  0  0
  146.2931   73.1457  221.1016 H   0  0  0  0  0  0  0  0  0  0  0  0
  144.1181   71.3948  220.1182 H   0  0  0  0  0  0  0  0  0  0  0  0
  144.3881   72.2700  221.7083 H   0  0  0  0  0  0  0  0  0  0  0  0
  141.2137   75.3779  222.2717 H   0  0  0  0  0  0  0  0  0  0  0  0
  135.8706   78.3541  222.4286 H   0  0  0  0  0  0  0  0  0  0  0  0
  135.1046   80.1025  224.0179 H   0  0  0  0  0  0  0  0  0  0  0  0
  136.6030   80.3324  227.1187 H   0  0  0  0  0  0  0  0  0  0  0  0
  135.9777   82.0012  228.8231 H   0  0  0  0  0  0  0  0  0  0  0  0
  135.7687   84.3895  228.1949 H   0  0  0  0  0  0  0  0  0  0  0  0
  136.8125   83.4110  224.1255 H   0  0  0  0  0  0  0  0  0  0  0  0
  139.1652   81.1286  224.8110 H   0  0  0  0  0  0  0  0  0  0  0  0
  1  2  2  0
  2  3  1  0
  3  4  1  0
  4  5  1  0
  5  6  2  0
  6  7  1  0
  7  8  2  0
  8  9  1  0
  9 10  1  0
 10 11  2  0
 10 12  1  0
 12 13  1  0
 13 14  1  0
 14 15  1  0
 15 16  1  0
 16 17  1  0
  9 18  2  0
  4 19  2  0
 19 20  1  0
 20 21  2  0
 21 22  1  0
 22 23  2  0
 23 24  1  0
 24 25  2  0
 25 26  1  0
 26 27  2  0
 27 28  1  0
 28 29  1  0
 28 30  2  0
 23 31  1  0
 31 32  2  0
 32  2  1  0
 18  5  1  0
 32 20  1  0
 17 12  1  0
 30 24  1  0
  3 33  1  0
  3 34  1  0
  6 35  1  0
  7 36  1  0
  8 37  1  0
 13 38  1  0
 13 39  1  0
 14 40  1  0
 14 41  1  0
 15 42  1  0
 16 43  1  0
 16 44  1  0
 17 45  1  0
 17 46  1  0
 18 47  1  0
 21 48  1  0
 22 49  1  0
 25 50  1  0
 26 51  1  0
 27 52  1  0
 30 53  1  0
 31 54  1  0
M  END
>  <smiles>  (28) 
O=C1CC(c2cccc(C(=O)N3CCNCC3)c2)=Nc2ccc(-c3cccc(F)c3)cc21

>  <score_type>  (28) 
oracle

>  <origin>  (28) 
autodockgpu

>  <m_score__min__energy>  (28) 
-7.9900000000000002

>  <m_primary>  (28) 
energy

>  <rmsd>  (28) 
8.028048080573782

>  <m_score__min__rmsd>  (28) 
8.028048080573782

>  <meeko>  (28) 
{"free_energy": -7.91, "intermolecular_energy": -8.81, "internal_energy": -0.74, "cluster_size": 3, "cluster_id": 2, "rank_in_cluster": 1}

>  <energy>  (28) 
-7.93

>  <cluster_rmsd>  (28) 
0.85

>  <cluster>  (28) 
1

$$$$

     RDKit          3D

 54 58  0  0  0  0  0  0  0  0999 V2000
  142.0680   79.2500  222.9580 O   0  0  0  0  0  0  0  0  0  0  0  0
  140.8170   79.1320  223.0040 C   0  0  0  0  0  0  0  0  0  0  0  0
  140.0260   80.2960  223.4590 C   0  0  0  0  0  0  0  0  0  0  0  0
  138.5600   80.0530  223.4270 C   0  0  0  0  0  0  0  0  0  0  0  0
  137.7110   81.2110  223.7720 C   0  0  0  0  0  0  0  0  0  0  0  0
  137.0500   81.9290  222.7810 C   0  0  0  0  0  0  0  0  0  0  0  0
  136.2120   82.9770  223.0540 C   0  0  0  0  0  0  0  0  0  0  0  0
  135.9930   83.3590  224.3500 C   0  0  0  0  0  0  0  0  0  0  0  0
  136.6580   82.6350  225.3340 C   0  0  0  0  0  0  0  0  0  0  0  0
  136.3860   83.0260  226.7400 C   0  0  0  0  0  0  0  0  0  0  0  0
  136.9400   84.0000  227.2670 O   0  0  0  0  0  0  0  0  0  0  0  0
  135.4330   82.1730  227.4020 N   0  0  0  0  0  0  0  0  0  0  0  0
  134.8350   81.0320  226.7180 C   0  0  0  0  0  0  0  0  0  0  0  0
  133.4680   80.8670  227.3670 C   0  0  0  0  0  0  0  0  0  0  0  0
  133.6100   80.5150  228.7700 N   0  0  0  0  0  0  0  0  0  0  0  0
  134.4180   81.4080  229.5290 C   0  0  0  0  0  0  0  0  0  0  0  0
  135.0980   82.5080  228.7650 C   0  0  0  0  0  0  0  0  0  0  0  0
  137.4960   81.5920  225.0880 C   0  0  0  0  0  0  0  0  0  0  0  0
  138.0260   78.9320  223.0690 N   0  0  0  0  0  0  0  0  0  0  0  0
  138.7820   77.7930  222.6530 C   0  0  0  0  0  0  0  0  0  0  0  0
  138.2230   76.5990  222.2770 C   0  0  0  0  0  0  0  0  0  0  0  0
  139.0230   75.5240  221.8750 C   0  0  0  0  0  0  0  0  0  0  0  0
  140.3860   75.6340  221.8460 C   0  0  0  0  0  0  0  0  0  0  0  0
  141.3100   74.5980  221.4180 C   0  0  0  0  0  0  0  0  0  0  0  0
  140.9710   73.2510  221.6200 C   0  0  0  0  0  0  0  0  0  0  0  0
  141.8240   72.2330  221.2620 C   0  0  0  0  0  0  0  0  0  0  0  0
  143.0360   72.5290  220.6900 C   0  0  0  0  0  0  0  0  0  0  0  0
  143.3910   73.8570  220.4790 C   0  0  0  0  0  0  0  0  0  0  0  0
  144.6030   74.1450  219.9050 F   0  0  0  0  0  0  0  0  0  0  0  0
  142.5290   74.8830  220.8430 C   0  0  0  0  0  0  0  0  0  0  0  0
  140.9350   76.8380  222.2280 C   0  0  0  0  0  0  0  0  0  0  0  0
  140.1490   77.9010  222.6260 C   0  0  0  0  0  0  0  0  0  0  0  0
  140.3186   80.5360  224.4918 H   0  0  0  0  0  0  0  0  0  0  0  0
  140.2362   81.1257  222.7681 H   0  0  0  0  0  0  0  0  0  0  0  0
  137.2075   81.6421  221.7308 H   0  0  0  0  0  0  0  0  0  0  0  0
  135.7147   83.5120  222.2315 H   0  0  0  0  0  0  0  0  0  0  0  0
  135.3249   84.1962  224.6007 H   0  0  0  0  0  0  0  0  0  0  0  0
  134.7318   81.2351  225.6419 H   0  0  0  0  0  0  0  0  0  0  0  0
  135.4502   80.1243  226.8058 H   0  0  0  0  0  0  0  0  0  0  0  0
  132.9120   81.8126  227.2855 H   0  0  0  0  0  0  0  0  0  0  0  0
  132.9241   80.0618  226.8514 H   0  0  0  0  0  0  0  0  0  0  0  0
  133.9770   79.5290  228.8670 H   0  0  0  0  0  0  0  0  0  0  0  0
  133.7756   81.8764  230.2892 H   0  0  0  0  0  0  0  0  0  0  0  0
  135.2314   80.7902  229.9372 H   0  0  0  0  0  0  0  0  0  0  0  0
  134.4279   83.3802  228.7494 H   0  0  0  0  0  0  0  0  0  0  0  0
  136.0493   82.7047  229.2810 H   0  0  0  0  0  0  0  0  0  0  0  0
  137.9922   81.0625  225.9147 H   0  0  0  0  0  0  0  0  0  0  0  0
  137.1291   76.4845  222.2916 H   0  0  0  0  0  0  0  0  0  0  0  0
  138.5491   74.5768  221.5780 H   0  0  0  0  0  0  0  0  0  0  0  0
  140.0006   73.0037  222.0752 H   0  0  0  0  0  0  0  0  0  0  0  0
  141.5358   71.1854  221.4335 H   0  0  0  0  0  0  0  0  0  0  0  0
  143.7229   71.7202  220.4000 H   0  0  0  0  0  0  0  0  0  0  0  0
  142.8212   75.9295  220.6712 H   0  0  0  0  0  0  0  0  0  0  0  0
  142.0286   76.9558  222.2157 H   0  0  0  0  0  0  0  0  0  0  0  0
  1  2  2  0
  2  3  1  0
  3  4  1  0
  4  5  1  0
  5  6  2  0
  6  7  1  0
  7  8  2  0
  8  9  1  0
  9 10  1  0
 10 11  2  0
 10 12  1  0
 12 13  1  0
 13 14  1  0
 14 15  1  0
 15 16  1  0
 16 17  1  0
  9 18  2  0
  4 19  2  0
 19 20  1  0
 20 21  2  0
 21 22  1  0
 22 23  2  0
 23 24  1  0
 24 25  2  0
 25 26  1  0
 26 27  2  0
 27 28  1  0
 28 29  1  0
 28 30  2  0
 23 31  1  0
 31 32  2  0
 32  2  1  0
 18  5  1  0
 32 20  1  0
 17 12  1  0
 30 24  1  0
  3 33  1  0
  3 34  1  0
  6 35  1  0
  7 36  1  0
  8 37  1  0
 13 38  1  0
 13 39  1  0
 14 40  1  0
 14 41  1  0
 15 42  1  0
 16 43  1  0
 16 44  1  0
 17 45  1  0
 17 46  1  0
 18 47  1  0
 21 48  1  0
 22 49  1  0
 25 50  1  0
 26 51  1  0
 27 52  1  0
 30 53  1  0
 31 54  1  0
M  END
>  <smiles>  (29) 
O=C1CC(c2cccc(C(=O)N3CCNCC3)c2)=Nc2ccc(-c3cccc(F)c3)cc21

>  <score_type>  (29) 
oracle

>  <origin>  (29) 
autodockgpu

>  <m_score__min__energy>  (29) 
-7.9900000000000002

>  <m_primary>  (29) 
energy

>  <rmsd>  (29) 
11.824360361906761

>  <m_score__min__rmsd>  (29) 
11.824360361906761

>  <meeko>  (29) 
{"free_energy": -7.99, "intermolecular_energy": -8.88, "internal_energy": -0.99, "cluster_size": 35, "cluster_id": 1, "rank_in_cluster": 4}

>  <energy>  (29) 
-7.93

>  <cluster_rmsd>  (29) 
0.35

>  <cluster>  (29) 
1

$$$$

     RDKit          3D

 54 58  0  0  0  0  0  0  0  0999 V2000
  141.9160   79.4260  222.7540 O   0  0  0  0  0  0  0  0  0  0  0  0
  140.6950   79.1430  222.8530 C   0  0  0  0  0  0  0  0  0  0  0  0
  139.7820   80.1830  223.3730 C   0  0  0  0  0  0  0  0  0  0  0  0
  138.3600   79.7490  223.4010 C   0  0  0  0  0  0  0  0  0  0  0  0
  137.3840   80.7780  223.8130 C   0  0  0  0  0  0  0  0  0  0  0  0
  136.4280   81.2510  222.9210 C   0  0  0  0  0  0  0  0  0  0  0  0
  135.4700   82.1650  223.2700 C   0  0  0  0  0  0  0  0  0  0  0  0
  135.4240   82.6540  224.5480 C   0  0  0  0  0  0  0  0  0  0  0  0
  136.3840   82.1750  225.4340 C   0  0  0  0  0  0  0  0  0  0  0  0
  136.3060   82.6770  226.8280 C   0  0  0  0  0  0  0  0  0  0  0  0
  136.9750   83.6440  227.2140 O   0  0  0  0  0  0  0  0  0  0  0  0
  135.3890   81.9370  227.6560 N   0  0  0  0  0  0  0  0  0  0  0  0
  134.6470   80.7950  227.1330 C   0  0  0  0  0  0  0  0  0  0  0  0
  133.3590   80.7670  227.9440 C   0  0  0  0  0  0  0  0  0  0  0  0
  133.6460   80.5010  229.3440 N   0  0  0  0  0  0  0  0  0  0  0  0
  134.5910   81.3860  229.9370 C   0  0  0  0  0  0  0  0  0  0  0  0
  135.2390   82.3840  229.0200 C   0  0  0  0  0  0  0  0  0  0  0  0
  137.3460   81.2680  225.1100 C   0  0  0  0  0  0  0  0  0  0  0  0
  137.9610   78.5750  223.0370 N   0  0  0  0  0  0  0  0  0  0  0  0
  138.8390   77.5550  222.5580 C   0  0  0  0  0  0  0  0  0  0  0  0
  138.4240   76.3050  222.1770 C   0  0  0  0  0  0  0  0  0  0  0  0
  139.3380   75.3530  221.7110 C   0  0  0  0  0  0  0  0  0  0  0  0
  140.6710   75.6430  221.6230 C   0  0  0  0  0  0  0  0  0  0  0  0
  141.7020   74.7470  221.1270 C   0  0  0  0  0  0  0  0  0  0  0  0
  142.8220   75.2850  220.4760 C   0  0  0  0  0  0  0  0  0  0  0  0
  143.8110   74.4800  219.9600 C   0  0  0  0  0  0  0  0  0  0  0  0
  143.7110   73.1160  220.0820 C   0  0  0  0  0  0  0  0  0  0  0  0
  142.6100   72.5620  220.7260 C   0  0  0  0  0  0  0  0  0  0  0  0
  142.5180   71.1990  220.8460 F   0  0  0  0  0  0  0  0  0  0  0  0
  141.6120   73.3770  221.2440 C   0  0  0  0  0  0  0  0  0  0  0  0
  141.0760   76.9010  222.0120 C   0  0  0  0  0  0  0  0  0  0  0  0
  140.1770   77.8430  222.4730 C   0  0  0  0  0  0  0  0  0  0  0  0
  140.0902   80.4392  224.3974 H   0  0  0  0  0  0  0  0  0  0  0  0
  139.8483   81.0468  222.6951 H   0  0  0  0  0  0  0  0  0  0  0  0
  136.4419   80.8737  221.8878 H   0  0  0  0  0  0  0  0  0  0  0  0
  134.7375   82.5063  222.5237 H   0  0  0  0  0  0  0  0  0  0  0  0
  134.6663   83.3885  224.8587 H   0  0  0  0  0  0  0  0  0  0  0  0
  134.4291   80.9309  226.0634 H   0  0  0  0  0  0  0  0  0  0  0  0
  135.2134   79.8559  227.2188 H   0  0  0  0  0  0  0  0  0  0  0  0
  132.8545   81.7405  227.8563 H   0  0  0  0  0  0  0  0  0  0  0  0
  132.7104   79.9681  227.5552 H   0  0  0  0  0  0  0  0  0  0  0  0
  133.9640   79.5010  229.4710 H   0  0  0  0  0  0  0  0  0  0  0  0
  134.0731   81.9465  230.7292 H   0  0  0  0  0  0  0  0  0  0  0  0
  135.4092   80.7431  230.2938 H   0  0  0  0  0  0  0  0  0  0  0  0
  134.6245   83.2964  229.0165 H   0  0  0  0  0  0  0  0  0  0  0  0
  136.2551   82.5499  229.4075 H   0  0  0  0  0  0  0  0  0  0  0  0
  138.0768   80.9312  225.8600 H   0  0  0  0  0  0  0  0  0  0  0  0
  137.3566   76.0465  222.2385 H   0  0  0  0  0  0  0  0  0  0  0  0
  138.9787   74.3575  221.4114 H   0  0  0  0  0  0  0  0  0  0  0  0
  142.9116   76.3767  220.3757 H   0  0  0  0  0  0  0  0  0  0  0  0
  144.6782   74.9271  219.4519 H   0  0  0  0  0  0  0  0  0  0  0  0
  144.4975   72.4650  219.6725 H   0  0  0  0  0  0  0  0  0  0  0  0
  140.7454   72.9267  221.7502 H   0  0  0  0  0  0  0  0  0  0  0  0
  142.1430   77.1621  221.9540 H   0  0  0  0  0  0  0  0  0  0  0  0
  1  2  2  0
  2  3  1  0
  3  4  1  0
  4  5  1  0
  5  6  2  0
  6  7  1  0
  7  8  2  0
  8  9  1  0
  9 10  1  0
 10 11  2  0
 10 12  1  0
 12 13  1  0
 13 14  1  0
 14 15  1  0
 15 16  1  0
 16 17  1  0
  9 18  2  0
  4 19  2  0
 19 20  1  0
 20 21  2  0
 21 22  1  0
 22 23  2  0
 23 24  1  0
 24 25  2  0
 25 26  1  0
 26 27  2  0
 27 28  1  0
 28 29  1  0
 28 30  2  0
 23 31  1  0
 31 32  2  0
 32  2  1  0
 18  5  1  0
 32 20  1  0
 17 12  1  0
 30 24  1  0
  3 33  1  0
  3 34  1  0
  6 35  1  0
  7 36  1  0
  8 37  1  0
 13 38  1  0
 13 39  1  0
 14 40  1  0
 14 41  1  0
 15 42  1  0
 16 43  1  0
 16 44  1  0
 17 45  1  0
 17 46  1  0
 18 47  1  0
 21 48  1  0
 22 49  1  0
 25 50  1  0
 26 51  1  0
 27 52  1  0
 30 53  1  0
 31 54  1  0
M  END
>  <smiles>  (30) 
O=C1CC(c2cccc(C(=O)N3CCNCC3)c2)=Nc2ccc(-c3cccc(F)c3)cc21

>  <score_type>  (30) 
oracle

>  <origin>  (30) 
autodockgpu

>  <m_score__min__energy>  (30) 
-7.9900000000000002

>  <m_primary>  (30) 
energy

>  <rmsd>  (30) 
11.836433580371875

>  <m_score__min__rmsd>  (30) 
11.836433580371875

>  <meeko>  (30) 
{"free_energy": -7.91, "intermolecular_energy": -8.81, "internal_energy": -1.01, "cluster_size": 35, "cluster_id": 1, "rank_in_cluster": 32}

>  <energy>  (30) 
-7.93

>  <cluster_rmsd>  (30) 
0.93

>  <cluster>  (30) 
1

$$$$

     RDKit          3D

 54 58  0  0  0  0  0  0  0  0999 V2000
  142.9640   75.4830  220.3070 O   0  0  0  0  0  0  0  0  0  0  0  0
  141.9030   75.1000  220.8630 C   0  0  0  0  0  0  0  0  0  0  0  0
  141.5950   73.6540  220.8500 C   0  0  0  0  0  0  0  0  0  0  0  0
  140.3420   73.3180  221.5750 C   0  0  0  0  0  0  0  0  0  0  0  0
  140.0310   71.8790  221.6860 C   0  0  0  0  0  0  0  0  0  0  0  0
  140.4050   70.9900  220.6840 C   0  0  0  0  0  0  0  0  0  0  0  0
  140.1860   69.6410  220.7640 C   0  0  0  0  0  0  0  0  0  0  0  0
  139.5740   69.1110  221.8680 C   0  0  0  0  0  0  0  0  0  0  0  0
  139.2040   70.0080  222.8660 C   0  0  0  0  0  0  0  0  0  0  0  0
  138.5770   69.4250  224.0780 C   0  0  0  0  0  0  0  0  0  0  0  0
  137.4540   68.9050  224.0490 O   0  0  0  0  0  0  0  0  0  0  0  0
  139.3990   69.5270  225.2570 N   0  0  0  0  0  0  0  0  0  0  0  0
  140.7070   70.1700  225.2150 C   0  0  0  0  0  0  0  0  0  0  0  0
  141.5140   69.4740  226.3030 C   0  0  0  0  0  0  0  0  0  0  0  0
  140.9360   69.7360  227.6110 N   0  0  0  0  0  0  0  0  0  0  0  0
  139.5550   69.4100  227.7270 C   0  0  0  0  0  0  0  0  0  0  0  0
  138.8660   68.9580  226.4710 C   0  0  0  0  0  0  0  0  0  0  0  0
  139.4090   71.3520  222.8080 C   0  0  0  0  0  0  0  0  0  0  0  0
  139.5790   74.1980  222.1360 N   0  0  0  0  0  0  0  0  0  0  0  0
  139.8550   75.6000  222.1320 C   0  0  0  0  0  0  0  0  0  0  0  0
  139.0490   76.5400  222.7190 C   0  0  0  0  0  0  0  0  0  0  0  0
  139.3800   77.8990  222.6830 C   0  0  0  0  0  0  0  0  0  0  0  0
  140.5200   78.3280  222.0600 C   0  0  0  0  0  0  0  0  0  0  0  0
  140.9780   79.7050  221.9870 C   0  0  0  0  0  0  0  0  0  0  0  0
  141.4390   80.3360  223.1520 C   0  0  0  0  0  0  0  0  0  0  0  0
  141.8550   81.6470  223.1440 C   0  0  0  0  0  0  0  0  0  0  0  0
  141.8250   82.3640  221.9740 C   0  0  0  0  0  0  0  0  0  0  0  0
  141.3750   81.7560  220.8070 C   0  0  0  0  0  0  0  0  0  0  0  0
  141.3490   82.4780  219.6410 F   0  0  0  0  0  0  0  0  0  0  0  0
  140.9540   80.4330  220.8180 C   0  0  0  0  0  0  0  0  0  0  0  0
  141.3200   77.3740  221.4710 C   0  0  0  0  0  0  0  0  0  0  0  0
  140.9950   76.0320  221.5040 C   0  0  0  0  0  0  0  0  0  0  0  0
  141.4929   73.3273  219.8046 H   0  0  0  0  0  0  0  0  0  0  0  0
  142.4196   73.1385  221.3642 H   0  0  0  0  0  0  0  0  0  0  0  0
  140.8994   71.3891  219.7861 H   0  0  0  0  0  0  0  0  0  0  0  0
  140.5018   68.9828  219.9412 H   0  0  0  0  0  0  0  0  0  0  0  0
  139.3844   68.0315  221.9616 H   0  0  0  0  0  0  0  0  0  0  0  0
  141.1781   70.0275  224.2312 H   0  0  0  0  0  0  0  0  0  0  0  0
  140.6424   71.2564  225.3748 H   0  0  0  0  0  0  0  0  0  0  0  0
  141.5129   68.3898  226.1172 H   0  0  0  0  0  0  0  0  0  0  0  0
  142.5437   69.8604  226.2848 H   0  0  0  0  0  0  0  0  0  0  0  0
  141.0900   70.7440  227.8870 H   0  0  0  0  0  0  0  0  0  0  0  0
  139.4632   68.6022  228.4679 H   0  0  0  0  0  0  0  0  0  0  0  0
  139.0568   70.3487  228.0111 H   0  0  0  0  0  0  0  0  0  0  0  0
  138.9552   67.8636  226.4053 H   0  0  0  0  0  0  0  0  0  0  0  0
  137.8237   69.3015  226.5456 H   0  0  0  0  0  0  0  0  0  0  0  0
  139.0886   72.0058  223.6325 H   0  0  0  0  0  0  0  0  0  0  0  0
  138.1268   76.2210  223.2267 H   0  0  0  0  0  0  0  0  0  0  0  0
  138.7147   78.6324  223.1621 H   0  0  0  0  0  0  0  0  0  0  0  0
  141.4685   79.7690  224.0941 H   0  0  0  0  0  0  0  0  0  0  0  0
  142.2104   82.1191  224.0718 H   0  0  0  0  0  0  0  0  0  0  0  0
  142.1549   83.4133  221.9595 H   0  0  0  0  0  0  0  0  0  0  0  0
  140.5995   79.9638  219.8884 H   0  0  0  0  0  0  0  0  0  0  0  0
  142.2422   77.6892  220.9608 H   0  0  0  0  0  0  0  0  0  0  0  0
  1  2  2  0
  2  3  1  0
  3  4  1  0
  4  5  1  0
  5  6  2  0
  6  7  1  0
  7  8  2  0
  8  9  1  0
  9 10  1  0
 10 11  2  0
 10 12  1  0
 12 13  1  0
 13 14  1  0
 14 15  1  0
 15 16  1  0
 16 17  1  0
  9 18  2  0
  4 19  2  0
 19 20  1  0
 20 21  2  0
 21 22  1  0
 22 23  2  0
 23 24  1  0
 24 25  2  0
 25 26  1  0
 26 27  2  0
 27 28  1  0
 28 29  1  0
 28 30  2  0
 23 31  1  0
 31 32  2  0
 32  2  1  0
 18  5  1  0
 32 20  1  0
 17 12  1  0
 30 24  1  0
  3 33  1  0
  3 34  1  0
  6 35  1  0
  7 36  1  0
  8 37  1  0
 13 38  1  0
 13 39  1  0
 14 40  1  0
 14 41  1  0
 15 42  1  0
 16 43  1  0
 16 44  1  0
 17 45  1  0
 17 46  1  0
 18 47  1  0
 21 48  1  0
 22 49  1  0
 25 50  1  0
 26 51  1  0
 27 52  1  0
 30 53  1  0
 31 54  1  0
M  END
>  <smiles>  (31) 
O=C1CC(c2cccc(C(=O)N3CCNCC3)c2)=Nc2ccc(-c3cccc(F)c3)cc21

>  <score_type>  (31) 
oracle

>  <origin>  (31) 
autodockgpu

>  <m_score__min__energy>  (31) 
-7.9900000000000002

>  <m_primary>  (31) 
energy

>  <rmsd>  (31) 
7.803017626207961

>  <m_score__min__rmsd>  (31) 
7.803017626207961

>  <meeko>  (31) 
{"free_energy": -7.91, "intermolecular_energy": -8.81, "internal_energy": -0.9, "cluster_size": 3, "cluster_id": 3, "rank_in_cluster": 1}

>  <energy>  (31) 
-7.93

>  <cluster_rmsd>  (31) 
0.79

>  <cluster>  (31) 
1

$$$$

     RDKit          3D

 54 58  0  0  0  0  0  0  0  0999 V2000
  142.0810   79.2730  222.8950 O   0  0  0  0  0  0  0  0  0  0  0  0
  140.8310   79.1670  222.9810 C   0  0  0  0  0  0  0  0  0  0  0  0
  140.0650   80.3460  223.4390 C   0  0  0  0  0  0  0  0  0  0  0  0
  138.5970   80.1150  223.4560 C   0  0  0  0  0  0  0  0  0  0  0  0
  137.7680   81.2870  223.8060 C   0  0  0  0  0  0  0  0  0  0  0  0
  137.1560   82.0480  222.8160 C   0  0  0  0  0  0  0  0  0  0  0  0
  136.3380   83.1100  223.0910 C   0  0  0  0  0  0  0  0  0  0  0  0
  136.0900   83.4640  224.3900 C   0  0  0  0  0  0  0  0  0  0  0  0
  136.7060   82.6970  225.3740 C   0  0  0  0  0  0  0  0  0  0  0  0
  136.4030   83.0600  226.7810 C   0  0  0  0  0  0  0  0  0  0  0  0
  136.9270   84.0360  227.3330 O   0  0  0  0  0  0  0  0  0  0  0  0
  135.4560   82.1770  227.4120 N   0  0  0  0  0  0  0  0  0  0  0  0
  134.8940   81.0350  226.7000 C   0  0  0  0  0  0  0  0  0  0  0  0
  133.5190   80.8310  227.3220 C   0  0  0  0  0  0  0  0  0  0  0  0
  133.6450   80.4590  228.7220 N   0  0  0  0  0  0  0  0  0  0  0  0
  134.4220   81.3560  229.5090 C   0  0  0  0  0  0  0  0  0  0  0  0
  135.0910   82.4820  228.7740 C   0  0  0  0  0  0  0  0  0  0  0  0
  137.5240   81.6390  225.1240 C   0  0  0  0  0  0  0  0  0  0  0  0
  138.0420   78.9930  223.1330 N   0  0  0  0  0  0  0  0  0  0  0  0
  138.7760   77.8410  222.7140 C   0  0  0  0  0  0  0  0  0  0  0  0
  138.1960   76.6460  222.3760 C   0  0  0  0  0  0  0  0  0  0  0  0
  138.9740   75.5560  221.9690 C   0  0  0  0  0  0  0  0  0  0  0  0
  140.3360   75.6540  221.8960 C   0  0  0  0  0  0  0  0  0  0  0  0
  141.2380   74.6030  221.4580 C   0  0  0  0  0  0  0  0  0  0  0  0
  140.8990   73.2630  221.7030 C   0  0  0  0  0  0  0  0  0  0  0  0
  141.7320   72.2310  221.3370 C   0  0  0  0  0  0  0  0  0  0  0  0
  142.9250   72.5070  220.7160 C   0  0  0  0  0  0  0  0  0  0  0  0
  143.2790   73.8280  220.4620 C   0  0  0  0  0  0  0  0  0  0  0  0
  144.4710   74.0950  219.8380 F   0  0  0  0  0  0  0  0  0  0  0  0
  142.4370   74.8670  220.8330 C   0  0  0  0  0  0  0  0  0  0  0  0
  140.9070   76.8600  222.2410 C   0  0  0  0  0  0  0  0  0  0  0  0
  140.1420   77.9360  222.6440 C   0  0  0  0  0  0  0  0  0  0  0  0
  140.3913   80.6016  224.4579 H   0  0  0  0  0  0  0  0  0  0  0  0
  140.2611   81.1619  222.7277 H   0  0  0  0  0  0  0  0  0  0  0  0
  137.3378   81.7842  221.7637 H   0  0  0  0  0  0  0  0  0  0  0  0
  135.8799   83.6790  222.2686 H   0  0  0  0  0  0  0  0  0  0  0  0
  135.4367   84.3120  224.6431 H   0  0  0  0  0  0  0  0  0  0  0  0
  134.8053   81.2530  225.6255 H   0  0  0  0  0  0  0  0  0  0  0  0
  135.5265   80.1390  226.7848 H   0  0  0  0  0  0  0  0  0  0  0  0
  132.9446   81.7661  227.2459 H   0  0  0  0  0  0  0  0  0  0  0  0
  133.0007   80.0236  226.7840 H   0  0  0  0  0  0  0  0  0  0  0  0
  134.0320   79.4790  228.8090 H   0  0  0  0  0  0  0  0  0  0  0  0
  133.7577   81.7985  230.2659 H   0  0  0  0  0  0  0  0  0  0  0  0
  135.2413   80.7485  229.9209 H   0  0  0  0  0  0  0  0  0  0  0  0
  134.4028   83.3400  228.7609 H   0  0  0  0  0  0  0  0  0  0  0  0
  136.0293   82.6897  229.3092 H   0  0  0  0  0  0  0  0  0  0  0  0
  137.9818   81.0752  225.9501 H   0  0  0  0  0  0  0  0  0  0  0  0
  137.1020   76.5420  222.4254 H   0  0  0  0  0  0  0  0  0  0  0  0
  138.4832   74.6078  221.7043 H   0  0  0  0  0  0  0  0  0  0  0  0
  139.9448   73.0326  222.1994 H   0  0  0  0  0  0  0  0  0  0  0  0
  141.4434   71.1893  221.5410 H   0  0  0  0  0  0  0  0  0  0  0  0
  143.5973   71.6879  220.4209 H   0  0  0  0  0  0  0  0  0  0  0  0
  142.7287   75.9074  220.6268 H   0  0  0  0  0  0  0  0  0  0  0  0
  142.0007   76.9679  222.1940 H   0  0  0  0  0  0  0  0  0  0  0  0
  1  2  2  0
  2  3  1  0
  3  4  1  0
  4  5  1  0
  5  6  2  0
  6  7  1  0
  7  8  2  0
  8  9  1  0
  9 10  1  0
 10 11  2  0
 10 12  1  0
 12 13  1  0
 13 14  1  0
 14 15  1  0
 15 16  1  0
 16 17  1  0
  9 18  2  0
  4 19  2  0
 19 20  1  0
 20 21  2  0
 21 22  1  0
 22 23  2  0
 23 24  1  0
 24 25  2  0
 25 26  1  0
 26 27  2  0
 27 28  1  0
 28 29  1  0
 28 30  2  0
 23 31  1  0
 31 32  2  0
 32  2  1  0
 18  5  1  0
 32 20  1  0
 17 12  1  0
 30 24  1  0
  3 33  1  0
  3 34  1  0
  6 35  1  0
  7 36  1  0
  8 37  1  0
 13 38  1  0
 13 39  1  0
 14 40  1  0
 14 41  1  0
 15 42  1  0
 16 43  1  0
 16 44  1  0
 17 45  1  0
 17 46  1  0
 18 47  1  0
 21 48  1  0
 22 49  1  0
 25 50  1  0
 26 51  1  0
 27 52  1  0
 30 53  1  0
 31 54  1  0
M  END
>  <smiles>  (32) 
O=C1CC(c2cccc(C(=O)N3CCNCC3)c2)=Nc2ccc(-c3cccc(F)c3)cc21

>  <score_type>  (32) 
oracle

>  <origin>  (32) 
autodockgpu

>  <m_score__min__energy>  (32) 
-7.9900000000000002

>  <m_primary>  (32) 
energy

>  <rmsd>  (32) 
11.833136739580391

>  <m_score__min__rmsd>  (32) 
11.833136739580391

>  <meeko>  (32) 
{"free_energy": -7.94, "intermolecular_energy": -8.84, "internal_energy": -0.98, "cluster_size": 35, "cluster_id": 1, "rank_in_cluster": 26}

>  <energy>  (32) 
-7.91

>  <cluster_rmsd>  (32) 
0.85

>  <cluster>  (32) 
1

$$$$

     RDKit          3D

 54 58  0  0  0  0  0  0  0  0999 V2000
  141.9550   79.2670  222.7440 O   0  0  0  0  0  0  0  0  0  0  0  0
  140.7170   79.0780  222.8590 C   0  0  0  0  0  0  0  0  0  0  0  0
  139.8840   80.2050  223.3300 C   0  0  0  0  0  0  0  0  0  0  0  0
  138.4350   79.8760  223.3820 C   0  0  0  0  0  0  0  0  0  0  0  0
  137.5380   80.9910  223.7470 C   0  0  0  0  0  0  0  0  0  0  0  0
  136.7590   81.6230  222.7830 C   0  0  0  0  0  0  0  0  0  0  0  0
  135.8750   82.6250  223.0790 C   0  0  0  0  0  0  0  0  0  0  0  0
  135.7260   83.0470  224.3720 C   0  0  0  0  0  0  0  0  0  0  0  0
  136.5090   82.4090  225.3300 C   0  0  0  0  0  0  0  0  0  0  0  0
  136.3150   82.8420  226.7360 C   0  0  0  0  0  0  0  0  0  0  0  0
  136.9260   83.8070  227.2140 O   0  0  0  0  0  0  0  0  0  0  0  0
  135.3630   82.0390  227.4600 N   0  0  0  0  0  0  0  0  0  0  0  0
  134.6950   80.9050  226.8320 C   0  0  0  0  0  0  0  0  0  0  0  0
  133.3540   80.8040  227.5440 C   0  0  0  0  0  0  0  0  0  0  0  0
  133.5470   80.4790  228.9480 N   0  0  0  0  0  0  0  0  0  0  0  0
  134.4200   81.3590  229.6480 C   0  0  0  0  0  0  0  0  0  0  0  0
  135.1020   82.4160  228.8280 C   0  0  0  0  0  0  0  0  0  0  0  0
  137.3950   81.4130  225.0600 C   0  0  0  0  0  0  0  0  0  0  0  0
  137.9510   78.7170  223.0780 N   0  0  0  0  0  0  0  0  0  0  0  0
  138.7510   77.6150  222.6470 C   0  0  0  0  0  0  0  0  0  0  0  0
  138.2450   76.3810  222.3280 C   0  0  0  0  0  0  0  0  0  0  0  0
  139.0850   75.3440  221.9070 C   0  0  0  0  0  0  0  0  0  0  0  0
  140.4350   75.5330  221.8020 C   0  0  0  0  0  0  0  0  0  0  0  0
  141.3960   74.5420  221.3480 C   0  0  0  0  0  0  0  0  0  0  0  0
  141.1130   73.1800  221.5300 C   0  0  0  0  0  0  0  0  0  0  0  0
  142.0020   72.2020  221.1470 C   0  0  0  0  0  0  0  0  0  0  0  0
  143.1960   72.5570  220.5700 C   0  0  0  0  0  0  0  0  0  0  0  0
  143.4950   73.9010  220.3780 C   0  0  0  0  0  0  0  0  0  0  0  0
  144.6900   74.2470  219.7990 F   0  0  0  0  0  0  0  0  0  0  0  0
  142.5970   74.8860  220.7680 C   0  0  0  0  0  0  0  0  0  0  0  0
  140.9310   76.7760  222.1280 C   0  0  0  0  0  0  0  0  0  0  0  0
  140.1050   77.8010  222.5440 C   0  0  0  0  0  0  0  0  0  0  0  0
  140.2156   80.4874  224.3401 H   0  0  0  0  0  0  0  0  0  0  0  0
  140.0083   81.0283  222.6111 H   0  0  0  0  0  0  0  0  0  0  0  0
  136.8581   81.3028  221.7353 H   0  0  0  0  0  0  0  0  0  0  0  0
  135.2840   83.0913  222.2770 H   0  0  0  0  0  0  0  0  0  0  0  0
  135.0233   83.8495  224.6408 H   0  0  0  0  0  0  0  0  0  0  0  0
  134.5506   81.0867  225.7568 H   0  0  0  0  0  0  0  0  0  0  0  0
  135.2814   79.9781  226.9155 H   0  0  0  0  0  0  0  0  0  0  0  0
  132.8282   81.7669  227.4641 H   0  0  0  0  0  0  0  0  0  0  0  0
  132.7596   80.0075  227.0725 H   0  0  0  0  0  0  0  0  0  0  0  0
  133.8840   79.4830  229.0520 H   0  0  0  0  0  0  0  0  0  0  0  0
  133.8301   81.8672  230.4250 H   0  0  0  0  0  0  0  0  0  0  0  0
  135.2292   80.7215  230.0337 H   0  0  0  0  0  0  0  0  0  0  0  0
  134.4625   83.3110  228.8213 H   0  0  0  0  0  0  0  0  0  0  0  0
  136.0821   82.5899  229.2961 H   0  0  0  0  0  0  0  0  0  0  0  0
  137.9853   80.9523  225.8658 H   0  0  0  0  0  0  0  0  0  0  0  0
  137.1621   76.2036  222.4042 H   0  0  0  0  0  0  0  0  0  0  0  0
  138.6533   74.3636  221.6572 H   0  0  0  0  0  0  0  0  0  0  0  0
  140.1577   72.8869  221.9898 H   0  0  0  0  0  0  0  0  0  0  0  0
  141.7571   71.1409  221.3024 H   0  0  0  0  0  0  0  0  0  0  0  0
  143.9127   71.7818  220.2611 H   0  0  0  0  0  0  0  0  0  0  0  0
  142.8461   75.9461  220.6129 H   0  0  0  0  0  0  0  0  0  0  0  0
  142.0136   76.9567  222.0550 H   0  0  0  0  0  0  0  0  0  0  0  0
  1  2  2  0
  2  3  1  0
  3  4  1  0
  4  5  1  0
  5  6  2  0
  6  7  1  0
  7  8  2  0
  8  9  1  0
  9 10  1  0
 10 11  2  0
 10 12  1  0
 12 13  1  0
 13 14  1  0
 14 15  1  0
 15 16  1  0
 16 17  1  0
  9 18  2  0
  4 19  2  0
 19 20  1  0
 20 21  2  0
 21 22  1  0
 22 23  2  0
 23 24  1  0
 24 25  2  0
 25 26  1  0
 26 27  2  0
 27 28  1  0
 28 29  1  0
 28 30  2  0
 23 31  1  0
 31 32  2  0
 32  2  1  0
 18  5  1  0
 32 20  1  0
 17 12  1  0
 30 24  1  0
  3 33  1  0
  3 34  1  0
  6 35  1  0
  7 36  1  0
  8 37  1  0
 13 38  1  0
 13 39  1  0
 14 40  1  0
 14 41  1  0
 15 42  1  0
 16 43  1  0
 16 44  1  0
 17 45  1  0
 17 46  1  0
 18 47  1  0
 21 48  1  0
 22 49  1  0
 25 50  1  0
 26 51  1  0
 27 52  1  0
 30 53  1  0
 31 54  1  0
M  END
>  <smiles>  (33) 
O=C1CC(c2cccc(C(=O)N3CCNCC3)c2)=Nc2ccc(-c3cccc(F)c3)cc21

>  <score_type>  (33) 
oracle

>  <origin>  (33) 
autodockgpu

>  <m_score__min__energy>  (33) 
-7.9900000000000002

>  <m_primary>  (33) 
energy

>  <rmsd>  (33) 
11.792976873128753

>  <m_score__min__rmsd>  (33) 
11.792976873128753

>  <meeko>  (33) 
{"free_energy": -7.9, "intermolecular_energy": -8.8, "internal_energy": -1.01, "cluster_size": 35, "cluster_id": 1, "rank_in_cluster": 33}

>  <energy>  (33) 
-7.9

>  <cluster_rmsd>  (33) 
0.25

>  <cluster>  (33) 
1

$$$$

     RDKit          3D

 54 58  0  0  0  0  0  0  0  0999 V2000
  141.9060   79.1670  223.0410 O   0  0  0  0  0  0  0  0  0  0  0  0
  140.6630   78.9840  223.0620 C   0  0  0  0  0  0  0  0  0  0  0  0
  139.8060   80.0910  223.5410 C   0  0  0  0  0  0  0  0  0  0  0  0
  138.3560   79.7740  223.4770 C   0  0  0  0  0  0  0  0  0  0  0  0
  137.4420   80.8750  223.8450 C   0  0  0  0  0  0  0  0  0  0  0  0
  136.5960   81.4440  222.8990 C   0  0  0  0  0  0  0  0  0  0  0  0
  135.6960   82.4310  223.2020 C   0  0  0  0  0  0  0  0  0  0  0  0
  135.6000   82.8990  224.4850 C   0  0  0  0  0  0  0  0  0  0  0  0
  136.4510   82.3240  225.4240 C   0  0  0  0  0  0  0  0  0  0  0  0
  136.3150   82.8070  226.8210 C   0  0  0  0  0  0  0  0  0  0  0  0
  136.9520   83.7820  227.2410 O   0  0  0  0  0  0  0  0  0  0  0  0
  135.3860   82.0380  227.6090 N   0  0  0  0  0  0  0  0  0  0  0  0
  134.6860   80.8890  227.0460 C   0  0  0  0  0  0  0  0  0  0  0  0
  133.3720   80.8250  227.8130 C   0  0  0  0  0  0  0  0  0  0  0  0
  133.6180   80.5470  229.2190 N   0  0  0  0  0  0  0  0  0  0  0  0
  134.5240   81.4430  229.8540 C   0  0  0  0  0  0  0  0  0  0  0  0
  135.1820   82.4650  228.9720 C   0  0  0  0  0  0  0  0  0  0  0  0
  137.3530   81.3450  225.1460 C   0  0  0  0  0  0  0  0  0  0  0  0
  137.8850   78.6400  223.0740 N   0  0  0  0  0  0  0  0  0  0  0  0
  138.7060   77.5560  222.6340 C   0  0  0  0  0  0  0  0  0  0  0  0
  138.2150   76.3480  222.2110 C   0  0  0  0  0  0  0  0  0  0  0  0
  139.0750   75.3280  221.7870 C   0  0  0  0  0  0  0  0  0  0  0  0
  140.4300   75.5090  221.7840 C   0  0  0  0  0  0  0  0  0  0  0  0
  141.4140   74.5360  221.3390 C   0  0  0  0  0  0  0  0  0  0  0  0
  141.1290   73.1680  221.4650 C   0  0  0  0  0  0  0  0  0  0  0  0
  142.0380   72.2060  221.0880 C   0  0  0  0  0  0  0  0  0  0  0  0
  143.2530   72.5830  220.5720 C   0  0  0  0  0  0  0  0  0  0  0  0
  143.5540   73.9340  220.4360 C   0  0  0  0  0  0  0  0  0  0  0  0
  144.7690   74.3020  219.9180 F   0  0  0  0  0  0  0  0  0  0  0  0
  142.6360   74.9020  220.8190 C   0  0  0  0  0  0  0  0  0  0  0  0
  140.9110   76.7270  222.2140 C   0  0  0  0  0  0  0  0  0  0  0  0
  140.0650   77.7340  222.6330 C   0  0  0  0  0  0  0  0  0  0  0  0
  140.0705   80.3119  224.5856 H   0  0  0  0  0  0  0  0  0  0  0  0
  139.9832   80.9528  222.8807 H   0  0  0  0  0  0  0  0  0  0  0  0
  136.6522   81.0852  221.8607 H   0  0  0  0  0  0  0  0  0  0  0  0
  135.0505   82.8475  222.4147 H   0  0  0  0  0  0  0  0  0  0  0  0
  134.8862   83.6896  224.7597 H   0  0  0  0  0  0  0  0  0  0  0  0
  134.5015   81.0351  225.9715 H   0  0  0  0  0  0  0  0  0  0  0  0
  135.2681   79.9602  227.1381 H   0  0  0  0  0  0  0  0  0  0  0  0
  132.8509   81.7893  227.7201 H   0  0  0  0  0  0  0  0  0  0  0  0
  132.7530   80.0185  227.3931 H   0  0  0  0  0  0  0  0  0  0  0  0
  133.9510   79.5520  229.3450 H   0  0  0  0  0  0  0  0  0  0  0  0
  133.9683   81.9830  230.6348 H   0  0  0  0  0  0  0  0  0  0  0  0
  135.3426   80.8121  230.2306 H   0  0  0  0  0  0  0  0  0  0  0  0
  134.5500   83.3652  228.9589 H   0  0  0  0  0  0  0  0  0  0  0  0
  136.1809   82.6463  229.3954 H   0  0  0  0  0  0  0  0  0  0  0  0
  137.9983   80.9348  225.9368 H   0  0  0  0  0  0  0  0  0  0  0  0
  137.1283   76.1775  222.2046 H   0  0  0  0  0  0  0  0  0  0  0  0
  138.6549   74.3682  221.4518 H   0  0  0  0  0  0  0  0  0  0  0  0
  140.1565   72.8572  221.8746 H   0  0  0  0  0  0  0  0  0  0  0  0
  141.7921   71.1397  221.1996 H   0  0  0  0  0  0  0  0  0  0  0  0
  143.9849   71.8203  220.2676 H   0  0  0  0  0  0  0  0  0  0  0  0
  142.8856   75.9674  220.7067 H   0  0  0  0  0  0  0  0  0  0  0  0
  141.9971   76.9010  222.2235 H   0  0  0  0  0  0  0  0  0  0  0  0
  1  2  2  0
  2  3  1  0
  3  4  1  0
  4  5  1  0
  5  6  2  0
  6  7  1  0
  7  8  2  0
  8  9  1  0
  9 10  1  0
 10 11  2  0
 10 12  1  0
 12 13  1  0
 13 14  1  0
 14 15  1  0
 15 16  1  0
 16 17  1  0
  9 18  2  0
  4 19  2  0
 19 20  1  0
 20 21  2  0
 21 22  1  0
 22 23  2  0
 23 24  1  0
 24 25  2  0
 25 26  1  0
 26 27  2  0
 27 28  1  0
 28 29  1  0
 28 30  2  0
 23 31  1  0
 31 32  2  0
 32  2  1  0
 18  5  1  0
 32 20  1  0
 17 12  1  0
 30 24  1  0
  3 33  1  0
  3 34  1  0
  6 35  1  0
  7 36  1  0
  8 37  1  0
 13 38  1  0
 13 39  1  0
 14 40  1  0
 14 41  1  0
 15 42  1  0
 16 43  1  0
 16 44  1  0
 17 45  1  0
 17 46  1  0
 18 47  1  0
 21 48  1  0
 22 49  1  0
 25 50  1  0
 26 51  1  0
 27 52  1  0
 30 53  1  0
 31 54  1  0
M  END
>  <smiles>  (34) 
O=C1CC(c2cccc(C(=O)N3CCNCC3)c2)=Nc2ccc(-c3cccc(F)c3)cc21

>  <score_type>  (34) 
oracle

>  <origin>  (34) 
autodockgpu

>  <m_score__min__energy>  (34) 
-7.9900000000000002

>  <m_primary>  (34) 
energy

>  <rmsd>  (34) 
11.811883746461234

>  <m_score__min__rmsd>  (34) 
11.811883746461234

>  <meeko>  (34) 
{"free_energy": -7.93, "intermolecular_energy": -8.83, "internal_energy": -1.01, "cluster_size": 35, "cluster_id": 1, "rank_in_cluster": 29}

>  <energy>  (34) 
-7.89

>  <cluster_rmsd>  (34) 
0.79

>  <cluster>  (34) 
1

$$$$

     RDKit          3D

 54 58  0  0  0  0  0  0  0  0999 V2000
  140.4130   70.5240  220.7710 O   0  0  0  0  0  0  0  0  0  0  0  0
  140.9980   71.6360  220.7570 C   0  0  0  0  0  0  0  0  0  0  0  0
  140.2320   72.8280  221.1810 C   0  0  0  0  0  0  0  0  0  0  0  0
  141.0410   74.0750  221.1660 C   0  0  0  0  0  0  0  0  0  0  0  0
  140.3640   75.2840  221.6770 C   0  0  0  0  0  0  0  0  0  0  0  0
  138.9790   75.3230  221.8100 C   0  0  0  0  0  0  0  0  0  0  0  0
  138.3110   76.4000  222.3260 C   0  0  0  0  0  0  0  0  0  0  0  0
  139.0060   77.5040  222.7390 C   0  0  0  0  0  0  0  0  0  0  0  0
  140.3900   77.4570  222.6020 C   0  0  0  0  0  0  0  0  0  0  0  0
  141.1430   78.6400  223.0870 C   0  0  0  0  0  0  0  0  0  0  0  0
  141.6320   78.6840  224.2230 O   0  0  0  0  0  0  0  0  0  0  0  0
  141.2400   79.6990  222.1160 N   0  0  0  0  0  0  0  0  0  0  0  0
  140.6210   79.5800  220.8010 C   0  0  0  0  0  0  0  0  0  0  0  0
  141.4910   80.4310  219.8860 C   0  0  0  0  0  0  0  0  0  0  0  0
  141.4260   81.8300  220.2790 N   0  0  0  0  0  0  0  0  0  0  0  0
  141.7420   82.0800  221.6440 C   0  0  0  0  0  0  0  0  0  0  0  0
  141.9820   80.8740  222.5070 C   0  0  0  0  0  0  0  0  0  0  0  0
  141.0760   76.3990  222.0910 C   0  0  0  0  0  0  0  0  0  0  0  0
  142.2780   74.1250  220.7940 N   0  0  0  0  0  0  0  0  0  0  0  0
  143.0180   72.9830  220.3590 C   0  0  0  0  0  0  0  0  0  0  0  0
  144.3280   73.0280  219.9570 C   0  0  0  0  0  0  0  0  0  0  0  0
  144.9970   71.8700  219.5470 C   0  0  0  0  0  0  0  0  0  0  0  0
  144.3620   70.6590  219.5350 C   0  0  0  0  0  0  0  0  0  0  0  0
  144.9630   69.3910  219.1590 C   0  0  0  0  0  0  0  0  0  0  0  0
  144.8220   68.2860  220.0130 C   0  0  0  0  0  0  0  0  0  0  0  0
  145.3980   67.0710  219.7200 C   0  0  0  0  0  0  0  0  0  0  0  0
  146.1280   66.9250  218.5660 C   0  0  0  0  0  0  0  0  0  0  0  0
  146.2780   68.0060  217.7050 C   0  0  0  0  0  0  0  0  0  0  0  0
  147.0070   67.8510  216.5540 F   0  0  0  0  0  0  0  0  0  0  0  0
  145.6970   69.2320  218.0040 C   0  0  0  0  0  0  0  0  0  0  0  0
  143.0450   70.6270  219.9380 C   0  0  0  0  0  0  0  0  0  0  0  0
  142.3820   71.7680  220.3430 C   0  0  0  0  0  0  0  0  0  0  0  0
  139.3780   72.9562  220.4997 H   0  0  0  0  0  0  0  0  0  0  0  0
  139.9084   72.6587  222.2186 H   0  0  0  0  0  0  0  0  0  0  0  0
  138.3953   74.4488  221.4858 H   0  0  0  0  0  0  0  0  0  0  0  0
  137.2143   76.3783  222.4089 H   0  0  0  0  0  0  0  0  0  0  0  0
  138.4964   78.3842  223.1581 H   0  0  0  0  0  0  0  0  0  0  0  0
  140.6168   78.5317  220.4676 H   0  0  0  0  0  0  0  0  0  0  0  0
  139.5718   79.9104  220.8034 H   0  0  0  0  0  0  0  0  0  0  0  0
  142.5329   80.0844  219.9517 H   0  0  0  0  0  0  0  0  0  0  0  0
  141.1238   80.3336  218.8537 H   0  0  0  0  0  0  0  0  0  0  0  0
  140.4760   82.2320  220.0520 H   0  0  0  0  0  0  0  0  0  0  0  0
  142.6532   82.6958  221.6690 H   0  0  0  0  0  0  0  0  0  0  0  0
  140.8503   82.5673  222.0653 H   0  0  0  0  0  0  0  0  0  0  0  0
  143.0543   80.6317  222.4678 H   0  0  0  0  0  0  0  0  0  0  0  0
  141.6368   81.1393  223.5172 H   0  0  0  0  0  0  0  0  0  0  0  0
  142.1725   76.4278  222.0081 H   0  0  0  0  0  0  0  0  0  0  0  0
  144.8614   73.9900  219.9569 H   0  0  0  0  0  0  0  0  0  0  0  0
  146.0483   71.9344  219.2299 H   0  0  0  0  0  0  0  0  0  0  0  0
  144.2372   68.3938  220.9384 H   0  0  0  0  0  0  0  0  0  0  0  0
  145.2742   66.2208  220.4069 H   0  0  0  0  0  0  0  0  0  0  0  0
  146.5918   65.9573  218.3241 H   0  0  0  0  0  0  0  0  0  0  0  0
  145.8237   70.0801  217.3150 H   0  0  0  0  0  0  0  0  0  0  0  0
  142.5077   69.6671  219.9370 H   0  0  0  0  0  0  0  0  0  0  0  0
  1  2  2  0
  2  3  1  0
  3  4  1  0
  4  5  1  0
  5  6  2  0
  6  7  1  0
  7  8  2  0
  8  9  1  0
  9 10  1  0
 10 11  2  0
 10 12  1  0
 12 13  1  0
 13 14  1  0
 14 15  1  0
 15 16  1  0
 16 17  1  0
  9 18  2  0
  4 19  2  0
 19 20  1  0
 20 21  2  0
 21 22  1  0
 22 23  2  0
 23 24  1  0
 24 25  2  0
 25 26  1  0
 26 27  2  0
 27 28  1  0
 28 29  1  0
 28 30  2  0
 23 31  1  0
 31 32  2  0
 32  2  1  0
 18  5  1  0
 32 20  1  0
 17 12  1  0
 30 24  1  0
  3 33  1  0
  3 34  1  0
  6 35  1  0
  7 36  1  0
  8 37  1  0
 13 38  1  0
 13 39  1  0
 14 40  1  0
 14 41  1  0
 15 42  1  0
 16 43  1  0
 16 44  1  0
 17 45  1  0
 17 46  1  0
 18 47  1  0
 21 48  1  0
 22 49  1  0
 25 50  1  0
 26 51  1  0
 27 52  1  0
 30 53  1  0
 31 54  1  0
M  END
>  <smiles>  (35) 
O=C1CC(c2cccc(C(=O)N3CCNCC3)c2)=Nc2ccc(-c3cccc(F)c3)cc21

>  <score_type>  (35) 
oracle

>  <origin>  (35) 
autodockgpu

>  <m_score__min__energy>  (35) 
-7.9900000000000002

>  <m_primary>  (35) 
energy

>  <rmsd>  (35) 
7.492821289407958

>  <m_score__min__rmsd>  (35) 
7.492821289407958

>  <meeko>  (35) 
{"free_energy": -7.74, "intermolecular_energy": -8.63, "internal_energy": -1.01, "cluster_size": 7, "cluster_id": 4, "rank_in_cluster": 2}

>  <energy>  (35) 
-7.73

>  <cluster_rmsd>  (35) 
0.95

>  <cluster>  (35) 
1

$$$$

     RDKit          3D

 54 58  0  0  0  0  0  0  0  0999 V2000
  141.9940   79.1070  223.2390 O   0  0  0  0  0  0  0  0  0  0  0  0
  140.7450   78.9840  223.1710 C   0  0  0  0  0  0  0  0  0  0  0  0
  139.9110   80.1170  223.6290 C   0  0  0  0  0  0  0  0  0  0  0  0
  138.4540   79.8740  223.4580 C   0  0  0  0  0  0  0  0  0  0  0  0
  137.5710   81.0070  223.8020 C   0  0  0  0  0  0  0  0  0  0  0  0
  136.8120   81.6400  222.8240 C   0  0  0  0  0  0  0  0  0  0  0  0
  135.9410   82.6600  223.1010 C   0  0  0  0  0  0  0  0  0  0  0  0
  135.7860   83.0980  224.3880 C   0  0  0  0  0  0  0  0  0  0  0  0
  136.5500   82.4580  225.3600 C   0  0  0  0  0  0  0  0  0  0  0  0
  136.3500   82.9090  226.7600 C   0  0  0  0  0  0  0  0  0  0  0  0
  136.9460   83.8900  227.2230 O   0  0  0  0  0  0  0  0  0  0  0  0
  135.4100   82.1030  227.4960 N   0  0  0  0  0  0  0  0  0  0  0  0
  134.7600   80.9490  226.8850 C   0  0  0  0  0  0  0  0  0  0  0  0
  133.4200   80.8390  227.6000 C   0  0  0  0  0  0  0  0  0  0  0  0
  133.6180   80.5380  229.0080 N   0  0  0  0  0  0  0  0  0  0  0  0
  134.4780   81.4410  229.6950 C   0  0  0  0  0  0  0  0  0  0  0  0
  135.1440   82.4960  228.8580 C   0  0  0  0  0  0  0  0  0  0  0  0
  137.4230   81.4450  225.1090 C   0  0  0  0  0  0  0  0  0  0  0  0
  137.9600   78.7780  222.9850 N   0  0  0  0  0  0  0  0  0  0  0  0
  138.7560   77.6690  222.5630 C   0  0  0  0  0  0  0  0  0  0  0  0
  138.2390   76.5010  222.0670 C   0  0  0  0  0  0  0  0  0  0  0  0
  139.0770   75.4530  221.6670 C   0  0  0  0  0  0  0  0  0  0  0  0
  140.4370   75.5670  221.7600 C   0  0  0  0  0  0  0  0  0  0  0  0
  141.4010   74.5620  221.3480 C   0  0  0  0  0  0  0  0  0  0  0  0
  141.1050   73.2050  221.5500 C   0  0  0  0  0  0  0  0  0  0  0  0
  141.9960   72.2150  221.2060 C   0  0  0  0  0  0  0  0  0  0  0  0
  143.2050   72.5500  220.6500 C   0  0  0  0  0  0  0  0  0  0  0  0
  143.5170   73.8890  220.4380 C   0  0  0  0  0  0  0  0  0  0  0  0
  144.7270   74.2160  219.8800 F   0  0  0  0  0  0  0  0  0  0  0  0
  142.6170   74.8860  220.7880 C   0  0  0  0  0  0  0  0  0  0  0  0
  140.9440   76.7450  222.2640 C   0  0  0  0  0  0  0  0  0  0  0  0
  140.1200   77.7800  222.6600 C   0  0  0  0  0  0  0  0  0  0  0  0
  140.1140   80.2926  224.6957 H   0  0  0  0  0  0  0  0  0  0  0  0
  140.1733   80.9887  223.0114 H   0  0  0  0  0  0  0  0  0  0  0  0
  136.9157   81.3066  221.7809 H   0  0  0  0  0  0  0  0  0  0  0  0
  135.3657   83.1274  222.2883 H   0  0  0  0  0  0  0  0  0  0  0  0
  135.0932   83.9140  224.6416 H   0  0  0  0  0  0  0  0  0  0  0  0
  134.6127   81.1119  225.8071 H   0  0  0  0  0  0  0  0  0  0  0  0
  135.3606   80.0325  226.9816 H   0  0  0  0  0  0  0  0  0  0  0  0
  132.8801   81.7928  227.5061 H   0  0  0  0  0  0  0  0  0  0  0  0
  132.8372   80.0268  227.1409 H   0  0  0  0  0  0  0  0  0  0  0  0
  133.9700   79.5480  229.1270 H   0  0  0  0  0  0  0  0  0  0  0  0
  133.8809   81.9519  230.4647 H   0  0  0  0  0  0  0  0  0  0  0  0
  135.2965   80.8216  230.0905 H   0  0  0  0  0  0  0  0  0  0  0  0
  134.4911   83.3811  228.8384 H   0  0  0  0  0  0  0  0  0  0  0  0
  136.1218   82.6911  229.3226 H   0  0  0  0  0  0  0  0  0  0  0  0
  137.9986   80.9838  225.9250 H   0  0  0  0  0  0  0  0  0  0  0  0
  137.1485   76.3848  221.9817 H   0  0  0  0  0  0  0  0  0  0  0  0
  138.6358   74.5257  221.2727 H   0  0  0  0  0  0  0  0  0  0  0  0
  140.1378   72.9266  221.9938 H   0  0  0  0  0  0  0  0  0  0  0  0
  141.7403   71.1587  221.3760 H   0  0  0  0  0  0  0  0  0  0  0  0
  143.9234   71.7642  220.3735 H   0  0  0  0  0  0  0  0  0  0  0  0
  142.8764   75.9412  220.6171 H   0  0  0  0  0  0  0  0  0  0  0  0
  142.0339   76.8641  222.3533 H   0  0  0  0  0  0  0  0  0  0  0  0
  1  2  2  0
  2  3  1  0
  3  4  1  0
  4  5  1  0
  5  6  2  0
  6  7  1  0
  7  8  2  0
  8  9  1  0
  9 10  1  0
 10 11  2  0
 10 12  1  0
 12 13  1  0
 13 14  1  0
 14 15  1  0
 15 16  1  0
 16 17  1  0
  9 18  2  0
  4 19  2  0
 19 20  1  0
 20 21  2  0
 21 22  1  0
 22 23  2  0
 23 24  1  0
 24 25  2  0
 25 26  1  0
 26 27  2  0
 27 28  1  0
 28 29  1  0
 28 30  2  0
 23 31  1  0
 31 32  2  0
 32  2  1  0
 18  5  1  0
 32 20  1  0
 17 12  1  0
 30 24  1  0
  3 33  1  0
  3 34  1  0
  6 35  1  0
  7 36  1  0
  8 37  1  0
 13 38  1  0
 13 39  1  0
 14 40  1  0
 14 41  1  0
 15 42  1  0
 16 43  1  0
 16 44  1  0
 17 45  1  0
 17 46  1  0
 18 47  1  0
 21 48  1  0
 22 49  1  0
 25 50  1  0
 26 51  1  0
 27 52  1  0
 30 53  1  0
 31 54  1  0
M  END
>  <smiles>  (36) 
O=C1CC(c2cccc(C(=O)N3CCNCC3)c2)=Nc2ccc(-c3cccc(F)c3)cc21

>  <score_type>  (36) 
oracle

>  <origin>  (36) 
autodockgpu

>  <m_score__min__energy>  (36) 
-7.9900000000000002

>  <m_primary>  (36) 
energy

>  <rmsd>  (36) 
11.789330595084333

>  <m_score__min__rmsd>  (36) 
11.789330595084333

>  <meeko>  (36) 
{"free_energy": -7.97, "intermolecular_energy": -8.87, "internal_energy": -1.01, "cluster_size": 35, "cluster_id": 1, "rank_in_cluster": 9}

>  <energy>  (36) 
-7.91

>  <cluster_rmsd>  (36) 
0.0

>  <cluster>  (36) 
2

$$$$

     RDKit          3D

 54 58  0  0  0  0  0  0  0  0999 V2000
  141.8880   79.5630  223.0960 O   0  0  0  0  0  0  0  0  0  0  0  0
  140.6370   79.4640  223.1620 C   0  0  0  0  0  0  0  0  0  0  0  0
  139.8730   80.6360  223.6440 C   0  0  0  0  0  0  0  0  0  0  0  0
  138.4040   80.4170  223.6350 C   0  0  0  0  0  0  0  0  0  0  0  0
  137.5790   81.5840  224.0080 C   0  0  0  0  0  0  0  0  0  0  0  0
  136.9430   82.3470  223.0340 C   0  0  0  0  0  0  0  0  0  0  0  0
  136.1280   83.4060  223.3320 C   0  0  0  0  0  0  0  0  0  0  0  0
  135.9080   83.7550  224.6370 C   0  0  0  0  0  0  0  0  0  0  0  0
  136.5480   82.9860  225.6040 C   0  0  0  0  0  0  0  0  0  0  0  0
  136.2750   83.3420  227.0190 C   0  0  0  0  0  0  0  0  0  0  0  0
  136.7680   84.3470  227.5480 O   0  0  0  0  0  0  0  0  0  0  0  0
  135.3950   82.4180  227.6860 N   0  0  0  0  0  0  0  0  0  0  0  0
  134.8660   81.2450  227.0000 C   0  0  0  0  0  0  0  0  0  0  0  0
  133.5260   80.9770  227.6690 C   0  0  0  0  0  0  0  0  0  0  0  0
  133.7170   80.6210  229.0660 N   0  0  0  0  0  0  0  0  0  0  0  0
  134.4750   81.5600  229.8210 C   0  0  0  0  0  0  0  0  0  0  0  0
  135.0620   82.7130  229.0590 C   0  0  0  0  0  0  0  0  0  0  0  0
  137.3630   81.9310  225.3330 C   0  0  0  0  0  0  0  0  0  0  0  0
  137.8450   79.3090  223.2730 N   0  0  0  0  0  0  0  0  0  0  0  0
  138.5750   78.1630  222.8310 C   0  0  0  0  0  0  0  0  0  0  0  0
  137.9900   76.9830  222.4520 C   0  0  0  0  0  0  0  0  0  0  0  0
  138.7650   75.8990  222.0230 C   0  0  0  0  0  0  0  0  0  0  0  0
  140.1290   75.9880  221.9710 C   0  0  0  0  0  0  0  0  0  0  0  0
  141.0290   74.9420  221.5150 C   0  0  0  0  0  0  0  0  0  0  0  0
  142.2030   75.2980  220.8340 C   0  0  0  0  0  0  0  0  0  0  0  0
  143.0730   74.3460  220.3540 C   0  0  0  0  0  0  0  0  0  0  0  0
  142.7970   73.0140  220.5430 C   0  0  0  0  0  0  0  0  0  0  0  0
  141.6400   72.6410  221.2170 C   0  0  0  0  0  0  0  0  0  0  0  0
  141.3720   71.3080  221.4030 F   0  0  0  0  0  0  0  0  0  0  0  0
  140.7620   73.6030  221.6990 C   0  0  0  0  0  0  0  0  0  0  0  0
  140.7040   77.1780  222.3580 C   0  0  0  0  0  0  0  0  0  0  0  0
  139.9430   78.2490  222.7820 C   0  0  0  0  0  0  0  0  0  0  0  0
  140.1874   80.8595  224.6741 H   0  0  0  0  0  0  0  0  0  0  0  0
  140.0847   81.4702  222.9589 H   0  0  0  0  0  0  0  0  0  0  0  0
  137.1020   82.0878  221.9769 H   0  0  0  0  0  0  0  0  0  0  0  0
  135.6498   83.9766  222.5222 H   0  0  0  0  0  0  0  0  0  0  0  0
  135.2583   84.6004  224.9076 H   0  0  0  0  0  0  0  0  0  0  0  0
  134.7299   81.4512  225.9281 H   0  0  0  0  0  0  0  0  0  0  0  0
  135.5448   80.3821  227.0680 H   0  0  0  0  0  0  0  0  0  0  0  0
  132.9033   81.8817  227.6078 H   0  0  0  0  0  0  0  0  0  0  0  0
  133.0314   80.1409  227.1530 H   0  0  0  0  0  0  0  0  0  0  0  0
  134.1540   79.6620  229.1440 H   0  0  0  0  0  0  0  0  0  0  0  0
  133.8160   81.9738  230.5984 H   0  0  0  0  0  0  0  0  0  0  0  0
  135.3372   80.9961  230.2064 H   0  0  0  0  0  0  0  0  0  0  0  0
  134.3322   83.5360  229.0659 H   0  0  0  0  0  0  0  0  0  0  0  0
  136.0065   82.9700  229.5608 H   0  0  0  0  0  0  0  0  0  0  0  0
  137.8402   81.3657  226.1471 H   0  0  0  0  0  0  0  0  0  0  0  0
  136.8948   76.8862  222.4854 H   0  0  0  0  0  0  0  0  0  0  0  0
  138.2705   74.9631  221.7237 H   0  0  0  0  0  0  0  0  0  0  0  0
  142.4332   76.3626  220.6803 H   0  0  0  0  0  0  0  0  0  0  0  0
  143.9858   74.6506  219.8211 H   0  0  0  0  0  0  0  0  0  0  0  0
  143.4876   72.2467  220.1632 H   0  0  0  0  0  0  0  0  0  0  0  0
  139.8494   73.2945  222.2300 H   0  0  0  0  0  0  0  0  0  0  0  0
  141.7991   77.2779  222.3285 H   0  0  0  0  0  0  0  0  0  0  0  0
  1  2  2  0
  2  3  1  0
  3  4  1  0
  4  5  1  0
  5  6  2  0
  6  7  1  0
  7  8  2  0
  8  9  1  0
  9 10  1  0
 10 11  2  0
 10 12  1  0
 12 13  1  0
 13 14  1  0
 14 15  1  0
 15 16  1  0
 16 17  1  0
  9 18  2  0
  4 19  2  0
 19 20  1  0
 20 21  2  0
 21 22  1  0
 22 23  2  0
 23 24  1  0
 24 25  2  0
 25 26  1  0
 26 27  2  0
 27 28  1  0
 28 29  1  0
 28 30  2  0
 23 31  1  0
 31 32  2  0
 32  2  1  0
 18  5  1  0
 32 20  1  0
 17 12  1  0
 30 24  1  0
  3 33  1  0
  3 34  1  0
  6 35  1  0
  7 36  1  0
  8 37  1  0
 13 38  1  0
 13 39  1  0
 14 40  1  0
 14 41  1  0
 15 42  1  0
 16 43  1  0
 16 44  1  0
 17 45  1  0
 17 46  1  0
 18 47  1  0
 21 48  1  0
 22 49  1  0
 25 50  1  0
 26 51  1  0
 27 52  1  0
 30 53  1  0
 31 54  1  0
M  END
>  <smiles>  (37) 
O=C1CC(c2cccc(C(=O)N3CCNCC3)c2)=Nc2ccc(-c3cccc(F)c3)cc21

>  <score_type>  (37) 
oracle

>  <origin>  (37) 
autodockgpu

>  <m_score__min__energy>  (37) 
-7.9900000000000002

>  <m_primary>  (37) 
energy

>  <rmsd>  (37) 
12.131948421548659

>  <m_score__min__rmsd>  (37) 
12.131948421548659

>  <meeko>  (37) 
{"free_energy": -7.95, "intermolecular_energy": -8.84, "internal_energy": -0.97, "cluster_size": 35, "cluster_id": 1, "rank_in_cluster": 24}

>  <energy>  (37) 
-7.86

>  <cluster_rmsd>  (37) 
0.82

>  <cluster>  (37) 
2

$$$$

     RDKit          3D

 54 58  0  0  0  0  0  0  0  0999 V2000
  141.9900   79.1890  223.0800 O   0  0  0  0  0  0  0  0  0  0  0  0
  140.7410   79.0400  223.0900 C   0  0  0  0  0  0  0  0  0  0  0  0
  139.9120   80.1720  223.5550 C   0  0  0  0  0  0  0  0  0  0  0  0
  138.4530   79.8960  223.4780 C   0  0  0  0  0  0  0  0  0  0  0  0
  137.5680   81.0240  223.8320 C   0  0  0  0  0  0  0  0  0  0  0  0
  136.8120   81.6690  222.8580 C   0  0  0  0  0  0  0  0  0  0  0  0
  135.9390   82.6840  223.1430 C   0  0  0  0  0  0  0  0  0  0  0  0
  135.7790   83.1060  224.4360 C   0  0  0  0  0  0  0  0  0  0  0  0
  136.5380   82.4550  225.4030 C   0  0  0  0  0  0  0  0  0  0  0  0
  136.3310   82.8880  226.8070 C   0  0  0  0  0  0  0  0  0  0  0  0
  136.9240   83.8640  227.2850 O   0  0  0  0  0  0  0  0  0  0  0  0
  135.3890   82.0720  227.5290 N   0  0  0  0  0  0  0  0  0  0  0  0
  134.7430   80.9250  226.9010 C   0  0  0  0  0  0  0  0  0  0  0  0
  133.4010   80.8040  227.6080 C   0  0  0  0  0  0  0  0  0  0  0  0
  133.5930   80.4860  229.0140 N   0  0  0  0  0  0  0  0  0  0  0  0
  134.4480   81.3820  229.7150 C   0  0  0  0  0  0  0  0  0  0  0  0
  135.1160   82.4480  228.8950 C   0  0  0  0  0  0  0  0  0  0  0  0
  137.4130   81.4450  225.1430 C   0  0  0  0  0  0  0  0  0  0  0  0
  137.9550   78.7730  223.0750 N   0  0  0  0  0  0  0  0  0  0  0  0
  138.7500   77.6650  222.6480 C   0  0  0  0  0  0  0  0  0  0  0  0
  138.2300   76.4690  222.2260 C   0  0  0  0  0  0  0  0  0  0  0  0
  139.0650   75.4240  221.8150 C   0  0  0  0  0  0  0  0  0  0  0  0
  140.4250   75.5670  221.8250 C   0  0  0  0  0  0  0  0  0  0  0  0
  141.3850   74.5650  221.3930 C   0  0  0  0  0  0  0  0  0  0  0  0
  141.0880   73.2070  221.5810 C   0  0  0  0  0  0  0  0  0  0  0  0
  141.9750   72.2190  221.2190 C   0  0  0  0  0  0  0  0  0  0  0  0
  143.1810   72.5600  220.6580 C   0  0  0  0  0  0  0  0  0  0  0  0
  143.4940   73.9010  220.4610 C   0  0  0  0  0  0  0  0  0  0  0  0
  144.7000   74.2330  219.8980 F   0  0  0  0  0  0  0  0  0  0  0  0
  142.5970   74.8950  220.8290 C   0  0  0  0  0  0  0  0  0  0  0  0
  140.9350   76.7730  222.2540 C   0  0  0  0  0  0  0  0  0  0  0  0
  140.1140   77.8050  222.6600 C   0  0  0  0  0  0  0  0  0  0  0  0
  140.1724   80.3902  224.6012 H   0  0  0  0  0  0  0  0  0  0  0  0
  140.1201   81.0251  222.8925 H   0  0  0  0  0  0  0  0  0  0  0  0
  136.9209   81.3486  221.8113 H   0  0  0  0  0  0  0  0  0  0  0  0
  135.3662   83.1605  222.3338 H   0  0  0  0  0  0  0  0  0  0  0  0
  135.0852   83.9188  224.6967 H   0  0  0  0  0  0  0  0  0  0  0  0
  134.6001   81.1013  225.8247 H   0  0  0  0  0  0  0  0  0  0  0  0
  135.3445   80.0082  226.9891 H   0  0  0  0  0  0  0  0  0  0  0  0
  132.8598   81.7579  227.5232 H   0  0  0  0  0  0  0  0  0  0  0  0
  132.8219   79.9964  227.1364 H   0  0  0  0  0  0  0  0  0  0  0  0
  133.9460   79.4960  229.1230 H   0  0  0  0  0  0  0  0  0  0  0  0
  133.8464   81.8825  230.4881 H   0  0  0  0  0  0  0  0  0  0  0  0
  135.2660   80.7591  230.1059 H   0  0  0  0  0  0  0  0  0  0  0  0
  134.4619   83.3323  228.8833 H   0  0  0  0  0  0  0  0  0  0  0  0
  136.0912   82.6390  229.3667 H   0  0  0  0  0  0  0  0  0  0  0  0
  137.9845   80.9734  225.9560 H   0  0  0  0  0  0  0  0  0  0  0  0
  137.1391   76.3285  222.2102 H   0  0  0  0  0  0  0  0  0  0  0  0
  138.6216   74.4749  221.4794 H   0  0  0  0  0  0  0  0  0  0  0  0
  140.1234   72.9252  222.0283 H   0  0  0  0  0  0  0  0  0  0  0  0
  141.7191   71.1611  221.3783 H   0  0  0  0  0  0  0  0  0  0  0  0
  143.8960   71.7768  220.3659 H   0  0  0  0  0  0  0  0  0  0  0  0
  142.8561   75.9520  220.6690 H   0  0  0  0  0  0  0  0  0  0  0  0
  142.0254   76.9169  222.2733 H   0  0  0  0  0  0  0  0  0  0  0  0
  1  2  2  0
  2  3  1  0
  3  4  1  0
  4  5  1  0
  5  6  2  0
  6  7  1  0
  7  8  2  0
  8  9  1  0
  9 10  1  0
 10 11  2  0
 10 12  1  0
 12 13  1  0
 13 14  1  0
 14 15  1  0
 15 16  1  0
 16 17  1  0
  9 18  2  0
  4 19  2  0
 19 20  1  0
 20 21  2  0
 21 22  1  0
 22 23  2  0
 23 24  1  0
 24 25  2  0
 25 26  1  0
 26 27  2  0
 27 28  1  0
 28 29  1  0
 28 30  2  0
 23 31  1  0
 31 32  2  0
 32  2  1  0
 18  5  1  0
 32 20  1  0
 17 12  1  0
 30 24  1  0
  3 33  1  0
  3 34  1  0
  6 35  1  0
  7 36  1  0
  8 37  1  0
 13 38  1  0
 13 39  1  0
 14 40  1  0
 14 41  1  0
 15 42  1  0
 16 43  1  0
 16 44  1  0
 17 45  1  0
 17 46  1  0
 18 47  1  0
 21 48  1  0
 22 49  1  0
 25 50  1  0
 26 51  1  0
 27 52  1  0
 30 53  1  0
 31 54  1  0
M  END
>  <smiles>  (38) 
O=C1CC(c2cccc(C(=O)N3CCNCC3)c2)=Nc2ccc(-c3cccc(F)c3)cc21

>  <score_type>  (38) 
oracle

>  <origin>  (38) 
autodockgpu

>  <m_score__min__energy>  (38) 
-7.9900000000000002

>  <m_primary>  (38) 
energy

>  <rmsd>  (38) 
11.806122111899711

>  <m_score__min__rmsd>  (38) 
11.806122111899711

>  <meeko>  (38) 
{"free_energy": -7.97, "intermolecular_energy": -8.86, "internal_energy": -1.01, "cluster_size": 35, "cluster_id": 1, "rank_in_cluster": 14}

>  <energy>  (38) 
-7.74

>  <cluster_rmsd>  (38) 
1.78

>  <cluster>  (38) 
2

$$$$

     RDKit          3D

 54 58  0  0  0  0  0  0  0  0999 V2000
  142.0020   79.1170  223.5080 O   0  0  0  0  0  0  0  0  0  0  0  0
  140.7690   79.0160  223.2850 C   0  0  0  0  0  0  0  0  0  0  0  0
  139.8850   80.1000  223.7680 C   0  0  0  0  0  0  0  0  0  0  0  0
  138.4580   79.8920  223.4060 C   0  0  0  0  0  0  0  0  0  0  0  0
  137.5390   80.9890  223.7700 C   0  0  0  0  0  0  0  0  0  0  0  0
  136.7260   81.5840  222.8110 C   0  0  0  0  0  0  0  0  0  0  0  0
  135.8210   82.5680  223.1080 C   0  0  0  0  0  0  0  0  0  0  0  0
  135.6870   83.0080  224.3970 C   0  0  0  0  0  0  0  0  0  0  0  0
  136.5040   82.4070  225.3500 C   0  0  0  0  0  0  0  0  0  0  0  0
  136.3270   82.8590  226.7520 C   0  0  0  0  0  0  0  0  0  0  0  0
  136.9360   83.8350  227.2080 O   0  0  0  0  0  0  0  0  0  0  0  0
  135.3910   82.0600  227.5010 N   0  0  0  0  0  0  0  0  0  0  0  0
  134.7240   80.9120  226.8980 C   0  0  0  0  0  0  0  0  0  0  0  0
  133.3930   80.8110  227.6310 C   0  0  0  0  0  0  0  0  0  0  0  0
  133.6080   80.5070  229.0360 N   0  0  0  0  0  0  0  0  0  0  0  0
  134.4840   81.4040  229.7110 C   0  0  0  0  0  0  0  0  0  0  0  0
  135.1460   82.4540  228.8670 C   0  0  0  0  0  0  0  0  0  0  0  0
  137.4110   81.4300  225.0780 C   0  0  0  0  0  0  0  0  0  0  0  0
  138.0240   78.8590  222.7630 N   0  0  0  0  0  0  0  0  0  0  0  0
  138.8660   77.7950  222.3150 C   0  0  0  0  0  0  0  0  0  0  0  0
  138.4110   76.6940  221.6380 C   0  0  0  0  0  0  0  0  0  0  0  0
  139.2920   75.6880  221.2230 C   0  0  0  0  0  0  0  0  0  0  0  0
  140.6320   75.7770  221.4820 C   0  0  0  0  0  0  0  0  0  0  0  0
  141.6390   74.8130  221.0740 C   0  0  0  0  0  0  0  0  0  0  0  0
  142.8020   75.2670  220.4330 C   0  0  0  0  0  0  0  0  0  0  0  0
  143.7730   74.3940  219.9990 C   0  0  0  0  0  0  0  0  0  0  0  0
  143.6100   73.0450  220.1930 C   0  0  0  0  0  0  0  0  0  0  0  0
  142.4660   72.5740  220.8290 C   0  0  0  0  0  0  0  0  0  0  0  0
  142.3130   71.2240  221.0210 F   0  0  0  0  0  0  0  0  0  0  0  0
  141.4880   73.4570  221.2650 C   0  0  0  0  0  0  0  0  0  0  0  0
  141.0750   76.8880  222.1660 C   0  0  0  0  0  0  0  0  0  0  0  0
  140.2090   77.8810  222.5780 C   0  0  0  0  0  0  0  0  0  0  0  0
  139.9641   80.1545  224.8638 H   0  0  0  0  0  0  0  0  0  0  0  0
  140.2140   81.0320  223.2852 H   0  0  0  0  0  0  0  0  0  0  0  0
  136.8139   81.2491  221.7669 H   0  0  0  0  0  0  0  0  0  0  0  0
  135.2018   83.0047  222.3106 H   0  0  0  0  0  0  0  0  0  0  0  0
  134.9695   83.7971  224.6663 H   0  0  0  0  0  0  0  0  0  0  0  0
  134.5632   81.0773  225.8224 H   0  0  0  0  0  0  0  0  0  0  0  0
  135.3190   79.9909  226.9856 H   0  0  0  0  0  0  0  0  0  0  0  0
  132.8589   81.7688  227.5454 H   0  0  0  0  0  0  0  0  0  0  0  0
  132.7981   80.0036  227.1791 H   0  0  0  0  0  0  0  0  0  0  0  0
  133.9540   79.5150  229.1500 H   0  0  0  0  0  0  0  0  0  0  0  0
  133.9010   81.9188  230.4889 H   0  0  0  0  0  0  0  0  0  0  0  0
  135.3036   80.7783  230.0941 H   0  0  0  0  0  0  0  0  0  0  0  0
  134.4994   83.3439  228.8567 H   0  0  0  0  0  0  0  0  0  0  0  0
  136.1312   82.6417  229.3188 H   0  0  0  0  0  0  0  0  0  0  0  0
  138.0296   80.9992  225.8790 H   0  0  0  0  0  0  0  0  0  0  0  0
  137.3376   76.5991  221.4173 H   0  0  0  0  0  0  0  0  0  0  0  0
  138.9011   74.8141  220.6813 H   0  0  0  0  0  0  0  0  0  0  0  0
  142.9406   76.3465  220.2737 H   0  0  0  0  0  0  0  0  0  0  0  0
  144.6755   74.7754  219.4990 H   0  0  0  0  0  0  0  0  0  0  0  0
  144.3802   72.3398  219.8472 H   0  0  0  0  0  0  0  0  0  0  0  0
  140.5874   73.0721  221.7658 H   0  0  0  0  0  0  0  0  0  0  0  0
  142.1475   76.9864  222.3898 H   0  0  0  0  0  0  0  0  0  0  0  0
  1  2  2  0
  2  3  1  0
  3  4  1  0
  4  5  1  0
  5  6  2  0
  6  7  1  0
  7  8  2  0
  8  9  1  0
  9 10  1  0
 10 11  2  0
 10 12  1  0
 12 13  1  0
 13 14  1  0
 14 15  1  0
 15 16  1  0
 16 17  1  0
  9 18  2  0
  4 19  2  0
 19 20  1  0
 20 21  2  0
 21 22  1  0
 22 23  2  0
 23 24  1  0
 24 25  2  0
 25 26  1  0
 26 27  2  0
 27 28  1  0
 28 29  1  0
 28 30  2  0
 23 31  1  0
 31 32  2  0
 32  2  1  0
 18  5  1  0
 32 20  1  0
 17 12  1  0
 30 24  1  0
  3 33  1  0
  3 34  1  0
  6 35  1  0
  7 36  1  0
  8 37  1  0
 13 38  1  0
 13 39  1  0
 14 40  1  0
 14 41  1  0
 15 42  1  0
 16 43  1  0
 16 44  1  0
 17 45  1  0
 17 46  1  0
 18 47  1  0
 21 48  1  0
 22 49  1  0
 25 50  1  0
 26 51  1  0
 27 52  1  0
 30 53  1  0
 31 54  1  0
M  END
>  <smiles>  (39) 
O=C1CC(c2cccc(C(=O)N3CCNCC3)c2)=Nc2ccc(-c3cccc(F)c3)cc21

>  <score_type>  (39) 
oracle

>  <origin>  (39) 
autodockgpu

>  <m_score__min__energy>  (39) 
-7.9900000000000002

>  <m_primary>  (39) 
energy

>  <rmsd>  (39) 
11.78756401710258

>  <m_score__min__rmsd>  (39) 
11.78756401710258

>  <meeko>  (39) 
{"free_energy": -7.89, "intermolecular_energy": -8.78, "internal_energy": -1.01, "cluster_size": 35, "cluster_id": 1, "rank_in_cluster": 34}

>  <energy>  (39) 
-7.91

>  <cluster_rmsd>  (39) 
0.0

>  <cluster>  (39) 
3

$$$$

     RDKit          3D

 54 58  0  0  0  0  0  0  0  0999 V2000
  142.0790   79.2610  222.9250 O   0  0  0  0  0  0  0  0  0  0  0  0
  140.8300   79.1280  222.9860 C   0  0  0  0  0  0  0  0  0  0  0  0
  140.0310   80.2840  223.4480 C   0  0  0  0  0  0  0  0  0  0  0  0
  138.5680   80.0240  223.4330 C   0  0  0  0  0  0  0  0  0  0  0  0
  137.7090   81.1720  223.7860 C   0  0  0  0  0  0  0  0  0  0  0  0
  137.0340   81.8860  222.8020 C   0  0  0  0  0  0  0  0  0  0  0  0
  136.1870   82.9240  223.0820 C   0  0  0  0  0  0  0  0  0  0  0  0
  135.9730   83.3020  224.3810 C   0  0  0  0  0  0  0  0  0  0  0  0
  136.6530   82.5820  225.3590 C   0  0  0  0  0  0  0  0  0  0  0  0
  136.3880   82.9690  226.7670 C   0  0  0  0  0  0  0  0  0  0  0  0
  136.9460   83.9390  227.2960 O   0  0  0  0  0  0  0  0  0  0  0  0
  135.4350   82.1160  227.4290 N   0  0  0  0  0  0  0  0  0  0  0  0
  134.8320   80.9790  226.7430 C   0  0  0  0  0  0  0  0  0  0  0  0
  133.4660   80.8140  227.3960 C   0  0  0  0  0  0  0  0  0  0  0  0
  133.6130   80.4560  228.7980 N   0  0  0  0  0  0  0  0  0  0  0  0
  134.4270   81.3440  229.5570 C   0  0  0  0  0  0  0  0  0  0  0  0
  135.1060   82.4450  228.7940 C   0  0  0  0  0  0  0  0  0  0  0  0
  137.5000   81.5490  225.1040 C   0  0  0  0  0  0  0  0  0  0  0  0
  138.0420   78.8960  223.0830 N   0  0  0  0  0  0  0  0  0  0  0  0
  138.8070   77.7660  222.6590 C   0  0  0  0  0  0  0  0  0  0  0  0
  138.2580   76.5650  222.2920 C   0  0  0  0  0  0  0  0  0  0  0  0
  139.0650   75.4980  221.8820 C   0  0  0  0  0  0  0  0  0  0  0  0
  140.4260   75.6240  221.8370 C   0  0  0  0  0  0  0  0  0  0  0  0
  141.3580   74.5980  221.4000 C   0  0  0  0  0  0  0  0  0  0  0  0
  141.0260   73.2470  221.5870 C   0  0  0  0  0  0  0  0  0  0  0  0
  141.8850   72.2370  221.2190 C   0  0  0  0  0  0  0  0  0  0  0  0
  143.0970   72.5470  220.6540 C   0  0  0  0  0  0  0  0  0  0  0  0
  143.4440   73.8790  220.4570 C   0  0  0  0  0  0  0  0  0  0  0  0
  144.6560   74.1810  219.8900 F   0  0  0  0  0  0  0  0  0  0  0  0
  142.5760   74.8970  220.8300 C   0  0  0  0  0  0  0  0  0  0  0  0
  140.9660   76.8350  222.2110 C   0  0  0  0  0  0  0  0  0  0  0  0
  140.1720   77.8890  222.6170 C   0  0  0  0  0  0  0  0  0  0  0  0
  140.3326   80.5293  224.4770 H   0  0  0  0  0  0  0  0  0  0  0  0
  140.2239   81.1149  222.7535 H   0  0  0  0  0  0  0  0  0  0  0  0
  137.1879   81.6035  221.7501 H   0  0  0  0  0  0  0  0  0  0  0  0
  135.6781   83.4547  222.2638 H   0  0  0  0  0  0  0  0  0  0  0  0
  135.2984   84.1320  224.6381 H   0  0  0  0  0  0  0  0  0  0  0  0
  134.7256   81.1864  225.6680 H   0  0  0  0  0  0  0  0  0  0  0  0
  135.4455   80.0697  226.8257 H   0  0  0  0  0  0  0  0  0  0  0  0
  132.9115   81.7610  227.3202 H   0  0  0  0  0  0  0  0  0  0  0  0
  132.9184   80.0122  226.8790 H   0  0  0  0  0  0  0  0  0  0  0  0
  133.9790   79.4690  228.8890 H   0  0  0  0  0  0  0  0  0  0  0  0
  133.7894   81.8110  230.3221 H   0  0  0  0  0  0  0  0  0  0  0  0
  135.2407   80.7226  229.9592 H   0  0  0  0  0  0  0  0  0  0  0  0
  134.4376   83.3186  228.7847 H   0  0  0  0  0  0  0  0  0  0  0  0
  136.0601   82.6367  229.3068 H   0  0  0  0  0  0  0  0  0  0  0  0
  138.0085   81.0237  225.9258 H   0  0  0  0  0  0  0  0  0  0  0  0
  137.1657   76.4379  222.3202 H   0  0  0  0  0  0  0  0  0  0  0  0
  138.5984   74.5450  221.5920 H   0  0  0  0  0  0  0  0  0  0  0  0
  140.0564   72.9897  222.0383 H   0  0  0  0  0  0  0  0  0  0  0  0
  141.6017   71.1859  221.3768 H   0  0  0  0  0  0  0  0  0  0  0  0
  143.7903   71.7457  220.3586 H   0  0  0  0  0  0  0  0  0  0  0  0
  142.8624   75.9469  220.6696 H   0  0  0  0  0  0  0  0  0  0  0  0
  142.0579   76.9655  222.1855 H   0  0  0  0  0  0  0  0  0  0  0  0
  1  2  2  0
  2  3  1  0
  3  4  1  0
  4  5  1  0
  5  6  2  0
  6  7  1  0
  7  8  2  0
  8  9  1  0
  9 10  1  0
 10 11  2  0
 10 12  1  0
 12 13  1  0
 13 14  1  0
 14 15  1  0
 15 16  1  0
 16 17  1  0
  9 18  2  0
  4 19  2  0
 19 20  1  0
 20 21  2  0
 21 22  1  0
 22 23  2  0
 23 24  1  0
 24 25  2  0
 25 26  1  0
 26 27  2  0
 27 28  1  0
 28 29  1  0
 28 30  2  0
 23 31  1  0
 31 32  2  0
 32  2  1  0
 18  5  1  0
 32 20  1  0
 17 12  1  0
 30 24  1  0
  3 33  1  0
  3 34  1  0
  6 35  1  0
  7 36  1  0
  8 37  1  0
 13 38  1  0
 13 39  1  0
 14 40  1  0
 14 41  1  0
 15 42  1  0
 16 43  1  0
 16 44  1  0
 17 45  1  0
 17 46  1  0
 18 47  1  0
 21 48  1  0
 22 49  1  0
 25 50  1  0
 26 51  1  0
 27 52  1  0
 30 53  1  0
 31 54  1  0
M  END
>  <smiles>  (40) 
O=C1CC(c2cccc(C(=O)N3CCNCC3)c2)=Nc2ccc(-c3cccc(F)c3)cc21

>  <score_type>  (40) 
oracle

>  <origin>  (40) 
autodockgpu

>  <m_score__min__energy>  (40) 
-7.9900000000000002

>  <m_primary>  (40) 
energy

>  <rmsd>  (40) 
11.806117640079394

>  <m_score__min__rmsd>  (40) 
11.806117640079394

>  <meeko>  (40) 
{"free_energy": -7.97, "intermolecular_energy": -8.87, "internal_energy": -0.99, "cluster_size": 35, "cluster_id": 1, "rank_in_cluster": 12}

>  <energy>  (40) 
-7.9

>  <cluster_rmsd>  (40) 
0.07

>  <cluster>  (40) 
3

$$$$

     RDKit          3D

 54 58  0  0  0  0  0  0  0  0999 V2000
  142.0180   79.2240  223.0820 O   0  0  0  0  0  0  0  0  0  0  0  0
  140.7640   79.1350  223.1000 C   0  0  0  0  0  0  0  0  0  0  0  0
  139.9910   80.3120  223.5510 C   0  0  0  0  0  0  0  0  0  0  0  0
  138.5210   80.1040  223.4860 C   0  0  0  0  0  0  0  0  0  0  0  0
  137.6910   81.2770  223.8260 C   0  0  0  0  0  0  0  0  0  0  0  0
  137.0630   82.0180  222.8300 C   0  0  0  0  0  0  0  0  0  0  0  0
  136.2430   83.0810  223.0980 C   0  0  0  0  0  0  0  0  0  0  0  0
  136.0100   83.4570  224.3930 C   0  0  0  0  0  0  0  0  0  0  0  0
  136.6430   82.7110  225.3820 C   0  0  0  0  0  0  0  0  0  0  0  0
  136.3560   83.0970  226.7860 C   0  0  0  0  0  0  0  0  0  0  0  0
  136.8950   84.0760  227.3190 O   0  0  0  0  0  0  0  0  0  0  0  0
  135.4060   82.2320  227.4390 N   0  0  0  0  0  0  0  0  0  0  0  0
  134.8270   81.0860  226.7490 C   0  0  0  0  0  0  0  0  0  0  0  0
  133.4560   80.9050  227.3860 C   0  0  0  0  0  0  0  0  0  0  0  0
  133.5910   80.5520  228.7900 N   0  0  0  0  0  0  0  0  0  0  0  0
  134.3840   81.4520  229.5570 C   0  0  0  0  0  0  0  0  0  0  0  0
  135.0570   82.5610  228.8000 C   0  0  0  0  0  0  0  0  0  0  0  0
  137.4620   81.6520  225.1410 C   0  0  0  0  0  0  0  0  0  0  0  0
  137.9690   78.9990  223.1030 N   0  0  0  0  0  0  0  0  0  0  0  0
  138.7070   77.8480  222.6900 C   0  0  0  0  0  0  0  0  0  0  0  0
  138.1290   76.6720  222.2890 C   0  0  0  0  0  0  0  0  0  0  0  0
  138.9130   75.5820  221.8910 C   0  0  0  0  0  0  0  0  0  0  0  0
  140.2780   75.6610  221.8920 C   0  0  0  0  0  0  0  0  0  0  0  0
  141.1870   74.6090  221.4720 C   0  0  0  0  0  0  0  0  0  0  0  0
  140.8580   73.2710  221.7420 C   0  0  0  0  0  0  0  0  0  0  0  0
  141.6980   72.2390  221.3930 C   0  0  0  0  0  0  0  0  0  0  0  0
  142.8880   72.5120  220.7640 C   0  0  0  0  0  0  0  0  0  0  0  0
  143.2320   73.8310  220.4860 C   0  0  0  0  0  0  0  0  0  0  0  0
  144.4210   74.0950  219.8560 F   0  0  0  0  0  0  0  0  0  0  0  0
  142.3820   74.8710  220.8400 C   0  0  0  0  0  0  0  0  0  0  0  0
  140.8460   76.8480  222.3000 C   0  0  0  0  0  0  0  0  0  0  0  0
  140.0770   77.9240  222.6930 C   0  0  0  0  0  0  0  0  0  0  0  0
  140.2674   80.5343  224.5922 H   0  0  0  0  0  0  0  0  0  0  0  0
  140.2348   81.1436  222.8735 H   0  0  0  0  0  0  0  0  0  0  0  0
  137.2329   81.7372  221.7801 H   0  0  0  0  0  0  0  0  0  0  0  0
  135.7711   83.6332  222.2719 H   0  0  0  0  0  0  0  0  0  0  0  0
  135.3554   84.3060  224.6394 H   0  0  0  0  0  0  0  0  0  0  0  0
  134.7309   81.2892  225.6722 H   0  0  0  0  0  0  0  0  0  0  0  0
  135.4514   80.1851  226.8411 H   0  0  0  0  0  0  0  0  0  0  0  0
  132.8904   81.8446  227.3015 H   0  0  0  0  0  0  0  0  0  0  0  0
  132.9248   80.0952  226.8644 H   0  0  0  0  0  0  0  0  0  0  0  0
  133.9690   79.5700  228.8880 H   0  0  0  0  0  0  0  0  0  0  0  0
  133.7312   81.9115  230.3138 H   0  0  0  0  0  0  0  0  0  0  0  0
  135.2012   80.8423  229.9698 H   0  0  0  0  0  0  0  0  0  0  0  0
  134.3771   83.4255  228.7807 H   0  0  0  0  0  0  0  0  0  0  0  0
  136.0021   82.7679  229.3235 H   0  0  0  0  0  0  0  0  0  0  0  0
  137.9324   81.1050  225.9714 H   0  0  0  0  0  0  0  0  0  0  0  0
  137.0327   76.5828  222.2796 H   0  0  0  0  0  0  0  0  0  0  0  0
  138.4239   74.6494  221.5732 H   0  0  0  0  0  0  0  0  0  0  0  0
  139.9064   73.0426  222.2443 H   0  0  0  0  0  0  0  0  0  0  0  0
  141.4177   71.1991  221.6169 H   0  0  0  0  0  0  0  0  0  0  0  0
  143.5652   71.6924  220.4817 H   0  0  0  0  0  0  0  0  0  0  0  0
  142.6651   75.9097  220.6142 H   0  0  0  0  0  0  0  0  0  0  0  0
  141.9420   76.9404  222.3128 H   0  0  0  0  0  0  0  0  0  0  0  0
  1  2  2  0
  2  3  1  0
  3  4  1  0
  4  5  1  0
  5  6  2  0
  6  7  1  0
  7  8  2  0
  8  9  1  0
  9 10  1  0
 10 11  2  0
 10 12  1  0
 12 13  1  0
 13 14  1  0
 14 15  1  0
 15 16  1  0
 16 17  1  0
  9 18  2  0
  4 19  2  0
 19 20  1  0
 20 21  2  0
 21 22  1  0
 22 23  2  0
 23 24  1  0
 24 25  2  0
 25 26  1  0
 26 27  2  0
 27 28  1  0
 28 29  1  0
 28 30  2  0
 23 31  1  0
 31 32  2  0
 32  2  1  0
 18  5  1  0
 32 20  1  0
 17 12  1  0
 30 24  1  0
  3 33  1  0
  3 34  1  0
  6 35  1  0
  7 36  1  0
  8 37  1  0
 13 38  1  0
 13 39  1  0
 14 40  1  0
 14 41  1  0
 15 42  1  0
 16 43  1  0
 16 44  1  0
 17 45  1  0
 17 46  1  0
 18 47  1  0
 21 48  1  0
 22 49  1  0
 25 50  1  0
 26 51  1  0
 27 52  1  0
 30 53  1  0
 31 54  1  0
M  END
>  <smiles>  (41) 
O=C1CC(c2cccc(C(=O)N3CCNCC3)c2)=Nc2ccc(-c3cccc(F)c3)cc21

>  <score_type>  (41) 
oracle

>  <origin>  (41) 
autodockgpu

>  <m_score__min__energy>  (41) 
-7.9900000000000002

>  <m_primary>  (41) 
energy

>  <rmsd>  (41) 
11.8668147229027

>  <m_score__min__rmsd>  (41) 
11.8668147229027

>  <meeko>  (41) 
{"free_energy": -7.97, "intermolecular_energy": -8.87, "internal_energy": -0.98, "cluster_size": 35, "cluster_id": 1, "rank_in_cluster": 13}

>  <energy>  (41) 
-7.71

>  <cluster_rmsd>  (41) 
0.45

>  <cluster>  (41) 
3

$$$$

     RDKit          3D

 54 58  0  0  0  0  0  0  0  0999 V2000
  141.4330   81.3010  223.9410 O   0  0  0  0  0  0  0  0  0  0  0  0
  140.7740   80.5060  223.2240 C   0  0  0  0  0  0  0  0  0  0  0  0
  141.4990   79.7490  222.1800 C   0  0  0  0  0  0  0  0  0  0  0  0
  140.6260   78.8100  221.4290 C   0  0  0  0  0  0  0  0  0  0  0  0
  141.3090   77.9500  220.4410 C   0  0  0  0  0  0  0  0  0  0  0  0
  142.1860   78.4940  219.5090 C   0  0  0  0  0  0  0  0  0  0  0  0
  142.8820   77.7340  218.6080 C   0  0  0  0  0  0  0  0  0  0  0  0
  142.7300   76.3730  218.5990 C   0  0  0  0  0  0  0  0  0  0  0  0
  141.8500   75.8380  219.5350 C   0  0  0  0  0  0  0  0  0  0  0  0
  141.7190   74.3600  219.5470 C   0  0  0  0  0  0  0  0  0  0  0  0
  140.6670   73.7930  219.2240 O   0  0  0  0  0  0  0  0  0  0  0  0
  142.9180   73.6780  219.9630 N   0  0  0  0  0  0  0  0  0  0  0  0
  144.1150   74.4170  220.3460 C   0  0  0  0  0  0  0  0  0  0  0  0
  145.2700   73.4880  219.9990 C   0  0  0  0  0  0  0  0  0  0  0  0
  145.2160   72.2840  220.8140 N   0  0  0  0  0  0  0  0  0  0  0  0
  143.9770   71.5850  220.7600 C   0  0  0  0  0  0  0  0  0  0  0  0
  142.8750   72.2360  219.9750 C   0  0  0  0  0  0  0  0  0  0  0  0
  141.1470   76.5730  220.4380 C   0  0  0  0  0  0  0  0  0  0  0  0
  139.3570   78.6830  221.6410 N   0  0  0  0  0  0  0  0  0  0  0  0
  138.6430   79.4280  222.6300 C   0  0  0  0  0  0  0  0  0  0  0  0
  137.2970   79.3050  222.8560 C   0  0  0  0  0  0  0  0  0  0  0  0
  136.6590   80.0620  223.8460 C   0  0  0  0  0  0  0  0  0  0  0  0
  137.3630   80.9480  224.6140 C   0  0  0  0  0  0  0  0  0  0  0  0
  136.8140   81.7610  225.6860 C   0  0  0  0  0  0  0  0  0  0  0  0
  136.5630   83.1220  225.4540 C   0  0  0  0  0  0  0  0  0  0  0  0
  136.0730   83.9420  226.4430 C   0  0  0  0  0  0  0  0  0  0  0  0
  135.8190   83.4280  227.6910 C   0  0  0  0  0  0  0  0  0  0  0  0
  136.0590   82.0810  227.9410 C   0  0  0  0  0  0  0  0  0  0  0  0
  135.8000   81.5740  229.1890 F   0  0  0  0  0  0  0  0  0  0  0  0
  136.5540   81.2550  226.9410 C   0  0  0  0  0  0  0  0  0  0  0  0
  138.7150   81.0650  224.3740 C   0  0  0  0  0  0  0  0  0  0  0  0
  139.3460   80.3200  223.3990 C   0  0  0  0  0  0  0  0  0  0  0  0
  141.9367   80.4649  221.4688 H   0  0  0  0  0  0  0  0  0  0  0  0
  142.2690   79.1479  222.6857 H   0  0  0  0  0  0  0  0  0  0  0  0
  142.3269   79.5849  219.4951 H   0  0  0  0  0  0  0  0  0  0  0  0
  143.5632   78.2163  217.8915 H   0  0  0  0  0  0  0  0  0  0  0  0
  143.2757   75.7352  217.8881 H   0  0  0  0  0  0  0  0  0  0  0  0
  144.1890   75.3566  219.7787 H   0  0  0  0  0  0  0  0  0  0  0  0
  144.1098   74.6951  221.4102 H   0  0  0  0  0  0  0  0  0  0  0  0
  145.2046   73.2097  218.9368 H   0  0  0  0  0  0  0  0  0  0  0  0
  146.2184   74.0094  220.1958 H   0  0  0  0  0  0  0  0  0  0  0  0
  145.4580   72.5080  221.8180 H   0  0  0  0  0  0  0  0  0  0  0  0
  144.1688   70.5987  220.3123 H   0  0  0  0  0  0  0  0  0  0  0  0
  143.6153   71.5525  221.7983 H   0  0  0  0  0  0  0  0  0  0  0  0
  142.9388   71.8820  218.9355 H   0  0  0  0  0  0  0  0  0  0  0  0
  141.9327   71.9560  220.4687 H   0  0  0  0  0  0  0  0  0  0  0  0
  140.4649   76.0857  221.1503 H   0  0  0  0  0  0  0  0  0  0  0  0
  136.7085   78.6004  222.2500 H   0  0  0  0  0  0  0  0  0  0  0  0
  135.5776   79.9426  224.0082 H   0  0  0  0  0  0  0  0  0  0  0  0
  136.7630   83.5428  224.4575 H   0  0  0  0  0  0  0  0  0  0  0  0
  135.8851   85.0058  226.2354 H   0  0  0  0  0  0  0  0  0  0  0  0
  135.4281   84.0777  228.4880 H   0  0  0  0  0  0  0  0  0  0  0  0
  136.7396   80.1914  227.1515 H   0  0  0  0  0  0  0  0  0  0  0  0
  139.3066   81.7708  224.9755 H   0  0  0  0  0  0  0  0  0  0  0  0
  1  2  2  0
  2  3  1  0
  3  4  1  0
  4  5  1  0
  5  6  2  0
  6  7  1  0
  7  8  2  0
  8  9  1  0
  9 10  1  0
 10 11  2  0
 10 12  1  0
 12 13  1  0
 13 14  1  0
 14 15  1  0
 15 16  1  0
 16 17  1  0
  9 18  2  0
  4 19  2  0
 19 20  1  0
 20 21  2  0
 21 22  1  0
 22 23  2  0
 23 24  1  0
 24 25  2  0
 25 26  1  0
 26 27  2  0
 27 28  1  0
 28 29  1  0
 28 30  2  0
 23 31  1  0
 31 32  2  0
 32  2  1  0
 18  5  1  0
 32 20  1  0
 17 12  1  0
 30 24  1  0
  3 33  1  0
  3 34  1  0
  6 35  1  0
  7 36  1  0
  8 37  1  0
 13 38  1  0
 13 39  1  0
 14 40  1  0
 14 41  1  0
 15 42  1  0
 16 43  1  0
 16 44  1  0
 17 45  1  0
 17 46  1  0
 18 47  1  0
 21 48  1  0
 22 49  1  0
 25 50  1  0
 26 51  1  0
 27 52  1  0
 30 53  1  0
 31 54  1  0
M  END
>  <smiles>  (42) 
O=C1CC(c2cccc(C(=O)N3CCNCC3)c2)=Nc2ccc(-c3cccc(F)c3)cc21

>  <score_type>  (42) 
oracle

>  <origin>  (42) 
autodockgpu

>  <m_score__min__energy>  (42) 
-7.9900000000000002

>  <m_primary>  (42) 
energy

>  <rmsd>  (42) 
8.390635758171408

>  <m_score__min__rmsd>  (42) 
8.390635758171408

>  <meeko>  (42) 
{"free_energy": -7.74, "intermolecular_energy": -8.64, "internal_energy": -0.86, "cluster_size": 3, "cluster_id": 2, "rank_in_cluster": 3}

>  <energy>  (42) 
-7.76

>  <cluster_rmsd>  (42) 
0.0

>  <cluster>  (42) 
4

$$$$

     RDKit          3D

 54 58  0  0  0  0  0  0  0  0999 V2000
  142.0880   79.2500  222.9460 O   0  0  0  0  0  0  0  0  0  0  0  0
  140.8370   79.1410  222.9980 C   0  0  0  0  0  0  0  0  0  0  0  0
  140.0560   80.3120  223.4530 C   0  0  0  0  0  0  0  0  0  0  0  0
  138.5890   80.0780  223.4300 C   0  0  0  0  0  0  0  0  0  0  0  0
  137.7490   81.2420  223.7750 C   0  0  0  0  0  0  0  0  0  0  0  0
  137.1150   81.9830  222.7830 C   0  0  0  0  0  0  0  0  0  0  0  0
  136.2860   83.0380  223.0550 C   0  0  0  0  0  0  0  0  0  0  0  0
  136.0480   83.4050  224.3520 C   0  0  0  0  0  0  0  0  0  0  0  0
  136.6860   82.6590  225.3380 C   0  0  0  0  0  0  0  0  0  0  0  0
  136.3950   83.0350  226.7440 C   0  0  0  0  0  0  0  0  0  0  0  0
  136.9370   84.0070  227.2870 O   0  0  0  0  0  0  0  0  0  0  0  0
  135.4370   82.1720  227.3850 N   0  0  0  0  0  0  0  0  0  0  0  0
  134.8540   81.0350  226.6830 C   0  0  0  0  0  0  0  0  0  0  0  0
  133.4790   80.8570  227.3120 C   0  0  0  0  0  0  0  0  0  0  0  0
  133.6050   80.4910  228.7140 N   0  0  0  0  0  0  0  0  0  0  0  0
  134.3990   81.3810  229.4910 C   0  0  0  0  0  0  0  0  0  0  0  0
  135.0830   82.4910  228.7470 C   0  0  0  0  0  0  0  0  0  0  0  0
  137.5150   81.6080  225.0920 C   0  0  0  0  0  0  0  0  0  0  0  0
  138.0450   78.9590  223.0780 N   0  0  0  0  0  0  0  0  0  0  0  0
  138.7920   77.8140  222.6610 C   0  0  0  0  0  0  0  0  0  0  0  0
  138.2240   76.6230  222.2930 C   0  0  0  0  0  0  0  0  0  0  0  0
  139.0140   75.5410  221.8900 C   0  0  0  0  0  0  0  0  0  0  0  0
  140.3770   75.6420  221.8530 C   0  0  0  0  0  0  0  0  0  0  0  0
  141.2930   74.5990  221.4240 C   0  0  0  0  0  0  0  0  0  0  0  0
  140.9490   73.2550  221.6380 C   0  0  0  0  0  0  0  0  0  0  0  0
  141.7940   72.2300  221.2790 C   0  0  0  0  0  0  0  0  0  0  0  0
  143.0030   72.5170  220.6950 C   0  0  0  0  0  0  0  0  0  0  0  0
  143.3610   73.8420  220.4710 C   0  0  0  0  0  0  0  0  0  0  0  0
  144.5700   74.1200  219.8850 F   0  0  0  0  0  0  0  0  0  0  0  0
  142.5080   74.8740  220.8360 C   0  0  0  0  0  0  0  0  0  0  0  0
  140.9370   76.8440  222.2290 C   0  0  0  0  0  0  0  0  0  0  0  0
  140.1600   77.9130  222.6270 C   0  0  0  0  0  0  0  0  0  0  0  0
  140.3559   80.5541  224.4833 H   0  0  0  0  0  0  0  0  0  0  0  0
  140.2676   81.1379  222.7579 H   0  0  0  0  0  0  0  0  0  0  0  0
  137.2877   81.7087  221.7318 H   0  0  0  0  0  0  0  0  0  0  0  0
  135.8111   83.5908  222.2311 H   0  0  0  0  0  0  0  0  0  0  0  0
  135.3859   84.2471  224.6021 H   0  0  0  0  0  0  0  0  0  0  0  0
  134.7641   81.2476  225.6075 H   0  0  0  0  0  0  0  0  0  0  0  0
  135.4725   80.1296  226.7709 H   0  0  0  0  0  0  0  0  0  0  0  0
  132.9196   81.8008  227.2329 H   0  0  0  0  0  0  0  0  0  0  0  0
  132.9454   80.0550  226.7810 H   0  0  0  0  0  0  0  0  0  0  0  0
  133.9760   79.5060  228.8060 H   0  0  0  0  0  0  0  0  0  0  0  0
  133.7447   81.8391  230.2473 H   0  0  0  0  0  0  0  0  0  0  0  0
  135.2105   80.7632  229.9030 H   0  0  0  0  0  0  0  0  0  0  0  0
  134.4090   83.3602  228.7318 H   0  0  0  0  0  0  0  0  0  0  0  0
  136.0269   82.6863  229.2770 H   0  0  0  0  0  0  0  0  0  0  0  0
  137.9892   81.0607  225.9200 H   0  0  0  0  0  0  0  0  0  0  0  0
  137.1295   76.5157  222.3147 H   0  0  0  0  0  0  0  0  0  0  0  0
  138.5320   74.5961  221.5989 H   0  0  0  0  0  0  0  0  0  0  0  0
  139.9815   73.0156  222.1035 H   0  0  0  0  0  0  0  0  0  0  0  0
  141.5020   71.1849  221.4592 H   0  0  0  0  0  0  0  0  0  0  0  0
  143.6846   71.7035  220.4059 H   0  0  0  0  0  0  0  0  0  0  0  0
  142.8038   75.9178  220.6547 H   0  0  0  0  0  0  0  0  0  0  0  0
  142.0313   76.9541  222.2114 H   0  0  0  0  0  0  0  0  0  0  0  0
  1  2  2  0
  2  3  1  0
  3  4  1  0
  4  5  1  0
  5  6  2  0
  6  7  1  0
  7  8  2  0
  8  9  1  0
  9 10  1  0
 10 11  2  0
 10 12  1  0
 12 13  1  0
 13 14  1  0
 14 15  1  0
 15 16  1  0
 16 17  1  0
  9 18  2  0
  4 19  2  0
 19 20  1  0
 20 21  2  0
 21 22  1  0
 22 23  2  0
 23 24  1  0
 24 25  2  0
 25 26  1  0
 26 27  2  0
 27 28  1  0
 28 29  1  0
 28 30  2  0
 23 31  1  0
 31 32  2  0
 32  2  1  0
 18  5  1  0
 32 20  1  0
 17 12  1  0
 30 24  1  0
  3 33  1  0
  3 34  1  0
  6 35  1  0
  7 36  1  0
  8 37  1  0
 13 38  1  0
 13 39  1  0
 14 40  1  0
 14 41  1  0
 15 42  1  0
 16 43  1  0
 16 44  1  0
 17 45  1  0
 17 46  1  0
 18 47  1  0
 21 48  1  0
 22 49  1  0
 25 50  1  0
 26 51  1  0
 27 52  1  0
 30 53  1  0
 31 54  1  0
M  END
>  <smiles>  (43) 
O=C1CC(c2cccc(C(=O)N3CCNCC3)c2)=Nc2ccc(-c3cccc(F)c3)cc21

>  <score_type>  (43) 
oracle

>  <origin>  (43) 
autodockgpu

>  <m_score__min__energy>  (43) 
-7.9900000000000002

>  <m_primary>  (43) 
energy

>  <rmsd>  (43) 
11.818048228755504

>  <m_score__min__rmsd>  (43) 
11.818048228755504

>  <meeko>  (43) 
{"free_energy": -7.98, "intermolecular_energy": -8.87, "internal_energy": -0.99, "cluster_size": 35, "cluster_id": 1, "rank_in_cluster": 8}

>  <energy>  (43) 
-7.74

>  <cluster_rmsd>  (43) 
0.15

>  <cluster>  (43) 
4

$$$$

     RDKit          3D

 54 58  0  0  0  0  0  0  0  0999 V2000
  141.9820   79.4050  222.9450 O   0  0  0  0  0  0  0  0  0  0  0  0
  140.7420   79.1970  222.9560 C   0  0  0  0  0  0  0  0  0  0  0  0
  139.8630   80.2760  223.4570 C   0  0  0  0  0  0  0  0  0  0  0  0
  138.4190   79.9330  223.3790 C   0  0  0  0  0  0  0  0  0  0  0  0
  137.4830   81.0070  223.7690 C   0  0  0  0  0  0  0  0  0  0  0  0
  136.6240   81.5770  222.8360 C   0  0  0  0  0  0  0  0  0  0  0  0
  135.7050   82.5390  223.1590 C   0  0  0  0  0  0  0  0  0  0  0  0
  135.6000   82.9790  224.4510 C   0  0  0  0  0  0  0  0  0  0  0  0
  136.4630   82.4030  225.3780 C   0  0  0  0  0  0  0  0  0  0  0  0
  136.3190   82.8550  226.7840 C   0  0  0  0  0  0  0  0  0  0  0  0
  136.9500   83.8220  227.2290 O   0  0  0  0  0  0  0  0  0  0  0  0
  135.3870   82.0670  227.5500 N   0  0  0  0  0  0  0  0  0  0  0  0
  134.6930   80.9280  226.9590 C   0  0  0  0  0  0  0  0  0  0  0  0
  133.3760   80.8440  227.7170 C   0  0  0  0  0  0  0  0  0  0  0  0
  133.6140   80.5350  229.1180 N   0  0  0  0  0  0  0  0  0  0  0  0
  134.5150   81.4200  229.7770 C   0  0  0  0  0  0  0  0  0  0  0  0
  135.1740   82.4630  228.9210 C   0  0  0  0  0  0  0  0  0  0  0  0
  137.3850   81.4490  225.0800 C   0  0  0  0  0  0  0  0  0  0  0  0
  137.9720   78.8000  222.9470 N   0  0  0  0  0  0  0  0  0  0  0  0
  138.8150   77.7430  222.4840 C   0  0  0  0  0  0  0  0  0  0  0  0
  138.3490   76.5360  222.0300 C   0  0  0  0  0  0  0  0  0  0  0  0
  139.2310   75.5440  221.5860 C   0  0  0  0  0  0  0  0  0  0  0  0
  140.5820   75.7510  221.5930 C   0  0  0  0  0  0  0  0  0  0  0  0
  141.5860   74.8080  221.1290 C   0  0  0  0  0  0  0  0  0  0  0  0
  142.7220   75.2910  220.4620 C   0  0  0  0  0  0  0  0  0  0  0  0
  143.6860   74.4390  219.9740 C   0  0  0  0  0  0  0  0  0  0  0  0
  143.5450   73.0840  220.1410 C   0  0  0  0  0  0  0  0  0  0  0  0
  142.4270   72.5850  220.8020 C   0  0  0  0  0  0  0  0  0  0  0  0
  142.2940   71.2290  220.9660 F   0  0  0  0  0  0  0  0  0  0  0  0
  141.4550   73.4460  221.2910 C   0  0  0  0  0  0  0  0  0  0  0  0
  141.0380   76.9660  222.0550 C   0  0  0  0  0  0  0  0  0  0  0  0
  140.1710   77.9470  222.4940 C   0  0  0  0  0  0  0  0  0  0  0  0
  140.1191   80.4771  224.5077 H   0  0  0  0  0  0  0  0  0  0  0  0
  140.0267   81.1565  222.8183 H   0  0  0  0  0  0  0  0  0  0  0  0
  136.6856   81.2397  221.7908 H   0  0  0  0  0  0  0  0  0  0  0  0
  135.0510   82.9584  222.3803 H   0  0  0  0  0  0  0  0  0  0  0  0
  134.8702   83.7490  224.7416 H   0  0  0  0  0  0  0  0  0  0  0  0
  134.5137   81.0964  225.8869 H   0  0  0  0  0  0  0  0  0  0  0  0
  135.2773   79.9991  227.0346 H   0  0  0  0  0  0  0  0  0  0  0  0
  132.8533   81.8090  227.6428 H   0  0  0  0  0  0  0  0  0  0  0  0
  132.7617   80.0453  227.2757 H   0  0  0  0  0  0  0  0  0  0  0  0
  133.9500   79.5390  229.2230 H   0  0  0  0  0  0  0  0  0  0  0  0
  133.9542   81.9411  230.5669 H   0  0  0  0  0  0  0  0  0  0  0  0
  135.3338   80.7832  230.1431 H   0  0  0  0  0  0  0  0  0  0  0  0
  134.5388   83.3611  228.9242 H   0  0  0  0  0  0  0  0  0  0  0  0
  136.1701   82.6380  229.3536 H   0  0  0  0  0  0  0  0  0  0  0  0
  138.0393   81.0365  225.8621 H   0  0  0  0  0  0  0  0  0  0  0  0
  137.2659   76.3445  222.0145 H   0  0  0  0  0  0  0  0  0  0  0  0
  138.8313   74.5844  221.2264 H   0  0  0  0  0  0  0  0  0  0  0  0
  142.8448   76.3756  220.3261 H   0  0  0  0  0  0  0  0  0  0  0  0
  144.5663   74.8423  219.4520 H   0  0  0  0  0  0  0  0  0  0  0  0
  144.3116   72.3964  219.7544 H   0  0  0  0  0  0  0  0  0  0  0  0
  140.5751   73.0390  221.8108 H   0  0  0  0  0  0  0  0  0  0  0  0
  142.1206   77.1597  222.0747 H   0  0  0  0  0  0  0  0  0  0  0  0
  1  2  2  0
  2  3  1  0
  3  4  1  0
  4  5  1  0
  5  6  2  0
  6  7  1  0
  7  8  2  0
  8  9  1  0
  9 10  1  0
 10 11  2  0
 10 12  1  0
 12 13  1  0
 13 14  1  0
 14 15  1  0
 15 16  1  0
 16 17  1  0
  9 18  2  0
  4 19  2  0
 19 20  1  0
 20 21  2  0
 21 22  1  0
 22 23  2  0
 23 24  1  0
 24 25  2  0
 25 26  1  0
 26 27  2  0
 27 28  1  0
 28 29  1  0
 28 30  2  0
 23 31  1  0
 31 32  2  0
 32  2  1  0
 18  5  1  0
 32 20  1  0
 17 12  1  0
 30 24  1  0
  3 33  1  0
  3 34  1  0
  6 35  1  0
  7 36  1  0
  8 37  1  0
 13 38  1  0
 13 39  1  0
 14 40  1  0
 14 41  1  0
 15 42  1  0
 16 43  1  0
 16 44  1  0
 17 45  1  0
 17 46  1  0
 18 47  1  0
 21 48  1  0
 22 49  1  0
 25 50  1  0
 26 51  1  0
 27 52  1  0
 30 53  1  0
 31 54  1  0
M  END
>  <smiles>  (44) 
O=C1CC(c2cccc(C(=O)N3CCNCC3)c2)=Nc2ccc(-c3cccc(F)c3)cc21

>  <score_type>  (44) 
oracle

>  <origin>  (44) 
autodockgpu

>  <m_score__min__energy>  (44) 
-7.9900000000000002

>  <m_primary>  (44) 
energy

>  <rmsd>  (44) 
11.867081425253085

>  <m_score__min__rmsd>  (44) 
11.867081425253085

>  <meeko>  (44) 
{"free_energy": -7.93, "intermolecular_energy": -8.82, "internal_energy": -1.01, "cluster_size": 35, "cluster_id": 1, "rank_in_cluster": 31}

>  <energy>  (44) 
-7.69

>  <cluster_rmsd>  (44) 
0.11

>  <cluster>  (44) 
4

$$$$

     RDKit          3D

 54 58  0  0  0  0  0  0  0  0999 V2000
  141.9210   79.3060  223.1200 O   0  0  0  0  0  0  0  0  0  0  0  0
  140.6860   79.0760  223.0710 C   0  0  0  0  0  0  0  0  0  0  0  0
  139.7660   80.1120  223.5870 C   0  0  0  0  0  0  0  0  0  0  0  0
  138.3330   79.7470  223.4340 C   0  0  0  0  0  0  0  0  0  0  0  0
  137.3610   80.7840  223.8360 C   0  0  0  0  0  0  0  0  0  0  0  0
  136.4130   81.2590  222.9360 C   0  0  0  0  0  0  0  0  0  0  0  0
  135.4600   82.1810  223.2760 C   0  0  0  0  0  0  0  0  0  0  0  0
  135.4090   82.6760  224.5510 C   0  0  0  0  0  0  0  0  0  0  0  0
  136.3620   82.1950  225.4440 C   0  0  0  0  0  0  0  0  0  0  0  0
  136.2790   82.7040  226.8360 C   0  0  0  0  0  0  0  0  0  0  0  0
  136.9470   83.6740  227.2190 O   0  0  0  0  0  0  0  0  0  0  0  0
  135.3590   81.9680  227.6650 N   0  0  0  0  0  0  0  0  0  0  0  0
  134.6190   80.8250  227.1450 C   0  0  0  0  0  0  0  0  0  0  0  0
  133.3290   80.8000  227.9530 C   0  0  0  0  0  0  0  0  0  0  0  0
  133.6120   80.5410  229.3550 N   0  0  0  0  0  0  0  0  0  0  0  0
  134.5550   81.4290  229.9460 C   0  0  0  0  0  0  0  0  0  0  0  0
  135.2050   82.4230  229.0260 C   0  0  0  0  0  0  0  0  0  0  0  0
  137.3190   81.2810  225.1300 C   0  0  0  0  0  0  0  0  0  0  0  0
  137.9270   78.6280  222.9300 N   0  0  0  0  0  0  0  0  0  0  0  0
  138.8090   77.6100  222.4520 C   0  0  0  0  0  0  0  0  0  0  0  0
  138.3860   76.4190  221.9220 C   0  0  0  0  0  0  0  0  0  0  0  0
  139.3040   75.4660  221.4680 C   0  0  0  0  0  0  0  0  0  0  0  0
  140.6500   75.6970  221.5400 C   0  0  0  0  0  0  0  0  0  0  0  0
  141.6900   74.7960  221.0720 C   0  0  0  0  0  0  0  0  0  0  0  0
  142.8100   75.3260  220.4130 C   0  0  0  0  0  0  0  0  0  0  0  0
  143.8070   74.5150  219.9230 C   0  0  0  0  0  0  0  0  0  0  0  0
  143.7160   73.1550  220.0790 C   0  0  0  0  0  0  0  0  0  0  0  0
  142.6160   72.6090  220.7310 C   0  0  0  0  0  0  0  0  0  0  0  0
  142.5340   71.2480  220.8840 F   0  0  0  0  0  0  0  0  0  0  0  0
  141.6100   73.4290  221.2230 C   0  0  0  0  0  0  0  0  0  0  0  0
  141.0620   76.8970  222.0770 C   0  0  0  0  0  0  0  0  0  0  0  0
  140.1590   77.8390  222.5270 C   0  0  0  0  0  0  0  0  0  0  0  0
  139.9760   80.2660  224.6557 H   0  0  0  0  0  0  0  0  0  0  0  0
  139.9368   81.0254  222.9983 H   0  0  0  0  0  0  0  0  0  0  0  0
  136.4298   80.8767  221.9047 H   0  0  0  0  0  0  0  0  0  0  0  0
  134.7345   82.5244  222.5238 H   0  0  0  0  0  0  0  0  0  0  0  0
  134.6537   83.4159  224.8543 H   0  0  0  0  0  0  0  0  0  0  0  0
  134.4037   80.9568  226.0744 H   0  0  0  0  0  0  0  0  0  0  0  0
  135.1853   79.8863  227.2357 H   0  0  0  0  0  0  0  0  0  0  0  0
  132.8241   81.7728  227.8592 H   0  0  0  0  0  0  0  0  0  0  0  0
  132.6823   79.9986  227.5664 H   0  0  0  0  0  0  0  0  0  0  0  0
  133.9290   79.5420  229.4890 H   0  0  0  0  0  0  0  0  0  0  0  0
  134.0349   81.9931  230.7343 H   0  0  0  0  0  0  0  0  0  0  0  0
  135.3725   80.7881  230.3078 H   0  0  0  0  0  0  0  0  0  0  0  0
  134.5899   83.3349  229.0158 H   0  0  0  0  0  0  0  0  0  0  0  0
  136.2196   82.5925  229.4156 H   0  0  0  0  0  0  0  0  0  0  0  0
  138.0436   80.9435  225.8857 H   0  0  0  0  0  0  0  0  0  0  0  0
  137.3084   76.2093  221.8525 H   0  0  0  0  0  0  0  0  0  0  0  0
  138.9381   74.5178  221.0473 H   0  0  0  0  0  0  0  0  0  0  0  0
  142.8924   76.4155  220.2853 H   0  0  0  0  0  0  0  0  0  0  0  0
  144.6738   74.9550  219.4082 H   0  0  0  0  0  0  0  0  0  0  0  0
  144.5094   72.4998  219.6902 H   0  0  0  0  0  0  0  0  0  0  0  0
  140.7443   72.9850  221.7362 H   0  0  0  0  0  0  0  0  0  0  0  0
  142.1388   77.1100  222.1490 H   0  0  0  0  0  0  0  0  0  0  0  0
  1  2  2  0
  2  3  1  0
  3  4  1  0
  4  5  1  0
  5  6  2  0
  6  7  1  0
  7  8  2  0
  8  9  1  0
  9 10  1  0
 10 11  2  0
 10 12  1  0
 12 13  1  0
 13 14  1  0
 14 15  1  0
 15 16  1  0
 16 17  1  0
  9 18  2  0
  4 19  2  0
 19 20  1  0
 20 21  2  0
 21 22  1  0
 22 23  2  0
 23 24  1  0
 24 25  2  0
 25 26  1  0
 26 27  2  0
 27 28  1  0
 28 29  1  0
 28 30  2  0
 23 31  1  0
 31 32  2  0
 32  2  1  0
 18  5  1  0
 32 20  1  0
 17 12  1  0
 30 24  1  0
  3 33  1  0
  3 34  1  0
  6 35  1  0
  7 36  1  0
  8 37  1  0
 13 38  1  0
 13 39  1  0
 14 40  1  0
 14 41  1  0
 15 42  1  0
 16 43  1  0
 16 44  1  0
 17 45  1  0
 17 46  1  0
 18 47  1  0
 21 48  1  0
 22 49  1  0
 25 50  1  0
 26 51  1  0
 27 52  1  0
 30 53  1  0
 31 54  1  0
M  END
>  <smiles>  (45) 
O=C1CC(c2cccc(C(=O)N3CCNCC3)c2)=Nc2ccc(-c3cccc(F)c3)cc21

>  <score_type>  (45) 
oracle

>  <origin>  (45) 
autodockgpu

>  <m_score__min__energy>  (45) 
-7.9900000000000002

>  <m_primary>  (45) 
energy

>  <rmsd>  (45) 
11.835402577270061

>  <m_score__min__rmsd>  (45) 
11.835402577270061

>  <meeko>  (45) 
{"free_energy": -7.93, "intermolecular_energy": -8.83, "internal_energy": -1.01, "cluster_size": 35, "cluster_id": 1, "rank_in_cluster": 28}

>  <energy>  (45) 
-7.67

>  <cluster_rmsd>  (45) 
0.26

>  <cluster>  (45) 
4

$$$$

     RDKit          3D

 54 58  0  0  0  0  0  0  0  0999 V2000
  141.9090   79.5650  223.0280 O   0  0  0  0  0  0  0  0  0  0  0  0
  140.6600   79.4650  223.1260 C   0  0  0  0  0  0  0  0  0  0  0  0
  139.9060   80.6420  223.6090 C   0  0  0  0  0  0  0  0  0  0  0  0
  138.4360   80.4200  223.6390 C   0  0  0  0  0  0  0  0  0  0  0  0
  137.6180   81.5900  224.0140 C   0  0  0  0  0  0  0  0  0  0  0  0
  137.0380   82.3960  223.0400 C   0  0  0  0  0  0  0  0  0  0  0  0
  136.2300   83.4610  223.3380 C   0  0  0  0  0  0  0  0  0  0  0  0
  135.9620   83.7720  224.6440 C   0  0  0  0  0  0  0  0  0  0  0  0
  136.5460   82.9610  225.6110 C   0  0  0  0  0  0  0  0  0  0  0  0
  136.2210   83.2780  227.0240 C   0  0  0  0  0  0  0  0  0  0  0  0
  136.6920   84.2690  227.5980 O   0  0  0  0  0  0  0  0  0  0  0  0
  135.3200   82.3340  227.6330 N   0  0  0  0  0  0  0  0  0  0  0  0
  134.8200   81.1790  226.8960 C   0  0  0  0  0  0  0  0  0  0  0  0
  133.4560   80.8910  227.5080 C   0  0  0  0  0  0  0  0  0  0  0  0
  133.5970   80.4970  228.9000 N   0  0  0  0  0  0  0  0  0  0  0  0
  134.3240   81.4160  229.7080 C   0  0  0  0  0  0  0  0  0  0  0  0
  134.9350   82.5910  229.0000 C   0  0  0  0  0  0  0  0  0  0  0  0
  137.3530   81.9000  225.3400 C   0  0  0  0  0  0  0  0  0  0  0  0
  137.8720   79.3050  223.3060 N   0  0  0  0  0  0  0  0  0  0  0  0
  138.5940   78.1550  222.8620 C   0  0  0  0  0  0  0  0  0  0  0  0
  138.0030   76.9680  222.5140 C   0  0  0  0  0  0  0  0  0  0  0  0
  138.7710   75.8800  222.0830 C   0  0  0  0  0  0  0  0  0  0  0  0
  140.1320   75.9710  221.9970 C   0  0  0  0  0  0  0  0  0  0  0  0
  141.0240   74.9210  221.5340 C   0  0  0  0  0  0  0  0  0  0  0  0
  140.7060   73.5820  221.8110 C   0  0  0  0  0  0  0  0  0  0  0  0
  141.5310   72.5520  221.4230 C   0  0  0  0  0  0  0  0  0  0  0  0
  142.6940   72.8280  220.7470 C   0  0  0  0  0  0  0  0  0  0  0  0
  143.0260   74.1480  220.4610 C   0  0  0  0  0  0  0  0  0  0  0  0
  144.1880   74.4160  219.7840 F   0  0  0  0  0  0  0  0  0  0  0  0
  142.1920   75.1860  220.8550 C   0  0  0  0  0  0  0  0  0  0  0  0
  140.7140   77.1680  222.3520 C   0  0  0  0  0  0  0  0  0  0  0  0
  139.9600   78.2430  222.7790 C   0  0  0  0  0  0  0  0  0  0  0  0
  140.2450   80.8811  224.6278 H   0  0  0  0  0  0  0  0  0  0  0  0
  140.0993   81.4664  222.9069 H   0  0  0  0  0  0  0  0  0  0  0  0
  137.2373   82.1678  221.9825 H   0  0  0  0  0  0  0  0  0  0  0  0
  135.7965   84.0663  222.5282 H   0  0  0  0  0  0  0  0  0  0  0  0
  135.3170   84.6209  224.9149 H   0  0  0  0  0  0  0  0  0  0  0  0
  134.7232   81.4140  225.8258 H   0  0  0  0  0  0  0  0  0  0  0  0
  135.4980   80.3156  226.9654 H   0  0  0  0  0  0  0  0  0  0  0  0
  132.8340   81.7964  227.4490 H   0  0  0  0  0  0  0  0  0  0  0  0
  132.9820   80.0692  226.9513 H   0  0  0  0  0  0  0  0  0  0  0  0
  134.0340   79.5370  228.9690 H   0  0  0  0  0  0  0  0  0  0  0  0
  133.6358   81.8068  230.4720 H   0  0  0  0  0  0  0  0  0  0  0  0
  135.1732   80.8433  230.1091 H   0  0  0  0  0  0  0  0  0  0  0  0
  134.2025   83.4117  229.0018 H   0  0  0  0  0  0  0  0  0  0  0  0
  135.8592   82.8369  229.5436 H   0  0  0  0  0  0  0  0  0  0  0  0
  137.7860   81.3009  226.1545 H   0  0  0  0  0  0  0  0  0  0  0  0
  136.9091   76.8691  222.5744 H   0  0  0  0  0  0  0  0  0  0  0  0
  138.2721   74.9385  221.8096 H   0  0  0  0  0  0  0  0  0  0  0  0
  139.7757   73.3512  222.3507 H   0  0  0  0  0  0  0  0  0  0  0  0
  141.2602   71.5111  221.6534 H   0  0  0  0  0  0  0  0  0  0  0  0
  143.3591   72.0099  220.4335 H   0  0  0  0  0  0  0  0  0  0  0  0
  142.4661   76.2258  220.6233 H   0  0  0  0  0  0  0  0  0  0  0  0
  141.8077   77.2701  222.2938 H   0  0  0  0  0  0  0  0  0  0  0  0
  1  2  2  0
  2  3  1  0
  3  4  1  0
  4  5  1  0
  5  6  2  0
  6  7  1  0
  7  8  2  0
  8  9  1  0
  9 10  1  0
 10 11  2  0
 10 12  1  0
 12 13  1  0
 13 14  1  0
 14 15  1  0
 15 16  1  0
 16 17  1  0
  9 18  2  0
  4 19  2  0
 19 20  1  0
 20 21  2  0
 21 22  1  0
 22 23  2  0
 23 24  1  0
 24 25  2  0
 25 26  1  0
 26 27  2  0
 27 28  1  0
 28 29  1  0
 28 30  2  0
 23 31  1  0
 31 32  2  0
 32  2  1  0
 18  5  1  0
 32 20  1  0
 17 12  1  0
 30 24  1  0
  3 33  1  0
  3 34  1  0
  6 35  1  0
  7 36  1  0
  8 37  1  0
 13 38  1  0
 13 39  1  0
 14 40  1  0
 14 41  1  0
 15 42  1  0
 16 43  1  0
 16 44  1  0
 17 45  1  0
 17 46  1  0
 18 47  1  0
 21 48  1  0
 22 49  1  0
 25 50  1  0
 26 51  1  0
 27 52  1  0
 30 53  1  0
 31 54  1  0
M  END
>  <smiles>  (46) 
O=C1CC(c2cccc(C(=O)N3CCNCC3)c2)=Nc2ccc(-c3cccc(F)c3)cc21

>  <score_type>  (46) 
oracle

>  <origin>  (46) 
autodockgpu

>  <m_score__min__energy>  (46) 
-7.9900000000000002

>  <m_primary>  (46) 
energy

>  <rmsd>  (46) 
12.083595058550019

>  <m_score__min__rmsd>  (46) 
12.083595058550019

>  <meeko>  (46) 
{"free_energy": -7.96, "intermolecular_energy": -8.86, "internal_energy": -0.95, "cluster_size": 35, "cluster_id": 1, "rank_in_cluster": 16}

>  <energy>  (46) 
-7.65

>  <cluster_rmsd>  (46) 
0.23

>  <cluster>  (46) 
4

$$$$

     RDKit          3D

 54 58  0  0  0  0  0  0  0  0999 V2000
  142.0780   79.1980  223.1220 O   0  0  0  0  0  0  0  0  0  0  0  0
  140.8250   79.1010  223.0960 C   0  0  0  0  0  0  0  0  0  0  0  0
  140.0290   80.2630  223.5450 C   0  0  0  0  0  0  0  0  0  0  0  0
  138.5640   80.0470  223.4250 C   0  0  0  0  0  0  0  0  0  0  0  0
  137.7150   81.2080  223.7610 C   0  0  0  0  0  0  0  0  0  0  0  0
  137.0540   81.9190  222.7650 C   0  0  0  0  0  0  0  0  0  0  0  0
  136.2160   82.9690  223.0300 C   0  0  0  0  0  0  0  0  0  0  0  0
  135.9970   83.3610  224.3230 C   0  0  0  0  0  0  0  0  0  0  0  0
  136.6620   82.6440  225.3130 C   0  0  0  0  0  0  0  0  0  0  0  0
  136.3910   83.0460  226.7150 C   0  0  0  0  0  0  0  0  0  0  0  0
  136.9400   84.0280  227.2320 O   0  0  0  0  0  0  0  0  0  0  0  0
  135.4440   82.1940  227.3860 N   0  0  0  0  0  0  0  0  0  0  0  0
  134.8510   81.0430  226.7140 C   0  0  0  0  0  0  0  0  0  0  0  0
  133.4860   80.8760  227.3670 C   0  0  0  0  0  0  0  0  0  0  0  0
  133.6330   80.5370  228.7730 N   0  0  0  0  0  0  0  0  0  0  0  0
  134.4380   81.4410  229.5220 C   0  0  0  0  0  0  0  0  0  0  0  0
  135.1090   82.5380  228.7470 C   0  0  0  0  0  0  0  0  0  0  0  0
  137.5000   81.5990  225.0740 C   0  0  0  0  0  0  0  0  0  0  0  0
  138.0320   78.9480  223.0010 N   0  0  0  0  0  0  0  0  0  0  0  0
  138.7930   77.8100  222.5890 C   0  0  0  0  0  0  0  0  0  0  0  0
  138.2370   76.6390  222.1440 C   0  0  0  0  0  0  0  0  0  0  0  0
  139.0410   75.5630  221.7500 C   0  0  0  0  0  0  0  0  0  0  0  0
  140.4040   75.6510  221.7990 C   0  0  0  0  0  0  0  0  0  0  0  0
  141.3350   74.6130  221.3880 C   0  0  0  0  0  0  0  0  0  0  0  0
  140.9980   73.2670  221.6020 C   0  0  0  0  0  0  0  0  0  0  0  0
  141.8560   72.2480  221.2610 C   0  0  0  0  0  0  0  0  0  0  0  0
  143.0720   72.5420  220.6940 C   0  0  0  0  0  0  0  0  0  0  0  0
  143.4240   73.8690  220.4710 C   0  0  0  0  0  0  0  0  0  0  0  0
  144.6390   74.1540  219.9030 F   0  0  0  0  0  0  0  0  0  0  0  0
  142.5560   74.8960  220.8190 C   0  0  0  0  0  0  0  0  0  0  0  0
  140.9510   76.8320  222.2510 C   0  0  0  0  0  0  0  0  0  0  0  0
  140.1610   77.8950  222.6410 C   0  0  0  0  0  0  0  0  0  0  0  0
  140.2680   80.4646  224.5996 H   0  0  0  0  0  0  0  0  0  0  0  0
  140.2901   81.1106  222.8943 H   0  0  0  0  0  0  0  0  0  0  0  0
  137.2116   81.6245  221.7169 H   0  0  0  0  0  0  0  0  0  0  0  0
  135.7186   83.4977  222.2035 H   0  0  0  0  0  0  0  0  0  0  0  0
  135.3292   84.2003  224.5672 H   0  0  0  0  0  0  0  0  0  0  0  0
  134.7446   81.2353  225.6362 H   0  0  0  0  0  0  0  0  0  0  0  0
  135.4716   80.1398  226.8094 H   0  0  0  0  0  0  0  0  0  0  0  0
  132.9245   81.8177  227.2784 H   0  0  0  0  0  0  0  0  0  0  0  0
  132.9455   80.0634  226.8595 H   0  0  0  0  0  0  0  0  0  0  0  0
  134.0070   79.5540  228.8780 H   0  0  0  0  0  0  0  0  0  0  0  0
  133.7951   81.9120  230.2802 H   0  0  0  0  0  0  0  0  0  0  0  0
  135.2562   80.8314  229.9330 H   0  0  0  0  0  0  0  0  0  0  0  0
  134.4331   83.4056  228.7251 H   0  0  0  0  0  0  0  0  0  0  0  0
  136.0601   82.7448  229.2594 H   0  0  0  0  0  0  0  0  0  0  0  0
  137.9963   81.0756  225.9045 H   0  0  0  0  0  0  0  0  0  0  0  0
  137.1422   76.5432  222.0957 H   0  0  0  0  0  0  0  0  0  0  0  0
  138.5695   74.6343  221.3962 H   0  0  0  0  0  0  0  0  0  0  0  0
  140.0251   73.0219  222.0529 H   0  0  0  0  0  0  0  0  0  0  0  0
  141.5696   71.2014  221.4416 H   0  0  0  0  0  0  0  0  0  0  0  0
  143.7636   71.7325  220.4178 H   0  0  0  0  0  0  0  0  0  0  0  0
  142.8461   75.9417  220.6388 H   0  0  0  0  0  0  0  0  0  0  0  0
  142.0454   76.9305  222.3025 H   0  0  0  0  0  0  0  0  0  0  0  0
  1  2  2  0
  2  3  1  0
  3  4  1  0
  4  5  1  0
  5  6  2  0
  6  7  1  0
  7  8  2  0
  8  9  1  0
  9 10  1  0
 10 11  2  0
 10 12  1  0
 12 13  1  0
 13 14  1  0
 14 15  1  0
 15 16  1  0
 16 17  1  0
  9 18  2  0
  4 19  2  0
 19 20  1  0
 20 21  2  0
 21 22  1  0
 22 23  2  0
 23 24  1  0
 24 25  2  0
 25 26  1  0
 26 27  2  0
 27 28  1  0
 28 29  1  0
 28 30  2  0
 23 31  1  0
 31 32  2  0
 32  2  1  0
 18  5  1  0
 32 20  1  0
 17 12  1  0
 30 24  1  0
  3 33  1  0
  3 34  1  0
  6 35  1  0
  7 36  1  0
  8 37  1  0
 13 38  1  0
 13 39  1  0
 14 40  1  0
 14 41  1  0
 15 42  1  0
 16 43  1  0
 16 44  1  0
 17 45  1  0
 17 46  1  0
 18 47  1  0
 21 48  1  0
 22 49  1  0
 25 50  1  0
 26 51  1  0
 27 52  1  0
 30 53  1  0
 31 54  1  0
M  END
>  <smiles>  (47) 
O=C1CC(c2cccc(C(=O)N3CCNCC3)c2)=Nc2ccc(-c3cccc(F)c3)cc21

>  <score_type>  (47) 
oracle

>  <origin>  (47) 
autodockgpu

>  <m_score__min__energy>  (47) 
-7.9900000000000002

>  <m_primary>  (47) 
energy

>  <rmsd>  (47) 
11.81534796964797

>  <m_score__min__rmsd>  (47) 
11.81534796964797

>  <meeko>  (47) 
{"free_energy": -7.99, "intermolecular_energy": -8.88, "internal_energy": -0.99, "cluster_size": 35, "cluster_id": 1, "rank_in_cluster": 1}

>  <energy>  (47) 
-7.58

>  <cluster_rmsd>  (47) 
1.02

>  <cluster>  (47) 
4

$$$$

     RDKit          3D

 54 58  0  0  0  0  0  0  0  0999 V2000
  141.8860   79.4690  223.2850 O   0  0  0  0  0  0  0  0  0  0  0  0
  140.6300   79.4060  223.2690 C   0  0  0  0  0  0  0  0  0  0  0  0
  139.8710   80.5840  223.7430 C   0  0  0  0  0  0  0  0  0  0  0  0
  138.3990   80.4100  223.6350 C   0  0  0  0  0  0  0  0  0  0  0  0
  137.5860   81.5890  223.9950 C   0  0  0  0  0  0  0  0  0  0  0  0
  136.9630   82.3530  223.0130 C   0  0  0  0  0  0  0  0  0  0  0  0
  136.1590   83.4230  223.3000 C   0  0  0  0  0  0  0  0  0  0  0  0
  135.9360   83.7830  224.6020 C   0  0  0  0  0  0  0  0  0  0  0  0
  136.5640   83.0140  225.5770 C   0  0  0  0  0  0  0  0  0  0  0  0
  136.2880   83.3830  226.9880 C   0  0  0  0  0  0  0  0  0  0  0  0
  136.7750   84.3960  227.5060 O   0  0  0  0  0  0  0  0  0  0  0  0
  135.4140   82.4600  227.6650 N   0  0  0  0  0  0  0  0  0  0  0  0
  134.8920   81.2770  226.9900 C   0  0  0  0  0  0  0  0  0  0  0  0
  133.5530   81.0080  227.6630 C   0  0  0  0  0  0  0  0  0  0  0  0
  133.7470   80.6680  229.0630 N   0  0  0  0  0  0  0  0  0  0  0  0
  134.4980   81.6200  229.8090 C   0  0  0  0  0  0  0  0  0  0  0  0
  135.0790   82.7680  229.0340 C   0  0  0  0  0  0  0  0  0  0  0  0
  137.3680   81.9480  225.3170 C   0  0  0  0  0  0  0  0  0  0  0  0
  137.8330   79.3320  223.2010 N   0  0  0  0  0  0  0  0  0  0  0  0
  138.5580   78.1800  222.7650 C   0  0  0  0  0  0  0  0  0  0  0  0
  137.9650   77.0310  222.3100 C   0  0  0  0  0  0  0  0  0  0  0  0
  138.7350   75.9390  221.8930 C   0  0  0  0  0  0  0  0  0  0  0  0
  140.1010   75.9880  221.9290 C   0  0  0  0  0  0  0  0  0  0  0  0
  140.9980   74.9310  221.4950 C   0  0  0  0  0  0  0  0  0  0  0  0
  142.1830   75.2710  220.8250 C   0  0  0  0  0  0  0  0  0  0  0  0
  143.0520   74.3080  220.3650 C   0  0  0  0  0  0  0  0  0  0  0  0
  142.7630   72.9800  220.5620 C   0  0  0  0  0  0  0  0  0  0  0  0
  141.5940   72.6220  221.2260 C   0  0  0  0  0  0  0  0  0  0  0  0
  141.3130   71.2930  221.4200 F   0  0  0  0  0  0  0  0  0  0  0  0
  140.7180   73.5960  221.6870 C   0  0  0  0  0  0  0  0  0  0  0  0
  140.6840   77.1470  222.3920 C   0  0  0  0  0  0  0  0  0  0  0  0
  139.9280   78.2260  222.8040 C   0  0  0  0  0  0  0  0  0  0  0  0
  140.1260   80.7637  224.7978 H   0  0  0  0  0  0  0  0  0  0  0  0
  140.1492   81.4336  223.1020 H   0  0  0  0  0  0  0  0  0  0  0  0
  137.1239   82.0850  221.9583 H   0  0  0  0  0  0  0  0  0  0  0  0
  135.6918   83.9940  222.4841 H   0  0  0  0  0  0  0  0  0  0  0  0
  135.2933   84.6364  224.8639 H   0  0  0  0  0  0  0  0  0  0  0  0
  134.7543   81.4720  225.9162 H   0  0  0  0  0  0  0  0  0  0  0  0
  135.5759   80.4187  227.0655 H   0  0  0  0  0  0  0  0  0  0  0  0
  132.9250   81.9083  227.5926 H   0  0  0  0  0  0  0  0  0  0  0  0
  133.0629   80.1637  227.1561 H   0  0  0  0  0  0  0  0  0  0  0  0
  134.1900   79.7130  229.1520 H   0  0  0  0  0  0  0  0  0  0  0  0
  133.8352   82.0386  230.5807 H   0  0  0  0  0  0  0  0  0  0  0  0
  135.3629   81.0660  230.2028 H   0  0  0  0  0  0  0  0  0  0  0  0
  134.3446   83.5870  229.0316 H   0  0  0  0  0  0  0  0  0  0  0  0
  136.0220   83.0356  229.5331 H   0  0  0  0  0  0  0  0  0  0  0  0
  137.8351   81.3830  226.1372 H   0  0  0  0  0  0  0  0  0  0  0  0
  136.8676   76.9661  222.2720 H   0  0  0  0  0  0  0  0  0  0  0  0
  138.2343   75.0288  221.5313 H   0  0  0  0  0  0  0  0  0  0  0  0
  142.4231   76.3323  220.6636 H   0  0  0  0  0  0  0  0  0  0  0  0
  143.9742   74.6008  219.8417 H   0  0  0  0  0  0  0  0  0  0  0  0
  143.4517   72.2039  220.1969 H   0  0  0  0  0  0  0  0  0  0  0  0
  139.7957   73.2999  222.2082 H   0  0  0  0  0  0  0  0  0  0  0  0
  141.7811   77.2145  222.4345 H   0  0  0  0  0  0  0  0  0  0  0  0
  1  2  2  0
  2  3  1  0
  3  4  1  0
  4  5  1  0
  5  6  2  0
  6  7  1  0
  7  8  2  0
  8  9  1  0
  9 10  1  0
 10 11  2  0
 10 12  1  0
 12 13  1  0
 13 14  1  0
 14 15  1  0
 15 16  1  0
 16 17  1  0
  9 18  2  0
  4 19  2  0
 19 20  1  0
 20 21  2  0
 21 22  1  0
 22 23  2  0
 23 24  1  0
 24 25  2  0
 25 26  1  0
 26 27  2  0
 27 28  1  0
 28 29  1  0
 28 30  2  0
 23 31  1  0
 31 32  2  0
 32  2  1  0
 18  5  1  0
 32 20  1  0
 17 12  1  0
 30 24  1  0
  3 33  1  0
  3 34  1  0
  6 35  1  0
  7 36  1  0
  8 37  1  0
 13 38  1  0
 13 39  1  0
 14 40  1  0
 14 41  1  0
 15 42  1  0
 16 43  1  0
 16 44  1  0
 17 45  1  0
 17 46  1  0
 18 47  1  0
 21 48  1  0
 22 49  1  0
 25 50  1  0
 26 51  1  0
 27 52  1  0
 30 53  1  0
 31 54  1  0
M  END
>  <smiles>  (48) 
O=C1CC(c2cccc(C(=O)N3CCNCC3)c2)=Nc2ccc(-c3cccc(F)c3)cc21

>  <score_type>  (48) 
oracle

>  <origin>  (48) 
autodockgpu

>  <m_score__min__energy>  (48) 
-7.9900000000000002

>  <m_primary>  (48) 
energy

>  <rmsd>  (48) 
12.123705214996255

>  <m_score__min__rmsd>  (48) 
12.123705214996255

>  <meeko>  (48) 
{"free_energy": -7.95, "intermolecular_energy": -8.84, "internal_energy": -0.95, "cluster_size": 35, "cluster_id": 1, "rank_in_cluster": 23}

>  <energy>  (48) 
-7.56

>  <cluster_rmsd>  (48) 
0.92

>  <cluster>  (48) 
4

$$$$

     RDKit          3D

 54 58  0  0  0  0  0  0  0  0999 V2000
  139.8840   70.9150  220.6900 O   0  0  0  0  0  0  0  0  0  0  0  0
  140.5550   71.9730  220.7970 C   0  0  0  0  0  0  0  0  0  0  0  0
  139.8470   73.2070  221.2010 C   0  0  0  0  0  0  0  0  0  0  0  0
  140.7510   74.3780  221.3390 C   0  0  0  0  0  0  0  0  0  0  0  0
  140.1220   75.6180  221.8390 C   0  0  0  0  0  0  0  0  0  0  0  0
  138.7470   75.6900  222.0350 C   0  0  0  0  0  0  0  0  0  0  0  0
  138.1240   76.7970  222.5440 C   0  0  0  0  0  0  0  0  0  0  0  0
  138.8590   77.9000  222.8870 C   0  0  0  0  0  0  0  0  0  0  0  0
  140.2340   77.8190  222.6870 C   0  0  0  0  0  0  0  0  0  0  0  0
  141.0320   79.0010  223.0960 C   0  0  0  0  0  0  0  0  0  0  0  0
  141.6460   79.0360  224.1710 O   0  0  0  0  0  0  0  0  0  0  0  0
  141.0150   80.0700  222.1310 N   0  0  0  0  0  0  0  0  0  0  0  0
  140.2520   79.9610  220.8930 C   0  0  0  0  0  0  0  0  0  0  0  0
  141.0100   80.8250  219.8950 C   0  0  0  0  0  0  0  0  0  0  0  0
  140.9840   82.2190  220.3070 N   0  0  0  0  0  0  0  0  0  0  0  0
  141.4510   82.4570  221.6300 C   0  0  0  0  0  0  0  0  0  0  0  0
  141.7910   81.2440  222.4480 C   0  0  0  0  0  0  0  0  0  0  0  0
  140.8750   76.7310  222.1810 C   0  0  0  0  0  0  0  0  0  0  0  0
  142.0210   74.3370  221.1030 N   0  0  0  0  0  0  0  0  0  0  0  0
  142.7100   73.1560  220.6880 C   0  0  0  0  0  0  0  0  0  0  0  0
  144.0550   73.1060  220.4300 C   0  0  0  0  0  0  0  0  0  0  0  0
  144.6690   71.9130  220.0310 C   0  0  0  0  0  0  0  0  0  0  0  0
  143.9420   70.7640  219.8870 C   0  0  0  0  0  0  0  0  0  0  0  0
  144.4760   69.4660  219.5100 C   0  0  0  0  0  0  0  0  0  0  0  0
  145.7670   69.3890  218.9650 C   0  0  0  0  0  0  0  0  0  0  0  0
  146.3080   68.1890  218.5630 C   0  0  0  0  0  0  0  0  0  0  0  0
  145.5770   67.0350  218.6950 C   0  0  0  0  0  0  0  0  0  0  0  0
  144.2970   67.0890  219.2340 C   0  0  0  0  0  0  0  0  0  0  0  0
  143.5740   65.9300  219.3640 F   0  0  0  0  0  0  0  0  0  0  0  0
  143.7530   68.3010  219.6380 C   0  0  0  0  0  0  0  0  0  0  0  0
  142.5910   70.8280  220.1470 C   0  0  0  0  0  0  0  0  0  0  0  0
  141.9820   72.0030  220.5400 C   0  0  0  0  0  0  0  0  0  0  0  0
  139.0865   73.4393  220.4409 H   0  0  0  0  0  0  0  0  0  0  0  0
  139.3986   73.0202  222.1880 H   0  0  0  0  0  0  0  0  0  0  0  0
  138.1323   74.8175  221.7688 H   0  0  0  0  0  0  0  0  0  0  0  0
  137.0321   76.8006  222.6777 H   0  0  0  0  0  0  0  0  0  0  0  0
  138.3870   78.8039  223.2995 H   0  0  0  0  0  0  0  0  0  0  0  0
  140.2141   78.9161  220.5514 H   0  0  0  0  0  0  0  0  0  0  0  0
  139.2085   80.2863  221.0171 H   0  0  0  0  0  0  0  0  0  0  0  0
  142.0540   80.4831  219.8396 H   0  0  0  0  0  0  0  0  0  0  0  0
  140.5295   80.7358  218.9095 H   0  0  0  0  0  0  0  0  0  0  0  0
  140.0130   82.6180  220.1920 H   0  0  0  0  0  0  0  0  0  0  0  0
  142.3570   83.0767  221.5584 H   0  0  0  0  0  0  0  0  0  0  0  0
  140.6108   82.9359  222.1541 H   0  0  0  0  0  0  0  0  0  0  0  0
  142.8530   81.0075  222.2861 H   0  0  0  0  0  0  0  0  0  0  0  0
  141.5603   81.4977  223.4932 H   0  0  0  0  0  0  0  0  0  0  0  0
  141.9667   76.7341  222.0461 H   0  0  0  0  0  0  0  0  0  0  0  0
  144.6614   74.0174  220.5381 H   0  0  0  0  0  0  0  0  0  0  0  0
  145.7505   71.8997  219.8307 H   0  0  0  0  0  0  0  0  0  0  0  0
  146.3602   70.3090  218.8566 H   0  0  0  0  0  0  0  0  0  0  0  0
  147.3219   68.1550  218.1378 H   0  0  0  0  0  0  0  0  0  0  0  0
  146.0021   66.0720  218.3758 H   0  0  0  0  0  0  0  0  0  0  0  0
  142.7387   68.3307  220.0627 H   0  0  0  0  0  0  0  0  0  0  0  0
  141.9812   69.9190  220.0387 H   0  0  0  0  0  0  0  0  0  0  0  0
  1  2  2  0
  2  3  1  0
  3  4  1  0
  4  5  1  0
  5  6  2  0
  6  7  1  0
  7  8  2  0
  8  9  1  0
  9 10  1  0
 10 11  2  0
 10 12  1  0
 12 13  1  0
 13 14  1  0
 14 15  1  0
 15 16  1  0
 16 17  1  0
  9 18  2  0
  4 19  2  0
 19 20  1  0
 20 21  2  0
 21 22  1  0
 22 23  2  0
 23 24  1  0
 24 25  2  0
 25 26  1  0
 26 27  2  0
 27 28  1  0
 28 29  1  0
 28 30  2  0
 23 31  1  0
 31 32  2  0
 32  2  1  0
 18  5  1  0
 32 20  1  0
 17 12  1  0
 30 24  1  0
  3 33  1  0
  3 34  1  0
  6 35  1  0
  7 36  1  0
  8 37  1  0
 13 38  1  0
 13 39  1  0
 14 40  1  0
 14 41  1  0
 15 42  1  0
 16 43  1  0
 16 44  1  0
 17 45  1  0
 17 46  1  0
 18 47  1  0
 21 48  1  0
 22 49  1  0
 25 50  1  0
 26 51  1  0
 27 52  1  0
 30 53  1  0
 31 54  1  0
M  END
>  <smiles>  (49) 
O=C1CC(c2cccc(C(=O)N3CCNCC3)c2)=Nc2ccc(-c3cccc(F)c3)cc21

>  <score_type>  (49) 
oracle

>  <origin>  (49) 
autodockgpu

>  <m_score__min__energy>  (49) 
-7.9900000000000002

>  <m_primary>  (49) 
energy

>  <rmsd>  (49) 
7.63591264188619

>  <m_score__min__rmsd>  (49) 
7.63591264188619

>  <meeko>  (49) 
{"free_energy": -7.58, "intermolecular_energy": -8.47, "internal_energy": -0.98, "cluster_size": 7, "cluster_id": 4, "rank_in_cluster": 6}

>  <energy>  (49) 
-7.73

>  <cluster_rmsd>  (49) 
0.0

>  <cluster>  (49) 
5

$$$$

     RDKit          3D

 54 58  0  0  0  0  0  0  0  0999 V2000
  142.0920   79.1880  223.1820 O   0  0  0  0  0  0  0  0  0  0  0  0
  140.8380   79.1100  223.1420 C   0  0  0  0  0  0  0  0  0  0  0  0
  140.0560   80.2840  223.5870 C   0  0  0  0  0  0  0  0  0  0  0  0
  138.5890   80.0910  223.4510 C   0  0  0  0  0  0  0  0  0  0  0  0
  137.7540   81.2640  223.7820 C   0  0  0  0  0  0  0  0  0  0  0  0
  137.1350   82.0030  222.7800 C   0  0  0  0  0  0  0  0  0  0  0  0
  136.3120   83.0660  223.0390 C   0  0  0  0  0  0  0  0  0  0  0  0
  136.0660   83.4430  224.3320 C   0  0  0  0  0  0  0  0  0  0  0  0
  136.6900   82.6980  225.3270 C   0  0  0  0  0  0  0  0  0  0  0  0
  136.3900   83.0850  226.7280 C   0  0  0  0  0  0  0  0  0  0  0  0
  136.9260   84.0630  227.2660 O   0  0  0  0  0  0  0  0  0  0  0  0
  135.4320   82.2240  227.3720 N   0  0  0  0  0  0  0  0  0  0  0  0
  134.8560   81.0780  226.6760 C   0  0  0  0  0  0  0  0  0  0  0  0
  133.4790   80.9010  227.2990 C   0  0  0  0  0  0  0  0  0  0  0  0
  133.5980   80.5480  228.7050 N   0  0  0  0  0  0  0  0  0  0  0  0
  134.3860   81.4470  229.4790 C   0  0  0  0  0  0  0  0  0  0  0  0
  135.0690   82.5530  228.7290 C   0  0  0  0  0  0  0  0  0  0  0  0
  137.5130   81.6400  225.0950 C   0  0  0  0  0  0  0  0  0  0  0  0
  138.0440   79.0020  223.0180 N   0  0  0  0  0  0  0  0  0  0  0  0
  138.7910   77.8530  222.6100 C   0  0  0  0  0  0  0  0  0  0  0  0
  138.2220   76.6930  222.1550 C   0  0  0  0  0  0  0  0  0  0  0  0
  139.0130   75.6050  221.7670 C   0  0  0  0  0  0  0  0  0  0  0  0
  140.3770   75.6710  221.8300 C   0  0  0  0  0  0  0  0  0  0  0  0
  141.2950   74.6200  221.4250 C   0  0  0  0  0  0  0  0  0  0  0  0
  140.9550   73.2810  221.6710 C   0  0  0  0  0  0  0  0  0  0  0  0
  141.8020   72.2500  221.3360 C   0  0  0  0  0  0  0  0  0  0  0  0
  143.0100   72.5260  220.7450 C   0  0  0  0  0  0  0  0  0  0  0  0
  143.3660   73.8460  220.4910 C   0  0  0  0  0  0  0  0  0  0  0  0
  144.5740   74.1140  219.8990 F   0  0  0  0  0  0  0  0  0  0  0  0
  142.5090   74.8850  220.8310 C   0  0  0  0  0  0  0  0  0  0  0  0
  140.9370   76.8420  222.2910 C   0  0  0  0  0  0  0  0  0  0  0  0
  140.1600   77.9160  222.6760 C   0  0  0  0  0  0  0  0  0  0  0  0
  140.2872   80.4785  224.6447 H   0  0  0  0  0  0  0  0  0  0  0  0
  140.3373   81.1298  222.9424 H   0  0  0  0  0  0  0  0  0  0  0  0
  137.3146   81.7209  221.7321 H   0  0  0  0  0  0  0  0  0  0  0  0
  135.8482   83.6174  222.2079 H   0  0  0  0  0  0  0  0  0  0  0  0
  135.4085   84.2917  224.5716 H   0  0  0  0  0  0  0  0  0  0  0  0
  134.7711   81.2811  225.5982 H   0  0  0  0  0  0  0  0  0  0  0  0
  135.4770   80.1755  226.7748 H   0  0  0  0  0  0  0  0  0  0  0  0
  132.9169   81.8422  227.2083 H   0  0  0  0  0  0  0  0  0  0  0  0
  132.9514   80.0921  226.7724 H   0  0  0  0  0  0  0  0  0  0  0  0
  133.9730   79.5650  228.8070 H   0  0  0  0  0  0  0  0  0  0  0  0
  133.7270   81.9088  230.2290 H   0  0  0  0  0  0  0  0  0  0  0  0
  135.1977   80.8353  229.8997 H   0  0  0  0  0  0  0  0  0  0  0  0
  134.3912   83.4190  228.7024 H   0  0  0  0  0  0  0  0  0  0  0  0
  136.0092   82.7569  229.2624 H   0  0  0  0  0  0  0  0  0  0  0  0
  137.9770   81.0949  225.9302 H   0  0  0  0  0  0  0  0  0  0  0  0
  137.1265   76.6151  222.0935 H   0  0  0  0  0  0  0  0  0  0  0  0
  138.5304   74.6846  221.4066 H   0  0  0  0  0  0  0  0  0  0  0  0
  139.9885   73.0503  222.1428 H   0  0  0  0  0  0  0  0  0  0  0  0
  141.5125   71.2087  221.5408 H   0  0  0  0  0  0  0  0  0  0  0  0
  143.6927   71.7073  220.4738 H   0  0  0  0  0  0  0  0  0  0  0  0
  142.8016   75.9251  220.6247 H   0  0  0  0  0  0  0  0  0  0  0  0
  142.0322   76.9234  222.3540 H   0  0  0  0  0  0  0  0  0  0  0  0
  1  2  2  0
  2  3  1  0
  3  4  1  0
  4  5  1  0
  5  6  2  0
  6  7  1  0
  7  8  2  0
  8  9  1  0
  9 10  1  0
 10 11  2  0
 10 12  1  0
 12 13  1  0
 13 14  1  0
 14 15  1  0
 15 16  1  0
 16 17  1  0
  9 18  2  0
  4 19  2  0
 19 20  1  0
 20 21  2  0
 21 22  1  0
 22 23  2  0
 23 24  1  0
 24 25  2  0
 25 26  1  0
 26 27  2  0
 27 28  1  0
 28 29  1  0
 28 30  2  0
 23 31  1  0
 31 32  2  0
 32  2  1  0
 18  5  1  0
 32 20  1  0
 17 12  1  0
 30 24  1  0
  3 33  1  0
  3 34  1  0
  6 35  1  0
  7 36  1  0
  8 37  1  0
 13 38  1  0
 13 39  1  0
 14 40  1  0
 14 41  1  0
 15 42  1  0
 16 43  1  0
 16 44  1  0
 17 45  1  0
 17 46  1  0
 18 47  1  0
 21 48  1  0
 22 49  1  0
 25 50  1  0
 26 51  1  0
 27 52  1  0
 30 53  1  0
 31 54  1  0
M  END
>  <smiles>  (50) 
O=C1CC(c2cccc(C(=O)N3CCNCC3)c2)=Nc2ccc(-c3cccc(F)c3)cc21

>  <score_type>  (50) 
oracle

>  <origin>  (50) 
autodockgpu

>  <m_score__min__energy>  (50) 
-7.9900000000000002

>  <m_primary>  (50) 
energy

>  <rmsd>  (50) 
11.824793007286702

>  <m_score__min__rmsd>  (50) 
11.824793007286702

>  <meeko>  (50) 
{"free_energy": -7.97, "intermolecular_energy": -8.87, "internal_energy": -0.98, "cluster_size": 35, "cluster_id": 1, "rank_in_cluster": 11}

>  <energy>  (50) 
-7.27

>  <cluster_rmsd>  (50) 
0.0

>  <cluster>  (50) 
6

$$$$
