
     RDKit          3D

 58 62  0  0  0  0  0  0  0  0999 V2000
  140.7910   71.4750  221.2800 O   0  0  0  0  0  0  0  0  0  0  0  0
  140.3940   72.0450  222.3350 C   0  0  0  0  0  0  0  0  0  0  0  0
  140.0930   73.4490  222.2490 N   0  0  0  0  0  0  0  0  0  0  0  0
  140.2500   74.1250  221.0020 C   0  0  0  0  0  0  0  0  0  0  0  0
  140.9410   75.4520  221.1750 C   0  0  0  0  0  0  0  0  0  0  0  0
  140.9570   75.9000  222.3480 O   0  0  0  0  0  0  0  0  0  0  0  0
  141.5230   76.1230  220.0640 N   0  0  0  0  0  0  0  0  0  0  0  0
  141.2270   77.4990  219.7140 C   0  0  0  0  0  0  0  0  0  0  0  0
  142.5210   77.9150  219.0700 C   0  0  2  0  0  0  0  0  0  0  0  0
  142.3080   78.8510  217.9370 C   0  0  0  0  0  0  0  0  0  0  0  0
  142.3870   80.2230  218.1300 C   0  0  0  0  0  0  0  0  0  0  0  0
  142.1860   81.0780  217.0660 C   0  0  0  0  0  0  0  0  0  0  0  0
  141.9050   80.6300  215.7900 C   0  0  0  0  0  0  0  0  0  0  0  0
  141.8260   79.2620  215.5920 C   0  0  0  0  0  0  0  0  0  0  0  0
  142.0250   78.4180  216.6530 C   0  0  0  0  0  0  0  0  0  0  0  0
  143.2840   76.6830  218.6830 C   0  0  0  0  0  0  0  0  0  0  0  0
  142.4640   75.5370  219.1470 C   0  0  1  0  0  0  0  0  0  0  0  0
  143.2600   74.4330  219.7250 C   0  0  0  0  0  0  0  0  0  0  0  0
  142.9170   73.1110  219.6700 C   0  0  0  0  0  0  0  0  0  0  0  0
  143.6860   72.0940  220.2220 C   0  0  0  0  0  0  0  0  0  0  0  0
  144.8670   72.4250  220.8650 C   0  0  0  0  0  0  0  0  0  0  0  0
  145.2480   73.7490  220.9400 C   0  0  0  0  0  0  0  0  0  0  0  0
  144.4590   74.7340  220.3800 C   0  0  0  0  0  0  0  0  0  0  0  0
  140.2340   71.3560  223.6010 C   0  0  0  0  0  0  0  0  0  0  0  0
  139.6080   70.1260  223.6300 C   0  0  0  0  0  0  0  0  0  0  0  0
  139.4130   69.4000  224.7840 C   0  0  0  0  0  0  0  0  0  0  0  0
  139.8910   69.9800  225.9630 C   0  0  0  0  0  0  0  0  0  0  0  0
  139.7280   69.3050  227.1540 C   0  0  0  0  0  0  0  0  0  0  0  0
  140.2090   69.9010  228.2980 C   0  0  0  0  0  0  0  0  0  0  0  0
  140.8410   71.1330  228.3020 C   0  0  0  0  0  0  0  0  0  0  0  0
  140.9960   71.7930  227.0970 C   0  0  0  0  0  0  0  0  0  0  0  0
  140.5180   71.2070  225.9350 C   0  0  0  0  0  0  0  0  0  0  0  0
  140.6920   71.8960  224.7680 N   0  0  0  0  0  0  0  0  0  0  0  0
  139.7590   73.9880  223.0820 H   0  0  0  0  0  0  0  0  0  0  0  0
  140.8491   73.4956  220.3275 H   0  0  0  0  0  0  0  0  0  0  0  0
  139.2503   74.3094  220.5818 H   0  0  0  0  0  0  0  0  0  0  0  0
  140.3853   77.5645  219.0089 H   0  0  0  0  0  0  0  0  0  0  0  0
  140.9201   78.1273  220.5631 H   0  0  0  0  0  0  0  0  0  0  0  0
  143.1241   78.4847  219.7922 H   0  0  0  0  0  0  0  0  0  0  0  0
  142.6092   80.6277  219.1284 H   0  0  0  0  0  0  0  0  0  0  0  0
  142.2523   82.1619  217.2412 H   0  0  0  0  0  0  0  0  0  0  0  0
  141.7494   81.3353  214.9603 H   0  0  0  0  0  0  0  0  0  0  0  0
  141.6058   78.8568  214.5933 H   0  0  0  0  0  0  0  0  0  0  0  0
  141.9559   77.3348  216.4743 H   0  0  0  0  0  0  0  0  0  0  0  0
  143.4170   76.6418  217.5918 H   0  0  0  0  0  0  0  0  0  0  0  0
  144.2879   76.6707  219.1326 H   0  0  0  0  0  0  0  0  0  0  0  0
  141.9547   75.0321  218.3130 H   0  0  0  0  0  0  0  0  0  0  0  0
  141.9811   72.8374  219.1609 H   0  0  0  0  0  0  0  0  0  0  0  0
  143.3627   71.0451  220.1496 H   0  0  0  0  0  0  0  0  0  0  0  0
  145.4951   71.6401  221.3116 H   0  0  0  0  0  0  0  0  0  0  0  0
  146.1848   74.0211  221.4483 H   0  0  0  0  0  0  0  0  0  0  0  0
  144.7817   75.7832  220.4507 H   0  0  0  0  0  0  0  0  0  0  0  0
  139.2458   69.7034  222.6812 H   0  0  0  0  0  0  0  0  0  0  0  0
  138.9107   68.4214  224.7785 H   0  0  0  0  0  0  0  0  0  0  0  0
  139.2309   68.3243  227.1890 H   0  0  0  0  0  0  0  0  0  0  0  0
  140.0853   69.3730  229.2550 H   0  0  0  0  0  0  0  0  0  0  0  0
  141.2101   71.5750  229.2392 H   0  0  0  0  0  0  0  0  0  0  0  0
  141.4936   72.7733  227.0606 H   0  0  0  0  0  0  0  0  0  0  0  0
  1  2  2  0
  2  3  1  0
  3  4  1  0
  4  5  1  0
  5  6  2  0
  5  7  1  0
  7  8  1  0
  8  9  1  0
  9 10  1  0
 10 11  2  0
 11 12  1  0
 12 13  2  0
 13 14  1  0
 14 15  2  0
  9 16  1  0
 16 17  1  0
 17 18  1  0
 18 19  2  0
 19 20  1  0
 20 21  2  0
 21 22  1  0
 22 23  2  0
  2 24  1  0
 24 25  2  0
 25 26  1  0
 26 27  2  0
 27 28  1  0
 28 29  2  0
 29 30  1  0
 30 31  2  0
 31 32  1  0
 32 33  2  0
 17  7  1  0
 23 18  1  0
 33 24  1  0
 15 10  1  0
 32 27  1  0
  3 34  1  0
  4 35  1  0
  4 36  1  0
  8 37  1  0
  8 38  1  0
  9 39  1  1
 11 40  1  0
 12 41  1  0
 13 42  1  0
 14 43  1  0
 15 44  1  0
 16 45  1  0
 16 46  1  0
 17 47  1  6
 19 48  1  0
 20 49  1  0
 21 50  1  0
 22 51  1  0
 23 52  1  0
 25 53  1  0
 26 54  1  0
 28 55  1  0
 29 56  1  0
 30 57  1  0
 31 58  1  0
M  END
>  <smiles>  (1) 
O=C(NCC(=O)N1C[C@H](c2ccccc2)C[C@H]1c1ccccc1)c1ccc2ccccc2n1

>  <score_type>  (1) 
oracle

>  <origin>  (1) 
autodockgpu

>  <m_score__min__energy>  (1) 
-9.6400000000000006

>  <m_primary>  (1) 
energy

>  <rmsd>  (1) 
2.34459686079311

>  <m_score__min__rmsd>  (1) 
2.34459686079311

>  <meeko>  (1) 
{"free_energy": -9.34, "intermolecular_energy": -11.13, "internal_energy": -2.39, "cluster_size": 26, "cluster_id": 2, "rank_in_cluster": 16}

>  <energy>  (1) 
-9.64

>  <cluster_rmsd>  (1) 
0.0

>  <cluster>  (1) 
1

$$$$

     RDKit          3D

 58 62  0  0  0  0  0  0  0  0999 V2000
  140.8060   71.4630  221.2980 O   0  0  0  0  0  0  0  0  0  0  0  0
  140.4030   72.0380  222.3470 C   0  0  0  0  0  0  0  0  0  0  0  0
  140.1030   73.4410  222.2530 N   0  0  0  0  0  0  0  0  0  0  0  0
  140.2700   74.1120  221.0050 C   0  0  0  0  0  0  0  0  0  0  0  0
  141.0010   75.4190  221.1720 C   0  0  0  0  0  0  0  0  0  0  0  0
  141.0550   75.8580  222.3480 O   0  0  0  0  0  0  0  0  0  0  0  0
  141.5760   76.0830  220.0530 N   0  0  0  0  0  0  0  0  0  0  0  0
  141.2550   77.4470  219.6780 C   0  0  0  0  0  0  0  0  0  0  0  0
  142.5430   77.8790  219.0350 C   0  0  2  0  0  0  0  0  0  0  0  0
  142.3180   78.7900  217.8850 C   0  0  0  0  0  0  0  0  0  0  0  0
  142.0210   78.2810  216.6290 C   0  0  0  0  0  0  0  0  0  0  0  0
  141.8150   79.1420  215.5700 C   0  0  0  0  0  0  0  0  0  0  0  0
  141.8900   80.5160  215.7000 C   0  0  0  0  0  0  0  0  0  0  0  0
  142.1840   81.0280  216.9510 C   0  0  0  0  0  0  0  0  0  0  0  0
  142.3890   80.1680  217.9980 C   0  0  0  0  0  0  0  0  0  0  0  0
  143.3340   76.6560  218.6740 C   0  0  0  0  0  0  0  0  0  0  0  0
  142.5350   75.5010  219.1520 C   0  0  1  0  0  0  0  0  0  0  0  0
  143.3500   74.4240  219.7540 C   0  0  0  0  0  0  0  0  0  0  0  0
  144.5050   74.6190  220.4570 C   0  0  0  0  0  0  0  0  0  0  0  0
  145.2500   73.5860  221.0130 C   0  0  0  0  0  0  0  0  0  0  0  0
  144.8090   72.2840  220.8500 C   0  0  0  0  0  0  0  0  0  0  0  0
  143.6470   72.0450  220.1460 C   0  0  0  0  0  0  0  0  0  0  0  0
  142.9310   73.0960  219.6080 C   0  0  0  0  0  0  0  0  0  0  0  0
  140.2320   71.3540  223.6140 C   0  0  0  0  0  0  0  0  0  0  0  0
  139.5830   70.1360  223.6470 C   0  0  0  0  0  0  0  0  0  0  0  0
  139.3770   69.4160  224.8020 C   0  0  0  0  0  0  0  0  0  0  0  0
  139.8680   69.9880  225.9800 C   0  0  0  0  0  0  0  0  0  0  0  0
  139.6940   69.3190  227.1720 C   0  0  0  0  0  0  0  0  0  0  0  0
  140.1890   69.9070  228.3140 C   0  0  0  0  0  0  0  0  0  0  0  0
  140.8430   71.1270  228.3150 C   0  0  0  0  0  0  0  0  0  0  0  0
  141.0080   71.7820  227.1080 C   0  0  0  0  0  0  0  0  0  0  0  0
  140.5170   71.2040  225.9480 C   0  0  0  0  0  0  0  0  0  0  0  0
  140.7020   71.8870  224.7790 N   0  0  0  0  0  0  0  0  0  0  0  0
  139.7630   73.9850  223.0820 H   0  0  0  0  0  0  0  0  0  0  0  0
  140.8453   73.4653  220.3261 H   0  0  0  0  0  0  0  0  0  0  0  0
  139.2728   74.3255  220.5928 H   0  0  0  0  0  0  0  0  0  0  0  0
  140.4165   77.4837  218.9670 H   0  0  0  0  0  0  0  0  0  0  0  0
  140.9308   78.0828  220.5150 H   0  0  0  0  0  0  0  0  0  0  0  0
  143.1293   78.4741  219.7506 H   0  0  0  0  0  0  0  0  0  0  0  0
  141.9498   77.1938  216.4775 H   0  0  0  0  0  0  0  0  0  0  0  0
  141.5817   78.7174  214.5825 H   0  0  0  0  0  0  0  0  0  0  0  0
  141.7218   81.1792  214.8387 H   0  0  0  0  0  0  0  0  0  0  0  0
  142.2526   82.1152  217.1039 H   0  0  0  0  0  0  0  0  0  0  0  0
  142.6231   80.5966  218.9836 H   0  0  0  0  0  0  0  0  0  0  0  0
  143.4753   76.5992  217.5846 H   0  0  0  0  0  0  0  0  0  0  0  0
  144.3347   76.6722  219.1305 H   0  0  0  0  0  0  0  0  0  0  0  0
  142.0420   74.9713  218.3236 H   0  0  0  0  0  0  0  0  0  0  0  0
  144.8649   75.6499  220.5902 H   0  0  0  0  0  0  0  0  0  0  0  0
  146.1730   73.7990  221.5722 H   0  0  0  0  0  0  0  0  0  0  0  0
  145.3803   71.4471  221.2782 H   0  0  0  0  0  0  0  0  0  0  0  0
  143.2895   71.0133  220.0127 H   0  0  0  0  0  0  0  0  0  0  0  0
  142.0070   72.8843  219.0500 H   0  0  0  0  0  0  0  0  0  0  0  0
  139.2106   69.7186  222.6998 H   0  0  0  0  0  0  0  0  0  0  0  0
  138.8564   68.4470  224.7986 H   0  0  0  0  0  0  0  0  0  0  0  0
  139.1774   68.3486  227.2097 H   0  0  0  0  0  0  0  0  0  0  0  0
  140.0586   69.3821  229.2719 H   0  0  0  0  0  0  0  0  0  0  0  0
  141.2214   71.5640  229.2509 H   0  0  0  0  0  0  0  0  0  0  0  0
  141.5241   72.7526  227.0691 H   0  0  0  0  0  0  0  0  0  0  0  0
  1  2  2  0
  2  3  1  0
  3  4  1  0
  4  5  1  0
  5  6  2  0
  5  7  1  0
  7  8  1  0
  8  9  1  0
  9 10  1  0
 10 11  2  0
 11 12  1  0
 12 13  2  0
 13 14  1  0
 14 15  2  0
  9 16  1  0
 16 17  1  0
 17 18  1  0
 18 19  2  0
 19 20  1  0
 20 21  2  0
 21 22  1  0
 22 23  2  0
  2 24  1  0
 24 25  2  0
 25 26  1  0
 26 27  2  0
 27 28  1  0
 28 29  2  0
 29 30  1  0
 30 31  2  0
 31 32  1  0
 32 33  2  0
 17  7  1  0
 23 18  1  0
 33 24  1  0
 15 10  1  0
 32 27  1  0
  3 34  1  0
  4 35  1  0
  4 36  1  0
  8 37  1  0
  8 38  1  0
  9 39  1  1
 11 40  1  0
 12 41  1  0
 13 42  1  0
 14 43  1  0
 15 44  1  0
 16 45  1  0
 16 46  1  0
 17 47  1  6
 19 48  1  0
 20 49  1  0
 21 50  1  0
 22 51  1  0
 23 52  1  0
 25 53  1  0
 26 54  1  0
 28 55  1  0
 29 56  1  0
 30 57  1  0
 31 58  1  0
M  END
>  <smiles>  (2) 
O=C(NCC(=O)N1C[C@H](c2ccccc2)C[C@H]1c1ccccc1)c1ccc2ccccc2n1

>  <score_type>  (2) 
oracle

>  <origin>  (2) 
autodockgpu

>  <m_score__min__energy>  (2) 
-9.6400000000000006

>  <m_primary>  (2) 
energy

>  <rmsd>  (2) 
2.348401349887039

>  <m_score__min__rmsd>  (2) 
2.348401349887039

>  <meeko>  (2) 
{"free_energy": -9.31, "intermolecular_energy": -11.1, "internal_energy": -2.38, "cluster_size": 26, "cluster_id": 2, "rank_in_cluster": 22}

>  <energy>  (2) 
-9.58

>  <cluster_rmsd>  (2) 
0.27

>  <cluster>  (2) 
1

$$$$

     RDKit          3D

 58 62  0  0  0  0  0  0  0  0999 V2000
  140.8470   71.3980  221.3190 O   0  0  0  0  0  0  0  0  0  0  0  0
  140.4440   71.9860  222.3610 C   0  0  0  0  0  0  0  0  0  0  0  0
  140.1710   73.3940  222.2560 N   0  0  0  0  0  0  0  0  0  0  0  0
  140.3630   74.0540  221.0050 C   0  0  0  0  0  0  0  0  0  0  0  0
  140.9860   75.4130  221.1860 C   0  0  0  0  0  0  0  0  0  0  0  0
  140.9480   75.8710  222.3550 O   0  0  0  0  0  0  0  0  0  0  0  0
  141.5680   76.1020  220.0860 N   0  0  0  0  0  0  0  0  0  0  0  0
  141.2430   77.4710  219.7350 C   0  0  0  0  0  0  0  0  0  0  0  0
  142.5350   77.9230  219.1120 C   0  0  2  0  0  0  0  0  0  0  0  0
  142.3160   78.8550  217.9780 C   0  0  0  0  0  0  0  0  0  0  0  0
  142.4000   80.2280  218.1660 C   0  0  0  0  0  0  0  0  0  0  0  0
  142.1940   81.0800  217.1010 C   0  0  0  0  0  0  0  0  0  0  0  0
  141.9020   80.6280  215.8280 C   0  0  0  0  0  0  0  0  0  0  0  0
  141.8180   79.2610  215.6360 C   0  0  0  0  0  0  0  0  0  0  0  0
  142.0230   78.4190  216.6980 C   0  0  0  0  0  0  0  0  0  0  0  0
  143.3370   76.7120  218.7360 C   0  0  0  0  0  0  0  0  0  0  0  0
  142.5400   75.5440  219.1840 C   0  0  1  0  0  0  0  0  0  0  0  0
  143.3560   74.4600  219.7720 C   0  0  0  0  0  0  0  0  0  0  0  0
  144.4970   74.6490  220.4990 C   0  0  0  0  0  0  0  0  0  0  0  0
  145.2440   73.6100  221.0420 C   0  0  0  0  0  0  0  0  0  0  0  0
  144.8180   72.3080  220.8410 C   0  0  0  0  0  0  0  0  0  0  0  0
  143.6690   72.0760  220.1130 C   0  0  0  0  0  0  0  0  0  0  0  0
  142.9520   73.1320  219.5880 C   0  0  0  0  0  0  0  0  0  0  0  0
  140.2490   71.3130  223.6300 C   0  0  0  0  0  0  0  0  0  0  0  0
  139.5980   70.0970  223.6610 C   0  0  0  0  0  0  0  0  0  0  0  0
  139.3680   69.3860  224.8190 C   0  0  0  0  0  0  0  0  0  0  0  0
  139.8380   69.9690  226.0000 C   0  0  0  0  0  0  0  0  0  0  0  0
  139.6410   69.3100  227.1950 C   0  0  0  0  0  0  0  0  0  0  0  0
  140.1150   69.9070  228.3410 C   0  0  0  0  0  0  0  0  0  0  0  0
  140.7710   71.1260  228.3430 C   0  0  0  0  0  0  0  0  0  0  0  0
  140.9590   71.7700  227.1340 C   0  0  0  0  0  0  0  0  0  0  0  0
  140.4890   71.1830  225.9710 C   0  0  0  0  0  0  0  0  0  0  0  0
  140.6970   71.8560  224.8000 N   0  0  0  0  0  0  0  0  0  0  0  0
  139.8340   73.9490  223.0780 H   0  0  0  0  0  0  0  0  0  0  0  0
  141.0229   73.4397  220.3747 H   0  0  0  0  0  0  0  0  0  0  0  0
  139.3793   74.1865  220.5309 H   0  0  0  0  0  0  0  0  0  0  0  0
  140.4107   77.5171  219.0172 H   0  0  0  0  0  0  0  0  0  0  0  0
  140.9078   78.0884  220.5815 H   0  0  0  0  0  0  0  0  0  0  0  0
  143.1108   78.5080  219.8443 H   0  0  0  0  0  0  0  0  0  0  0  0
  142.6302   80.6353  219.1616 H   0  0  0  0  0  0  0  0  0  0  0  0
  142.2651   82.1643  217.2720 H   0  0  0  0  0  0  0  0  0  0  0  0
  141.7421   81.3307  214.9969 H   0  0  0  0  0  0  0  0  0  0  0  0
  141.5888   78.8533  214.6404 H   0  0  0  0  0  0  0  0  0  0  0  0
  141.9505   77.3355  216.5227 H   0  0  0  0  0  0  0  0  0  0  0  0
  143.4896   76.6766  217.6472 H   0  0  0  0  0  0  0  0  0  0  0  0
  144.3330   76.7253  219.2026 H   0  0  0  0  0  0  0  0  0  0  0  0
  142.0575   75.0280  218.3409 H   0  0  0  0  0  0  0  0  0  0  0  0
  144.8437   75.6799  220.6637 H   0  0  0  0  0  0  0  0  0  0  0  0
  146.1562   73.8183  221.6204 H   0  0  0  0  0  0  0  0  0  0  0  0
  145.3903   71.4662  221.2579 H   0  0  0  0  0  0  0  0  0  0  0  0
  143.3229   71.0446  219.9503 H   0  0  0  0  0  0  0  0  0  0  0  0
  142.0393   72.9250  219.0099 H   0  0  0  0  0  0  0  0  0  0  0  0
  139.2435   69.6721  222.7103 H   0  0  0  0  0  0  0  0  0  0  0  0
  138.8459   68.4178  224.8145 H   0  0  0  0  0  0  0  0  0  0  0  0
  139.1228   68.3404  227.2312 H   0  0  0  0  0  0  0  0  0  0  0  0
  139.9655   69.3910  229.3009 H   0  0  0  0  0  0  0  0  0  0  0  0
  141.1332   71.5706  229.2817 H   0  0  0  0  0  0  0  0  0  0  0  0
  141.4771   72.7396  227.0962 H   0  0  0  0  0  0  0  0  0  0  0  0
  1  2  2  0
  2  3  1  0
  3  4  1  0
  4  5  1  0
  5  6  2  0
  5  7  1  0
  7  8  1  0
  8  9  1  0
  9 10  1  0
 10 11  2  0
 11 12  1  0
 12 13  2  0
 13 14  1  0
 14 15  2  0
  9 16  1  0
 16 17  1  0
 17 18  1  0
 18 19  2  0
 19 20  1  0
 20 21  2  0
 21 22  1  0
 22 23  2  0
  2 24  1  0
 24 25  2  0
 25 26  1  0
 26 27  2  0
 27 28  1  0
 28 29  2  0
 29 30  1  0
 30 31  2  0
 31 32  1  0
 32 33  2  0
 17  7  1  0
 23 18  1  0
 33 24  1  0
 15 10  1  0
 32 27  1  0
  3 34  1  0
  4 35  1  0
  4 36  1  0
  8 37  1  0
  8 38  1  0
  9 39  1  1
 11 40  1  0
 12 41  1  0
 13 42  1  0
 14 43  1  0
 15 44  1  0
 16 45  1  0
 16 46  1  0
 17 47  1  6
 19 48  1  0
 20 49  1  0
 21 50  1  0
 22 51  1  0
 23 52  1  0
 25 53  1  0
 26 54  1  0
 28 55  1  0
 29 56  1  0
 30 57  1  0
 31 58  1  0
M  END
>  <smiles>  (3) 
O=C(NCC(=O)N1C[C@H](c2ccccc2)C[C@H]1c1ccccc1)c1ccc2ccccc2n1

>  <score_type>  (3) 
oracle

>  <origin>  (3) 
autodockgpu

>  <m_score__min__energy>  (3) 
-9.6400000000000006

>  <m_primary>  (3) 
energy

>  <rmsd>  (3) 
2.3692113673956685

>  <m_score__min__rmsd>  (3) 
2.3692113673956685

>  <meeko>  (3) 
{"free_energy": -9.26, "intermolecular_energy": -11.05, "internal_energy": -2.39, "cluster_size": 26, "cluster_id": 2, "rank_in_cluster": 24}

>  <energy>  (3) 
-9.42

>  <cluster_rmsd>  (3) 
0.55

>  <cluster>  (3) 
1

$$$$

     RDKit          3D

 58 62  0  0  0  0  0  0  0  0999 V2000
  140.7990   71.4510  221.3340 O   0  0  0  0  0  0  0  0  0  0  0  0
  140.3710   72.0270  222.3740 C   0  0  0  0  0  0  0  0  0  0  0  0
  140.0520   73.4250  222.2650 N   0  0  0  0  0  0  0  0  0  0  0  0
  140.2280   74.0900  221.0140 C   0  0  0  0  0  0  0  0  0  0  0  0
  140.9250   75.4140  221.1850 C   0  0  0  0  0  0  0  0  0  0  0  0
  140.9510   75.8600  222.3580 O   0  0  0  0  0  0  0  0  0  0  0  0
  141.5000   76.0850  220.0700 N   0  0  0  0  0  0  0  0  0  0  0  0
  141.2040   77.4620  219.7230 C   0  0  0  0  0  0  0  0  0  0  0  0
  142.4940   77.8780  219.0710 C   0  0  2  0  0  0  0  0  0  0  0  0
  142.2740   78.8130  217.9400 C   0  0  0  0  0  0  0  0  0  0  0  0
  141.9540   78.3320  216.6780 C   0  0  0  0  0  0  0  0  0  0  0  0
  141.7530   79.2170  215.6370 C   0  0  0  0  0  0  0  0  0  0  0  0
  141.8560   80.5860  215.7900 C   0  0  0  0  0  0  0  0  0  0  0  0
  142.1750   81.0700  217.0460 C   0  0  0  0  0  0  0  0  0  0  0  0
  142.3740   80.1880  218.0760 C   0  0  0  0  0  0  0  0  0  0  0  0
  143.2540   76.6450  218.6800 C   0  0  0  0  0  0  0  0  0  0  0  0
  142.4360   75.4990  219.1470 C   0  0  1  0  0  0  0  0  0  0  0  0
  143.2350   74.3940  219.7200 C   0  0  0  0  0  0  0  0  0  0  0  0
  142.8930   73.0730  219.6650 C   0  0  0  0  0  0  0  0  0  0  0  0
  143.6650   72.0550  220.2110 C   0  0  0  0  0  0  0  0  0  0  0  0
  144.8470   72.3860  220.8510 C   0  0  0  0  0  0  0  0  0  0  0  0
  145.2280   73.7100  220.9280 C   0  0  0  0  0  0  0  0  0  0  0  0
  144.4360   74.6950  220.3730 C   0  0  0  0  0  0  0  0  0  0  0  0
  140.1910   71.3490  223.6430 C   0  0  0  0  0  0  0  0  0  0  0  0
  139.5280   70.1400  223.6790 C   0  0  0  0  0  0  0  0  0  0  0  0
  139.3110   69.4260  224.8370 C   0  0  0  0  0  0  0  0  0  0  0  0
  139.8090   69.9970  226.0130 C   0  0  0  0  0  0  0  0  0  0  0  0
  139.6260   69.3340  227.2080 C   0  0  0  0  0  0  0  0  0  0  0  0
  140.1280   69.9200  228.3480 C   0  0  0  0  0  0  0  0  0  0  0  0
  140.7980   71.1320  228.3440 C   0  0  0  0  0  0  0  0  0  0  0  0
  140.9710   71.7800  227.1360 C   0  0  0  0  0  0  0  0  0  0  0  0
  140.4730   71.2040  225.9780 C   0  0  0  0  0  0  0  0  0  0  0  0
  140.6670   71.8810  224.8070 N   0  0  0  0  0  0  0  0  0  0  0  0
  139.6910   73.9690  223.0840 H   0  0  0  0  0  0  0  0  0  0  0  0
  140.8312   73.4516  220.3518 H   0  0  0  0  0  0  0  0  0  0  0  0
  139.2346   74.2769  220.5802 H   0  0  0  0  0  0  0  0  0  0  0  0
  140.3578   77.5292  219.0234 H   0  0  0  0  0  0  0  0  0  0  0  0
  140.9038   78.0896  220.5751 H   0  0  0  0  0  0  0  0  0  0  0  0
  143.1021   78.4483  219.7887 H   0  0  0  0  0  0  0  0  0  0  0  0
  141.8608   77.2493  216.5075 H   0  0  0  0  0  0  0  0  0  0  0  0
  141.5004   78.8150  214.6447 H   0  0  0  0  0  0  0  0  0  0  0  0
  141.6901   81.2675  214.9426 H   0  0  0  0  0  0  0  0  0  0  0  0
  142.2681   82.1527  217.2165 H   0  0  0  0  0  0  0  0  0  0  0  0
  142.6273   80.5947  219.0662 H   0  0  0  0  0  0  0  0  0  0  0  0
  143.3818   76.6043  217.5882 H   0  0  0  0  0  0  0  0  0  0  0  0
  144.2597   76.6318  219.1254 H   0  0  0  0  0  0  0  0  0  0  0  0
  141.9219   74.9950  218.3153 H   0  0  0  0  0  0  0  0  0  0  0  0
  141.9545   72.7998  219.1605 H   0  0  0  0  0  0  0  0  0  0  0  0
  143.3430   71.0058  220.1361 H   0  0  0  0  0  0  0  0  0  0  0  0
  145.4769   71.6006  221.2942 H   0  0  0  0  0  0  0  0  0  0  0  0
  146.1664   73.9816  221.4336 H   0  0  0  0  0  0  0  0  0  0  0  0
  144.7573   75.7445  220.4458 H   0  0  0  0  0  0  0  0  0  0  0  0
  139.1525   69.7237  222.7326 H   0  0  0  0  0  0  0  0  0  0  0  0
  138.7777   68.4639  224.8369 H   0  0  0  0  0  0  0  0  0  0  0  0
  139.0973   68.3703  227.2490 H   0  0  0  0  0  0  0  0  0  0  0  0
  139.9904   69.4008  229.3079 H   0  0  0  0  0  0  0  0  0  0  0  0
  141.1824   71.5674  229.2781 H   0  0  0  0  0  0  0  0  0  0  0  0
  141.4990   72.7440  227.0938 H   0  0  0  0  0  0  0  0  0  0  0  0
  1  2  2  0
  2  3  1  0
  3  4  1  0
  4  5  1  0
  5  6  2  0
  5  7  1  0
  7  8  1  0
  8  9  1  0
  9 10  1  0
 10 11  2  0
 11 12  1  0
 12 13  2  0
 13 14  1  0
 14 15  2  0
  9 16  1  0
 16 17  1  0
 17 18  1  0
 18 19  2  0
 19 20  1  0
 20 21  2  0
 21 22  1  0
 22 23  2  0
  2 24  1  0
 24 25  2  0
 25 26  1  0
 26 27  2  0
 27 28  1  0
 28 29  2  0
 29 30  1  0
 30 31  2  0
 31 32  1  0
 32 33  2  0
 17  7  1  0
 23 18  1  0
 33 24  1  0
 15 10  1  0
 32 27  1  0
  3 34  1  0
  4 35  1  0
  4 36  1  0
  8 37  1  0
  8 38  1  0
  9 39  1  1
 11 40  1  0
 12 41  1  0
 13 42  1  0
 14 43  1  0
 15 44  1  0
 16 45  1  0
 16 46  1  0
 17 47  1  6
 19 48  1  0
 20 49  1  0
 21 50  1  0
 22 51  1  0
 23 52  1  0
 25 53  1  0
 26 54  1  0
 28 55  1  0
 29 56  1  0
 30 57  1  0
 31 58  1  0
M  END
>  <smiles>  (4) 
O=C(NCC(=O)N1C[C@H](c2ccccc2)C[C@H]1c1ccccc1)c1ccc2ccccc2n1

>  <score_type>  (4) 
oracle

>  <origin>  (4) 
autodockgpu

>  <m_score__min__energy>  (4) 
-9.6400000000000006

>  <m_primary>  (4) 
energy

>  <rmsd>  (4) 
2.332700125910215

>  <m_score__min__rmsd>  (4) 
2.332700125910215

>  <meeko>  (4) 
{"free_energy": -9.38, "intermolecular_energy": -11.17, "internal_energy": -2.35, "cluster_size": 26, "cluster_id": 2, "rank_in_cluster": 4}

>  <energy>  (4) 
-9.39

>  <cluster_rmsd>  (4) 
0.44

>  <cluster>  (4) 
1

$$$$

     RDKit          3D

 58 62  0  0  0  0  0  0  0  0999 V2000
  140.6740   71.5420  221.3460 O   0  0  0  0  0  0  0  0  0  0  0  0
  140.2710   72.0610  222.4240 C   0  0  0  0  0  0  0  0  0  0  0  0
  139.8940   73.4490  222.3830 N   0  0  0  0  0  0  0  0  0  0  0  0
  139.9870   74.1650  221.1520 C   0  0  0  0  0  0  0  0  0  0  0  0
  140.4420   75.5850  221.3720 C   0  0  0  0  0  0  0  0  0  0  0  0
  140.1240   76.0860  222.4780 O   0  0  0  0  0  0  0  0  0  0  0  0
  141.1780   76.2780  220.3710 N   0  0  0  0  0  0  0  0  0  0  0  0
  141.3580   75.7820  219.0200 C   0  0  0  0  0  0  0  0  0  0  0  0
  141.4780   77.0710  218.2550 C   0  0  2  0  0  0  0  0  0  0  0  0
  142.4390   76.9680  217.1280 C   0  0  0  0  0  0  0  0  0  0  0  0
  142.2800   77.7470  215.9910 C   0  0  0  0  0  0  0  0  0  0  0  0
  143.1840   77.6380  214.9530 C   0  0  0  0  0  0  0  0  0  0  0  0
  144.2620   76.7750  214.9880 C   0  0  0  0  0  0  0  0  0  0  0  0
  144.4250   75.9970  216.1210 C   0  0  0  0  0  0  0  0  0  0  0  0
  143.5240   76.1080  217.1480 C   0  0  0  0  0  0  0  0  0  0  0  0
  141.8110   78.1730  219.2170 C   0  0  0  0  0  0  0  0  0  0  0  0
  141.8380   77.5430  220.5600 C   0  0  1  0  0  0  0  0  0  0  0  0
  141.2390   78.3820  221.6210 C   0  0  0  0  0  0  0  0  0  0  0  0
  141.8280   78.6610  222.8210 C   0  0  0  0  0  0  0  0  0  0  0  0
  141.2420   79.4540  223.8000 C   0  0  0  0  0  0  0  0  0  0  0  0
  139.9920   79.9970  223.5570 C   0  0  0  0  0  0  0  0  0  0  0  0
  139.3630   79.7390  222.3550 C   0  0  0  0  0  0  0  0  0  0  0  0
  139.9760   78.9460  221.4060 C   0  0  0  0  0  0  0  0  0  0  0  0
  140.1760   71.3310  223.6730 C   0  0  0  0  0  0  0  0  0  0  0  0
  139.5810   70.0860  223.6880 C   0  0  0  0  0  0  0  0  0  0  0  0
  139.4470   69.3220  224.8260 C   0  0  0  0  0  0  0  0  0  0  0  0
  139.9560   69.8780  226.0030 C   0  0  0  0  0  0  0  0  0  0  0  0
  139.8540   69.1640  227.1790 C   0  0  0  0  0  0  0  0  0  0  0  0
  140.3650   69.7370  228.3220 C   0  0  0  0  0  0  0  0  0  0  0  0
  140.9670   70.9840  228.3390 C   0  0  0  0  0  0  0  0  0  0  0  0
  141.0600   71.6830  227.1500 C   0  0  0  0  0  0  0  0  0  0  0  0
  140.5520   71.1210  225.9890 C   0  0  0  0  0  0  0  0  0  0  0  0
  140.6650   71.8480  224.8380 N   0  0  0  0  0  0  0  0  0  0  0  0
  139.5510   73.9470  223.2380 H   0  0  0  0  0  0  0  0  0  0  0  0
  140.7086   73.6560  220.4961 H   0  0  0  0  0  0  0  0  0  0  0  0
  138.9886   74.1900  220.6909 H   0  0  0  0  0  0  0  0  0  0  0  0
  142.2698   75.1732  218.9313 H   0  0  0  0  0  0  0  0  0  0  0  0
  140.5530   75.1195  218.6690 H   0  0  0  0  0  0  0  0  0  0  0  0
  140.5148   77.3053  217.7781 H   0  0  0  0  0  0  0  0  0  0  0  0
  141.4365   78.4492  215.9167 H   0  0  0  0  0  0  0  0  0  0  0  0
  143.0397   78.2648  214.0606 H   0  0  0  0  0  0  0  0  0  0  0  0
  144.9659   76.7085  214.1453 H   0  0  0  0  0  0  0  0  0  0  0  0
  145.2696   75.2963  216.1966 H   0  0  0  0  0  0  0  0  0  0  0  0
  143.6712   75.4785  218.0380 H   0  0  0  0  0  0  0  0  0  0  0  0
  142.7931   78.6067  218.9776 H   0  0  0  0  0  0  0  0  0  0  0  0
  141.0755   78.9895  219.1676 H   0  0  0  0  0  0  0  0  0  0  0  0
  142.8649   77.4116  220.9319 H   0  0  0  0  0  0  0  0  0  0  0  0
  142.8214   78.2343  223.0238 H   0  0  0  0  0  0  0  0  0  0  0  0
  141.7616   79.6467  224.7502 H   0  0  0  0  0  0  0  0  0  0  0  0
  139.5043   80.6282  224.3144 H   0  0  0  0  0  0  0  0  0  0  0  0
  138.3700   80.1670  222.1531 H   0  0  0  0  0  0  0  0  0  0  0  0
  139.4581   78.7520  220.4552 H   0  0  0  0  0  0  0  0  0  0  0  0
  139.1932   69.6825  222.7410 H   0  0  0  0  0  0  0  0  0  0  0  0
  138.9675   68.3322  224.8096 H   0  0  0  0  0  0  0  0  0  0  0  0
  139.3808   68.1713  227.2027 H   0  0  0  0  0  0  0  0  0  0  0  0
  140.2916   69.1777  229.2664 H   0  0  0  0  0  0  0  0  0  0  0  0
  141.3611   71.4075  229.2746 H   0  0  0  0  0  0  0  0  0  0  0  0
  141.5327   72.6759  227.1253 H   0  0  0  0  0  0  0  0  0  0  0  0
  1  2  2  0
  2  3  1  0
  3  4  1  0
  4  5  1  0
  5  6  2  0
  5  7  1  0
  7  8  1  0
  8  9  1  0
  9 10  1  0
 10 11  2  0
 11 12  1  0
 12 13  2  0
 13 14  1  0
 14 15  2  0
  9 16  1  0
 16 17  1  0
 17 18  1  0
 18 19  2  0
 19 20  1  0
 20 21  2  0
 21 22  1  0
 22 23  2  0
  2 24  1  0
 24 25  2  0
 25 26  1  0
 26 27  2  0
 27 28  1  0
 28 29  2  0
 29 30  1  0
 30 31  2  0
 31 32  1  0
 32 33  2  0
 17  7  1  0
 23 18  1  0
 33 24  1  0
 15 10  1  0
 32 27  1  0
  3 34  1  0
  4 35  1  0
  4 36  1  0
  8 37  1  0
  8 38  1  0
  9 39  1  6
 11 40  1  0
 12 41  1  0
 13 42  1  0
 14 43  1  0
 15 44  1  0
 16 45  1  0
 16 46  1  0
 17 47  1  1
 19 48  1  0
 20 49  1  0
 21 50  1  0
 22 51  1  0
 23 52  1  0
 25 53  1  0
 26 54  1  0
 28 55  1  0
 29 56  1  0
 30 57  1  0
 31 58  1  0
M  END
>  <smiles>  (5) 
O=C(NCC(=O)N1C[C@H](c2ccccc2)C[C@H]1c1ccccc1)c1ccc2ccccc2n1

>  <score_type>  (5) 
oracle

>  <origin>  (5) 
autodockgpu

>  <m_score__min__energy>  (5) 
-9.6400000000000006

>  <m_primary>  (5) 
energy

>  <rmsd>  (5) 
1.5981296264489597

>  <m_score__min__rmsd>  (5) 
1.5981296264489597

>  <meeko>  (5) 
{"free_energy": -9.26, "intermolecular_energy": -11.05, "internal_energy": -1.95, "cluster_size": 2, "cluster_id": 5, "rank_in_cluster": 2}

>  <energy>  (5) 
-9.35

>  <cluster_rmsd>  (5) 
0.7

>  <cluster>  (5) 
1

$$$$

     RDKit          3D

 58 62  0  0  0  0  0  0  0  0999 V2000
  141.2280   71.7220  221.4560 O   0  0  0  0  0  0  0  0  0  0  0  0
  140.4720   72.1690  222.3640 C   0  0  0  0  0  0  0  0  0  0  0  0
  139.8560   73.4480  222.1330 N   0  0  0  0  0  0  0  0  0  0  0  0
  140.1170   74.1440  220.9140 C   0  0  0  0  0  0  0  0  0  0  0  0
  140.9850   75.3540  221.1420 C   0  0  0  0  0  0  0  0  0  0  0  0
  141.1550   75.6740  222.3440 O   0  0  0  0  0  0  0  0  0  0  0  0
  141.5550   76.0600  220.0470 N   0  0  0  0  0  0  0  0  0  0  0  0
  141.2130   77.4290  219.7120 C   0  0  0  0  0  0  0  0  0  0  0  0
  142.4980   77.9020  219.0890 C   0  0  2  0  0  0  0  0  0  0  0  0
  142.2640   78.8440  217.9660 C   0  0  0  0  0  0  0  0  0  0  0  0
  142.4090   80.2110  218.1500 C   0  0  0  0  0  0  0  0  0  0  0  0
  142.1880   81.0730  217.0940 C   0  0  0  0  0  0  0  0  0  0  0  0
  141.8210   80.6350  215.8370 C   0  0  0  0  0  0  0  0  0  0  0  0
  141.6760   79.2720  215.6480 C   0  0  0  0  0  0  0  0  0  0  0  0
  141.8960   78.4210  216.7000 C   0  0  0  0  0  0  0  0  0  0  0  0
  143.3110   76.7040  218.6970 C   0  0  0  0  0  0  0  0  0  0  0  0
  142.5290   75.5220  219.1350 C   0  0  1  0  0  0  0  0  0  0  0  0
  143.3590   74.4410  219.7080 C   0  0  0  0  0  0  0  0  0  0  0  0
  144.4770   74.6350  220.4690 C   0  0  0  0  0  0  0  0  0  0  0  0
  145.2380   73.5990  220.9970 C   0  0  0  0  0  0  0  0  0  0  0  0
  144.8520   72.2930  220.7430 C   0  0  0  0  0  0  0  0  0  0  0  0
  143.7280   72.0560  219.9790 C   0  0  0  0  0  0  0  0  0  0  0  0
  142.9950   73.1100  219.4710 C   0  0  0  0  0  0  0  0  0  0  0  0
  140.2070   71.4610  223.6000 C   0  0  0  0  0  0  0  0  0  0  0  0
  139.4510   70.3070  223.5730 C   0  0  0  0  0  0  0  0  0  0  0  0
  139.1500   69.5690  224.6960 C   0  0  0  0  0  0  0  0  0  0  0  0
  139.6580   70.0540  225.9050 C   0  0  0  0  0  0  0  0  0  0  0  0
  139.3930   69.3630  227.0680 C   0  0  0  0  0  0  0  0  0  0  0  0
  139.9080   69.8650  228.2420 C   0  0  0  0  0  0  0  0  0  0  0  0
  140.6690   71.0200  228.3030 C   0  0  0  0  0  0  0  0  0  0  0  0
  140.9240   71.6980  227.1250 C   0  0  0  0  0  0  0  0  0  0  0  0
  140.4140   71.2070  225.9330 C   0  0  0  0  0  0  0  0  0  0  0  0
  140.6910   71.9100  224.7950 N   0  0  0  0  0  0  0  0  0  0  0  0
  139.2180   73.8830  222.8400 H   0  0  0  0  0  0  0  0  0  0  0  0
  140.6284   73.4639  220.2169 H   0  0  0  0  0  0  0  0  0  0  0  0
  139.1565   74.4826  220.4983 H   0  0  0  0  0  0  0  0  0  0  0  0
  140.3775   77.4734  218.9978 H   0  0  0  0  0  0  0  0  0  0  0  0
  140.8739   78.0335  220.5661 H   0  0  0  0  0  0  0  0  0  0  0  0
  143.0707   78.4853  219.8250 H   0  0  0  0  0  0  0  0  0  0  0  0
  142.6992   80.6074  219.1342 H   0  0  0  0  0  0  0  0  0  0  0  0
  142.3094   82.1534  217.2612 H   0  0  0  0  0  0  0  0  0  0  0  0
  141.6498   81.3450  215.0144 H   0  0  0  0  0  0  0  0  0  0  0  0
  141.3871   78.8753  214.6635 H   0  0  0  0  0  0  0  0  0  0  0  0
  141.7733   77.3414  216.5287 H   0  0  0  0  0  0  0  0  0  0  0  0
  143.4597   76.6822  217.6073 H   0  0  0  0  0  0  0  0  0  0  0  0
  144.3084   76.7231  219.1605 H   0  0  0  0  0  0  0  0  0  0  0  0
  142.0491   75.0095  218.2882 H   0  0  0  0  0  0  0  0  0  0  0  0
  144.7922   75.6685  220.6752 H   0  0  0  0  0  0  0  0  0  0  0  0
  146.1297   73.8119  221.6049 H   0  0  0  0  0  0  0  0  0  0  0  0
  145.4362   71.4529  221.1467 H   0  0  0  0  0  0  0  0  0  0  0  0
  143.4141   71.0219  219.7735 H   0  0  0  0  0  0  0  0  0  0  0  0
  142.1020   72.8986  218.8644 H   0  0  0  0  0  0  0  0  0  0  0  0
  139.0683   69.9579  222.6026 H   0  0  0  0  0  0  0  0  0  0  0  0
  138.5452   68.6516  224.6449 H   0  0  0  0  0  0  0  0  0  0  0  0
  138.7909   68.4424  227.0584 H   0  0  0  0  0  0  0  0  0  0  0  0
  139.7050   69.3221  229.1769 H   0  0  0  0  0  0  0  0  0  0  0  0
  141.0603   71.3885  229.2627 H   0  0  0  0  0  0  0  0  0  0  0  0
  141.5260   72.6186  227.1337 H   0  0  0  0  0  0  0  0  0  0  0  0
  1  2  2  0
  2  3  1  0
  3  4  1  0
  4  5  1  0
  5  6  2  0
  5  7  1  0
  7  8  1  0
  8  9  1  0
  9 10  1  0
 10 11  2  0
 11 12  1  0
 12 13  2  0
 13 14  1  0
 14 15  2  0
  9 16  1  0
 16 17  1  0
 17 18  1  0
 18 19  2  0
 19 20  1  0
 20 21  2  0
 21 22  1  0
 22 23  2  0
  2 24  1  0
 24 25  2  0
 25 26  1  0
 26 27  2  0
 27 28  1  0
 28 29  2  0
 29 30  1  0
 30 31  2  0
 31 32  1  0
 32 33  2  0
 17  7  1  0
 23 18  1  0
 33 24  1  0
 15 10  1  0
 32 27  1  0
  3 34  1  0
  4 35  1  0
  4 36  1  0
  8 37  1  0
  8 38  1  0
  9 39  1  1
 11 40  1  0
 12 41  1  0
 13 42  1  0
 14 43  1  0
 15 44  1  0
 16 45  1  0
 16 46  1  0
 17 47  1  6
 19 48  1  0
 20 49  1  0
 21 50  1  0
 22 51  1  0
 23 52  1  0
 25 53  1  0
 26 54  1  0
 28 55  1  0
 29 56  1  0
 30 57  1  0
 31 58  1  0
M  END
>  <smiles>  (6) 
O=C(NCC(=O)N1C[C@H](c2ccccc2)C[C@H]1c1ccccc1)c1ccc2ccccc2n1

>  <score_type>  (6) 
oracle

>  <origin>  (6) 
autodockgpu

>  <m_score__min__energy>  (6) 
-9.6400000000000006

>  <m_primary>  (6) 
energy

>  <rmsd>  (6) 
2.346842937774178

>  <m_score__min__rmsd>  (6) 
2.346842937774178

>  <meeko>  (6) 
{"free_energy": -9.35, "intermolecular_energy": -11.14, "internal_energy": -2.13, "cluster_size": 26, "cluster_id": 2, "rank_in_cluster": 15}

>  <energy>  (6) 
-9.29

>  <cluster_rmsd>  (6) 
0.61

>  <cluster>  (6) 
1

$$$$

     RDKit          3D

 58 62  0  0  0  0  0  0  0  0999 V2000
  136.0650   76.1100  221.4970 O   0  0  0  0  0  0  0  0  0  0  0  0
  137.2010   76.0230  222.0420 C   0  0  0  0  0  0  0  0  0  0  0  0
  137.7090   74.7020  222.2950 N   0  0  0  0  0  0  0  0  0  0  0  0
  136.9250   73.5670  221.9270 C   0  0  0  0  0  0  0  0  0  0  0  0
  137.7680   72.3230  221.8230 C   0  0  0  0  0  0  0  0  0  0  0  0
  137.5930   71.6400  220.7840 O   0  0  0  0  0  0  0  0  0  0  0  0
  138.6870   71.9750  222.8520 N   0  0  0  0  0  0  0  0  0  0  0  0
  138.4060   70.9910  223.8790 C   0  0  0  0  0  0  0  0  0  0  0  0
  139.7890   70.4750  224.1680 C   0  0  2  0  0  0  0  0  0  0  0  0
  139.9760   70.1460  225.6030 C   0  0  0  0  0  0  0  0  0  0  0  0
  140.3700   71.1230  226.5060 C   0  0  0  0  0  0  0  0  0  0  0  0
  140.5390   70.8000  227.8380 C   0  0  0  0  0  0  0  0  0  0  0  0
  140.3310   69.5250  228.3290 C   0  0  0  0  0  0  0  0  0  0  0  0
  139.9370   68.5480  227.4320 C   0  0  0  0  0  0  0  0  0  0  0  0
  139.7720   68.8740  226.1120 C   0  0  0  0  0  0  0  0  0  0  0  0
  140.7890   71.4680  223.6540 C   0  0  0  0  0  0  0  0  0  0  0  0
  139.9980   72.5470  223.0140 C   0  0  1  0  0  0  0  0  0  0  0  0
  140.5930   73.0560  221.7600 C   0  0  0  0  0  0  0  0  0  0  0  0
  141.0160   72.2730  220.7230 C   0  0  0  0  0  0  0  0  0  0  0  0
  141.5710   72.7790  219.5540 C   0  0  0  0  0  0  0  0  0  0  0  0
  141.7100   74.1500  219.4220 C   0  0  0  0  0  0  0  0  0  0  0  0
  141.2940   74.9750  220.4470 C   0  0  0  0  0  0  0  0  0  0  0  0
  140.7460   74.4370  221.5940 C   0  0  0  0  0  0  0  0  0  0  0  0
  137.9960   77.1770  222.4140 C   0  0  0  0  0  0  0  0  0  0  0  0
  137.3680   78.3780  222.6760 C   0  0  0  0  0  0  0  0  0  0  0  0
  138.0410   79.5250  223.0360 C   0  0  0  0  0  0  0  0  0  0  0  0
  139.4330   79.4180  223.1270 C   0  0  0  0  0  0  0  0  0  0  0  0
  140.1670   80.5290  223.4820 C   0  0  0  0  0  0  0  0  0  0  0  0
  141.5350   80.3930  223.5650 C   0  0  0  0  0  0  0  0  0  0  0  0
  142.1940   79.2030  223.3070 C   0  0  0  0  0  0  0  0  0  0  0  0
  141.4380   78.1000  222.9530 C   0  0  0  0  0  0  0  0  0  0  0  0
  140.0600   78.2190  222.8660 C   0  0  0  0  0  0  0  0  0  0  0  0
  139.3550   77.1030  222.5120 N   0  0  0  0  0  0  0  0  0  0  0  0
  138.6430   74.5510  222.7440 H   0  0  0  0  0  0  0  0  0  0  0  0
  136.1466   73.4085  222.6879 H   0  0  0  0  0  0  0  0  0  0  0  0
  136.4762   73.7627  220.9420 H   0  0  0  0  0  0  0  0  0  0  0  0
  137.9533   71.4534  224.7685 H   0  0  0  0  0  0  0  0  0  0  0  0
  137.6861   70.2153  223.5790 H   0  0  0  0  0  0  0  0  0  0  0  0
  139.9434   69.5214  223.6419 H   0  0  0  0  0  0  0  0  0  0  0  0
  140.5473   72.1526  226.1617 H   0  0  0  0  0  0  0  0  0  0  0  0
  140.8520   71.5898  228.5367 H   0  0  0  0  0  0  0  0  0  0  0  0
  140.4736   69.2951  229.3952 H   0  0  0  0  0  0  0  0  0  0  0  0
  139.7579   67.5186  227.7759 H   0  0  0  0  0  0  0  0  0  0  0  0
  139.4598   68.0808  225.4167 H   0  0  0  0  0  0  0  0  0  0  0  0
  141.3874   71.8728  224.4835 H   0  0  0  0  0  0  0  0  0  0  0  0
  141.4896   71.0050  222.9435 H   0  0  0  0  0  0  0  0  0  0  0  0
  139.9688   73.4572  223.6311 H   0  0  0  0  0  0  0  0  0  0  0  0
  140.9114   71.1822  220.8190 H   0  0  0  0  0  0  0  0  0  0  0  0
  141.8938   72.1029  218.7486 H   0  0  0  0  0  0  0  0  0  0  0  0
  142.1481   74.5779  218.5083 H   0  0  0  0  0  0  0  0  0  0  0  0
  141.3995   76.0656  220.3496 H   0  0  0  0  0  0  0  0  0  0  0  0
  140.4208   75.1121  222.3993 H   0  0  0  0  0  0  0  0  0  0  0  0
  136.2720   78.4216  222.5929 H   0  0  0  0  0  0  0  0  0  0  0  0
  137.5149   80.4693  223.2399 H   0  0  0  0  0  0  0  0  0  0  0  0
  139.6772   81.4913  223.6918 H   0  0  0  0  0  0  0  0  0  0  0  0
  142.1325   81.2716  223.8498 H   0  0  0  0  0  0  0  0  0  0  0  0
  143.2895   79.1365  223.3815 H   0  0  0  0  0  0  0  0  0  0  0  0
  141.9262   77.1370  222.7424 H   0  0  0  0  0  0  0  0  0  0  0  0
  1  2  2  0
  2  3  1  0
  3  4  1  0
  4  5  1  0
  5  6  2  0
  5  7  1  0
  7  8  1  0
  8  9  1  0
  9 10  1  0
 10 11  2  0
 11 12  1  0
 12 13  2  0
 13 14  1  0
 14 15  2  0
  9 16  1  0
 16 17  1  0
 17 18  1  0
 18 19  2  0
 19 20  1  0
 20 21  2  0
 21 22  1  0
 22 23  2  0
  2 24  1  0
 24 25  2  0
 25 26  1  0
 26 27  2  0
 27 28  1  0
 28 29  2  0
 29 30  1  0
 30 31  2  0
 31 32  1  0
 32 33  2  0
 17  7  1  0
 23 18  1  0
 33 24  1  0
 15 10  1  0
 32 27  1  0
  3 34  1  0
  4 35  1  0
  4 36  1  0
  8 37  1  0
  8 38  1  0
  9 39  1  6
 11 40  1  0
 12 41  1  0
 13 42  1  0
 14 43  1  0
 15 44  1  0
 16 45  1  0
 16 46  1  0
 17 47  1  1
 19 48  1  0
 20 49  1  0
 21 50  1  0
 22 51  1  0
 23 52  1  0
 25 53  1  0
 26 54  1  0
 28 55  1  0
 29 56  1  0
 30 57  1  0
 31 58  1  0
M  END
>  <smiles>  (7) 
O=C(NCC(=O)N1C[C@H](c2ccccc2)C[C@H]1c1ccccc1)c1ccc2ccccc2n1

>  <score_type>  (7) 
oracle

>  <origin>  (7) 
autodockgpu

>  <m_score__min__energy>  (7) 
-9.6400000000000006

>  <m_primary>  (7) 
energy

>  <rmsd>  (7) 
7.977862646075878

>  <m_score__min__rmsd>  (7) 
7.977862646075878

>  <meeko>  (7) 
{"free_energy": -8.74, "intermolecular_energy": -10.53, "internal_energy": -2.47, "cluster_size": 8, "cluster_id": 7, "rank_in_cluster": 1}

>  <energy>  (7) 
-9.44

>  <cluster_rmsd>  (7) 
0.0

>  <cluster>  (7) 
2

$$$$

     RDKit          3D

 58 62  0  0  0  0  0  0  0  0999 V2000
  139.4760   71.3610  221.2990 O   0  0  0  0  0  0  0  0  0  0  0  0
  140.0220   71.8060  222.3470 C   0  0  0  0  0  0  0  0  0  0  0  0
  140.6770   73.0830  222.2540 N   0  0  0  0  0  0  0  0  0  0  0  0
  140.6830   73.7790  221.0080 C   0  0  0  0  0  0  0  0  0  0  0  0
  141.1960   75.1870  221.1630 C   0  0  0  0  0  0  0  0  0  0  0  0
  141.1600   75.6460  222.3310 O   0  0  0  0  0  0  0  0  0  0  0  0
  141.6780   75.9160  220.0410 N   0  0  0  0  0  0  0  0  0  0  0  0
  141.1800   77.2240  219.6600 C   0  0  0  0  0  0  0  0  0  0  0  0
  142.4010   77.8190  219.0140 C   0  0  2  0  0  0  0  0  0  0  0  0
  142.0580   78.6880  217.8610 C   0  0  0  0  0  0  0  0  0  0  0  0
  142.2210   80.0640  217.9400 C   0  0  0  0  0  0  0  0  0  0  0  0
  141.8970   80.8570  216.8580 C   0  0  0  0  0  0  0  0  0  0  0  0
  141.4080   80.3410  215.6740 C   0  0  0  0  0  0  0  0  0  0  0  0
  141.2450   78.9700  215.5890 C   0  0  0  0  0  0  0  0  0  0  0  0
  141.5680   78.1870  216.6670 C   0  0  0  0  0  0  0  0  0  0  0  0
  143.3450   76.7100  218.6580 C   0  0  0  0  0  0  0  0  0  0  0  0
  142.7050   75.4620  219.1410 C   0  0  1  0  0  0  0  0  0  0  0  0
  143.6550   74.5030  219.7460 C   0  0  0  0  0  0  0  0  0  0  0  0
  144.7600   74.8520  220.4710 C   0  0  0  0  0  0  0  0  0  0  0  0
  145.6350   73.9280  221.0300 C   0  0  0  0  0  0  0  0  0  0  0  0
  145.3850   72.5780  220.8480 C   0  0  0  0  0  0  0  0  0  0  0  0
  144.2790   72.1870  220.1220 C   0  0  0  0  0  0  0  0  0  0  0  0
  143.4300   73.1320  219.5820 C   0  0  0  0  0  0  0  0  0  0  0  0
  140.0140   71.0980  223.6120 C   0  0  0  0  0  0  0  0  0  0  0  0
  139.4870   69.8240  223.6740 C   0  0  0  0  0  0  0  0  0  0  0  0
  139.4370   69.0770  224.8300 C   0  0  0  0  0  0  0  0  0  0  0  0
  139.9610   69.6830  225.9760 C   0  0  0  0  0  0  0  0  0  0  0  0
  139.9430   68.9900  227.1670 C   0  0  0  0  0  0  0  0  0  0  0  0
  140.4660   69.6120  228.2780 C   0  0  0  0  0  0  0  0  0  0  0  0
  141.0020   70.8880  228.2490 C   0  0  0  0  0  0  0  0  0  0  0  0
  141.0110   71.5670  227.0440 C   0  0  0  0  0  0  0  0  0  0  0  0
  140.4890   70.9550  225.9150 C   0  0  0  0  0  0  0  0  0  0  0  0
  140.5190   71.6630  224.7470 N   0  0  0  0  0  0  0  0  0  0  0  0
  141.1510   73.5160  223.0810 H   0  0  0  0  0  0  0  0  0  0  0  0
  141.3295   73.2392  220.3004 H   0  0  0  0  0  0  0  0  0  0  0  0
  139.6491   73.8280  220.6358 H   0  0  0  0  0  0  0  0  0  0  0  0
  140.3440   77.1467  218.9492 H   0  0  0  0  0  0  0  0  0  0  0  0
  140.7745   77.8154  220.4941 H   0  0  0  0  0  0  0  0  0  0  0  0
  142.9045   78.4888  219.7267 H   0  0  0  0  0  0  0  0  0  0  0  0
  142.6075   80.5214  218.8627 H   0  0  0  0  0  0  0  0  0  0  0  0
  142.0339   81.9452  216.9421 H   0  0  0  0  0  0  0  0  0  0  0  0
  141.1569   80.9975  214.8279 H   0  0  0  0  0  0  0  0  0  0  0  0
  140.8600   78.5126  214.6657 H   0  0  0  0  0  0  0  0  0  0  0  0
  141.4300   77.0993  216.5783 H   0  0  0  0  0  0  0  0  0  0  0  0
  143.4926   76.6678  217.5688 H   0  0  0  0  0  0  0  0  0  0  0  0
  144.3348   76.8595  219.1141 H   0  0  0  0  0  0  0  0  0  0  0  0
  142.2854   74.8693  218.3148 H   0  0  0  0  0  0  0  0  0  0  0  0
  144.9680   75.9218  220.6201 H   0  0  0  0  0  0  0  0  0  0  0  0
  146.5100   74.2628  221.6064 H   0  0  0  0  0  0  0  0  0  0  0  0
  146.0617   71.8249  221.2781 H   0  0  0  0  0  0  0  0  0  0  0  0
  144.0727   71.1169  219.9727 H   0  0  0  0  0  0  0  0  0  0  0  0
  142.5533   72.7982  219.0075 H   0  0  0  0  0  0  0  0  0  0  0  0
  139.0853   69.3814  222.7505 H   0  0  0  0  0  0  0  0  0  0  0  0
  139.0100   68.0635  224.8505 H   0  0  0  0  0  0  0  0  0  0  0  0
  139.5249   67.9744  227.2278 H   0  0  0  0  0  0  0  0  0  0  0  0
  140.4576   69.0691  229.2347 H   0  0  0  0  0  0  0  0  0  0  0  0
  141.4100   71.3498  229.1602 H   0  0  0  0  0  0  0  0  0  0  0  0
  141.4284   72.5829  226.9822 H   0  0  0  0  0  0  0  0  0  0  0  0
  1  2  2  0
  2  3  1  0
  3  4  1  0
  4  5  1  0
  5  6  2  0
  5  7  1  0
  7  8  1  0
  8  9  1  0
  9 10  1  0
 10 11  2  0
 11 12  1  0
 12 13  2  0
 13 14  1  0
 14 15  2  0
  9 16  1  0
 16 17  1  0
 17 18  1  0
 18 19  2  0
 19 20  1  0
 20 21  2  0
 21 22  1  0
 22 23  2  0
  2 24  1  0
 24 25  2  0
 25 26  1  0
 26 27  2  0
 27 28  1  0
 28 29  2  0
 29 30  1  0
 30 31  2  0
 31 32  1  0
 32 33  2  0
 17  7  1  0
 23 18  1  0
 33 24  1  0
 15 10  1  0
 32 27  1  0
  3 34  1  0
  4 35  1  0
  4 36  1  0
  8 37  1  0
  8 38  1  0
  9 39  1  1
 11 40  1  0
 12 41  1  0
 13 42  1  0
 14 43  1  0
 15 44  1  0
 16 45  1  0
 16 46  1  0
 17 47  1  6
 19 48  1  0
 20 49  1  0
 21 50  1  0
 22 51  1  0
 23 52  1  0
 25 53  1  0
 26 54  1  0
 28 55  1  0
 29 56  1  0
 30 57  1  0
 31 58  1  0
M  END
>  <smiles>  (8) 
O=C(NCC(=O)N1C[C@H](c2ccccc2)C[C@H]1c1ccccc1)c1ccc2ccccc2n1

>  <score_type>  (8) 
oracle

>  <origin>  (8) 
autodockgpu

>  <m_score__min__energy>  (8) 
-9.6400000000000006

>  <m_primary>  (8) 
energy

>  <rmsd>  (8) 
2.309187772622049

>  <m_score__min__rmsd>  (8) 
2.309187772622049

>  <meeko>  (8) 
{"free_energy": -8.63, "intermolecular_energy": -10.42, "internal_energy": -2.47, "cluster_size": 26, "cluster_id": 2, "rank_in_cluster": 26}

>  <energy>  (8) 
-9.41

>  <cluster_rmsd>  (8) 
0.19

>  <cluster>  (8) 
2

$$$$

     RDKit          3D

 58 62  0  0  0  0  0  0  0  0999 V2000
  136.5830   76.4050  221.1520 O   0  0  0  0  0  0  0  0  0  0  0  0
  137.5930   76.3200  221.9060 C   0  0  0  0  0  0  0  0  0  0  0  0
  137.9810   75.0040  222.3370 N   0  0  0  0  0  0  0  0  0  0  0  0
  137.2260   73.8730  221.9060 C   0  0  0  0  0  0  0  0  0  0  0  0
  138.1050   72.6670  221.6970 C   0  0  0  0  0  0  0  0  0  0  0  0
  138.0440   72.1490  220.5560 O   0  0  0  0  0  0  0  0  0  0  0  0
  138.9330   72.1770  222.7450 N   0  0  0  0  0  0  0  0  0  0  0  0
  138.5140   71.1570  223.6870 C   0  0  0  0  0  0  0  0  0  0  0  0
  139.8310   70.5070  224.0110 C   0  0  2  0  0  0  0  0  0  0  0  0
  139.9090   70.0720  225.4280 C   0  0  0  0  0  0  0  0  0  0  0  0
  140.3000   70.9620  226.4180 C   0  0  0  0  0  0  0  0  0  0  0  0
  140.3670   70.5410  227.7310 C   0  0  0  0  0  0  0  0  0  0  0  0
  140.0570   69.2520  228.1190 C   0  0  0  0  0  0  0  0  0  0  0  0
  139.6650   68.3610  227.1350 C   0  0  0  0  0  0  0  0  0  0  0  0
  139.6010   68.7840  225.8330 C   0  0  0  0  0  0  0  0  0  0  0  0
  140.9370   71.4400  223.6170 C   0  0  0  0  0  0  0  0  0  0  0  0
  140.2750   72.6220  223.0120 C   0  0  1  0  0  0  0  0  0  0  0  0
  140.9800   73.1560  221.8270 C   0  0  0  0  0  0  0  0  0  0  0  0
  141.6860   72.4010  220.9340 C   0  0  0  0  0  0  0  0  0  0  0  0
  142.3380   72.9300  219.8270 C   0  0  0  0  0  0  0  0  0  0  0  0
  142.2780   74.2960  219.6070 C   0  0  0  0  0  0  0  0  0  0  0  0
  141.5740   75.0930  220.4880 C   0  0  0  0  0  0  0  0  0  0  0  0
  140.9380   74.5320  221.5770 C   0  0  0  0  0  0  0  0  0  0  0  0
  138.3600   77.4710  222.3410 C   0  0  0  0  0  0  0  0  0  0  0  0
  137.7050   78.6420  222.6600 C   0  0  0  0  0  0  0  0  0  0  0  0
  138.3500   79.7840  223.0830 C   0  0  0  0  0  0  0  0  0  0  0  0
  139.7420   79.7030  223.1780 C   0  0  0  0  0  0  0  0  0  0  0  0
  140.4500   80.8100  223.5950 C   0  0  0  0  0  0  0  0  0  0  0  0
  141.8200   80.7000  223.6790 C   0  0  0  0  0  0  0  0  0  0  0  0
  142.5060   79.5390  223.3650 C   0  0  0  0  0  0  0  0  0  0  0  0
  141.7780   78.4390  222.9500 C   0  0  0  0  0  0  0  0  0  0  0  0
  140.3980   78.5320  222.8600 C   0  0  0  0  0  0  0  0  0  0  0  0
  139.7200   77.4220  222.4450 N   0  0  0  0  0  0  0  0  0  0  0  0
  138.8090   74.8560  222.9620 H   0  0  0  0  0  0  0  0  0  0  0  0
  136.4703   73.6361  222.6695 H   0  0  0  0  0  0  0  0  0  0  0  0
  136.7497   74.1224  220.9464 H   0  0  0  0  0  0  0  0  0  0  0  0
  138.0508   71.5990  224.5815 H   0  0  0  0  0  0  0  0  0  0  0  0
  137.7511   70.4665  223.2981 H   0  0  0  0  0  0  0  0  0  0  0  0
  139.9354   69.5788  223.4300 H   0  0  0  0  0  0  0  0  0  0  0  0
  140.5558   71.9997  226.1575 H   0  0  0  0  0  0  0  0  0  0  0  0
  140.6803   71.2621  228.5004 H   0  0  0  0  0  0  0  0  0  0  0  0
  140.1195   68.9444  229.1733 H   0  0  0  0  0  0  0  0  0  0  0  0
  139.4074   67.3238  227.3954 H   0  0  0  0  0  0  0  0  0  0  0  0
  139.2874   68.0598  225.0667 H   0  0  0  0  0  0  0  0  0  0  0  0
  141.5193   71.7383  224.5013 H   0  0  0  0  0  0  0  0  0  0  0  0
  141.6358   70.9640  222.9134 H   0  0  0  0  0  0  0  0  0  0  0  0
  140.2863   73.4903  223.6872 H   0  0  0  0  0  0  0  0  0  0  0  0
  141.7414   71.3151  221.1004 H   0  0  0  0  0  0  0  0  0  0  0  0
  142.8918   72.2756  219.1377 H   0  0  0  0  0  0  0  0  0  0  0  0
  142.7861   74.7417  218.7391 H   0  0  0  0  0  0  0  0  0  0  0  0
  141.5199   76.1789  220.3213 H   0  0  0  0  0  0  0  0  0  0  0  0
  140.3830   75.1845  222.2671 H   0  0  0  0  0  0  0  0  0  0  0  0
  136.6088   78.6657  222.5721 H   0  0  0  0  0  0  0  0  0  0  0  0
  137.8017   80.7048  223.3312 H   0  0  0  0  0  0  0  0  0  0  0  0
  139.9380   81.7491  223.8519 H   0  0  0  0  0  0  0  0  0  0  0  0
  142.3967   81.5758  224.0112 H   0  0  0  0  0  0  0  0  0  0  0  0
  143.6022   79.4928  223.4437 H   0  0  0  0  0  0  0  0  0  0  0  0
  142.2891   77.4993  222.6938 H   0  0  0  0  0  0  0  0  0  0  0  0
  1  2  2  0
  2  3  1  0
  3  4  1  0
  4  5  1  0
  5  6  2  0
  5  7  1  0
  7  8  1  0
  8  9  1  0
  9 10  1  0
 10 11  2  0
 11 12  1  0
 12 13  2  0
 13 14  1  0
 14 15  2  0
  9 16  1  0
 16 17  1  0
 17 18  1  0
 18 19  2  0
 19 20  1  0
 20 21  2  0
 21 22  1  0
 22 23  2  0
  2 24  1  0
 24 25  2  0
 25 26  1  0
 26 27  2  0
 27 28  1  0
 28 29  2  0
 29 30  1  0
 30 31  2  0
 31 32  1  0
 32 33  2  0
 17  7  1  0
 23 18  1  0
 33 24  1  0
 15 10  1  0
 32 27  1  0
  3 34  1  0
  4 35  1  0
  4 36  1  0
  8 37  1  0
  8 38  1  0
  9 39  1  6
 11 40  1  0
 12 41  1  0
 13 42  1  0
 14 43  1  0
 15 44  1  0
 16 45  1  0
 16 46  1  0
 17 47  1  1
 19 48  1  0
 20 49  1  0
 21 50  1  0
 22 51  1  0
 23 52  1  0
 25 53  1  0
 26 54  1  0
 28 55  1  0
 29 56  1  0
 30 57  1  0
 31 58  1  0
M  END
>  <smiles>  (9) 
O=C(NCC(=O)N1C[C@H](c2ccccc2)C[C@H]1c1ccccc1)c1ccc2ccccc2n1

>  <score_type>  (9) 
oracle

>  <origin>  (9) 
autodockgpu

>  <m_score__min__energy>  (9) 
-9.6400000000000006

>  <m_primary>  (9) 
energy

>  <rmsd>  (9) 
8.06039631545758

>  <m_score__min__rmsd>  (9) 
8.06039631545758

>  <meeko>  (9) 
{"free_energy": -8.74, "intermolecular_energy": -10.53, "internal_energy": -2.37, "cluster_size": 8, "cluster_id": 7, "rank_in_cluster": 2}

>  <energy>  (9) 
-9.41

>  <cluster_rmsd>  (9) 
0.18

>  <cluster>  (9) 
2

$$$$

     RDKit          3D

 58 62  0  0  0  0  0  0  0  0999 V2000
  141.0300   71.5680  221.3760 O   0  0  0  0  0  0  0  0  0  0  0  0
  140.4620   72.0980  222.3720 C   0  0  0  0  0  0  0  0  0  0  0  0
  140.0100   73.4560  222.2240 N   0  0  0  0  0  0  0  0  0  0  0  0
  140.2160   74.1320  220.9840 C   0  0  0  0  0  0  0  0  0  0  0  0
  141.0040   75.4030  221.1720 C   0  0  0  0  0  0  0  0  0  0  0  0
  141.1060   75.8020  222.3580 O   0  0  0  0  0  0  0  0  0  0  0  0
  141.5780   76.0770  220.0580 N   0  0  0  0  0  0  0  0  0  0  0  0
  141.2720   77.4510  219.7100 C   0  0  0  0  0  0  0  0  0  0  0  0
  142.5610   77.8760  219.0600 C   0  0  2  0  0  0  0  0  0  0  0  0
  142.3380   78.8090  217.9280 C   0  0  0  0  0  0  0  0  0  0  0  0
  142.0380   78.3250  216.6630 C   0  0  0  0  0  0  0  0  0  0  0  0
  141.8330   79.2080  215.6210 C   0  0  0  0  0  0  0  0  0  0  0  0
  141.9130   80.5780  215.7770 C   0  0  0  0  0  0  0  0  0  0  0  0
  142.2110   81.0650  217.0370 C   0  0  0  0  0  0  0  0  0  0  0  0
  142.4140   80.1850  218.0670 C   0  0  0  0  0  0  0  0  0  0  0  0
  143.3300   76.6480  218.6710 C   0  0  0  0  0  0  0  0  0  0  0  0
  142.5190   75.4970  219.1380 C   0  0  1  0  0  0  0  0  0  0  0  0
  143.3250   74.3980  219.7130 C   0  0  0  0  0  0  0  0  0  0  0  0
  143.0170   73.0700  219.6130 C   0  0  0  0  0  0  0  0  0  0  0  0
  143.7940   72.0580  220.1630 C   0  0  0  0  0  0  0  0  0  0  0  0
  144.9450   72.4010  220.8530 C   0  0  0  0  0  0  0  0  0  0  0  0
  145.2890   73.7310  220.9760 C   0  0  0  0  0  0  0  0  0  0  0  0
  144.4940   74.7110  220.4160 C   0  0  0  0  0  0  0  0  0  0  0  0
  140.2530   71.4080  223.6300 C   0  0  0  0  0  0  0  0  0  0  0  0
  139.5260   70.2360  223.6480 C   0  0  0  0  0  0  0  0  0  0  0  0
  139.2780   69.5130  224.7940 C   0  0  0  0  0  0  0  0  0  0  0  0
  139.8100   70.0350  225.9770 C   0  0  0  0  0  0  0  0  0  0  0  0
  139.5990   69.3610  227.1610 C   0  0  0  0  0  0  0  0  0  0  0  0
  140.1360   69.8990  228.3090 C   0  0  0  0  0  0  0  0  0  0  0  0
  140.8690   71.0730  228.3230 C   0  0  0  0  0  0  0  0  0  0  0  0
  141.0710   71.7340  227.1250 C   0  0  0  0  0  0  0  0  0  0  0  0
  140.5380   71.2060  225.9600 C   0  0  0  0  0  0  0  0  0  0  0  0
  140.7620   71.8930  224.8000 N   0  0  0  0  0  0  0  0  0  0  0  0
  139.5310   73.9610  223.0060 H   0  0  0  0  0  0  0  0  0  0  0  0
  140.7667   73.4676  220.3019 H   0  0  0  0  0  0  0  0  0  0  0  0
  139.2327   74.3941  220.5663 H   0  0  0  0  0  0  0  0  0  0  0  0
  140.4267   77.5115  219.0087 H   0  0  0  0  0  0  0  0  0  0  0  0
  140.9651   78.0769  220.5609 H   0  0  0  0  0  0  0  0  0  0  0  0
  143.1630   78.4511  219.7789 H   0  0  0  0  0  0  0  0  0  0  0  0
  141.9636   77.2412  216.4904 H   0  0  0  0  0  0  0  0  0  0  0  0
  141.5962   78.8035  214.6258 H   0  0  0  0  0  0  0  0  0  0  0  0
  141.7456   81.2582  214.9288 H   0  0  0  0  0  0  0  0  0  0  0  0
  142.2843   82.1488  217.2102 H   0  0  0  0  0  0  0  0  0  0  0  0
  142.6507   80.5941  219.0603 H   0  0  0  0  0  0  0  0  0  0  0  0
  143.4596   76.6072  217.5794 H   0  0  0  0  0  0  0  0  0  0  0  0
  144.3353   76.6420  219.1176 H   0  0  0  0  0  0  0  0  0  0  0  0
  142.0094   74.9886  218.3063 H   0  0  0  0  0  0  0  0  0  0  0  0
  142.1046   72.7872  219.0676 H   0  0  0  0  0  0  0  0  0  0  0  0
  143.5005   71.0037  220.0525 H   0  0  0  0  0  0  0  0  0  0  0  0
  145.5787   71.6201  221.2986 H   0  0  0  0  0  0  0  0  0  0  0  0
  146.2011   74.0122  221.5229 H   0  0  0  0  0  0  0  0  0  0  0  0
  144.7871   75.7656  220.5252 H   0  0  0  0  0  0  0  0  0  0  0  0
  139.1228   69.8586  222.6967 H   0  0  0  0  0  0  0  0  0  0  0  0
  138.6957   68.5799  224.7793 H   0  0  0  0  0  0  0  0  0  0  0  0
  139.0213   68.4253  227.1876 H   0  0  0  0  0  0  0  0  0  0  0  0
  139.9748   69.3707  229.2603 H   0  0  0  0  0  0  0  0  0  0  0  0
  141.2803   71.4701  229.2628 H   0  0  0  0  0  0  0  0  0  0  0  0
  141.6490   72.6695  227.0973 H   0  0  0  0  0  0  0  0  0  0  0  0
  1  2  2  0
  2  3  1  0
  3  4  1  0
  4  5  1  0
  5  6  2  0
  5  7  1  0
  7  8  1  0
  8  9  1  0
  9 10  1  0
 10 11  2  0
 11 12  1  0
 12 13  2  0
 13 14  1  0
 14 15  2  0
  9 16  1  0
 16 17  1  0
 17 18  1  0
 18 19  2  0
 19 20  1  0
 20 21  2  0
 21 22  1  0
 22 23  2  0
  2 24  1  0
 24 25  2  0
 25 26  1  0
 26 27  2  0
 27 28  1  0
 28 29  2  0
 29 30  1  0
 30 31  2  0
 31 32  1  0
 32 33  2  0
 17  7  1  0
 23 18  1  0
 33 24  1  0
 15 10  1  0
 32 27  1  0
  3 34  1  0
  4 35  1  0
  4 36  1  0
  8 37  1  0
  8 38  1  0
  9 39  1  1
 11 40  1  0
 12 41  1  0
 13 42  1  0
 14 43  1  0
 15 44  1  0
 16 45  1  0
 16 46  1  0
 17 47  1  6
 19 48  1  0
 20 49  1  0
 21 50  1  0
 22 51  1  0
 23 52  1  0
 25 53  1  0
 26 54  1  0
 28 55  1  0
 29 56  1  0
 30 57  1  0
 31 58  1  0
M  END
>  <smiles>  (10) 
O=C(NCC(=O)N1C[C@H](c2ccccc2)C[C@H]1c1ccccc1)c1ccc2ccccc2n1

>  <score_type>  (10) 
oracle

>  <origin>  (10) 
autodockgpu

>  <m_score__min__energy>  (10) 
-9.6400000000000006

>  <m_primary>  (10) 
energy

>  <rmsd>  (10) 
2.364514913853976

>  <m_score__min__rmsd>  (10) 
2.364514913853976

>  <meeko>  (10) 
{"free_energy": -9.41, "intermolecular_energy": -11.2, "internal_energy": -2.26, "cluster_size": 26, "cluster_id": 2, "rank_in_cluster": 3}

>  <energy>  (10) 
-9.38

>  <cluster_rmsd>  (10) 
0.19

>  <cluster>  (10) 
2

$$$$

     RDKit          3D

 58 62  0  0  0  0  0  0  0  0999 V2000
  139.5910   70.7430  221.3420 O   0  0  0  0  0  0  0  0  0  0  0  0
  139.1340   71.2900  222.3850 C   0  0  0  0  0  0  0  0  0  0  0  0
  138.1950   72.3640  222.2050 N   0  0  0  0  0  0  0  0  0  0  0  0
  137.8260   72.7600  220.8840 C   0  0  0  0  0  0  0  0  0  0  0  0
  138.5460   74.0130  220.4600 C   0  0  0  0  0  0  0  0  0  0  0  0
  137.8400   74.8620  219.8630 O   0  0  0  0  0  0  0  0  0  0  0  0
  139.9310   74.1870  220.7320 N   0  0  0  0  0  0  0  0  0  0  0  0
  140.9830   73.5010  220.0060 C   0  0  0  0  0  0  0  0  0  0  0  0
  142.1000   74.5040  220.1040 C   0  0  2  0  0  0  0  0  0  0  0  0
  143.4280   73.8530  220.2370 C   0  0  0  0  0  0  0  0  0  0  0  0
  143.5560   72.4780  220.1040 C   0  0  0  0  0  0  0  0  0  0  0  0
  144.7980   71.8890  220.2300 C   0  0  0  0  0  0  0  0  0  0  0  0
  145.9460   72.6150  220.4870 C   0  0  0  0  0  0  0  0  0  0  0  0
  145.8230   73.9870  220.6190 C   0  0  0  0  0  0  0  0  0  0  0  0
  144.5870   74.5660  220.4940 C   0  0  0  0  0  0  0  0  0  0  0  0
  141.7940   75.4570  221.2220 C   0  0  0  0  0  0  0  0  0  0  0  0
  140.4700   75.0480  221.7510 C   0  0  1  0  0  0  0  0  0  0  0  0
  139.5940   76.1870  222.1020 C   0  0  0  0  0  0  0  0  0  0  0  0
  138.3580   76.0740  222.6730 C   0  0  0  0  0  0  0  0  0  0  0  0
  137.5570   77.1630  222.9930 C   0  0  0  0  0  0  0  0  0  0  0  0
  138.0260   78.4380  222.7230 C   0  0  0  0  0  0  0  0  0  0  0  0
  139.2700   78.5940  222.1460 C   0  0  0  0  0  0  0  0  0  0  0  0
  140.0390   77.4890  221.8420 C   0  0  0  0  0  0  0  0  0  0  0  0
  139.5090   70.8860  223.7260 C   0  0  0  0  0  0  0  0  0  0  0  0
  139.2600   69.5930  224.1400 C   0  0  0  0  0  0  0  0  0  0  0  0
  139.5820   69.1210  225.3940 C   0  0  0  0  0  0  0  0  0  0  0  0
  140.1920   70.0370  226.2570 C   0  0  0  0  0  0  0  0  0  0  0  0
  140.5400   69.6300  227.5270 C   0  0  0  0  0  0  0  0  0  0  0  0
  141.1390   70.5530  228.3540 C   0  0  0  0  0  0  0  0  0  0  0  0
  141.4020   71.8570  227.9680 C   0  0  0  0  0  0  0  0  0  0  0  0
  141.0450   72.2450  226.6900 C   0  0  0  0  0  0  0  0  0  0  0  0
  140.4420   71.3280  225.8440 C   0  0  0  0  0  0  0  0  0  0  0  0
  140.1060   71.7570  224.5900 N   0  0  0  0  0  0  0  0  0  0  0  0
  137.7740   72.8650  223.0230 H   0  0  0  0  0  0  0  0  0  0  0  0
  138.0781   71.9493  220.1846 H   0  0  0  0  0  0  0  0  0  0  0  0
  136.7452   72.9642  220.8750 H   0  0  0  0  0  0  0  0  0  0  0  0
  141.2515   72.5490  220.4873 H   0  0  0  0  0  0  0  0  0  0  0  0
  140.7149   73.2198  218.9769 H   0  0  0  0  0  0  0  0  0  0  0  0
  142.1635   75.0765  219.1668 H   0  0  0  0  0  0  0  0  0  0  0  0
  142.6702   71.8589  219.8987 H   0  0  0  0  0  0  0  0  0  0  0  0
  144.8775   70.7973  220.1215 H   0  0  0  0  0  0  0  0  0  0  0  0
  146.9233   72.1193  220.5832 H   0  0  0  0  0  0  0  0  0  0  0  0
  146.7086   74.6069  220.8223 H   0  0  0  0  0  0  0  0  0  0  0  0
  144.5115   75.6579  220.6040 H   0  0  0  0  0  0  0  0  0  0  0  0
  142.5599   75.3837  222.0082 H   0  0  0  0  0  0  0  0  0  0  0  0
  141.7860   76.5004  220.8737 H   0  0  0  0  0  0  0  0  0  0  0  0
  140.5565   74.5265  222.7157 H   0  0  0  0  0  0  0  0  0  0  0  0
  137.9762   75.0657  222.8913 H   0  0  0  0  0  0  0  0  0  0  0  0
  136.5685   77.0154  223.4524 H   0  0  0  0  0  0  0  0  0  0  0  0
  137.4126   79.3181  222.9662 H   0  0  0  0  0  0  0  0  0  0  0  0
  139.6500   79.6029  221.9276 H   0  0  0  0  0  0  0  0  0  0  0  0
  141.0280   77.6350  221.3831 H   0  0  0  0  0  0  0  0  0  0  0  0
  138.7790   68.9027  223.4314 H   0  0  0  0  0  0  0  0  0  0  0  0
  139.3717   68.0850  225.6982 H   0  0  0  0  0  0  0  0  0  0  0  0
  140.3456   68.6024  227.8681 H   0  0  0  0  0  0  0  0  0  0  0  0
  141.4223   70.2401  229.3698 H   0  0  0  0  0  0  0  0  0  0  0  0
  141.8820   72.5649  228.6598 H   0  0  0  0  0  0  0  0  0  0  0  0
  141.2379   73.2725  226.3478 H   0  0  0  0  0  0  0  0  0  0  0  0
  1  2  2  0
  2  3  1  0
  3  4  1  0
  4  5  1  0
  5  6  2  0
  5  7  1  0
  7  8  1  0
  8  9  1  0
  9 10  1  0
 10 11  2  0
 11 12  1  0
 12 13  2  0
 13 14  1  0
 14 15  2  0
  9 16  1  0
 16 17  1  0
 17 18  1  0
 18 19  2  0
 19 20  1  0
 20 21  2  0
 21 22  1  0
 22 23  2  0
  2 24  1  0
 24 25  2  0
 25 26  1  0
 26 27  2  0
 27 28  1  0
 28 29  2  0
 29 30  1  0
 30 31  2  0
 31 32  1  0
 32 33  2  0
 17  7  1  0
 23 18  1  0
 33 24  1  0
 15 10  1  0
 32 27  1  0
  3 34  1  0
  4 35  1  0
  4 36  1  0
  8 37  1  0
  8 38  1  0
  9 39  1  6
 11 40  1  0
 12 41  1  0
 13 42  1  0
 14 43  1  0
 15 44  1  0
 16 45  1  0
 16 46  1  0
 17 47  1  1
 19 48  1  0
 20 49  1  0
 21 50  1  0
 22 51  1  0
 23 52  1  0
 25 53  1  0
 26 54  1  0
 28 55  1  0
 29 56  1  0
 30 57  1  0
 31 58  1  0
M  END
>  <smiles>  (11) 
O=C(NCC(=O)N1C[C@H](c2ccccc2)C[C@H]1c1ccccc1)c1ccc2ccccc2n1

>  <score_type>  (11) 
oracle

>  <origin>  (11) 
autodockgpu

>  <m_score__min__energy>  (11) 
-9.6400000000000006

>  <m_primary>  (11) 
energy

>  <rmsd>  (11) 
2.1989048659361607

>  <m_score__min__rmsd>  (11) 
2.1989048659361607

>  <meeko>  (11) 
{"free_energy": -8.92, "intermolecular_energy": -10.71, "internal_energy": -2.17, "cluster_size": 3, "cluster_id": 6, "rank_in_cluster": 2}

>  <energy>  (11) 
-9.37

>  <cluster_rmsd>  (11) 
0.1

>  <cluster>  (11) 
2

$$$$

     RDKit          3D

 58 62  0  0  0  0  0  0  0  0999 V2000
  140.8640   71.4260  221.3290 O   0  0  0  0  0  0  0  0  0  0  0  0
  140.4370   72.0040  222.3680 C   0  0  0  0  0  0  0  0  0  0  0  0
  140.1200   73.4030  222.2580 N   0  0  0  0  0  0  0  0  0  0  0  0
  140.2970   74.0660  221.0060 C   0  0  0  0  0  0  0  0  0  0  0  0
  140.9410   75.4160  221.1820 C   0  0  0  0  0  0  0  0  0  0  0  0
  140.9190   75.8740  222.3500 O   0  0  0  0  0  0  0  0  0  0  0  0
  141.5230   76.0960  220.0760 N   0  0  0  0  0  0  0  0  0  0  0  0
  141.2300   77.4760  219.7390 C   0  0  0  0  0  0  0  0  0  0  0  0
  142.5240   77.8960  219.0980 C   0  0  2  0  0  0  0  0  0  0  0  0
  142.3120   78.8420  217.9740 C   0  0  0  0  0  0  0  0  0  0  0  0
  142.4200   80.2110  218.1740 C   0  0  0  0  0  0  0  0  0  0  0  0
  142.2200   81.0760  217.1180 C   0  0  0  0  0  0  0  0  0  0  0  0
  141.9110   80.6410  215.8440 C   0  0  0  0  0  0  0  0  0  0  0  0
  141.8040   79.2770  215.6390 C   0  0  0  0  0  0  0  0  0  0  0  0
  142.0020   78.4220  216.6910 C   0  0  0  0  0  0  0  0  0  0  0  0
  143.2850   76.6660  218.7000 C   0  0  0  0  0  0  0  0  0  0  0  0
  142.4630   75.5170  219.1530 C   0  0  1  0  0  0  0  0  0  0  0  0
  143.2580   74.4060  219.7200 C   0  0  0  0  0  0  0  0  0  0  0  0
  142.9400   73.0820  219.6070 C   0  0  0  0  0  0  0  0  0  0  0  0
  143.7080   72.0580  220.1500 C   0  0  0  0  0  0  0  0  0  0  0  0
  144.8580   72.3860  220.8470 C   0  0  0  0  0  0  0  0  0  0  0  0
  145.2130   73.7120  220.9830 C   0  0  0  0  0  0  0  0  0  0  0  0
  144.4270   74.7030  220.4300 C   0  0  0  0  0  0  0  0  0  0  0  0
  140.2570   71.3280  223.6380 C   0  0  0  0  0  0  0  0  0  0  0  0
  139.6080   70.1110  223.6740 C   0  0  0  0  0  0  0  0  0  0  0  0
  139.3920   69.3980  224.8320 C   0  0  0  0  0  0  0  0  0  0  0  0
  139.8750   69.9780  226.0100 C   0  0  0  0  0  0  0  0  0  0  0  0
  139.6920   69.3160  227.2050 C   0  0  0  0  0  0  0  0  0  0  0  0
  140.1780   69.9120  228.3470 C   0  0  0  0  0  0  0  0  0  0  0  0
  140.8330   71.1320  228.3440 C   0  0  0  0  0  0  0  0  0  0  0  0
  141.0070   71.7790  227.1350 C   0  0  0  0  0  0  0  0  0  0  0  0
  140.5240   71.1940  225.9750 C   0  0  0  0  0  0  0  0  0  0  0  0
  140.7180   71.8690  224.8030 N   0  0  0  0  0  0  0  0  0  0  0  0
  139.7610   73.9480  223.0770 H   0  0  0  0  0  0  0  0  0  0  0  0
  140.9369   73.4462  220.3607 H   0  0  0  0  0  0  0  0  0  0  0  0
  139.3066   74.2130  220.5505 H   0  0  0  0  0  0  0  0  0  0  0  0
  140.3879   77.5499  219.0351 H   0  0  0  0  0  0  0  0  0  0  0  0
  140.9254   78.0968  220.5945 H   0  0  0  0  0  0  0  0  0  0  0  0
  143.1284   78.4588  219.8247 H   0  0  0  0  0  0  0  0  0  0  0  0
  142.6643   80.6053  219.1714 H   0  0  0  0  0  0  0  0  0  0  0  0
  142.3104   82.1574  217.2982 H   0  0  0  0  0  0  0  0  0  0  0  0
  141.7554   81.3542  215.0211 H   0  0  0  0  0  0  0  0  0  0  0  0
  141.5623   78.8828  214.6409 H   0  0  0  0  0  0  0  0  0  0  0  0
  141.9096   77.3415  216.5064 H   0  0  0  0  0  0  0  0  0  0  0  0
  143.4184   76.6347  217.6086 H   0  0  0  0  0  0  0  0  0  0  0  0
  144.2886   76.6479  219.1500 H   0  0  0  0  0  0  0  0  0  0  0  0
  141.9522   75.0209  218.3146 H   0  0  0  0  0  0  0  0  0  0  0  0
  142.0268   72.8115  219.0566 H   0  0  0  0  0  0  0  0  0  0  0  0
  143.4073   71.0070  220.0280 H   0  0  0  0  0  0  0  0  0  0  0  0
  145.4834   71.5961  221.2886 H   0  0  0  0  0  0  0  0  0  0  0  0
  146.1261   73.9808  221.5343 H   0  0  0  0  0  0  0  0  0  0  0  0
  144.7275   75.7543  220.5506 H   0  0  0  0  0  0  0  0  0  0  0  0
  139.2435   69.6875  222.7265 H   0  0  0  0  0  0  0  0  0  0  0  0
  138.8704   68.4295  224.8310 H   0  0  0  0  0  0  0  0  0  0  0  0
  139.1757   68.3455  227.2449 H   0  0  0  0  0  0  0  0  0  0  0  0
  140.0393   69.3943  229.3076 H   0  0  0  0  0  0  0  0  0  0  0  0
  141.2052   71.5748  229.2796 H   0  0  0  0  0  0  0  0  0  0  0  0
  141.5240   72.7491  227.0938 H   0  0  0  0  0  0  0  0  0  0  0  0
  1  2  2  0
  2  3  1  0
  3  4  1  0
  4  5  1  0
  5  6  2  0
  5  7  1  0
  7  8  1  0
  8  9  1  0
  9 10  1  0
 10 11  2  0
 11 12  1  0
 12 13  2  0
 13 14  1  0
 14 15  2  0
  9 16  1  0
 16 17  1  0
 17 18  1  0
 18 19  2  0
 19 20  1  0
 20 21  2  0
 21 22  1  0
 22 23  2  0
  2 24  1  0
 24 25  2  0
 25 26  1  0
 26 27  2  0
 27 28  1  0
 28 29  2  0
 29 30  1  0
 30 31  2  0
 31 32  1  0
 32 33  2  0
 17  7  1  0
 23 18  1  0
 33 24  1  0
 15 10  1  0
 32 27  1  0
  3 34  1  0
  4 35  1  0
  4 36  1  0
  8 37  1  0
  8 38  1  0
  9 39  1  1
 11 40  1  0
 12 41  1  0
 13 42  1  0
 14 43  1  0
 15 44  1  0
 16 45  1  0
 16 46  1  0
 17 47  1  6
 19 48  1  0
 20 49  1  0
 21 50  1  0
 22 51  1  0
 23 52  1  0
 25 53  1  0
 26 54  1  0
 28 55  1  0
 29 56  1  0
 30 57  1  0
 31 58  1  0
M  END
>  <smiles>  (12) 
O=C(NCC(=O)N1C[C@H](c2ccccc2)C[C@H]1c1ccccc1)c1ccc2ccccc2n1

>  <score_type>  (12) 
oracle

>  <origin>  (12) 
autodockgpu

>  <m_score__min__energy>  (12) 
-9.6400000000000006

>  <m_primary>  (12) 
energy

>  <rmsd>  (12) 
2.3558834755425107

>  <m_score__min__rmsd>  (12) 
2.3558834755425107

>  <meeko>  (12) 
{"free_energy": -9.35, "intermolecular_energy": -11.14, "internal_energy": -2.39, "cluster_size": 26, "cluster_id": 2, "rank_in_cluster": 14}

>  <energy>  (12) 
-9.37

>  <cluster_rmsd>  (12) 
0.21

>  <cluster>  (12) 
2

$$$$

     RDKit          3D

 58 62  0  0  0  0  0  0  0  0999 V2000
  140.8500   71.4190  221.3250 O   0  0  0  0  0  0  0  0  0  0  0  0
  140.4240   71.9980  222.3640 C   0  0  0  0  0  0  0  0  0  0  0  0
  140.1100   73.3970  222.2540 N   0  0  0  0  0  0  0  0  0  0  0  0
  140.2880   74.0600  221.0020 C   0  0  0  0  0  0  0  0  0  0  0  0
  140.9320   75.4110  221.1780 C   0  0  0  0  0  0  0  0  0  0  0  0
  140.9060   75.8700  222.3470 O   0  0  0  0  0  0  0  0  0  0  0  0
  141.5160   76.0900  220.0740 N   0  0  0  0  0  0  0  0  0  0  0  0
  141.2240   77.4700  219.7360 C   0  0  0  0  0  0  0  0  0  0  0  0
  142.5190   77.8900  219.0980 C   0  0  2  0  0  0  0  0  0  0  0  0
  142.3100   78.8350  217.9730 C   0  0  0  0  0  0  0  0  0  0  0  0
  141.9890   78.3660  216.7070 C   0  0  0  0  0  0  0  0  0  0  0  0
  141.7980   79.2590  215.6720 C   0  0  0  0  0  0  0  0  0  0  0  0
  141.9100   80.6260  215.8340 C   0  0  0  0  0  0  0  0  0  0  0  0
  142.2280   81.0990  217.0950 C   0  0  0  0  0  0  0  0  0  0  0  0
  142.4190   80.2080  218.1190 C   0  0  0  0  0  0  0  0  0  0  0  0
  143.2810   76.6600  218.7020 C   0  0  0  0  0  0  0  0  0  0  0  0
  142.4590   75.5110  219.1540 C   0  0  1  0  0  0  0  0  0  0  0  0
  143.2530   74.4010  219.7240 C   0  0  0  0  0  0  0  0  0  0  0  0
  142.9270   73.0780  219.6240 C   0  0  0  0  0  0  0  0  0  0  0  0
  143.6930   72.0540  220.1690 C   0  0  0  0  0  0  0  0  0  0  0  0
  144.8520   72.3810  220.8540 C   0  0  0  0  0  0  0  0  0  0  0  0
  145.2140   73.7070  220.9760 C   0  0  0  0  0  0  0  0  0  0  0  0
  144.4290   74.6980  220.4210 C   0  0  0  0  0  0  0  0  0  0  0  0
  140.2420   71.3220  223.6330 C   0  0  0  0  0  0  0  0  0  0  0  0
  139.5960   70.1030  223.6680 C   0  0  0  0  0  0  0  0  0  0  0  0
  139.3800   69.3900  224.8260 C   0  0  0  0  0  0  0  0  0  0  0  0
  139.8570   69.9720  226.0040 C   0  0  0  0  0  0  0  0  0  0  0  0
  139.6730   69.3100  227.2000 C   0  0  0  0  0  0  0  0  0  0  0  0
  140.1540   69.9080  228.3430 C   0  0  0  0  0  0  0  0  0  0  0  0
  140.8050   71.1300  228.3420 C   0  0  0  0  0  0  0  0  0  0  0  0
  140.9800   71.7770  227.1320 C   0  0  0  0  0  0  0  0  0  0  0  0
  140.5030   71.1890  225.9710 C   0  0  0  0  0  0  0  0  0  0  0  0
  140.6980   71.8650  224.8000 N   0  0  0  0  0  0  0  0  0  0  0  0
  139.7520   73.9430  223.0730 H   0  0  0  0  0  0  0  0  0  0  0  0
  140.9285   73.4401  220.3574 H   0  0  0  0  0  0  0  0  0  0  0  0
  139.2978   74.2069  220.5459 H   0  0  0  0  0  0  0  0  0  0  0  0
  140.3835   77.5438  219.0302 H   0  0  0  0  0  0  0  0  0  0  0  0
  140.9176   78.0909  220.5908 H   0  0  0  0  0  0  0  0  0  0  0  0
  143.1210   78.4534  219.8261 H   0  0  0  0  0  0  0  0  0  0  0  0
  141.8870   77.2853  216.5288 H   0  0  0  0  0  0  0  0  0  0  0  0
  141.5460   78.8654  214.6762 H   0  0  0  0  0  0  0  0  0  0  0  0
  141.7520   81.3143  214.9906 H   0  0  0  0  0  0  0  0  0  0  0  0
  142.3266   82.1799  217.2739 H   0  0  0  0  0  0  0  0  0  0  0  0
  142.6732   80.6058  219.1126 H   0  0  0  0  0  0  0  0  0  0  0  0
  143.4163   76.6282  217.6108 H   0  0  0  0  0  0  0  0  0  0  0  0
  144.2837   76.6425  219.1539 H   0  0  0  0  0  0  0  0  0  0  0  0
  141.9510   75.0138  218.3146 H   0  0  0  0  0  0  0  0  0  0  0  0
  142.0082   72.8084  219.0826 H   0  0  0  0  0  0  0  0  0  0  0  0
  143.3847   71.0039  220.0585 H   0  0  0  0  0  0  0  0  0  0  0  0
  145.4774   71.5915  221.2962 H   0  0  0  0  0  0  0  0  0  0  0  0
  146.1326   73.9758  221.5181 H   0  0  0  0  0  0  0  0  0  0  0  0
  144.7363   75.7486  220.5298 H   0  0  0  0  0  0  0  0  0  0  0  0
  139.2342   69.6782  222.7200 H   0  0  0  0  0  0  0  0  0  0  0  0
  138.8625   68.4194  224.8242 H   0  0  0  0  0  0  0  0  0  0  0  0
  139.1597   68.3379  227.2392 H   0  0  0  0  0  0  0  0  0  0  0  0
  140.0144   69.3900  229.3033 H   0  0  0  0  0  0  0  0  0  0  0  0
  141.1732   71.5744  229.2784 H   0  0  0  0  0  0  0  0  0  0  0  0
  141.4930   72.7492  227.0915 H   0  0  0  0  0  0  0  0  0  0  0  0
  1  2  2  0
  2  3  1  0
  3  4  1  0
  4  5  1  0
  5  6  2  0
  5  7  1  0
  7  8  1  0
  8  9  1  0
  9 10  1  0
 10 11  2  0
 11 12  1  0
 12 13  2  0
 13 14  1  0
 14 15  2  0
  9 16  1  0
 16 17  1  0
 17 18  1  0
 18 19  2  0
 19 20  1  0
 20 21  2  0
 21 22  1  0
 22 23  2  0
  2 24  1  0
 24 25  2  0
 25 26  1  0
 26 27  2  0
 27 28  1  0
 28 29  2  0
 29 30  1  0
 30 31  2  0
 31 32  1  0
 32 33  2  0
 17  7  1  0
 23 18  1  0
 33 24  1  0
 15 10  1  0
 32 27  1  0
  3 34  1  0
  4 35  1  0
  4 36  1  0
  8 37  1  0
  8 38  1  0
  9 39  1  1
 11 40  1  0
 12 41  1  0
 13 42  1  0
 14 43  1  0
 15 44  1  0
 16 45  1  0
 16 46  1  0
 17 47  1  6
 19 48  1  0
 20 49  1  0
 21 50  1  0
 22 51  1  0
 23 52  1  0
 25 53  1  0
 26 54  1  0
 28 55  1  0
 29 56  1  0
 30 57  1  0
 31 58  1  0
M  END
>  <smiles>  (13) 
O=C(NCC(=O)N1C[C@H](c2ccccc2)C[C@H]1c1ccccc1)c1ccc2ccccc2n1

>  <score_type>  (13) 
oracle

>  <origin>  (13) 
autodockgpu

>  <m_score__min__energy>  (13) 
-9.6400000000000006

>  <m_primary>  (13) 
energy

>  <rmsd>  (13) 
2.349557708110203

>  <m_score__min__rmsd>  (13) 
2.349557708110203

>  <meeko>  (13) 
{"free_energy": -9.36, "intermolecular_energy": -11.15, "internal_energy": -2.38, "cluster_size": 26, "cluster_id": 2, "rank_in_cluster": 11}

>  <energy>  (13) 
-9.36

>  <cluster_rmsd>  (13) 
0.09

>  <cluster>  (13) 
2

$$$$

     RDKit          3D

 58 62  0  0  0  0  0  0  0  0999 V2000
  139.5700   71.2180  221.3160 O   0  0  0  0  0  0  0  0  0  0  0  0
  139.6370   71.8440  222.4110 C   0  0  0  0  0  0  0  0  0  0  0  0
  139.5230   73.2760  222.3570 N   0  0  0  0  0  0  0  0  0  0  0  0
  139.3410   73.9180  221.0950 C   0  0  0  0  0  0  0  0  0  0  0  0
  138.3990   75.0880  221.2000 C   0  0  0  0  0  0  0  0  0  0  0  0
  137.2960   74.9450  220.6160 O   0  0  0  0  0  0  0  0  0  0  0  0
  138.7670   76.2600  221.9180 N   0  0  0  0  0  0  0  0  0  0  0  0
  139.9280   77.0670  221.5940 C   0  0  0  0  0  0  0  0  0  0  0  0
  139.4680   78.4250  222.0480 C   0  0  2  0  0  0  0  0  0  0  0  0
  140.5750   79.2280  222.6250 C   0  0  0  0  0  0  0  0  0  0  0  0
  140.3110   80.4090  223.3040 C   0  0  0  0  0  0  0  0  0  0  0  0
  141.3520   81.1430  223.8350 C   0  0  0  0  0  0  0  0  0  0  0  0
  142.6730   80.7540  223.7230 C   0  0  0  0  0  0  0  0  0  0  0  0
  142.9410   79.5760  223.0480 C   0  0  0  0  0  0  0  0  0  0  0  0
  141.9040   78.8520  222.5220 C   0  0  0  0  0  0  0  0  0  0  0  0
  138.3110   78.2530  222.9860 C   0  0  0  0  0  0  0  0  0  0  0  0
  138.0520   76.7940  223.0470 C   0  0  1  0  0  0  0  0  0  0  0  0
  136.6150   76.4460  223.0700 C   0  0  0  0  0  0  0  0  0  0  0  0
  135.6470   77.0800  222.3440 C   0  0  0  0  0  0  0  0  0  0  0  0
  134.3030   76.7300  222.3850 C   0  0  0  0  0  0  0  0  0  0  0  0
  133.9100   75.6850  223.2030 C   0  0  0  0  0  0  0  0  0  0  0  0
  134.8590   75.0190  223.9530 C   0  0  0  0  0  0  0  0  0  0  0  0
  136.1860   75.3930  223.8870 C   0  0  0  0  0  0  0  0  0  0  0  0
  139.8210   71.1900  223.6920 C   0  0  0  0  0  0  0  0  0  0  0  0
  139.4710   69.8620  223.8330 C   0  0  0  0  0  0  0  0  0  0  0  0
  139.6100   69.1600  225.0100 C   0  0  0  0  0  0  0  0  0  0  0  0
  140.1380   69.8720  226.0910 C   0  0  0  0  0  0  0  0  0  0  0  0
  140.3040   69.2290  227.2990 C   0  0  0  0  0  0  0  0  0  0  0  0
  140.8260   69.9550  228.3450 C   0  0  0  0  0  0  0  0  0  0  0  0
  141.1870   71.2880  228.2360 C   0  0  0  0  0  0  0  0  0  0  0  0
  141.0140   71.9150  227.0150 C   0  0  0  0  0  0  0  0  0  0  0  0
  140.4890   71.1980  225.9510 C   0  0  0  0  0  0  0  0  0  0  0  0
  140.3350   71.8580  224.7650 N   0  0  0  0  0  0  0  0  0  0  0  0
  139.5690   73.8620  223.2240 H   0  0  0  0  0  0  0  0  0  0  0  0
  140.3159   74.2759  220.7325 H   0  0  0  0  0  0  0  0  0  0  0  0
  138.9066   73.1877  220.3965 H   0  0  0  0  0  0  0  0  0  0  0  0
  140.8182   76.7355  222.1487 H   0  0  0  0  0  0  0  0  0  0  0  0
  140.2326   77.0206  220.5380 H   0  0  0  0  0  0  0  0  0  0  0  0
  139.1265   79.0065  221.1789 H   0  0  0  0  0  0  0  0  0  0  0  0
  139.2746   80.7592  223.4187 H   0  0  0  0  0  0  0  0  0  0  0  0
  141.1205   82.0762  224.3694 H   0  0  0  0  0  0  0  0  0  0  0  0
  143.4833   81.3594  224.1552 H   0  0  0  0  0  0  0  0  0  0  0  0
  143.9771   79.2243  222.9349 H   0  0  0  0  0  0  0  0  0  0  0  0
  142.1400   77.9198  221.9879 H   0  0  0  0  0  0  0  0  0  0  0  0
  138.5667   78.6385  223.9840 H   0  0  0  0  0  0  0  0  0  0  0  0
  137.4253   78.8068  222.6413 H   0  0  0  0  0  0  0  0  0  0  0  0
  138.4024   76.3537  223.9922 H   0  0  0  0  0  0  0  0  0  0  0  0
  135.9479   77.9129  221.6915 H   0  0  0  0  0  0  0  0  0  0  0  0
  133.5643   77.2739  221.7780 H   0  0  0  0  0  0  0  0  0  0  0  0
  132.8522   75.3880  223.2551 H   0  0  0  0  0  0  0  0  0  0  0  0
  134.5562   74.1870  224.6058 H   0  0  0  0  0  0  0  0  0  0  0  0
  136.9262   74.8493  224.4924 H   0  0  0  0  0  0  0  0  0  0  0  0
  139.0592   69.3364  222.9588 H   0  0  0  0  0  0  0  0  0  0  0  0
  139.3225   68.1016  225.0943 H   0  0  0  0  0  0  0  0  0  0  0  0
  140.0285   68.1713  227.4226 H   0  0  0  0  0  0  0  0  0  0  0  0
  140.9632   69.4529  229.3140 H   0  0  0  0  0  0  0  0  0  0  0  0
  141.6002   71.8334  229.0973 H   0  0  0  0  0  0  0  0  0  0  0  0
  141.2904   72.9723  226.8896 H   0  0  0  0  0  0  0  0  0  0  0  0
  1  2  2  0
  2  3  1  0
  3  4  1  0
  4  5  1  0
  5  6  2  0
  5  7  1  0
  7  8  1  0
  8  9  1  0
  9 10  1  0
 10 11  2  0
 11 12  1  0
 12 13  2  0
 13 14  1  0
 14 15  2  0
  9 16  1  0
 16 17  1  0
 17 18  1  0
 18 19  2  0
 19 20  1  0
 20 21  2  0
 21 22  1  0
 22 23  2  0
  2 24  1  0
 24 25  2  0
 25 26  1  0
 26 27  2  0
 27 28  1  0
 28 29  2  0
 29 30  1  0
 30 31  2  0
 31 32  1  0
 32 33  2  0
 17  7  1  0
 23 18  1  0
 33 24  1  0
 15 10  1  0
 32 27  1  0
  3 34  1  0
  4 35  1  0
  4 36  1  0
  8 37  1  0
  8 38  1  0
  9 39  1  6
 11 40  1  0
 12 41  1  0
 13 42  1  0
 14 43  1  0
 15 44  1  0
 16 45  1  0
 16 46  1  0
 17 47  1  1
 19 48  1  0
 20 49  1  0
 21 50  1  0
 22 51  1  0
 23 52  1  0
 25 53  1  0
 26 54  1  0
 28 55  1  0
 29 56  1  0
 30 57  1  0
 31 58  1  0
M  END
>  <smiles>  (14) 
O=C(NCC(=O)N1C[C@H](c2ccccc2)C[C@H]1c1ccccc1)c1ccc2ccccc2n1

>  <score_type>  (14) 
oracle

>  <origin>  (14) 
autodockgpu

>  <m_score__min__energy>  (14) 
-9.6400000000000006

>  <m_primary>  (14) 
energy

>  <rmsd>  (14) 
3.16775768934148

>  <m_score__min__rmsd>  (14) 
3.16775768934148

>  <meeko>  (14) 
{"free_energy": -9.42, "intermolecular_energy": -11.21, "internal_energy": -1.94, "cluster_size": 6, "cluster_id": 1, "rank_in_cluster": 3}

>  <energy>  (14) 
-9.36

>  <cluster_rmsd>  (14) 
0.2

>  <cluster>  (14) 
2

$$$$

     RDKit          3D

 58 62  0  0  0  0  0  0  0  0999 V2000
  137.8540   75.6680  219.9330 O   0  0  0  0  0  0  0  0  0  0  0  0
  138.4320   75.9250  221.0260 C   0  0  0  0  0  0  0  0  0  0  0  0
  138.0860   75.1090  222.1590 N   0  0  0  0  0  0  0  0  0  0  0  0
  137.1250   74.0650  222.0040 C   0  0  0  0  0  0  0  0  0  0  0  0
  137.7890   72.7270  221.8060 C   0  0  0  0  0  0  0  0  0  0  0  0
  137.4720   72.1210  220.7530 O   0  0  0  0  0  0  0  0  0  0  0  0
  138.7050   72.2170  222.7670 N   0  0  0  0  0  0  0  0  0  0  0  0
  138.3460   71.2380  223.7750 C   0  0  0  0  0  0  0  0  0  0  0  0
  139.6580   70.5280  223.9670 C   0  0  2  0  0  0  0  0  0  0  0  0
  139.8740   70.1180  225.3770 C   0  0  0  0  0  0  0  0  0  0  0  0
  139.6300   68.8120  225.7770 C   0  0  0  0  0  0  0  0  0  0  0  0
  139.8360   68.4470  227.0920 C   0  0  0  0  0  0  0  0  0  0  0  0
  140.2820   69.3350  228.0520 C   0  0  0  0  0  0  0  0  0  0  0  0
  140.5280   70.6380  227.6570 C   0  0  0  0  0  0  0  0  0  0  0  0
  140.3210   70.9950  226.3510 C   0  0  0  0  0  0  0  0  0  0  0  0
  140.7570   71.3970  223.4290 C   0  0  0  0  0  0  0  0  0  0  0  0
  140.0880   72.5980  222.8720 C   0  0  1  0  0  0  0  0  0  0  0  0
  140.6810   73.0730  221.6030 C   0  0  0  0  0  0  0  0  0  0  0  0
  140.6710   72.3750  220.4290 C   0  0  0  0  0  0  0  0  0  0  0  0
  141.2350   72.8470  219.2500 C   0  0  0  0  0  0  0  0  0  0  0  0
  141.8440   74.0900  219.2530 C   0  0  0  0  0  0  0  0  0  0  0  0
  141.8750   74.8250  220.4200 C   0  0  0  0  0  0  0  0  0  0  0  0
  141.3040   74.3260  221.5730 C   0  0  0  0  0  0  0  0  0  0  0  0
  139.4090   76.9850  221.1800 C   0  0  0  0  0  0  0  0  0  0  0  0
  139.8570   77.6630  220.0650 C   0  0  0  0  0  0  0  0  0  0  0  0
  140.7810   78.6830  220.1150 C   0  0  0  0  0  0  0  0  0  0  0  0
  141.2630   79.0120  221.3860 C   0  0  0  0  0  0  0  0  0  0  0  0
  142.1920   80.0250  221.5070 C   0  0  0  0  0  0  0  0  0  0  0  0
  142.6470   80.3270  222.7710 C   0  0  0  0  0  0  0  0  0  0  0  0
  142.2180   79.6650  223.9090 C   0  0  0  0  0  0  0  0  0  0  0  0
  141.2860   78.6530  223.7650 C   0  0  0  0  0  0  0  0  0  0  0  0
  140.8160   78.3360  222.5010 C   0  0  0  0  0  0  0  0  0  0  0  0
  139.8970   77.3300  222.4070 N   0  0  0  0  0  0  0  0  0  0  0  0
  138.5250   75.2630  223.0970 H   0  0  0  0  0  0  0  0  0  0  0  0
  136.4959   74.0218  222.9053 H   0  0  0  0  0  0  0  0  0  0  0  0
  136.5186   74.2842  221.1128 H   0  0  0  0  0  0  0  0  0  0  0  0
  138.0081   71.7203  224.7041 H   0  0  0  0  0  0  0  0  0  0  0  0
  137.5120   70.5797  223.4904 H   0  0  0  0  0  0  0  0  0  0  0  0
  139.6513   69.5842  223.4020 H   0  0  0  0  0  0  0  0  0  0  0  0
  139.2733   68.0695  225.0480 H   0  0  0  0  0  0  0  0  0  0  0  0
  139.6369   67.4064  227.3879 H   0  0  0  0  0  0  0  0  0  0  0  0
  140.4361   69.0172  229.0938 H   0  0  0  0  0  0  0  0  0  0  0  0
  140.8865   71.3804  228.3852 H   0  0  0  0  0  0  0  0  0  0  0  0
  140.5210   72.0366  226.0595 H   0  0  0  0  0  0  0  0  0  0  0  0
  141.4483   71.6832  224.2354 H   0  0  0  0  0  0  0  0  0  0  0  0
  141.3494   70.8730  222.6645 H   0  0  0  0  0  0  0  0  0  0  0  0
  140.2159   73.4774  223.5203 H   0  0  0  0  0  0  0  0  0  0  0  0
  140.1904   71.3856  220.4161 H   0  0  0  0  0  0  0  0  0  0  0  0
  141.1982   72.2437  218.3309 H   0  0  0  0  0  0  0  0  0  0  0  0
  142.2988   74.4878  218.3338 H   0  0  0  0  0  0  0  0  0  0  0  0
  142.3572   75.8136  220.4315 H   0  0  0  0  0  0  0  0  0  0  0  0
  141.3394   74.9287  222.4925 H   0  0  0  0  0  0  0  0  0  0  0  0
  139.4544   77.3732  219.0832 H   0  0  0  0  0  0  0  0  0  0  0  0
  141.1197   79.2076  219.2094 H   0  0  0  0  0  0  0  0  0  0  0  0
  142.5562   80.5720  220.6249 H   0  0  0  0  0  0  0  0  0  0  0  0
  143.3871   81.1332  222.8821 H   0  0  0  0  0  0  0  0  0  0  0  0
  142.6079   79.9366  224.9011 H   0  0  0  0  0  0  0  0  0  0  0  0
  140.9213   78.1049  224.6463 H   0  0  0  0  0  0  0  0  0  0  0  0
  1  2  2  0
  2  3  1  0
  3  4  1  0
  4  5  1  0
  5  6  2  0
  5  7  1  0
  7  8  1  0
  8  9  1  0
  9 10  1  0
 10 11  2  0
 11 12  1  0
 12 13  2  0
 13 14  1  0
 14 15  2  0
  9 16  1  0
 16 17  1  0
 17 18  1  0
 18 19  2  0
 19 20  1  0
 20 21  2  0
 21 22  1  0
 22 23  2  0
  2 24  1  0
 24 25  2  0
 25 26  1  0
 26 27  2  0
 27 28  1  0
 28 29  2  0
 29 30  1  0
 30 31  2  0
 31 32  1  0
 32 33  2  0
 17  7  1  0
 23 18  1  0
 33 24  1  0
 15 10  1  0
 32 27  1  0
  3 34  1  0
  4 35  1  0
  4 36  1  0
  8 37  1  0
  8 38  1  0
  9 39  1  6
 11 40  1  0
 12 41  1  0
 13 42  1  0
 14 43  1  0
 15 44  1  0
 16 45  1  0
 16 46  1  0
 17 47  1  1
 19 48  1  0
 20 49  1  0
 21 50  1  0
 22 51  1  0
 23 52  1  0
 25 53  1  0
 26 54  1  0
 28 55  1  0
 29 56  1  0
 30 57  1  0
 31 58  1  0
M  END
>  <smiles>  (15) 
O=C(NCC(=O)N1C[C@H](c2ccccc2)C[C@H]1c1ccccc1)c1ccc2ccccc2n1

>  <score_type>  (15) 
oracle

>  <origin>  (15) 
autodockgpu

>  <m_score__min__energy>  (15) 
-9.6400000000000006

>  <m_primary>  (15) 
energy

>  <rmsd>  (15) 
7.949876352701781

>  <m_score__min__rmsd>  (15) 
7.949876352701781

>  <meeko>  (15) 
{"free_energy": -8.3, "intermolecular_energy": -10.09, "internal_energy": -2.88, "cluster_size": 8, "cluster_id": 7, "rank_in_cluster": 7}

>  <energy>  (15) 
-9.36

>  <cluster_rmsd>  (15) 
0.21

>  <cluster>  (15) 
2

$$$$

     RDKit          3D

 58 62  0  0  0  0  0  0  0  0999 V2000
  140.9470   71.5220  221.3460 O   0  0  0  0  0  0  0  0  0  0  0  0
  140.4180   72.0680  222.3550 C   0  0  0  0  0  0  0  0  0  0  0  0
  140.0150   73.4420  222.2220 N   0  0  0  0  0  0  0  0  0  0  0  0
  140.2230   74.1170  220.9820 C   0  0  0  0  0  0  0  0  0  0  0  0
  140.9640   75.4150  221.1750 C   0  0  0  0  0  0  0  0  0  0  0  0
  141.0320   75.8230  222.3610 O   0  0  0  0  0  0  0  0  0  0  0  0
  141.5330   76.1030  220.0680 N   0  0  0  0  0  0  0  0  0  0  0  0
  141.2080   77.4740  219.7240 C   0  0  0  0  0  0  0  0  0  0  0  0
  142.4940   77.9210  219.0840 C   0  0  2  0  0  0  0  0  0  0  0  0
  142.2620   78.8570  217.9550 C   0  0  0  0  0  0  0  0  0  0  0  0
  141.9420   78.3750  216.6930 C   0  0  0  0  0  0  0  0  0  0  0  0
  141.7300   79.2590  215.6550 C   0  0  0  0  0  0  0  0  0  0  0  0
  141.8210   80.6290  215.8090 C   0  0  0  0  0  0  0  0  0  0  0  0
  142.1380   81.1140  217.0660 C   0  0  0  0  0  0  0  0  0  0  0  0
  142.3490   80.2320  218.0930 C   0  0  0  0  0  0  0  0  0  0  0  0
  143.2840   76.7070  218.6930 C   0  0  0  0  0  0  0  0  0  0  0  0
  142.4880   75.5420  219.1500 C   0  0  1  0  0  0  0  0  0  0  0  0
  143.3070   74.4520  219.7240 C   0  0  0  0  0  0  0  0  0  0  0  0
  144.4460   74.6350  220.4560 C   0  0  0  0  0  0  0  0  0  0  0  0
  145.1960   73.5920  220.9850 C   0  0  0  0  0  0  0  0  0  0  0  0
  144.7760   72.2910  220.7640 C   0  0  0  0  0  0  0  0  0  0  0  0
  143.6300   72.0650  220.0290 C   0  0  0  0  0  0  0  0  0  0  0  0
  142.9100   73.1260  219.5190 C   0  0  0  0  0  0  0  0  0  0  0  0
  140.2070   71.3800  223.6130 C   0  0  0  0  0  0  0  0  0  0  0  0
  139.4960   70.1970  223.6290 C   0  0  0  0  0  0  0  0  0  0  0  0
  139.2470   69.4750  224.7760 C   0  0  0  0  0  0  0  0  0  0  0  0
  139.7610   70.0090  225.9620 C   0  0  0  0  0  0  0  0  0  0  0  0
  139.5470   69.3360  227.1460 C   0  0  0  0  0  0  0  0  0  0  0  0
  140.0650   69.8860  228.2970 C   0  0  0  0  0  0  0  0  0  0  0  0
  140.7810   71.0710  228.3140 C   0  0  0  0  0  0  0  0  0  0  0  0
  140.9850   71.7300  227.1150 C   0  0  0  0  0  0  0  0  0  0  0  0
  140.4710   71.1900  225.9470 C   0  0  0  0  0  0  0  0  0  0  0  0
  140.6970   71.8760  224.7870 N   0  0  0  0  0  0  0  0  0  0  0  0
  139.5700   73.9610  223.0150 H   0  0  0  0  0  0  0  0  0  0  0  0
  140.8090   73.4670  220.3155 H   0  0  0  0  0  0  0  0  0  0  0  0
  139.2397   74.3437  220.5443 H   0  0  0  0  0  0  0  0  0  0  0  0
  140.3662   77.5248  219.0178 H   0  0  0  0  0  0  0  0  0  0  0  0
  140.8863   78.0915  220.5756 H   0  0  0  0  0  0  0  0  0  0  0  0
  143.0840   78.5005  219.8093 H   0  0  0  0  0  0  0  0  0  0  0  0
  141.8577   77.2918  216.5211 H   0  0  0  0  0  0  0  0  0  0  0  0
  141.4779   78.8560  214.6630 H   0  0  0  0  0  0  0  0  0  0  0  0
  141.6477   81.3101  214.9628 H   0  0  0  0  0  0  0  0  0  0  0  0
  142.2198   82.1973  217.2388 H   0  0  0  0  0  0  0  0  0  0  0  0
  142.6018   80.6392  219.0831 H   0  0  0  0  0  0  0  0  0  0  0  0
  143.4200   76.6736  217.6019 H   0  0  0  0  0  0  0  0  0  0  0  0
  144.2870   76.7141  219.1446 H   0  0  0  0  0  0  0  0  0  0  0  0
  141.9907   75.0305  218.3127 H   0  0  0  0  0  0  0  0  0  0  0  0
  144.7880   75.6648  220.6364 H   0  0  0  0  0  0  0  0  0  0  0  0
  146.1061   73.7957  221.5683 H   0  0  0  0  0  0  0  0  0  0  0  0
  145.3505   71.4456  221.1705 H   0  0  0  0  0  0  0  0  0  0  0  0
  143.2891   71.0348  219.8490 H   0  0  0  0  0  0  0  0  0  0  0  0
  141.9996   72.9239  218.9357 H   0  0  0  0  0  0  0  0  0  0  0  0
  139.1075   69.8100  222.6754 H   0  0  0  0  0  0  0  0  0  0  0  0
  138.6775   68.5341  224.7597 H   0  0  0  0  0  0  0  0  0  0  0  0
  138.9821   68.3925  227.1703 H   0  0  0  0  0  0  0  0  0  0  0  0
  139.9022   69.3588  229.2486 H   0  0  0  0  0  0  0  0  0  0  0  0
  141.1772   71.4777  229.2562 H   0  0  0  0  0  0  0  0  0  0  0  0
  141.5498   72.6736  227.0890 H   0  0  0  0  0  0  0  0  0  0  0  0
  1  2  2  0
  2  3  1  0
  3  4  1  0
  4  5  1  0
  5  6  2  0
  5  7  1  0
  7  8  1  0
  8  9  1  0
  9 10  1  0
 10 11  2  0
 11 12  1  0
 12 13  2  0
 13 14  1  0
 14 15  2  0
  9 16  1  0
 16 17  1  0
 17 18  1  0
 18 19  2  0
 19 20  1  0
 20 21  2  0
 21 22  1  0
 22 23  2  0
  2 24  1  0
 24 25  2  0
 25 26  1  0
 26 27  2  0
 27 28  1  0
 28 29  2  0
 29 30  1  0
 30 31  2  0
 31 32  1  0
 32 33  2  0
 17  7  1  0
 23 18  1  0
 33 24  1  0
 15 10  1  0
 32 27  1  0
  3 34  1  0
  4 35  1  0
  4 36  1  0
  8 37  1  0
  8 38  1  0
  9 39  1  1
 11 40  1  0
 12 41  1  0
 13 42  1  0
 14 43  1  0
 15 44  1  0
 16 45  1  0
 16 46  1  0
 17 47  1  6
 19 48  1  0
 20 49  1  0
 21 50  1  0
 22 51  1  0
 23 52  1  0
 25 53  1  0
 26 54  1  0
 28 55  1  0
 29 56  1  0
 30 57  1  0
 31 58  1  0
M  END
>  <smiles>  (16) 
O=C(NCC(=O)N1C[C@H](c2ccccc2)C[C@H]1c1ccccc1)c1ccc2ccccc2n1

>  <score_type>  (16) 
oracle

>  <origin>  (16) 
autodockgpu

>  <m_score__min__energy>  (16) 
-9.6400000000000006

>  <m_primary>  (16) 
energy

>  <rmsd>  (16) 
2.3429531776173658

>  <m_score__min__rmsd>  (16) 
2.3429531776173658

>  <meeko>  (16) 
{"free_energy": -9.35, "intermolecular_energy": -11.14, "internal_energy": -2.29, "cluster_size": 26, "cluster_id": 2, "rank_in_cluster": 13}

>  <energy>  (16) 
-9.36

>  <cluster_rmsd>  (16) 
0.11

>  <cluster>  (16) 
2

$$$$

     RDKit          3D

 58 62  0  0  0  0  0  0  0  0999 V2000
  140.8530   71.4200  221.3260 O   0  0  0  0  0  0  0  0  0  0  0  0
  140.4270   71.9990  222.3640 C   0  0  0  0  0  0  0  0  0  0  0  0
  140.1140   73.3980  222.2540 N   0  0  0  0  0  0  0  0  0  0  0  0
  140.2930   74.0610  221.0020 C   0  0  0  0  0  0  0  0  0  0  0  0
  140.9270   75.4160  221.1790 C   0  0  0  0  0  0  0  0  0  0  0  0
  140.8920   75.8770  222.3470 O   0  0  0  0  0  0  0  0  0  0  0  0
  141.5130   76.0980  220.0770 N   0  0  0  0  0  0  0  0  0  0  0  0
  141.2270   77.4800  219.7460 C   0  0  0  0  0  0  0  0  0  0  0  0
  142.5230   77.8970  219.1070 C   0  0  2  0  0  0  0  0  0  0  0  0
  142.3160   78.8480  217.9870 C   0  0  0  0  0  0  0  0  0  0  0  0
  141.9920   78.3860  216.7190 C   0  0  0  0  0  0  0  0  0  0  0  0
  141.8020   79.2850  215.6880 C   0  0  0  0  0  0  0  0  0  0  0  0
  141.9210   80.6510  215.8580 C   0  0  0  0  0  0  0  0  0  0  0  0
  142.2430   81.1160  217.1200 C   0  0  0  0  0  0  0  0  0  0  0  0
  142.4310   80.2200  218.1390 C   0  0  0  0  0  0  0  0  0  0  0  0
  143.2780   76.6650  218.7040 C   0  0  0  0  0  0  0  0  0  0  0  0
  142.4500   75.5180  219.1520 C   0  0  1  0  0  0  0  0  0  0  0  0
  143.2390   74.4010  219.7150 C   0  0  0  0  0  0  0  0  0  0  0  0
  142.9060   73.0800  219.6120 C   0  0  0  0  0  0  0  0  0  0  0  0
  143.6680   72.0510  220.1510 C   0  0  0  0  0  0  0  0  0  0  0  0
  144.8310   72.3680  220.8320 C   0  0  0  0  0  0  0  0  0  0  0  0
  145.2020   73.6910  220.9580 C   0  0  0  0  0  0  0  0  0  0  0  0
  144.4200   74.6880  220.4090 C   0  0  0  0  0  0  0  0  0  0  0  0
  140.2440   71.3240  223.6340 C   0  0  0  0  0  0  0  0  0  0  0  0
  139.5860   70.1110  223.6700 C   0  0  0  0  0  0  0  0  0  0  0  0
  139.3670   69.3990  224.8280 C   0  0  0  0  0  0  0  0  0  0  0  0
  139.8550   69.9750  226.0050 C   0  0  0  0  0  0  0  0  0  0  0  0
  139.6690   69.3140  227.2010 C   0  0  0  0  0  0  0  0  0  0  0  0
  140.1610   69.9050  228.3420 C   0  0  0  0  0  0  0  0  0  0  0  0
  140.8240   71.1210  228.3390 C   0  0  0  0  0  0  0  0  0  0  0  0
  141.0010   71.7670  227.1300 C   0  0  0  0  0  0  0  0  0  0  0  0
  140.5130   71.1860  225.9710 C   0  0  0  0  0  0  0  0  0  0  0  0
  140.7100   71.8610  224.7990 N   0  0  0  0  0  0  0  0  0  0  0  0
  139.7550   73.9450  223.0720 H   0  0  0  0  0  0  0  0  0  0  0  0
  140.9404   73.4447  220.3608 H   0  0  0  0  0  0  0  0  0  0  0  0
  139.3038   74.2009  220.5417 H   0  0  0  0  0  0  0  0  0  0  0  0
  140.3854   77.5609  219.0423 H   0  0  0  0  0  0  0  0  0  0  0  0
  140.9253   78.0984  220.6042 H   0  0  0  0  0  0  0  0  0  0  0  0
  143.1295   78.4544  219.8360 H   0  0  0  0  0  0  0  0  0  0  0  0
  141.8868   77.3065  216.5357 H   0  0  0  0  0  0  0  0  0  0  0  0
  141.5455   78.8978  214.6909 H   0  0  0  0  0  0  0  0  0  0  0  0
  141.7650   81.3446  215.0186 H   0  0  0  0  0  0  0  0  0  0  0  0
  142.3472   82.1955  217.3039 H   0  0  0  0  0  0  0  0  0  0  0  0
  142.6878   80.6122  219.1341 H   0  0  0  0  0  0  0  0  0  0  0  0
  143.4116   76.6376  217.6125 H   0  0  0  0  0  0  0  0  0  0  0  0
  144.2813   76.6400  219.1542 H   0  0  0  0  0  0  0  0  0  0  0  0
  141.9372   75.0278  218.3113 H   0  0  0  0  0  0  0  0  0  0  0  0
  141.9841   72.8168  219.0728 H   0  0  0  0  0  0  0  0  0  0  0  0
  143.3529   71.0031  220.0387 H   0  0  0  0  0  0  0  0  0  0  0  0
  145.4532   71.5728  221.2684 H   0  0  0  0  0  0  0  0  0  0  0  0
  146.1241   73.9525  221.4978 H   0  0  0  0  0  0  0  0  0  0  0  0
  144.7339   75.7364  220.5202 H   0  0  0  0  0  0  0  0  0  0  0  0
  139.2169   69.6907  222.7228 H   0  0  0  0  0  0  0  0  0  0  0  0
  138.8392   68.4339  224.8273 H   0  0  0  0  0  0  0  0  0  0  0  0
  139.1453   68.3475  227.2414 H   0  0  0  0  0  0  0  0  0  0  0  0
  140.0211   69.3870  229.3023 H   0  0  0  0  0  0  0  0  0  0  0  0
  141.1999   71.5612  229.2744 H   0  0  0  0  0  0  0  0  0  0  0  0
  141.5245   72.7335  227.0885 H   0  0  0  0  0  0  0  0  0  0  0  0
  1  2  2  0
  2  3  1  0
  3  4  1  0
  4  5  1  0
  5  6  2  0
  5  7  1  0
  7  8  1  0
  8  9  1  0
  9 10  1  0
 10 11  2  0
 11 12  1  0
 12 13  2  0
 13 14  1  0
 14 15  2  0
  9 16  1  0
 16 17  1  0
 17 18  1  0
 18 19  2  0
 19 20  1  0
 20 21  2  0
 21 22  1  0
 22 23  2  0
  2 24  1  0
 24 25  2  0
 25 26  1  0
 26 27  2  0
 27 28  1  0
 28 29  2  0
 29 30  1  0
 30 31  2  0
 31 32  1  0
 32 33  2  0
 17  7  1  0
 23 18  1  0
 33 24  1  0
 15 10  1  0
 32 27  1  0
  3 34  1  0
  4 35  1  0
  4 36  1  0
  8 37  1  0
  8 38  1  0
  9 39  1  1
 11 40  1  0
 12 41  1  0
 13 42  1  0
 14 43  1  0
 15 44  1  0
 16 45  1  0
 16 46  1  0
 17 47  1  6
 19 48  1  0
 20 49  1  0
 21 50  1  0
 22 51  1  0
 23 52  1  0
 25 53  1  0
 26 54  1  0
 28 55  1  0
 29 56  1  0
 30 57  1  0
 31 58  1  0
M  END
>  <smiles>  (17) 
O=C(NCC(=O)N1C[C@H](c2ccccc2)C[C@H]1c1ccccc1)c1ccc2ccccc2n1

>  <score_type>  (17) 
oracle

>  <origin>  (17) 
autodockgpu

>  <m_score__min__energy>  (17) 
-9.6400000000000006

>  <m_primary>  (17) 
energy

>  <rmsd>  (17) 
2.3538081169976346

>  <m_score__min__rmsd>  (17) 
2.3538081169976346

>  <meeko>  (17) 
{"free_energy": -9.36, "intermolecular_energy": -11.15, "internal_energy": -2.37, "cluster_size": 26, "cluster_id": 2, "rank_in_cluster": 9}

>  <energy>  (17) 
-9.36

>  <cluster_rmsd>  (17) 
0.2

>  <cluster>  (17) 
2

$$$$

     RDKit          3D

 58 62  0  0  0  0  0  0  0  0999 V2000
  138.2240   75.4030  219.8700 O   0  0  0  0  0  0  0  0  0  0  0  0
  138.6850   75.7580  220.9910 C   0  0  0  0  0  0  0  0  0  0  0  0
  138.2610   75.0070  222.1420 N   0  0  0  0  0  0  0  0  0  0  0  0
  137.3570   73.9140  221.9740 C   0  0  0  0  0  0  0  0  0  0  0  0
  138.0910   72.6060  221.8340 C   0  0  0  0  0  0  0  0  0  0  0  0
  137.8950   71.9920  220.7570 O   0  0  0  0  0  0  0  0  0  0  0  0
  138.9380   72.1300  222.8730 N   0  0  0  0  0  0  0  0  0  0  0  0
  138.5090   71.1850  223.8870 C   0  0  0  0  0  0  0  0  0  0  0  0
  139.8050   70.4840  224.1920 C   0  0  2  0  0  0  0  0  0  0  0  0
  139.9220   70.1220  225.6270 C   0  0  0  0  0  0  0  0  0  0  0  0
  139.6280   68.8350  226.0560 C   0  0  0  0  0  0  0  0  0  0  0  0
  139.7430   68.5150  227.3940 C   0  0  0  0  0  0  0  0  0  0  0  0
  140.1440   69.4290  228.3480 C   0  0  0  0  0  0  0  0  0  0  0  0
  140.4390   70.7130  227.9250 C   0  0  0  0  0  0  0  0  0  0  0  0
  140.3230   71.0260  226.5960 C   0  0  0  0  0  0  0  0  0  0  0  0
  140.9390   71.3360  223.7030 C   0  0  0  0  0  0  0  0  0  0  0  0
  140.3110   72.5170  223.0610 C   0  0  1  0  0  0  0  0  0  0  0  0
  140.9900   72.9490  221.8210 C   0  0  0  0  0  0  0  0  0  0  0  0
  141.4340   74.2180  221.5750 C   0  0  0  0  0  0  0  0  0  0  0  0
  142.0700   74.5960  220.3990 C   0  0  0  0  0  0  0  0  0  0  0  0
  142.2710   73.6430  219.4140 C   0  0  0  0  0  0  0  0  0  0  0  0
  141.8370   72.3500  219.6250 C   0  0  0  0  0  0  0  0  0  0  0  0
  141.2090   72.0100  220.8060 C   0  0  0  0  0  0  0  0  0  0  0  0
  139.6030   76.8660  221.1590 C   0  0  0  0  0  0  0  0  0  0  0  0
  140.0400   77.5610  220.0500 C   0  0  0  0  0  0  0  0  0  0  0  0
  140.9110   78.6260  220.1140 C   0  0  0  0  0  0  0  0  0  0  0  0
  141.3480   78.9860  221.3930 C   0  0  0  0  0  0  0  0  0  0  0  0
  142.2220   80.0440  221.5280 C   0  0  0  0  0  0  0  0  0  0  0  0
  142.6340   80.3750  222.7990 C   0  0  0  0  0  0  0  0  0  0  0  0
  142.2140   79.6980  223.9310 C   0  0  0  0  0  0  0  0  0  0  0  0
  141.3380   78.6400  223.7740 C   0  0  0  0  0  0  0  0  0  0  0  0
  140.9120   78.2930  222.5020 C   0  0  0  0  0  0  0  0  0  0  0  0
  140.0470   77.2420  222.3950 N   0  0  0  0  0  0  0  0  0  0  0  0
  138.6010   75.2420  223.1040 H   0  0  0  0  0  0  0  0  0  0  0  0
  136.6948   73.8600  222.8507 H   0  0  0  0  0  0  0  0  0  0  0  0
  136.7773   74.0842  221.0548 H   0  0  0  0  0  0  0  0  0  0  0  0
  138.1086   71.6980  224.7739 H   0  0  0  0  0  0  0  0  0  0  0  0
  137.6955   70.5164  223.5689 H   0  0  0  0  0  0  0  0  0  0  0  0
  139.8375   69.5224  223.6588 H   0  0  0  0  0  0  0  0  0  0  0  0
  139.3044   68.0725  225.3322 H   0  0  0  0  0  0  0  0  0  0  0  0
  139.5053   67.4895  227.7132 H   0  0  0  0  0  0  0  0  0  0  0  0
  140.2261   69.1462  229.4078 H   0  0  0  0  0  0  0  0  0  0  0  0
  140.7635   71.4752  228.6487 H   0  0  0  0  0  0  0  0  0  0  0  0
  140.5618   72.0527  226.2815 H   0  0  0  0  0  0  0  0  0  0  0  0
  141.5729   71.6500  224.5454 H   0  0  0  0  0  0  0  0  0  0  0  0
  141.5826   70.7877  222.9994 H   0  0  0  0  0  0  0  0  0  0  0  0
  140.3945   73.4178  223.6868 H   0  0  0  0  0  0  0  0  0  0  0  0
  141.2793   74.9822  222.3509 H   0  0  0  0  0  0  0  0  0  0  0  0
  142.4076   75.6327  220.2529 H   0  0  0  0  0  0  0  0  0  0  0  0
  142.7716   73.9141  218.4728 H   0  0  0  0  0  0  0  0  0  0  0  0
  141.9924   71.5868  218.8482 H   0  0  0  0  0  0  0  0  0  0  0  0
  140.8715   70.9735  220.9537 H   0  0  0  0  0  0  0  0  0  0  0  0
  139.6730   77.2476  219.0615 H   0  0  0  0  0  0  0  0  0  0  0  0
  141.2433   79.1618  219.2126 H   0  0  0  0  0  0  0  0  0  0  0  0
  142.5776   80.6040  220.6505 H   0  0  0  0  0  0  0  0  0  0  0  0
  143.3303   81.2178  222.9210 H   0  0  0  0  0  0  0  0  0  0  0  0
  142.5680   79.9941  224.9295 H   0  0  0  0  0  0  0  0  0  0  0  0
  140.9825   78.0789  224.6508 H   0  0  0  0  0  0  0  0  0  0  0  0
  1  2  2  0
  2  3  1  0
  3  4  1  0
  4  5  1  0
  5  6  2  0
  5  7  1  0
  7  8  1  0
  8  9  1  0
  9 10  1  0
 10 11  2  0
 11 12  1  0
 12 13  2  0
 13 14  1  0
 14 15  2  0
  9 16  1  0
 16 17  1  0
 17 18  1  0
 18 19  2  0
 19 20  1  0
 20 21  2  0
 21 22  1  0
 22 23  2  0
  2 24  1  0
 24 25  2  0
 25 26  1  0
 26 27  2  0
 27 28  1  0
 28 29  2  0
 29 30  1  0
 30 31  2  0
 31 32  1  0
 32 33  2  0
 17  7  1  0
 23 18  1  0
 33 24  1  0
 15 10  1  0
 32 27  1  0
  3 34  1  0
  4 35  1  0
  4 36  1  0
  8 37  1  0
  8 38  1  0
  9 39  1  6
 11 40  1  0
 12 41  1  0
 13 42  1  0
 14 43  1  0
 15 44  1  0
 16 45  1  0
 16 46  1  0
 17 47  1  1
 19 48  1  0
 20 49  1  0
 21 50  1  0
 22 51  1  0
 23 52  1  0
 25 53  1  0
 26 54  1  0
 28 55  1  0
 29 56  1  0
 30 57  1  0
 31 58  1  0
M  END
>  <smiles>  (18) 
O=C(NCC(=O)N1C[C@H](c2ccccc2)C[C@H]1c1ccccc1)c1ccc2ccccc2n1

>  <score_type>  (18) 
oracle

>  <origin>  (18) 
autodockgpu

>  <m_score__min__energy>  (18) 
-9.6400000000000006

>  <m_primary>  (18) 
energy

>  <rmsd>  (18) 
7.979299956872847

>  <m_score__min__rmsd>  (18) 
7.979299956872847

>  <meeko>  (18) 
{"free_energy": -8.37, "intermolecular_energy": -10.16, "internal_energy": -2.81, "cluster_size": 8, "cluster_id": 7, "rank_in_cluster": 5}

>  <energy>  (18) 
-9.35

>  <cluster_rmsd>  (18) 
0.19

>  <cluster>  (18) 
2

$$$$

     RDKit          3D

 58 62  0  0  0  0  0  0  0  0999 V2000
  139.4660   71.1240  221.3210 O   0  0  0  0  0  0  0  0  0  0  0  0
  139.5880   71.7870  222.3900 C   0  0  0  0  0  0  0  0  0  0  0  0
  139.4900   73.2180  222.2890 N   0  0  0  0  0  0  0  0  0  0  0  0
  139.2650   73.8180  221.0130 C   0  0  0  0  0  0  0  0  0  0  0  0
  138.3740   75.0280  221.1210 C   0  0  0  0  0  0  0  0  0  0  0  0
  137.2830   74.9480  220.5040 O   0  0  0  0  0  0  0  0  0  0  0  0
  138.7740   76.1650  221.8750 N   0  0  0  0  0  0  0  0  0  0  0  0
  139.9110   76.9970  221.5290 C   0  0  0  0  0  0  0  0  0  0  0  0
  139.4690   78.3270  222.0750 C   0  0  2  0  0  0  0  0  0  0  0  0
  140.6020   79.1090  222.6300 C   0  0  0  0  0  0  0  0  0  0  0  0
  141.9070   78.6620  222.4830 C   0  0  0  0  0  0  0  0  0  0  0  0
  142.9490   79.4020  223.0050 C   0  0  0  0  0  0  0  0  0  0  0  0
  142.7550   80.5910  223.6810 C   0  0  0  0  0  0  0  0  0  0  0  0
  141.4550   81.0420  223.8290 C   0  0  0  0  0  0  0  0  0  0  0  0
  140.4250   80.3030  223.3090 C   0  0  0  0  0  0  0  0  0  0  0  0
  138.3670   78.0980  223.0660 C   0  0  0  0  0  0  0  0  0  0  0  0
  138.1210   76.6350  223.0680 C   0  0  1  0  0  0  0  0  0  0  0  0
  136.6890   76.2740  223.1530 C   0  0  0  0  0  0  0  0  0  0  0  0
  136.1820   75.2730  223.9320 C   0  0  0  0  0  0  0  0  0  0  0  0
  134.8300   74.9570  223.9930 C   0  0  0  0  0  0  0  0  0  0  0  0
  133.9390   75.6880  223.2260 C   0  0  0  0  0  0  0  0  0  0  0  0
  134.4130   76.7080  222.4260 C   0  0  0  0  0  0  0  0  0  0  0  0
  135.7630   76.9950  222.3910 C   0  0  0  0  0  0  0  0  0  0  0  0
  139.8160   71.1750  223.6840 C   0  0  0  0  0  0  0  0  0  0  0  0
  139.4770   69.8520  223.8790 C   0  0  0  0  0  0  0  0  0  0  0  0
  139.6580   69.1890  225.0730 C   0  0  0  0  0  0  0  0  0  0  0  0
  140.2160   69.9370  226.1130 C   0  0  0  0  0  0  0  0  0  0  0  0
  140.4240   69.3340  227.3350 C   0  0  0  0  0  0  0  0  0  0  0  0
  140.9760   70.0960  228.3400 C   0  0  0  0  0  0  0  0  0  0  0  0
  141.3260   71.4260  228.1760 C   0  0  0  0  0  0  0  0  0  0  0  0
  141.1100   72.0120  226.9420 C   0  0  0  0  0  0  0  0  0  0  0  0
  140.5560   71.2590  225.9190 C   0  0  0  0  0  0  0  0  0  0  0  0
  140.3600   71.8800  224.7180 N   0  0  0  0  0  0  0  0  0  0  0  0
  139.5810   73.8330  223.1320 H   0  0  0  0  0  0  0  0  0  0  0  0
  140.2318   74.1230  220.5860 H   0  0  0  0  0  0  0  0  0  0  0  0
  138.7672   73.0795  220.3674 H   0  0  0  0  0  0  0  0  0  0  0  0
  140.8321   76.6458  222.0170 H   0  0  0  0  0  0  0  0  0  0  0  0
  140.1574   77.0058  220.4570 H   0  0  0  0  0  0  0  0  0  0  0  0
  139.0763   78.9484  221.2567 H   0  0  0  0  0  0  0  0  0  0  0  0
  142.1110   77.7205  221.9520 H   0  0  0  0  0  0  0  0  0  0  0  0
  143.9761   79.0295  222.8774 H   0  0  0  0  0  0  0  0  0  0  0  0
  143.6044   81.1596  224.0876 H   0  0  0  0  0  0  0  0  0  0  0  0
  141.2507   81.9842  224.3587 H   0  0  0  0  0  0  0  0  0  0  0  0
  139.3995   80.6794  223.4382 H   0  0  0  0  0  0  0  0  0  0  0  0
  138.6755   78.4357  224.0664 H   0  0  0  0  0  0  0  0  0  0  0  0
  137.4599   78.6601  222.7991 H   0  0  0  0  0  0  0  0  0  0  0  0
  138.5269   76.1510  223.9685 H   0  0  0  0  0  0  0  0  0  0  0  0
  136.8818   74.6852  224.5442 H   0  0  0  0  0  0  0  0  0  0  0  0
  134.4743   74.1408  224.6390 H   0  0  0  0  0  0  0  0  0  0  0  0
  132.8636   75.4582  223.2539 H   0  0  0  0  0  0  0  0  0  0  0  0
  133.7123   77.2946  221.8138 H   0  0  0  0  0  0  0  0  0  0  0  0
  136.1201   77.8122  221.7470 H   0  0  0  0  0  0  0  0  0  0  0  0
  139.0389   69.2970  223.0363 H   0  0  0  0  0  0  0  0  0  0  0  0
  139.3795   68.1325  225.2002 H   0  0  0  0  0  0  0  0  0  0  0  0
  140.1579   68.2797  227.5015 H   0  0  0  0  0  0  0  0  0  0  0  0
  141.1472   69.6262  229.3198 H   0  0  0  0  0  0  0  0  0  0  0  0
  141.7641   72.0009  229.0052 H   0  0  0  0  0  0  0  0  0  0  0  0
  141.3755   73.0662  226.7741 H   0  0  0  0  0  0  0  0  0  0  0  0
  1  2  2  0
  2  3  1  0
  3  4  1  0
  4  5  1  0
  5  6  2  0
  5  7  1  0
  7  8  1  0
  8  9  1  0
  9 10  1  0
 10 11  2  0
 11 12  1  0
 12 13  2  0
 13 14  1  0
 14 15  2  0
  9 16  1  0
 16 17  1  0
 17 18  1  0
 18 19  2  0
 19 20  1  0
 20 21  2  0
 21 22  1  0
 22 23  2  0
  2 24  1  0
 24 25  2  0
 25 26  1  0
 26 27  2  0
 27 28  1  0
 28 29  2  0
 29 30  1  0
 30 31  2  0
 31 32  1  0
 32 33  2  0
 17  7  1  0
 23 18  1  0
 33 24  1  0
 15 10  1  0
 32 27  1  0
  3 34  1  0
  4 35  1  0
  4 36  1  0
  8 37  1  0
  8 38  1  0
  9 39  1  6
 11 40  1  0
 12 41  1  0
 13 42  1  0
 14 43  1  0
 15 44  1  0
 16 45  1  0
 16 46  1  0
 17 47  1  1
 19 48  1  0
 20 49  1  0
 21 50  1  0
 22 51  1  0
 23 52  1  0
 25 53  1  0
 26 54  1  0
 28 55  1  0
 29 56  1  0
 30 57  1  0
 31 58  1  0
M  END
>  <smiles>  (19) 
O=C(NCC(=O)N1C[C@H](c2ccccc2)C[C@H]1c1ccccc1)c1ccc2ccccc2n1

>  <score_type>  (19) 
oracle

>  <origin>  (19) 
autodockgpu

>  <m_score__min__energy>  (19) 
-9.6400000000000006

>  <m_primary>  (19) 
energy

>  <rmsd>  (19) 
3.158406480995465

>  <m_score__min__rmsd>  (19) 
3.158406480995465

>  <meeko>  (19) 
{"free_energy": -9.29, "intermolecular_energy": -11.08, "internal_energy": -1.98, "cluster_size": 6, "cluster_id": 1, "rank_in_cluster": 6}

>  <energy>  (19) 
-9.35

>  <cluster_rmsd>  (19) 
0.23

>  <cluster>  (19) 
2

$$$$

     RDKit          3D

 58 62  0  0  0  0  0  0  0  0999 V2000
  140.8220   71.6340  221.2810 O   0  0  0  0  0  0  0  0  0  0  0  0
  140.3460   72.1450  222.3340 C   0  0  0  0  0  0  0  0  0  0  0  0
  139.9400   73.5230  222.2690 N   0  0  0  0  0  0  0  0  0  0  0  0
  140.0870   74.2410  221.0440 C   0  0  0  0  0  0  0  0  0  0  0  0
  141.0620   75.3810  221.1850 C   0  0  0  0  0  0  0  0  0  0  0  0
  141.3310   75.7150  222.3650 O   0  0  0  0  0  0  0  0  0  0  0  0
  141.6170   76.0130  220.0380 N   0  0  0  0  0  0  0  0  0  0  0  0
  141.2210   77.3300  219.5780 C   0  0  0  0  0  0  0  0  0  0  0  0
  142.4940   77.8020  218.9300 C   0  0  2  0  0  0  0  0  0  0  0  0
  142.2360   78.6290  217.7240 C   0  0  0  0  0  0  0  0  0  0  0  0
  142.2390   80.0140  217.8060 C   0  0  0  0  0  0  0  0  0  0  0  0
  141.9980   80.7680  216.6750 C   0  0  0  0  0  0  0  0  0  0  0  0
  141.7490   80.2030  215.4390 C   0  0  0  0  0  0  0  0  0  0  0  0
  141.7470   78.8220  215.3530 C   0  0  0  0  0  0  0  0  0  0  0  0
  141.9860   78.0780  216.4790 C   0  0  0  0  0  0  0  0  0  0  0  0
  143.3640   76.6110  218.6550 C   0  0  0  0  0  0  0  0  0  0  0  0
  142.6270   75.4390  219.1880 C   0  0  1  0  0  0  0  0  0  0  0  0
  143.4940   74.4510  219.8650 C   0  0  0  0  0  0  0  0  0  0  0  0
  143.2000   73.1240  220.0080 C   0  0  0  0  0  0  0  0  0  0  0  0
  144.0350   72.2170  220.6490 C   0  0  0  0  0  0  0  0  0  0  0  0
  145.2330   72.6710  221.1760 C   0  0  0  0  0  0  0  0  0  0  0  0
  145.5650   74.0040  221.0510 C   0  0  0  0  0  0  0  0  0  0  0  0
  144.7110   74.8770  220.4080 C   0  0  0  0  0  0  0  0  0  0  0  0
  140.1970   71.4130  223.5770 C   0  0  0  0  0  0  0  0  0  0  0  0
  139.5480   70.1950  223.5740 C   0  0  0  0  0  0  0  0  0  0  0  0
  139.3600   69.4310  224.7050 C   0  0  0  0  0  0  0  0  0  0  0  0
  139.8710   69.9590  225.8940 C   0  0  0  0  0  0  0  0  0  0  0  0
  139.7170   69.2440  227.0630 C   0  0  0  0  0  0  0  0  0  0  0  0
  140.2310   69.7890  228.2190 C   0  0  0  0  0  0  0  0  0  0  0  0
  140.8870   71.0080  228.2540 C   0  0  0  0  0  0  0  0  0  0  0  0
  141.0320   71.7080  227.0710 C   0  0  0  0  0  0  0  0  0  0  0  0
  140.5210   71.1750  225.8980 C   0  0  0  0  0  0  0  0  0  0  0  0
  140.6860   71.9020  224.7530 N   0  0  0  0  0  0  0  0  0  0  0  0
  139.5370   74.0140  223.1020 H   0  0  0  0  0  0  0  0  0  0  0  0
  140.4522   73.5524  220.2678 H   0  0  0  0  0  0  0  0  0  0  0  0
  139.1069   74.6575  220.7687 H   0  0  0  0  0  0  0  0  0  0  0  0
  140.3955   77.2735  218.8532 H   0  0  0  0  0  0  0  0  0  0  0  0
  140.8426   77.9925  220.3704 H   0  0  0  0  0  0  0  0  0  0  0  0
  143.0300   78.4726  219.6178 H   0  0  0  0  0  0  0  0  0  0  0  0
  142.4327   80.5095  218.7688 H   0  0  0  0  0  0  0  0  0  0  0  0
  142.0045   81.8646  216.7615 H   0  0  0  0  0  0  0  0  0  0  0  0
  141.5591   80.8289  214.5546 H   0  0  0  0  0  0  0  0  0  0  0  0
  141.5554   78.3259  214.3901 H   0  0  0  0  0  0  0  0  0  0  0  0
  141.9787   76.9818  216.3883 H   0  0  0  0  0  0  0  0  0  0  0  0
  143.5297   76.4995  217.5733 H   0  0  0  0  0  0  0  0  0  0  0  0
  144.3528   76.7152  219.1257 H   0  0  0  0  0  0  0  0  0  0  0  0
  142.1825   74.8325  218.3852 H   0  0  0  0  0  0  0  0  0  0  0  0
  142.2508   72.7539  219.5931 H   0  0  0  0  0  0  0  0  0  0  0  0
  143.7500   71.1582  220.7364 H   0  0  0  0  0  0  0  0  0  0  0  0
  145.9130   71.9752  221.6892 H   0  0  0  0  0  0  0  0  0  0  0  0
  146.5147   74.3729  221.4657 H   0  0  0  0  0  0  0  0  0  0  0  0
  144.9948   75.9361  220.3201 H   0  0  0  0  0  0  0  0  0  0  0  0
  139.1602   69.8139  222.6178 H   0  0  0  0  0  0  0  0  0  0  0  0
  138.8387   68.4629  224.6741 H   0  0  0  0  0  0  0  0  0  0  0  0
  139.2016   68.2723  227.0721 H   0  0  0  0  0  0  0  0  0  0  0  0
  140.1149   69.2293  229.1588 H   0  0  0  0  0  0  0  0  0  0  0  0
  141.2825   71.4089  229.1989 H   0  0  0  0  0  0  0  0  0  0  0  0
  141.5483   72.6793  227.0606 H   0  0  0  0  0  0  0  0  0  0  0  0
  1  2  2  0
  2  3  1  0
  3  4  1  0
  4  5  1  0
  5  6  2  0
  5  7  1  0
  7  8  1  0
  8  9  1  0
  9 10  1  0
 10 11  2  0
 11 12  1  0
 12 13  2  0
 13 14  1  0
 14 15  2  0
  9 16  1  0
 16 17  1  0
 17 18  1  0
 18 19  2  0
 19 20  1  0
 20 21  2  0
 21 22  1  0
 22 23  2  0
  2 24  1  0
 24 25  2  0
 25 26  1  0
 26 27  2  0
 27 28  1  0
 28 29  2  0
 29 30  1  0
 30 31  2  0
 31 32  1  0
 32 33  2  0
 17  7  1  0
 23 18  1  0
 33 24  1  0
 15 10  1  0
 32 27  1  0
  3 34  1  0
  4 35  1  0
  4 36  1  0
  8 37  1  0
  8 38  1  0
  9 39  1  1
 11 40  1  0
 12 41  1  0
 13 42  1  0
 14 43  1  0
 15 44  1  0
 16 45  1  0
 16 46  1  0
 17 47  1  6
 19 48  1  0
 20 49  1  0
 21 50  1  0
 22 51  1  0
 23 52  1  0
 25 53  1  0
 26 54  1  0
 28 55  1  0
 29 56  1  0
 30 57  1  0
 31 58  1  0
M  END
>  <smiles>  (20) 
O=C(NCC(=O)N1C[C@H](c2ccccc2)C[C@H]1c1ccccc1)c1ccc2ccccc2n1

>  <score_type>  (20) 
oracle

>  <origin>  (20) 
autodockgpu

>  <m_score__min__energy>  (20) 
-9.6400000000000006

>  <m_primary>  (20) 
energy

>  <rmsd>  (20) 
2.2873919817588813

>  <m_score__min__rmsd>  (20) 
2.2873919817588813

>  <meeko>  (20) 
{"free_energy": -9.34, "intermolecular_energy": -11.13, "internal_energy": -2.23, "cluster_size": 26, "cluster_id": 2, "rank_in_cluster": 17}

>  <energy>  (20) 
-9.35

>  <cluster_rmsd>  (20) 
0.2

>  <cluster>  (20) 
2

$$$$

     RDKit          3D

 58 62  0  0  0  0  0  0  0  0999 V2000
  140.8370   71.5230  221.3200 O   0  0  0  0  0  0  0  0  0  0  0  0
  140.3820   72.0750  222.3610 C   0  0  0  0  0  0  0  0  0  0  0  0
  140.0210   73.4640  222.2630 N   0  0  0  0  0  0  0  0  0  0  0  0
  140.1880   74.1460  221.0200 C   0  0  0  0  0  0  0  0  0  0  0  0
  140.9730   75.4210  221.1900 C   0  0  0  0  0  0  0  0  0  0  0  0
  141.0810   75.8320  222.3720 O   0  0  0  0  0  0  0  0  0  0  0  0
  141.5360   76.0870  220.0670 N   0  0  0  0  0  0  0  0  0  0  0  0
  141.2050   77.4490  219.6930 C   0  0  0  0  0  0  0  0  0  0  0  0
  142.4880   77.8860  219.0400 C   0  0  2  0  0  0  0  0  0  0  0  0
  142.2500   78.7960  217.8910 C   0  0  0  0  0  0  0  0  0  0  0  0
  141.9750   78.2840  216.6310 C   0  0  0  0  0  0  0  0  0  0  0  0
  141.7560   79.1440  215.5740 C   0  0  0  0  0  0  0  0  0  0  0  0
  141.7970   80.5180  215.7080 C   0  0  0  0  0  0  0  0  0  0  0  0
  142.0700   81.0330  216.9630 C   0  0  0  0  0  0  0  0  0  0  0  0
  142.2870   80.1750  218.0090 C   0  0  0  0  0  0  0  0  0  0  0  0
  143.2820   76.6670  218.6750 C   0  0  0  0  0  0  0  0  0  0  0  0
  142.4920   75.5090  219.1590 C   0  0  1  0  0  0  0  0  0  0  0  0
  143.3160   74.4360  219.7550 C   0  0  0  0  0  0  0  0  0  0  0  0
  144.4890   74.6350  220.4260 C   0  0  0  0  0  0  0  0  0  0  0  0
  145.2440   73.6060  220.9780 C   0  0  0  0  0  0  0  0  0  0  0  0
  144.7920   72.3040  220.8460 C   0  0  0  0  0  0  0  0  0  0  0  0
  143.6120   72.0620  220.1740 C   0  0  0  0  0  0  0  0  0  0  0  0
  142.8870   73.1090  219.6390 C   0  0  0  0  0  0  0  0  0  0  0  0
  140.2110   71.3790  223.6210 C   0  0  0  0  0  0  0  0  0  0  0  0
  139.5410   70.1730  223.6460 C   0  0  0  0  0  0  0  0  0  0  0  0
  139.3330   69.4430  224.7960 C   0  0  0  0  0  0  0  0  0  0  0  0
  139.8450   69.9930  225.9750 C   0  0  0  0  0  0  0  0  0  0  0  0
  139.6720   69.3130  227.1610 C   0  0  0  0  0  0  0  0  0  0  0  0
  140.1880   69.8800  228.3050 C   0  0  0  0  0  0  0  0  0  0  0  0
  140.8640   71.0880  228.3130 C   0  0  0  0  0  0  0  0  0  0  0  0
  141.0280   71.7540  227.1120 C   0  0  0  0  0  0  0  0  0  0  0  0
  140.5160   71.1980  225.9510 C   0  0  0  0  0  0  0  0  0  0  0  0
  140.7010   71.8910  224.7880 N   0  0  0  0  0  0  0  0  0  0  0  0
  139.6370   73.9880  223.0840 H   0  0  0  0  0  0  0  0  0  0  0  0
  140.7233   73.4874  220.3202 H   0  0  0  0  0  0  0  0  0  0  0  0
  139.1917   74.4037  220.6315 H   0  0  0  0  0  0  0  0  0  0  0  0
  140.3613   77.4808  218.9878 H   0  0  0  0  0  0  0  0  0  0  0  0
  140.8830   78.0844  220.5312 H   0  0  0  0  0  0  0  0  0  0  0  0
  143.0776   78.4837  219.7507 H   0  0  0  0  0  0  0  0  0  0  0  0
  141.9317   77.1960  216.4750 H   0  0  0  0  0  0  0  0  0  0  0  0
  141.5398   78.7173  214.5835 H   0  0  0  0  0  0  0  0  0  0  0  0
  141.6189   81.1796  214.8474 H   0  0  0  0  0  0  0  0  0  0  0  0
  142.1124   82.1210  217.1194 H   0  0  0  0  0  0  0  0  0  0  0  0
  142.5027   80.6059  218.9978 H   0  0  0  0  0  0  0  0  0  0  0  0
  143.4164   76.6099  217.5847 H   0  0  0  0  0  0  0  0  0  0  0  0
  144.2855   76.6883  219.1250 H   0  0  0  0  0  0  0  0  0  0  0  0
  141.9954   74.9768  218.3342 H   0  0  0  0  0  0  0  0  0  0  0  0
  144.8566   75.6659  220.5357 H   0  0  0  0  0  0  0  0  0  0  0  0
  146.1825   73.8223  221.5094 H   0  0  0  0  0  0  0  0  0  0  0  0
  145.3686   71.4703  221.2731 H   0  0  0  0  0  0  0  0  0  0  0  0
  143.2466   71.0304  220.0636 H   0  0  0  0  0  0  0  0  0  0  0  0
  141.9480   72.8941  219.1080 H   0  0  0  0  0  0  0  0  0  0  0  0
  139.1524   69.7732  222.6978 H   0  0  0  0  0  0  0  0  0  0  0  0
  138.7954   68.4834  224.7870 H   0  0  0  0  0  0  0  0  0  0  0  0
  139.1402   68.3506  227.1928 H   0  0  0  0  0  0  0  0  0  0  0  0
  140.0567   69.3473  229.2584 H   0  0  0  0  0  0  0  0  0  0  0  0
  141.2602   71.5071  229.2497 H   0  0  0  0  0  0  0  0  0  0  0  0
  141.5600   72.7162  227.0790 H   0  0  0  0  0  0  0  0  0  0  0  0
  1  2  2  0
  2  3  1  0
  3  4  1  0
  4  5  1  0
  5  6  2  0
  5  7  1  0
  7  8  1  0
  8  9  1  0
  9 10  1  0
 10 11  2  0
 11 12  1  0
 12 13  2  0
 13 14  1  0
 14 15  2  0
  9 16  1  0
 16 17  1  0
 17 18  1  0
 18 19  2  0
 19 20  1  0
 20 21  2  0
 21 22  1  0
 22 23  2  0
  2 24  1  0
 24 25  2  0
 25 26  1  0
 26 27  2  0
 27 28  1  0
 28 29  2  0
 29 30  1  0
 30 31  2  0
 31 32  1  0
 32 33  2  0
 17  7  1  0
 23 18  1  0
 33 24  1  0
 15 10  1  0
 32 27  1  0
  3 34  1  0
  4 35  1  0
  4 36  1  0
  8 37  1  0
  8 38  1  0
  9 39  1  1
 11 40  1  0
 12 41  1  0
 13 42  1  0
 14 43  1  0
 15 44  1  0
 16 45  1  0
 16 46  1  0
 17 47  1  6
 19 48  1  0
 20 49  1  0
 21 50  1  0
 22 51  1  0
 23 52  1  0
 25 53  1  0
 26 54  1  0
 28 55  1  0
 29 56  1  0
 30 57  1  0
 31 58  1  0
M  END
>  <smiles>  (21) 
O=C(NCC(=O)N1C[C@H](c2ccccc2)C[C@H]1c1ccccc1)c1ccc2ccccc2n1

>  <score_type>  (21) 
oracle

>  <origin>  (21) 
autodockgpu

>  <m_score__min__energy>  (21) 
-9.6400000000000006

>  <m_primary>  (21) 
energy

>  <rmsd>  (21) 
2.3249003537417186

>  <m_score__min__rmsd>  (21) 
2.3249003537417186

>  <meeko>  (21) 
{"free_energy": -9.35, "intermolecular_energy": -11.14, "internal_energy": -2.31, "cluster_size": 26, "cluster_id": 2, "rank_in_cluster": 12}

>  <energy>  (21) 
-9.35

>  <cluster_rmsd>  (21) 
0.28

>  <cluster>  (21) 
2

$$$$

     RDKit          3D

 58 62  0  0  0  0  0  0  0  0999 V2000
  140.8550   71.4490  221.3240 O   0  0  0  0  0  0  0  0  0  0  0  0
  140.4190   72.0220  222.3620 C   0  0  0  0  0  0  0  0  0  0  0  0
  140.1030   73.4210  222.2540 N   0  0  0  0  0  0  0  0  0  0  0  0
  140.2890   74.0890  221.0070 C   0  0  0  0  0  0  0  0  0  0  0  0
  140.9820   75.4140  221.1870 C   0  0  0  0  0  0  0  0  0  0  0  0
  141.0040   75.8540  222.3630 O   0  0  0  0  0  0  0  0  0  0  0  0
  141.5590   76.0930  220.0780 N   0  0  0  0  0  0  0  0  0  0  0  0
  141.2330   77.4590  219.7170 C   0  0  0  0  0  0  0  0  0  0  0  0
  142.5230   77.9040  219.0840 C   0  0  2  0  0  0  0  0  0  0  0  0
  142.3000   78.8270  217.9430 C   0  0  0  0  0  0  0  0  0  0  0  0
  141.9830   78.3320  216.6860 C   0  0  0  0  0  0  0  0  0  0  0  0
  141.7780   79.2040  215.6360 C   0  0  0  0  0  0  0  0  0  0  0  0
  141.8730   80.5750  215.7750 C   0  0  0  0  0  0  0  0  0  0  0  0
  142.1870   81.0740  217.0270 C   0  0  0  0  0  0  0  0  0  0  0  0
  142.3900   80.2030  218.0660 C   0  0  0  0  0  0  0  0  0  0  0  0
  143.3210   76.6890  218.7140 C   0  0  0  0  0  0  0  0  0  0  0  0
  142.5260   75.5260  219.1750 C   0  0  1  0  0  0  0  0  0  0  0  0
  143.3430   74.4460  219.7690 C   0  0  0  0  0  0  0  0  0  0  0  0
  144.4970   74.6380  220.4740 C   0  0  0  0  0  0  0  0  0  0  0  0
  145.2450   73.6030  221.0220 C   0  0  0  0  0  0  0  0  0  0  0  0
  144.8070   72.3010  220.8500 C   0  0  0  0  0  0  0  0  0  0  0  0
  143.6450   72.0650  220.1430 C   0  0  0  0  0  0  0  0  0  0  0  0
  142.9270   73.1180  219.6130 C   0  0  0  0  0  0  0  0  0  0  0  0
  140.2290   71.3410  223.6270 C   0  0  0  0  0  0  0  0  0  0  0  0
  139.5690   70.1300  223.6540 C   0  0  0  0  0  0  0  0  0  0  0  0
  139.3440   69.4120  224.8080 C   0  0  0  0  0  0  0  0  0  0  0  0
  139.8280   69.9820  225.9900 C   0  0  0  0  0  0  0  0  0  0  0  0
  139.6360   69.3150  227.1820 C   0  0  0  0  0  0  0  0  0  0  0  0
  140.1240   69.9000  228.3280 C   0  0  0  0  0  0  0  0  0  0  0  0
  140.7890   71.1140  228.3340 C   0  0  0  0  0  0  0  0  0  0  0  0
  140.9720   71.7670  227.1280 C   0  0  0  0  0  0  0  0  0  0  0  0
  140.4880   71.1920  225.9640 C   0  0  0  0  0  0  0  0  0  0  0  0
  140.6910   71.8720  224.7970 N   0  0  0  0  0  0  0  0  0  0  0  0
  139.7370   73.9630  223.0720 H   0  0  0  0  0  0  0  0  0  0  0  0
  140.8993   73.4532  220.3488 H   0  0  0  0  0  0  0  0  0  0  0  0
  139.2991   74.2752  220.5649 H   0  0  0  0  0  0  0  0  0  0  0  0
  140.3974   77.4997  219.0028 H   0  0  0  0  0  0  0  0  0  0  0  0
  140.9019   78.0840  220.5594 H   0  0  0  0  0  0  0  0  0  0  0  0
  143.1030   78.4941  219.8088 H   0  0  0  0  0  0  0  0  0  0  0  0
  141.8953   77.2471  216.5268 H   0  0  0  0  0  0  0  0  0  0  0  0
  141.5287   78.7901  214.6478 H   0  0  0  0  0  0  0  0  0  0  0  0
  141.7049   81.2467  214.9203 H   0  0  0  0  0  0  0  0  0  0  0  0
  142.2729   82.1589  217.1869 H   0  0  0  0  0  0  0  0  0  0  0  0
  142.6383   80.6209  219.0528 H   0  0  0  0  0  0  0  0  0  0  0  0
  143.4679   76.6447  217.6248 H   0  0  0  0  0  0  0  0  0  0  0  0
  144.3192   76.7049  219.1759 H   0  0  0  0  0  0  0  0  0  0  0  0
  142.0398   75.0035  218.3380 H   0  0  0  0  0  0  0  0  0  0  0  0
  144.8539   75.6688  220.6158 H   0  0  0  0  0  0  0  0  0  0  0  0
  146.1679   73.8143  221.5820 H   0  0  0  0  0  0  0  0  0  0  0  0
  145.3796   71.4623  221.2728 H   0  0  0  0  0  0  0  0  0  0  0  0
  143.2899   71.0336  220.0015 H   0  0  0  0  0  0  0  0  0  0  0  0
  142.0035   72.9084  219.0533 H   0  0  0  0  0  0  0  0  0  0  0  0
  139.2028   69.7154  222.7032 H   0  0  0  0  0  0  0  0  0  0  0  0
  138.8150   68.4476  224.8003 H   0  0  0  0  0  0  0  0  0  0  0  0
  139.1110   68.3489  227.2154 H   0  0  0  0  0  0  0  0  0  0  0  0
  139.9786   69.3779  229.2852 H   0  0  0  0  0  0  0  0  0  0  0  0
  141.1623   71.5483  229.2732 H   0  0  0  0  0  0  0  0  0  0  0  0
  141.4966   72.7332  227.0936 H   0  0  0  0  0  0  0  0  0  0  0  0
  1  2  2  0
  2  3  1  0
  3  4  1  0
  4  5  1  0
  5  6  2  0
  5  7  1  0
  7  8  1  0
  8  9  1  0
  9 10  1  0
 10 11  2  0
 11 12  1  0
 12 13  2  0
 13 14  1  0
 14 15  2  0
  9 16  1  0
 16 17  1  0
 17 18  1  0
 18 19  2  0
 19 20  1  0
 20 21  2  0
 21 22  1  0
 22 23  2  0
  2 24  1  0
 24 25  2  0
 25 26  1  0
 26 27  2  0
 27 28  1  0
 28 29  2  0
 29 30  1  0
 30 31  2  0
 31 32  1  0
 32 33  2  0
 17  7  1  0
 23 18  1  0
 33 24  1  0
 15 10  1  0
 32 27  1  0
  3 34  1  0
  4 35  1  0
  4 36  1  0
  8 37  1  0
  8 38  1  0
  9 39  1  1
 11 40  1  0
 12 41  1  0
 13 42  1  0
 14 43  1  0
 15 44  1  0
 16 45  1  0
 16 46  1  0
 17 47  1  6
 19 48  1  0
 20 49  1  0
 21 50  1  0
 22 51  1  0
 23 52  1  0
 25 53  1  0
 26 54  1  0
 28 55  1  0
 29 56  1  0
 30 57  1  0
 31 58  1  0
M  END
>  <smiles>  (22) 
O=C(NCC(=O)N1C[C@H](c2ccccc2)C[C@H]1c1ccccc1)c1ccc2ccccc2n1

>  <score_type>  (22) 
oracle

>  <origin>  (22) 
autodockgpu

>  <m_score__min__energy>  (22) 
-9.6400000000000006

>  <m_primary>  (22) 
energy

>  <rmsd>  (22) 
2.3521409377022966

>  <m_score__min__rmsd>  (22) 
2.3521409377022966

>  <meeko>  (22) 
{"free_energy": -9.33, "intermolecular_energy": -11.12, "internal_energy": -2.37, "cluster_size": 26, "cluster_id": 2, "rank_in_cluster": 19}

>  <energy>  (22) 
-9.34

>  <cluster_rmsd>  (22) 
0.18

>  <cluster>  (22) 
2

$$$$

     RDKit          3D

 58 62  0  0  0  0  0  0  0  0999 V2000
  140.8190   71.5210  221.3140 O   0  0  0  0  0  0  0  0  0  0  0  0
  140.3720   72.0760  222.3570 C   0  0  0  0  0  0  0  0  0  0  0  0
  140.0190   73.4670  222.2600 N   0  0  0  0  0  0  0  0  0  0  0  0
  140.1840   74.1480  221.0160 C   0  0  0  0  0  0  0  0  0  0  0  0
  140.9530   75.4320  221.1870 C   0  0  0  0  0  0  0  0  0  0  0  0
  141.0400   75.8530  222.3660 O   0  0  0  0  0  0  0  0  0  0  0  0
  141.5250   76.0950  220.0660 N   0  0  0  0  0  0  0  0  0  0  0  0
  141.2350   77.4730  219.7160 C   0  0  0  0  0  0  0  0  0  0  0  0
  142.5230   77.8770  219.0530 C   0  0  2  0  0  0  0  0  0  0  0  0
  142.3020   78.8100  217.9200 C   0  0  0  0  0  0  0  0  0  0  0  0
  142.3820   80.1830  218.1110 C   0  0  0  0  0  0  0  0  0  0  0  0
  142.1730   81.0370  217.0470 C   0  0  0  0  0  0  0  0  0  0  0  0
  141.8840   80.5860  215.7730 C   0  0  0  0  0  0  0  0  0  0  0  0
  141.8050   79.2180  215.5780 C   0  0  0  0  0  0  0  0  0  0  0  0
  142.0110   78.3750  216.6380 C   0  0  0  0  0  0  0  0  0  0  0  0
  143.2710   76.6370  218.6600 C   0  0  0  0  0  0  0  0  0  0  0  0
  142.4490   75.4990  219.1380 C   0  0  1  0  0  0  0  0  0  0  0  0
  143.2440   74.3900  219.7080 C   0  0  0  0  0  0  0  0  0  0  0  0
  142.8930   73.0710  219.6570 C   0  0  0  0  0  0  0  0  0  0  0  0
  143.6620   72.0500  220.2020 C   0  0  0  0  0  0  0  0  0  0  0  0
  144.8500   72.3740  220.8340 C   0  0  0  0  0  0  0  0  0  0  0  0
  145.2400   73.6960  220.9060 C   0  0  0  0  0  0  0  0  0  0  0  0
  144.4510   74.6850  220.3530 C   0  0  0  0  0  0  0  0  0  0  0  0
  140.2030   71.3820  223.6180 C   0  0  0  0  0  0  0  0  0  0  0  0
  139.5240   70.1810  223.6470 C   0  0  0  0  0  0  0  0  0  0  0  0
  139.3170   69.4520  224.7970 C   0  0  0  0  0  0  0  0  0  0  0  0
  139.8400   69.9990  225.9740 C   0  0  0  0  0  0  0  0  0  0  0  0
  139.6670   69.3200  227.1610 C   0  0  0  0  0  0  0  0  0  0  0  0
  140.1940   69.8820  228.3020 C   0  0  0  0  0  0  0  0  0  0  0  0
  140.8790   71.0860  228.3060 C   0  0  0  0  0  0  0  0  0  0  0  0
  141.0420   71.7500  227.1040 C   0  0  0  0  0  0  0  0  0  0  0  0
  140.5190   71.1980  225.9460 C   0  0  0  0  0  0  0  0  0  0  0  0
  140.7030   71.8900  224.7820 N   0  0  0  0  0  0  0  0  0  0  0  0
  139.6410   73.9930  223.0830 H   0  0  0  0  0  0  0  0  0  0  0  0
  140.7304   73.4941  220.3203 H   0  0  0  0  0  0  0  0  0  0  0  0
  139.1867   74.3930  220.6219 H   0  0  0  0  0  0  0  0  0  0  0  0
  140.3841   77.5433  219.0224 H   0  0  0  0  0  0  0  0  0  0  0  0
  140.9450   78.1060  220.5676 H   0  0  0  0  0  0  0  0  0  0  0  0
  143.1402   78.4450  219.7646 H   0  0  0  0  0  0  0  0  0  0  0  0
  142.6113   80.5889  219.1073 H   0  0  0  0  0  0  0  0  0  0  0  0
  142.2392   82.1213  217.2202 H   0  0  0  0  0  0  0  0  0  0  0  0
  141.7224   81.2896  214.9430 H   0  0  0  0  0  0  0  0  0  0  0  0
  141.5789   78.8115  214.5812 H   0  0  0  0  0  0  0  0  0  0  0  0
  141.9413   77.2916  216.4608 H   0  0  0  0  0  0  0  0  0  0  0  0
  143.3893   76.5914  217.5673 H   0  0  0  0  0  0  0  0  0  0  0  0
  144.2804   76.6182  219.0969 H   0  0  0  0  0  0  0  0  0  0  0  0
  141.9247   74.9957  218.3123 H   0  0  0  0  0  0  0  0  0  0  0  0
  141.9505   72.8024  219.1574 H   0  0  0  0  0  0  0  0  0  0  0  0
  143.3325   71.0028  220.1324 H   0  0  0  0  0  0  0  0  0  0  0  0
  145.4774   71.5853  221.2747 H   0  0  0  0  0  0  0  0  0  0  0  0
  146.1829   73.9627  221.4058 H   0  0  0  0  0  0  0  0  0  0  0  0
  144.7796   75.7326  220.4210 H   0  0  0  0  0  0  0  0  0  0  0  0
  139.1268   69.7847  222.7009 H   0  0  0  0  0  0  0  0  0  0  0  0
  138.7727   68.4962  224.7906 H   0  0  0  0  0  0  0  0  0  0  0  0
  139.1267   68.3625  227.1954 H   0  0  0  0  0  0  0  0  0  0  0  0
  140.0650   69.3496  229.2559 H   0  0  0  0  0  0  0  0  0  0  0  0
  141.2826   71.5028  229.2405 H   0  0  0  0  0  0  0  0  0  0  0  0
  141.5820   72.7077  227.0677 H   0  0  0  0  0  0  0  0  0  0  0  0
  1  2  2  0
  2  3  1  0
  3  4  1  0
  4  5  1  0
  5  6  2  0
  5  7  1  0
  7  8  1  0
  8  9  1  0
  9 10  1  0
 10 11  2  0
 11 12  1  0
 12 13  2  0
 13 14  1  0
 14 15  2  0
  9 16  1  0
 16 17  1  0
 17 18  1  0
 18 19  2  0
 19 20  1  0
 20 21  2  0
 21 22  1  0
 22 23  2  0
  2 24  1  0
 24 25  2  0
 25 26  1  0
 26 27  2  0
 27 28  1  0
 28 29  2  0
 29 30  1  0
 30 31  2  0
 31 32  1  0
 32 33  2  0
 17  7  1  0
 23 18  1  0
 33 24  1  0
 15 10  1  0
 32 27  1  0
  3 34  1  0
  4 35  1  0
  4 36  1  0
  8 37  1  0
  8 38  1  0
  9 39  1  1
 11 40  1  0
 12 41  1  0
 13 42  1  0
 14 43  1  0
 15 44  1  0
 16 45  1  0
 16 46  1  0
 17 47  1  6
 19 48  1  0
 20 49  1  0
 21 50  1  0
 22 51  1  0
 23 52  1  0
 25 53  1  0
 26 54  1  0
 28 55  1  0
 29 56  1  0
 30 57  1  0
 31 58  1  0
M  END
>  <smiles>  (23) 
O=C(NCC(=O)N1C[C@H](c2ccccc2)C[C@H]1c1ccccc1)c1ccc2ccccc2n1

>  <score_type>  (23) 
oracle

>  <origin>  (23) 
autodockgpu

>  <m_score__min__energy>  (23) 
-9.6400000000000006

>  <m_primary>  (23) 
energy

>  <rmsd>  (23) 
2.335297928874527

>  <m_score__min__rmsd>  (23) 
2.335297928874527

>  <meeko>  (23) 
{"free_energy": -9.41, "intermolecular_energy": -11.2, "internal_energy": -2.33, "cluster_size": 26, "cluster_id": 2, "rank_in_cluster": 2}

>  <energy>  (23) 
-9.34

>  <cluster_rmsd>  (23) 
0.17

>  <cluster>  (23) 
2

$$$$

     RDKit          3D

 58 62  0  0  0  0  0  0  0  0999 V2000
  137.8820   75.5610  219.9910 O   0  0  0  0  0  0  0  0  0  0  0  0
  138.4890   75.8180  221.0690 C   0  0  0  0  0  0  0  0  0  0  0  0
  138.1910   74.9870  222.2040 N   0  0  0  0  0  0  0  0  0  0  0  0
  137.2430   73.9280  222.0690 C   0  0  0  0  0  0  0  0  0  0  0  0
  137.9230   72.5950  221.8970 C   0  0  0  0  0  0  0  0  0  0  0  0
  137.6580   71.9910  220.8290 O   0  0  0  0  0  0  0  0  0  0  0  0
  138.7970   72.0860  222.8970 N   0  0  0  0  0  0  0  0  0  0  0  0
  138.3780   71.1590  223.9310 C   0  0  0  0  0  0  0  0  0  0  0  0
  139.6580   70.4090  224.1790 C   0  0  2  0  0  0  0  0  0  0  0  0
  139.8260   70.0430  225.6080 C   0  0  0  0  0  0  0  0  0  0  0  0
  139.4960   68.7710  226.0540 C   0  0  0  0  0  0  0  0  0  0  0  0
  139.6590   68.4470  227.3860 C   0  0  0  0  0  0  0  0  0  0  0  0
  140.1440   69.3440  228.3180 C   0  0  0  0  0  0  0  0  0  0  0  0
  140.4760   70.6130  227.8770 C   0  0  0  0  0  0  0  0  0  0  0  0
  140.3110   70.9290  226.5540 C   0  0  0  0  0  0  0  0  0  0  0  0
  140.8010   71.2150  223.6370 C   0  0  0  0  0  0  0  0  0  0  0  0
  140.1910   72.4200  223.0210 C   0  0  1  0  0  0  0  0  0  0  0  0
  140.8290   72.8240  221.7500 C   0  0  0  0  0  0  0  0  0  0  0  0
  141.0480   71.9940  220.6880 C   0  0  0  0  0  0  0  0  0  0  0  0
  141.6500   72.4020  219.5040 C   0  0  0  0  0  0  0  0  0  0  0  0
  142.0550   73.7210  219.3820 C   0  0  0  0  0  0  0  0  0  0  0  0
  141.8510   74.5910  220.4340 C   0  0  0  0  0  0  0  0  0  0  0  0
  141.2490   74.1500  221.5960 C   0  0  0  0  0  0  0  0  0  0  0  0
  139.4520   76.8920  221.2020 C   0  0  0  0  0  0  0  0  0  0  0  0
  139.8920   77.5550  220.0750 C   0  0  0  0  0  0  0  0  0  0  0  0
  140.8040   78.5870  220.1060 C   0  0  0  0  0  0  0  0  0  0  0  0
  141.2820   78.9460  221.3700 C   0  0  0  0  0  0  0  0  0  0  0  0
  142.1980   79.9720  221.4730 C   0  0  0  0  0  0  0  0  0  0  0  0
  142.6490   80.3030  222.7300 C   0  0  0  0  0  0  0  0  0  0  0  0
  142.2280   79.6580  223.8800 C   0  0  0  0  0  0  0  0  0  0  0  0
  141.3090   78.6320  223.7560 C   0  0  0  0  0  0  0  0  0  0  0  0
  140.8430   78.2860  222.4980 C   0  0  0  0  0  0  0  0  0  0  0  0
  139.9360   77.2660  222.4230 N   0  0  0  0  0  0  0  0  0  0  0  0
  138.6550   75.1390  223.1300 H   0  0  0  0  0  0  0  0  0  0  0  0
  136.6142   73.8944  222.9709 H   0  0  0  0  0  0  0  0  0  0  0  0
  136.6345   74.1224  221.1735 H   0  0  0  0  0  0  0  0  0  0  0  0
  138.0379   71.6875  224.8338 H   0  0  0  0  0  0  0  0  0  0  0  0
  137.5259   70.5221  223.6512 H   0  0  0  0  0  0  0  0  0  0  0  0
  139.6285   69.4466  223.6471 H   0  0  0  0  0  0  0  0  0  0  0  0
  139.1057   68.0230  225.3482 H   0  0  0  0  0  0  0  0  0  0  0  0
  139.3918   67.4332  227.7188 H   0  0  0  0  0  0  0  0  0  0  0  0
  140.2622   69.0594  229.3740 H   0  0  0  0  0  0  0  0  0  0  0  0
  140.8686   71.3608  228.5818 H   0  0  0  0  0  0  0  0  0  0  0  0
  140.5791   71.9439  226.2254 H   0  0  0  0  0  0  0  0  0  0  0  0
  141.4844   71.5043  224.4489 H   0  0  0  0  0  0  0  0  0  0  0  0
  141.3899   70.6412  222.9063 H   0  0  0  0  0  0  0  0  0  0  0  0
  140.3382   73.3177  223.6395 H   0  0  0  0  0  0  0  0  0  0  0  0
  140.7303   70.9444  220.7746 H   0  0  0  0  0  0  0  0  0  0  0  0
  141.8021   71.6907  218.6788 H   0  0  0  0  0  0  0  0  0  0  0  0
  142.5343   74.0716  218.4561 H   0  0  0  0  0  0  0  0  0  0  0  0
  142.1694   75.6403  220.3464 H   0  0  0  0  0  0  0  0  0  0  0  0
  141.0956   74.8597  222.4223 H   0  0  0  0  0  0  0  0  0  0  0  0
  139.4929   77.2426  219.0987 H   0  0  0  0  0  0  0  0  0  0  0  0
  141.1365   79.0983  219.1906 H   0  0  0  0  0  0  0  0  0  0  0  0
  142.5556   80.5072  220.5810 H   0  0  0  0  0  0  0  0  0  0  0  0
  143.3795   81.1198  222.8256 H   0  0  0  0  0  0  0  0  0  0  0  0
  142.6142   79.9537  224.8666 H   0  0  0  0  0  0  0  0  0  0  0  0
  140.9515   78.0959  224.6475 H   0  0  0  0  0  0  0  0  0  0  0  0
  1  2  2  0
  2  3  1  0
  3  4  1  0
  4  5  1  0
  5  6  2  0
  5  7  1  0
  7  8  1  0
  8  9  1  0
  9 10  1  0
 10 11  2  0
 11 12  1  0
 12 13  2  0
 13 14  1  0
 14 15  2  0
  9 16  1  0
 16 17  1  0
 17 18  1  0
 18 19  2  0
 19 20  1  0
 20 21  2  0
 21 22  1  0
 22 23  2  0
  2 24  1  0
 24 25  2  0
 25 26  1  0
 26 27  2  0
 27 28  1  0
 28 29  2  0
 29 30  1  0
 30 31  2  0
 31 32  1  0
 32 33  2  0
 17  7  1  0
 23 18  1  0
 33 24  1  0
 15 10  1  0
 32 27  1  0
  3 34  1  0
  4 35  1  0
  4 36  1  0
  8 37  1  0
  8 38  1  0
  9 39  1  6
 11 40  1  0
 12 41  1  0
 13 42  1  0
 14 43  1  0
 15 44  1  0
 16 45  1  0
 16 46  1  0
 17 47  1  1
 19 48  1  0
 20 49  1  0
 21 50  1  0
 22 51  1  0
 23 52  1  0
 25 53  1  0
 26 54  1  0
 28 55  1  0
 29 56  1  0
 30 57  1  0
 31 58  1  0
M  END
>  <smiles>  (24) 
O=C(NCC(=O)N1C[C@H](c2ccccc2)C[C@H]1c1ccccc1)c1ccc2ccccc2n1

>  <score_type>  (24) 
oracle

>  <origin>  (24) 
autodockgpu

>  <m_score__min__energy>  (24) 
-9.6400000000000006

>  <m_primary>  (24) 
energy

>  <rmsd>  (24) 
7.990246491015442

>  <m_score__min__rmsd>  (24) 
7.990246491015442

>  <meeko>  (24) 
{"free_energy": -8.38, "intermolecular_energy": -10.17, "internal_energy": -2.78, "cluster_size": 8, "cluster_id": 7, "rank_in_cluster": 4}

>  <energy>  (24) 
-9.33

>  <cluster_rmsd>  (24) 
0.19

>  <cluster>  (24) 
2

$$$$

     RDKit          3D

 58 62  0  0  0  0  0  0  0  0999 V2000
  140.8020   71.5430  221.2880 O   0  0  0  0  0  0  0  0  0  0  0  0
  140.3600   72.0880  222.3380 C   0  0  0  0  0  0  0  0  0  0  0  0
  140.0140   73.4820  222.2570 N   0  0  0  0  0  0  0  0  0  0  0  0
  140.1790   74.1760  221.0210 C   0  0  0  0  0  0  0  0  0  0  0  0
  140.9710   75.4450  221.2000 C   0  0  0  0  0  0  0  0  0  0  0  0
  141.0790   75.8480  222.3840 O   0  0  0  0  0  0  0  0  0  0  0  0
  141.5400   76.1140  220.0820 N   0  0  0  0  0  0  0  0  0  0  0  0
  141.2180   77.4800  219.7150 C   0  0  0  0  0  0  0  0  0  0  0  0
  142.5040   77.9140  219.0670 C   0  0  2  0  0  0  0  0  0  0  0  0
  142.2740   78.8310  217.9230 C   0  0  0  0  0  0  0  0  0  0  0  0
  141.9820   78.3280  216.6630 C   0  0  0  0  0  0  0  0  0  0  0  0
  141.7700   79.1950  215.6100 C   0  0  0  0  0  0  0  0  0  0  0  0
  141.8350   80.5680  215.7490 C   0  0  0  0  0  0  0  0  0  0  0  0
  142.1240   81.0740  217.0040 C   0  0  0  0  0  0  0  0  0  0  0  0
  142.3340   80.2090  218.0450 C   0  0  0  0  0  0  0  0  0  0  0  0
  143.2920   76.6930  218.6970 C   0  0  0  0  0  0  0  0  0  0  0  0
  142.4950   75.5360  219.1730 C   0  0  1  0  0  0  0  0  0  0  0  0
  143.3130   74.4560  219.7650 C   0  0  0  0  0  0  0  0  0  0  0  0
  144.4880   74.6440  220.4350 C   0  0  0  0  0  0  0  0  0  0  0  0
  145.2360   73.6090  220.9830 C   0  0  0  0  0  0  0  0  0  0  0  0
  144.7740   72.3100  220.8480 C   0  0  0  0  0  0  0  0  0  0  0  0
  143.5910   72.0790  220.1780 C   0  0  0  0  0  0  0  0  0  0  0  0
  142.8740   73.1320  219.6470 C   0  0  0  0  0  0  0  0  0  0  0  0
  140.1920   71.3810  223.5920 C   0  0  0  0  0  0  0  0  0  0  0  0
  139.5260   70.1730  223.6070 C   0  0  0  0  0  0  0  0  0  0  0  0
  139.3190   69.4320  224.7500 C   0  0  0  0  0  0  0  0  0  0  0  0
  139.8300   69.9740  225.9330 C   0  0  0  0  0  0  0  0  0  0  0  0
  139.6580   69.2830  227.1140 C   0  0  0  0  0  0  0  0  0  0  0  0
  140.1720   69.8400  228.2630 C   0  0  0  0  0  0  0  0  0  0  0  0
  140.8450   71.0500  228.2810 C   0  0  0  0  0  0  0  0  0  0  0  0
  141.0070   71.7270  227.0860 C   0  0  0  0  0  0  0  0  0  0  0  0
  140.4970   71.1800  225.9200 C   0  0  0  0  0  0  0  0  0  0  0  0
  140.6800   71.8840  224.7640 N   0  0  0  0  0  0  0  0  0  0  0  0
  139.6410   74.0020  223.0870 H   0  0  0  0  0  0  0  0  0  0  0  0
  140.7078   73.5220  220.3120 H   0  0  0  0  0  0  0  0  0  0  0  0
  139.1822   74.4429  220.6401 H   0  0  0  0  0  0  0  0  0  0  0  0
  140.3759   77.5206  219.0085 H   0  0  0  0  0  0  0  0  0  0  0  0
  140.8984   78.1122  220.5565 H   0  0  0  0  0  0  0  0  0  0  0  0
  143.0947   78.5052  219.7823 H   0  0  0  0  0  0  0  0  0  0  0  0
  141.9196   77.2414  216.5038 H   0  0  0  0  0  0  0  0  0  0  0  0
  141.5399   78.7755  214.6195 H   0  0  0  0  0  0  0  0  0  0  0  0
  141.6630   81.2356  214.8919 H   0  0  0  0  0  0  0  0  0  0  0  0
  142.1845   82.1606  217.1641 H   0  0  0  0  0  0  0  0  0  0  0  0
  142.5633   80.6329  219.0338 H   0  0  0  0  0  0  0  0  0  0  0  0
  143.4283   76.6413  217.6067 H   0  0  0  0  0  0  0  0  0  0  0  0
  144.2946   76.7066  219.1493 H   0  0  0  0  0  0  0  0  0  0  0  0
  141.9973   75.0105  218.3447 H   0  0  0  0  0  0  0  0  0  0  0  0
  144.8633   75.6719  220.5471 H   0  0  0  0  0  0  0  0  0  0  0  0
  146.1767   73.8172  221.5137 H   0  0  0  0  0  0  0  0  0  0  0  0
  145.3454   71.4707  221.2713 H   0  0  0  0  0  0  0  0  0  0  0  0
  143.2170   71.0506  220.0662 H   0  0  0  0  0  0  0  0  0  0  0  0
  141.9325   72.9254  219.1170 H   0  0  0  0  0  0  0  0  0  0  0  0
  139.1393   69.7801  222.6551 H   0  0  0  0  0  0  0  0  0  0  0  0
  138.7836   68.4712  224.7327 H   0  0  0  0  0  0  0  0  0  0  0  0
  139.1280   68.3194  227.1370 H   0  0  0  0  0  0  0  0  0  0  0  0
  140.0420   69.2984  229.2116 H   0  0  0  0  0  0  0  0  0  0  0  0
  141.2404   71.4620  229.2212 H   0  0  0  0  0  0  0  0  0  0  0  0
  141.5361   72.6911  227.0616 H   0  0  0  0  0  0  0  0  0  0  0  0
  1  2  2  0
  2  3  1  0
  3  4  1  0
  4  5  1  0
  5  6  2  0
  5  7  1  0
  7  8  1  0
  8  9  1  0
  9 10  1  0
 10 11  2  0
 11 12  1  0
 12 13  2  0
 13 14  1  0
 14 15  2  0
  9 16  1  0
 16 17  1  0
 17 18  1  0
 18 19  2  0
 19 20  1  0
 20 21  2  0
 21 22  1  0
 22 23  2  0
  2 24  1  0
 24 25  2  0
 25 26  1  0
 26 27  2  0
 27 28  1  0
 28 29  2  0
 29 30  1  0
 30 31  2  0
 31 32  1  0
 32 33  2  0
 17  7  1  0
 23 18  1  0
 33 24  1  0
 15 10  1  0
 32 27  1  0
  3 34  1  0
  4 35  1  0
  4 36  1  0
  8 37  1  0
  8 38  1  0
  9 39  1  1
 11 40  1  0
 12 41  1  0
 13 42  1  0
 14 43  1  0
 15 44  1  0
 16 45  1  0
 16 46  1  0
 17 47  1  6
 19 48  1  0
 20 49  1  0
 21 50  1  0
 22 51  1  0
 23 52  1  0
 25 53  1  0
 26 54  1  0
 28 55  1  0
 29 56  1  0
 30 57  1  0
 31 58  1  0
M  END
>  <smiles>  (25) 
O=C(NCC(=O)N1C[C@H](c2ccccc2)C[C@H]1c1ccccc1)c1ccc2ccccc2n1

>  <score_type>  (25) 
oracle

>  <origin>  (25) 
autodockgpu

>  <m_score__min__energy>  (25) 
-9.6400000000000006

>  <m_primary>  (25) 
energy

>  <rmsd>  (25) 
2.3281869706841696

>  <m_score__min__rmsd>  (25) 
2.3281869706841696

>  <meeko>  (25) 
{"free_energy": -9.33, "intermolecular_energy": -11.12, "internal_energy": -2.32, "cluster_size": 26, "cluster_id": 2, "rank_in_cluster": 18}

>  <energy>  (25) 
-9.33

>  <cluster_rmsd>  (25) 
0.19

>  <cluster>  (25) 
2

$$$$

     RDKit          3D

 58 62  0  0  0  0  0  0  0  0999 V2000
  134.7320   68.4940  224.9780 O   0  0  0  0  0  0  0  0  0  0  0  0
  135.1550   69.6840  224.9590 C   0  0  0  0  0  0  0  0  0  0  0  0
  136.3900   69.9300  224.2650 N   0  0  0  0  0  0  0  0  0  0  0  0
  137.0720   68.8440  223.6390 C   0  0  0  0  0  0  0  0  0  0  0  0
  138.5220   68.7920  224.0460 C   0  0  0  0  0  0  0  0  0  0  0  0
  138.8840   67.7290  224.6070 O   0  0  0  0  0  0  0  0  0  0  0  0
  139.3890   69.8910  223.7990 N   0  0  0  0  0  0  0  0  0  0  0  0
  139.2150   70.8180  222.6970 C   0  0  0  0  0  0  0  0  0  0  0  0
  139.8070   72.0720  223.2790 C   0  0  2  0  0  0  0  0  0  0  0  0
  140.5230   72.8800  222.2610 C   0  0  0  0  0  0  0  0  0  0  0  0
  141.6060   72.3500  221.5730 C   0  0  0  0  0  0  0  0  0  0  0  0
  142.2600   73.1150  220.6290 C   0  0  0  0  0  0  0  0  0  0  0  0
  141.8840   74.4100  220.3260 C   0  0  0  0  0  0  0  0  0  0  0  0
  140.8040   74.9410  221.0080 C   0  0  0  0  0  0  0  0  0  0  0  0
  140.1590   74.1780  221.9450 C   0  0  0  0  0  0  0  0  0  0  0  0
  140.6670   71.6980  224.4500 C   0  0  0  0  0  0  0  0  0  0  0  0
  140.5430   70.2270  224.5910 C   0  0  1  0  0  0  0  0  0  0  0  0
  140.4630   69.7700  225.9950 C   0  0  0  0  0  0  0  0  0  0  0  0
  140.8450   68.5360  226.4370 C   0  0  0  0  0  0  0  0  0  0  0  0
  140.7600   68.1340  227.7650 C   0  0  0  0  0  0  0  0  0  0  0  0
  140.2600   69.0240  228.7000 C   0  0  0  0  0  0  0  0  0  0  0  0
  139.8620   70.2820  228.2920 C   0  0  0  0  0  0  0  0  0  0  0  0
  139.9620   70.6470  226.9650 C   0  0  0  0  0  0  0  0  0  0  0  0
  134.4600   70.7860  225.5950 C   0  0  0  0  0  0  0  0  0  0  0  0
  133.4720   70.5230  226.5210 C   0  0  0  0  0  0  0  0  0  0  0  0
  132.7600   71.5050  227.1740 C   0  0  0  0  0  0  0  0  0  0  0  0
  133.0910   72.8230  226.8480 C   0  0  0  0  0  0  0  0  0  0  0  0
  132.4170   73.8550  227.4660 C   0  0  0  0  0  0  0  0  0  0  0  0
  132.7660   75.1420  227.1250 C   0  0  0  0  0  0  0  0  0  0  0  0
  133.7520   75.4400  226.2000 C   0  0  0  0  0  0  0  0  0  0  0  0
  134.4170   74.3910  225.5920 C   0  0  0  0  0  0  0  0  0  0  0  0
  134.0790   73.0880  225.9240 C   0  0  0  0  0  0  0  0  0  0  0  0
  134.7620   72.0840  225.2980 N   0  0  0  0  0  0  0  0  0  0  0  0
  136.8030   70.8910  224.2080 H   0  0  0  0  0  0  0  0  0  0  0  0
  136.5854   67.9014  223.9300 H   0  0  0  0  0  0  0  0  0  0  0  0
  137.0251   68.9899  222.5497 H   0  0  0  0  0  0  0  0  0  0  0  0
  139.7645   70.4895  221.8025 H   0  0  0  0  0  0  0  0  0  0  0  0
  138.1751   70.9246  222.3547 H   0  0  0  0  0  0  0  0  0  0  0  0
  138.9998   72.7287  223.6356 H   0  0  0  0  0  0  0  0  0  0  0  0
  141.9419   71.3231  221.7798 H   0  0  0  0  0  0  0  0  0  0  0  0
  143.1160   72.6760  220.0956 H   0  0  0  0  0  0  0  0  0  0  0  0
  142.4245   74.9976  219.5693 H   0  0  0  0  0  0  0  0  0  0  0  0
  140.4662   75.9669  220.7997 H   0  0  0  0  0  0  0  0  0  0  0  0
  139.3039   74.6213  222.4763 H   0  0  0  0  0  0  0  0  0  0  0  0
  141.7139   71.9775  224.2607 H   0  0  0  0  0  0  0  0  0  0  0  0
  140.3521   72.2198  225.3657 H   0  0  0  0  0  0  0  0  0  0  0  0
  141.4430   69.7032  224.2365 H   0  0  0  0  0  0  0  0  0  0  0  0
  141.2419   67.8205  225.7018 H   0  0  0  0  0  0  0  0  0  0  0  0
  141.0841   67.1272  228.0673 H   0  0  0  0  0  0  0  0  0  0  0  0
  140.1805   68.7321  229.7576 H   0  0  0  0  0  0  0  0  0  0  0  0
  139.4636   70.9960  229.0279 H   0  0  0  0  0  0  0  0  0  0  0  0
  139.6396   71.6538  226.6610 H   0  0  0  0  0  0  0  0  0  0  0  0
  133.2402   69.4725  226.7504 H   0  0  0  0  0  0  0  0  0  0  0  0
  131.9771   71.2658  227.9087 H   0  0  0  0  0  0  0  0  0  0  0  0
  131.6277   73.6566  228.2060 H   0  0  0  0  0  0  0  0  0  0  0  0
  132.2357   75.9742  227.6111 H   0  0  0  0  0  0  0  0  0  0  0  0
  133.9998   76.4834  225.9552 H   0  0  0  0  0  0  0  0  0  0  0  0
  135.2066   74.5885  224.8520 H   0  0  0  0  0  0  0  0  0  0  0  0
  1  2  2  0
  2  3  1  0
  3  4  1  0
  4  5  1  0
  5  6  2  0
  5  7  1  0
  7  8  1  0
  8  9  1  0
  9 10  1  0
 10 11  2  0
 11 12  1  0
 12 13  2  0
 13 14  1  0
 14 15  2  0
  9 16  1  0
 16 17  1  0
 17 18  1  0
 18 19  2  0
 19 20  1  0
 20 21  2  0
 21 22  1  0
 22 23  2  0
  2 24  1  0
 24 25  2  0
 25 26  1  0
 26 27  2  0
 27 28  1  0
 28 29  2  0
 29 30  1  0
 30 31  2  0
 31 32  1  0
 32 33  2  0
 17  7  1  0
 23 18  1  0
 33 24  1  0
 15 10  1  0
 32 27  1  0
  3 34  1  0
  4 35  1  0
  4 36  1  0
  8 37  1  0
  8 38  1  0
  9 39  1  1
 11 40  1  0
 12 41  1  0
 13 42  1  0
 14 43  1  0
 15 44  1  0
 16 45  1  0
 16 46  1  0
 17 47  1  6
 19 48  1  0
 20 49  1  0
 21 50  1  0
 22 51  1  0
 23 52  1  0
 25 53  1  0
 26 54  1  0
 28 55  1  0
 29 56  1  0
 30 57  1  0
 31 58  1  0
M  END
>  <smiles>  (26) 
O=C(NCC(=O)N1C[C@H](c2ccccc2)C[C@H]1c1ccccc1)c1ccc2ccccc2n1

>  <score_type>  (26) 
oracle

>  <origin>  (26) 
autodockgpu

>  <m_score__min__energy>  (26) 
-9.6400000000000006

>  <m_primary>  (26) 
energy

>  <rmsd>  (26) 
7.229108722178621

>  <m_score__min__rmsd>  (26) 
7.229108722178621

>  <meeko>  (26) 
{"free_energy": -9.42, "intermolecular_energy": -11.21, "internal_energy": -1.98, "cluster_size": 2, "cluster_id": 3, "rank_in_cluster": 1}

>  <energy>  (26) 
-9.33

>  <cluster_rmsd>  (26) 
0.19

>  <cluster>  (26) 
2

$$$$

     RDKit          3D

 58 62  0  0  0  0  0  0  0  0999 V2000
  140.7820   71.3970  221.2860 O   0  0  0  0  0  0  0  0  0  0  0  0
  140.3880   71.9690  222.3410 C   0  0  0  0  0  0  0  0  0  0  0  0
  140.1050   73.3770  222.2560 N   0  0  0  0  0  0  0  0  0  0  0  0
  140.2760   74.0540  221.0110 C   0  0  0  0  0  0  0  0  0  0  0  0
  141.0230   75.3500  221.1850 C   0  0  0  0  0  0  0  0  0  0  0  0
  141.0840   75.7820  222.3620 O   0  0  0  0  0  0  0  0  0  0  0  0
  141.6050   76.0130  220.0680 N   0  0  0  0  0  0  0  0  0  0  0  0
  141.2150   77.3400  219.6310 C   0  0  0  0  0  0  0  0  0  0  0  0
  142.5020   77.8330  219.0290 C   0  0  2  0  0  0  0  0  0  0  0  0
  142.2720   78.6890  217.8380 C   0  0  0  0  0  0  0  0  0  0  0  0
  141.9780   78.1210  216.6070 C   0  0  0  0  0  0  0  0  0  0  0  0
  141.7660   78.9320  215.5100 C   0  0  0  0  0  0  0  0  0  0  0  0
  141.8330   80.3100  215.5760 C   0  0  0  0  0  0  0  0  0  0  0  0
  142.1250   80.8810  216.8020 C   0  0  0  0  0  0  0  0  0  0  0  0
  142.3350   80.0710  217.8870 C   0  0  0  0  0  0  0  0  0  0  0  0
  143.3840   76.6530  218.7470 C   0  0  0  0  0  0  0  0  0  0  0  0
  142.6390   75.4650  219.2310 C   0  0  1  0  0  0  0  0  0  0  0  0
  143.4930   74.4630  219.9050 C   0  0  0  0  0  0  0  0  0  0  0  0
  143.1830   73.1400  220.0430 C   0  0  0  0  0  0  0  0  0  0  0  0
  144.0070   72.2200  220.6810 C   0  0  0  0  0  0  0  0  0  0  0  0
  145.2080   72.6570  221.2120 C   0  0  0  0  0  0  0  0  0  0  0  0
  145.5570   73.9870  221.0930 C   0  0  0  0  0  0  0  0  0  0  0  0
  144.7150   74.8730  220.4520 C   0  0  0  0  0  0  0  0  0  0  0  0
  140.2130   71.2800  223.6030 C   0  0  0  0  0  0  0  0  0  0  0  0
  139.5870   70.0500  223.6250 C   0  0  0  0  0  0  0  0  0  0  0  0
  139.3780   69.3230  224.7760 C   0  0  0  0  0  0  0  0  0  0  0  0
  139.8420   69.9030  225.9610 C   0  0  0  0  0  0  0  0  0  0  0  0
  139.6650   69.2270  227.1500 C   0  0  0  0  0  0  0  0  0  0  0  0
  140.1330   69.8220  228.3000 C   0  0  0  0  0  0  0  0  0  0  0  0
  140.7650   71.0540  228.3120 C   0  0  0  0  0  0  0  0  0  0  0  0
  140.9340   71.7140  227.1080 C   0  0  0  0  0  0  0  0  0  0  0  0
  140.4690   71.1300  225.9410 C   0  0  0  0  0  0  0  0  0  0  0  0
  140.6570   71.8190  224.7760 N   0  0  0  0  0  0  0  0  0  0  0  0
  139.7740   73.9190  223.0890 H   0  0  0  0  0  0  0  0  0  0  0  0
  140.8412   73.4049  220.3260 H   0  0  0  0  0  0  0  0  0  0  0  0
  139.2803   74.2819  220.6027 H   0  0  0  0  0  0  0  0  0  0  0  0
  140.4090   77.2987  218.8835 H   0  0  0  0  0  0  0  0  0  0  0  0
  140.8129   77.9807  220.4296 H   0  0  0  0  0  0  0  0  0  0  0  0
  143.0167   78.4880  219.7474 H   0  0  0  0  0  0  0  0  0  0  0  0
  141.9140   77.0276  216.5052 H   0  0  0  0  0  0  0  0  0  0  0  0
  141.5341   78.4612  214.5433 H   0  0  0  0  0  0  0  0  0  0  0  0
  141.6602   80.9317  214.6851 H   0  0  0  0  0  0  0  0  0  0  0  0
  142.1879   81.9744  216.9046 H   0  0  0  0  0  0  0  0  0  0  0  0
  142.5668   80.5459  218.8518 H   0  0  0  0  0  0  0  0  0  0  0  0
  143.5781   76.5695  217.6675 H   0  0  0  0  0  0  0  0  0  0  0  0
  144.3597   76.7492  219.2457 H   0  0  0  0  0  0  0  0  0  0  0  0
  142.2183   74.8771  218.4019 H   0  0  0  0  0  0  0  0  0  0  0  0
  142.2294   72.7831  219.6267 H   0  0  0  0  0  0  0  0  0  0  0  0
  143.7099   71.1640  220.7623 H   0  0  0  0  0  0  0  0  0  0  0  0
  145.8782   71.9509  221.7241 H   0  0  0  0  0  0  0  0  0  0  0  0
  146.5104   74.3424  221.5109 H   0  0  0  0  0  0  0  0  0  0  0  0
  145.0117   75.9289  220.3686 H   0  0  0  0  0  0  0  0  0  0  0  0
  139.2361   69.6276  222.6719 H   0  0  0  0  0  0  0  0  0  0  0  0
  138.8760   68.3443  224.7639 H   0  0  0  0  0  0  0  0  0  0  0  0
  139.1672   68.2465  227.1785 H   0  0  0  0  0  0  0  0  0  0  0  0
  139.9984   69.2933  229.2552 H   0  0  0  0  0  0  0  0  0  0  0  0
  141.1230   71.4960  229.2535 H   0  0  0  0  0  0  0  0  0  0  0  0
  141.4332   72.6937  227.0775 H   0  0  0  0  0  0  0  0  0  0  0  0
  1  2  2  0
  2  3  1  0
  3  4  1  0
  4  5  1  0
  5  6  2  0
  5  7  1  0
  7  8  1  0
  8  9  1  0
  9 10  1  0
 10 11  2  0
 11 12  1  0
 12 13  2  0
 13 14  1  0
 14 15  2  0
  9 16  1  0
 16 17  1  0
 17 18  1  0
 18 19  2  0
 19 20  1  0
 20 21  2  0
 21 22  1  0
 22 23  2  0
  2 24  1  0
 24 25  2  0
 25 26  1  0
 26 27  2  0
 27 28  1  0
 28 29  2  0
 29 30  1  0
 30 31  2  0
 31 32  1  0
 32 33  2  0
 17  7  1  0
 23 18  1  0
 33 24  1  0
 15 10  1  0
 32 27  1  0
  3 34  1  0
  4 35  1  0
  4 36  1  0
  8 37  1  0
  8 38  1  0
  9 39  1  1
 11 40  1  0
 12 41  1  0
 13 42  1  0
 14 43  1  0
 15 44  1  0
 16 45  1  0
 16 46  1  0
 17 47  1  6
 19 48  1  0
 20 49  1  0
 21 50  1  0
 22 51  1  0
 23 52  1  0
 25 53  1  0
 26 54  1  0
 28 55  1  0
 29 56  1  0
 30 57  1  0
 31 58  1  0
M  END
>  <smiles>  (27) 
O=C(NCC(=O)N1C[C@H](c2ccccc2)C[C@H]1c1ccccc1)c1ccc2ccccc2n1

>  <score_type>  (27) 
oracle

>  <origin>  (27) 
autodockgpu

>  <m_score__min__energy>  (27) 
-9.6400000000000006

>  <m_primary>  (27) 
energy

>  <rmsd>  (27) 
2.3106463887166355

>  <m_score__min__rmsd>  (27) 
2.3106463887166355

>  <meeko>  (27) 
{"free_energy": -9.37, "intermolecular_energy": -11.16, "internal_energy": -2.36, "cluster_size": 26, "cluster_id": 2, "rank_in_cluster": 5}

>  <energy>  (27) 
-9.31

>  <cluster_rmsd>  (27) 
0.2

>  <cluster>  (27) 
2

$$$$

     RDKit          3D

 58 62  0  0  0  0  0  0  0  0999 V2000
  140.8690   71.5060  221.3310 O   0  0  0  0  0  0  0  0  0  0  0  0
  140.4090   72.0630  222.3670 C   0  0  0  0  0  0  0  0  0  0  0  0
  140.0510   73.4520  222.2610 N   0  0  0  0  0  0  0  0  0  0  0  0
  140.2270   74.1290  221.0170 C   0  0  0  0  0  0  0  0  0  0  0  0
  140.9780   75.4240  221.1930 C   0  0  0  0  0  0  0  0  0  0  0  0
  141.0370   75.8540  222.3710 O   0  0  0  0  0  0  0  0  0  0  0  0
  141.5630   76.0850  220.0780 N   0  0  0  0  0  0  0  0  0  0  0  0
  141.1990   77.4250  219.6590 C   0  0  0  0  0  0  0  0  0  0  0  0
  142.4910   77.8960  219.0500 C   0  0  2  0  0  0  0  0  0  0  0  0
  142.2690   78.7700  217.8710 C   0  0  0  0  0  0  0  0  0  0  0  0
  141.9110   78.2250  216.6460 C   0  0  0  0  0  0  0  0  0  0  0  0
  141.7080   79.0530  215.5600 C   0  0  0  0  0  0  0  0  0  0  0  0
  141.8460   80.4250  215.6300 C   0  0  0  0  0  0  0  0  0  0  0  0
  142.2020   80.9730  216.8500 C   0  0  0  0  0  0  0  0  0  0  0  0
  142.4030   80.1470  217.9250 C   0  0  0  0  0  0  0  0  0  0  0  0
  143.3440   76.7000  218.7470 C   0  0  0  0  0  0  0  0  0  0  0  0
  142.5770   75.5240  219.2250 C   0  0  1  0  0  0  0  0  0  0  0  0
  143.4150   74.4960  219.8810 C   0  0  0  0  0  0  0  0  0  0  0  0
  143.0880   73.1730  219.9850 C   0  0  0  0  0  0  0  0  0  0  0  0
  143.8960   72.2290  220.6060 C   0  0  0  0  0  0  0  0  0  0  0  0
  145.1000   72.6380  221.1540 C   0  0  0  0  0  0  0  0  0  0  0  0
  145.4650   73.9660  221.0690 C   0  0  0  0  0  0  0  0  0  0  0  0
  144.6380   74.8780  220.4440 C   0  0  0  0  0  0  0  0  0  0  0  0
  140.2300   71.3730  223.6290 C   0  0  0  0  0  0  0  0  0  0  0  0
  139.5670   70.1630  223.6540 C   0  0  0  0  0  0  0  0  0  0  0  0
  139.3510   69.4370  224.8040 C   0  0  0  0  0  0  0  0  0  0  0  0
  139.8480   69.9970  225.9860 C   0  0  0  0  0  0  0  0  0  0  0  0
  139.6660   69.3210  227.1740 C   0  0  0  0  0  0  0  0  0  0  0  0
  140.1660   69.8970  228.3200 C   0  0  0  0  0  0  0  0  0  0  0  0
  140.8350   71.1090  228.3290 C   0  0  0  0  0  0  0  0  0  0  0  0
  141.0080   71.7700  227.1270 C   0  0  0  0  0  0  0  0  0  0  0  0
  140.5110   71.2050  225.9630 C   0  0  0  0  0  0  0  0  0  0  0  0
  140.7040   71.8930  224.7980 N   0  0  0  0  0  0  0  0  0  0  0  0
  139.6630   73.9800  223.0780 H   0  0  0  0  0  0  0  0  0  0  0  0
  140.7920   73.4785  220.3331 H   0  0  0  0  0  0  0  0  0  0  0  0
  139.2329   74.3601  220.6067 H   0  0  0  0  0  0  0  0  0  0  0  0
  140.3854   77.4098  218.9189 H   0  0  0  0  0  0  0  0  0  0  0  0
  140.8190   78.0657  220.4684 H   0  0  0  0  0  0  0  0  0  0  0  0
  143.0269   78.5315  219.7704 H   0  0  0  0  0  0  0  0  0  0  0  0
  141.7894   77.1368  216.5406 H   0  0  0  0  0  0  0  0  0  0  0  0
  141.4243   78.6005  214.5983 H   0  0  0  0  0  0  0  0  0  0  0  0
  141.6789   81.0600  214.7475 H   0  0  0  0  0  0  0  0  0  0  0  0
  142.3225   82.0612  216.9558 H   0  0  0  0  0  0  0  0  0  0  0  0
  142.6867   80.6037  218.8846 H   0  0  0  0  0  0  0  0  0  0  0  0
  143.5264   76.6241  217.6649 H   0  0  0  0  0  0  0  0  0  0  0  0
  144.3262   76.7689  219.2375 H   0  0  0  0  0  0  0  0  0  0  0  0
  142.1356   74.9554  218.3932 H   0  0  0  0  0  0  0  0  0  0  0  0
  142.1333   72.8376  219.5536 H   0  0  0  0  0  0  0  0  0  0  0  0
  143.5849   71.1754  220.6614 H   0  0  0  0  0  0  0  0  0  0  0  0
  145.7589   71.9116  221.6521 H   0  0  0  0  0  0  0  0  0  0  0  0
  146.4198   74.2998  221.5014 H   0  0  0  0  0  0  0  0  0  0  0  0
  144.9483   75.9318  220.3871 H   0  0  0  0  0  0  0  0  0  0  0  0
  139.1906   69.7564  222.7037 H   0  0  0  0  0  0  0  0  0  0  0  0
  138.8193   68.4741  224.7940 H   0  0  0  0  0  0  0  0  0  0  0  0
  139.1398   68.3555  227.2049 H   0  0  0  0  0  0  0  0  0  0  0  0
  140.0272   69.3687  229.2748 H   0  0  0  0  0  0  0  0  0  0  0  0
  141.2189   71.5349  229.2677 H   0  0  0  0  0  0  0  0  0  0  0  0
  141.5350   72.7350  227.0948 H   0  0  0  0  0  0  0  0  0  0  0  0
  1  2  2  0
  2  3  1  0
  3  4  1  0
  4  5  1  0
  5  6  2  0
  5  7  1  0
  7  8  1  0
  8  9  1  0
  9 10  1  0
 10 11  2  0
 11 12  1  0
 12 13  2  0
 13 14  1  0
 14 15  2  0
  9 16  1  0
 16 17  1  0
 17 18  1  0
 18 19  2  0
 19 20  1  0
 20 21  2  0
 21 22  1  0
 22 23  2  0
  2 24  1  0
 24 25  2  0
 25 26  1  0
 26 27  2  0
 27 28  1  0
 28 29  2  0
 29 30  1  0
 30 31  2  0
 31 32  1  0
 32 33  2  0
 17  7  1  0
 23 18  1  0
 33 24  1  0
 15 10  1  0
 32 27  1  0
  3 34  1  0
  4 35  1  0
  4 36  1  0
  8 37  1  0
  8 38  1  0
  9 39  1  1
 11 40  1  0
 12 41  1  0
 13 42  1  0
 14 43  1  0
 15 44  1  0
 16 45  1  0
 16 46  1  0
 17 47  1  6
 19 48  1  0
 20 49  1  0
 21 50  1  0
 22 51  1  0
 23 52  1  0
 25 53  1  0
 26 54  1  0
 28 55  1  0
 29 56  1  0
 30 57  1  0
 31 58  1  0
M  END
>  <smiles>  (28) 
O=C(NCC(=O)N1C[C@H](c2ccccc2)C[C@H]1c1ccccc1)c1ccc2ccccc2n1

>  <score_type>  (28) 
oracle

>  <origin>  (28) 
autodockgpu

>  <m_score__min__energy>  (28) 
-9.6400000000000006

>  <m_primary>  (28) 
energy

>  <rmsd>  (28) 
2.3312591696757536

>  <m_score__min__rmsd>  (28) 
2.3312591696757536

>  <meeko>  (28) 
{"free_energy": -9.44, "intermolecular_energy": -11.23, "internal_energy": -2.3, "cluster_size": 26, "cluster_id": 2, "rank_in_cluster": 1}

>  <energy>  (28) 
-9.31

>  <cluster_rmsd>  (28) 
0.19

>  <cluster>  (28) 
2

$$$$

     RDKit          3D

 58 62  0  0  0  0  0  0  0  0999 V2000
  140.5210   75.4330  220.4830 O   0  0  0  0  0  0  0  0  0  0  0  0
  140.0340   75.7780  221.5960 C   0  0  0  0  0  0  0  0  0  0  0  0
  139.2780   74.7880  222.3160 N   0  0  0  0  0  0  0  0  0  0  0  0
  139.1130   73.4860  221.7550 C   0  0  0  0  0  0  0  0  0  0  0  0
  140.2480   72.5720  222.1370 C   0  0  0  0  0  0  0  0  0  0  0  0
  141.3530   72.8370  221.6030 O   0  0  0  0  0  0  0  0  0  0  0  0
  140.0440   71.4930  223.0400 N   0  0  0  0  0  0  0  0  0  0  0  0
  140.4600   71.5210  224.4290 C   0  0  0  0  0  0  0  0  0  0  0  0
  139.4310   70.6200  225.0550 C   0  0  2  0  0  0  0  0  0  0  0  0
  139.9970   69.8050  226.1590 C   0  0  0  0  0  0  0  0  0  0  0  0
  140.0400   68.4210  226.0640 C   0  0  0  0  0  0  0  0  0  0  0  0
  140.5690   67.6780  227.1000 C   0  0  0  0  0  0  0  0  0  0  0  0
  141.0700   68.2530  228.2520 C   0  0  0  0  0  0  0  0  0  0  0  0
  141.0300   69.6330  228.3510 C   0  0  0  0  0  0  0  0  0  0  0  0
  140.5030   70.3660  227.3200 C   0  0  0  0  0  0  0  0  0  0  0  0
  138.7950   69.7940  223.9760 C   0  0  0  0  0  0  0  0  0  0  0  0
  139.4120   70.2440  222.7050 C   0  0  1  0  0  0  0  0  0  0  0  0
  138.4550   70.3360  221.5810 C   0  0  0  0  0  0  0  0  0  0  0  0
  138.7640   70.0960  220.2720 C   0  0  0  0  0  0  0  0  0  0  0  0
  137.8430   70.1890  219.2350 C   0  0  0  0  0  0  0  0  0  0  0  0
  136.5380   70.5440  219.5330 C   0  0  0  0  0  0  0  0  0  0  0  0
  136.1870   70.7950  220.8440 C   0  0  0  0  0  0  0  0  0  0  0  0
  137.1290   70.6920  221.8490 C   0  0  0  0  0  0  0  0  0  0  0  0
  140.2040   77.1010  222.1640 C   0  0  0  0  0  0  0  0  0  0  0  0
  139.0970   77.8020  222.5950 C   0  0  0  0  0  0  0  0  0  0  0  0
  139.1620   79.0620  223.1470 C   0  0  0  0  0  0  0  0  0  0  0  0
  140.4400   79.6200  223.2550 C   0  0  0  0  0  0  0  0  0  0  0  0
  140.5770   80.8790  223.7990 C   0  0  0  0  0  0  0  0  0  0  0  0
  141.8470   81.4010  223.8940 C   0  0  0  0  0  0  0  0  0  0  0  0
  142.9780   80.7230  223.4700 C   0  0  0  0  0  0  0  0  0  0  0  0
  142.8190   79.4610  222.9280 C   0  0  0  0  0  0  0  0  0  0  0  0
  141.5470   78.9190  222.8260 C   0  0  0  0  0  0  0  0  0  0  0  0
  141.4380   77.6700  222.2840 N   0  0  0  0  0  0  0  0  0  0  0  0
  138.8440   75.0010  223.2450 H   0  0  0  0  0  0  0  0  0  0  0  0
  138.1691   73.0560  222.1213 H   0  0  0  0  0  0  0  0  0  0  0  0
  139.1008   73.5815  220.6592 H   0  0  0  0  0  0  0  0  0  0  0  0
  141.4770   71.1210  224.5543 H   0  0  0  0  0  0  0  0  0  0  0  0
  140.5076   72.5285  224.8679 H   0  0  0  0  0  0  0  0  0  0  0  0
  138.6496   71.2298  225.5320 H   0  0  0  0  0  0  0  0  0  0  0  0
  139.6535   67.9176  225.1655 H   0  0  0  0  0  0  0  0  0  0  0  0
  140.5927   66.5824  227.0044 H   0  0  0  0  0  0  0  0  0  0  0  0
  141.4860   67.6359  229.0620 H   0  0  0  0  0  0  0  0  0  0  0  0
  141.4176   70.1366  229.2488 H   0  0  0  0  0  0  0  0  0  0  0  0
  140.4806   71.4612  227.4200 H   0  0  0  0  0  0  0  0  0  0  0  0
  138.9969   68.7256  224.1425 H   0  0  0  0  0  0  0  0  0  0  0  0
  137.7022   69.9192  223.9618 H   0  0  0  0  0  0  0  0  0  0  0  0
  140.1393   69.5139  222.3204 H   0  0  0  0  0  0  0  0  0  0  0  0
  139.7981   69.8137  220.0252 H   0  0  0  0  0  0  0  0  0  0  0  0
  138.1451   69.9845  218.1972 H   0  0  0  0  0  0  0  0  0  0  0  0
  135.7881   70.6252  218.7323 H   0  0  0  0  0  0  0  0  0  0  0  0
  135.1528   71.0782  221.0895 H   0  0  0  0  0  0  0  0  0  0  0  0
  136.8285   70.8953  222.8875 H   0  0  0  0  0  0  0  0  0  0  0  0
  138.1091   77.3292  222.4923 H   0  0  0  0  0  0  0  0  0  0  0  0
  138.2621   79.5979  223.4831 H   0  0  0  0  0  0  0  0  0  0  0  0
  139.7012   81.4472  224.1454 H   0  0  0  0  0  0  0  0  0  0  0  0
  141.9697   82.4046  224.3273 H   0  0  0  0  0  0  0  0  0  0  0  0
  143.9760   81.1765  223.5620 H   0  0  0  0  0  0  0  0  0  0  0  0
  143.6940   78.8920  222.5808 H   0  0  0  0  0  0  0  0  0  0  0  0
  1  2  2  0
  2  3  1  0
  3  4  1  0
  4  5  1  0
  5  6  2  0
  5  7  1  0
  7  8  1  0
  8  9  1  0
  9 10  1  0
 10 11  2  0
 11 12  1  0
 12 13  2  0
 13 14  1  0
 14 15  2  0
  9 16  1  0
 16 17  1  0
 17 18  1  0
 18 19  2  0
 19 20  1  0
 20 21  2  0
 21 22  1  0
 22 23  2  0
  2 24  1  0
 24 25  2  0
 25 26  1  0
 26 27  2  0
 27 28  1  0
 28 29  2  0
 29 30  1  0
 30 31  2  0
 31 32  1  0
 32 33  2  0
 17  7  1  0
 23 18  1  0
 33 24  1  0
 15 10  1  0
 32 27  1  0
  3 34  1  0
  4 35  1  0
  4 36  1  0
  8 37  1  0
  8 38  1  0
  9 39  1  1
 11 40  1  0
 12 41  1  0
 13 42  1  0
 14 43  1  0
 15 44  1  0
 16 45  1  0
 16 46  1  0
 17 47  1  6
 19 48  1  0
 20 49  1  0
 21 50  1  0
 22 51  1  0
 23 52  1  0
 25 53  1  0
 26 54  1  0
 28 55  1  0
 29 56  1  0
 30 57  1  0
 31 58  1  0
M  END
>  <smiles>  (29) 
O=C(NCC(=O)N1C[C@H](c2ccccc2)C[C@H]1c1ccccc1)c1ccc2ccccc2n1

>  <score_type>  (29) 
oracle

>  <origin>  (29) 
autodockgpu

>  <m_score__min__energy>  (29) 
-9.6400000000000006

>  <m_primary>  (29) 
energy

>  <rmsd>  (29) 
8.474623121313533

>  <m_score__min__rmsd>  (29) 
8.474623121313533

>  <meeko>  (29) 
{"free_energy": -9.3, "intermolecular_energy": -11.09, "internal_energy": -1.63, "cluster_size": 3, "cluster_id": 4, "rank_in_cluster": 1}

>  <energy>  (29) 
-9.28

>  <cluster_rmsd>  (29) 
0.2

>  <cluster>  (29) 
2

$$$$

     RDKit          3D

 58 62  0  0  0  0  0  0  0  0999 V2000
  141.0130   71.6650  221.4570 O   0  0  0  0  0  0  0  0  0  0  0  0
  140.3150   72.0910  222.4200 C   0  0  0  0  0  0  0  0  0  0  0  0
  139.6360   73.3450  222.2340 N   0  0  0  0  0  0  0  0  0  0  0  0
  139.7760   74.0420  220.9960 C   0  0  0  0  0  0  0  0  0  0  0  0
  138.8880   75.2580  220.9430 C   0  0  0  0  0  0  0  0  0  0  0  0
  137.8840   75.1570  220.1960 O   0  0  0  0  0  0  0  0  0  0  0  0
  139.1980   76.4220  221.6980 N   0  0  0  0  0  0  0  0  0  0  0  0
  140.3610   77.2520  221.4510 C   0  0  0  0  0  0  0  0  0  0  0  0
  139.8560   78.5960  221.9000 C   0  0  2  0  0  0  0  0  0  0  0  0
  140.9180   79.4050  222.5490 C   0  0  0  0  0  0  0  0  0  0  0  0
  140.5940   80.5470  223.2690 C   0  0  0  0  0  0  0  0  0  0  0  0
  141.5930   81.2880  223.8670 C   0  0  0  0  0  0  0  0  0  0  0  0
  142.9290   80.9450  223.7830 C   0  0  0  0  0  0  0  0  0  0  0  0
  143.2560   79.8070  223.0670 C   0  0  0  0  0  0  0  0  0  0  0  0
  142.2600   79.0750  222.4750 C   0  0  0  0  0  0  0  0  0  0  0  0
  138.6530   78.3900  222.7720 C   0  0  0  0  0  0  0  0  0  0  0  0
  138.4160   76.9260  222.7960 C   0  0  1  0  0  0  0  0  0  0  0  0
  136.9850   76.5560  222.7360 C   0  0  0  0  0  0  0  0  0  0  0  0
  136.4030   75.5680  223.4800 C   0  0  0  0  0  0  0  0  0  0  0  0
  135.0540   75.2430  223.4040 C   0  0  0  0  0  0  0  0  0  0  0  0
  134.2460   75.9500  222.5290 C   0  0  0  0  0  0  0  0  0  0  0  0
  134.7970   76.9550  221.7610 C   0  0  0  0  0  0  0  0  0  0  0  0
  136.1420   77.2520  221.8630 C   0  0  0  0  0  0  0  0  0  0  0  0
  140.1730   71.3800  223.6750 C   0  0  0  0  0  0  0  0  0  0  0  0
  139.5140   70.1680  223.7000 C   0  0  0  0  0  0  0  0  0  0  0  0
  139.3330   69.4240  224.8440 C   0  0  0  0  0  0  0  0  0  0  0  0
  139.8620   69.9660  226.0200 C   0  0  0  0  0  0  0  0  0  0  0  0
  139.7150   69.2720  227.2020 C   0  0  0  0  0  0  0  0  0  0  0  0
  140.2470   69.8300  228.3420 C   0  0  0  0  0  0  0  0  0  0  0  0
  140.9130   71.0440  228.3510 C   0  0  0  0  0  0  0  0  0  0  0  0
  141.0500   71.7240  227.1550 C   0  0  0  0  0  0  0  0  0  0  0  0
  140.5210   71.1770  225.9970 C   0  0  0  0  0  0  0  0  0  0  0  0
  140.6800   71.8840  224.8390 N   0  0  0  0  0  0  0  0  0  0  0  0
  139.0390   73.7600  222.9880 H   0  0  0  0  0  0  0  0  0  0  0  0
  140.8231   74.3588  220.8807 H   0  0  0  0  0  0  0  0  0  0  0  0
  139.4802   73.3631  220.1826 H   0  0  0  0  0  0  0  0  0  0  0  0
  141.2248   76.9250  222.0484 H   0  0  0  0  0  0  0  0  0  0  0  0
  140.7228   77.2277  220.4125 H   0  0  0  0  0  0  0  0  0  0  0  0
  139.5527   79.1873  221.0234 H   0  0  0  0  0  0  0  0  0  0  0  0
  139.5437   80.8604  223.3626 H   0  0  0  0  0  0  0  0  0  0  0  0
  141.3143   82.1886  224.4338 H   0  0  0  0  0  0  0  0  0  0  0  0
  143.7051   81.5551  224.2682 H   0  0  0  0  0  0  0  0  0  0  0  0
  144.3060   79.4926  222.9738 H   0  0  0  0  0  0  0  0  0  0  0  0
  142.5430   78.1750  221.9095 H   0  0  0  0  0  0  0  0  0  0  0  0
  138.8484   78.7629  223.7882 H   0  0  0  0  0  0  0  0  0  0  0  0
  137.7777   78.9352  222.3890 H   0  0  0  0  0  0  0  0  0  0  0  0
  138.7238   76.4754  223.7511 H   0  0  0  0  0  0  0  0  0  0  0  0
  137.0367   74.9994  224.1765 H   0  0  0  0  0  0  0  0  0  0  0  0
  134.6356   74.4390  224.0273 H   0  0  0  0  0  0  0  0  0  0  0  0
  133.1751   75.7124  222.4472 H   0  0  0  0  0  0  0  0  0  0  0  0
  134.1623   77.5223  221.0643 H   0  0  0  0  0  0  0  0  0  0  0  0
  136.5614   78.0569  221.2415 H   0  0  0  0  0  0  0  0  0  0  0  0
  139.1115   69.7750  222.7547 H   0  0  0  0  0  0  0  0  0  0  0  0
  138.8034   68.4599  224.8339 H   0  0  0  0  0  0  0  0  0  0  0  0
  139.1906   68.3056  227.2329 H   0  0  0  0  0  0  0  0  0  0  0  0
  140.1379   69.2855  229.2915 H   0  0  0  0  0  0  0  0  0  0  0  0
  141.3222   71.4565  229.2850 H   0  0  0  0  0  0  0  0  0  0  0  0
  141.5742   72.6905  227.1230 H   0  0  0  0  0  0  0  0  0  0  0  0
  1  2  2  0
  2  3  1  0
  3  4  1  0
  4  5  1  0
  5  6  2  0
  5  7  1  0
  7  8  1  0
  8  9  1  0
  9 10  1  0
 10 11  2  0
 11 12  1  0
 12 13  2  0
 13 14  1  0
 14 15  2  0
  9 16  1  0
 16 17  1  0
 17 18  1  0
 18 19  2  0
 19 20  1  0
 20 21  2  0
 21 22  1  0
 22 23  2  0
  2 24  1  0
 24 25  2  0
 25 26  1  0
 26 27  2  0
 27 28  1  0
 28 29  2  0
 29 30  1  0
 30 31  2  0
 31 32  1  0
 32 33  2  0
 17  7  1  0
 23 18  1  0
 33 24  1  0
 15 10  1  0
 32 27  1  0
  3 34  1  0
  4 35  1  0
  4 36  1  0
  8 37  1  0
  8 38  1  0
  9 39  1  6
 11 40  1  0
 12 41  1  0
 13 42  1  0
 14 43  1  0
 15 44  1  0
 16 45  1  0
 16 46  1  0
 17 47  1  1
 19 48  1  0
 20 49  1  0
 21 50  1  0
 22 51  1  0
 23 52  1  0
 25 53  1  0
 26 54  1  0
 28 55  1  0
 29 56  1  0
 30 57  1  0
 31 58  1  0
M  END
>  <smiles>  (30) 
O=C(NCC(=O)N1C[C@H](c2ccccc2)C[C@H]1c1ccccc1)c1ccc2ccccc2n1

>  <score_type>  (30) 
oracle

>  <origin>  (30) 
autodockgpu

>  <m_score__min__energy>  (30) 
-9.6400000000000006

>  <m_primary>  (30) 
energy

>  <rmsd>  (30) 
3.1252016370478843

>  <m_score__min__rmsd>  (30) 
3.1252016370478843

>  <meeko>  (30) 
{"free_energy": -9.64, "intermolecular_energy": -11.43, "internal_energy": -1.79, "cluster_size": 6, "cluster_id": 1, "rank_in_cluster": 1}

>  <energy>  (30) 
-9.26

>  <cluster_rmsd>  (30) 
0.21

>  <cluster>  (30) 
2

$$$$

     RDKit          3D

 58 62  0  0  0  0  0  0  0  0999 V2000
  137.8540   75.7260  222.3790 O   0  0  0  0  0  0  0  0  0  0  0  0
  139.0740   76.0550  222.3500 C   0  0  0  0  0  0  0  0  0  0  0  0
  140.0190   75.0360  221.9780 N   0  0  0  0  0  0  0  0  0  0  0  0
  139.5500   73.7250  221.6630 C   0  0  0  0  0  0  0  0  0  0  0  0
  140.5220   72.6670  222.1160 C   0  0  0  0  0  0  0  0  0  0  0  0
  141.6680   72.7360  221.6060 O   0  0  0  0  0  0  0  0  0  0  0  0
  140.1330   71.6720  223.0550 N   0  0  0  0  0  0  0  0  0  0  0  0
  140.7040   71.5570  224.3830 C   0  0  0  0  0  0  0  0  0  0  0  0
  139.5470   70.9710  225.1440 C   0  0  2  0  0  0  0  0  0  0  0  0
  139.9890   70.0100  226.1850 C   0  0  0  0  0  0  0  0  0  0  0  0
  139.8330   68.6440  225.9960 C   0  0  0  0  0  0  0  0  0  0  0  0
  140.2500   67.7640  226.9750 C   0  0  0  0  0  0  0  0  0  0  0  0
  140.8270   68.1820  228.1580 C   0  0  0  0  0  0  0  0  0  0  0  0
  140.9850   69.5430  228.3500 C   0  0  0  0  0  0  0  0  0  0  0  0
  140.5690   70.4120  227.3760 C   0  0  0  0  0  0  0  0  0  0  0  0
  138.5790   70.3770  224.1630 C   0  0  0  0  0  0  0  0  0  0  0  0
  139.1400   70.6580  222.8190 C   0  0  1  0  0  0  0  0  0  0  0  0
  138.1190   71.0360  221.8170 C   0  0  0  0  0  0  0  0  0  0  0  0
  138.1840   70.7340  220.4870 C   0  0  0  0  0  0  0  0  0  0  0  0
  137.2080   71.1020  219.5670 C   0  0  0  0  0  0  0  0  0  0  0  0
  136.1070   71.8130  220.0130 C   0  0  0  0  0  0  0  0  0  0  0  0
  136.0060   72.1360  221.3500 C   0  0  0  0  0  0  0  0  0  0  0  0
  136.9940   71.7550  222.2360 C   0  0  0  0  0  0  0  0  0  0  0  0
  139.5470   77.3870  222.6690 C   0  0  0  0  0  0  0  0  0  0  0  0
  138.6330   78.3900  222.9200 C   0  0  0  0  0  0  0  0  0  0  0  0
  138.9910   79.6840  223.2310 C   0  0  0  0  0  0  0  0  0  0  0  0
  140.3630   79.9460  223.2840 C   0  0  0  0  0  0  0  0  0  0  0  0
  140.7890   81.2210  223.5900 C   0  0  0  0  0  0  0  0  0  0  0  0
  142.1460   81.4490  223.6350 C   0  0  0  0  0  0  0  0  0  0  0  0
  143.0870   80.4640  223.3880 C   0  0  0  0  0  0  0  0  0  0  0  0
  142.6390   79.1920  223.0830 C   0  0  0  0  0  0  0  0  0  0  0  0
  141.2770   78.9450  223.0340 C   0  0  0  0  0  0  0  0  0  0  0  0
  140.8800   77.6730  222.7290 N   0  0  0  0  0  0  0  0  0  0  0  0
  141.0460   75.2350  221.9330 H   0  0  0  0  0  0  0  0  0  0  0  0
  138.5843   73.5610  222.1636 H   0  0  0  0  0  0  0  0  0  0  0  0
  139.4428   73.6501  220.5708 H   0  0  0  0  0  0  0  0  0  0  0  0
  141.5747   70.8849  224.3914 H   0  0  0  0  0  0  0  0  0  0  0  0
  141.0854   72.5026  224.7957 H   0  0  0  0  0  0  0  0  0  0  0  0
  139.0327   71.7671  225.7023 H   0  0  0  0  0  0  0  0  0  0  0  0
  139.3786   68.2635  225.0693 H   0  0  0  0  0  0  0  0  0  0  0  0
  140.1171   66.6853  226.8056 H   0  0  0  0  0  0  0  0  0  0  0  0
  141.1497   67.4582  228.9209 H   0  0  0  0  0  0  0  0  0  0  0  0
  141.4404   69.9238  229.2761 H   0  0  0  0  0  0  0  0  0  0  0  0
  140.7034   71.4898  227.5501 H   0  0  0  0  0  0  0  0  0  0  0  0
  138.4904   69.2921  224.3217 H   0  0  0  0  0  0  0  0  0  0  0  0
  137.5724   70.8052  224.2785 H   0  0  0  0  0  0  0  0  0  0  0  0
  139.5805   69.7600  222.3612 H   0  0  0  0  0  0  0  0  0  0  0  0
  139.0552   70.1693  220.1236 H   0  0  0  0  0  0  0  0  0  0  0  0
  137.3090   70.8332  218.5051 H   0  0  0  0  0  0  0  0  0  0  0  0
  135.3199   72.1175  219.3074 H   0  0  0  0  0  0  0  0  0  0  0  0
  135.1339   72.7000  221.7123 H   0  0  0  0  0  0  0  0  0  0  0  0
  136.8943   72.0234  223.2981 H   0  0  0  0  0  0  0  0  0  0  0  0
  137.5621   78.1437  222.8691 H   0  0  0  0  0  0  0  0  0  0  0  0
  138.2411   80.4648  223.4261 H   0  0  0  0  0  0  0  0  0  0  0  0
  140.0695   82.0283  223.7913 H   0  0  0  0  0  0  0  0  0  0  0  0
  142.4993   82.4618  223.8787 H   0  0  0  0  0  0  0  0  0  0  0  0
  144.1631   80.6875  223.4332 H   0  0  0  0  0  0  0  0  0  0  0  0
  143.3574   78.3839  222.8812 H   0  0  0  0  0  0  0  0  0  0  0  0
  1  2  2  0
  2  3  1  0
  3  4  1  0
  4  5  1  0
  5  6  2  0
  5  7  1  0
  7  8  1  0
  8  9  1  0
  9 10  1  0
 10 11  2  0
 11 12  1  0
 12 13  2  0
 13 14  1  0
 14 15  2  0
  9 16  1  0
 16 17  1  0
 17 18  1  0
 18 19  2  0
 19 20  1  0
 20 21  2  0
 21 22  1  0
 22 23  2  0
  2 24  1  0
 24 25  2  0
 25 26  1  0
 26 27  2  0
 27 28  1  0
 28 29  2  0
 29 30  1  0
 30 31  2  0
 31 32  1  0
 32 33  2  0
 17  7  1  0
 23 18  1  0
 33 24  1  0
 15 10  1  0
 32 27  1  0
  3 34  1  0
  4 35  1  0
  4 36  1  0
  8 37  1  0
  8 38  1  0
  9 39  1  1
 11 40  1  0
 12 41  1  0
 13 42  1  0
 14 43  1  0
 15 44  1  0
 16 45  1  0
 16 46  1  0
 17 47  1  6
 19 48  1  0
 20 49  1  0
 21 50  1  0
 22 51  1  0
 23 52  1  0
 25 53  1  0
 26 54  1  0
 28 55  1  0
 29 56  1  0
 30 57  1  0
 31 58  1  0
M  END
>  <smiles>  (31) 
O=C(NCC(=O)N1C[C@H](c2ccccc2)C[C@H]1c1ccccc1)c1ccc2ccccc2n1

>  <score_type>  (31) 
oracle

>  <origin>  (31) 
autodockgpu

>  <m_score__min__energy>  (31) 
-9.6400000000000006

>  <m_primary>  (31) 
energy

>  <rmsd>  (31) 
8.55847483388691

>  <m_score__min__rmsd>  (31) 
8.55847483388691

>  <meeko>  (31) 
{"free_energy": -8.93, "intermolecular_energy": -10.72, "internal_energy": -2.09, "cluster_size": 3, "cluster_id": 4, "rank_in_cluster": 2}

>  <energy>  (31) 
-9.2

>  <cluster_rmsd>  (31) 
0.31

>  <cluster>  (31) 
2

$$$$

     RDKit          3D

 58 62  0  0  0  0  0  0  0  0999 V2000
  140.8140   71.5720  221.3110 O   0  0  0  0  0  0  0  0  0  0  0  0
  140.3620   72.1160  222.3570 C   0  0  0  0  0  0  0  0  0  0  0  0
  139.9940   73.5030  222.2690 N   0  0  0  0  0  0  0  0  0  0  0  0
  140.1500   74.1930  221.0290 C   0  0  0  0  0  0  0  0  0  0  0  0
  140.9710   75.4460  221.1930 C   0  0  0  0  0  0  0  0  0  0  0  0
  141.1010   75.8530  222.3730 O   0  0  0  0  0  0  0  0  0  0  0  0
  141.5410   76.0980  220.0650 N   0  0  0  0  0  0  0  0  0  0  0  0
  141.1460   77.4190  219.6170 C   0  0  0  0  0  0  0  0  0  0  0  0
  142.4270   77.9080  218.9980 C   0  0  2  0  0  0  0  0  0  0  0  0
  142.1850   78.7510  217.8010 C   0  0  0  0  0  0  0  0  0  0  0  0
  142.3180   80.1310  217.8710 C   0  0  0  0  0  0  0  0  0  0  0  0
  142.0890   80.9000  216.7480 C   0  0  0  0  0  0  0  0  0  0  0  0
  141.7280   80.3560  215.5310 C   0  0  0  0  0  0  0  0  0  0  0  0
  141.5960   78.9810  215.4560 C   0  0  0  0  0  0  0  0  0  0  0  0
  141.8230   78.2220  216.5740 C   0  0  0  0  0  0  0  0  0  0  0  0
  143.3080   76.7250  218.7200 C   0  0  0  0  0  0  0  0  0  0  0  0
  142.5690   75.5420  219.2230 C   0  0  1  0  0  0  0  0  0  0  0  0
  143.4290   74.5480  219.9000 C   0  0  0  0  0  0  0  0  0  0  0  0
  143.1140   73.2300  220.0710 C   0  0  0  0  0  0  0  0  0  0  0  0
  143.9440   72.3180  220.7110 C   0  0  0  0  0  0  0  0  0  0  0  0
  145.1590   72.7570  221.2080 C   0  0  0  0  0  0  0  0  0  0  0  0
  145.5140   74.0810  221.0540 C   0  0  0  0  0  0  0  0  0  0  0  0
  144.6650   74.9600  220.4130 C   0  0  0  0  0  0  0  0  0  0  0  0
  140.2030   71.4130  223.6150 C   0  0  0  0  0  0  0  0  0  0  0  0
  139.5570   70.1930  223.6340 C   0  0  0  0  0  0  0  0  0  0  0  0
  139.3610   69.4550  224.7800 C   0  0  0  0  0  0  0  0  0  0  0  0
  139.8600   70.0110  225.9620 C   0  0  0  0  0  0  0  0  0  0  0  0
  139.6970   69.3240  227.1460 C   0  0  0  0  0  0  0  0  0  0  0  0
  140.1980   69.8960  228.2930 C   0  0  0  0  0  0  0  0  0  0  0  0
  140.8500   71.1180  228.3070 C   0  0  0  0  0  0  0  0  0  0  0  0
  141.0040   71.7910  227.1090 C   0  0  0  0  0  0  0  0  0  0  0  0
  140.5050   71.2290  225.9440 C   0  0  0  0  0  0  0  0  0  0  0  0
  140.6800   71.9300  224.7840 N   0  0  0  0  0  0  0  0  0  0  0  0
  139.6120   74.0210  223.0950 H   0  0  0  0  0  0  0  0  0  0  0  0
  140.6522   73.5282  220.3109 H   0  0  0  0  0  0  0  0  0  0  0  0
  139.1520   74.4797  220.6659 H   0  0  0  0  0  0  0  0  0  0  0  0
  140.3336   77.3684  218.8772 H   0  0  0  0  0  0  0  0  0  0  0  0
  140.7505   78.0678  220.4124 H   0  0  0  0  0  0  0  0  0  0  0  0
  142.9475   78.5714  219.7044 H   0  0  0  0  0  0  0  0  0  0  0  0
  142.6050   80.6102  218.8186 H   0  0  0  0  0  0  0  0  0  0  0  0
  142.1986   81.9918  216.8255 H   0  0  0  0  0  0  0  0  0  0  0  0
  141.5516   80.9937  214.6522 H   0  0  0  0  0  0  0  0  0  0  0  0
  141.3115   78.5015  214.5078 H   0  0  0  0  0  0  0  0  0  0  0  0
  141.7113   77.1308  216.4919 H   0  0  0  0  0  0  0  0  0  0  0  0
  143.4922   76.6304  217.6397 H   0  0  0  0  0  0  0  0  0  0  0  0
  144.2882   76.8272  219.2087 H   0  0  0  0  0  0  0  0  0  0  0  0
  142.1419   74.9457  218.4033 H   0  0  0  0  0  0  0  0  0  0  0  0
  142.1503   72.8709  219.6806 H   0  0  0  0  0  0  0  0  0  0  0  0
  143.6411   71.2662  220.8208 H   0  0  0  0  0  0  0  0  0  0  0  0
  145.8349   72.0568  221.7208 H   0  0  0  0  0  0  0  0  0  0  0  0
  146.4786   74.4379  221.4441 H   0  0  0  0  0  0  0  0  0  0  0  0
  144.9671   76.0119  220.3021 H   0  0  0  0  0  0  0  0  0  0  0  0
  139.1788   69.7890  222.6833 H   0  0  0  0  0  0  0  0  0  0  0  0
  138.8423   68.4851  224.7664 H   0  0  0  0  0  0  0  0  0  0  0  0
  139.1838   68.3514  227.1730 H   0  0  0  0  0  0  0  0  0  0  0  0
  140.0748   69.3571  229.2440 H   0  0  0  0  0  0  0  0  0  0  0  0
  141.2351   71.5418  229.2462 H   0  0  0  0  0  0  0  0  0  0  0  0
  141.5177   72.7633  227.0805 H   0  0  0  0  0  0  0  0  0  0  0  0
  1  2  2  0
  2  3  1  0
  3  4  1  0
  4  5  1  0
  5  6  2  0
  5  7  1  0
  7  8  1  0
  8  9  1  0
  9 10  1  0
 10 11  2  0
 11 12  1  0
 12 13  2  0
 13 14  1  0
 14 15  2  0
  9 16  1  0
 16 17  1  0
 17 18  1  0
 18 19  2  0
 19 20  1  0
 20 21  2  0
 21 22  1  0
 22 23  2  0
  2 24  1  0
 24 25  2  0
 25 26  1  0
 26 27  2  0
 27 28  1  0
 28 29  2  0
 29 30  1  0
 30 31  2  0
 31 32  1  0
 32 33  2  0
 17  7  1  0
 23 18  1  0
 33 24  1  0
 15 10  1  0
 32 27  1  0
  3 34  1  0
  4 35  1  0
  4 36  1  0
  8 37  1  0
  8 38  1  0
  9 39  1  1
 11 40  1  0
 12 41  1  0
 13 42  1  0
 14 43  1  0
 15 44  1  0
 16 45  1  0
 16 46  1  0
 17 47  1  6
 19 48  1  0
 20 49  1  0
 21 50  1  0
 22 51  1  0
 23 52  1  0
 25 53  1  0
 26 54  1  0
 28 55  1  0
 29 56  1  0
 30 57  1  0
 31 58  1  0
M  END
>  <smiles>  (32) 
O=C(NCC(=O)N1C[C@H](c2ccccc2)C[C@H]1c1ccccc1)c1ccc2ccccc2n1

>  <score_type>  (32) 
oracle

>  <origin>  (32) 
autodockgpu

>  <m_score__min__energy>  (32) 
-9.6400000000000006

>  <m_primary>  (32) 
energy

>  <rmsd>  (32) 
2.2999313068634377

>  <m_score__min__rmsd>  (32) 
2.2999313068634377

>  <meeko>  (32) 
{"free_energy": -9.36, "intermolecular_energy": -11.15, "internal_energy": -2.28, "cluster_size": 26, "cluster_id": 2, "rank_in_cluster": 7}

>  <energy>  (32) 
-8.63

>  <cluster_rmsd>  (32) 
0.5

>  <cluster>  (32) 
2

$$$$

     RDKit          3D

 58 62  0  0  0  0  0  0  0  0999 V2000
  140.6160   71.4840  221.3460 O   0  0  0  0  0  0  0  0  0  0  0  0
  140.2470   72.0010  222.4380 C   0  0  0  0  0  0  0  0  0  0  0  0
  139.8850   73.3920  222.4150 N   0  0  0  0  0  0  0  0  0  0  0  0
  139.9550   74.1160  221.1870 C   0  0  0  0  0  0  0  0  0  0  0  0
  140.4150   75.5340  221.4060 C   0  0  0  0  0  0  0  0  0  0  0  0
  140.0890   76.0400  222.5080 O   0  0  0  0  0  0  0  0  0  0  0  0
  141.1620   76.2220  220.4100 N   0  0  0  0  0  0  0  0  0  0  0  0
  141.3660   75.7130  219.0670 C   0  0  0  0  0  0  0  0  0  0  0  0
  141.4900   76.9940  218.2900 C   0  0  2  0  0  0  0  0  0  0  0  0
  142.4690   76.8850  217.1800 C   0  0  0  0  0  0  0  0  0  0  0  0
  143.5450   76.0130  217.2720 C   0  0  0  0  0  0  0  0  0  0  0  0
  144.4460   75.9240  216.2300 C   0  0  0  0  0  0  0  0  0  0  0  0
  144.3300   76.6730  215.0750 C   0  0  0  0  0  0  0  0  0  0  0  0
  143.2580   77.5420  214.9790 C   0  0  0  0  0  0  0  0  0  0  0  0
  142.3670   77.6280  216.0160 C   0  0  0  0  0  0  0  0  0  0  0  0
  141.8010   78.1080  219.2460 C   0  0  0  0  0  0  0  0  0  0  0  0
  141.8110   77.4930  220.5960 C   0  0  1  0  0  0  0  0  0  0  0  0
  141.1900   78.3390  221.6380 C   0  0  0  0  0  0  0  0  0  0  0  0
  139.9310   78.8640  221.5690 C   0  0  0  0  0  0  0  0  0  0  0  0
  139.3730   79.6560  222.5650 C   0  0  0  0  0  0  0  0  0  0  0  0
  140.1250   79.9360  223.6940 C   0  0  0  0  0  0  0  0  0  0  0  0
  141.4020   79.4240  223.8000 C   0  0  0  0  0  0  0  0  0  0  0  0
  141.9240   78.6400  222.7910 C   0  0  0  0  0  0  0  0  0  0  0  0
  140.1760   71.2630  223.6830 C   0  0  0  0  0  0  0  0  0  0  0  0
  139.6140   70.0030  223.6960 C   0  0  0  0  0  0  0  0  0  0  0  0
  139.5030   69.2300  224.8300 C   0  0  0  0  0  0  0  0  0  0  0  0
  140.0010   69.7950  226.0090 C   0  0  0  0  0  0  0  0  0  0  0  0
  139.9230   69.0740  227.1810 C   0  0  0  0  0  0  0  0  0  0  0  0
  140.4220   69.6550  228.3250 C   0  0  0  0  0  0  0  0  0  0  0  0
  140.9910   70.9180  228.3460 C   0  0  0  0  0  0  0  0  0  0  0  0
  141.0610   71.6240  227.1590 C   0  0  0  0  0  0  0  0  0  0  0  0
  140.5640   71.0530  225.9980 C   0  0  0  0  0  0  0  0  0  0  0  0
  140.6540   71.7880  224.8490 N   0  0  0  0  0  0  0  0  0  0  0  0
  139.5700   73.8890  223.2820 H   0  0  0  0  0  0  0  0  0  0  0  0
  140.6634   73.6105  220.5142 H   0  0  0  0  0  0  0  0  0  0  0  0
  138.9477   74.1447  220.7460 H   0  0  0  0  0  0  0  0  0  0  0  0
  142.2828   75.1090  218.9989 H   0  0  0  0  0  0  0  0  0  0  0  0
  140.5704   75.0420  218.7109 H   0  0  0  0  0  0  0  0  0  0  0  0
  140.5334   77.2173  217.7949 H   0  0  0  0  0  0  0  0  0  0  0  0
  143.6793   75.3951  218.1721 H   0  0  0  0  0  0  0  0  0  0  0  0
  145.2921   75.2273  216.3233 H   0  0  0  0  0  0  0  0  0  0  0  0
  145.0639   76.5816  214.2607 H   0  0  0  0  0  0  0  0  0  0  0  0
  143.1222   78.1584  214.0781 H   0  0  0  0  0  0  0  0  0  0  0  0
  141.5230   78.3267  215.9185 H   0  0  0  0  0  0  0  0  0  0  0  0
  142.7840   78.5454  219.0173 H   0  0  0  0  0  0  0  0  0  0  0  0
  141.0608   78.9188  219.1766 H   0  0  0  0  0  0  0  0  0  0  0  0
  142.8326   77.3725  220.9856 H   0  0  0  0  0  0  0  0  0  0  0  0
  139.3258   78.6480  220.6762 H   0  0  0  0  0  0  0  0  0  0  0  0
  138.3528   80.0533  222.4588 H   0  0  0  0  0  0  0  0  0  0  0  0
  139.7084   80.5603  224.4981 H   0  0  0  0  0  0  0  0  0  0  0  0
  142.0067   79.6417  224.6927 H   0  0  0  0  0  0  0  0  0  0  0  0
  142.9438   78.2413  222.8959 H   0  0  0  0  0  0  0  0  0  0  0  0
  139.2338   69.5936  222.7485 H   0  0  0  0  0  0  0  0  0  0  0  0
  139.0498   68.2279  224.8101 H   0  0  0  0  0  0  0  0  0  0  0  0
  139.4772   68.0686  227.2016 H   0  0  0  0  0  0  0  0  0  0  0  0
  140.3663   69.0897  229.2670 H   0  0  0  0  0  0  0  0  0  0  0  0
  141.3769   71.3478  229.2821 H   0  0  0  0  0  0  0  0  0  0  0  0
  141.5069   72.6293  227.1364 H   0  0  0  0  0  0  0  0  0  0  0  0
  1  2  2  0
  2  3  1  0
  3  4  1  0
  4  5  1  0
  5  6  2  0
  5  7  1  0
  7  8  1  0
  8  9  1  0
  9 10  1  0
 10 11  2  0
 11 12  1  0
 12 13  2  0
 13 14  1  0
 14 15  2  0
  9 16  1  0
 16 17  1  0
 17 18  1  0
 18 19  2  0
 19 20  1  0
 20 21  2  0
 21 22  1  0
 22 23  2  0
  2 24  1  0
 24 25  2  0
 25 26  1  0
 26 27  2  0
 27 28  1  0
 28 29  2  0
 29 30  1  0
 30 31  2  0
 31 32  1  0
 32 33  2  0
 17  7  1  0
 23 18  1  0
 33 24  1  0
 15 10  1  0
 32 27  1  0
  3 34  1  0
  4 35  1  0
  4 36  1  0
  8 37  1  0
  8 38  1  0
  9 39  1  6
 11 40  1  0
 12 41  1  0
 13 42  1  0
 14 43  1  0
 15 44  1  0
 16 45  1  0
 16 46  1  0
 17 47  1  1
 19 48  1  0
 20 49  1  0
 21 50  1  0
 22 51  1  0
 23 52  1  0
 25 53  1  0
 26 54  1  0
 28 55  1  0
 29 56  1  0
 30 57  1  0
 31 58  1  0
M  END
>  <smiles>  (33) 
O=C(NCC(=O)N1C[C@H](c2ccccc2)C[C@H]1c1ccccc1)c1ccc2ccccc2n1

>  <score_type>  (33) 
oracle

>  <origin>  (33) 
autodockgpu

>  <m_score__min__energy>  (33) 
-9.6400000000000006

>  <m_primary>  (33) 
energy

>  <rmsd>  (33) 
1.5661386452315793

>  <m_score__min__rmsd>  (33) 
1.5661386452315793

>  <meeko>  (33) 
{"free_energy": -9.27, "intermolecular_energy": -11.06, "internal_energy": -1.94, "cluster_size": 2, "cluster_id": 5, "rank_in_cluster": 1}

>  <energy>  (33) 
-9.42

>  <cluster_rmsd>  (33) 
0.0

>  <cluster>  (33) 
3

$$$$

     RDKit          3D

 58 62  0  0  0  0  0  0  0  0999 V2000
  140.4820   71.4400  221.2840 O   0  0  0  0  0  0  0  0  0  0  0  0
  140.1670   71.9980  222.3730 C   0  0  0  0  0  0  0  0  0  0  0  0
  139.8160   73.3910  222.3180 N   0  0  0  0  0  0  0  0  0  0  0  0
  139.8360   74.0720  221.0630 C   0  0  0  0  0  0  0  0  0  0  0  0
  138.8390   75.2000  221.0300 C   0  0  0  0  0  0  0  0  0  0  0  0
  137.8130   74.9900  220.3380 O   0  0  0  0  0  0  0  0  0  0  0  0
  139.0790   76.4070  221.7430 N   0  0  0  0  0  0  0  0  0  0  0  0
  140.2000   77.2870  221.4770 C   0  0  0  0  0  0  0  0  0  0  0  0
  139.6200   78.6190  221.8690 C   0  0  2  0  0  0  0  0  0  0  0  0
  140.6290   79.5070  222.4980 C   0  0  0  0  0  0  0  0  0  0  0  0
  140.6030   80.8760  222.2720 C   0  0  0  0  0  0  0  0  0  0  0  0
  141.5490   81.6870  222.8650 C   0  0  0  0  0  0  0  0  0  0  0  0
  142.5430   81.1970  223.6900 C   0  0  0  0  0  0  0  0  0  0  0  0
  142.5720   79.8320  223.9190 C   0  0  0  0  0  0  0  0  0  0  0  0
  141.6310   79.0310  223.3270 C   0  0  0  0  0  0  0  0  0  0  0  0
  138.4180   78.3830  222.7350 C   0  0  0  0  0  0  0  0  0  0  0  0
  138.2570   76.9100  222.8130 C   0  0  1  0  0  0  0  0  0  0  0  0
  136.8490   76.4630  222.7520 C   0  0  0  0  0  0  0  0  0  0  0  0
  136.3290   75.4210  223.4660 C   0  0  0  0  0  0  0  0  0  0  0  0
  135.0000   75.0240  223.3900 C   0  0  0  0  0  0  0  0  0  0  0  0
  134.1460   75.7130  222.5460 C   0  0  0  0  0  0  0  0  0  0  0  0
  134.6330   76.7720  221.8070 C   0  0  0  0  0  0  0  0  0  0  0  0
  135.9600   77.1400  221.9090 C   0  0  0  0  0  0  0  0  0  0  0  0
  140.1460   71.3050  223.6450 C   0  0  0  0  0  0  0  0  0  0  0  0
  139.6250   70.0290  223.7150 C   0  0  0  0  0  0  0  0  0  0  0  0
  139.5640   69.2950  224.8800 C   0  0  0  0  0  0  0  0  0  0  0  0
  140.0680   69.9180  226.0250 C   0  0  0  0  0  0  0  0  0  0  0  0
  140.0380   69.2380  227.2250 C   0  0  0  0  0  0  0  0  0  0  0  0
  140.5430   69.8760  228.3350 C   0  0  0  0  0  0  0  0  0  0  0  0
  141.0720   71.1550  228.2980 C   0  0  0  0  0  0  0  0  0  0  0  0
  141.0940   71.8190  227.0850 C   0  0  0  0  0  0  0  0  0  0  0  0
  140.5910   71.1920  225.9570 C   0  0  0  0  0  0  0  0  0  0  0  0
  140.6330   71.8860  224.7810 N   0  0  0  0  0  0  0  0  0  0  0  0
  139.5440   73.9210  223.1800 H   0  0  0  0  0  0  0  0  0  0  0  0
  140.8433   74.4805  220.8943 H   0  0  0  0  0  0  0  0  0  0  0  0
  139.5679   73.3519  220.2758 H   0  0  0  0  0  0  0  0  0  0  0  0
  141.0720   77.0285  222.0957 H   0  0  0  0  0  0  0  0  0  0  0  0
  140.5756   77.2427  220.4441 H   0  0  0  0  0  0  0  0  0  0  0  0
  139.2983   79.1600  220.9669 H   0  0  0  0  0  0  0  0  0  0  0  0
  139.8307   81.3133  221.6222 H   0  0  0  0  0  0  0  0  0  0  0  0
  141.5100   82.7694  222.6727 H   0  0  0  0  0  0  0  0  0  0  0  0
  143.2848   81.8675  224.1485 H   0  0  0  0  0  0  0  0  0  0  0  0
  143.3432   79.3945  224.5701 H   0  0  0  0  0  0  0  0  0  0  0  0
  141.6739   77.9491  223.5211 H   0  0  0  0  0  0  0  0  0  0  0  0
  138.5804   78.8040  223.7382 H   0  0  0  0  0  0  0  0  0  0  0  0
  137.5206   78.8664  222.3214 H   0  0  0  0  0  0  0  0  0  0  0  0
  138.5751   76.5126  223.7881 H   0  0  0  0  0  0  0  0  0  0  0  0
  136.9996   74.8657  224.1382 H   0  0  0  0  0  0  0  0  0  0  0  0
  134.6330   74.1778  223.9894 H   0  0  0  0  0  0  0  0  0  0  0  0
  133.0891   75.4192  222.4651 H   0  0  0  0  0  0  0  0  0  0  0  0
  133.9613   77.3251  221.1340 H   0  0  0  0  0  0  0  0  0  0  0  0
  136.3282   77.9874  221.3121 H   0  0  0  0  0  0  0  0  0  0  0  0
  139.2377   69.5734  222.7917 H   0  0  0  0  0  0  0  0  0  0  0  0
  139.1435   68.2789  224.9070 H   0  0  0  0  0  0  0  0  0  0  0  0
  139.6247   68.2208  227.2923 H   0  0  0  0  0  0  0  0  0  0  0  0
  140.5255   69.3443  229.2978 H   0  0  0  0  0  0  0  0  0  0  0  0
  141.4643   71.6303  229.2091 H   0  0  0  0  0  0  0  0  0  0  0  0
  141.5073   72.8361  227.0167 H   0  0  0  0  0  0  0  0  0  0  0  0
  1  2  2  0
  2  3  1  0
  3  4  1  0
  4  5  1  0
  5  6  2  0
  5  7  1  0
  7  8  1  0
  8  9  1  0
  9 10  1  0
 10 11  2  0
 11 12  1  0
 12 13  2  0
 13 14  1  0
 14 15  2  0
  9 16  1  0
 16 17  1  0
 17 18  1  0
 18 19  2  0
 19 20  1  0
 20 21  2  0
 21 22  1  0
 22 23  2  0
  2 24  1  0
 24 25  2  0
 25 26  1  0
 26 27  2  0
 27 28  1  0
 28 29  2  0
 29 30  1  0
 30 31  2  0
 31 32  1  0
 32 33  2  0
 17  7  1  0
 23 18  1  0
 33 24  1  0
 15 10  1  0
 32 27  1  0
  3 34  1  0
  4 35  1  0
  4 36  1  0
  8 37  1  0
  8 38  1  0
  9 39  1  6
 11 40  1  0
 12 41  1  0
 13 42  1  0
 14 43  1  0
 15 44  1  0
 16 45  1  0
 16 46  1  0
 17 47  1  1
 19 48  1  0
 20 49  1  0
 21 50  1  0
 22 51  1  0
 23 52  1  0
 25 53  1  0
 26 54  1  0
 28 55  1  0
 29 56  1  0
 30 57  1  0
 31 58  1  0
M  END
>  <smiles>  (34) 
O=C(NCC(=O)N1C[C@H](c2ccccc2)C[C@H]1c1ccccc1)c1ccc2ccccc2n1

>  <score_type>  (34) 
oracle

>  <origin>  (34) 
autodockgpu

>  <m_score__min__energy>  (34) 
-9.6400000000000006

>  <m_primary>  (34) 
energy

>  <rmsd>  (34) 
3.145011887864974

>  <m_score__min__rmsd>  (34) 
3.145011887864974

>  <meeko>  (34) 
{"free_energy": -9.39, "intermolecular_energy": -11.18, "internal_energy": -1.85, "cluster_size": 6, "cluster_id": 1, "rank_in_cluster": 4}

>  <energy>  (34) 
-9.19

>  <cluster_rmsd>  (34) 
0.24

>  <cluster>  (34) 
3

$$$$

     RDKit          3D

 58 62  0  0  0  0  0  0  0  0999 V2000
  140.8350   71.4350  221.3300 O   0  0  0  0  0  0  0  0  0  0  0  0
  140.4070   72.0120  222.3690 C   0  0  0  0  0  0  0  0  0  0  0  0
  140.0940   73.4110  222.2610 N   0  0  0  0  0  0  0  0  0  0  0  0
  140.2750   74.0760  221.0110 C   0  0  0  0  0  0  0  0  0  0  0  0
  140.9230   75.4240  221.1910 C   0  0  0  0  0  0  0  0  0  0  0  0
  140.9010   75.8800  222.3600 O   0  0  0  0  0  0  0  0  0  0  0  0
  141.5080   76.1060  220.0870 N   0  0  0  0  0  0  0  0  0  0  0  0
  141.2130   77.4850  219.7490 C   0  0  0  0  0  0  0  0  0  0  0  0
  142.5080   77.9080  219.1130 C   0  0  2  0  0  0  0  0  0  0  0  0
  142.2980   78.8530  217.9880 C   0  0  0  0  0  0  0  0  0  0  0  0
  142.4050   80.2230  218.1880 C   0  0  0  0  0  0  0  0  0  0  0  0
  142.2070   81.0880  217.1300 C   0  0  0  0  0  0  0  0  0  0  0  0
  141.9010   80.6510  215.8560 C   0  0  0  0  0  0  0  0  0  0  0  0
  141.7950   79.2870  215.6520 C   0  0  0  0  0  0  0  0  0  0  0  0
  141.9920   78.4330  216.7050 C   0  0  0  0  0  0  0  0  0  0  0  0
  143.2740   76.6800  218.7180 C   0  0  0  0  0  0  0  0  0  0  0  0
  142.4530   75.5290  219.1680 C   0  0  1  0  0  0  0  0  0  0  0  0
  143.2480   74.4200  219.7390 C   0  0  0  0  0  0  0  0  0  0  0  0
  142.9190   73.0970  219.6500 C   0  0  0  0  0  0  0  0  0  0  0  0
  143.6870   72.0760  220.1960 C   0  0  0  0  0  0  0  0  0  0  0  0
  144.8510   72.4040  220.8690 C   0  0  0  0  0  0  0  0  0  0  0  0
  145.2180   73.7300  220.9810 C   0  0  0  0  0  0  0  0  0  0  0  0
  144.4310   74.7190  220.4260 C   0  0  0  0  0  0  0  0  0  0  0  0
  140.2230   71.3340  223.6370 C   0  0  0  0  0  0  0  0  0  0  0  0
  139.5760   70.1150  223.6680 C   0  0  0  0  0  0  0  0  0  0  0  0
  139.3560   69.4000  224.8250 C   0  0  0  0  0  0  0  0  0  0  0  0
  139.8320   69.9800  226.0050 C   0  0  0  0  0  0  0  0  0  0  0  0
  139.6450   69.3160  227.1990 C   0  0  0  0  0  0  0  0  0  0  0  0
  140.1250   69.9110  228.3440 C   0  0  0  0  0  0  0  0  0  0  0  0
  140.7780   71.1320  228.3460 C   0  0  0  0  0  0  0  0  0  0  0  0
  140.9560   71.7810  227.1380 C   0  0  0  0  0  0  0  0  0  0  0  0
  140.4800   71.1960  225.9750 C   0  0  0  0  0  0  0  0  0  0  0  0
  140.6770   71.8740  224.8050 N   0  0  0  0  0  0  0  0  0  0  0  0
  139.7350   73.9560  223.0800 H   0  0  0  0  0  0  0  0  0  0  0  0
  140.9141   73.4556  220.3654 H   0  0  0  0  0  0  0  0  0  0  0  0
  139.2858   74.2270  220.5542 H   0  0  0  0  0  0  0  0  0  0  0  0
  140.3734   77.5569  219.0420 H   0  0  0  0  0  0  0  0  0  0  0  0
  140.9037   78.1050  220.6033 H   0  0  0  0  0  0  0  0  0  0  0  0
  143.1079   78.4724  219.8421 H   0  0  0  0  0  0  0  0  0  0  0  0
  142.6467   80.6178  219.1859 H   0  0  0  0  0  0  0  0  0  0  0  0
  142.2967   82.1696  217.3092 H   0  0  0  0  0  0  0  0  0  0  0  0
  141.7469   81.3632  215.0319 H   0  0  0  0  0  0  0  0  0  0  0  0
  141.5548   78.8918  214.6539 H   0  0  0  0  0  0  0  0  0  0  0  0
  141.9019   77.3523  216.5205 H   0  0  0  0  0  0  0  0  0  0  0  0
  143.4118   76.6489  217.6271 H   0  0  0  0  0  0  0  0  0  0  0  0
  144.2759   76.6645  219.1718 H   0  0  0  0  0  0  0  0  0  0  0  0
  141.9472   75.0314  218.3274 H   0  0  0  0  0  0  0  0  0  0  0  0
  141.9959   72.8254  219.1171 H   0  0  0  0  0  0  0  0  0  0  0  0
  143.3755   71.0259  220.0952 H   0  0  0  0  0  0  0  0  0  0  0  0
  145.4779   71.6153  221.3106 H   0  0  0  0  0  0  0  0  0  0  0  0
  146.1413   73.9996  221.5147 H   0  0  0  0  0  0  0  0  0  0  0  0
  144.7413   75.7696  220.5260 H   0  0  0  0  0  0  0  0  0  0  0  0
  139.2169   69.6919  222.7183 H   0  0  0  0  0  0  0  0  0  0  0  0
  138.8367   68.4303  224.8207 H   0  0  0  0  0  0  0  0  0  0  0  0
  139.1302   68.3446  227.2354 H   0  0  0  0  0  0  0  0  0  0  0  0
  139.9830   69.3915  229.3032 H   0  0  0  0  0  0  0  0  0  0  0  0
  141.1455   71.5741  229.2838 H   0  0  0  0  0  0  0  0  0  0  0  0
  141.4706   72.7525  227.1003 H   0  0  0  0  0  0  0  0  0  0  0  0
  1  2  2  0
  2  3  1  0
  3  4  1  0
  4  5  1  0
  5  6  2  0
  5  7  1  0
  7  8  1  0
  8  9  1  0
  9 10  1  0
 10 11  2  0
 11 12  1  0
 12 13  2  0
 13 14  1  0
 14 15  2  0
  9 16  1  0
 16 17  1  0
 17 18  1  0
 18 19  2  0
 19 20  1  0
 20 21  2  0
 21 22  1  0
 22 23  2  0
  2 24  1  0
 24 25  2  0
 25 26  1  0
 26 27  2  0
 27 28  1  0
 28 29  2  0
 29 30  1  0
 30 31  2  0
 31 32  1  0
 32 33  2  0
 17  7  1  0
 23 18  1  0
 33 24  1  0
 15 10  1  0
 32 27  1  0
  3 34  1  0
  4 35  1  0
  4 36  1  0
  8 37  1  0
  8 38  1  0
  9 39  1  1
 11 40  1  0
 12 41  1  0
 13 42  1  0
 14 43  1  0
 15 44  1  0
 16 45  1  0
 16 46  1  0
 17 47  1  6
 19 48  1  0
 20 49  1  0
 21 50  1  0
 22 51  1  0
 23 52  1  0
 25 53  1  0
 26 54  1  0
 28 55  1  0
 29 56  1  0
 30 57  1  0
 31 58  1  0
M  END
>  <smiles>  (35) 
O=C(NCC(=O)N1C[C@H](c2ccccc2)C[C@H]1c1ccccc1)c1ccc2ccccc2n1

>  <score_type>  (35) 
oracle

>  <origin>  (35) 
autodockgpu

>  <m_score__min__energy>  (35) 
-9.6400000000000006

>  <m_primary>  (35) 
energy

>  <rmsd>  (35) 
2.3488547236916024

>  <m_score__min__rmsd>  (35) 
2.3488547236916024

>  <meeko>  (35) 
{"free_energy": -9.36, "intermolecular_energy": -11.15, "internal_energy": -2.38, "cluster_size": 26, "cluster_id": 2, "rank_in_cluster": 8}

>  <energy>  (35) 
-9.3

>  <cluster_rmsd>  (35) 
0.0

>  <cluster>  (35) 
4

$$$$

     RDKit          3D

 58 62  0  0  0  0  0  0  0  0999 V2000
  139.8900   71.1690  221.2340 O   0  0  0  0  0  0  0  0  0  0  0  0
  139.6870   71.7920  222.3140 C   0  0  0  0  0  0  0  0  0  0  0  0
  139.2790   73.1680  222.2100 N   0  0  0  0  0  0  0  0  0  0  0  0
  139.1240   73.7590  220.9210 C   0  0  0  0  0  0  0  0  0  0  0  0
  138.3020   75.0200  220.9850 C   0  0  0  0  0  0  0  0  0  0  0  0
  137.2110   74.9830  220.3650 O   0  0  0  0  0  0  0  0  0  0  0  0
  138.7640   76.1560  221.7060 N   0  0  0  0  0  0  0  0  0  0  0  0
  139.9230   76.9360  221.3170 C   0  0  0  0  0  0  0  0  0  0  0  0
  139.5460   78.2930  221.8440 C   0  0  2  0  0  0  0  0  0  0  0  0
  140.7200   79.0420  222.3570 C   0  0  0  0  0  0  0  0  0  0  0  0
  141.0760   78.9660  223.6960 C   0  0  0  0  0  0  0  0  0  0  0  0
  142.1720   79.6690  224.1560 C   0  0  0  0  0  0  0  0  0  0  0  0
  142.9500   80.4600  223.3340 C   0  0  0  0  0  0  0  0  0  0  0  0
  142.6000   80.5380  221.9980 C   0  0  0  0  0  0  0  0  0  0  0  0
  141.5110   79.8390  221.5470 C   0  0  0  0  0  0  0  0  0  0  0  0
  138.4590   78.1270  222.8650 C   0  0  0  0  0  0  0  0  0  0  0  0
  138.1570   76.6750  222.9030 C   0  0  1  0  0  0  0  0  0  0  0  0
  136.7150   76.3720  223.0280 C   0  0  0  0  0  0  0  0  0  0  0  0
  136.1950   75.3460  223.7650 C   0  0  0  0  0  0  0  0  0  0  0  0
  134.8330   75.0850  223.8650 C   0  0  0  0  0  0  0  0  0  0  0  0
  133.9460   75.9030  223.1850 C   0  0  0  0  0  0  0  0  0  0  0  0
  134.4330   76.9500  222.4310 C   0  0  0  0  0  0  0  0  0  0  0  0
  135.7920   77.1800  222.3540 C   0  0  0  0  0  0  0  0  0  0  0  0
  139.8440   71.1900  223.6220 C   0  0  0  0  0  0  0  0  0  0  0  0
  139.4530   69.8810  223.8190 C   0  0  0  0  0  0  0  0  0  0  0  0
  139.5650   69.2270  225.0260 C   0  0  0  0  0  0  0  0  0  0  0  0
  140.1090   69.9690  226.0790 C   0  0  0  0  0  0  0  0  0  0  0  0
  140.2500   69.3740  227.3150 C   0  0  0  0  0  0  0  0  0  0  0  0
  140.7890   70.1300  228.3310 C   0  0  0  0  0  0  0  0  0  0  0  0
  141.1900   71.4450  228.1660 C   0  0  0  0  0  0  0  0  0  0  0  0
  141.0420   72.0230  226.9190 C   0  0  0  0  0  0  0  0  0  0  0  0
  140.5010   71.2770  225.8840 C   0  0  0  0  0  0  0  0  0  0  0  0
  140.3730   71.8890  224.6690 N   0  0  0  0  0  0  0  0  0  0  0  0
  139.0920   73.7480  223.0620 H   0  0  0  0  0  0  0  0  0  0  0  0
  140.1182   74.0009  220.5172 H   0  0  0  0  0  0  0  0  0  0  0  0
  138.6015   73.0399  220.2731 H   0  0  0  0  0  0  0  0  0  0  0  0
  140.8412   76.5592  221.7914 H   0  0  0  0  0  0  0  0  0  0  0  0
  140.1439   76.9134  220.2396 H   0  0  0  0  0  0  0  0  0  0  0  0
  139.1595   78.9121  221.0210 H   0  0  0  0  0  0  0  0  0  0  0  0
  140.4869   78.3475  224.3891 H   0  0  0  0  0  0  0  0  0  0  0  0
  142.4362   79.5958  225.2213 H   0  0  0  0  0  0  0  0  0  0  0  0
  143.8180   81.0091  223.7279 H   0  0  0  0  0  0  0  0  0  0  0  0
  143.1901   81.1551  221.3044 H   0  0  0  0  0  0  0  0  0  0  0  0
  141.2505   79.9154  220.4810 H   0  0  0  0  0  0  0  0  0  0  0  0
  138.8038   78.4723  223.8509 H   0  0  0  0  0  0  0  0  0  0  0  0
  137.5683   78.7187  222.6073 H   0  0  0  0  0  0  0  0  0  0  0  0
  138.5647   76.1934  223.8040 H   0  0  0  0  0  0  0  0  0  0  0  0
  136.8915   74.6909  224.3087 H   0  0  0  0  0  0  0  0  0  0  0  0
  134.4667   74.2445  224.4728 H   0  0  0  0  0  0  0  0  0  0  0  0
  132.8632   75.7193  223.2458 H   0  0  0  0  0  0  0  0  0  0  0  0
  133.7353   77.6049  221.8884 H   0  0  0  0  0  0  0  0  0  0  0  0
  136.1592   78.0206  221.7469 H   0  0  0  0  0  0  0  0  0  0  0  0
  139.0292   69.3305  222.9662 H   0  0  0  0  0  0  0  0  0  0  0  0
  139.2453   68.1823  225.1541 H   0  0  0  0  0  0  0  0  0  0  0  0
  139.9424   68.3314  227.4831 H   0  0  0  0  0  0  0  0  0  0  0  0
  140.9069   69.6672  229.3219 H   0  0  0  0  0  0  0  0  0  0  0  0
  141.6152   72.0149  229.0053 H   0  0  0  0  0  0  0  0  0  0  0  0
  141.3507   73.0652  226.7499 H   0  0  0  0  0  0  0  0  0  0  0  0
  1  2  2  0
  2  3  1  0
  3  4  1  0
  4  5  1  0
  5  6  2  0
  5  7  1  0
  7  8  1  0
  8  9  1  0
  9 10  1  0
 10 11  2  0
 11 12  1  0
 12 13  2  0
 13 14  1  0
 14 15  2  0
  9 16  1  0
 16 17  1  0
 17 18  1  0
 18 19  2  0
 19 20  1  0
 20 21  2  0
 21 22  1  0
 22 23  2  0
  2 24  1  0
 24 25  2  0
 25 26  1  0
 26 27  2  0
 27 28  1  0
 28 29  2  0
 29 30  1  0
 30 31  2  0
 31 32  1  0
 32 33  2  0
 17  7  1  0
 23 18  1  0
 33 24  1  0
 15 10  1  0
 32 27  1  0
  3 34  1  0
  4 35  1  0
  4 36  1  0
  8 37  1  0
  8 38  1  0
  9 39  1  6
 11 40  1  0
 12 41  1  0
 13 42  1  0
 14 43  1  0
 15 44  1  0
 16 45  1  0
 16 46  1  0
 17 47  1  1
 19 48  1  0
 20 49  1  0
 21 50  1  0
 22 51  1  0
 23 52  1  0
 25 53  1  0
 26 54  1  0
 28 55  1  0
 29 56  1  0
 30 57  1  0
 31 58  1  0
M  END
>  <smiles>  (36) 
O=C(NCC(=O)N1C[C@H](c2ccccc2)C[C@H]1c1ccccc1)c1ccc2ccccc2n1

>  <score_type>  (36) 
oracle

>  <origin>  (36) 
autodockgpu

>  <m_score__min__energy>  (36) 
-9.6400000000000006

>  <m_primary>  (36) 
energy

>  <rmsd>  (36) 
3.0426018128759638

>  <m_score__min__rmsd>  (36) 
3.0426018128759638

>  <meeko>  (36) 
{"free_energy": -9.35, "intermolecular_energy": -11.14, "internal_energy": -1.9, "cluster_size": 6, "cluster_id": 1, "rank_in_cluster": 5}

>  <energy>  (36) 
-8.93

>  <cluster_rmsd>  (36) 
0.96

>  <cluster>  (36) 
4

$$$$

     RDKit          3D

 58 62  0  0  0  0  0  0  0  0999 V2000
  137.8280   75.5550  220.0400 O   0  0  0  0  0  0  0  0  0  0  0  0
  138.4500   75.8060  221.1100 C   0  0  0  0  0  0  0  0  0  0  0  0
  138.1610   74.9750  222.2480 N   0  0  0  0  0  0  0  0  0  0  0  0
  137.2030   73.9230  222.1230 C   0  0  0  0  0  0  0  0  0  0  0  0
  137.8720   72.5850  221.9410 C   0  0  0  0  0  0  0  0  0  0  0  0
  137.5820   71.9800  220.8800 O   0  0  0  0  0  0  0  0  0  0  0  0
  138.7620   72.0740  222.9250 N   0  0  0  0  0  0  0  0  0  0  0  0
  138.3610   71.1450  223.9640 C   0  0  0  0  0  0  0  0  0  0  0  0
  139.6450   70.3940  224.1880 C   0  0  2  0  0  0  0  0  0  0  0  0
  139.8370   70.0240  225.6130 C   0  0  0  0  0  0  0  0  0  0  0  0
  140.2920   70.9620  226.5300 C   0  0  0  0  0  0  0  0  0  0  0  0
  140.4650   70.6010  227.8510 C   0  0  0  0  0  0  0  0  0  0  0  0
  140.2030   69.3280  228.3180 C   0  0  0  0  0  0  0  0  0  0  0  0
  139.7480   68.3900  227.4070 C   0  0  0  0  0  0  0  0  0  0  0  0
  139.5790   68.7530  226.0970 C   0  0  0  0  0  0  0  0  0  0  0  0
  140.7790   71.2020  223.6290 C   0  0  0  0  0  0  0  0  0  0  0  0
  140.1590   72.4080  223.0270 C   0  0  1  0  0  0  0  0  0  0  0  0
  140.7750   72.8160  221.7460 C   0  0  0  0  0  0  0  0  0  0  0  0
  140.9450   71.9970  220.6660 C   0  0  0  0  0  0  0  0  0  0  0  0
  141.5280   72.4090  219.4740 C   0  0  0  0  0  0  0  0  0  0  0  0
  141.9650   73.7180  219.3620 C   0  0  0  0  0  0  0  0  0  0  0  0
  141.8110   74.5760  220.4320 C   0  0  0  0  0  0  0  0  0  0  0  0
  141.2270   74.1330  221.6020 C   0  0  0  0  0  0  0  0  0  0  0  0
  139.4230   76.8730  221.2340 C   0  0  0  0  0  0  0  0  0  0  0  0
  139.8740   77.5160  220.0990 C   0  0  0  0  0  0  0  0  0  0  0  0
  140.7960   78.5400  220.1210 C   0  0  0  0  0  0  0  0  0  0  0  0
  141.2710   78.9120  221.3820 C   0  0  0  0  0  0  0  0  0  0  0  0
  142.1950   79.9310  221.4750 C   0  0  0  0  0  0  0  0  0  0  0  0
  142.6440   80.2760  222.7300 C   0  0  0  0  0  0  0  0  0  0  0  0
  142.2110   79.6500  223.8870 C   0  0  0  0  0  0  0  0  0  0  0  0
  141.2830   78.6310  223.7720 C   0  0  0  0  0  0  0  0  0  0  0  0
  140.8200   78.2710  222.5170 C   0  0  0  0  0  0  0  0  0  0  0  0
  139.9040   77.2600  222.4520 N   0  0  0  0  0  0  0  0  0  0  0  0
  138.6370   75.1230  223.1680 H   0  0  0  0  0  0  0  0  0  0  0  0
  136.5848   73.8927  223.0324 H   0  0  0  0  0  0  0  0  0  0  0  0
  136.5848   74.1231  221.2355 H   0  0  0  0  0  0  0  0  0  0  0  0
  138.0369   71.6716  224.8738 H   0  0  0  0  0  0  0  0  0  0  0  0
  137.5039   70.5089  223.6977 H   0  0  0  0  0  0  0  0  0  0  0  0
  139.6066   69.4331  223.6539 H   0  0  0  0  0  0  0  0  0  0  0  0
  140.5138   71.9892  226.2049 H   0  0  0  0  0  0  0  0  0  0  0  0
  140.8266   71.3589  228.5614 H   0  0  0  0  0  0  0  0  0  0  0  0
  140.3507   69.0684  229.3767 H   0  0  0  0  0  0  0  0  0  0  0  0
  139.5244   67.3632  227.7320 H   0  0  0  0  0  0  0  0  0  0  0  0
  139.2179   67.9917  225.3899 H   0  0  0  0  0  0  0  0  0  0  0  0
  141.4759   71.4892  224.4301 H   0  0  0  0  0  0  0  0  0  0  0  0
  141.3556   70.6304  222.8869 H   0  0  0  0  0  0  0  0  0  0  0  0
  140.3171   73.3036  223.6458 H   0  0  0  0  0  0  0  0  0  0  0  0
  140.6018   70.9549  220.7443 H   0  0  0  0  0  0  0  0  0  0  0  0
  141.6404   71.7076  218.6341 H   0  0  0  0  0  0  0  0  0  0  0  0
  142.4302   74.0706  218.4296 H   0  0  0  0  0  0  0  0  0  0  0  0
  142.1552   75.6177  220.3523 H   0  0  0  0  0  0  0  0  0  0  0  0
  141.1140   74.8331  222.4429 H   0  0  0  0  0  0  0  0  0  0  0  0
  139.4764   77.1940  219.1252 H   0  0  0  0  0  0  0  0  0  0  0  0
  141.1381   79.0355  219.2004 H   0  0  0  0  0  0  0  0  0  0  0  0
  142.5610   80.4506  220.5772 H   0  0  0  0  0  0  0  0  0  0  0  0
  143.3816   81.0873  222.8179 H   0  0  0  0  0  0  0  0  0  0  0  0
  142.5951   79.9552  224.8715 H   0  0  0  0  0  0  0  0  0  0  0  0
  140.9158   78.1110  224.6691 H   0  0  0  0  0  0  0  0  0  0  0  0
  1  2  2  0
  2  3  1  0
  3  4  1  0
  4  5  1  0
  5  6  2  0
  5  7  1  0
  7  8  1  0
  8  9  1  0
  9 10  1  0
 10 11  2  0
 11 12  1  0
 12 13  2  0
 13 14  1  0
 14 15  2  0
  9 16  1  0
 16 17  1  0
 17 18  1  0
 18 19  2  0
 19 20  1  0
 20 21  2  0
 21 22  1  0
 22 23  2  0
  2 24  1  0
 24 25  2  0
 25 26  1  0
 26 27  2  0
 27 28  1  0
 28 29  2  0
 29 30  1  0
 30 31  2  0
 31 32  1  0
 32 33  2  0
 17  7  1  0
 23 18  1  0
 33 24  1  0
 15 10  1  0
 32 27  1  0
  3 34  1  0
  4 35  1  0
  4 36  1  0
  8 37  1  0
  8 38  1  0
  9 39  1  6
 11 40  1  0
 12 41  1  0
 13 42  1  0
 14 43  1  0
 15 44  1  0
 16 45  1  0
 16 46  1  0
 17 47  1  1
 19 48  1  0
 20 49  1  0
 21 50  1  0
 22 51  1  0
 23 52  1  0
 25 53  1  0
 26 54  1  0
 28 55  1  0
 29 56  1  0
 30 57  1  0
 31 58  1  0
M  END
>  <smiles>  (37) 
O=C(NCC(=O)N1C[C@H](c2ccccc2)C[C@H]1c1ccccc1)c1ccc2ccccc2n1

>  <score_type>  (37) 
oracle

>  <origin>  (37) 
autodockgpu

>  <m_score__min__energy>  (37) 
-9.6400000000000006

>  <m_primary>  (37) 
energy

>  <rmsd>  (37) 
7.981473193153893

>  <m_score__min__rmsd>  (37) 
7.981473193153893

>  <meeko>  (37) 
{"free_energy": -8.37, "intermolecular_energy": -10.16, "internal_energy": -2.79, "cluster_size": 8, "cluster_id": 7, "rank_in_cluster": 6}

>  <energy>  (37) 
-8.85

>  <cluster_rmsd>  (37) 
0.85

>  <cluster>  (37) 
4

$$$$

     RDKit          3D

 58 62  0  0  0  0  0  0  0  0999 V2000
  140.7700   71.5840  221.2280 O   0  0  0  0  0  0  0  0  0  0  0  0
  140.3350   72.1090  222.2910 C   0  0  0  0  0  0  0  0  0  0  0  0
  139.9720   73.5000  222.2340 N   0  0  0  0  0  0  0  0  0  0  0  0
  140.1130   74.2120  221.0060 C   0  0  0  0  0  0  0  0  0  0  0  0
  140.9900   75.4260  221.1680 C   0  0  0  0  0  0  0  0  0  0  0  0
  141.1700   75.8060  222.3510 O   0  0  0  0  0  0  0  0  0  0  0  0
  141.5590   76.0730  220.0350 N   0  0  0  0  0  0  0  0  0  0  0  0
  141.2310   77.4280  219.6380 C   0  0  0  0  0  0  0  0  0  0  0  0
  142.5160   77.8540  218.9820 C   0  0  2  0  0  0  0  0  0  0  0  0
  142.2830   78.7440  217.8170 C   0  0  0  0  0  0  0  0  0  0  0  0
  141.9870   78.2120  216.5700 C   0  0  0  0  0  0  0  0  0  0  0  0
  141.7740   79.0540  215.4980 C   0  0  0  0  0  0  0  0  0  0  0  0
  141.8390   80.4300  215.6040 C   0  0  0  0  0  0  0  0  0  0  0  0
  142.1320   80.9650  216.8460 C   0  0  0  0  0  0  0  0  0  0  0  0
  142.3450   80.1240  217.9070 C   0  0  0  0  0  0  0  0  0  0  0  0
  143.3100   76.6280  218.6400 C   0  0  0  0  0  0  0  0  0  0  0  0
  142.5170   75.4790  219.1410 C   0  0  1  0  0  0  0  0  0  0  0  0
  143.3380   74.4150  219.7580 C   0  0  0  0  0  0  0  0  0  0  0  0
  144.5090   74.6240  220.4300 C   0  0  0  0  0  0  0  0  0  0  0  0
  145.2600   73.6050  221.0010 C   0  0  0  0  0  0  0  0  0  0  0  0
  144.8080   72.3010  220.8890 C   0  0  0  0  0  0  0  0  0  0  0  0
  143.6300   72.0480  220.2180 C   0  0  0  0  0  0  0  0  0  0  0  0
  142.9090   73.0870  219.6630 C   0  0  0  0  0  0  0  0  0  0  0  0
  140.1920   71.3830  223.5370 C   0  0  0  0  0  0  0  0  0  0  0  0
  139.5220   70.1770  223.5470 C   0  0  0  0  0  0  0  0  0  0  0  0
  139.3380   69.4190  224.6820 C   0  0  0  0  0  0  0  0  0  0  0  0
  139.8750   69.9400  225.8630 C   0  0  0  0  0  0  0  0  0  0  0  0
  139.7260   69.2310  227.0360 C   0  0  0  0  0  0  0  0  0  0  0  0
  140.2670   69.7690  228.1820 C   0  0  0  0  0  0  0  0  0  0  0  0
  140.9440   70.9760  228.2050 C   0  0  0  0  0  0  0  0  0  0  0  0
  141.0830   71.6720  227.0180 C   0  0  0  0  0  0  0  0  0  0  0  0
  140.5450   71.1440  225.8550 C   0  0  0  0  0  0  0  0  0  0  0  0
  140.7070   71.8660  224.7060 N   0  0  0  0  0  0  0  0  0  0  0  0
  139.6040   74.0030  223.0760 H   0  0  0  0  0  0  0  0  0  0  0  0
  140.5619   73.5446  220.2556 H   0  0  0  0  0  0  0  0  0  0  0  0
  139.1156   74.5476  220.6857 H   0  0  0  0  0  0  0  0  0  0  0  0
  140.3896   77.4490  218.9298 H   0  0  0  0  0  0  0  0  0  0  0  0
  140.9072   78.0770  220.4650 H   0  0  0  0  0  0  0  0  0  0  0  0
  143.1029   78.4640  219.6844 H   0  0  0  0  0  0  0  0  0  0  0  0
  141.9224   77.1220  216.4366 H   0  0  0  0  0  0  0  0  0  0  0  0
  141.5428   78.6113  214.5179 H   0  0  0  0  0  0  0  0  0  0  0  0
  141.6640   81.0773  214.7320 H   0  0  0  0  0  0  0  0  0  0  0  0
  142.1934   82.0550  216.9805 H   0  0  0  0  0  0  0  0  0  0  0  0
  142.5783   80.5706  218.8848 H   0  0  0  0  0  0  0  0  0  0  0  0
  143.4478   76.5524  217.5513 H   0  0  0  0  0  0  0  0  0  0  0  0
  144.3121   76.6558  219.0927 H   0  0  0  0  0  0  0  0  0  0  0  0
  142.0227   74.9333  218.3238 H   0  0  0  0  0  0  0  0  0  0  0  0
  144.8772   75.6563  220.5239 H   0  0  0  0  0  0  0  0  0  0  0  0
  146.1966   73.8296  221.5324 H   0  0  0  0  0  0  0  0  0  0  0  0
  145.3833   71.4743  221.3313 H   0  0  0  0  0  0  0  0  0  0  0  0
  143.2634   71.0151  220.1245 H   0  0  0  0  0  0  0  0  0  0  0  0
  141.9719   72.8642  219.1318 H   0  0  0  0  0  0  0  0  0  0  0  0
  139.1129   69.8008  222.5977 H   0  0  0  0  0  0  0  0  0  0  0  0
  138.8000   68.4598  224.6606 H   0  0  0  0  0  0  0  0  0  0  0  0
  139.1933   68.2688  227.0556 H   0  0  0  0  0  0  0  0  0  0  0  0
  140.1559   69.2129  229.1246 H   0  0  0  0  0  0  0  0  0  0  0  0
  141.3607   71.3714  229.1431 H   0  0  0  0  0  0  0  0  0  0  0  0
  141.6150   72.6346  226.9972 H   0  0  0  0  0  0  0  0  0  0  0  0
  1  2  2  0
  2  3  1  0
  3  4  1  0
  4  5  1  0
  5  6  2  0
  5  7  1  0
  7  8  1  0
  8  9  1  0
  9 10  1  0
 10 11  2  0
 11 12  1  0
 12 13  2  0
 13 14  1  0
 14 15  2  0
  9 16  1  0
 16 17  1  0
 17 18  1  0
 18 19  2  0
 19 20  1  0
 20 21  2  0
 21 22  1  0
 22 23  2  0
  2 24  1  0
 24 25  2  0
 25 26  1  0
 26 27  2  0
 27 28  1  0
 28 29  2  0
 29 30  1  0
 30 31  2  0
 31 32  1  0
 32 33  2  0
 17  7  1  0
 23 18  1  0
 33 24  1  0
 15 10  1  0
 32 27  1  0
  3 34  1  0
  4 35  1  0
  4 36  1  0
  8 37  1  0
  8 38  1  0
  9 39  1  1
 11 40  1  0
 12 41  1  0
 13 42  1  0
 14 43  1  0
 15 44  1  0
 16 45  1  0
 16 46  1  0
 17 47  1  6
 19 48  1  0
 20 49  1  0
 21 50  1  0
 22 51  1  0
 23 52  1  0
 25 53  1  0
 26 54  1  0
 28 55  1  0
 29 56  1  0
 30 57  1  0
 31 58  1  0
M  END
>  <smiles>  (38) 
O=C(NCC(=O)N1C[C@H](c2ccccc2)C[C@H]1c1ccccc1)c1ccc2ccccc2n1

>  <score_type>  (38) 
oracle

>  <origin>  (38) 
autodockgpu

>  <m_score__min__energy>  (38) 
-9.6400000000000006

>  <m_primary>  (38) 
energy

>  <rmsd>  (38) 
2.300620518325658

>  <m_score__min__rmsd>  (38) 
2.300620518325658

>  <meeko>  (38) 
{"free_energy": -9.28, "intermolecular_energy": -11.07, "internal_energy": -2.31, "cluster_size": 26, "cluster_id": 2, "rank_in_cluster": 23}

>  <energy>  (38) 
-9.27

>  <cluster_rmsd>  (38) 
0.0

>  <cluster>  (38) 
5

$$$$

     RDKit          3D

 58 62  0  0  0  0  0  0  0  0999 V2000
  137.8150   75.6570  222.4250 O   0  0  0  0  0  0  0  0  0  0  0  0
  139.0290   76.0000  222.3620 C   0  0  0  0  0  0  0  0  0  0  0  0
  139.9790   74.9850  221.9950 N   0  0  0  0  0  0  0  0  0  0  0  0
  139.5220   73.6610  221.7220 C   0  0  0  0  0  0  0  0  0  0  0  0
  140.5650   72.6320  222.0720 C   0  0  0  0  0  0  0  0  0  0  0  0
  141.6760   72.7780  221.5040 O   0  0  0  0  0  0  0  0  0  0  0  0
  140.2760   71.5800  222.9850 N   0  0  0  0  0  0  0  0  0  0  0  0
  140.6760   71.5960  224.3790 C   0  0  0  0  0  0  0  0  0  0  0  0
  139.5800   70.7760  225.0010 C   0  0  2  0  0  0  0  0  0  0  0  0
  140.0740   69.9370  226.1210 C   0  0  0  0  0  0  0  0  0  0  0  0
  140.0190   68.5520  226.0440 C   0  0  0  0  0  0  0  0  0  0  0  0
  140.4830   67.7870  227.0950 C   0  0  0  0  0  0  0  0  0  0  0  0
  141.0110   68.3410  228.2450 C   0  0  0  0  0  0  0  0  0  0  0  0
  141.0690   69.7210  228.3260 C   0  0  0  0  0  0  0  0  0  0  0  0
  140.6060   70.4750  227.2810 C   0  0  0  0  0  0  0  0  0  0  0  0
  138.9010   69.9830  223.9230 C   0  0  0  0  0  0  0  0  0  0  0  0
  139.5630   70.3740  222.6550 C   0  0  1  0  0  0  0  0  0  0  0  0
  138.6290   70.5190  221.5170 C   0  0  0  0  0  0  0  0  0  0  0  0
  138.9150   70.1800  220.2250 C   0  0  0  0  0  0  0  0  0  0  0  0
  138.0150   70.3250  219.1760 C   0  0  0  0  0  0  0  0  0  0  0  0
  136.7590   70.8420  219.4420 C   0  0  0  0  0  0  0  0  0  0  0  0
  136.4320   71.1970  220.7350 C   0  0  0  0  0  0  0  0  0  0  0  0
  137.3510   71.0380  221.7530 C   0  0  0  0  0  0  0  0  0  0  0  0
  139.4910   77.3460  222.6380 C   0  0  0  0  0  0  0  0  0  0  0  0
  138.5700   78.3590  222.8120 C   0  0  0  0  0  0  0  0  0  0  0  0
  138.9160   79.6650  223.0770 C   0  0  0  0  0  0  0  0  0  0  0  0
  140.2860   79.9310  223.1660 C   0  0  0  0  0  0  0  0  0  0  0  0
  140.7020   81.2190  223.4300 C   0  0  0  0  0  0  0  0  0  0  0  0
  142.0560   81.4500  223.5120 C   0  0  0  0  0  0  0  0  0  0  0  0
  143.0060   80.4570  223.3420 C   0  0  0  0  0  0  0  0  0  0  0  0
  142.5680   79.1710  223.0790 C   0  0  0  0  0  0  0  0  0  0  0  0
  141.2080   78.9210  222.9930 C   0  0  0  0  0  0  0  0  0  0  0  0
  140.8220   77.6360  222.7310 N   0  0  0  0  0  0  0  0  0  0  0  0
  141.0030   75.1960  221.9210 H   0  0  0  0  0  0  0  0  0  0  0  0
  138.6158   73.4667  222.3144 H   0  0  0  0  0  0  0  0  0  0  0  0
  139.3107   73.5848  220.6452 H   0  0  0  0  0  0  0  0  0  0  0  0
  141.6613   71.1283  224.5220 H   0  0  0  0  0  0  0  0  0  0  0  0
  140.7878   72.6030  224.8073 H   0  0  0  0  0  0  0  0  0  0  0  0
  138.8373   71.4444  225.4610 H   0  0  0  0  0  0  0  0  0  0  0  0
  139.6067   68.0655  225.1477 H   0  0  0  0  0  0  0  0  0  0  0  0
  140.4302   66.6913  227.0135 H   0  0  0  0  0  0  0  0  0  0  0  0
  141.3728   67.7070  229.0679 H   0  0  0  0  0  0  0  0  0  0  0  0
  141.4831   70.2078  229.2213 H   0  0  0  0  0  0  0  0  0  0  0  0
  140.6596   71.5703  227.3678 H   0  0  0  0  0  0  0  0  0  0  0  0
  139.0263   68.9052  224.1039 H   0  0  0  0  0  0  0  0  0  0  0  0
  137.8198   70.1834  223.8934 H   0  0  0  0  0  0  0  0  0  0  0  0
  140.2420   69.5904  222.2877 H   0  0  0  0  0  0  0  0  0  0  0  0
  139.9113   69.7702  220.0029 H   0  0  0  0  0  0  0  0  0  0  0  0
  138.2958   70.0342  218.1530 H   0  0  0  0  0  0  0  0  0  0  0  0
  136.0278   70.9688  218.6300 H   0  0  0  0  0  0  0  0  0  0  0  0
  135.4357   71.6080  220.9552 H   0  0  0  0  0  0  0  0  0  0  0  0
  137.0712   71.3270  222.7768 H   0  0  0  0  0  0  0  0  0  0  0  0
  137.5015   78.1094  222.7348 H   0  0  0  0  0  0  0  0  0  0  0  0
  138.1597   80.4525  223.2108 H   0  0  0  0  0  0  0  0  0  0  0  0
  139.9764   82.0337  223.5702 H   0  0  0  0  0  0  0  0  0  0  0  0
  142.4005   82.4732  223.7228 H   0  0  0  0  0  0  0  0  0  0  0  0
  144.0798   80.6843  223.4141 H   0  0  0  0  0  0  0  0  0  0  0  0
  143.2925   78.3552  222.9396 H   0  0  0  0  0  0  0  0  0  0  0  0
  1  2  2  0
  2  3  1  0
  3  4  1  0
  4  5  1  0
  5  6  2  0
  5  7  1  0
  7  8  1  0
  8  9  1  0
  9 10  1  0
 10 11  2  0
 11 12  1  0
 12 13  2  0
 13 14  1  0
 14 15  2  0
  9 16  1  0
 16 17  1  0
 17 18  1  0
 18 19  2  0
 19 20  1  0
 20 21  2  0
 21 22  1  0
 22 23  2  0
  2 24  1  0
 24 25  2  0
 25 26  1  0
 26 27  2  0
 27 28  1  0
 28 29  2  0
 29 30  1  0
 30 31  2  0
 31 32  1  0
 32 33  2  0
 17  7  1  0
 23 18  1  0
 33 24  1  0
 15 10  1  0
 32 27  1  0
  3 34  1  0
  4 35  1  0
  4 36  1  0
  8 37  1  0
  8 38  1  0
  9 39  1  1
 11 40  1  0
 12 41  1  0
 13 42  1  0
 14 43  1  0
 15 44  1  0
 16 45  1  0
 16 46  1  0
 17 47  1  6
 19 48  1  0
 20 49  1  0
 21 50  1  0
 22 51  1  0
 23 52  1  0
 25 53  1  0
 26 54  1  0
 28 55  1  0
 29 56  1  0
 30 57  1  0
 31 58  1  0
M  END
>  <smiles>  (39) 
O=C(NCC(=O)N1C[C@H](c2ccccc2)C[C@H]1c1ccccc1)c1ccc2ccccc2n1

>  <score_type>  (39) 
oracle

>  <origin>  (39) 
autodockgpu

>  <m_score__min__energy>  (39) 
-9.6400000000000006

>  <m_primary>  (39) 
energy

>  <rmsd>  (39) 
8.566609987545965

>  <m_score__min__rmsd>  (39) 
8.566609987545965

>  <meeko>  (39) 
{"free_energy": -8.85, "intermolecular_energy": -10.64, "internal_energy": -2.14, "cluster_size": 3, "cluster_id": 4, "rank_in_cluster": 3}

>  <energy>  (39) 
-9.26

>  <cluster_rmsd>  (39) 
0.11

>  <cluster>  (39) 
5

$$$$

     RDKit          3D

 58 62  0  0  0  0  0  0  0  0999 V2000
  140.1940   70.8130  221.5710 O   0  0  0  0  0  0  0  0  0  0  0  0
  139.6190   71.3040  222.5830 C   0  0  0  0  0  0  0  0  0  0  0  0
  138.5550   72.2420  222.3420 N   0  0  0  0  0  0  0  0  0  0  0  0
  138.2020   72.5720  220.9990 C   0  0  0  0  0  0  0  0  0  0  0  0
  138.8550   73.8550  220.5540 C   0  0  0  0  0  0  0  0  0  0  0  0
  138.0780   74.7130  220.0690 O   0  0  0  0  0  0  0  0  0  0  0  0
  140.2580   74.0440  220.6880 N   0  0  0  0  0  0  0  0  0  0  0  0
  141.2450   73.2650  219.9640 C   0  0  0  0  0  0  0  0  0  0  0  0
  142.3670   74.2600  219.8490 C   0  0  2  0  0  0  0  0  0  0  0  0
  143.7010   73.6150  219.9470 C   0  0  0  0  0  0  0  0  0  0  0  0
  144.7780   74.3010  220.4880 C   0  0  0  0  0  0  0  0  0  0  0  0
  146.0110   73.6870  220.5730 C   0  0  0  0  0  0  0  0  0  0  0  0
  146.2330   72.3950  220.1370 C   0  0  0  0  0  0  0  0  0  0  0  0
  145.1610   71.7060  219.5980 C   0  0  0  0  0  0  0  0  0  0  0  0
  143.9390   72.3210  219.5160 C   0  0  0  0  0  0  0  0  0  0  0  0
  142.1570   75.3420  220.8660 C   0  0  0  0  0  0  0  0  0  0  0  0
  140.8820   75.0140  221.5490 C   0  0  1  0  0  0  0  0  0  0  0  0
  140.0400   76.1970  221.8330 C   0  0  0  0  0  0  0  0  0  0  0  0
  140.2780   77.4560  221.3600 C   0  0  0  0  0  0  0  0  0  0  0  0
  139.4680   78.5490  221.6430 C   0  0  0  0  0  0  0  0  0  0  0  0
  138.3560   78.3650  222.4470 C   0  0  0  0  0  0  0  0  0  0  0  0
  138.0820   77.1070  222.9440 C   0  0  0  0  0  0  0  0  0  0  0  0
  138.9080   76.0430  222.6420 C   0  0  0  0  0  0  0  0  0  0  0  0
  139.9790   70.9660  223.9460 C   0  0  0  0  0  0  0  0  0  0  0  0
  140.6570   71.8870  224.7170 C   0  0  0  0  0  0  0  0  0  0  0  0
  141.0390   71.6530  226.0200 C   0  0  0  0  0  0  0  0  0  0  0  0
  140.6990   70.4020  226.5450 C   0  0  0  0  0  0  0  0  0  0  0  0
  141.0510   70.1040  227.8440 C   0  0  0  0  0  0  0  0  0  0  0  0
  140.7030   68.8650  228.3330 C   0  0  0  0  0  0  0  0  0  0  0  0
  140.0220   67.9200  227.5850 C   0  0  0  0  0  0  0  0  0  0  0  0
  139.6770   68.2390  226.2840 C   0  0  0  0  0  0  0  0  0  0  0  0
  140.0200   69.4820  225.7760 C   0  0  0  0  0  0  0  0  0  0  0  0
  139.6590   69.7540  224.4860 N   0  0  0  0  0  0  0  0  0  0  0  0
  138.0320   72.6890  223.1310 H   0  0  0  0  0  0  0  0  0  0  0  0
  138.5254   71.7574  220.3343 H   0  0  0  0  0  0  0  0  0  0  0  0
  137.1112   72.7066  220.9527 H   0  0  0  0  0  0  0  0  0  0  0  0
  141.5518   72.3739  220.5313 H   0  0  0  0  0  0  0  0  0  0  0  0
  140.8915   72.8666  219.0015 H   0  0  0  0  0  0  0  0  0  0  0  0
  142.3520   74.7166  218.8483 H   0  0  0  0  0  0  0  0  0  0  0  0
  144.6498   75.3323  220.8486 H   0  0  0  0  0  0  0  0  0  0  0  0
  146.8515   74.2494  221.0057 H   0  0  0  0  0  0  0  0  0  0  0  0
  147.2270   71.9304  220.2156 H   0  0  0  0  0  0  0  0  0  0  0  0
  145.2884   70.6742  219.2387 H   0  0  0  0  0  0  0  0  0  0  0  0
  143.1006   71.7551  219.0837 H   0  0  0  0  0  0  0  0  0  0  0  0
  142.9863   75.3544  221.5886 H   0  0  0  0  0  0  0  0  0  0  0  0
  142.1204   76.3363  220.3970 H   0  0  0  0  0  0  0  0  0  0  0  0
  141.0485   74.6101  222.5585 H   0  0  0  0  0  0  0  0  0  0  0  0
  141.1589   77.6133  220.7202 H   0  0  0  0  0  0  0  0  0  0  0  0
  139.7060   79.5426  221.2355 H   0  0  0  0  0  0  0  0  0  0  0  0
  137.6976   79.2128  222.6872 H   0  0  0  0  0  0  0  0  0  0  0  0
  137.2010   76.9514  223.5840 H   0  0  0  0  0  0  0  0  0  0  0  0
  138.6706   75.0484  223.0475 H   0  0  0  0  0  0  0  0  0  0  0  0
  140.9059   72.8598  224.2679 H   0  0  0  0  0  0  0  0  0  0  0  0
  141.5796   72.4058  226.6125 H   0  0  0  0  0  0  0  0  0  0  0  0
  141.5912   70.8310  228.4682 H   0  0  0  0  0  0  0  0  0  0  0  0
  140.9793   68.6139  229.3677 H   0  0  0  0  0  0  0  0  0  0  0  0
  139.7620   66.9410  228.0140 H   0  0  0  0  0  0  0  0  0  0  0  0
  139.1359   67.5134  225.6589 H   0  0  0  0  0  0  0  0  0  0  0  0
  1  2  2  0
  2  3  1  0
  3  4  1  0
  4  5  1  0
  5  6  2  0
  5  7  1  0
  7  8  1  0
  8  9  1  0
  9 10  1  0
 10 11  2  0
 11 12  1  0
 12 13  2  0
 13 14  1  0
 14 15  2  0
  9 16  1  0
 16 17  1  0
 17 18  1  0
 18 19  2  0
 19 20  1  0
 20 21  2  0
 21 22  1  0
 22 23  2  0
  2 24  1  0
 24 25  2  0
 25 26  1  0
 26 27  2  0
 27 28  1  0
 28 29  2  0
 29 30  1  0
 30 31  2  0
 31 32  1  0
 32 33  2  0
 17  7  1  0
 23 18  1  0
 33 24  1  0
 15 10  1  0
 32 27  1  0
  3 34  1  0
  4 35  1  0
  4 36  1  0
  8 37  1  0
  8 38  1  0
  9 39  1  6
 11 40  1  0
 12 41  1  0
 13 42  1  0
 14 43  1  0
 15 44  1  0
 16 45  1  0
 16 46  1  0
 17 47  1  1
 19 48  1  0
 20 49  1  0
 21 50  1  0
 22 51  1  0
 23 52  1  0
 25 53  1  0
 26 54  1  0
 28 55  1  0
 29 56  1  0
 30 57  1  0
 31 58  1  0
M  END
>  <smiles>  (40) 
O=C(NCC(=O)N1C[C@H](c2ccccc2)C[C@H]1c1ccccc1)c1ccc2ccccc2n1

>  <score_type>  (40) 
oracle

>  <origin>  (40) 
autodockgpu

>  <m_score__min__energy>  (40) 
-9.6400000000000006

>  <m_primary>  (40) 
energy

>  <rmsd>  (40) 
3.026102742569085

>  <m_score__min__rmsd>  (40) 
3.026102742569085

>  <meeko>  (40) 
{"free_energy": -9.01, "intermolecular_energy": -10.8, "internal_energy": -2.06, "cluster_size": 3, "cluster_id": 6, "rank_in_cluster": 1}

>  <energy>  (40) 
-9.01

>  <cluster_rmsd>  (40) 
0.0

>  <cluster>  (40) 
6

$$$$

     RDKit          3D

 58 62  0  0  0  0  0  0  0  0999 V2000
  137.8610   75.6070  219.9500 O   0  0  0  0  0  0  0  0  0  0  0  0
  138.4300   75.8850  221.0430 C   0  0  0  0  0  0  0  0  0  0  0  0
  138.0770   75.0880  222.1870 N   0  0  0  0  0  0  0  0  0  0  0  0
  137.1190   74.0400  222.0440 C   0  0  0  0  0  0  0  0  0  0  0  0
  137.7860   72.7060  221.8300 C   0  0  0  0  0  0  0  0  0  0  0  0
  137.4770   72.1140  220.7670 O   0  0  0  0  0  0  0  0  0  0  0  0
  138.6980   72.1840  222.7890 N   0  0  0  0  0  0  0  0  0  0  0  0
  138.3300   71.2060  223.7950 C   0  0  0  0  0  0  0  0  0  0  0  0
  139.6350   70.4830  223.9840 C   0  0  2  0  0  0  0  0  0  0  0  0
  139.8480   70.0670  225.3920 C   0  0  0  0  0  0  0  0  0  0  0  0
  139.5920   68.7620  225.7890 C   0  0  0  0  0  0  0  0  0  0  0  0
  139.7950   68.3910  227.1030 C   0  0  0  0  0  0  0  0  0  0  0  0
  140.2500   69.2720  228.0650 C   0  0  0  0  0  0  0  0  0  0  0  0
  140.5080   70.5740  227.6740 C   0  0  0  0  0  0  0  0  0  0  0  0
  140.3030   70.9360  226.3680 C   0  0  0  0  0  0  0  0  0  0  0  0
  140.7420   71.3410  223.4470 C   0  0  0  0  0  0  0  0  0  0  0  0
  140.0850   72.5510  222.8940 C   0  0  1  0  0  0  0  0  0  0  0  0
  140.6810   73.0220  221.6250 C   0  0  0  0  0  0  0  0  0  0  0  0
  140.6860   72.3160  220.4560 C   0  0  0  0  0  0  0  0  0  0  0  0
  141.2530   72.7850  219.2770 C   0  0  0  0  0  0  0  0  0  0  0  0
  141.8500   74.0350  219.2760 C   0  0  0  0  0  0  0  0  0  0  0  0
  141.8660   74.7780  220.4380 C   0  0  0  0  0  0  0  0  0  0  0  0
  141.2920   74.2810  221.5910 C   0  0  0  0  0  0  0  0  0  0  0  0
  139.4040   76.9490  221.1860 C   0  0  0  0  0  0  0  0  0  0  0  0
  139.8470   77.6190  220.0640 C   0  0  0  0  0  0  0  0  0  0  0  0
  140.7690   78.6420  220.1040 C   0  0  0  0  0  0  0  0  0  0  0  0
  141.2520   78.9840  221.3710 C   0  0  0  0  0  0  0  0  0  0  0  0
  142.1770   80.0000  221.4820 C   0  0  0  0  0  0  0  0  0  0  0  0
  142.6340   80.3150  222.7420 C   0  0  0  0  0  0  0  0  0  0  0  0
  142.2090   79.6620  223.8860 C   0  0  0  0  0  0  0  0  0  0  0  0
  141.2800   78.6470  223.7530 C   0  0  0  0  0  0  0  0  0  0  0  0
  140.8090   78.3170  222.4920 C   0  0  0  0  0  0  0  0  0  0  0  0
  139.8930   77.3070  222.4090 N   0  0  0  0  0  0  0  0  0  0  0  0
  138.5080   75.2590  223.1260 H   0  0  0  0  0  0  0  0  0  0  0  0
  136.5052   73.9903  222.9555 H   0  0  0  0  0  0  0  0  0  0  0  0
  136.4970   74.2595  221.1637 H   0  0  0  0  0  0  0  0  0  0  0  0
  137.9976   71.6893  224.7256 H   0  0  0  0  0  0  0  0  0  0  0  0
  137.4893   70.5566  223.5096 H   0  0  0  0  0  0  0  0  0  0  0  0
  139.6182   69.5409  223.4163 H   0  0  0  0  0  0  0  0  0  0  0  0
  139.2281   68.0249  225.0581 H   0  0  0  0  0  0  0  0  0  0  0  0
  139.5860   67.3516  227.3961 H   0  0  0  0  0  0  0  0  0  0  0  0
  140.4019   68.9496  229.1057 H   0  0  0  0  0  0  0  0  0  0  0  0
  140.8739   71.3111  228.4039 H   0  0  0  0  0  0  0  0  0  0  0  0
  140.5121   71.9766  226.0793 H   0  0  0  0  0  0  0  0  0  0  0  0
  141.4375   71.6176  224.2531 H   0  0  0  0  0  0  0  0  0  0  0  0
  141.3277   70.8126  222.6803 H   0  0  0  0  0  0  0  0  0  0  0  0
  140.2229   73.4273  223.5444 H   0  0  0  0  0  0  0  0  0  0  0  0
  140.2155   71.3217  220.4471 H   0  0  0  0  0  0  0  0  0  0  0  0
  141.2282   72.1751  218.3619 H   0  0  0  0  0  0  0  0  0  0  0  0
  142.3070   74.4313  218.3572 H   0  0  0  0  0  0  0  0  0  0  0  0
  142.3384   75.7714  220.4460 H   0  0  0  0  0  0  0  0  0  0  0  0
  141.3154   74.8901  222.5067 H   0  0  0  0  0  0  0  0  0  0  0  0
  139.4425   77.3205  219.0856 H   0  0  0  0  0  0  0  0  0  0  0  0
  141.1053   79.1591  219.1932 H   0  0  0  0  0  0  0  0  0  0  0  0
  142.5376   80.5405  220.5944 H   0  0  0  0  0  0  0  0  0  0  0  0
  143.3721   81.1242  222.8444 H   0  0  0  0  0  0  0  0  0  0  0  0
  142.6001   79.9433  224.8749 H   0  0  0  0  0  0  0  0  0  0  0  0
  140.9179   78.1062  224.6398 H   0  0  0  0  0  0  0  0  0  0  0  0
  1  2  2  0
  2  3  1  0
  3  4  1  0
  4  5  1  0
  5  6  2  0
  5  7  1  0
  7  8  1  0
  8  9  1  0
  9 10  1  0
 10 11  2  0
 11 12  1  0
 12 13  2  0
 13 14  1  0
 14 15  2  0
  9 16  1  0
 16 17  1  0
 17 18  1  0
 18 19  2  0
 19 20  1  0
 20 21  2  0
 21 22  1  0
 22 23  2  0
  2 24  1  0
 24 25  2  0
 25 26  1  0
 26 27  2  0
 27 28  1  0
 28 29  2  0
 29 30  1  0
 30 31  2  0
 31 32  1  0
 32 33  2  0
 17  7  1  0
 23 18  1  0
 33 24  1  0
 15 10  1  0
 32 27  1  0
  3 34  1  0
  4 35  1  0
  4 36  1  0
  8 37  1  0
  8 38  1  0
  9 39  1  6
 11 40  1  0
 12 41  1  0
 13 42  1  0
 14 43  1  0
 15 44  1  0
 16 45  1  0
 16 46  1  0
 17 47  1  1
 19 48  1  0
 20 49  1  0
 21 50  1  0
 22 51  1  0
 23 52  1  0
 25 53  1  0
 26 54  1  0
 28 55  1  0
 29 56  1  0
 30 57  1  0
 31 58  1  0
M  END
>  <smiles>  (41) 
O=C(NCC(=O)N1C[C@H](c2ccccc2)C[C@H]1c1ccccc1)c1ccc2ccccc2n1

>  <score_type>  (41) 
oracle

>  <origin>  (41) 
autodockgpu

>  <m_score__min__energy>  (41) 
-9.6400000000000006

>  <m_primary>  (41) 
energy

>  <rmsd>  (41) 
7.953210236896307

>  <m_score__min__rmsd>  (41) 
7.953210236896307

>  <meeko>  (41) 
{"free_energy": -8.28, "intermolecular_energy": -10.07, "internal_energy": -2.89, "cluster_size": 8, "cluster_id": 7, "rank_in_cluster": 8}

>  <energy>  (41) 
-8.92

>  <cluster_rmsd>  (41) 
0.75

>  <cluster>  (41) 
6

$$$$

     RDKit          3D

 58 62  0  0  0  0  0  0  0  0999 V2000
  139.1980   70.8950  221.1290 O   0  0  0  0  0  0  0  0  0  0  0  0
  139.0050   71.5630  222.1840 C   0  0  0  0  0  0  0  0  0  0  0  0
  138.3840   72.8520  222.0400 N   0  0  0  0  0  0  0  0  0  0  0  0
  138.0180   73.3140  220.7400 C   0  0  0  0  0  0  0  0  0  0  0  0
  139.0970   74.1740  220.1350 C   0  0  0  0  0  0  0  0  0  0  0  0
  139.5030   73.8100  219.0040 O   0  0  0  0  0  0  0  0  0  0  0  0
  139.5980   75.3110  220.8270 N   0  0  0  0  0  0  0  0  0  0  0  0
  138.7510   76.2700  221.5120 C   0  0  0  0  0  0  0  0  0  0  0  0
  139.6730   76.7350  222.6060 C   0  0  2  0  0  0  0  0  0  0  0  0
  139.4910   78.1750  222.9170 C   0  0  0  0  0  0  0  0  0  0  0  0
  140.5900   78.9930  223.1410 C   0  0  0  0  0  0  0  0  0  0  0  0
  140.4040   80.3300  223.4290 C   0  0  0  0  0  0  0  0  0  0  0  0
  139.1520   80.9090  223.5070 C   0  0  0  0  0  0  0  0  0  0  0  0
  138.0530   80.0980  223.2830 C   0  0  0  0  0  0  0  0  0  0  0  0
  138.2440   78.7710  222.9990 C   0  0  0  0  0  0  0  0  0  0  0  0
  141.0820   76.3840  222.2300 C   0  0  0  0  0  0  0  0  0  0  0  0
  140.9890   75.6640  220.9360 C   0  0  1  0  0  0  0  0  0  0  0  0
  141.9120   74.5140  220.8290 C   0  0  0  0  0  0  0  0  0  0  0  0
  141.6500   73.2570  221.2960 C   0  0  0  0  0  0  0  0  0  0  0  0
  142.5380   72.1940  221.1810 C   0  0  0  0  0  0  0  0  0  0  0  0
  143.7570   72.4080  220.5610 C   0  0  0  0  0  0  0  0  0  0  0  0
  144.0590   73.6650  220.0760 C   0  0  0  0  0  0  0  0  0  0  0  0
  143.1530   74.6980  220.2080 C   0  0  0  0  0  0  0  0  0  0  0  0
  139.3750   71.0910  223.5040 C   0  0  0  0  0  0  0  0  0  0  0  0
  139.0560   69.8020  223.8790 C   0  0  0  0  0  0  0  0  0  0  0  0
  139.3680   69.2690  225.1100 C   0  0  0  0  0  0  0  0  0  0  0  0
  140.0440   70.1160  225.9930 C   0  0  0  0  0  0  0  0  0  0  0  0
  140.3870   69.6450  227.2420 C   0  0  0  0  0  0  0  0  0  0  0  0
  141.0530   70.5020  228.0890 C   0  0  0  0  0  0  0  0  0  0  0  0
  141.3870   71.8000  227.7430 C   0  0  0  0  0  0  0  0  0  0  0  0
  141.0350   72.2540  226.4850 C   0  0  0  0  0  0  0  0  0  0  0  0
  140.3650   71.4040  225.6190 C   0  0  0  0  0  0  0  0  0  0  0  0
  140.0370   71.8950  224.3870 N   0  0  0  0  0  0  0  0  0  0  0  0
  138.1920   73.4620  222.8700 H   0  0  0  0  0  0  0  0  0  0  0  0
  137.8455   72.4454  220.0875 H   0  0  0  0  0  0  0  0  0  0  0  0
  137.1054   73.9209  220.8340 H   0  0  0  0  0  0  0  0  0  0  0  0
  138.4602   77.0983  220.8492 H   0  0  0  0  0  0  0  0  0  0  0  0
  137.7951   75.8584  221.8682 H   0  0  0  0  0  0  0  0  0  0  0  0
  139.4245   76.2145  223.5427 H   0  0  0  0  0  0  0  0  0  0  0  0
  141.6068   78.5766  223.0891 H   0  0  0  0  0  0  0  0  0  0  0  0
  141.2886   80.9602  223.6035 H   0  0  0  0  0  0  0  0  0  0  0  0
  139.0327   81.9776  223.7391 H   0  0  0  0  0  0  0  0  0  0  0  0
  137.0361   80.5146  223.3325 H   0  0  0  0  0  0  0  0  0  0  0  0
  137.3567   78.1441  222.8265 H   0  0  0  0  0  0  0  0  0  0  0  0
  141.6868   77.2959  222.1181 H   0  0  0  0  0  0  0  0  0  0  0  0
  141.5648   75.7671  223.0022 H   0  0  0  0  0  0  0  0  0  0  0  0
  141.3146   76.2906  220.0926 H   0  0  0  0  0  0  0  0  0  0  0  0
  140.6838   73.0765  221.7898 H   0  0  0  0  0  0  0  0  0  0  0  0
  142.2769   71.2009  221.5754 H   0  0  0  0  0  0  0  0  0  0  0  0
  144.4784   71.5843  220.4557 H   0  0  0  0  0  0  0  0  0  0  0  0
  145.0256   73.8440  219.5824 H   0  0  0  0  0  0  0  0  0  0  0  0
  143.4130   75.6919  219.8149 H   0  0  0  0  0  0  0  0  0  0  0  0
  138.5240   69.1661  223.1561 H   0  0  0  0  0  0  0  0  0  0  0  0
  139.1009   68.2373  225.3824 H   0  0  0  0  0  0  0  0  0  0  0  0
  140.1372   68.6194  227.5515 H   0  0  0  0  0  0  0  0  0  0  0  0
  141.3331   70.1379  229.0885 H   0  0  0  0  0  0  0  0  0  0  0  0
  141.9186   72.4535  228.4503 H   0  0  0  0  0  0  0  0  0  0  0  0
  141.2843   73.2795  226.1747 H   0  0  0  0  0  0  0  0  0  0  0  0
  1  2  2  0
  2  3  1  0
  3  4  1  0
  4  5  1  0
  5  6  2  0
  5  7  1  0
  7  8  1  0
  8  9  1  0
  9 10  1  0
 10 11  2  0
 11 12  1  0
 12 13  2  0
 13 14  1  0
 14 15  2  0
  9 16  1  0
 16 17  1  0
 17 18  1  0
 18 19  2  0
 19 20  1  0
 20 21  2  0
 21 22  1  0
 22 23  2  0
  2 24  1  0
 24 25  2  0
 25 26  1  0
 26 27  2  0
 27 28  1  0
 28 29  2  0
 29 30  1  0
 30 31  2  0
 31 32  1  0
 32 33  2  0
 17  7  1  0
 23 18  1  0
 33 24  1  0
 15 10  1  0
 32 27  1  0
  3 34  1  0
  4 35  1  0
  4 36  1  0
  8 37  1  0
  8 38  1  0
  9 39  1  1
 11 40  1  0
 12 41  1  0
 13 42  1  0
 14 43  1  0
 15 44  1  0
 16 45  1  0
 16 46  1  0
 17 47  1  6
 19 48  1  0
 20 49  1  0
 21 50  1  0
 22 51  1  0
 23 52  1  0
 25 53  1  0
 26 54  1  0
 28 55  1  0
 29 56  1  0
 30 57  1  0
 31 58  1  0
M  END
>  <smiles>  (42) 
O=C(NCC(=O)N1C[C@H](c2ccccc2)C[C@H]1c1ccccc1)c1ccc2ccccc2n1

>  <score_type>  (42) 
oracle

>  <origin>  (42) 
autodockgpu

>  <m_score__min__energy>  (42) 
-9.6400000000000006

>  <m_primary>  (42) 
energy

>  <rmsd>  (42) 
2.707458815330698

>  <m_score__min__rmsd>  (42) 
2.707458815330698

>  <meeko>  (42) 
{"free_energy": -8.81, "intermolecular_energy": -10.6, "internal_energy": -2.27, "cluster_size": 3, "cluster_id": 6, "rank_in_cluster": 3}

>  <energy>  (42) 
-8.81

>  <cluster_rmsd>  (42) 
1.56

>  <cluster>  (42) 
6

$$$$

     RDKit          3D

 58 62  0  0  0  0  0  0  0  0999 V2000
  140.7320   71.6280  221.2350 O   0  0  0  0  0  0  0  0  0  0  0  0
  140.3250   72.1520  222.3100 C   0  0  0  0  0  0  0  0  0  0  0  0
  139.9760   73.5470  222.2690 N   0  0  0  0  0  0  0  0  0  0  0  0
  140.1020   74.2650  221.0420 C   0  0  0  0  0  0  0  0  0  0  0  0
  140.9630   75.4910  221.2040 C   0  0  0  0  0  0  0  0  0  0  0  0
  141.1150   75.8880  222.3850 O   0  0  0  0  0  0  0  0  0  0  0  0
  141.5460   76.1280  220.0740 N   0  0  0  0  0  0  0  0  0  0  0  0
  141.1960   77.4670  219.6390 C   0  0  0  0  0  0  0  0  0  0  0  0
  142.4870   77.9110  219.0100 C   0  0  2  0  0  0  0  0  0  0  0  0
  142.2650   78.7710  217.8210 C   0  0  0  0  0  0  0  0  0  0  0  0
  142.3170   80.1540  217.9300 C   0  0  0  0  0  0  0  0  0  0  0  0
  142.1080   80.9390  216.8140 C   0  0  0  0  0  0  0  0  0  0  0  0
  141.8440   80.4080  215.5660 C   0  0  0  0  0  0  0  0  0  0  0  0
  141.7920   79.0300  215.4520 C   0  0  0  0  0  0  0  0  0  0  0  0
  142.0000   78.2550  216.5640 C   0  0  0  0  0  0  0  0  0  0  0  0
  143.3210   76.6990  218.7160 C   0  0  0  0  0  0  0  0  0  0  0  0
  142.5430   75.5410  219.2190 C   0  0  1  0  0  0  0  0  0  0  0  0
  143.3740   74.5110  219.8810 C   0  0  0  0  0  0  0  0  0  0  0  0
  143.0120   73.2040  220.0450 C   0  0  0  0  0  0  0  0  0  0  0  0
  143.8140   72.2570  220.6700 C   0  0  0  0  0  0  0  0  0  0  0  0
  145.0490   72.6480  221.1590 C   0  0  0  0  0  0  0  0  0  0  0  0
  145.4500   73.9600  221.0120 C   0  0  0  0  0  0  0  0  0  0  0  0
  144.6280   74.8740  220.3850 C   0  0  0  0  0  0  0  0  0  0  0  0
  140.1970   71.4200  223.5540 C   0  0  0  0  0  0  0  0  0  0  0  0
  139.5660   70.1920  223.5580 C   0  0  0  0  0  0  0  0  0  0  0  0
  139.4000   69.4270  224.6910 C   0  0  0  0  0  0  0  0  0  0  0  0
  139.9120   69.9630  225.8760 C   0  0  0  0  0  0  0  0  0  0  0  0
  139.7790   69.2480  227.0470 C   0  0  0  0  0  0  0  0  0  0  0  0
  140.2940   69.8020  228.1980 C   0  0  0  0  0  0  0  0  0  0  0  0
  140.9320   71.0310  228.2270 C   0  0  0  0  0  0  0  0  0  0  0  0
  141.0560   71.7320  227.0410 C   0  0  0  0  0  0  0  0  0  0  0  0
  140.5430   71.1890  225.8740 C   0  0  0  0  0  0  0  0  0  0  0  0
  140.6880   71.9170  224.7270 N   0  0  0  0  0  0  0  0  0  0  0  0
  139.6310   74.0490  223.1200 H   0  0  0  0  0  0  0  0  0  0  0  0
  140.5569   73.6062  220.2877 H   0  0  0  0  0  0  0  0  0  0  0  0
  139.0987   74.5877  220.7270 H   0  0  0  0  0  0  0  0  0  0  0  0
  140.3744   77.4523  218.9077 H   0  0  0  0  0  0  0  0  0  0  0  0
  140.8336   78.1246  220.4428 H   0  0  0  0  0  0  0  0  0  0  0  0
  143.0388   78.5496  219.7155 H   0  0  0  0  0  0  0  0  0  0  0  0
  142.5242   80.6230  218.9032 H   0  0  0  0  0  0  0  0  0  0  0  0
  142.1535   82.0327  216.9227 H   0  0  0  0  0  0  0  0  0  0  0  0
  141.6809   81.0580  214.6937 H   0  0  0  0  0  0  0  0  0  0  0  0
  141.5858   78.5607  214.4787 H   0  0  0  0  0  0  0  0  0  0  0  0
  141.9537   77.1618  216.4509 H   0  0  0  0  0  0  0  0  0  0  0  0
  143.4913   76.6047  217.6334 H   0  0  0  0  0  0  0  0  0  0  0  0
  144.3091   76.7617  219.1954 H   0  0  0  0  0  0  0  0  0  0  0  0
  142.0848   74.9667  218.4003 H   0  0  0  0  0  0  0  0  0  0  0  0
  142.0321   72.8838  219.6613 H   0  0  0  0  0  0  0  0  0  0  0  0
  143.4741   71.2160  220.7744 H   0  0  0  0  0  0  0  0  0  0  0  0
  145.7040   71.9198  221.6597 H   0  0  0  0  0  0  0  0  0  0  0  0
  146.4300   74.2790  221.3966 H   0  0  0  0  0  0  0  0  0  0  0  0
  144.9673   75.9149  220.2786 H   0  0  0  0  0  0  0  0  0  0  0  0
  139.1751   69.8041  222.6057 H   0  0  0  0  0  0  0  0  0  0  0  0
  138.8938   68.4507  224.6649 H   0  0  0  0  0  0  0  0  0  0  0  0
  139.2787   68.2685  227.0617 H   0  0  0  0  0  0  0  0  0  0  0  0
  140.1938   69.2416  229.1392 H   0  0  0  0  0  0  0  0  0  0  0  0
  141.3295   71.4388  229.1681 H   0  0  0  0  0  0  0  0  0  0  0  0
  141.5570   72.7111  227.0245 H   0  0  0  0  0  0  0  0  0  0  0  0
  1  2  2  0
  2  3  1  0
  3  4  1  0
  4  5  1  0
  5  6  2  0
  5  7  1  0
  7  8  1  0
  8  9  1  0
  9 10  1  0
 10 11  2  0
 11 12  1  0
 12 13  2  0
 13 14  1  0
 14 15  2  0
  9 16  1  0
 16 17  1  0
 17 18  1  0
 18 19  2  0
 19 20  1  0
 20 21  2  0
 21 22  1  0
 22 23  2  0
  2 24  1  0
 24 25  2  0
 25 26  1  0
 26 27  2  0
 27 28  1  0
 28 29  2  0
 29 30  1  0
 30 31  2  0
 31 32  1  0
 32 33  2  0
 17  7  1  0
 23 18  1  0
 33 24  1  0
 15 10  1  0
 32 27  1  0
  3 34  1  0
  4 35  1  0
  4 36  1  0
  8 37  1  0
  8 38  1  0
  9 39  1  1
 11 40  1  0
 12 41  1  0
 13 42  1  0
 14 43  1  0
 15 44  1  0
 16 45  1  0
 16 46  1  0
 17 47  1  6
 19 48  1  0
 20 49  1  0
 21 50  1  0
 22 51  1  0
 23 52  1  0
 25 53  1  0
 26 54  1  0
 28 55  1  0
 29 56  1  0
 30 57  1  0
 31 58  1  0
M  END
>  <smiles>  (43) 
O=C(NCC(=O)N1C[C@H](c2ccccc2)C[C@H]1c1ccccc1)c1ccc2ccccc2n1

>  <score_type>  (43) 
oracle

>  <origin>  (43) 
autodockgpu

>  <m_score__min__energy>  (43) 
-9.6400000000000006

>  <m_primary>  (43) 
energy

>  <rmsd>  (43) 
2.303522175276369

>  <m_score__min__rmsd>  (43) 
2.303522175276369

>  <meeko>  (43) 
{"free_energy": -9.36, "intermolecular_energy": -11.15, "internal_energy": -2.3, "cluster_size": 26, "cluster_id": 2, "rank_in_cluster": 10}

>  <energy>  (43) 
-8.74

>  <cluster_rmsd>  (43) 
0.0

>  <cluster>  (43) 
7

$$$$

     RDKit          3D

 58 62  0  0  0  0  0  0  0  0999 V2000
  141.3890   72.1320  221.7560 O   0  0  0  0  0  0  0  0  0  0  0  0
  140.4040   72.2570  222.5370 C   0  0  0  0  0  0  0  0  0  0  0  0
  139.4440   73.2810  222.2230 N   0  0  0  0  0  0  0  0  0  0  0  0
  139.6390   74.0950  221.0680 C   0  0  0  0  0  0  0  0  0  0  0  0
  138.7270   75.2950  221.0760 C   0  0  0  0  0  0  0  0  0  0  0  0
  137.6690   75.1700  220.4120 O   0  0  0  0  0  0  0  0  0  0  0  0
  139.0750   76.4710  221.7950 N   0  0  0  0  0  0  0  0  0  0  0  0
  140.2760   77.2430  221.5380 C   0  0  0  0  0  0  0  0  0  0  0  0
  139.8210   78.6210  221.9330 C   0  0  2  0  0  0  0  0  0  0  0  0
  140.9060   79.4080  222.5710 C   0  0  0  0  0  0  0  0  0  0  0  0
  140.6110   80.5360  223.3240 C   0  0  0  0  0  0  0  0  0  0  0  0
  141.6320   81.2560  223.9110 C   0  0  0  0  0  0  0  0  0  0  0  0
  142.9620   80.9050  223.7840 C   0  0  0  0  0  0  0  0  0  0  0  0
  143.2610   79.7810  223.0340 C   0  0  0  0  0  0  0  0  0  0  0  0
  142.2440   79.0700  222.4540 C   0  0  0  0  0  0  0  0  0  0  0  0
  138.5980   78.4970  222.7920 C   0  0  0  0  0  0  0  0  0  0  0  0
  138.2980   77.0450  222.8620 C   0  0  1  0  0  0  0  0  0  0  0  0
  136.8540   76.7330  222.7920 C   0  0  0  0  0  0  0  0  0  0  0  0
  135.9390   77.4350  222.0600 C   0  0  0  0  0  0  0  0  0  0  0  0
  134.5870   77.1180  222.0120 C   0  0  0  0  0  0  0  0  0  0  0  0
  134.1310   76.0340  222.7420 C   0  0  0  0  0  0  0  0  0  0  0  0
  135.0250   75.2990  223.4940 C   0  0  0  0  0  0  0  0  0  0  0  0
  136.3610   75.6430  223.5180 C   0  0  0  0  0  0  0  0  0  0  0  0
  140.2070   71.4270  223.7090 C   0  0  0  0  0  0  0  0  0  0  0  0
  139.5060   70.2440  223.5940 C   0  0  0  0  0  0  0  0  0  0  0  0
  139.2710   69.3940  224.6520 C   0  0  0  0  0  0  0  0  0  0  0  0
  139.7890   69.7930  225.8880 C   0  0  0  0  0  0  0  0  0  0  0  0
  139.5890   68.9870  226.9890 C   0  0  0  0  0  0  0  0  0  0  0  0
  140.1110   69.4060  228.1920 C   0  0  0  0  0  0  0  0  0  0  0  0
  140.8180   70.5880  228.3400 C   0  0  0  0  0  0  0  0  0  0  0  0
  141.0080   71.3810  227.2240 C   0  0  0  0  0  0  0  0  0  0  0  0
  140.4900   70.9740  226.0040 C   0  0  0  0  0  0  0  0  0  0  0  0
  140.7010   71.7900  224.9290 N   0  0  0  0  0  0  0  0  0  0  0  0
  138.6020   73.4430  222.8240 H   0  0  0  0  0  0  0  0  0  0  0  0
  140.6832   74.4401  221.0464 H   0  0  0  0  0  0  0  0  0  0  0  0
  139.4068   73.4917  220.1780 H   0  0  0  0  0  0  0  0  0  0  0  0
  141.1166   76.9014  222.1598 H   0  0  0  0  0  0  0  0  0  0  0  0
  140.6517   77.1676  220.5069 H   0  0  0  0  0  0  0  0  0  0  0  0
  139.5554   79.1923  221.0313 H   0  0  0  0  0  0  0  0  0  0  0  0
  139.5663   80.8554  223.4527 H   0  0  0  0  0  0  0  0  0  0  0  0
  141.3760   82.1461  224.5044 H   0  0  0  0  0  0  0  0  0  0  0  0
  143.7555   81.4980  224.2622 H   0  0  0  0  0  0  0  0  0  0  0  0
  144.3056   79.4616  222.9049 H   0  0  0  0  0  0  0  0  0  0  0  0
  142.5047   78.1804  221.8619 H   0  0  0  0  0  0  0  0  0  0  0  0
  138.7944   78.8964  223.7979 H   0  0  0  0  0  0  0  0  0  0  0  0
  137.7526   79.0654  222.3770 H   0  0  0  0  0  0  0  0  0  0  0  0
  138.5714   76.6152  223.8369 H   0  0  0  0  0  0  0  0  0  0  0  0
  136.2917   78.2983  221.4767 H   0  0  0  0  0  0  0  0  0  0  0  0
  133.8922   77.7172  221.4053 H   0  0  0  0  0  0  0  0  0  0  0  0
  133.0656   75.7608  222.7230 H   0  0  0  0  0  0  0  0  0  0  0  0
  134.6710   74.4356  224.0765 H   0  0  0  0  0  0  0  0  0  0  0  0
  137.0571   75.0445  224.1240 H   0  0  0  0  0  0  0  0  0  0  0  0
  139.1140   69.9650  222.6048 H   0  0  0  0  0  0  0  0  0  0  0  0
  138.7088   68.4562  224.5317 H   0  0  0  0  0  0  0  0  0  0  0  0
  139.0317   68.0420  226.9087 H   0  0  0  0  0  0  0  0  0  0  0  0
  139.9594   68.7719  229.0780 H   0  0  0  0  0  0  0  0  0  0  0  0
  141.2177   70.8877  229.3200 H   0  0  0  0  0  0  0  0  0  0  0  0
  141.5650   72.3262  227.3030 H   0  0  0  0  0  0  0  0  0  0  0  0
  1  2  2  0
  2  3  1  0
  3  4  1  0
  4  5  1  0
  5  6  2  0
  5  7  1  0
  7  8  1  0
  8  9  1  0
  9 10  1  0
 10 11  2  0
 11 12  1  0
 12 13  2  0
 13 14  1  0
 14 15  2  0
  9 16  1  0
 16 17  1  0
 17 18  1  0
 18 19  2  0
 19 20  1  0
 20 21  2  0
 21 22  1  0
 22 23  2  0
  2 24  1  0
 24 25  2  0
 25 26  1  0
 26 27  2  0
 27 28  1  0
 28 29  2  0
 29 30  1  0
 30 31  2  0
 31 32  1  0
 32 33  2  0
 17  7  1  0
 23 18  1  0
 33 24  1  0
 15 10  1  0
 32 27  1  0
  3 34  1  0
  4 35  1  0
  4 36  1  0
  8 37  1  0
  8 38  1  0
  9 39  1  6
 11 40  1  0
 12 41  1  0
 13 42  1  0
 14 43  1  0
 15 44  1  0
 16 45  1  0
 16 46  1  0
 17 47  1  1
 19 48  1  0
 20 49  1  0
 21 50  1  0
 22 51  1  0
 23 52  1  0
 25 53  1  0
 26 54  1  0
 28 55  1  0
 29 56  1  0
 30 57  1  0
 31 58  1  0
M  END
>  <smiles>  (44) 
O=C(NCC(=O)N1C[C@H](c2ccccc2)C[C@H]1c1ccccc1)c1ccc2ccccc2n1

>  <score_type>  (44) 
oracle

>  <origin>  (44) 
autodockgpu

>  <m_score__min__energy>  (44) 
-9.6400000000000006

>  <m_primary>  (44) 
energy

>  <rmsd>  (44) 
3.1564883548968954

>  <m_score__min__rmsd>  (44) 
3.1564883548968954

>  <meeko>  (44) 
{"free_energy": -9.58, "intermolecular_energy": -11.37, "internal_energy": -1.74, "cluster_size": 6, "cluster_id": 1, "rank_in_cluster": 2}

>  <energy>  (44) 
-8.74

>  <cluster_rmsd>  (44) 
0.45

>  <cluster>  (44) 
7

$$$$

     RDKit          3D

 58 62  0  0  0  0  0  0  0  0999 V2000
  137.9750   75.5800  219.9360 O   0  0  0  0  0  0  0  0  0  0  0  0
  138.5690   75.8230  221.0240 C   0  0  0  0  0  0  0  0  0  0  0  0
  138.2760   74.9610  222.1380 N   0  0  0  0  0  0  0  0  0  0  0  0
  137.3460   73.8910  221.9710 C   0  0  0  0  0  0  0  0  0  0  0  0
  138.0470   72.5620  221.8590 C   0  0  0  0  0  0  0  0  0  0  0  0
  137.8170   71.9200  220.8050 O   0  0  0  0  0  0  0  0  0  0  0  0
  138.9010   72.0970  222.8980 N   0  0  0  0  0  0  0  0  0  0  0  0
  138.4880   71.1430  223.9090 C   0  0  0  0  0  0  0  0  0  0  0  0
  139.7950   70.4640  224.2130 C   0  0  2  0  0  0  0  0  0  0  0  0
  139.9170   70.1000  225.6470 C   0  0  0  0  0  0  0  0  0  0  0  0
  139.6700   68.8020  226.0690 C   0  0  0  0  0  0  0  0  0  0  0  0
  139.7890   68.4810  227.4070 C   0  0  0  0  0  0  0  0  0  0  0  0
  140.1490   69.4050  228.3680 C   0  0  0  0  0  0  0  0  0  0  0  0
  140.3970   70.7010  227.9510 C   0  0  0  0  0  0  0  0  0  0  0  0
  140.2770   71.0150  226.6220 C   0  0  0  0  0  0  0  0  0  0  0  0
  140.9150   71.3350  223.7260 C   0  0  0  0  0  0  0  0  0  0  0  0
  140.2680   72.5070  223.0870 C   0  0  1  0  0  0  0  0  0  0  0  0
  140.9400   72.9530  221.8480 C   0  0  0  0  0  0  0  0  0  0  0  0
  141.3360   74.2360  221.5930 C   0  0  0  0  0  0  0  0  0  0  0  0
  141.9670   74.6270  220.4190 C   0  0  0  0  0  0  0  0  0  0  0  0
  142.2130   73.6730  219.4450 C   0  0  0  0  0  0  0  0  0  0  0  0
  141.8280   72.3670  219.6650 C   0  0  0  0  0  0  0  0  0  0  0  0
  141.2040   72.0140  220.8440 C   0  0  0  0  0  0  0  0  0  0  0  0
  139.5140   76.9090  221.1900 C   0  0  0  0  0  0  0  0  0  0  0  0
  139.9800   77.5800  220.0780 C   0  0  0  0  0  0  0  0  0  0  0  0
  140.8770   78.6240  220.1410 C   0  0  0  0  0  0  0  0  0  0  0  0
  141.3100   78.9870  221.4200 C   0  0  0  0  0  0  0  0  0  0  0  0
  142.2080   80.0240  221.5530 C   0  0  0  0  0  0  0  0  0  0  0  0
  142.6150   80.3590  222.8250 C   0  0  0  0  0  0  0  0  0  0  0  0
  142.1660   79.7050  223.9600 C   0  0  0  0  0  0  0  0  0  0  0  0
  141.2650   78.6680  223.8050 C   0  0  0  0  0  0  0  0  0  0  0  0
  140.8440   78.3180  222.5320 C   0  0  0  0  0  0  0  0  0  0  0  0
  139.9530   77.2870  222.4260 N   0  0  0  0  0  0  0  0  0  0  0  0
  138.7300   75.1000  223.0710 H   0  0  0  0  0  0  0  0  0  0  0  0
  136.6699   73.8665  222.8384 H   0  0  0  0  0  0  0  0  0  0  0  0
  136.7843   74.0641  221.0412 H   0  0  0  0  0  0  0  0  0  0  0  0
  138.0784   71.6470  224.7968 H   0  0  0  0  0  0  0  0  0  0  0  0
  137.6863   70.4613  223.5889 H   0  0  0  0  0  0  0  0  0  0  0  0
  139.8441   69.5044  223.6775 H   0  0  0  0  0  0  0  0  0  0  0  0
  139.3802   68.0307  225.3402 H   0  0  0  0  0  0  0  0  0  0  0  0
  139.5886   67.4458  227.7203 H   0  0  0  0  0  0  0  0  0  0  0  0
  140.2355   69.1210  229.4272 H   0  0  0  0  0  0  0  0  0  0  0  0
  140.6878   71.4723  228.6794 H   0  0  0  0  0  0  0  0  0  0  0  0
  140.4778   72.0514  226.3129 H   0  0  0  0  0  0  0  0  0  0  0  0
  141.5439   71.6572  224.5690 H   0  0  0  0  0  0  0  0  0  0  0  0
  141.5673   70.7988  223.0211 H   0  0  0  0  0  0  0  0  0  0  0  0
  140.3366   73.4078  223.7145 H   0  0  0  0  0  0  0  0  0  0  0  0
  141.1444   75.0011  222.3597 H   0  0  0  0  0  0  0  0  0  0  0  0
  142.2658   75.6745  220.2655 H   0  0  0  0  0  0  0  0  0  0  0  0
  142.7106   73.9544  218.5052 H   0  0  0  0  0  0  0  0  0  0  0  0
  142.0193   71.6032  218.8969 H   0  0  0  0  0  0  0  0  0  0  0  0
  140.9060   70.9666  220.9991 H   0  0  0  0  0  0  0  0  0  0  0  0
  139.6161   77.2648  219.0889 H   0  0  0  0  0  0  0  0  0  0  0  0
  141.2318   79.1418  219.2377 H   0  0  0  0  0  0  0  0  0  0  0  0
  142.5865   80.5653  220.6734 H   0  0  0  0  0  0  0  0  0  0  0  0
  143.3309   81.1855  222.9453 H   0  0  0  0  0  0  0  0  0  0  0  0
  142.5171   80.0029  224.9590 H   0  0  0  0  0  0  0  0  0  0  0  0
  140.8859   78.1258  224.6838 H   0  0  0  0  0  0  0  0  0  0  0  0
  1  2  2  0
  2  3  1  0
  3  4  1  0
  4  5  1  0
  5  6  2  0
  5  7  1  0
  7  8  1  0
  8  9  1  0
  9 10  1  0
 10 11  2  0
 11 12  1  0
 12 13  2  0
 13 14  1  0
 14 15  2  0
  9 16  1  0
 16 17  1  0
 17 18  1  0
 18 19  2  0
 19 20  1  0
 20 21  2  0
 21 22  1  0
 22 23  2  0
  2 24  1  0
 24 25  2  0
 25 26  1  0
 26 27  2  0
 27 28  1  0
 28 29  2  0
 29 30  1  0
 30 31  2  0
 31 32  1  0
 32 33  2  0
 17  7  1  0
 23 18  1  0
 33 24  1  0
 15 10  1  0
 32 27  1  0
  3 34  1  0
  4 35  1  0
  4 36  1  0
  8 37  1  0
  8 38  1  0
  9 39  1  6
 11 40  1  0
 12 41  1  0
 13 42  1  0
 14 43  1  0
 15 44  1  0
 16 45  1  0
 16 46  1  0
 17 47  1  1
 19 48  1  0
 20 49  1  0
 21 50  1  0
 22 51  1  0
 23 52  1  0
 25 53  1  0
 26 54  1  0
 28 55  1  0
 29 56  1  0
 30 57  1  0
 31 58  1  0
M  END
>  <smiles>  (45) 
O=C(NCC(=O)N1C[C@H](c2ccccc2)C[C@H]1c1ccccc1)c1ccc2ccccc2n1

>  <score_type>  (45) 
oracle

>  <origin>  (45) 
autodockgpu

>  <m_score__min__energy>  (45) 
-9.6400000000000006

>  <m_primary>  (45) 
energy

>  <rmsd>  (45) 
7.987240523129046

>  <m_score__min__rmsd>  (45) 
7.987240523129046

>  <meeko>  (45) 
{"free_energy": -8.4, "intermolecular_energy": -10.19, "internal_energy": -2.76, "cluster_size": 8, "cluster_id": 7, "rank_in_cluster": 3}

>  <energy>  (45) 
-8.4

>  <cluster_rmsd>  (45) 
1.15

>  <cluster>  (45) 
7

$$$$

     RDKit          3D

 58 62  0  0  0  0  0  0  0  0999 V2000
  140.7180   71.4790  221.2550 O   0  0  0  0  0  0  0  0  0  0  0  0
  140.3300   72.0400  222.3180 C   0  0  0  0  0  0  0  0  0  0  0  0
  140.0340   73.4460  222.2470 N   0  0  0  0  0  0  0  0  0  0  0  0
  140.1870   74.1330  221.0050 C   0  0  0  0  0  0  0  0  0  0  0  0
  140.8960   75.4500  221.1860 C   0  0  0  0  0  0  0  0  0  0  0  0
  140.9200   75.8910  222.3610 O   0  0  0  0  0  0  0  0  0  0  0  0
  141.4840   76.1200  220.0780 N   0  0  0  0  0  0  0  0  0  0  0  0
  141.1880   77.4950  219.7240 C   0  0  0  0  0  0  0  0  0  0  0  0
  142.4860   77.9130  219.0870 C   0  0  2  0  0  0  0  0  0  0  0  0
  142.2790   78.8460  217.9520 C   0  0  0  0  0  0  0  0  0  0  0  0
  142.3670   80.2180  218.1410 C   0  0  0  0  0  0  0  0  0  0  0  0
  142.1720   81.0720  217.0740 C   0  0  0  0  0  0  0  0  0  0  0  0
  141.8870   80.6210  215.7990 C   0  0  0  0  0  0  0  0  0  0  0  0
  141.7990   79.2540  215.6060 C   0  0  0  0  0  0  0  0  0  0  0  0
  141.9930   78.4110  216.6690 C   0  0  0  0  0  0  0  0  0  0  0  0
  143.2540   76.6810  218.7080 C   0  0  0  0  0  0  0  0  0  0  0  0
  142.4330   75.5340  219.1680 C   0  0  1  0  0  0  0  0  0  0  0  0
  143.2270   74.4330  219.7530 C   0  0  0  0  0  0  0  0  0  0  0  0
  142.8680   73.1150  219.7300 C   0  0  0  0  0  0  0  0  0  0  0  0
  143.6360   72.0990  220.2880 C   0  0  0  0  0  0  0  0  0  0  0  0
  144.8310   72.4290  220.9030 C   0  0  0  0  0  0  0  0  0  0  0  0
  145.2290   73.7500  220.9460 C   0  0  0  0  0  0  0  0  0  0  0  0
  144.4410   74.7330  220.3820 C   0  0  0  0  0  0  0  0  0  0  0  0
  140.1740   71.3390  223.5770 C   0  0  0  0  0  0  0  0  0  0  0  0
  139.5670   70.1010  223.5950 C   0  0  0  0  0  0  0  0  0  0  0  0
  139.3770   69.3630  224.7420 C   0  0  0  0  0  0  0  0  0  0  0  0
  139.8400   69.9410  225.9280 C   0  0  0  0  0  0  0  0  0  0  0  0
  139.6820   69.2550  227.1130 C   0  0  0  0  0  0  0  0  0  0  0  0
  140.1490   69.8490  228.2640 C   0  0  0  0  0  0  0  0  0  0  0  0
  140.7630   71.0910  228.2800 C   0  0  0  0  0  0  0  0  0  0  0  0
  140.9130   71.7620  227.0800 C   0  0  0  0  0  0  0  0  0  0  0  0
  140.4490   71.1780  225.9120 C   0  0  0  0  0  0  0  0  0  0  0  0
  140.6180   71.8780  224.7500 N   0  0  0  0  0  0  0  0  0  0  0  0
  139.7070   73.9780  223.0870 H   0  0  0  0  0  0  0  0  0  0  0  0
  140.7719   73.5037  220.3181 H   0  0  0  0  0  0  0  0  0  0  0  0
  139.1858   74.3335  220.5959 H   0  0  0  0  0  0  0  0  0  0  0  0
  140.3506   77.5580  219.0135 H   0  0  0  0  0  0  0  0  0  0  0  0
  140.8749   78.1239  220.5704 H   0  0  0  0  0  0  0  0  0  0  0  0
  143.0834   78.4860  219.8115 H   0  0  0  0  0  0  0  0  0  0  0  0
  142.5915   80.6240  219.1384 H   0  0  0  0  0  0  0  0  0  0  0  0
  142.2465   82.1560  217.2456 H   0  0  0  0  0  0  0  0  0  0  0  0
  141.7355   81.3244  214.9669 H   0  0  0  0  0  0  0  0  0  0  0  0
  141.5754   78.8474  214.6087 H   0  0  0  0  0  0  0  0  0  0  0  0
  141.9172   77.3278  216.4930 H   0  0  0  0  0  0  0  0  0  0  0  0
  143.3951   76.6380  217.6179 H   0  0  0  0  0  0  0  0  0  0  0  0
  144.2544   76.6714  219.1653 H   0  0  0  0  0  0  0  0  0  0  0  0
  141.9304   75.0267  218.3313 H   0  0  0  0  0  0  0  0  0  0  0  0
  141.9197   72.8427  219.2435 H   0  0  0  0  0  0  0  0  0  0  0  0
  143.3000   71.0526  220.2415 H   0  0  0  0  0  0  0  0  0  0  0  0
  145.4581   71.6456  221.3536 H   0  0  0  0  0  0  0  0  0  0  0  0
  146.1781   74.0205  221.4318 H   0  0  0  0  0  0  0  0  0  0  0  0
  144.7759   75.7798  220.4281 H   0  0  0  0  0  0  0  0  0  0  0  0
  139.2155   69.6801  222.6414 H   0  0  0  0  0  0  0  0  0  0  0  0
  138.8897   68.3769  224.7261 H   0  0  0  0  0  0  0  0  0  0  0  0
  139.1994   68.2669  227.1383 H   0  0  0  0  0  0  0  0  0  0  0  0
  140.0289   69.3119  229.2164 H   0  0  0  0  0  0  0  0  0  0  0  0
  141.1216   71.5316  229.2220 H   0  0  0  0  0  0  0  0  0  0  0  0
  141.3960   72.7499  227.0529 H   0  0  0  0  0  0  0  0  0  0  0  0
  1  2  2  0
  2  3  1  0
  3  4  1  0
  4  5  1  0
  5  6  2  0
  5  7  1  0
  7  8  1  0
  8  9  1  0
  9 10  1  0
 10 11  2  0
 11 12  1  0
 12 13  2  0
 13 14  1  0
 14 15  2  0
  9 16  1  0
 16 17  1  0
 17 18  1  0
 18 19  2  0
 19 20  1  0
 20 21  2  0
 21 22  1  0
 22 23  2  0
  2 24  1  0
 24 25  2  0
 25 26  1  0
 26 27  2  0
 27 28  1  0
 28 29  2  0
 29 30  1  0
 30 31  2  0
 31 32  1  0
 32 33  2  0
 17  7  1  0
 23 18  1  0
 33 24  1  0
 15 10  1  0
 32 27  1  0
  3 34  1  0
  4 35  1  0
  4 36  1  0
  8 37  1  0
  8 38  1  0
  9 39  1  1
 11 40  1  0
 12 41  1  0
 13 42  1  0
 14 43  1  0
 15 44  1  0
 16 45  1  0
 16 46  1  0
 17 47  1  6
 19 48  1  0
 20 49  1  0
 21 50  1  0
 22 51  1  0
 23 52  1  0
 25 53  1  0
 26 54  1  0
 28 55  1  0
 29 56  1  0
 30 57  1  0
 31 58  1  0
M  END
>  <smiles>  (46) 
O=C(NCC(=O)N1C[C@H](c2ccccc2)C[C@H]1c1ccccc1)c1ccc2ccccc2n1

>  <score_type>  (46) 
oracle

>  <origin>  (46) 
autodockgpu

>  <m_score__min__energy>  (46) 
-9.6400000000000006

>  <m_primary>  (46) 
energy

>  <rmsd>  (46) 
2.314542654570253

>  <m_score__min__rmsd>  (46) 
2.314542654570253

>  <meeko>  (46) 
{"free_energy": -9.33, "intermolecular_energy": -11.12, "internal_energy": -2.38, "cluster_size": 26, "cluster_id": 2, "rank_in_cluster": 20}

>  <energy>  (46) 
-8.38

>  <cluster_rmsd>  (46) 
1.13

>  <cluster>  (46) 
7

$$$$

     RDKit          3D

 58 62  0  0  0  0  0  0  0  0999 V2000
  140.8040   71.5760  221.2350 O   0  0  0  0  0  0  0  0  0  0  0  0
  140.3570   72.1100  222.2890 C   0  0  0  0  0  0  0  0  0  0  0  0
  139.9930   73.4990  222.2160 N   0  0  0  0  0  0  0  0  0  0  0  0
  140.1470   74.2020  220.9830 C   0  0  0  0  0  0  0  0  0  0  0  0
  140.9830   75.4430  221.1530 C   0  0  0  0  0  0  0  0  0  0  0  0
  141.1220   75.8380  222.3370 O   0  0  0  0  0  0  0  0  0  0  0  0
  141.5580   76.0970  220.0290 N   0  0  0  0  0  0  0  0  0  0  0  0
  141.2370   77.4570  219.6410 C   0  0  0  0  0  0  0  0  0  0  0  0
  142.5260   77.8830  218.9940 C   0  0  2  0  0  0  0  0  0  0  0  0
  142.3010   78.7840  217.8350 C   0  0  0  0  0  0  0  0  0  0  0  0
  142.0170   78.2630  216.5810 C   0  0  0  0  0  0  0  0  0  0  0  0
  141.8100   79.1150  215.5150 C   0  0  0  0  0  0  0  0  0  0  0  0
  141.8720   80.4890  215.6350 C   0  0  0  0  0  0  0  0  0  0  0  0
  142.1540   81.0130  216.8840 C   0  0  0  0  0  0  0  0  0  0  0  0
  142.3600   80.1630  217.9380 C   0  0  0  0  0  0  0  0  0  0  0  0
  143.3160   76.6570  218.6440 C   0  0  0  0  0  0  0  0  0  0  0  0
  142.5170   75.5060  219.1330 C   0  0  1  0  0  0  0  0  0  0  0  0
  143.3330   74.4350  219.7440 C   0  0  0  0  0  0  0  0  0  0  0  0
  144.5010   74.6340  220.4230 C   0  0  0  0  0  0  0  0  0  0  0  0
  145.2460   73.6060  220.9890 C   0  0  0  0  0  0  0  0  0  0  0  0
  144.7900   72.3050  220.8630 C   0  0  0  0  0  0  0  0  0  0  0  0
  143.6140   72.0630  220.1840 C   0  0  0  0  0  0  0  0  0  0  0  0
  142.8990   73.1080  219.6350 C   0  0  0  0  0  0  0  0  0  0  0  0
  140.2000   71.3950  223.5390 C   0  0  0  0  0  0  0  0  0  0  0  0
  139.5290   70.1890  223.5530 C   0  0  0  0  0  0  0  0  0  0  0  0
  139.3330   69.4410  224.6920 C   0  0  0  0  0  0  0  0  0  0  0  0
  139.8590   69.9710  225.8740 C   0  0  0  0  0  0  0  0  0  0  0  0
  139.6980   69.2720  227.0520 C   0  0  0  0  0  0  0  0  0  0  0  0
  140.2280   69.8190  228.1980 C   0  0  0  0  0  0  0  0  0  0  0  0
  140.9060   71.0260  228.2180 C   0  0  0  0  0  0  0  0  0  0  0  0
  141.0570   71.7110  227.0260 C   0  0  0  0  0  0  0  0  0  0  0  0
  140.5310   71.1750  225.8620 C   0  0  0  0  0  0  0  0  0  0  0  0
  140.7040   71.8870  224.7090 N   0  0  0  0  0  0  0  0  0  0  0  0
  139.6150   74.0100  223.0480 H   0  0  0  0  0  0  0  0  0  0  0  0
  140.6355   73.5397  220.2531 H   0  0  0  0  0  0  0  0  0  0  0  0
  139.1492   74.5047  220.6326 H   0  0  0  0  0  0  0  0  0  0  0  0
  140.3987   77.4868  218.9294 H   0  0  0  0  0  0  0  0  0  0  0  0
  140.9123   78.1008  220.4718 H   0  0  0  0  0  0  0  0  0  0  0  0
  143.1126   78.4843  219.7042 H   0  0  0  0  0  0  0  0  0  0  0  0
  141.9570   77.1742  216.4367 H   0  0  0  0  0  0  0  0  0  0  0  0
  141.5864   78.6814  214.5291 H   0  0  0  0  0  0  0  0  0  0  0  0
  141.7031   81.1443  214.7678 H   0  0  0  0  0  0  0  0  0  0  0  0
  142.2122   82.1018  217.0291 H   0  0  0  0  0  0  0  0  0  0  0  0
  142.5850   80.6009  218.9217 H   0  0  0  0  0  0  0  0  0  0  0  0
  143.4567   76.5902  217.5551 H   0  0  0  0  0  0  0  0  0  0  0  0
  144.3168   76.6772  219.1000 H   0  0  0  0  0  0  0  0  0  0  0  0
  142.0231   74.9680  218.3104 H   0  0  0  0  0  0  0  0  0  0  0  0
  144.8726   75.6640  220.5278 H   0  0  0  0  0  0  0  0  0  0  0  0
  146.1807   73.8223  221.5271 H   0  0  0  0  0  0  0  0  0  0  0  0
  145.3601   71.4721  221.3003 H   0  0  0  0  0  0  0  0  0  0  0  0
  143.2443   71.0323  220.0796 H   0  0  0  0  0  0  0  0  0  0  0  0
  141.9636   72.8929  219.0976 H   0  0  0  0  0  0  0  0  0  0  0  0
  139.1293   69.8048  222.6029 H   0  0  0  0  0  0  0  0  0  0  0  0
  138.7940   68.4823  224.6732 H   0  0  0  0  0  0  0  0  0  0  0  0
  139.1643   68.3104  227.0746 H   0  0  0  0  0  0  0  0  0  0  0  0
  140.1072   69.2708  229.1440 H   0  0  0  0  0  0  0  0  0  0  0  0
  141.3136   71.4293  229.1567 H   0  0  0  0  0  0  0  0  0  0  0  0
  141.5901   72.6729  227.0025 H   0  0  0  0  0  0  0  0  0  0  0  0
  1  2  2  0
  2  3  1  0
  3  4  1  0
  4  5  1  0
  5  6  2  0
  5  7  1  0
  7  8  1  0
  8  9  1  0
  9 10  1  0
 10 11  2  0
 11 12  1  0
 12 13  2  0
 13 14  1  0
 14 15  2  0
  9 16  1  0
 16 17  1  0
 17 18  1  0
 18 19  2  0
 19 20  1  0
 20 21  2  0
 21 22  1  0
 22 23  2  0
  2 24  1  0
 24 25  2  0
 25 26  1  0
 26 27  2  0
 27 28  1  0
 28 29  2  0
 29 30  1  0
 30 31  2  0
 31 32  1  0
 32 33  2  0
 17  7  1  0
 23 18  1  0
 33 24  1  0
 15 10  1  0
 32 27  1  0
  3 34  1  0
  4 35  1  0
  4 36  1  0
  8 37  1  0
  8 38  1  0
  9 39  1  1
 11 40  1  0
 12 41  1  0
 13 42  1  0
 14 43  1  0
 15 44  1  0
 16 45  1  0
 16 46  1  0
 17 47  1  6
 19 48  1  0
 20 49  1  0
 21 50  1  0
 22 51  1  0
 23 52  1  0
 25 53  1  0
 26 54  1  0
 28 55  1  0
 29 56  1  0
 30 57  1  0
 31 58  1  0
M  END
>  <smiles>  (47) 
O=C(NCC(=O)N1C[C@H](c2ccccc2)C[C@H]1c1ccccc1)c1ccc2ccccc2n1

>  <score_type>  (47) 
oracle

>  <origin>  (47) 
autodockgpu

>  <m_score__min__energy>  (47) 
-9.6400000000000006

>  <m_primary>  (47) 
energy

>  <rmsd>  (47) 
2.317160781552946

>  <m_score__min__rmsd>  (47) 
2.317160781552946

>  <meeko>  (47) 
{"free_energy": -9.31, "intermolecular_energy": -11.1, "internal_energy": -2.31, "cluster_size": 26, "cluster_id": 2, "rank_in_cluster": 21}

>  <energy>  (47) 
-8.37

>  <cluster_rmsd>  (47) 
1.19

>  <cluster>  (47) 
7

$$$$

     RDKit          3D

 58 62  0  0  0  0  0  0  0  0999 V2000
  140.8970   71.4880  221.3380 O   0  0  0  0  0  0  0  0  0  0  0  0
  140.4140   72.0500  222.3610 C   0  0  0  0  0  0  0  0  0  0  0  0
  140.0570   73.4380  222.2400 N   0  0  0  0  0  0  0  0  0  0  0  0
  140.2580   74.1080  220.9960 C   0  0  0  0  0  0  0  0  0  0  0  0
  140.9910   75.4110  221.1820 C   0  0  0  0  0  0  0  0  0  0  0  0
  141.0460   75.8330  222.3630 O   0  0  0  0  0  0  0  0  0  0  0  0
  141.5660   76.0900  220.0720 N   0  0  0  0  0  0  0  0  0  0  0  0
  141.2460   77.4590  219.7170 C   0  0  0  0  0  0  0  0  0  0  0  0
  142.5350   77.8990  219.0780 C   0  0  2  0  0  0  0  0  0  0  0  0
  142.3100   78.8260  217.9420 C   0  0  0  0  0  0  0  0  0  0  0  0
  142.4200   80.1980  218.1180 C   0  0  0  0  0  0  0  0  0  0  0  0
  142.2080   81.0470  217.0500 C   0  0  0  0  0  0  0  0  0  0  0  0
  141.8860   80.5910  215.7870 C   0  0  0  0  0  0  0  0  0  0  0  0
  141.7770   79.2230  215.6060 C   0  0  0  0  0  0  0  0  0  0  0  0
  141.9870   78.3860  216.6700 C   0  0  0  0  0  0  0  0  0  0  0  0
  143.3240   76.6800  218.7010 C   0  0  0  0  0  0  0  0  0  0  0  0
  142.5240   75.5200  219.1630 C   0  0  1  0  0  0  0  0  0  0  0  0
  143.3380   74.4330  219.7480 C   0  0  0  0  0  0  0  0  0  0  0  0
  144.4920   74.6170  220.4560 C   0  0  0  0  0  0  0  0  0  0  0  0
  145.2370   73.5760  220.9960 C   0  0  0  0  0  0  0  0  0  0  0  0
  144.7960   72.2760  220.8140 C   0  0  0  0  0  0  0  0  0  0  0  0
  143.6340   72.0490  220.1050 C   0  0  0  0  0  0  0  0  0  0  0  0
  142.9190   73.1080  219.5820 C   0  0  0  0  0  0  0  0  0  0  0  0
  140.2090   71.3660  223.6230 C   0  0  0  0  0  0  0  0  0  0  0  0
  139.5040   70.1810  223.6470 C   0  0  0  0  0  0  0  0  0  0  0  0
  139.2620   69.4630  224.7970 C   0  0  0  0  0  0  0  0  0  0  0  0
  139.7770   70.0040  225.9790 C   0  0  0  0  0  0  0  0  0  0  0  0
  139.5700   69.3360  227.1670 C   0  0  0  0  0  0  0  0  0  0  0  0
  140.0900   69.8930  228.3140 C   0  0  0  0  0  0  0  0  0  0  0  0
  140.8010   71.0810  228.3230 C   0  0  0  0  0  0  0  0  0  0  0  0
  140.9990   71.7350  227.1210 C   0  0  0  0  0  0  0  0  0  0  0  0
  140.4830   71.1880  225.9570 C   0  0  0  0  0  0  0  0  0  0  0  0
  140.7010   71.8700  224.7930 N   0  0  0  0  0  0  0  0  0  0  0  0
  139.6510   73.9700  223.0460 H   0  0  0  0  0  0  0  0  0  0  0  0
  140.8467   73.4586  220.3314 H   0  0  0  0  0  0  0  0  0  0  0  0
  139.2725   74.3261  220.5586 H   0  0  0  0  0  0  0  0  0  0  0  0
  140.4066   77.5067  219.0076 H   0  0  0  0  0  0  0  0  0  0  0  0
  140.9234   78.0832  220.5633 H   0  0  0  0  0  0  0  0  0  0  0  0
  143.1232   78.4843  219.8001 H   0  0  0  0  0  0  0  0  0  0  0  0
  142.6755   80.6083  219.1061 H   0  0  0  0  0  0  0  0  0  0  0  0
  142.2993   82.1312  217.2119 H   0  0  0  0  0  0  0  0  0  0  0  0
  141.7219   81.2903  214.9539 H   0  0  0  0  0  0  0  0  0  0  0  0
  141.5242   78.8120  214.6175 H   0  0  0  0  0  0  0  0  0  0  0  0
  141.8936   77.3026  216.5040 H   0  0  0  0  0  0  0  0  0  0  0  0
  143.4654   76.6376  217.6110 H   0  0  0  0  0  0  0  0  0  0  0  0
  144.3245   76.6888  219.1582 H   0  0  0  0  0  0  0  0  0  0  0  0
  142.0294   75.0027  218.3276 H   0  0  0  0  0  0  0  0  0  0  0  0
  144.8509   75.6458  220.6067 H   0  0  0  0  0  0  0  0  0  0  0  0
  146.1603   73.7807  221.5579 H   0  0  0  0  0  0  0  0  0  0  0  0
  145.3663   71.4326  221.2304 H   0  0  0  0  0  0  0  0  0  0  0  0
  143.2758   71.0197  219.9559 H   0  0  0  0  0  0  0  0  0  0  0  0
  141.9955   72.9049  219.0199 H   0  0  0  0  0  0  0  0  0  0  0  0
  139.1140   69.7882  222.6964 H   0  0  0  0  0  0  0  0  0  0  0  0
  138.6968   68.5194  224.7863 H   0  0  0  0  0  0  0  0  0  0  0  0
  139.0087   68.3905  227.1977 H   0  0  0  0  0  0  0  0  0  0  0  0
  139.9330   69.3692  229.2684 H   0  0  0  0  0  0  0  0  0  0  0  0
  141.1981   71.4938  229.2621 H   0  0  0  0  0  0  0  0  0  0  0  0
  141.5606   72.6803  227.0890 H   0  0  0  0  0  0  0  0  0  0  0  0
  1  2  2  0
  2  3  1  0
  3  4  1  0
  4  5  1  0
  5  6  2  0
  5  7  1  0
  7  8  1  0
  8  9  1  0
  9 10  1  0
 10 11  2  0
 11 12  1  0
 12 13  2  0
 13 14  1  0
 14 15  2  0
  9 16  1  0
 16 17  1  0
 17 18  1  0
 18 19  2  0
 19 20  1  0
 20 21  2  0
 21 22  1  0
 22 23  2  0
  2 24  1  0
 24 25  2  0
 25 26  1  0
 26 27  2  0
 27 28  1  0
 28 29  2  0
 29 30  1  0
 30 31  2  0
 31 32  1  0
 32 33  2  0
 17  7  1  0
 23 18  1  0
 33 24  1  0
 15 10  1  0
 32 27  1  0
  3 34  1  0
  4 35  1  0
  4 36  1  0
  8 37  1  0
  8 38  1  0
  9 39  1  1
 11 40  1  0
 12 41  1  0
 13 42  1  0
 14 43  1  0
 15 44  1  0
 16 45  1  0
 16 46  1  0
 17 47  1  6
 19 48  1  0
 20 49  1  0
 21 50  1  0
 22 51  1  0
 23 52  1  0
 25 53  1  0
 26 54  1  0
 28 55  1  0
 29 56  1  0
 30 57  1  0
 31 58  1  0
M  END
>  <smiles>  (48) 
O=C(NCC(=O)N1C[C@H](c2ccccc2)C[C@H]1c1ccccc1)c1ccc2ccccc2n1

>  <score_type>  (48) 
oracle

>  <origin>  (48) 
autodockgpu

>  <m_score__min__energy>  (48) 
-9.6400000000000006

>  <m_primary>  (48) 
energy

>  <rmsd>  (48) 
2.3547234149614757

>  <m_score__min__rmsd>  (48) 
2.3547234149614757

>  <meeko>  (48) 
{"free_energy": -9.37, "intermolecular_energy": -11.16, "internal_energy": -2.31, "cluster_size": 26, "cluster_id": 2, "rank_in_cluster": 6}

>  <energy>  (48) 
-8.37

>  <cluster_rmsd>  (48) 
1.11

>  <cluster>  (48) 
7

$$$$

     RDKit          3D

 58 62  0  0  0  0  0  0  0  0999 V2000
  140.6860   71.7100  221.1820 O   0  0  0  0  0  0  0  0  0  0  0  0
  140.2730   72.1950  222.2730 C   0  0  0  0  0  0  0  0  0  0  0  0
  139.9010   73.5840  222.2750 N   0  0  0  0  0  0  0  0  0  0  0  0
  140.0120   74.3420  221.0700 C   0  0  0  0  0  0  0  0  0  0  0  0
  141.0830   75.3960  221.1760 C   0  0  0  0  0  0  0  0  0  0  0  0
  141.4260   75.6980  222.3450 O   0  0  0  0  0  0  0  0  0  0  0  0
  141.6430   75.9880  220.0100 N   0  0  0  0  0  0  0  0  0  0  0  0
  141.2610   77.2950  219.5120 C   0  0  0  0  0  0  0  0  0  0  0  0
  142.5370   77.7340  218.8490 C   0  0  2  0  0  0  0  0  0  0  0  0
  142.2870   78.5290  217.6200 C   0  0  0  0  0  0  0  0  0  0  0  0
  142.3130   77.9240  216.3710 C   0  0  0  0  0  0  0  0  0  0  0  0
  142.0780   78.6780  215.2390 C   0  0  0  0  0  0  0  0  0  0  0  0
  141.8110   80.0320  215.2860 C   0  0  0  0  0  0  0  0  0  0  0  0
  141.7820   80.6390  216.5290 C   0  0  0  0  0  0  0  0  0  0  0  0
  142.0170   79.8860  217.6500 C   0  0  0  0  0  0  0  0  0  0  0  0
  143.3940   76.5260  218.6070 C   0  0  0  0  0  0  0  0  0  0  0  0
  142.6450   75.3790  219.1750 C   0  0  1  0  0  0  0  0  0  0  0  0
  143.5020   74.4010  219.8800 C   0  0  0  0  0  0  0  0  0  0  0  0
  143.1830   73.0890  220.0850 C   0  0  0  0  0  0  0  0  0  0  0  0
  144.0090   72.1910  220.7510 C   0  0  0  0  0  0  0  0  0  0  0  0
  145.2260   72.6400  221.2370 C   0  0  0  0  0  0  0  0  0  0  0  0
  145.5840   73.9590  221.0490 C   0  0  0  0  0  0  0  0  0  0  0  0
  144.7380   74.8230  220.3830 C   0  0  0  0  0  0  0  0  0  0  0  0
  140.1600   71.4230  223.4950 C   0  0  0  0  0  0  0  0  0  0  0  0
  139.5520   70.1850  223.4620 C   0  0  0  0  0  0  0  0  0  0  0  0
  139.4010   69.3830  224.5720 C   0  0  0  0  0  0  0  0  0  0  0  0
  139.9050   69.8930  225.7720 C   0  0  0  0  0  0  0  0  0  0  0  0
  139.7860   69.1400  226.9210 C   0  0  0  0  0  0  0  0  0  0  0  0
  140.2930   69.6680  228.0870 C   0  0  0  0  0  0  0  0  0  0  0  0
  140.9070   70.9080  228.1530 C   0  0  0  0  0  0  0  0  0  0  0  0
  141.0170   71.6460  226.9890 C   0  0  0  0  0  0  0  0  0  0  0  0
  140.5130   71.1300  225.8060 C   0  0  0  0  0  0  0  0  0  0  0  0
  140.6430   71.8940  224.6810 N   0  0  0  0  0  0  0  0  0  0  0  0
  139.5500   74.0550  223.1420 H   0  0  0  0  0  0  0  0  0  0  0  0
  140.2607   73.6620  220.2419 H   0  0  0  0  0  0  0  0  0  0  0  0
  139.0504   74.8448  220.8894 H   0  0  0  0  0  0  0  0  0  0  0  0
  140.4337   77.2263  218.7903 H   0  0  0  0  0  0  0  0  0  0  0  0
  140.8915   77.9845  220.2853 H   0  0  0  0  0  0  0  0  0  0  0  0
  143.0806   78.4184  219.5169 H   0  0  0  0  0  0  0  0  0  0  0  0
  142.5202   76.8472  216.2836 H   0  0  0  0  0  0  0  0  0  0  0  0
  142.1045   78.1796  214.2587 H   0  0  0  0  0  0  0  0  0  0  0  0
  141.6277   80.6081  214.3670 H   0  0  0  0  0  0  0  0  0  0  0  0
  141.5724   81.7153  216.6168 H   0  0  0  0  0  0  0  0  0  0  0  0
  141.9894   80.3884  218.6282 H   0  0  0  0  0  0  0  0  0  0  0  0
  143.5563   76.3813  217.5287 H   0  0  0  0  0  0  0  0  0  0  0  0
  144.3850   76.6328  219.0723 H   0  0  0  0  0  0  0  0  0  0  0  0
  142.1925   74.7552  218.3900 H   0  0  0  0  0  0  0  0  0  0  0  0
  142.2191   72.7226  219.7019 H   0  0  0  0  0  0  0  0  0  0  0  0
  143.7021   71.1438  220.8895 H   0  0  0  0  0  0  0  0  0  0  0  0
  145.9003   71.9517  221.7676 H   0  0  0  0  0  0  0  0  0  0  0  0
  146.5485   74.3241  221.4317 H   0  0  0  0  0  0  0  0  0  0  0  0
  145.0434   75.8706  220.2440 H   0  0  0  0  0  0  0  0  0  0  0  0
  139.1675   69.8189  222.4986 H   0  0  0  0  0  0  0  0  0  0  0  0
  138.9124   68.3990  224.5172 H   0  0  0  0  0  0  0  0  0  0  0  0
  139.3028   68.1519  226.9065 H   0  0  0  0  0  0  0  0  0  0  0  0
  140.2064   69.0768  229.0106 H   0  0  0  0  0  0  0  0  0  0  0  0
  141.2966   71.2952  229.1060 H   0  0  0  0  0  0  0  0  0  0  0  0
  141.5003   72.6340  227.0020 H   0  0  0  0  0  0  0  0  0  0  0  0
  1  2  2  0
  2  3  1  0
  3  4  1  0
  4  5  1  0
  5  6  2  0
  5  7  1  0
  7  8  1  0
  8  9  1  0
  9 10  1  0
 10 11  2  0
 11 12  1  0
 12 13  2  0
 13 14  1  0
 14 15  2  0
  9 16  1  0
 16 17  1  0
 17 18  1  0
 18 19  2  0
 19 20  1  0
 20 21  2  0
 21 22  1  0
 22 23  2  0
  2 24  1  0
 24 25  2  0
 25 26  1  0
 26 27  2  0
 27 28  1  0
 28 29  2  0
 29 30  1  0
 30 31  2  0
 31 32  1  0
 32 33  2  0
 17  7  1  0
 23 18  1  0
 33 24  1  0
 15 10  1  0
 32 27  1  0
  3 34  1  0
  4 35  1  0
  4 36  1  0
  8 37  1  0
  8 38  1  0
  9 39  1  1
 11 40  1  0
 12 41  1  0
 13 42  1  0
 14 43  1  0
 15 44  1  0
 16 45  1  0
 16 46  1  0
 17 47  1  6
 19 48  1  0
 20 49  1  0
 21 50  1  0
 22 51  1  0
 23 52  1  0
 25 53  1  0
 26 54  1  0
 28 55  1  0
 29 56  1  0
 30 57  1  0
 31 58  1  0
M  END
>  <smiles>  (49) 
O=C(NCC(=O)N1C[C@H](c2ccccc2)C[C@H]1c1ccccc1)c1ccc2ccccc2n1

>  <score_type>  (49) 
oracle

>  <origin>  (49) 
autodockgpu

>  <m_score__min__energy>  (49) 
-9.6400000000000006

>  <m_primary>  (49) 
energy

>  <rmsd>  (49) 
2.264086404360314

>  <m_score__min__rmsd>  (49) 
2.264086404360314

>  <meeko>  (49) 
{"free_energy": -9.2, "intermolecular_energy": -10.99, "internal_energy": -2.24, "cluster_size": 26, "cluster_id": 2, "rank_in_cluster": 25}

>  <energy>  (49) 
-8.3

>  <cluster_rmsd>  (49) 
1.13

>  <cluster>  (49) 
7

$$$$

     RDKit          3D

 58 62  0  0  0  0  0  0  0  0999 V2000
  134.7670   68.4830  225.0790 O   0  0  0  0  0  0  0  0  0  0  0  0
  135.2310   69.6530  224.9810 C   0  0  0  0  0  0  0  0  0  0  0  0
  136.4700   69.8090  224.2680 N   0  0  0  0  0  0  0  0  0  0  0  0
  137.1090   68.6610  223.7110 C   0  0  0  0  0  0  0  0  0  0  0  0
  138.5730   68.6170  224.0630 C   0  0  0  0  0  0  0  0  0  0  0  0
  138.9710   67.5430  224.5760 O   0  0  0  0  0  0  0  0  0  0  0  0
  139.4170   69.7360  223.8180 N   0  0  0  0  0  0  0  0  0  0  0  0
  139.2180   70.6660  222.7220 C   0  0  0  0  0  0  0  0  0  0  0  0
  139.7860   71.9280  223.3100 C   0  0  2  0  0  0  0  0  0  0  0  0
  140.4800   72.7570  222.2940 C   0  0  0  0  0  0  0  0  0  0  0  0
  139.9990   74.0160  221.9610 C   0  0  0  0  0  0  0  0  0  0  0  0
  140.6580   74.7740  221.0140 C   0  0  0  0  0  0  0  0  0  0  0  0
  141.7960   74.3350  220.3650 C   0  0  0  0  0  0  0  0  0  0  0  0
  142.2790   73.0810  220.6940 C   0  0  0  0  0  0  0  0  0  0  0  0
  141.6210   72.3320  221.6350 C   0  0  0  0  0  0  0  0  0  0  0  0
  140.6590   71.5660  224.4750 C   0  0  0  0  0  0  0  0  0  0  0  0
  140.5660   70.0910  224.6080 C   0  0  1  0  0  0  0  0  0  0  0  0
  140.5010   69.6250  226.0100 C   0  0  0  0  0  0  0  0  0  0  0  0
  141.0850   68.4830  226.4790 C   0  0  0  0  0  0  0  0  0  0  0  0
  141.0090   68.0690  227.8040 C   0  0  0  0  0  0  0  0  0  0  0  0
  140.3040   68.8480  228.7060 C   0  0  0  0  0  0  0  0  0  0  0  0
  139.7000   70.0100  228.2700 C   0  0  0  0  0  0  0  0  0  0  0  0
  139.7980   70.3900  226.9460 C   0  0  0  0  0  0  0  0  0  0  0  0
  134.5800   70.8180  225.5460 C   0  0  0  0  0  0  0  0  0  0  0  0
  133.5720   70.6500  226.4740 C   0  0  0  0  0  0  0  0  0  0  0  0
  132.8980   71.6970  227.0630 C   0  0  0  0  0  0  0  0  0  0  0  0
  133.2910   72.9800  226.6690 C   0  0  0  0  0  0  0  0  0  0  0  0
  132.6570   74.0730  227.2200 C   0  0  0  0  0  0  0  0  0  0  0  0
  133.0650   75.3230  226.8130 C   0  0  0  0  0  0  0  0  0  0  0  0
  134.0730   75.5250  225.8840 C   0  0  0  0  0  0  0  0  0  0  0  0
  134.6960   74.4150  225.3440 C   0  0  0  0  0  0  0  0  0  0  0  0
  134.2980   73.1490  225.7430 C   0  0  0  0  0  0  0  0  0  0  0  0
  134.9420   72.0830  225.1820 N   0  0  0  0  0  0  0  0  0  0  0  0
  136.9160   70.7490  224.1460 H   0  0  0  0  0  0  0  0  0  0  0  0
  136.6205   67.7559  224.1010 H   0  0  0  0  0  0  0  0  0  0  0  0
  137.0194   68.7143  222.6159 H   0  0  0  0  0  0  0  0  0  0  0  0
  139.7703   70.3550  221.8229 H   0  0  0  0  0  0  0  0  0  0  0  0
  138.1747   70.7525  222.3844 H   0  0  0  0  0  0  0  0  0  0  0  0
  138.9664   72.5644  223.6750 H   0  0  0  0  0  0  0  0  0  0  0  0
  139.0954   74.4084  222.4503 H   0  0  0  0  0  0  0  0  0  0  0  0
  140.2605   75.7692  220.7657 H   0  0  0  0  0  0  0  0  0  0  0  0
  142.3001   74.9603  219.6134 H   0  0  0  0  0  0  0  0  0  0  0  0
  143.1828   72.6885  220.2050 H   0  0  0  0  0  0  0  0  0  0  0  0
  142.0221   71.3375  221.8802 H   0  0  0  0  0  0  0  0  0  0  0  0
  141.6990   71.8683  224.2827 H   0  0  0  0  0  0  0  0  0  0  0  0
  140.3378   72.0762  225.3951 H   0  0  0  0  0  0  0  0  0  0  0  0
  141.4750   69.5873  224.2474 H   0  0  0  0  0  0  0  0  0  0  0  0
  141.6460   67.8567  225.7698 H   0  0  0  0  0  0  0  0  0  0  0  0
  141.4997   67.1400  228.1298 H   0  0  0  0  0  0  0  0  0  0  0  0
  140.2260   68.5436  229.7602 H   0  0  0  0  0  0  0  0  0  0  0  0
  139.1386   70.6355  228.9796 H   0  0  0  0  0  0  0  0  0  0  0  0
  139.3098   71.3198  226.6187 H   0  0  0  0  0  0  0  0  0  0  0  0
  133.2920   69.6250  226.7584 H   0  0  0  0  0  0  0  0  0  0  0  0
  132.0978   71.5336  227.7999 H   0  0  0  0  0  0  0  0  0  0  0  0
  131.8523   73.9504  227.9599 H   0  0  0  0  0  0  0  0  0  0  0  0
  132.5672   76.2033  227.2458 H   0  0  0  0  0  0  0  0  0  0  0  0
  134.3696   76.5410  225.5842 H   0  0  0  0  0  0  0  0  0  0  0  0
  135.5008   74.5359  224.6039 H   0  0  0  0  0  0  0  0  0  0  0  0
  1  2  2  0
  2  3  1  0
  3  4  1  0
  4  5  1  0
  5  6  2  0
  5  7  1  0
  7  8  1  0
  8  9  1  0
  9 10  1  0
 10 11  2  0
 11 12  1  0
 12 13  2  0
 13 14  1  0
 14 15  2  0
  9 16  1  0
 16 17  1  0
 17 18  1  0
 18 19  2  0
 19 20  1  0
 20 21  2  0
 21 22  1  0
 22 23  2  0
  2 24  1  0
 24 25  2  0
 25 26  1  0
 26 27  2  0
 27 28  1  0
 28 29  2  0
 29 30  1  0
 30 31  2  0
 31 32  1  0
 32 33  2  0
 17  7  1  0
 23 18  1  0
 33 24  1  0
 15 10  1  0
 32 27  1  0
  3 34  1  0
  4 35  1  0
  4 36  1  0
  8 37  1  0
  8 38  1  0
  9 39  1  1
 11 40  1  0
 12 41  1  0
 13 42  1  0
 14 43  1  0
 15 44  1  0
 16 45  1  0
 16 46  1  0
 17 47  1  6
 19 48  1  0
 20 49  1  0
 21 50  1  0
 22 51  1  0
 23 52  1  0
 25 53  1  0
 26 54  1  0
 28 55  1  0
 29 56  1  0
 30 57  1  0
 31 58  1  0
M  END
>  <smiles>  (50) 
O=C(NCC(=O)N1C[C@H](c2ccccc2)C[C@H]1c1ccccc1)c1ccc2ccccc2n1

>  <score_type>  (50) 
oracle

>  <origin>  (50) 
autodockgpu

>  <m_score__min__energy>  (50) 
-9.6400000000000006

>  <m_primary>  (50) 
energy

>  <rmsd>  (50) 
7.247484929328568

>  <m_score__min__rmsd>  (50) 
7.247484929328568

>  <meeko>  (50) 
{"free_energy": -9.19, "intermolecular_energy": -10.98, "internal_energy": -2.12, "cluster_size": 2, "cluster_id": 3, "rank_in_cluster": 2}

>  <energy>  (50) 
-8.28

>  <cluster_rmsd>  (50) 
1.13

>  <cluster>  (50) 
7

$$$$
