
     RDKit          3D

 56 59  0  0  0  0  0  0  0  0999 V2000
  140.5830   72.2160  221.0690 O   0  0  0  0  0  0  0  0  0  0  0  0
  140.0330   72.5310  222.1640 C   0  0  0  0  0  0  0  0  0  0  0  0
  139.3690   73.7950  222.1850 N   0  0  0  0  0  0  0  0  0  0  0  0
  139.4150   74.5570  220.9410 C   0  0  0  0  0  0  0  0  0  0  0  0
  140.4660   75.5950  220.9610 C   0  0  0  0  0  0  0  0  0  0  0  0
  141.5990   75.4000  220.4650 O   0  0  0  0  0  0  0  0  0  0  0  0
  140.1630   76.8360  221.5600 N   0  0  0  0  0  0  0  0  0  0  0  0
  139.2150   76.9910  222.6680 C   0  0  0  0  0  0  0  0  0  0  0  0
  138.3310   78.1900  222.5310 C   0  0  0  0  0  0  0  0  0  0  0  0
  138.4190   78.9820  221.2880 C   0  0  0  0  0  0  0  0  0  0  0  0
  139.6550   78.8460  220.4640 C   0  0  0  0  0  0  0  0  0  0  0  0
  140.7580   78.1090  221.1100 C   0  0  1  0  0  0  0  0  0  0  0  0
  141.5340   78.7610  222.1720 C   0  0  0  0  0  0  0  0  0  0  0  0
  142.2180   79.9830  221.8740 N   0  0  0  0  0  0  0  0  0  0  0  0
  143.3320   80.1900  222.8310 C   0  0  0  0  0  0  0  0  0  0  0  0
  142.5960   80.2460  224.1410 C   0  0  0  0  0  0  0  0  0  0  0  0
  141.3620   81.0530  223.7750 C   0  0  0  0  0  0  0  0  0  0  0  0
  141.4540   81.1870  222.2670 C   0  0  0  0  0  0  0  0  0  0  0  0
  140.0860   71.6450  223.3210 C   0  0  0  0  0  0  0  0  0  0  0  0
  139.6090   70.3620  223.1680 C   0  0  0  0  0  0  0  0  0  0  0  0
  139.6110   69.4320  224.1870 C   0  0  0  0  0  0  0  0  0  0  0  0
  140.1340   69.8660  225.4060 C   0  0  0  0  0  0  0  0  0  0  0  0
  140.1630   68.9770  226.4620 C   0  0  0  0  0  0  0  0  0  0  0  0
  140.6700   69.3300  227.7140 C   0  0  0  0  0  0  0  0  0  0  0  0
  140.7000   68.1860  229.0450 Cl  0  0  0  0  0  0  0  0  0  0  0  0
  141.1390   70.6220  227.8310 C   0  0  0  0  0  0  0  0  0  0  0  0
  141.1220   71.5310  226.7930 C   0  0  0  0  0  0  0  0  0  0  0  0
  140.6150   71.1510  225.5680 C   0  0  0  0  0  0  0  0  0  0  0  0
  140.5840   72.0250  224.5180 N   0  0  0  0  0  0  0  0  0  0  0  0
  138.8930   74.1220  223.0440 H   0  0  0  0  0  0  0  0  0  0  0  0
  139.6157   73.8656  220.1093 H   0  0  0  0  0  0  0  0  0  0  0  0
  138.4450   75.0609  220.8175 H   0  0  0  0  0  0  0  0  0  0  0  0
  138.5806   76.0934  222.7121 H   0  0  0  0  0  0  0  0  0  0  0  0
  139.8071   77.1275  223.5849 H   0  0  0  0  0  0  0  0  0  0  0  0
  137.2917   77.8415  222.6231 H   0  0  0  0  0  0  0  0  0  0  0  0
  138.6781   78.8765  223.3173 H   0  0  0  0  0  0  0  0  0  0  0  0
  137.5681   78.6930  220.6536 H   0  0  0  0  0  0  0  0  0  0  0  0
  138.4244   80.0289  221.6257 H   0  0  0  0  0  0  0  0  0  0  0  0
  139.3899   78.3185  219.5359 H   0  0  0  0  0  0  0  0  0  0  0  0
  140.0257   79.8679  220.2955 H   0  0  0  0  0  0  0  0  0  0  0  0
  141.5523   78.0058  220.3561 H   0  0  0  0  0  0  0  0  0  0  0  0
  140.8385   78.9726  222.9975 H   0  0  0  0  0  0  0  0  0  0  0  0
  142.3436   78.0479  222.3866 H   0  0  0  0  0  0  0  0  0  0  0  0
  144.0442   79.3521  222.8058 H   0  0  0  0  0  0  0  0  0  0  0  0
  143.9432   81.0803  222.6217 H   0  0  0  0  0  0  0  0  0  0  0  0
  142.3257   79.2388  224.4911 H   0  0  0  0  0  0  0  0  0  0  0  0
  143.1840   80.6821  224.9621 H   0  0  0  0  0  0  0  0  0  0  0  0
  140.4446   80.5206  224.0662 H   0  0  0  0  0  0  0  0  0  0  0  0
  141.3212   82.0254  224.2876 H   0  0  0  0  0  0  0  0  0  0  0  0
  140.4543   81.1885  221.8082 H   0  0  0  0  0  0  0  0  0  0  0  0
  141.9261   82.1260  221.9424 H   0  0  0  0  0  0  0  0  0  0  0  0
  139.2078   70.0651  222.1878 H   0  0  0  0  0  0  0  0  0  0  0  0
  139.2244   68.4117  224.0474 H   0  0  0  0  0  0  0  0  0  0  0  0
  139.7745   67.9588  226.3122 H   0  0  0  0  0  0  0  0  0  0  0  0
  141.5471   70.9438  228.8005 H   0  0  0  0  0  0  0  0  0  0  0  0
  141.5094   72.5498  226.9413 H   0  0  0  0  0  0  0  0  0  0  0  0
  1  2  2  0
  2  3  1  0
  3  4  1  0
  4  5  1  0
  5  6  2  0
  5  7  1  0
  7  8  1  0
  8  9  1  0
  9 10  1  0
 10 11  1  0
 11 12  1  0
 12 13  1  0
 13 14  1  0
 14 15  1  0
 15 16  1  0
 16 17  1  0
 17 18  1  0
  2 19  1  0
 19 20  2  0
 20 21  1  0
 21 22  2  0
 22 23  1  0
 23 24  2  0
 24 25  1  0
 24 26  1  0
 26 27  2  0
 27 28  1  0
 28 29  2  0
 12  7  1  0
 18 14  1  0
 29 19  1  0
 28 22  1  0
  3 30  1  0
  4 31  1  0
  4 32  1  0
  8 33  1  0
  8 34  1  0
  9 35  1  0
  9 36  1  0
 10 37  1  0
 10 38  1  0
 11 39  1  0
 11 40  1  0
 12 41  1  6
 13 42  1  0
 13 43  1  0
 15 44  1  0
 15 45  1  0
 16 46  1  0
 16 47  1  0
 17 48  1  0
 17 49  1  0
 18 50  1  0
 18 51  1  0
 20 52  1  0
 21 53  1  0
 23 54  1  0
 26 55  1  0
 27 56  1  0
M  END
>  <smiles>  (1) 
O=C(NCC(=O)N1CCCC[C@H]1CN1CCCC1)c1ccc2cc(Cl)ccc2n1

>  <score_type>  (1) 
oracle

>  <origin>  (1) 
autodockgpu

>  <m_score__min__energy>  (1) 
-8.25

>  <m_primary>  (1) 
energy

>  <rmsd>  (1) 
2.794964380527071

>  <m_score__min__rmsd>  (1) 
2.794964380527071

>  <meeko>  (1) 
{"free_energy": -8.07, "intermolecular_energy": -9.86, "internal_energy": -1.49, "cluster_size": 25, "cluster_id": 1, "rank_in_cluster": 5}

>  <energy>  (1) 
-8.25

>  <cluster_rmsd>  (1) 
0.0

>  <cluster>  (1) 
1

$$$$

     RDKit          3D

 56 59  0  0  0  0  0  0  0  0999 V2000
  139.0660   75.8060  223.0790 O   0  0  0  0  0  0  0  0  0  0  0  0
  139.6420   75.9160  221.9580 C   0  0  0  0  0  0  0  0  0  0  0  0
  139.2430   77.0320  221.1620 N   0  0  0  0  0  0  0  0  0  0  0  0
  138.2230   77.8970  221.7450 C   0  0  0  0  0  0  0  0  0  0  0  0
  138.7750   79.1970  222.1790 C   0  0  0  0  0  0  0  0  0  0  0  0
  138.0380   80.1400  222.5470 O   0  0  0  0  0  0  0  0  0  0  0  0
  140.1760   79.3590  222.1740 N   0  0  0  0  0  0  0  0  0  0  0  0
  141.0710   78.6980  223.1290 C   0  0  0  0  0  0  0  0  0  0  0  0
  142.1640   79.5860  223.6330 C   0  0  0  0  0  0  0  0  0  0  0  0
  142.1500   81.0060  223.2290 C   0  0  0  0  0  0  0  0  0  0  0  0
  141.3640   81.3750  222.0170 C   0  0  0  0  0  0  0  0  0  0  0  0
  140.8780   80.2340  221.2160 C   0  0  1  0  0  0  0  0  0  0  0  0
  141.8250   79.4880  220.3780 C   0  0  0  0  0  0  0  0  0  0  0  0
  141.3730   78.3030  219.7160 N   0  0  0  0  0  0  0  0  0  0  0  0
  142.4940   77.6730  218.9770 C   0  0  0  0  0  0  0  0  0  0  0  0
  142.8680   78.7660  218.0120 C   0  0  0  0  0  0  0  0  0  0  0  0
  141.5070   79.3010  217.6000 C   0  0  0  0  0  0  0  0  0  0  0  0
  140.5430   78.5830  218.5240 C   0  0  0  0  0  0  0  0  0  0  0  0
  140.6450   74.9520  221.5240 C   0  0  0  0  0  0  0  0  0  0  0  0
  140.3270   73.6130  221.6090 C   0  0  0  0  0  0  0  0  0  0  0  0
  141.1920   72.6100  221.2240 C   0  0  0  0  0  0  0  0  0  0  0  0
  142.4300   73.0270  220.7340 C   0  0  0  0  0  0  0  0  0  0  0  0
  143.3350   72.0640  220.3330 C   0  0  0  0  0  0  0  0  0  0  0  0
  144.5950   72.3960  219.8310 C   0  0  0  0  0  0  0  0  0  0  0  0
  145.7330   71.1590  219.3250 Cl  0  0  0  0  0  0  0  0  0  0  0  0
  144.8800   73.7440  219.7610 C   0  0  0  0  0  0  0  0  0  0  0  0
  143.9940   74.7270  220.1540 C   0  0  0  0  0  0  0  0  0  0  0  0
  142.7570   74.3660  220.6460 C   0  0  0  0  0  0  0  0  0  0  0  0
  141.8550   75.3120  221.0440 N   0  0  0  0  0  0  0  0  0  0  0  0
  139.6710   77.1910  220.2320 H   0  0  0  0  0  0  0  0  0  0  0  0
  137.4401   78.0777  220.9937 H   0  0  0  0  0  0  0  0  0  0  0  0
  137.8169   77.3895  222.6324 H   0  0  0  0  0  0  0  0  0  0  0  0
  140.4741   78.3581  223.9882 H   0  0  0  0  0  0  0  0  0  0  0  0
  141.5508   77.8622  222.5987 H   0  0  0  0  0  0  0  0  0  0  0  0
  142.1258   79.5590  224.7320 H   0  0  0  0  0  0  0  0  0  0  0  0
  143.0782   79.1808  223.1747 H   0  0  0  0  0  0  0  0  0  0  0  0
  141.7433   81.5833  224.0724 H   0  0  0  0  0  0  0  0  0  0  0  0
  143.1935   81.2288  222.9616 H   0  0  0  0  0  0  0  0  0  0  0  0
  140.4910   81.9601  222.3418 H   0  0  0  0  0  0  0  0  0  0  0  0
  142.0496   81.9372  221.3659 H   0  0  0  0  0  0  0  0  0  0  0  0
  140.2417   80.6534  220.4228 H   0  0  0  0  0  0  0  0  0  0  0  0
  142.1806   80.1782  219.5988 H   0  0  0  0  0  0  0  0  0  0  0  0
  142.5807   79.1238  221.0895 H   0  0  0  0  0  0  0  0  0  0  0  0
  143.3297   77.4262  219.6484 H   0  0  0  0  0  0  0  0  0  0  0  0
  142.2341   76.7187  218.4955 H   0  0  0  0  0  0  0  0  0  0  0  0
  143.4715   79.5437  218.5029 H   0  0  0  0  0  0  0  0  0  0  0  0
  143.4838   78.4217  217.1681 H   0  0  0  0  0  0  0  0  0  0  0  0
  141.4530   80.3899  217.7464 H   0  0  0  0  0  0  0  0  0  0  0  0
  141.2857   79.1287  216.5363 H   0  0  0  0  0  0  0  0  0  0  0  0
  139.6875   79.2254  218.7797 H   0  0  0  0  0  0  0  0  0  0  0  0
  140.1060   77.6779  218.0770 H   0  0  0  0  0  0  0  0  0  0  0  0
  139.3386   73.3320  222.0016 H   0  0  0  0  0  0  0  0  0  0  0  0
  140.9223   71.5462  221.2987 H   0  0  0  0  0  0  0  0  0  0  0  0
  143.0548   71.0032  220.4114 H   0  0  0  0  0  0  0  0  0  0  0  0
  145.8623   74.0509  219.3726 H   0  0  0  0  0  0  0  0  0  0  0  0
  144.2720   75.7884  220.0755 H   0  0  0  0  0  0  0  0  0  0  0  0
  1  2  2  0
  2  3  1  0
  3  4  1  0
  4  5  1  0
  5  6  2  0
  5  7  1  0
  7  8  1  0
  8  9  1  0
  9 10  1  0
 10 11  1  0
 11 12  1  0
 12 13  1  0
 13 14  1  0
 14 15  1  0
 15 16  1  0
 16 17  1  0
 17 18  1  0
  2 19  1  0
 19 20  2  0
 20 21  1  0
 21 22  2  0
 22 23  1  0
 23 24  2  0
 24 25  1  0
 24 26  1  0
 26 27  2  0
 27 28  1  0
 28 29  2  0
 12  7  1  0
 18 14  1  0
 29 19  1  0
 28 22  1  0
  3 30  1  0
  4 31  1  0
  4 32  1  0
  8 33  1  0
  8 34  1  0
  9 35  1  0
  9 36  1  0
 10 37  1  0
 10 38  1  0
 11 39  1  0
 11 40  1  0
 12 41  1  6
 13 42  1  0
 13 43  1  0
 15 44  1  0
 15 45  1  0
 16 46  1  0
 16 47  1  0
 17 48  1  0
 17 49  1  0
 18 50  1  0
 18 51  1  0
 20 52  1  0
 21 53  1  0
 23 54  1  0
 26 55  1  0
 27 56  1  0
M  END
>  <smiles>  (2) 
O=C(NCC(=O)N1CCCC[C@H]1CN1CCCC1)c1ccc2cc(Cl)ccc2n1

>  <score_type>  (2) 
oracle

>  <origin>  (2) 
autodockgpu

>  <m_score__min__energy>  (2) 
-8.25

>  <m_primary>  (2) 
energy

>  <rmsd>  (2) 
6.000924652856338

>  <m_score__min__rmsd>  (2) 
6.000924652856338

>  <meeko>  (2) 
{"free_energy": -5.99, "intermolecular_energy": -7.78, "internal_energy": -3.16, "cluster_size": 15, "cluster_id": 6, "rank_in_cluster": 12}

>  <energy>  (2) 
-8.18

>  <cluster_rmsd>  (2) 
0.2

>  <cluster>  (2) 
1

$$$$

     RDKit          3D

 56 59  0  0  0  0  0  0  0  0999 V2000
  140.9880   73.6010  221.9910 O   0  0  0  0  0  0  0  0  0  0  0  0
  140.0150   72.8320  222.2460 C   0  0  0  0  0  0  0  0  0  0  0  0
  138.8870   72.9490  221.3790 N   0  0  0  0  0  0  0  0  0  0  0  0
  139.0030   73.9420  220.3150 C   0  0  0  0  0  0  0  0  0  0  0  0
  138.5250   75.2740  220.7400 C   0  0  0  0  0  0  0  0  0  0  0  0
  137.3720   75.4480  221.1970 O   0  0  0  0  0  0  0  0  0  0  0  0
  139.4080   76.3670  220.6190 N   0  0  0  0  0  0  0  0  0  0  0  0
  139.2290   77.4500  219.6470 C   0  0  0  0  0  0  0  0  0  0  0  0
  140.5030   77.8780  218.9920 C   0  0  0  0  0  0  0  0  0  0  0  0
  141.7310   77.1140  219.2890 C   0  0  0  0  0  0  0  0  0  0  0  0
  141.7500   76.2870  220.5300 C   0  0  0  0  0  0  0  0  0  0  0  0
  140.6180   76.5140  221.4490 C   0  0  1  0  0  0  0  0  0  0  0  0
  140.5860   77.7370  222.2620 C   0  0  0  0  0  0  0  0  0  0  0  0
  141.8090   78.4460  222.4880 N   0  0  0  0  0  0  0  0  0  0  0  0
  141.8280   79.0020  223.8620 C   0  0  0  0  0  0  0  0  0  0  0  0
  140.6290   79.9120  223.8350 C   0  0  0  0  0  0  0  0  0  0  0  0
  140.7340   80.5290  222.4500 C   0  0  0  0  0  0  0  0  0  0  0  0
  141.8600   79.7510  221.7940 C   0  0  0  0  0  0  0  0  0  0  0  0
  140.0640   71.8930  223.3600 C   0  0  0  0  0  0  0  0  0  0  0  0
  139.5860   70.6190  223.1450 C   0  0  0  0  0  0  0  0  0  0  0  0
  139.5840   69.6430  224.1200 C   0  0  0  0  0  0  0  0  0  0  0  0
  140.1030   70.0190  225.3590 C   0  0  0  0  0  0  0  0  0  0  0  0
  140.1280   69.0810  226.3730 C   0  0  0  0  0  0  0  0  0  0  0  0
  140.6300   69.3760  227.6420 C   0  0  0  0  0  0  0  0  0  0  0  0
  140.6540   68.1710  228.9190 Cl  0  0  0  0  0  0  0  0  0  0  0  0
  141.0990   70.6600  227.8210 C   0  0  0  0  0  0  0  0  0  0  0  0
  141.0880   71.6160  226.8260 C   0  0  0  0  0  0  0  0  0  0  0  0
  140.5850   71.2950  225.5840 C   0  0  0  0  0  0  0  0  0  0  0  0
  140.5570   72.2160  224.5750 N   0  0  0  0  0  0  0  0  0  0  0  0
  138.0540   72.3520  221.5210 H   0  0  0  0  0  0  0  0  0  0  0  0
  140.0594   74.0225  220.0193 H   0  0  0  0  0  0  0  0  0  0  0  0
  138.3760   73.6107  219.4741 H   0  0  0  0  0  0  0  0  0  0  0  0
  138.5342   77.1064  218.8665 H   0  0  0  0  0  0  0  0  0  0  0  0
  138.8397   78.3190  220.1978 H   0  0  0  0  0  0  0  0  0  0  0  0
  140.3433   77.8289  217.9048 H   0  0  0  0  0  0  0  0  0  0  0  0
  140.6984   78.8790  219.4040 H   0  0  0  0  0  0  0  0  0  0  0  0
  141.9101   76.4373  218.4405 H   0  0  0  0  0  0  0  0  0  0  0  0
  142.5023   77.8807  219.4541 H   0  0  0  0  0  0  0  0  0  0  0  0
  141.7419   75.2276  220.2340 H   0  0  0  0  0  0  0  0  0  0  0  0
  142.6560   76.5802  221.0806 H   0  0  0  0  0  0  0  0  0  0  0  0
  140.7141   75.7738  222.2570 H   0  0  0  0  0  0  0  0  0  0  0  0
  139.8937   78.4352  221.7689 H   0  0  0  0  0  0  0  0  0  0  0  0
  140.2936   77.3845  223.2621 H   0  0  0  0  0  0  0  0  0  0  0  0
  141.7145   78.2104  224.6173 H   0  0  0  0  0  0  0  0  0  0  0  0
  142.7682   79.5072  224.1281 H   0  0  0  0  0  0  0  0  0  0  0  0
  139.6936   79.3447  223.9503 H   0  0  0  0  0  0  0  0  0  0  0  0
  140.6133   80.6504  224.6502 H   0  0  0  0  0  0  0  0  0  0  0  0
  139.7940   80.4038  221.8925 H   0  0  0  0  0  0  0  0  0  0  0  0
  140.9246   81.6120  222.4791 H   0  0  0  0  0  0  0  0  0  0  0  0
  141.6826   79.6324  220.7149 H   0  0  0  0  0  0  0  0  0  0  0  0
  142.8374   80.2488  221.8769 H   0  0  0  0  0  0  0  0  0  0  0  0
  139.1878   70.3686  222.1507 H   0  0  0  0  0  0  0  0  0  0  0  0
  139.1970   68.6306  223.9320 H   0  0  0  0  0  0  0  0  0  0  0  0
  139.7406   68.0708  226.1745 H   0  0  0  0  0  0  0  0  0  0  0  0
  141.5022   70.9363  228.8064 H   0  0  0  0  0  0  0  0  0  0  0  0
  141.4775   72.6258  227.0227 H   0  0  0  0  0  0  0  0  0  0  0  0
  1  2  2  0
  2  3  1  0
  3  4  1  0
  4  5  1  0
  5  6  2  0
  5  7  1  0
  7  8  1  0
  8  9  1  0
  9 10  1  0
 10 11  1  0
 11 12  1  0
 12 13  1  0
 13 14  1  0
 14 15  1  0
 15 16  1  0
 16 17  1  0
 17 18  1  0
  2 19  1  0
 19 20  2  0
 20 21  1  0
 21 22  2  0
 22 23  1  0
 23 24  2  0
 24 25  1  0
 24 26  1  0
 26 27  2  0
 27 28  1  0
 28 29  2  0
 12  7  1  0
 18 14  1  0
 29 19  1  0
 28 22  1  0
  3 30  1  0
  4 31  1  0
  4 32  1  0
  8 33  1  0
  8 34  1  0
  9 35  1  0
  9 36  1  0
 10 37  1  0
 10 38  1  0
 11 39  1  0
 11 40  1  0
 12 41  1  1
 13 42  1  0
 13 43  1  0
 15 44  1  0
 15 45  1  0
 16 46  1  0
 16 47  1  0
 17 48  1  0
 17 49  1  0
 18 50  1  0
 18 51  1  0
 20 52  1  0
 21 53  1  0
 23 54  1  0
 26 55  1  0
 27 56  1  0
M  END
>  <smiles>  (3) 
O=C(NCC(=O)N1CCCC[C@H]1CN1CCCC1)c1ccc2cc(Cl)ccc2n1

>  <score_type>  (3) 
oracle

>  <origin>  (3) 
autodockgpu

>  <m_score__min__energy>  (3) 
-8.25

>  <m_primary>  (3) 
energy

>  <rmsd>  (3) 
2.1165897765457182

>  <m_score__min__rmsd>  (3) 
2.1165897765457182

>  <meeko>  (3) 
{"free_energy": -7.42, "intermolecular_energy": -9.21, "internal_energy": -1.69, "cluster_size": 25, "cluster_id": 1, "rank_in_cluster": 22}

>  <energy>  (3) 
-8.13

>  <cluster_rmsd>  (3) 
0.5

>  <cluster>  (3) 
1

$$$$

     RDKit          3D

 56 59  0  0  0  0  0  0  0  0999 V2000
  138.9840   74.1390  222.2740 O   0  0  0  0  0  0  0  0  0  0  0  0
  140.1430   74.5430  221.9640 C   0  0  0  0  0  0  0  0  0  0  0  0
  140.3940   75.9320  222.1770 N   0  0  0  0  0  0  0  0  0  0  0  0
  139.2810   76.7030  222.7210 C   0  0  0  0  0  0  0  0  0  0  0  0
  139.3750   78.1370  222.3780 C   0  0  0  0  0  0  0  0  0  0  0  0
  138.3870   78.9030  222.4560 O   0  0  0  0  0  0  0  0  0  0  0  0
  140.6240   78.6390  221.9550 N   0  0  0  0  0  0  0  0  0  0  0  0
  141.8070   78.7010  222.8200 C   0  0  0  0  0  0  0  0  0  0  0  0
  142.5860   79.9690  222.6710 C   0  0  0  0  0  0  0  0  0  0  0  0
  142.0370   81.0270  221.8000 C   0  0  0  0  0  0  0  0  0  0  0  0
  141.0210   80.6300  220.7820 C   0  0  0  0  0  0  0  0  0  0  0  0
  140.8540   79.1750  220.6010 C   0  0  1  0  0  0  0  0  0  0  0  0
  141.8820   78.4180  219.8740 C   0  0  0  0  0  0  0  0  0  0  0  0
  141.9810   77.0070  220.0930 N   0  0  0  0  0  0  0  0  0  0  0  0
  143.3120   76.5170  219.6570 C   0  0  0  0  0  0  0  0  0  0  0  0
  143.3010   76.8760  218.1960 C   0  0  0  0  0  0  0  0  0  0  0  0
  141.8740   76.5350  217.7990 C   0  0  0  0  0  0  0  0  0  0  0  0
  141.2010   76.2120  219.1200 C   0  0  0  0  0  0  0  0  0  0  0  0
  141.1440   73.6300  221.4240 C   0  0  0  0  0  0  0  0  0  0  0  0
  140.7410   72.3500  221.1110 C   0  0  0  0  0  0  0  0  0  0  0  0
  141.5950   71.4000  220.5890 C   0  0  0  0  0  0  0  0  0  0  0  0
  142.9130   71.8110  220.3900 C   0  0  0  0  0  0  0  0  0  0  0  0
  143.8120   70.9010  219.8680 C   0  0  0  0  0  0  0  0  0  0  0  0
  145.1500   71.2300  219.6380 C   0  0  0  0  0  0  0  0  0  0  0  0
  146.2780   70.0610  218.9740 Cl  0  0  0  0  0  0  0  0  0  0  0  0
  145.5170   72.5190  219.9630 C   0  0  0  0  0  0  0  0  0  0  0  0
  144.6400   73.4480  220.4840 C   0  0  0  0  0  0  0  0  0  0  0  0
  143.3260   73.0920  220.7010 C   0  0  0  0  0  0  0  0  0  0  0  0
  142.4300   73.9860  221.2160 N   0  0  0  0  0  0  0  0  0  0  0  0
  141.3190   76.3370  221.9500 H   0  0  0  0  0  0  0  0  0  0  0  0
  138.3405   76.3025  222.3146 H   0  0  0  0  0  0  0  0  0  0  0  0
  139.3132   76.6151  223.8170 H   0  0  0  0  0  0  0  0  0  0  0  0
  141.4788   78.6143  223.8663 H   0  0  0  0  0  0  0  0  0  0  0  0
  142.4704   77.8755  222.5226 H   0  0  0  0  0  0  0  0  0  0  0  0
  142.7010   80.4011  223.6760 H   0  0  0  0  0  0  0  0  0  0  0  0
  143.5161   79.6602  222.1715 H   0  0  0  0  0  0  0  0  0  0  0  0
  141.5714   81.7806  222.4522 H   0  0  0  0  0  0  0  0  0  0  0  0
  142.8979   81.3769  221.2115 H   0  0  0  0  0  0  0  0  0  0  0  0
  140.0508   81.0494  221.0868 H   0  0  0  0  0  0  0  0  0  0  0  0
  141.3826   81.0198  219.8190 H   0  0  0  0  0  0  0  0  0  0  0  0
  140.0148   79.0381  219.9032 H   0  0  0  0  0  0  0  0  0  0  0  0
  141.6945   78.5665  218.8003 H   0  0  0  0  0  0  0  0  0  0  0  0
  142.8311   78.8156  220.2629 H   0  0  0  0  0  0  0  0  0  0  0  0
  144.1243   77.0318  220.1910 H   0  0  0  0  0  0  0  0  0  0  0  0
  143.4829   75.4485  219.8546 H   0  0  0  0  0  0  0  0  0  0  0  0
  143.5135   77.9447  218.0452 H   0  0  0  0  0  0  0  0  0  0  0  0
  144.0644   76.3502  217.6038 H   0  0  0  0  0  0  0  0  0  0  0  0
  141.3874   77.3918  217.3100 H   0  0  0  0  0  0  0  0  0  0  0  0
  141.8184   75.7060  217.0781 H   0  0  0  0  0  0  0  0  0  0  0  0
  140.1455   76.5215  219.1122 H   0  0  0  0  0  0  0  0  0  0  0  0
  141.1891   75.1362  219.3492 H   0  0  0  0  0  0  0  0  0  0  0  0
  139.6908   72.0729  221.2851 H   0  0  0  0  0  0  0  0  0  0  0  0
  141.2574   70.3819  220.3450 H   0  0  0  0  0  0  0  0  0  0  0  0
  143.4634   69.8861  219.6260 H   0  0  0  0  0  0  0  0  0  0  0  0
  146.5616   72.8218  219.7986 H   0  0  0  0  0  0  0  0  0  0  0  0
  144.9863   74.4641  220.7242 H   0  0  0  0  0  0  0  0  0  0  0  0
  1  2  2  0
  2  3  1  0
  3  4  1  0
  4  5  1  0
  5  6  2  0
  5  7  1  0
  7  8  1  0
  8  9  1  0
  9 10  1  0
 10 11  1  0
 11 12  1  0
 12 13  1  0
 13 14  1  0
 14 15  1  0
 15 16  1  0
 16 17  1  0
 17 18  1  0
  2 19  1  0
 19 20  2  0
 20 21  1  0
 21 22  2  0
 22 23  1  0
 23 24  2  0
 24 25  1  0
 24 26  1  0
 26 27  2  0
 27 28  1  0
 28 29  2  0
 12  7  1  0
 18 14  1  0
 29 19  1  0
 28 22  1  0
  3 30  1  0
  4 31  1  0
  4 32  1  0
  8 33  1  0
  8 34  1  0
  9 35  1  0
  9 36  1  0
 10 37  1  0
 10 38  1  0
 11 39  1  0
 11 40  1  0
 12 41  1  6
 13 42  1  0
 13 43  1  0
 15 44  1  0
 15 45  1  0
 16 46  1  0
 16 47  1  0
 17 48  1  0
 17 49  1  0
 18 50  1  0
 18 51  1  0
 20 52  1  0
 21 53  1  0
 23 54  1  0
 26 55  1  0
 27 56  1  0
M  END
>  <smiles>  (4) 
O=C(NCC(=O)N1CCCC[C@H]1CN1CCCC1)c1ccc2cc(Cl)ccc2n1

>  <score_type>  (4) 
oracle

>  <origin>  (4) 
autodockgpu

>  <m_score__min__energy>  (4) 
-8.25

>  <m_primary>  (4) 
energy

>  <rmsd>  (4) 
5.779828796400401

>  <m_score__min__rmsd>  (4) 
5.779828796400401

>  <meeko>  (4) 
{"free_energy": -5.76, "intermolecular_energy": -7.55, "internal_energy": -3.29, "cluster_size": 15, "cluster_id": 6, "rank_in_cluster": 14}

>  <energy>  (4) 
-8.12

>  <cluster_rmsd>  (4) 
1.19

>  <cluster>  (4) 
1

$$$$

     RDKit          3D

 56 59  0  0  0  0  0  0  0  0999 V2000
  139.8650   72.1420  220.8370 O   0  0  0  0  0  0  0  0  0  0  0  0
  139.7620   72.5660  222.0250 C   0  0  0  0  0  0  0  0  0  0  0  0
  139.5270   73.9670  222.1660 N   0  0  0  0  0  0  0  0  0  0  0  0
  139.4380   74.7250  220.9220 C   0  0  0  0  0  0  0  0  0  0  0  0
  138.5860   75.9240  221.0580 C   0  0  0  0  0  0  0  0  0  0  0  0
  137.3360   75.8570  221.0060 O   0  0  0  0  0  0  0  0  0  0  0  0
  139.2170   77.1700  221.2540 N   0  0  0  0  0  0  0  0  0  0  0  0
  139.6070   78.0610  220.1570 C   0  0  0  0  0  0  0  0  0  0  0  0
  140.9490   78.6930  220.3530 C   0  0  0  0  0  0  0  0  0  0  0  0
  141.7530   78.2740  221.5170 C   0  0  0  0  0  0  0  0  0  0  0  0
  141.0410   77.6240  222.6560 C   0  0  0  0  0  0  0  0  0  0  0  0
  139.5680   77.6890  222.5890 C   0  0  1  0  0  0  0  0  0  0  0  0
  138.8900   78.9580  222.8850 C   0  0  0  0  0  0  0  0  0  0  0  0
  139.4100   79.7890  223.9270 N   0  0  0  0  0  0  0  0  0  0  0  0
  138.4500   80.8770  224.2370 C   0  0  0  0  0  0  0  0  0  0  0  0
  138.3690   81.5910  222.9150 C   0  0  0  0  0  0  0  0  0  0  0  0
  139.8170   81.5670  222.4550 C   0  0  0  0  0  0  0  0  0  0  0  0
  140.5030   80.6760  223.4720 C   0  0  0  0  0  0  0  0  0  0  0  0
  139.8810   71.6640  223.1640 C   0  0  0  0  0  0  0  0  0  0  0  0
  139.4690   70.3600  222.9950 C   0  0  0  0  0  0  0  0  0  0  0  0
  139.5380   69.4140  223.9960 C   0  0  0  0  0  0  0  0  0  0  0  0
  140.0570   69.8540  225.2150 C   0  0  0  0  0  0  0  0  0  0  0  0
  140.1500   68.9490  226.2540 C   0  0  0  0  0  0  0  0  0  0  0  0
  140.6570   69.3070  227.5040 C   0  0  0  0  0  0  0  0  0  0  0  0
  140.7690   68.1430  228.8140 Cl  0  0  0  0  0  0  0  0  0  0  0  0
  141.0590   70.6190  227.6380 C   0  0  0  0  0  0  0  0  0  0  0  0
  140.9780   71.5440  226.6170 C   0  0  0  0  0  0  0  0  0  0  0  0
  140.4720   71.1600  225.3940 C   0  0  0  0  0  0  0  0  0  0  0  0
  140.3770   72.0490  224.3600 N   0  0  0  0  0  0  0  0  0  0  0  0
  139.4290   74.3890  223.1060 H   0  0  0  0  0  0  0  0  0  0  0  0
  140.4494   75.0410  220.6267 H   0  0  0  0  0  0  0  0  0  0  0  0
  138.9838   74.0729  220.1614 H   0  0  0  0  0  0  0  0  0  0  0  0
  139.6293   77.4773  219.2249 H   0  0  0  0  0  0  0  0  0  0  0  0
  138.8673   78.8743  220.1208 H   0  0  0  0  0  0  0  0  0  0  0  0
  141.5440   78.4814  219.4523 H   0  0  0  0  0  0  0  0  0  0  0  0
  140.7261   79.7533  220.5428 H   0  0  0  0  0  0  0  0  0  0  0  0
  142.5098   77.5629  221.1543 H   0  0  0  0  0  0  0  0  0  0  0  0
  142.1459   79.2126  221.9350 H   0  0  0  0  0  0  0  0  0  0  0  0
  141.3350   76.5644  222.6823 H   0  0  0  0  0  0  0  0  0  0  0  0
  141.3327   78.1805  223.5589 H   0  0  0  0  0  0  0  0  0  0  0  0
  139.1868   77.0912  223.4300 H   0  0  0  0  0  0  0  0  0  0  0  0
  138.9004   79.5538  221.9604 H   0  0  0  0  0  0  0  0  0  0  0  0
  137.9011   78.6516  223.2567 H   0  0  0  0  0  0  0  0  0  0  0  0
  137.4710   80.4755  224.5375 H   0  0  0  0  0  0  0  0  0  0  0  0
  138.7558   81.5195  225.0758 H   0  0  0  0  0  0  0  0  0  0  0  0
  137.7166   81.0547  222.2102 H   0  0  0  0  0  0  0  0  0  0  0  0
  137.9412   82.6022  222.9821 H   0  0  0  0  0  0  0  0  0  0  0  0
  139.9001   81.1434  221.4432 H   0  0  0  0  0  0  0  0  0  0  0  0
  140.2629   82.5710  222.3987 H   0  0  0  0  0  0  0  0  0  0  0  0
  141.3145   80.0971  223.0070 H   0  0  0  0  0  0  0  0  0  0  0  0
  140.9759   81.2372  224.2914 H   0  0  0  0  0  0  0  0  0  0  0  0
  139.0664   70.0597  222.0163 H   0  0  0  0  0  0  0  0  0  0  0  0
  139.2047   68.3769  223.8434 H   0  0  0  0  0  0  0  0  0  0  0  0
  139.8141   67.9142  226.0914 H   0  0  0  0  0  0  0  0  0  0  0  0
  141.4646   70.9448  228.6072 H   0  0  0  0  0  0  0  0  0  0  0  0
  141.3144   72.5788  226.7780 H   0  0  0  0  0  0  0  0  0  0  0  0
  1  2  2  0
  2  3  1  0
  3  4  1  0
  4  5  1  0
  5  6  2  0
  5  7  1  0
  7  8  1  0
  8  9  1  0
  9 10  1  0
 10 11  1  0
 11 12  1  0
 12 13  1  0
 13 14  1  0
 14 15  1  0
 15 16  1  0
 16 17  1  0
 17 18  1  0
  2 19  1  0
 19 20  2  0
 20 21  1  0
 21 22  2  0
 22 23  1  0
 23 24  2  0
 24 25  1  0
 24 26  1  0
 26 27  2  0
 27 28  1  0
 28 29  2  0
 12  7  1  0
 18 14  1  0
 29 19  1  0
 28 22  1  0
  3 30  1  0
  4 31  1  0
  4 32  1  0
  8 33  1  0
  8 34  1  0
  9 35  1  0
  9 36  1  0
 10 37  1  0
 10 38  1  0
 11 39  1  0
 11 40  1  0
 12 41  1  1
 13 42  1  0
 13 43  1  0
 15 44  1  0
 15 45  1  0
 16 46  1  0
 16 47  1  0
 17 48  1  0
 17 49  1  0
 18 50  1  0
 18 51  1  0
 20 52  1  0
 21 53  1  0
 23 54  1  0
 26 55  1  0
 27 56  1  0
M  END
>  <smiles>  (5) 
O=C(NCC(=O)N1CCCC[C@H]1CN1CCCC1)c1ccc2cc(Cl)ccc2n1

>  <score_type>  (5) 
oracle

>  <origin>  (5) 
autodockgpu

>  <m_score__min__energy>  (5) 
-8.25

>  <m_primary>  (5) 
energy

>  <rmsd>  (5) 
2.832664645151348

>  <m_score__min__rmsd>  (5) 
2.832664645151348

>  <meeko>  (5) 
{"free_energy": -7.51, "intermolecular_energy": -9.3, "internal_energy": -1.54, "cluster_size": 25, "cluster_id": 1, "rank_in_cluster": 17}

>  <energy>  (5) 
-8.07

>  <cluster_rmsd>  (5) 
1.14

>  <cluster>  (5) 
1

$$$$

     RDKit          3D

 56 59  0  0  0  0  0  0  0  0999 V2000
  141.3700   73.3230  220.7560 O   0  0  0  0  0  0  0  0  0  0  0  0
  140.6700   74.1150  221.4520 C   0  0  0  0  0  0  0  0  0  0  0  0
  139.6530   73.5090  222.2490 N   0  0  0  0  0  0  0  0  0  0  0  0
  139.5530   72.0560  222.1540 C   0  0  0  0  0  0  0  0  0  0  0  0
  139.8210   71.3920  223.4470 C   0  0  0  0  0  0  0  0  0  0  0  0
  140.6100   71.8780  224.2890 O   0  0  0  0  0  0  0  0  0  0  0  0
  139.1570   70.1780  223.7210 N   0  0  0  0  0  0  0  0  0  0  0  0
  139.2270   69.0020  222.8480 C   0  0  0  0  0  0  0  0  0  0  0  0
  137.9140   68.3050  222.6830 C   0  0  0  0  0  0  0  0  0  0  0  0
  136.7170   68.9200  223.2900 C   0  0  0  0  0  0  0  0  0  0  0  0
  136.9250   69.9080  224.3880 C   0  0  0  0  0  0  0  0  0  0  0  0
  138.3040   69.9820  224.9080 C   0  0  1  0  0  0  0  0  0  0  0  0
  138.8040   68.9070  225.7760 C   0  0  0  0  0  0  0  0  0  0  0  0
  139.3220   69.2490  227.0650 N   0  0  0  0  0  0  0  0  0  0  0  0
  140.4280   70.2270  226.9260 C   0  0  0  0  0  0  0  0  0  0  0  0
  141.4130   69.4500  226.0950 C   0  0  0  0  0  0  0  0  0  0  0  0
  141.3090   68.0610  226.7020 C   0  0  0  0  0  0  0  0  0  0  0  0
  140.1430   68.1750  227.6650 C   0  0  0  0  0  0  0  0  0  0  0  0
  140.9040   75.5530  221.4260 C   0  0  0  0  0  0  0  0  0  0  0  0
  141.7220   76.0520  220.4350 C   0  0  0  0  0  0  0  0  0  0  0  0
  142.0130   77.3940  220.3060 C   0  0  0  0  0  0  0  0  0  0  0  0
  141.4240   78.2390  221.2470 C   0  0  0  0  0  0  0  0  0  0  0  0
  141.6790   79.5940  221.1650 C   0  0  0  0  0  0  0  0  0  0  0  0
  141.1290   80.5070  222.0670 C   0  0  0  0  0  0  0  0  0  0  0  0
  141.4640   82.2260  221.9470 Cl  0  0  0  0  0  0  0  0  0  0  0  0
  140.3170   79.9730  223.0450 C   0  0  0  0  0  0  0  0  0  0  0  0
  140.0440   78.6240  223.1500 C   0  0  0  0  0  0  0  0  0  0  0  0
  140.6020   77.7480  222.2440 C   0  0  0  0  0  0  0  0  0  0  0  0
  140.3540   76.4060  222.3180 N   0  0  0  0  0  0  0  0  0  0  0  0
  139.0410   74.0910  222.8480 H   0  0  0  0  0  0  0  0  0  0  0  0
  138.5375   71.7917  221.8238 H   0  0  0  0  0  0  0  0  0  0  0  0
  140.3104   71.7118  221.4344 H   0  0  0  0  0  0  0  0  0  0  0  0
  139.5776   69.3243  221.8564 H   0  0  0  0  0  0  0  0  0  0  0  0
  139.9165   68.2873  223.3211 H   0  0  0  0  0  0  0  0  0  0  0  0
  137.7241   68.2183  221.6030 H   0  0  0  0  0  0  0  0  0  0  0  0
  138.0385   67.3566  223.2262 H   0  0  0  0  0  0  0  0  0  0  0  0
  136.1681   69.4329  222.4865 H   0  0  0  0  0  0  0  0  0  0  0  0
  136.1864   68.0827  223.7669 H   0  0  0  0  0  0  0  0  0  0  0  0
  136.6497   70.9030  224.0083 H   0  0  0  0  0  0  0  0  0  0  0  0
  136.2980   69.5716  225.2269 H   0  0  0  0  0  0  0  0  0  0  0  0
  138.3242   70.8105  225.6314 H   0  0  0  0  0  0  0  0  0  0  0  0
  137.9707   68.2073  225.9373 H   0  0  0  0  0  0  0  0  0  0  0  0
  139.6757   68.5106  225.2347 H   0  0  0  0  0  0  0  0  0  0  0  0
  140.0956   71.1384  226.4075 H   0  0  0  0  0  0  0  0  0  0  0  0
  140.8333   70.5848  227.8840 H   0  0  0  0  0  0  0  0  0  0  0  0
  141.1248   69.4452  225.0334 H   0  0  0  0  0  0  0  0  0  0  0  0
  142.4313   69.8658  226.1088 H   0  0  0  0  0  0  0  0  0  0  0  0
  141.1047   67.3084  225.9262 H   0  0  0  0  0  0  0  0  0  0  0  0
  142.2388   67.7408  227.1949 H   0  0  0  0  0  0  0  0  0  0  0  0
  139.5810   67.2310  227.7194 H   0  0  0  0  0  0  0  0  0  0  0  0
  140.4527   68.3910  228.6982 H   0  0  0  0  0  0  0  0  0  0  0  0
  142.1628   75.3477  219.7141 H   0  0  0  0  0  0  0  0  0  0  0  0
  142.6695   77.7748  219.5097 H   0  0  0  0  0  0  0  0  0  0  0  0
  142.3356   79.9653  220.3644 H   0  0  0  0  0  0  0  0  0  0  0  0
  139.8640   80.6563  223.7784 H   0  0  0  0  0  0  0  0  0  0  0  0
  139.3869   78.2514  223.9497 H   0  0  0  0  0  0  0  0  0  0  0  0
  1  2  2  0
  2  3  1  0
  3  4  1  0
  4  5  1  0
  5  6  2  0
  5  7  1  0
  7  8  1  0
  8  9  1  0
  9 10  1  0
 10 11  1  0
 11 12  1  0
 12 13  1  0
 13 14  1  0
 14 15  1  0
 15 16  1  0
 16 17  1  0
 17 18  1  0
  2 19  1  0
 19 20  2  0
 20 21  1  0
 21 22  2  0
 22 23  1  0
 23 24  2  0
 24 25  1  0
 24 26  1  0
 26 27  2  0
 27 28  1  0
 28 29  2  0
 12  7  1  0
 18 14  1  0
 29 19  1  0
 28 22  1  0
  3 30  1  0
  4 31  1  0
  4 32  1  0
  8 33  1  0
  8 34  1  0
  9 35  1  0
  9 36  1  0
 10 37  1  0
 10 38  1  0
 11 39  1  0
 11 40  1  0
 12 41  1  1
 13 42  1  0
 13 43  1  0
 15 44  1  0
 15 45  1  0
 16 46  1  0
 16 47  1  0
 17 48  1  0
 17 49  1  0
 18 50  1  0
 18 51  1  0
 20 52  1  0
 21 53  1  0
 23 54  1  0
 26 55  1  0
 27 56  1  0
M  END
>  <smiles>  (6) 
O=C(NCC(=O)N1CCCC[C@H]1CN1CCCC1)c1ccc2cc(Cl)ccc2n1

>  <score_type>  (6) 
oracle

>  <origin>  (6) 
autodockgpu

>  <m_score__min__energy>  (6) 
-8.25

>  <m_primary>  (6) 
energy

>  <rmsd>  (6) 
9.497976714749154

>  <m_score__min__rmsd>  (6) 
9.497976714749154

>  <meeko>  (6) 
{"free_energy": -7.83, "intermolecular_energy": -9.62, "internal_energy": -1.7, "cluster_size": 3, "cluster_id": 2, "rank_in_cluster": 2}

>  <energy>  (6) 
-7.95

>  <cluster_rmsd>  (6) 
1.09

>  <cluster>  (6) 
1

$$$$

     RDKit          3D

 56 59  0  0  0  0  0  0  0  0999 V2000
  143.1330   79.6710  218.1280 O   0  0  0  0  0  0  0  0  0  0  0  0
  142.4120   78.6740  218.4280 C   0  0  0  0  0  0  0  0  0  0  0  0
  141.0720   78.9720  218.8170 N   0  0  0  0  0  0  0  0  0  0  0  0
  140.7090   80.3860  218.8210 C   0  0  0  0  0  0  0  0  0  0  0  0
  141.2490   81.0970  219.9970 C   0  0  0  0  0  0  0  0  0  0  0  0
  141.7860   82.2250  219.9000 O   0  0  0  0  0  0  0  0  0  0  0  0
  141.1470   80.4720  221.2580 N   0  0  0  0  0  0  0  0  0  0  0  0
  140.1780   80.8720  222.2830 C   0  0  0  0  0  0  0  0  0  0  0  0
  140.7490   80.8890  223.6660 C   0  0  0  0  0  0  0  0  0  0  0  0
  142.1940   80.6350  223.8260 C   0  0  0  0  0  0  0  0  0  0  0  0
  142.9040   79.9360  222.7160 C   0  0  0  0  0  0  0  0  0  0  0  0
  142.0260   79.3640  221.6760 C   0  0  1  0  0  0  0  0  0  0  0  0
  141.2700   78.1390  221.9670 C   0  0  0  0  0  0  0  0  0  0  0  0
  140.5520   77.5040  220.9050 N   0  0  0  0  0  0  0  0  0  0  0  0
  139.1020   77.7940  221.0260 C   0  0  0  0  0  0  0  0  0  0  0  0
  138.7880   77.2000  222.3710 C   0  0  0  0  0  0  0  0  0  0  0  0
  139.6040   75.9180  222.3470 C   0  0  0  0  0  0  0  0  0  0  0  0
  140.4290   76.0410  221.0800 C   0  0  0  0  0  0  0  0  0  0  0  0
  142.9380   77.3160  218.3730 C   0  0  0  0  0  0  0  0  0  0  0  0
  143.1820   76.7720  217.1300 C   0  0  0  0  0  0  0  0  0  0  0  0
  143.6840   75.5000  216.9520 C   0  0  0  0  0  0  0  0  0  0  0  0
  143.9380   74.7770  218.1180 C   0  0  0  0  0  0  0  0  0  0  0  0
  144.4430   73.4970  217.9990 C   0  0  0  0  0  0  0  0  0  0  0  0
  144.7260   72.7060  219.1150 C   0  0  0  0  0  0  0  0  0  0  0  0
  145.3670   71.0810  218.9450 Cl  0  0  0  0  0  0  0  0  0  0  0  0
  144.4690   73.2810  220.3420 C   0  0  0  0  0  0  0  0  0  0  0  0
  143.9660   74.5580  220.4890 C   0  0  0  0  0  0  0  0  0  0  0  0
  143.6970   75.3130  219.3680 C   0  0  0  0  0  0  0  0  0  0  0  0
  143.1980   76.5810  219.4760 N   0  0  0  0  0  0  0  0  0  0  0  0
  140.4200   78.2100  219.0740 H   0  0  0  0  0  0  0  0  0  0  0  0
  141.1063   80.8563  217.9094 H   0  0  0  0  0  0  0  0  0  0  0  0
  139.6117   80.4529  218.8603 H   0  0  0  0  0  0  0  0  0  0  0  0
  139.8141   81.8821  222.0436 H   0  0  0  0  0  0  0  0  0  0  0  0
  139.3696   80.1260  222.2745 H   0  0  0  0  0  0  0  0  0  0  0  0
  140.5431   81.8821  224.0919 H   0  0  0  0  0  0  0  0  0  0  0  0
  140.2650   80.0404  224.1717 H   0  0  0  0  0  0  0  0  0  0  0  0
  142.6848   81.6093  223.9674 H   0  0  0  0  0  0  0  0  0  0  0  0
  142.2610   79.9420  224.6777 H   0  0  0  0  0  0  0  0  0  0  0  0
  143.5783   80.6589  222.2335 H   0  0  0  0  0  0  0  0  0  0  0  0
  143.4307   79.0863  223.1750 H   0  0  0  0  0  0  0  0  0  0  0  0
  142.6848   78.9751  220.8856 H   0  0  0  0  0  0  0  0  0  0  0  0
  141.9866   77.4021  222.3587 H   0  0  0  0  0  0  0  0  0  0  0  0
  140.4825   78.4705  222.6597 H   0  0  0  0  0  0  0  0  0  0  0  0
  138.9060   78.8763  221.0092 H   0  0  0  0  0  0  0  0  0  0  0  0
  138.4937   77.3887  220.2040 H   0  0  0  0  0  0  0  0  0  0  0  0
  139.1104   77.8640  223.1866 H   0  0  0  0  0  0  0  0  0  0  0  0
  137.7139   77.0395  222.5457 H   0  0  0  0  0  0  0  0  0  0  0  0
  140.2529   75.8493  223.2326 H   0  0  0  0  0  0  0  0  0  0  0  0
  138.9779   75.0137  222.3621 H   0  0  0  0  0  0  0  0  0  0  0  0
  141.4167   75.5731  221.2042 H   0  0  0  0  0  0  0  0  0  0  0  0
  139.9731   75.5374  220.2148 H   0  0  0  0  0  0  0  0  0  0  0  0
  142.9664   77.3805  216.2394 H   0  0  0  0  0  0  0  0  0  0  0  0
  143.8726   75.0812  215.9525 H   0  0  0  0  0  0  0  0  0  0  0  0
  144.6280   73.0880  216.9948 H   0  0  0  0  0  0  0  0  0  0  0  0
  144.6751   72.6928  221.2484 H   0  0  0  0  0  0  0  0  0  0  0  0
  143.7815   74.9694  221.4923 H   0  0  0  0  0  0  0  0  0  0  0  0
  1  2  2  0
  2  3  1  0
  3  4  1  0
  4  5  1  0
  5  6  2  0
  5  7  1  0
  7  8  1  0
  8  9  1  0
  9 10  1  0
 10 11  1  0
 11 12  1  0
 12 13  1  0
 13 14  1  0
 14 15  1  0
 15 16  1  0
 16 17  1  0
 17 18  1  0
  2 19  1  0
 19 20  2  0
 20 21  1  0
 21 22  2  0
 22 23  1  0
 23 24  2  0
 24 25  1  0
 24 26  1  0
 26 27  2  0
 27 28  1  0
 28 29  2  0
 12  7  1  0
 18 14  1  0
 29 19  1  0
 28 22  1  0
  3 30  1  0
  4 31  1  0
  4 32  1  0
  8 33  1  0
  8 34  1  0
  9 35  1  0
  9 36  1  0
 10 37  1  0
 10 38  1  0
 11 39  1  0
 11 40  1  0
 12 41  1  6
 13 42  1  0
 13 43  1  0
 15 44  1  0
 15 45  1  0
 16 46  1  0
 16 47  1  0
 17 48  1  0
 17 49  1  0
 18 50  1  0
 18 51  1  0
 20 52  1  0
 21 53  1  0
 23 54  1  0
 26 55  1  0
 27 56  1  0
M  END
>  <smiles>  (7) 
O=C(NCC(=O)N1CCCC[C@H]1CN1CCCC1)c1ccc2cc(Cl)ccc2n1

>  <score_type>  (7) 
oracle

>  <origin>  (7) 
autodockgpu

>  <m_score__min__energy>  (7) 
-8.25

>  <m_primary>  (7) 
energy

>  <rmsd>  (7) 
7.850578914664833

>  <m_score__min__rmsd>  (7) 
7.850578914664833

>  <meeko>  (7) 
{"free_energy": -5.97, "intermolecular_energy": -7.76, "internal_energy": -3.1, "cluster_size": 1, "cluster_id": 8, "rank_in_cluster": 1}

>  <energy>  (7) 
-7.92

>  <cluster_rmsd>  (7) 
1.12

>  <cluster>  (7) 
1

$$$$

     RDKit          3D

 56 59  0  0  0  0  0  0  0  0999 V2000
  138.4210   71.5990  220.8080 O   0  0  0  0  0  0  0  0  0  0  0  0
  138.5030   72.1150  221.9610 C   0  0  0  0  0  0  0  0  0  0  0  0
  138.1950   73.5060  222.0420 N   0  0  0  0  0  0  0  0  0  0  0  0
  137.8280   74.1510  220.7850 C   0  0  0  0  0  0  0  0  0  0  0  0
  137.8720   75.6250  220.8800 C   0  0  0  0  0  0  0  0  0  0  0  0
  136.8310   76.3130  220.9910 O   0  0  0  0  0  0  0  0  0  0  0  0
  139.1330   76.2560  220.8450 N   0  0  0  0  0  0  0  0  0  0  0  0
  139.7630   76.7390  219.6120 C   0  0  0  0  0  0  0  0  0  0  0  0
  141.2290   76.4550  219.5420 C   0  0  0  0  0  0  0  0  0  0  0  0
  141.8340   75.6440  220.6170 C   0  0  0  0  0  0  0  0  0  0  0  0
  141.0980   75.5460  221.9100 C   0  0  0  0  0  0  0  0  0  0  0  0
  139.9560   76.4710  222.0500 C   0  0  1  0  0  0  0  0  0  0  0  0
  140.2100   77.8960  222.2990 C   0  0  0  0  0  0  0  0  0  0  0  0
  141.5630   78.3390  222.4380 N   0  0  0  0  0  0  0  0  0  0  0  0
  141.7780   78.9040  223.7920 C   0  0  0  0  0  0  0  0  0  0  0  0
  140.7930   80.0410  223.8030 C   0  0  0  0  0  0  0  0  0  0  0  0
  140.9410   80.5990  222.3980 C   0  0  0  0  0  0  0  0  0  0  0  0
  141.8410   79.5940  221.7050 C   0  0  0  0  0  0  0  0  0  0  0  0
  138.8910   71.3210  223.1200 C   0  0  0  0  0  0  0  0  0  0  0  0
  138.4910   70.0020  223.1560 C   0  0  0  0  0  0  0  0  0  0  0  0
  138.8010   69.1510  224.1960 C   0  0  0  0  0  0  0  0  0  0  0  0
  139.5570   69.7040  225.2310 C   0  0  0  0  0  0  0  0  0  0  0  0
  139.8990   68.8970  226.2980 C   0  0  0  0  0  0  0  0  0  0  0  0
  140.6540   69.3710  227.3730 C   0  0  0  0  0  0  0  0  0  0  0  0
  141.0790   68.3300  228.7220 Cl  0  0  0  0  0  0  0  0  0  0  0  0
  141.0370   70.6940  227.3030 C   0  0  0  0  0  0  0  0  0  0  0  0
  140.7100   71.5220  226.2490 C   0  0  0  0  0  0  0  0  0  0  0  0
  139.9640   71.0240  225.2020 C   0  0  0  0  0  0  0  0  0  0  0  0
  139.6220   71.8160  224.1420 N   0  0  0  0  0  0  0  0  0  0  0  0
  138.2370   73.9990  222.9520 H   0  0  0  0  0  0  0  0  0  0  0  0
  138.5287   73.8255  220.0021 H   0  0  0  0  0  0  0  0  0  0  0  0
  136.7951   73.8589  220.5447 H   0  0  0  0  0  0  0  0  0  0  0  0
  139.2725   76.2520  218.7563 H   0  0  0  0  0  0  0  0  0  0  0  0
  139.6435   77.8323  219.5938 H   0  0  0  0  0  0  0  0  0  0  0  0
  141.4147   75.9300  218.5934 H   0  0  0  0  0  0  0  0  0  0  0  0
  141.7033   77.4421  219.6451 H   0  0  0  0  0  0  0  0  0  0  0  0
  141.9540   74.6217  220.2292 H   0  0  0  0  0  0  0  0  0  0  0  0
  142.7679   76.1681  220.8681 H   0  0  0  0  0  0  0  0  0  0  0  0
  140.7188   74.5183  222.0096 H   0  0  0  0  0  0  0  0  0  0  0  0
  141.8169   75.8245  222.6946 H   0  0  0  0  0  0  0  0  0  0  0  0
  139.4595   76.2181  222.9985 H   0  0  0  0  0  0  0  0  0  0  0  0
  139.7712   78.4546  221.4591 H   0  0  0  0  0  0  0  0  0  0  0  0
  139.7669   78.0770  223.2894 H   0  0  0  0  0  0  0  0  0  0  0  0
  141.5494   78.1669  224.5758 H   0  0  0  0  0  0  0  0  0  0  0  0
  142.8161   79.2083  223.9911 H   0  0  0  0  0  0  0  0  0  0  0  0
  139.7694   79.6816  223.9847 H   0  0  0  0  0  0  0  0  0  0  0  0
  140.9774   80.7805  224.5961 H   0  0  0  0  0  0  0  0  0  0  0  0
  139.9642   80.6623  221.8961 H   0  0  0  0  0  0  0  0  0  0  0  0
  141.3522   81.6192  222.3856 H   0  0  0  0  0  0  0  0  0  0  0  0
  141.5797   79.4968  220.6409 H   0  0  0  0  0  0  0  0  0  0  0  0
  142.9032   79.8795  221.7207 H   0  0  0  0  0  0  0  0  0  0  0  0
  137.8974   69.6105  222.3167 H   0  0  0  0  0  0  0  0  0  0  0  0
  138.4728   68.1012  224.2091 H   0  0  0  0  0  0  0  0  0  0  0  0
  139.5665   67.8485  226.3014 H   0  0  0  0  0  0  0  0  0  0  0  0
  141.6330   71.1099  228.1288 H   0  0  0  0  0  0  0  0  0  0  0  0
  141.0417   72.5708  226.2440 H   0  0  0  0  0  0  0  0  0  0  0  0
  1  2  2  0
  2  3  1  0
  3  4  1  0
  4  5  1  0
  5  6  2  0
  5  7  1  0
  7  8  1  0
  8  9  1  0
  9 10  1  0
 10 11  1  0
 11 12  1  0
 12 13  1  0
 13 14  1  0
 14 15  1  0
 15 16  1  0
 16 17  1  0
 17 18  1  0
  2 19  1  0
 19 20  2  0
 20 21  1  0
 21 22  2  0
 22 23  1  0
 23 24  2  0
 24 25  1  0
 24 26  1  0
 26 27  2  0
 27 28  1  0
 28 29  2  0
 12  7  1  0
 18 14  1  0
 29 19  1  0
 28 22  1  0
  3 30  1  0
  4 31  1  0
  4 32  1  0
  8 33  1  0
  8 34  1  0
  9 35  1  0
  9 36  1  0
 10 37  1  0
 10 38  1  0
 11 39  1  0
 11 40  1  0
 12 41  1  1
 13 42  1  0
 13 43  1  0
 15 44  1  0
 15 45  1  0
 16 46  1  0
 16 47  1  0
 17 48  1  0
 17 49  1  0
 18 50  1  0
 18 51  1  0
 20 52  1  0
 21 53  1  0
 23 54  1  0
 26 55  1  0
 27 56  1  0
M  END
>  <smiles>  (8) 
O=C(NCC(=O)N1CCCC[C@H]1CN1CCCC1)c1ccc2cc(Cl)ccc2n1

>  <score_type>  (8) 
oracle

>  <origin>  (8) 
autodockgpu

>  <m_score__min__energy>  (8) 
-8.25

>  <m_primary>  (8) 
energy

>  <rmsd>  (8) 
2.177249464039163

>  <m_score__min__rmsd>  (8) 
2.177249464039163

>  <meeko>  (8) 
{"free_energy": -7.5, "intermolecular_energy": -9.29, "internal_energy": -1.7, "cluster_size": 25, "cluster_id": 1, "rank_in_cluster": 18}

>  <energy>  (8) 
-7.89

>  <cluster_rmsd>  (8) 
1.4

>  <cluster>  (8) 
1

$$$$

     RDKit          3D

 56 59  0  0  0  0  0  0  0  0999 V2000
  139.1450   73.0430  221.1940 O   0  0  0  0  0  0  0  0  0  0  0  0
  140.2070   72.7490  221.8160 C   0  0  0  0  0  0  0  0  0  0  0  0
  141.4080   73.3260  221.3020 N   0  0  0  0  0  0  0  0  0  0  0  0
  141.2510   74.1760  220.1260 C   0  0  0  0  0  0  0  0  0  0  0  0
  141.6550   75.5730  220.3890 C   0  0  0  0  0  0  0  0  0  0  0  0
  142.7710   76.0180  220.0350 O   0  0  0  0  0  0  0  0  0  0  0  0
  140.7420   76.4140  221.0600 N   0  0  0  0  0  0  0  0  0  0  0  0
  140.1170   76.0720  222.3410 C   0  0  0  0  0  0  0  0  0  0  0  0
  138.6670   76.4310  222.4110 C   0  0  0  0  0  0  0  0  0  0  0  0
  138.0190   76.9540  221.1920 C   0  0  0  0  0  0  0  0  0  0  0  0
  138.8970   77.5220  220.1280 C   0  0  0  0  0  0  0  0  0  0  0  0
  140.3070   77.7160  220.5200 C   0  0  1  0  0  0  0  0  0  0  0  0
  140.6600   78.8290  221.4110 C   0  0  0  0  0  0  0  0  0  0  0  0
  141.9440   78.8240  222.0440 N   0  0  0  0  0  0  0  0  0  0  0  0
  141.7870   78.6780  223.5120 C   0  0  0  0  0  0  0  0  0  0  0  0
  140.9810   79.9020  223.8510 C   0  0  0  0  0  0  0  0  0  0  0  0
  141.6200   80.9560  222.9620 C   0  0  0  0  0  0  0  0  0  0  0  0
  142.5740   80.1610  222.0900 C   0  0  0  0  0  0  0  0  0  0  0  0
  140.1850   71.8740  222.9820 C   0  0  0  0  0  0  0  0  0  0  0  0
  139.6270   70.6230  222.8330 C   0  0  0  0  0  0  0  0  0  0  0  0
  139.5540   69.7060  223.8610 C   0  0  0  0  0  0  0  0  0  0  0  0
  140.0850   70.1170  225.0840 C   0  0  0  0  0  0  0  0  0  0  0  0
  140.0410   69.2390  226.1480 C   0  0  0  0  0  0  0  0  0  0  0  0
  140.5500   69.5710  227.4050 C   0  0  0  0  0  0  0  0  0  0  0  0
  140.4850   68.4420  228.7470 Cl  0  0  0  0  0  0  0  0  0  0  0  0
  141.1010   70.8310  227.5170 C   0  0  0  0  0  0  0  0  0  0  0  0
  141.1590   71.7280  226.4700 C   0  0  0  0  0  0  0  0  0  0  0  0
  140.6470   71.3700  225.2420 C   0  0  0  0  0  0  0  0  0  0  0  0
  140.6880   72.2330  224.1830 N   0  0  0  0  0  0  0  0  0  0  0  0
  142.3170   73.1350  221.7580 H   0  0  0  0  0  0  0  0  0  0  0  0
  141.8735   73.7743  219.3129 H   0  0  0  0  0  0  0  0  0  0  0  0
  140.1860   74.1786  219.8509 H   0  0  0  0  0  0  0  0  0  0  0  0
  140.2154   74.9877  222.4981 H   0  0  0  0  0  0  0  0  0  0  0  0
  140.6328   76.6543  223.1188 H   0  0  0  0  0  0  0  0  0  0  0  0
  138.1202   75.5238  222.7076 H   0  0  0  0  0  0  0  0  0  0  0  0
  138.6274   77.2692  223.1222 H   0  0  0  0  0  0  0  0  0  0  0  0
  137.4505   76.1269  220.7417 H   0  0  0  0  0  0  0  0  0  0  0  0
  137.4185   77.8070  221.5410 H   0  0  0  0  0  0  0  0  0  0  0  0
  138.8734   76.8394  219.2658 H   0  0  0  0  0  0  0  0  0  0  0  0
  138.4999   78.5230  219.9038 H   0  0  0  0  0  0  0  0  0  0  0  0
  140.8432   78.0432  219.6170 H   0  0  0  0  0  0  0  0  0  0  0  0
  140.5961   79.7522  220.8163 H   0  0  0  0  0  0  0  0  0  0  0  0
  139.9507   78.7366  222.2466 H   0  0  0  0  0  0  0  0  0  0  0  0
  141.2445   77.7560  223.7683 H   0  0  0  0  0  0  0  0  0  0  0  0
  142.7382   78.6018  224.0592 H   0  0  0  0  0  0  0  0  0  0  0  0
  139.9182   79.7618  223.6044 H   0  0  0  0  0  0  0  0  0  0  0  0
  140.9912   80.1580  224.9207 H   0  0  0  0  0  0  0  0  0  0  0  0
  140.8611   81.4654  222.3499 H   0  0  0  0  0  0  0  0  0  0  0  0
  142.1253   81.7475  223.5350 H   0  0  0  0  0  0  0  0  0  0  0  0
  142.6478   80.5984  221.0834 H   0  0  0  0  0  0  0  0  0  0  0  0
  143.6034   80.1428  222.4772 H   0  0  0  0  0  0  0  0  0  0  0  0
  139.2213   70.3428  221.8497 H   0  0  0  0  0  0  0  0  0  0  0  0
  139.1045   68.7113  223.7248 H   0  0  0  0  0  0  0  0  0  0  0  0
  139.5906   68.2462  226.0010 H   0  0  0  0  0  0  0  0  0  0  0  0
  141.5148   71.1357  228.4896 H   0  0  0  0  0  0  0  0  0  0  0  0
  141.6103   72.7207  226.6146 H   0  0  0  0  0  0  0  0  0  0  0  0
  1  2  2  0
  2  3  1  0
  3  4  1  0
  4  5  1  0
  5  6  2  0
  5  7  1  0
  7  8  1  0
  8  9  1  0
  9 10  1  0
 10 11  1  0
 11 12  1  0
 12 13  1  0
 13 14  1  0
 14 15  1  0
 15 16  1  0
 16 17  1  0
 17 18  1  0
  2 19  1  0
 19 20  2  0
 20 21  1  0
 21 22  2  0
 22 23  1  0
 23 24  2  0
 24 25  1  0
 24 26  1  0
 26 27  2  0
 27 28  1  0
 28 29  2  0
 12  7  1  0
 18 14  1  0
 29 19  1  0
 28 22  1  0
  3 30  1  0
  4 31  1  0
  4 32  1  0
  8 33  1  0
  8 34  1  0
  9 35  1  0
  9 36  1  0
 10 37  1  0
 10 38  1  0
 11 39  1  0
 11 40  1  0
 12 41  1  6
 13 42  1  0
 13 43  1  0
 15 44  1  0
 15 45  1  0
 16 46  1  0
 16 47  1  0
 17 48  1  0
 17 49  1  0
 18 50  1  0
 18 51  1  0
 20 52  1  0
 21 53  1  0
 23 54  1  0
 26 55  1  0
 27 56  1  0
M  END
>  <smiles>  (9) 
O=C(NCC(=O)N1CCCC[C@H]1CN1CCCC1)c1ccc2cc(Cl)ccc2n1

>  <score_type>  (9) 
oracle

>  <origin>  (9) 
autodockgpu

>  <m_score__min__energy>  (9) 
-8.25

>  <m_primary>  (9) 
energy

>  <rmsd>  (9) 
2.791292836418827

>  <m_score__min__rmsd>  (9) 
2.791292836418827

>  <meeko>  (9) 
{"free_energy": -7.33, "intermolecular_energy": -9.12, "internal_energy": -1.86, "cluster_size": 25, "cluster_id": 1, "rank_in_cluster": 24}

>  <energy>  (9) 
-7.89

>  <cluster_rmsd>  (9) 
1.0

>  <cluster>  (9) 
1

$$$$

     RDKit          3D

 56 59  0  0  0  0  0  0  0  0999 V2000
  139.3880   72.5490  220.7790 O   0  0  0  0  0  0  0  0  0  0  0  0
  138.8280   72.7460  221.8970 C   0  0  0  0  0  0  0  0  0  0  0  0
  137.9440   73.8660  221.9580 N   0  0  0  0  0  0  0  0  0  0  0  0
  137.8050   74.6350  220.7260 C   0  0  0  0  0  0  0  0  0  0  0  0
  138.2020   76.0470  220.9020 C   0  0  0  0  0  0  0  0  0  0  0  0
  137.3590   76.9530  221.0990 O   0  0  0  0  0  0  0  0  0  0  0  0
  139.5760   76.3640  220.8440 N   0  0  0  0  0  0  0  0  0  0  0  0
  140.2350   76.8940  219.6460 C   0  0  0  0  0  0  0  0  0  0  0  0
  141.5810   76.2930  219.3920 C   0  0  0  0  0  0  0  0  0  0  0  0
  142.0270   75.1890  220.2660 C   0  0  0  0  0  0  0  0  0  0  0  0
  141.3620   75.0420  221.5930 C   0  0  0  0  0  0  0  0  0  0  0  0
  140.4910   76.1680  221.9830 C   0  0  1  0  0  0  0  0  0  0  0  0
  141.1010   77.4290  222.4250 C   0  0  0  0  0  0  0  0  0  0  0  0
  140.3530   78.6410  222.2880 N   0  0  0  0  0  0  0  0  0  0  0  0
  141.1610   79.6610  221.5760 C   0  0  0  0  0  0  0  0  0  0  0  0
  142.3380   79.8100  222.5010 C   0  0  0  0  0  0  0  0  0  0  0  0
  141.6730   79.7630  223.8670 C   0  0  0  0  0  0  0  0  0  0  0  0
  140.2350   79.3970  223.5540 C   0  0  0  0  0  0  0  0  0  0  0  0
  139.0830   71.8750  223.0370 C   0  0  0  0  0  0  0  0  0  0  0  0
  138.2950   70.7520  223.1750 C   0  0  0  0  0  0  0  0  0  0  0  0
  138.4450   69.8510  224.2080 C   0  0  0  0  0  0  0  0  0  0  0  0
  139.4570   70.1400  225.1250 C   0  0  0  0  0  0  0  0  0  0  0  0
  139.6530   69.2710  226.1810 C   0  0  0  0  0  0  0  0  0  0  0  0
  140.6430   69.4850  227.1420 C   0  0  0  0  0  0  0  0  0  0  0  0
  140.8790   68.3690  228.4770 Cl  0  0  0  0  0  0  0  0  0  0  0  0
  141.4120   70.6170  226.9730 C   0  0  0  0  0  0  0  0  0  0  0  0
  141.2380   71.5020  225.9280 C   0  0  0  0  0  0  0  0  0  0  0  0
  140.2510   71.2630  224.9950 C   0  0  0  0  0  0  0  0  0  0  0  0
  140.0510   72.1170  223.9470 N   0  0  0  0  0  0  0  0  0  0  0  0
  137.4460   74.0910  222.8370 H   0  0  0  0  0  0  0  0  0  0  0  0
  138.4416   74.1819  219.9518 H   0  0  0  0  0  0  0  0  0  0  0  0
  136.7447   74.6161  220.4339 H   0  0  0  0  0  0  0  0  0  0  0  0
  139.5929   76.6907  218.7763 H   0  0  0  0  0  0  0  0  0  0  0  0
  140.3865   77.9713  219.8090 H   0  0  0  0  0  0  0  0  0  0  0  0
  141.5789   75.9120  218.3601 H   0  0  0  0  0  0  0  0  0  0  0  0
  142.2884   77.1092  219.6002 H   0  0  0  0  0  0  0  0  0  0  0  0
  141.8707   74.2501  219.7146 H   0  0  0  0  0  0  0  0  0  0  0  0
  143.0734   75.4297  220.5051 H   0  0  0  0  0  0  0  0  0  0  0  0
  140.7488   74.1291  221.5680 H   0  0  0  0  0  0  0  0  0  0  0  0
  142.1696   75.0057  222.3390 H   0  0  0  0  0  0  0  0  0  0  0  0
  139.9997   75.8761  222.9229 H   0  0  0  0  0  0  0  0  0  0  0  0
  141.3405   77.3157  223.4926 H   0  0  0  0  0  0  0  0  0  0  0  0
  141.9548   77.5646  221.7448 H   0  0  0  0  0  0  0  0  0  0  0  0
  141.4728   79.3052  220.5829 H   0  0  0  0  0  0  0  0  0  0  0  0
  140.6242   80.6005  221.3781 H   0  0  0  0  0  0  0  0  0  0  0  0
  143.0524   78.9831  222.3754 H   0  0  0  0  0  0  0  0  0  0  0  0
  142.9278   80.7218  222.3256 H   0  0  0  0  0  0  0  0  0  0  0  0
  142.1420   78.9999  224.5056 H   0  0  0  0  0  0  0  0  0  0  0  0
  141.7616   80.7114  224.4172 H   0  0  0  0  0  0  0  0  0  0  0  0
  139.8040   78.7714  224.3495 H   0  0  0  0  0  0  0  0  0  0  0  0
  139.5717   80.2712  223.4771 H   0  0  0  0  0  0  0  0  0  0  0  0
  137.5105   70.5663  222.4266 H   0  0  0  0  0  0  0  0  0  0  0  0
  137.8070   68.9600  224.3035 H   0  0  0  0  0  0  0  0  0  0  0  0
  139.0093   68.3832  226.2673 H   0  0  0  0  0  0  0  0  0  0  0  0
  142.2037   70.8252  227.7077 H   0  0  0  0  0  0  0  0  0  0  0  0
  141.8810   72.3901  225.8402 H   0  0  0  0  0  0  0  0  0  0  0  0
  1  2  2  0
  2  3  1  0
  3  4  1  0
  4  5  1  0
  5  6  2  0
  5  7  1  0
  7  8  1  0
  8  9  1  0
  9 10  1  0
 10 11  1  0
 11 12  1  0
 12 13  1  0
 13 14  1  0
 14 15  1  0
 15 16  1  0
 16 17  1  0
 17 18  1  0
  2 19  1  0
 19 20  2  0
 20 21  1  0
 21 22  2  0
 22 23  1  0
 23 24  2  0
 24 25  1  0
 24 26  1  0
 26 27  2  0
 27 28  1  0
 28 29  2  0
 12  7  1  0
 18 14  1  0
 29 19  1  0
 28 22  1  0
  3 30  1  0
  4 31  1  0
  4 32  1  0
  8 33  1  0
  8 34  1  0
  9 35  1  0
  9 36  1  0
 10 37  1  0
 10 38  1  0
 11 39  1  0
 11 40  1  0
 12 41  1  1
 13 42  1  0
 13 43  1  0
 15 44  1  0
 15 45  1  0
 16 46  1  0
 16 47  1  0
 17 48  1  0
 17 49  1  0
 18 50  1  0
 18 51  1  0
 20 52  1  0
 21 53  1  0
 23 54  1  0
 26 55  1  0
 27 56  1  0
M  END
>  <smiles>  (10) 
O=C(NCC(=O)N1CCCC[C@H]1CN1CCCC1)c1ccc2cc(Cl)ccc2n1

>  <score_type>  (10) 
oracle

>  <origin>  (10) 
autodockgpu

>  <m_score__min__energy>  (10) 
-8.25

>  <m_primary>  (10) 
energy

>  <rmsd>  (10) 
2.6092159020935255

>  <m_score__min__rmsd>  (10) 
2.6092159020935255

>  <meeko>  (10) 
{"free_energy": -7.35, "intermolecular_energy": -9.14, "internal_energy": -1.93, "cluster_size": 25, "cluster_id": 1, "rank_in_cluster": 23}

>  <energy>  (10) 
-7.71

>  <cluster_rmsd>  (10) 
1.0

>  <cluster>  (10) 
1

$$$$

     RDKit          3D

 56 59  0  0  0  0  0  0  0  0999 V2000
  139.0380   76.0040  223.0750 O   0  0  0  0  0  0  0  0  0  0  0  0
  139.6520   76.1170  221.9730 C   0  0  0  0  0  0  0  0  0  0  0  0
  139.3290   77.2720  221.1980 N   0  0  0  0  0  0  0  0  0  0  0  0
  138.3330   78.1680  221.7770 C   0  0  0  0  0  0  0  0  0  0  0  0
  138.9310   79.1300  222.7250 C   0  0  0  0  0  0  0  0  0  0  0  0
  138.2550   79.6790  223.6260 O   0  0  0  0  0  0  0  0  0  0  0  0
  140.3050   79.4240  222.5970 N   0  0  0  0  0  0  0  0  0  0  0  0
  141.3380   78.8590  223.4700 C   0  0  0  0  0  0  0  0  0  0  0  0
  142.3820   79.8520  223.8750 C   0  0  0  0  0  0  0  0  0  0  0  0
  142.1980   81.2600  223.4720 C   0  0  0  0  0  0  0  0  0  0  0  0
  141.2770   81.5420  222.3330 C   0  0  0  0  0  0  0  0  0  0  0  0
  140.8340   80.3520  221.5800 C   0  0  1  0  0  0  0  0  0  0  0  0
  141.7710   79.6910  220.6630 C   0  0  0  0  0  0  0  0  0  0  0  0
  141.2580   78.7470  219.7170 N   0  0  0  0  0  0  0  0  0  0  0  0
  142.2980   78.4160  218.7130 C   0  0  0  0  0  0  0  0  0  0  0  0
  142.5620   79.7640  218.0990 C   0  0  0  0  0  0  0  0  0  0  0  0
  141.1630   80.3480  218.0070 C   0  0  0  0  0  0  0  0  0  0  0  0
  140.3050   79.3460  218.7570 C   0  0  0  0  0  0  0  0  0  0  0  0
  140.6220   75.1190  221.5420 C   0  0  0  0  0  0  0  0  0  0  0  0
  140.2800   73.7910  221.6780 C   0  0  0  0  0  0  0  0  0  0  0  0
  141.1120   72.7580  221.3000 C   0  0  0  0  0  0  0  0  0  0  0  0
  142.3430   73.1340  220.7610 C   0  0  0  0  0  0  0  0  0  0  0  0
  143.2160   72.1400  220.3640 C   0  0  0  0  0  0  0  0  0  0  0  0
  144.4670   72.4300  219.8150 C   0  0  0  0  0  0  0  0  0  0  0  0
  145.5650   71.1540  219.3160 Cl  0  0  0  0  0  0  0  0  0  0  0  0
  144.7770   73.7680  219.6940 C   0  0  0  0  0  0  0  0  0  0  0  0
  143.9230   74.7810  220.0820 C   0  0  0  0  0  0  0  0  0  0  0  0
  142.6950   74.4630  220.6210 C   0  0  0  0  0  0  0  0  0  0  0  0
  141.8240   75.4390  221.0150 N   0  0  0  0  0  0  0  0  0  0  0  0
  139.7910   77.4360  220.2870 H   0  0  0  0  0  0  0  0  0  0  0  0
  137.8454   78.7275  220.9651 H   0  0  0  0  0  0  0  0  0  0  0  0
  137.6084   77.5537  222.3317 H   0  0  0  0  0  0  0  0  0  0  0  0
  140.8534   78.4723  224.3786 H   0  0  0  0  0  0  0  0  0  0  0  0
  141.8466   78.0669  222.9009 H   0  0  0  0  0  0  0  0  0  0  0  0
  142.4426   79.8322  224.9731 H   0  0  0  0  0  0  0  0  0  0  0  0
  143.2870   79.5306  223.3386 H   0  0  0  0  0  0  0  0  0  0  0  0
  141.8139   81.8044  224.3473 H   0  0  0  0  0  0  0  0  0  0  0  0
  143.1882   81.5774  223.1132 H   0  0  0  0  0  0  0  0  0  0  0  0
  140.3840   82.0450  222.7326 H   0  0  0  0  0  0  0  0  0  0  0  0
  141.8458   82.1608  221.6234 H   0  0  0  0  0  0  0  0  0  0  0  0
  140.0935   80.7012  220.8453 H   0  0  0  0  0  0  0  0  0  0  0  0
  142.2750   80.4827  220.0892 H   0  0  0  0  0  0  0  0  0  0  0  0
  142.4090   79.0861  221.3241 H   0  0  0  0  0  0  0  0  0  0  0  0
  143.2013   78.0078  219.1898 H   0  0  0  0  0  0  0  0  0  0  0  0
  141.9937   77.6454  217.9894 H   0  0  0  0  0  0  0  0  0  0  0  0
  143.2094   80.3769  218.7433 H   0  0  0  0  0  0  0  0  0  0  0  0
  143.0874   79.7167  217.1337 H   0  0  0  0  0  0  0  0  0  0  0  0
  141.1188   81.3377  218.4851 H   0  0  0  0  0  0  0  0  0  0  0  0
  140.8320   80.5002  216.9691 H   0  0  0  0  0  0  0  0  0  0  0  0
  139.4780   79.8473  219.2811 H   0  0  0  0  0  0  0  0  0  0  0  0
  139.8278   78.6047  218.0991 H   0  0  0  0  0  0  0  0  0  0  0  0
  139.2982   73.5434  222.1078 H   0  0  0  0  0  0  0  0  0  0  0  0
  140.8231   71.7030  221.4162 H   0  0  0  0  0  0  0  0  0  0  0  0
  142.9169   71.0882  220.4838 H   0  0  0  0  0  0  0  0  0  0  0  0
  145.7531   74.0419  219.2672 H   0  0  0  0  0  0  0  0  0  0  0  0
  144.2202   75.8333  219.9620 H   0  0  0  0  0  0  0  0  0  0  0  0
  1  2  2  0
  2  3  1  0
  3  4  1  0
  4  5  1  0
  5  6  2  0
  5  7  1  0
  7  8  1  0
  8  9  1  0
  9 10  1  0
 10 11  1  0
 11 12  1  0
 12 13  1  0
 13 14  1  0
 14 15  1  0
 15 16  1  0
 16 17  1  0
 17 18  1  0
  2 19  1  0
 19 20  2  0
 20 21  1  0
 21 22  2  0
 22 23  1  0
 23 24  2  0
 24 25  1  0
 24 26  1  0
 26 27  2  0
 27 28  1  0
 28 29  2  0
 12  7  1  0
 18 14  1  0
 29 19  1  0
 28 22  1  0
  3 30  1  0
  4 31  1  0
  4 32  1  0
  8 33  1  0
  8 34  1  0
  9 35  1  0
  9 36  1  0
 10 37  1  0
 10 38  1  0
 11 39  1  0
 11 40  1  0
 12 41  1  6
 13 42  1  0
 13 43  1  0
 15 44  1  0
 15 45  1  0
 16 46  1  0
 16 47  1  0
 17 48  1  0
 17 49  1  0
 18 50  1  0
 18 51  1  0
 20 52  1  0
 21 53  1  0
 23 54  1  0
 26 55  1  0
 27 56  1  0
M  END
>  <smiles>  (11) 
O=C(NCC(=O)N1CCCC[C@H]1CN1CCCC1)c1ccc2cc(Cl)ccc2n1

>  <score_type>  (11) 
oracle

>  <origin>  (11) 
autodockgpu

>  <m_score__min__energy>  (11) 
-8.25

>  <m_primary>  (11) 
energy

>  <rmsd>  (11) 
6.102849493946128

>  <m_score__min__rmsd>  (11) 
6.102849493946128

>  <meeko>  (11) 
{"free_energy": -6.33, "intermolecular_energy": -8.12, "internal_energy": -3.03, "cluster_size": 15, "cluster_id": 6, "rank_in_cluster": 4}

>  <energy>  (11) 
-7.68

>  <cluster_rmsd>  (11) 
1.49

>  <cluster>  (11) 
1

$$$$

     RDKit          3D

 56 59  0  0  0  0  0  0  0  0999 V2000
  139.4810   75.6940  222.7770 O   0  0  0  0  0  0  0  0  0  0  0  0
  140.1040   76.0440  221.7330 C   0  0  0  0  0  0  0  0  0  0  0  0
  139.6940   77.2820  221.1510 N   0  0  0  0  0  0  0  0  0  0  0  0
  138.6080   77.9770  221.8350 C   0  0  0  0  0  0  0  0  0  0  0  0
  139.1030   79.0570  222.7130 C   0  0  0  0  0  0  0  0  0  0  0  0
  138.3630   79.6200  223.5520 O   0  0  0  0  0  0  0  0  0  0  0  0
  140.4530   79.4500  222.5880 N   0  0  0  0  0  0  0  0  0  0  0  0
  141.5500   78.8250  223.3340 C   0  0  0  0  0  0  0  0  0  0  0  0
  142.5520   79.8080  223.8520 C   0  0  0  0  0  0  0  0  0  0  0  0
  142.2740   81.2460  223.6730 C   0  0  0  0  0  0  0  0  0  0  0  0
  141.2950   81.6380  222.6190 C   0  0  0  0  0  0  0  0  0  0  0  0
  140.8880   80.5500  221.7080 C   0  0  1  0  0  0  0  0  0  0  0  0
  141.8230   80.0920  220.6730 C   0  0  0  0  0  0  0  0  0  0  0  0
  141.3600   79.1600  219.6910 N   0  0  0  0  0  0  0  0  0  0  0  0
  142.4040   78.9470  218.6580 C   0  0  0  0  0  0  0  0  0  0  0  0
  142.5660   80.3370  218.1040 C   0  0  0  0  0  0  0  0  0  0  0  0
  141.1280   80.8270  218.0590 C   0  0  0  0  0  0  0  0  0  0  0  0
  140.3530   79.7350  218.7720 C   0  0  0  0  0  0  0  0  0  0  0  0
  141.1700   75.2220  221.1750 C   0  0  0  0  0  0  0  0  0  0  0  0
  142.1460   75.8530  220.4340 C   0  0  0  0  0  0  0  0  0  0  0  0
  143.2060   75.1820  219.8610 C   0  0  0  0  0  0  0  0  0  0  0  0
  143.2420   73.8030  220.0760 C   0  0  0  0  0  0  0  0  0  0  0  0
  144.2830   73.0800  219.5260 C   0  0  0  0  0  0  0  0  0  0  0  0
  144.3940   71.6980  219.6940 C   0  0  0  0  0  0  0  0  0  0  0  0
  145.7240   70.7960  218.9880 Cl  0  0  0  0  0  0  0  0  0  0  0  0
  143.4010   71.1010  220.4410 C   0  0  0  0  0  0  0  0  0  0  0  0
  142.3500   71.7990  221.0010 C   0  0  0  0  0  0  0  0  0  0  0  0
  142.2690   73.1620  220.8180 C   0  0  0  0  0  0  0  0  0  0  0  0
  141.2430   73.8860  221.3590 N   0  0  0  0  0  0  0  0  0  0  0  0
  140.1580   77.6370  220.2960 H   0  0  0  0  0  0  0  0  0  0  0  0
  137.9360   78.4131  221.0812 H   0  0  0  0  0  0  0  0  0  0  0  0
  138.0814   77.2445  222.4643 H   0  0  0  0  0  0  0  0  0  0  0  0
  141.1239   78.2785  224.1882 H   0  0  0  0  0  0  0  0  0  0  0  0
  142.0790   78.1590  222.6365 H   0  0  0  0  0  0  0  0  0  0  0  0
  142.6574   79.6280  224.9321 H   0  0  0  0  0  0  0  0  0  0  0  0
  143.4513   79.6264  223.2452 H   0  0  0  0  0  0  0  0  0  0  0  0
  141.8948   81.6289  224.6320 H   0  0  0  0  0  0  0  0  0  0  0  0
  143.2300   81.6736  223.3365 H   0  0  0  0  0  0  0  0  0  0  0  0
  140.3923   82.0209  223.1175 H   0  0  0  0  0  0  0  0  0  0  0  0
  141.8012   82.3884  221.9939 H   0  0  0  0  0  0  0  0  0  0  0  0
  140.1002   80.9596  221.0587 H   0  0  0  0  0  0  0  0  0  0  0  0
  142.1706   80.9850  220.1330 H   0  0  0  0  0  0  0  0  0  0  0  0
  142.5867   79.5321  221.2327 H   0  0  0  0  0  0  0  0  0  0  0  0
  143.3407   78.5801  219.1030 H   0  0  0  0  0  0  0  0  0  0  0  0
  142.1406   78.1913  217.9033 H   0  0  0  0  0  0  0  0  0  0  0  0
  143.1812   80.9627  218.7673 H   0  0  0  0  0  0  0  0  0  0  0  0
  143.0773   80.3704  217.1306 H   0  0  0  0  0  0  0  0  0  0  0  0
  141.0246   81.7881  218.5841 H   0  0  0  0  0  0  0  0  0  0  0  0
  140.7700   81.0038  217.0340 H   0  0  0  0  0  0  0  0  0  0  0  0
  139.5019   80.1533  219.3294 H   0  0  0  0  0  0  0  0  0  0  0  0
  139.9175   78.9933  218.0863 H   0  0  0  0  0  0  0  0  0  0  0  0
  142.0763   76.9417  220.2932 H   0  0  0  0  0  0  0  0  0  0  0  0
  143.9756   75.7013  219.2710 H   0  0  0  0  0  0  0  0  0  0  0  0
  145.0475   73.6089  218.9380 H   0  0  0  0  0  0  0  0  0  0  0  0
  143.4486   70.0134  220.5988 H   0  0  0  0  0  0  0  0  0  0  0  0
  141.5839   71.2715  221.5882 H   0  0  0  0  0  0  0  0  0  0  0  0
  1  2  2  0
  2  3  1  0
  3  4  1  0
  4  5  1  0
  5  6  2  0
  5  7  1  0
  7  8  1  0
  8  9  1  0
  9 10  1  0
 10 11  1  0
 11 12  1  0
 12 13  1  0
 13 14  1  0
 14 15  1  0
 15 16  1  0
 16 17  1  0
 17 18  1  0
  2 19  1  0
 19 20  2  0
 20 21  1  0
 21 22  2  0
 22 23  1  0
 23 24  2  0
 24 25  1  0
 24 26  1  0
 26 27  2  0
 27 28  1  0
 28 29  2  0
 12  7  1  0
 18 14  1  0
 29 19  1  0
 28 22  1  0
  3 30  1  0
  4 31  1  0
  4 32  1  0
  8 33  1  0
  8 34  1  0
  9 35  1  0
  9 36  1  0
 10 37  1  0
 10 38  1  0
 11 39  1  0
 11 40  1  0
 12 41  1  6
 13 42  1  0
 13 43  1  0
 15 44  1  0
 15 45  1  0
 16 46  1  0
 16 47  1  0
 17 48  1  0
 17 49  1  0
 18 50  1  0
 18 51  1  0
 20 52  1  0
 21 53  1  0
 23 54  1  0
 26 55  1  0
 27 56  1  0
M  END
>  <smiles>  (12) 
O=C(NCC(=O)N1CCCC[C@H]1CN1CCCC1)c1ccc2cc(Cl)ccc2n1

>  <score_type>  (12) 
oracle

>  <origin>  (12) 
autodockgpu

>  <m_score__min__energy>  (12) 
-8.25

>  <m_primary>  (12) 
energy

>  <rmsd>  (12) 
6.414678541233062

>  <m_score__min__rmsd>  (12) 
6.414678541233062

>  <meeko>  (12) 
{"free_energy": -6.43, "intermolecular_energy": -8.22, "internal_energy": -2.89, "cluster_size": 15, "cluster_id": 6, "rank_in_cluster": 1}

>  <energy>  (12) 
-7.63

>  <cluster_rmsd>  (12) 
1.47

>  <cluster>  (12) 
1

$$$$

     RDKit          3D

 56 59  0  0  0  0  0  0  0  0999 V2000
  138.4440   74.9740  222.0660 O   0  0  0  0  0  0  0  0  0  0  0  0
  139.6510   75.3430  221.9690 C   0  0  0  0  0  0  0  0  0  0  0  0
  139.9140   76.7050  222.3100 N   0  0  0  0  0  0  0  0  0  0  0  0
  138.7550   77.4910  222.7230 C   0  0  0  0  0  0  0  0  0  0  0  0
  139.1350   78.8410  223.1900 C   0  0  0  0  0  0  0  0  0  0  0  0
  138.3420   79.5660  223.8330 O   0  0  0  0  0  0  0  0  0  0  0  0
  140.4330   79.3060  222.8930 N   0  0  0  0  0  0  0  0  0  0  0  0
  141.5520   79.2390  223.8390 C   0  0  0  0  0  0  0  0  0  0  0  0
  142.4010   80.4710  223.8440 C   0  0  0  0  0  0  0  0  0  0  0  0
  141.9660   81.6200  223.0250 C   0  0  0  0  0  0  0  0  0  0  0  0
  141.0090   81.3570  221.9120 C   0  0  0  0  0  0  0  0  0  0  0  0
  140.7860   79.9300  221.6050 C   0  0  1  0  0  0  0  0  0  0  0  0
  141.8260   79.1770  220.8920 C   0  0  0  0  0  0  0  0  0  0  0  0
  141.5010   77.8890  220.3610 N   0  0  0  0  0  0  0  0  0  0  0  0
  142.5490   77.4530  219.4060 C   0  0  0  0  0  0  0  0  0  0  0  0
  142.4800   78.5390  218.3680 C   0  0  0  0  0  0  0  0  0  0  0  0
  140.9830   78.7690  218.2510 C   0  0  0  0  0  0  0  0  0  0  0  0
  140.4020   77.9290  219.3720 C   0  0  0  0  0  0  0  0  0  0  0  0
  140.6930   74.4210  221.5340 C   0  0  0  0  0  0  0  0  0  0  0  0
  140.4210   73.0710  221.5980 C   0  0  0  0  0  0  0  0  0  0  0  0
  141.3250   72.1040  221.2100 C   0  0  0  0  0  0  0  0  0  0  0  0
  142.5520   72.5710  220.7380 C   0  0  0  0  0  0  0  0  0  0  0  0
  143.4950   71.6470  220.3330 C   0  0  0  0  0  0  0  0  0  0  0  0
  144.7470   72.0290  219.8480 C   0  0  0  0  0  0  0  0  0  0  0  0
  145.9330   70.8400  219.3380 Cl  0  0  0  0  0  0  0  0  0  0  0  0
  144.9840   73.3870  219.7980 C   0  0  0  0  0  0  0  0  0  0  0  0
  144.0600   74.3320  220.1950 C   0  0  0  0  0  0  0  0  0  0  0  0
  142.8330   73.9220  220.6690 C   0  0  0  0  0  0  0  0  0  0  0  0
  141.8940   74.8310  221.0710 N   0  0  0  0  0  0  0  0  0  0  0  0
  140.8770   77.0810  222.2580 H   0  0  0  0  0  0  0  0  0  0  0  0
  138.0715   77.5914  221.8670 H   0  0  0  0  0  0  0  0  0  0  0  0
  138.2720   76.9668  223.5608 H   0  0  0  0  0  0  0  0  0  0  0  0
  141.1452   79.0919  224.8504 H   0  0  0  0  0  0  0  0  0  0  0  0
  142.1942   78.4036  223.5234 H   0  0  0  0  0  0  0  0  0  0  0  0
  142.4658   80.8186  224.8856 H   0  0  0  0  0  0  0  0  0  0  0  0
  143.3484   80.1517  223.3852 H   0  0  0  0  0  0  0  0  0  0  0  0
  141.4905   82.3446  223.7024 H   0  0  0  0  0  0  0  0  0  0  0  0
  142.8826   81.9679  222.5262 H   0  0  0  0  0  0  0  0  0  0  0  0
  140.0406   81.8034  222.1820 H   0  0  0  0  0  0  0  0  0  0  0  0
  141.4574   81.7991  221.0101 H   0  0  0  0  0  0  0  0  0  0  0  0
  139.9938   79.8911  220.8428 H   0  0  0  0  0  0  0  0  0  0  0  0
  142.1562   79.8009  220.0483 H   0  0  0  0  0  0  0  0  0  0  0  0
  142.5787   78.9643  221.6655 H   0  0  0  0  0  0  0  0  0  0  0  0
  143.5388   77.4170  219.8846 H   0  0  0  0  0  0  0  0  0  0  0  0
  142.3971   76.4398  219.0056 H   0  0  0  0  0  0  0  0  0  0  0  0
  142.9989   79.4482  218.7056 H   0  0  0  0  0  0  0  0  0  0  0  0
  142.9639   78.2744  217.4162 H   0  0  0  0  0  0  0  0  0  0  0  0
  140.7374   79.8322  218.3897 H   0  0  0  0  0  0  0  0  0  0  0  0
  140.5854   78.4950  217.2627 H   0  0  0  0  0  0  0  0  0  0  0  0
  139.5047   78.4027  219.7969 H   0  0  0  0  0  0  0  0  0  0  0  0
  140.0782   76.9306  219.0428 H   0  0  0  0  0  0  0  0  0  0  0  0
  139.4388   72.7505  221.9755 H   0  0  0  0  0  0  0  0  0  0  0  0
  141.0927   71.0304  221.2691 H   0  0  0  0  0  0  0  0  0  0  0  0
  143.2518   70.5760  220.3945 H   0  0  0  0  0  0  0  0  0  0  0  0
  145.9581   73.7340  219.4230 H   0  0  0  0  0  0  0  0  0  0  0  0
  144.3010   75.4035  220.1336 H   0  0  0  0  0  0  0  0  0  0  0  0
  1  2  2  0
  2  3  1  0
  3  4  1  0
  4  5  1  0
  5  6  2  0
  5  7  1  0
  7  8  1  0
  8  9  1  0
  9 10  1  0
 10 11  1  0
 11 12  1  0
 12 13  1  0
 13 14  1  0
 14 15  1  0
 15 16  1  0
 16 17  1  0
 17 18  1  0
  2 19  1  0
 19 20  2  0
 20 21  1  0
 21 22  2  0
 22 23  1  0
 23 24  2  0
 24 25  1  0
 24 26  1  0
 26 27  2  0
 27 28  1  0
 28 29  2  0
 12  7  1  0
 18 14  1  0
 29 19  1  0
 28 22  1  0
  3 30  1  0
  4 31  1  0
  4 32  1  0
  8 33  1  0
  8 34  1  0
  9 35  1  0
  9 36  1  0
 10 37  1  0
 10 38  1  0
 11 39  1  0
 11 40  1  0
 12 41  1  6
 13 42  1  0
 13 43  1  0
 15 44  1  0
 15 45  1  0
 16 46  1  0
 16 47  1  0
 17 48  1  0
 17 49  1  0
 18 50  1  0
 18 51  1  0
 20 52  1  0
 21 53  1  0
 23 54  1  0
 26 55  1  0
 27 56  1  0
M  END
>  <smiles>  (13) 
O=C(NCC(=O)N1CCCC[C@H]1CN1CCCC1)c1ccc2cc(Cl)ccc2n1

>  <score_type>  (13) 
oracle

>  <origin>  (13) 
autodockgpu

>  <m_score__min__energy>  (13) 
-8.25

>  <m_primary>  (13) 
energy

>  <rmsd>  (13) 
5.99697002411415

>  <m_score__min__rmsd>  (13) 
5.99697002411415

>  <meeko>  (13) 
{"free_energy": -6.3, "intermolecular_energy": -8.09, "internal_energy": -3.05, "cluster_size": 15, "cluster_id": 6, "rank_in_cluster": 8}

>  <energy>  (13) 
-7.62

>  <cluster_rmsd>  (13) 
0.63

>  <cluster>  (13) 
1

$$$$

     RDKit          3D

 56 59  0  0  0  0  0  0  0  0999 V2000
  140.3680   72.8790  222.3850 O   0  0  0  0  0  0  0  0  0  0  0  0
  140.2420   73.8270  221.5550 C   0  0  0  0  0  0  0  0  0  0  0  0
  140.6390   73.5350  220.2150 N   0  0  0  0  0  0  0  0  0  0  0  0
  141.1400   72.1840  219.9800 C   0  0  0  0  0  0  0  0  0  0  0  0
  142.5580   72.0390  220.3680 C   0  0  0  0  0  0  0  0  0  0  0  0
  142.9370   71.1570  221.1720 O   0  0  0  0  0  0  0  0  0  0  0  0
  143.4960   72.9290  219.8040 N   0  0  0  0  0  0  0  0  0  0  0  0
  144.1070   72.7310  218.4860 C   0  0  0  0  0  0  0  0  0  0  0  0
  145.5680   73.0510  218.4540 C   0  0  0  0  0  0  0  0  0  0  0  0
  146.2340   73.3950  219.7260 C   0  0  0  0  0  0  0  0  0  0  0  0
  145.3770   73.8520  220.8570 C   0  0  0  0  0  0  0  0  0  0  0  0
  143.9730   74.1370  220.5000 C   0  0  1  0  0  0  0  0  0  0  0  0
  143.6540   75.3650  219.7590 C   0  0  0  0  0  0  0  0  0  0  0  0
  142.2860   75.6470  219.4510 N   0  0  0  0  0  0  0  0  0  0  0  0
  142.0780   75.6170  217.9820 C   0  0  0  0  0  0  0  0  0  0  0  0
  143.0100   76.7070  217.5250 C   0  0  0  0  0  0  0  0  0  0  0  0
  142.8030   77.7670  218.5940 C   0  0  0  0  0  0  0  0  0  0  0  0
  141.9330   77.0730  219.6250 C   0  0  0  0  0  0  0  0  0  0  0  0
  139.7230   75.1260  221.9620 C   0  0  0  0  0  0  0  0  0  0  0  0
  138.3560   75.2950  221.9780 C   0  0  0  0  0  0  0  0  0  0  0  0
  137.7480   76.4750  222.3490 C   0  0  0  0  0  0  0  0  0  0  0  0
  138.6060   77.5130  222.7170 C   0  0  0  0  0  0  0  0  0  0  0  0
  138.0520   78.7190  223.1000 C   0  0  0  0  0  0  0  0  0  0  0  0
  138.8390   79.8070  223.4830 C   0  0  0  0  0  0  0  0  0  0  0  0
  138.1180   81.3320  223.9660 Cl  0  0  0  0  0  0  0  0  0  0  0  0
  140.2030   79.6030  223.4540 C   0  0  0  0  0  0  0  0  0  0  0  0
  140.7830   78.4090  223.0770 C   0  0  0  0  0  0  0  0  0  0  0  0
  139.9780   77.3530  222.7040 C   0  0  0  0  0  0  0  0  0  0  0  0
  140.5180   76.1560  222.3250 N   0  0  0  0  0  0  0  0  0  0  0  0
  140.5630   74.2570  219.4770 H   0  0  0  0  0  0  0  0  0  0  0  0
  140.5377   71.4757  220.5678 H   0  0  0  0  0  0  0  0  0  0  0  0
  141.0621   71.9778  218.9023 H   0  0  0  0  0  0  0  0  0  0  0  0
  143.9741   71.6786  218.1947 H   0  0  0  0  0  0  0  0  0  0  0  0
  143.6082   73.4214  217.7899 H   0  0  0  0  0  0  0  0  0  0  0  0
  146.0856   72.1722  218.0419 H   0  0  0  0  0  0  0  0  0  0  0  0
  145.6329   73.9709  217.8544 H   0  0  0  0  0  0  0  0  0  0  0  0
  146.7757   72.4998  220.0655 H   0  0  0  0  0  0  0  0  0  0  0  0
  146.8614   74.2655  219.4840 H   0  0  0  0  0  0  0  0  0  0  0  0
  145.3807   73.0665  221.6270 H   0  0  0  0  0  0  0  0  0  0  0  0
  145.8058   74.8042  221.2026 H   0  0  0  0  0  0  0  0  0  0  0  0
  143.4485   74.3635  221.4400 H   0  0  0  0  0  0  0  0  0  0  0  0
  144.0324   76.2093  220.3539 H   0  0  0  0  0  0  0  0  0  0  0  0
  144.1225   75.2122  218.7756 H   0  0  0  0  0  0  0  0  0  0  0  0
  142.3596   74.6427  217.5561 H   0  0  0  0  0  0  0  0  0  0  0  0
  141.0321   75.7626  217.6739 H   0  0  0  0  0  0  0  0  0  0  0  0
  144.0531   76.3585  217.5042 H   0  0  0  0  0  0  0  0  0  0  0  0
  142.8105   77.0621  216.5032 H   0  0  0  0  0  0  0  0  0  0  0  0
  143.7636   78.0735  219.0337 H   0  0  0  0  0  0  0  0  0  0  0  0
  142.3456   78.6864  218.1997 H   0  0  0  0  0  0  0  0  0  0  0  0
  142.1723   77.4185  220.6415 H   0  0  0  0  0  0  0  0  0  0  0  0
  140.8596   77.2736  219.4927 H   0  0  0  0  0  0  0  0  0  0  0  0
  137.7197   74.4484  221.6807 H   0  0  0  0  0  0  0  0  0  0  0  0
  136.6542   76.5917  222.3548 H   0  0  0  0  0  0  0  0  0  0  0  0
  136.9572   78.8256  223.1034 H   0  0  0  0  0  0  0  0  0  0  0  0
  140.8616   80.4342  223.7462 H   0  0  0  0  0  0  0  0  0  0  0  0
  141.8776   78.3004  223.0740 H   0  0  0  0  0  0  0  0  0  0  0  0
  1  2  2  0
  2  3  1  0
  3  4  1  0
  4  5  1  0
  5  6  2  0
  5  7  1  0
  7  8  1  0
  8  9  1  0
  9 10  1  0
 10 11  1  0
 11 12  1  0
 12 13  1  0
 13 14  1  0
 14 15  1  0
 15 16  1  0
 16 17  1  0
 17 18  1  0
  2 19  1  0
 19 20  2  0
 20 21  1  0
 21 22  2  0
 22 23  1  0
 23 24  2  0
 24 25  1  0
 24 26  1  0
 26 27  2  0
 27 28  1  0
 28 29  2  0
 12  7  1  0
 18 14  1  0
 29 19  1  0
 28 22  1  0
  3 30  1  0
  4 31  1  0
  4 32  1  0
  8 33  1  0
  8 34  1  0
  9 35  1  0
  9 36  1  0
 10 37  1  0
 10 38  1  0
 11 39  1  0
 11 40  1  0
 12 41  1  1
 13 42  1  0
 13 43  1  0
 15 44  1  0
 15 45  1  0
 16 46  1  0
 16 47  1  0
 17 48  1  0
 17 49  1  0
 18 50  1  0
 18 51  1  0
 20 52  1  0
 21 53  1  0
 23 54  1  0
 26 55  1  0
 27 56  1  0
M  END
>  <smiles>  (14) 
O=C(NCC(=O)N1CCCC[C@H]1CN1CCCC1)c1ccc2cc(Cl)ccc2n1

>  <score_type>  (14) 
oracle

>  <origin>  (14) 
autodockgpu

>  <m_score__min__energy>  (14) 
-8.25

>  <m_primary>  (14) 
energy

>  <rmsd>  (14) 
6.516869744912758

>  <m_score__min__rmsd>  (14) 
6.516869744912758

>  <meeko>  (14) 
{"free_energy": -5.99, "intermolecular_energy": -7.78, "internal_energy": -3.06, "cluster_size": 1, "cluster_id": 7, "rank_in_cluster": 1}

>  <energy>  (14) 
-7.6

>  <cluster_rmsd>  (14) 
1.36

>  <cluster>  (14) 
1

$$$$

     RDKit          3D

 56 59  0  0  0  0  0  0  0  0999 V2000
  139.7020   74.0330  222.3080 O   0  0  0  0  0  0  0  0  0  0  0  0
  139.6740   72.7810  222.1220 C   0  0  0  0  0  0  0  0  0  0  0  0
  139.4860   72.3590  220.7710 N   0  0  0  0  0  0  0  0  0  0  0  0
  139.3480   73.4260  219.7850 C   0  0  0  0  0  0  0  0  0  0  0  0
  140.5900   73.6360  219.0130 C   0  0  0  0  0  0  0  0  0  0  0  0
  140.8040   73.0480  217.9280 O   0  0  0  0  0  0  0  0  0  0  0  0
  141.5510   74.5310  219.5300 N   0  0  0  0  0  0  0  0  0  0  0  0
  141.2070   75.7360  220.2910 C   0  0  0  0  0  0  0  0  0  0  0  0
  142.0370   76.9260  219.9260 C   0  0  0  0  0  0  0  0  0  0  0  0
  142.9850   76.7970  218.8020 C   0  0  0  0  0  0  0  0  0  0  0  0
  143.4020   75.4230  218.4010 C   0  0  0  0  0  0  0  0  0  0  0  0
  143.0010   74.3510  219.3330 C   0  0  1  0  0  0  0  0  0  0  0  0
  143.7170   74.2000  220.6060 C   0  0  0  0  0  0  0  0  0  0  0  0
  144.2590   72.9190  220.9440 N   0  0  0  0  0  0  0  0  0  0  0  0
  145.5810   73.0820  221.5970 C   0  0  0  0  0  0  0  0  0  0  0  0
  146.3660   73.7750  220.5180 C   0  0  0  0  0  0  0  0  0  0  0  0
  145.8940   73.0490  219.2690 C   0  0  0  0  0  0  0  0  0  0  0  0
  144.7620   72.1740  219.7690 C   0  0  0  0  0  0  0  0  0  0  0  0
  139.8260   71.8470  223.2300 C   0  0  0  0  0  0  0  0  0  0  0  0
  139.4430   70.5390  223.0230 C   0  0  0  0  0  0  0  0  0  0  0  0
  139.5430   69.5640  223.9930 C   0  0  0  0  0  0  0  0  0  0  0  0
  140.0640   69.9770  225.2200 C   0  0  0  0  0  0  0  0  0  0  0  0
  140.1890   69.0420  226.2290 C   0  0  0  0  0  0  0  0  0  0  0  0
  140.7010   69.3720  227.4860 C   0  0  0  0  0  0  0  0  0  0  0  0
  140.8520   68.1700  228.7560 Cl  0  0  0  0  0  0  0  0  0  0  0  0
  141.0730   70.6890  227.6580 C   0  0  0  0  0  0  0  0  0  0  0  0
  140.9600   71.6430  226.6670 C   0  0  0  0  0  0  0  0  0  0  0  0
  140.4510   71.2860  225.4370 C   0  0  0  0  0  0  0  0  0  0  0  0
  140.3240   72.2050  224.4330 N   0  0  0  0  0  0  0  0  0  0  0  0
  139.4550   71.3510  220.5380 H   0  0  0  0  0  0  0  0  0  0  0  0
  138.5383   73.1624  219.0887 H   0  0  0  0  0  0  0  0  0  0  0  0
  139.1241   74.3579  220.3248 H   0  0  0  0  0  0  0  0  0  0  0  0
  140.1503   75.9771  220.1034 H   0  0  0  0  0  0  0  0  0  0  0  0
  141.4015   75.5171  221.3513 H   0  0  0  0  0  0  0  0  0  0  0  0
  141.3439   77.7428  219.6760 H   0  0  0  0  0  0  0  0  0  0  0  0
  142.6773   77.0916  220.8049 H   0  0  0  0  0  0  0  0  0  0  0  0
  142.5194   77.2684  217.9239 H   0  0  0  0  0  0  0  0  0  0  0  0
  143.9088   77.2739  219.1615 H   0  0  0  0  0  0  0  0  0  0  0  0
  142.9574   75.2048  217.4188 H   0  0  0  0  0  0  0  0  0  0  0  0
  144.5020   75.4265  218.3924 H   0  0  0  0  0  0  0  0  0  0  0  0
  143.2872   73.3992  218.8617 H   0  0  0  0  0  0  0  0  0  0  0  0
  144.5551   74.9123  220.5921 H   0  0  0  0  0  0  0  0  0  0  0  0
  142.9431   74.3713  221.3687 H   0  0  0  0  0  0  0  0  0  0  0  0
  145.5080   73.7026  222.5022 H   0  0  0  0  0  0  0  0  0  0  0  0
  146.0297   72.1388  221.9421 H   0  0  0  0  0  0  0  0  0  0  0  0
  146.1235   74.8470  220.4730 H   0  0  0  0  0  0  0  0  0  0  0  0
  147.4551   73.7378  220.6681 H   0  0  0  0  0  0  0  0  0  0  0  0
  145.5340   73.7623  218.5130 H   0  0  0  0  0  0  0  0  0  0  0  0
  146.6949   72.4734  218.7819 H   0  0  0  0  0  0  0  0  0  0  0  0
  143.9786   72.0660  219.0044 H   0  0  0  0  0  0  0  0  0  0  0  0
  145.0805   71.1490  220.0097 H   0  0  0  0  0  0  0  0  0  0  0  0
  139.0389   70.2602  222.0386 H   0  0  0  0  0  0  0  0  0  0  0  0
  139.2314   68.5249  223.8109 H   0  0  0  0  0  0  0  0  0  0  0  0
  139.8756   68.0053  226.0367 H   0  0  0  0  0  0  0  0  0  0  0  0
  141.4799   70.9941  228.6334 H   0  0  0  0  0  0  0  0  0  0  0  0
  141.2737   72.6800  226.8574 H   0  0  0  0  0  0  0  0  0  0  0  0
  1  2  2  0
  2  3  1  0
  3  4  1  0
  4  5  1  0
  5  6  2  0
  5  7  1  0
  7  8  1  0
  8  9  1  0
  9 10  1  0
 10 11  1  0
 11 12  1  0
 12 13  1  0
 13 14  1  0
 14 15  1  0
 15 16  1  0
 16 17  1  0
 17 18  1  0
  2 19  1  0
 19 20  2  0
 20 21  1  0
 21 22  2  0
 22 23  1  0
 23 24  2  0
 24 25  1  0
 24 26  1  0
 26 27  2  0
 27 28  1  0
 28 29  2  0
 12  7  1  0
 18 14  1  0
 29 19  1  0
 28 22  1  0
  3 30  1  0
  4 31  1  0
  4 32  1  0
  8 33  1  0
  8 34  1  0
  9 35  1  0
  9 36  1  0
 10 37  1  0
 10 38  1  0
 11 39  1  0
 11 40  1  0
 12 41  1  6
 13 42  1  0
 13 43  1  0
 15 44  1  0
 15 45  1  0
 16 46  1  0
 16 47  1  0
 17 48  1  0
 17 49  1  0
 18 50  1  0
 18 51  1  0
 20 52  1  0
 21 53  1  0
 23 54  1  0
 26 55  1  0
 27 56  1  0
M  END
>  <smiles>  (15) 
O=C(NCC(=O)N1CCCC[C@H]1CN1CCCC1)c1ccc2cc(Cl)ccc2n1

>  <score_type>  (15) 
oracle

>  <origin>  (15) 
autodockgpu

>  <m_score__min__energy>  (15) 
-8.25

>  <m_primary>  (15) 
energy

>  <rmsd>  (15) 
4.403370401167752

>  <m_score__min__rmsd>  (15) 
4.403370401167752

>  <meeko>  (15) 
{"free_energy": -7.63, "intermolecular_energy": -9.42, "internal_energy": -1.69, "cluster_size": 3, "cluster_id": 4, "rank_in_cluster": 2}

>  <energy>  (15) 
-7.58

>  <cluster_rmsd>  (15) 
1.51

>  <cluster>  (15) 
1

$$$$

     RDKit          3D

 56 59  0  0  0  0  0  0  0  0999 V2000
  140.9890   72.5780  221.0650 O   0  0  0  0  0  0  0  0  0  0  0  0
  140.2400   72.7780  222.0660 C   0  0  0  0  0  0  0  0  0  0  0  0
  139.4390   73.9590  222.0160 N   0  0  0  0  0  0  0  0  0  0  0  0
  139.5920   74.7810  220.8190 C   0  0  0  0  0  0  0  0  0  0  0  0
  140.5980   75.8470  220.9990 C   0  0  0  0  0  0  0  0  0  0  0  0
  141.6950   75.6350  221.5640 O   0  0  0  0  0  0  0  0  0  0  0  0
  140.2950   77.1360  220.5110 N   0  0  0  0  0  0  0  0  0  0  0  0
  139.0480   77.4650  219.8130 C   0  0  0  0  0  0  0  0  0  0  0  0
  139.2460   78.3640  218.6340 C   0  0  0  0  0  0  0  0  0  0  0  0
  140.6270   78.7060  218.2430 C   0  0  0  0  0  0  0  0  0  0  0  0
  141.7000   78.5410  219.2660 C   0  0  0  0  0  0  0  0  0  0  0  0
  141.2200   78.2780  220.6370 C   0  0  1  0  0  0  0  0  0  0  0  0
  140.6380   79.3770  221.4190 C   0  0  0  0  0  0  0  0  0  0  0  0
  140.5520   79.2390  222.8410 N   0  0  0  0  0  0  0  0  0  0  0  0
  140.5120   80.5770  223.4800 C   0  0  0  0  0  0  0  0  0  0  0  0
  141.8250   81.1610  223.0350 C   0  0  0  0  0  0  0  0  0  0  0  0
  142.7580   79.9670  223.1540 C   0  0  0  0  0  0  0  0  0  0  0  0
  141.8250   78.8110  223.4610 C   0  0  0  0  0  0  0  0  0  0  0  0
  140.2130   71.8500  223.1890 C   0  0  0  0  0  0  0  0  0  0  0  0
  139.6770   70.5980  222.9730 C   0  0  0  0  0  0  0  0  0  0  0  0
  139.6010   69.6340  223.9560 C   0  0  0  0  0  0  0  0  0  0  0  0
  140.1060   69.9960  225.2060 C   0  0  0  0  0  0  0  0  0  0  0  0
  140.0570   69.0690  226.2280 C   0  0  0  0  0  0  0  0  0  0  0  0
  140.5400   69.3500  227.5070 C   0  0  0  0  0  0  0  0  0  0  0  0
  140.4710   68.1590  228.7940 Cl  0  0  0  0  0  0  0  0  0  0  0  0
  141.0690   70.6120  227.6870 C   0  0  0  0  0  0  0  0  0  0  0  0
  141.1310   71.5570  226.6840 C   0  0  0  0  0  0  0  0  0  0  0  0
  140.6450   71.2480  225.4310 C   0  0  0  0  0  0  0  0  0  0  0  0
  140.6900   72.1600  224.4140 N   0  0  0  0  0  0  0  0  0  0  0  0
  138.7990   74.1900  222.7950 H   0  0  0  0  0  0  0  0  0  0  0  0
  139.9044   74.1364  219.9842 H   0  0  0  0  0  0  0  0  0  0  0  0
  138.6241   75.2615  220.6134 H   0  0  0  0  0  0  0  0  0  0  0  0
  138.5864   76.5294  219.4643 H   0  0  0  0  0  0  0  0  0  0  0  0
  138.4083   78.0034  220.5278 H   0  0  0  0  0  0  0  0  0  0  0  0
  138.7732   77.8763  217.7688 H   0  0  0  0  0  0  0  0  0  0  0  0
  138.8050   79.3226  218.9447 H   0  0  0  0  0  0  0  0  0  0  0  0
  140.8917   78.0714  217.3844 H   0  0  0  0  0  0  0  0  0  0  0  0
  140.5988   79.7872  218.0427 H   0  0  0  0  0  0  0  0  0  0  0  0
  142.3366   77.6978  218.9598 H   0  0  0  0  0  0  0  0  0  0  0  0
  142.2359   79.5008  219.3068 H   0  0  0  0  0  0  0  0  0  0  0  0
  142.1111   78.0839  221.2520 H   0  0  0  0  0  0  0  0  0  0  0  0
  141.2424   80.2736  221.2168 H   0  0  0  0  0  0  0  0  0  0  0  0
  139.5888   79.4119  221.0904 H   0  0  0  0  0  0  0  0  0  0  0  0
  139.6626   81.1722  223.1134 H   0  0  0  0  0  0  0  0  0  0  0  0
  140.3805   80.5490  224.5718 H   0  0  0  0  0  0  0  0  0  0  0  0
  141.7702   81.5237  221.9980 H   0  0  0  0  0  0  0  0  0  0  0  0
  142.1444   82.0340  223.6232 H   0  0  0  0  0  0  0  0  0  0  0  0
  143.2979   79.7956  222.2111 H   0  0  0  0  0  0  0  0  0  0  0  0
  143.5322   80.1059  223.9230 H   0  0  0  0  0  0  0  0  0  0  0  0
  142.1906   77.8769  223.0094 H   0  0  0  0  0  0  0  0  0  0  0  0
  141.7345   78.6001  224.5368 H   0  0  0  0  0  0  0  0  0  0  0  0
  139.2925   70.3573  221.9709 H   0  0  0  0  0  0  0  0  0  0  0  0
  139.1688   68.6403  223.7667 H   0  0  0  0  0  0  0  0  0  0  0  0
  139.6237   68.0779  226.0280 H   0  0  0  0  0  0  0  0  0  0  0  0
  141.4608   70.8775  228.6800 H   0  0  0  0  0  0  0  0  0  0  0  0
  141.5643   72.5485  226.8820 H   0  0  0  0  0  0  0  0  0  0  0  0
  1  2  2  0
  2  3  1  0
  3  4  1  0
  4  5  1  0
  5  6  2  0
  5  7  1  0
  7  8  1  0
  8  9  1  0
  9 10  1  0
 10 11  1  0
 11 12  1  0
 12 13  1  0
 13 14  1  0
 14 15  1  0
 15 16  1  0
 16 17  1  0
 17 18  1  0
  2 19  1  0
 19 20  2  0
 20 21  1  0
 21 22  2  0
 22 23  1  0
 23 24  2  0
 24 25  1  0
 24 26  1  0
 26 27  2  0
 27 28  1  0
 28 29  2  0
 12  7  1  0
 18 14  1  0
 29 19  1  0
 28 22  1  0
  3 30  1  0
  4 31  1  0
  4 32  1  0
  8 33  1  0
  8 34  1  0
  9 35  1  0
  9 36  1  0
 10 37  1  0
 10 38  1  0
 11 39  1  0
 11 40  1  0
 12 41  1  1
 13 42  1  0
 13 43  1  0
 15 44  1  0
 15 45  1  0
 16 46  1  0
 16 47  1  0
 17 48  1  0
 17 49  1  0
 18 50  1  0
 18 51  1  0
 20 52  1  0
 21 53  1  0
 23 54  1  0
 26 55  1  0
 27 56  1  0
M  END
>  <smiles>  (16) 
O=C(NCC(=O)N1CCCC[C@H]1CN1CCCC1)c1ccc2cc(Cl)ccc2n1

>  <score_type>  (16) 
oracle

>  <origin>  (16) 
autodockgpu

>  <m_score__min__energy>  (16) 
-8.25

>  <m_primary>  (16) 
energy

>  <rmsd>  (16) 
2.31360807695405

>  <m_score__min__rmsd>  (16) 
2.31360807695405

>  <meeko>  (16) 
{"free_energy": -7.89, "intermolecular_energy": -9.68, "internal_energy": -1.47, "cluster_size": 25, "cluster_id": 1, "rank_in_cluster": 9}

>  <energy>  (16) 
-7.52

>  <cluster_rmsd>  (16) 
1.08

>  <cluster>  (16) 
1

$$$$

     RDKit          3D

 56 59  0  0  0  0  0  0  0  0999 V2000
  140.8610   74.4180  221.6550 O   0  0  0  0  0  0  0  0  0  0  0  0
  139.7290   73.9090  221.9040 C   0  0  0  0  0  0  0  0  0  0  0  0
  138.6060   74.5840  221.3380 N   0  0  0  0  0  0  0  0  0  0  0  0
  138.9110   75.7730  220.5490 C   0  0  0  0  0  0  0  0  0  0  0  0
  139.2640   76.9300  221.3970 C   0  0  0  0  0  0  0  0  0  0  0  0
  138.7880   77.0790  222.5460 O   0  0  0  0  0  0  0  0  0  0  0  0
  140.1660   77.8840  220.8790 N   0  0  0  0  0  0  0  0  0  0  0  0
  139.7600   78.9970  220.0160 C   0  0  0  0  0  0  0  0  0  0  0  0
  140.7020   79.2440  218.8810 C   0  0  0  0  0  0  0  0  0  0  0  0
  141.8230   78.3020  218.6880 C   0  0  0  0  0  0  0  0  0  0  0  0
  142.2300   77.4610  219.8500 C   0  0  0  0  0  0  0  0  0  0  0  0
  141.6170   77.8370  221.1390 C   0  0  1  0  0  0  0  0  0  0  0  0
  142.0920   79.0380  221.8380 C   0  0  0  0  0  0  0  0  0  0  0  0
  142.1310   79.0310  223.2690 N   0  0  0  0  0  0  0  0  0  0  0  0
  140.7780   79.2910  223.8170 C   0  0  0  0  0  0  0  0  0  0  0  0
  140.4830   80.6550  223.2540 C   0  0  0  0  0  0  0  0  0  0  0  0
  141.8260   81.3510  223.3970 C   0  0  0  0  0  0  0  0  0  0  0  0
  142.7610   80.2420  223.8380 C   0  0  0  0  0  0  0  0  0  0  0  0
  139.6020   72.7080  222.7210 C   0  0  0  0  0  0  0  0  0  0  0  0
  138.5240   71.8830  222.4850 C   0  0  0  0  0  0  0  0  0  0  0  0
  138.3000   70.7180  223.1890 C   0  0  0  0  0  0  0  0  0  0  0  0
  139.2420   70.4110  224.1730 C   0  0  0  0  0  0  0  0  0  0  0  0
  139.0690   69.2550  224.9090 C   0  0  0  0  0  0  0  0  0  0  0  0
  139.9640   68.8740  225.9100 C   0  0  0  0  0  0  0  0  0  0  0  0
  139.7290   67.4010  226.8360 Cl  0  0  0  0  0  0  0  0  0  0  0  0
  141.0300   69.7230  226.1200 C   0  0  0  0  0  0  0  0  0  0  0  0
  141.2280   70.8840  225.3990 C   0  0  0  0  0  0  0  0  0  0  0  0
  140.3260   71.2320  224.4160 C   0  0  0  0  0  0  0  0  0  0  0  0
  140.4900   72.3740  223.6830 N   0  0  0  0  0  0  0  0  0  0  0  0
  137.6470   74.2260  221.4940 H   0  0  0  0  0  0  0  0  0  0  0  0
  139.7584   75.5493  219.8843 H   0  0  0  0  0  0  0  0  0  0  0  0
  138.0108   76.0373  219.9748 H   0  0  0  0  0  0  0  0  0  0  0  0
  138.7662   78.7720  219.6015 H   0  0  0  0  0  0  0  0  0  0  0  0
  139.7561   79.9046  220.6375 H   0  0  0  0  0  0  0  0  0  0  0  0
  140.1071   79.2372  217.9558 H   0  0  0  0  0  0  0  0  0  0  0  0
  141.1877   80.1985  219.1321 H   0  0  0  0  0  0  0  0  0  0  0  0
  141.5424   77.6204  217.8715 H   0  0  0  0  0  0  0  0  0  0  0  0
  142.6944   78.9438  218.4908 H   0  0  0  0  0  0  0  0  0  0  0  0
  141.9519   76.4195  219.6311 H   0  0  0  0  0  0  0  0  0  0  0  0
  143.3133   77.6084  219.9709 H   0  0  0  0  0  0  0  0  0  0  0  0
  141.9297   77.0778  221.8710 H   0  0  0  0  0  0  0  0  0  0  0  0
  143.1162   79.2328  221.4873 H   0  0  0  0  0  0  0  0  0  0  0  0
  141.3397   79.8030  221.5953 H   0  0  0  0  0  0  0  0  0  0  0  0
  140.0512   78.5447  223.4637 H   0  0  0  0  0  0  0  0  0  0  0  0
  140.7206   79.2368  224.9142 H   0  0  0  0  0  0  0  0  0  0  0  0
  140.1741   80.5944  222.2000 H   0  0  0  0  0  0  0  0  0  0  0  0
  139.6568   81.1754  223.7605 H   0  0  0  0  0  0  0  0  0  0  0  0
  142.1503   81.7787  222.4368 H   0  0  0  0  0  0  0  0  0  0  0  0
  141.7971   82.1912  224.1064 H   0  0  0  0  0  0  0  0  0  0  0  0
  143.7716   80.3910  223.4299 H   0  0  0  0  0  0  0  0  0  0  0  0
  142.8903   80.1918  224.9292 H   0  0  0  0  0  0  0  0  0  0  0  0
  137.8088   72.1665  221.6988 H   0  0  0  0  0  0  0  0  0  0  0  0
  137.4333   70.0712  222.9877 H   0  0  0  0  0  0  0  0  0  0  0  0
  138.1992   68.6150  224.6998 H   0  0  0  0  0  0  0  0  0  0  0  0
  141.7594   69.4624  226.9011 H   0  0  0  0  0  0  0  0  0  0  0  0
  142.0972   71.5252  225.6070 H   0  0  0  0  0  0  0  0  0  0  0  0
  1  2  2  0
  2  3  1  0
  3  4  1  0
  4  5  1  0
  5  6  2  0
  5  7  1  0
  7  8  1  0
  8  9  1  0
  9 10  1  0
 10 11  1  0
 11 12  1  0
 12 13  1  0
 13 14  1  0
 14 15  1  0
 15 16  1  0
 16 17  1  0
 17 18  1  0
  2 19  1  0
 19 20  2  0
 20 21  1  0
 21 22  2  0
 22 23  1  0
 23 24  2  0
 24 25  1  0
 24 26  1  0
 26 27  2  0
 27 28  1  0
 28 29  2  0
 12  7  1  0
 18 14  1  0
 29 19  1  0
 28 22  1  0
  3 30  1  0
  4 31  1  0
  4 32  1  0
  8 33  1  0
  8 34  1  0
  9 35  1  0
  9 36  1  0
 10 37  1  0
 10 38  1  0
 11 39  1  0
 11 40  1  0
 12 41  1  1
 13 42  1  0
 13 43  1  0
 15 44  1  0
 15 45  1  0
 16 46  1  0
 16 47  1  0
 17 48  1  0
 17 49  1  0
 18 50  1  0
 18 51  1  0
 20 52  1  0
 21 53  1  0
 23 54  1  0
 26 55  1  0
 27 56  1  0
M  END
>  <smiles>  (17) 
O=C(NCC(=O)N1CCCC[C@H]1CN1CCCC1)c1ccc2cc(Cl)ccc2n1

>  <score_type>  (17) 
oracle

>  <origin>  (17) 
autodockgpu

>  <m_score__min__energy>  (17) 
-8.25

>  <m_primary>  (17) 
energy

>  <rmsd>  (17) 
2.895112248407007

>  <m_score__min__rmsd>  (17) 
2.895112248407007

>  <meeko>  (17) 
{"free_energy": -7.32, "intermolecular_energy": -9.11, "internal_energy": -1.73, "cluster_size": 25, "cluster_id": 1, "rank_in_cluster": 25}

>  <energy>  (17) 
-7.51

>  <cluster_rmsd>  (17) 
1.28

>  <cluster>  (17) 
1

$$$$

     RDKit          3D

 56 59  0  0  0  0  0  0  0  0999 V2000
  139.3090   75.9370  223.0880 O   0  0  0  0  0  0  0  0  0  0  0  0
  139.6950   75.9210  221.8830 C   0  0  0  0  0  0  0  0  0  0  0  0
  139.1430   76.9330  221.0400 N   0  0  0  0  0  0  0  0  0  0  0  0
  138.2050   77.8500  221.6790 C   0  0  0  0  0  0  0  0  0  0  0  0
  138.8820   78.7970  222.5890 C   0  0  0  0  0  0  0  0  0  0  0  0
  138.2570   79.4280  223.4720 O   0  0  0  0  0  0  0  0  0  0  0  0
  140.2730   78.9790  222.4440 N   0  0  0  0  0  0  0  0  0  0  0  0
  141.2460   78.6490  223.4900 C   0  0  0  0  0  0  0  0  0  0  0  0
  142.3300   79.6700  223.6370 C   0  0  0  0  0  0  0  0  0  0  0  0
  142.2370   80.9060  222.8350 C   0  0  0  0  0  0  0  0  0  0  0  0
  141.3690   80.8830  221.6220 C   0  0  0  0  0  0  0  0  0  0  0  0
  140.8840   79.5460  221.2270 C   0  0  1  0  0  0  0  0  0  0  0  0
  141.8110   78.6050  220.5850 C   0  0  0  0  0  0  0  0  0  0  0  0
  141.3080   77.7240  219.5760 N   0  0  0  0  0  0  0  0  0  0  0  0
  142.4210   77.2340  218.7260 C   0  0  0  0  0  0  0  0  0  0  0  0
  142.9530   78.5210  218.1570 C   0  0  0  0  0  0  0  0  0  0  0  0
  141.6750   79.2910  217.8710 C   0  0  0  0  0  0  0  0  0  0  0  0
  140.5900   78.4320  218.4920 C   0  0  0  0  0  0  0  0  0  0  0  0
  140.6440   74.9230  221.4040 C   0  0  0  0  0  0  0  0  0  0  0  0
  140.1720   73.6490  221.1730 C   0  0  0  0  0  0  0  0  0  0  0  0
  140.9720   72.6230  220.7160 C   0  0  0  0  0  0  0  0  0  0  0  0
  142.3110   72.9470  220.4930 C   0  0  0  0  0  0  0  0  0  0  0  0
  143.1580   71.9580  220.0330 C   0  0  0  0  0  0  0  0  0  0  0  0
  144.5110   72.1990  219.7840 C   0  0  0  0  0  0  0  0  0  0  0  0
  145.5740   70.9300  219.1990 Cl  0  0  0  0  0  0  0  0  0  0  0  0
  144.9490   73.4840  220.0270 C   0  0  0  0  0  0  0  0  0  0  0  0
  144.1240   74.4910  220.4850 C   0  0  0  0  0  0  0  0  0  0  0  0
  142.7930   74.2220  220.7220 C   0  0  0  0  0  0  0  0  0  0  0  0
  141.9470   75.1950  221.1760 N   0  0  0  0  0  0  0  0  0  0  0  0
  139.4130   76.9870  220.0420 H   0  0  0  0  0  0  0  0  0  0  0  0
  137.6813   78.4216  220.8987 H   0  0  0  0  0  0  0  0  0  0  0  0
  137.5020   77.2514  222.2769 H   0  0  0  0  0  0  0  0  0  0  0  0
  140.7128   78.5661  224.4486 H   0  0  0  0  0  0  0  0  0  0  0  0
  141.7276   77.7038  223.1989 H   0  0  0  0  0  0  0  0  0  0  0  0
  142.3553   79.9689  224.6953 H   0  0  0  0  0  0  0  0  0  0  0  0
  143.2319   79.1666  223.2587 H   0  0  0  0  0  0  0  0  0  0  0  0
  141.8564   81.6985  223.4961 H   0  0  0  0  0  0  0  0  0  0  0  0
  143.2540   81.0614  222.4457 H   0  0  0  0  0  0  0  0  0  0  0  0
  140.4934   81.5197  221.8168 H   0  0  0  0  0  0  0  0  0  0  0  0
  141.9935   81.2415  220.7904 H   0  0  0  0  0  0  0  0  0  0  0  0
  140.1871   79.6984  220.3897 H   0  0  0  0  0  0  0  0  0  0  0  0
  142.6106   79.2028  220.1232 H   0  0  0  0  0  0  0  0  0  0  0  0
  142.1141   77.9314  221.4001 H   0  0  0  0  0  0  0  0  0  0  0  0
  143.1837   76.7132  219.3235 H   0  0  0  0  0  0  0  0  0  0  0  0
  142.1152   76.5001  217.9658 H   0  0  0  0  0  0  0  0  0  0  0  0
  143.5838   79.0501  218.8865 H   0  0  0  0  0  0  0  0  0  0  0  0
  143.5956   78.3841  217.2748 H   0  0  0  0  0  0  0  0  0  0  0  0
  141.7035   80.2859  218.3393 H   0  0  0  0  0  0  0  0  0  0  0  0
  141.5157   79.4680  216.7971 H   0  0  0  0  0  0  0  0  0  0  0  0
  139.7766   79.0527  218.8958 H   0  0  0  0  0  0  0  0  0  0  0  0
  140.1097   77.7521  217.7730 H   0  0  0  0  0  0  0  0  0  0  0  0
  139.1085   73.4410  221.3618 H   0  0  0  0  0  0  0  0  0  0  0  0
  140.5788   71.6112  220.5381 H   0  0  0  0  0  0  0  0  0  0  0  0
  142.7548   70.9497  219.8574 H   0  0  0  0  0  0  0  0  0  0  0  0
  146.0086   73.7179  219.8468 H   0  0  0  0  0  0  0  0  0  0  0  0
  144.5253   75.5002  220.6595 H   0  0  0  0  0  0  0  0  0  0  0  0
  1  2  2  0
  2  3  1  0
  3  4  1  0
  4  5  1  0
  5  6  2  0
  5  7  1  0
  7  8  1  0
  8  9  1  0
  9 10  1  0
 10 11  1  0
 11 12  1  0
 12 13  1  0
 13 14  1  0
 14 15  1  0
 15 16  1  0
 16 17  1  0
 17 18  1  0
  2 19  1  0
 19 20  2  0
 20 21  1  0
 21 22  2  0
 22 23  1  0
 23 24  2  0
 24 25  1  0
 24 26  1  0
 26 27  2  0
 27 28  1  0
 28 29  2  0
 12  7  1  0
 18 14  1  0
 29 19  1  0
 28 22  1  0
  3 30  1  0
  4 31  1  0
  4 32  1  0
  8 33  1  0
  8 34  1  0
  9 35  1  0
  9 36  1  0
 10 37  1  0
 10 38  1  0
 11 39  1  0
 11 40  1  0
 12 41  1  6
 13 42  1  0
 13 43  1  0
 15 44  1  0
 15 45  1  0
 16 46  1  0
 16 47  1  0
 17 48  1  0
 17 49  1  0
 18 50  1  0
 18 51  1  0
 20 52  1  0
 21 53  1  0
 23 54  1  0
 26 55  1  0
 27 56  1  0
M  END
>  <smiles>  (18) 
O=C(NCC(=O)N1CCCC[C@H]1CN1CCCC1)c1ccc2cc(Cl)ccc2n1

>  <score_type>  (18) 
oracle

>  <origin>  (18) 
autodockgpu

>  <m_score__min__energy>  (18) 
-8.25

>  <m_primary>  (18) 
energy

>  <rmsd>  (18) 
5.933670936635074

>  <m_score__min__rmsd>  (18) 
5.933670936635074

>  <meeko>  (18) 
{"free_energy": -5.93, "intermolecular_energy": -7.72, "internal_energy": -3.19, "cluster_size": 15, "cluster_id": 6, "rank_in_cluster": 13}

>  <energy>  (18) 
-7.5

>  <cluster_rmsd>  (18) 
1.19

>  <cluster>  (18) 
1

$$$$

     RDKit          3D

 56 59  0  0  0  0  0  0  0  0999 V2000
  133.9640   70.0320  227.2220 O   0  0  0  0  0  0  0  0  0  0  0  0
  133.8860   70.9090  226.3130 C   0  0  0  0  0  0  0  0  0  0  0  0
  134.3390   70.5070  225.0200 N   0  0  0  0  0  0  0  0  0  0  0  0
  134.8350   69.1380  224.9180 C   0  0  0  0  0  0  0  0  0  0  0  0
  135.8700   68.9960  223.8730 C   0  0  0  0  0  0  0  0  0  0  0  0
  135.6840   68.3020  222.8470 O   0  0  0  0  0  0  0  0  0  0  0  0
  137.0960   69.6690  224.0550 N   0  0  0  0  0  0  0  0  0  0  0  0
  137.2650   71.1110  223.8510 C   0  0  0  0  0  0  0  0  0  0  0  0
  138.5380   71.4670  223.1500 C   0  0  0  0  0  0  0  0  0  0  0  0
  139.3890   70.3690  222.6520 C   0  0  0  0  0  0  0  0  0  0  0  0
  139.1990   69.0160  223.2500 C   0  0  0  0  0  0  0  0  0  0  0  0
  138.3380   68.9790  224.4480 C   0  0  1  0  0  0  0  0  0  0  0  0
  138.8640   69.4740  225.7270 C   0  0  0  0  0  0  0  0  0  0  0  0
  140.2820   69.5450  225.9070 N   0  0  0  0  0  0  0  0  0  0  0  0
  140.7070   68.6140  226.9800 C   0  0  0  0  0  0  0  0  0  0  0  0
  139.9470   69.1510  228.1620 C   0  0  0  0  0  0  0  0  0  0  0  0
  140.0750   70.6520  227.9630 C   0  0  0  0  0  0  0  0  0  0  0  0
  140.7190   70.7790  226.5960 C   0  0  0  0  0  0  0  0  0  0  0  0
  133.3640   72.2420  226.5900 C   0  0  0  0  0  0  0  0  0  0  0  0
  132.1510   72.3330  227.2380 C   0  0  0  0  0  0  0  0  0  0  0  0
  131.5590   73.5370  227.5590 C   0  0  0  0  0  0  0  0  0  0  0  0
  132.2660   74.6810  227.1860 C   0  0  0  0  0  0  0  0  0  0  0  0
  131.7200   75.9150  227.4830 C   0  0  0  0  0  0  0  0  0  0  0  0
  132.3620   77.1090  227.1460 C   0  0  0  0  0  0  0  0  0  0  0  0
  131.6540   78.6680  227.5320 Cl  0  0  0  0  0  0  0  0  0  0  0  0
  133.5730   76.9790  226.4980 C   0  0  0  0  0  0  0  0  0  0  0  0
  134.1400   75.7600  226.1900 C   0  0  0  0  0  0  0  0  0  0  0  0
  133.4820   74.5990  226.5360 C   0  0  0  0  0  0  0  0  0  0  0  0
  134.0150   73.3740  226.2460 N   0  0  0  0  0  0  0  0  0  0  0  0
  134.3040   71.1680  224.2240 H   0  0  0  0  0  0  0  0  0  0  0  0
  135.2666   68.8445  225.8863 H   0  0  0  0  0  0  0  0  0  0  0  0
  133.9881   68.4914  224.6448 H   0  0  0  0  0  0  0  0  0  0  0  0
  136.4209   71.4793  223.2494 H   0  0  0  0  0  0  0  0  0  0  0  0
  137.3011   71.5777  224.8465 H   0  0  0  0  0  0  0  0  0  0  0  0
  138.2705   72.0910  222.2845 H   0  0  0  0  0  0  0  0  0  0  0  0
  139.1482   71.9562  223.9235 H   0  0  0  0  0  0  0  0  0  0  0  0
  139.2081   70.2782  221.5708 H   0  0  0  0  0  0  0  0  0  0  0  0
  140.4106   70.6580  222.9396 H   0  0  0  0  0  0  0  0  0  0  0  0
  138.7487   68.3654  222.4859 H   0  0  0  0  0  0  0  0  0  0  0  0
  140.1948   68.6816  223.5766 H   0  0  0  0  0  0  0  0  0  0  0  0
  138.2116   67.9189  224.7131 H   0  0  0  0  0  0  0  0  0  0  0  0
  138.4687   70.4909  225.8675 H   0  0  0  0  0  0  0  0  0  0  0  0
  138.5400   68.7190  226.4585 H   0  0  0  0  0  0  0  0  0  0  0  0
  140.4155   67.5781  226.7519 H   0  0  0  0  0  0  0  0  0  0  0  0
  141.7959   68.5695  227.1297 H   0  0  0  0  0  0  0  0  0  0  0  0
  138.8943   68.8329  228.1386 H   0  0  0  0  0  0  0  0  0  0  0  0
  140.3271   68.7978  229.1319 H   0  0  0  0  0  0  0  0  0  0  0  0
  139.0870   71.1354  227.9777 H   0  0  0  0  0  0  0  0  0  0  0  0
  140.6599   71.1392  228.7570 H   0  0  0  0  0  0  0  0  0  0  0  0
  140.3572   71.6748  226.0701 H   0  0  0  0  0  0  0  0  0  0  0  0
  141.8128   70.8869  226.6402 H   0  0  0  0  0  0  0  0  0  0  0  0
  131.6311   71.4031  227.5118 H   0  0  0  0  0  0  0  0  0  0  0  0
  130.5900   73.5919  228.0767 H   0  0  0  0  0  0  0  0  0  0  0  0
  130.7503   75.9585  228.0005 H   0  0  0  0  0  0  0  0  0  0  0  0
  134.1135   77.8935  226.2126 H   0  0  0  0  0  0  0  0  0  0  0  0
  135.1095   75.7145  225.6724 H   0  0  0  0  0  0  0  0  0  0  0  0
  1  2  2  0
  2  3  1  0
  3  4  1  0
  4  5  1  0
  5  6  2  0
  5  7  1  0
  7  8  1  0
  8  9  1  0
  9 10  1  0
 10 11  1  0
 11 12  1  0
 12 13  1  0
 13 14  1  0
 14 15  1  0
 15 16  1  0
 16 17  1  0
 17 18  1  0
  2 19  1  0
 19 20  2  0
 20 21  1  0
 21 22  2  0
 22 23  1  0
 23 24  2  0
 24 25  1  0
 24 26  1  0
 26 27  2  0
 27 28  1  0
 28 29  2  0
 12  7  1  0
 18 14  1  0
 29 19  1  0
 28 22  1  0
  3 30  1  0
  4 31  1  0
  4 32  1  0
  8 33  1  0
  8 34  1  0
  9 35  1  0
  9 36  1  0
 10 37  1  0
 10 38  1  0
 11 39  1  0
 11 40  1  0
 12 41  1  1
 13 42  1  0
 13 43  1  0
 15 44  1  0
 15 45  1  0
 16 46  1  0
 16 47  1  0
 17 48  1  0
 17 49  1  0
 18 50  1  0
 18 51  1  0
 20 52  1  0
 21 53  1  0
 23 54  1  0
 26 55  1  0
 27 56  1  0
M  END
>  <smiles>  (19) 
O=C(NCC(=O)N1CCCC[C@H]1CN1CCCC1)c1ccc2cc(Cl)ccc2n1

>  <score_type>  (19) 
oracle

>  <origin>  (19) 
autodockgpu

>  <m_score__min__energy>  (19) 
-8.25

>  <m_primary>  (19) 
energy

>  <rmsd>  (19) 
9.379350907002099

>  <m_score__min__rmsd>  (19) 
9.379350907002099

>  <meeko>  (19) 
{"free_energy": -7.72, "intermolecular_energy": -9.51, "internal_energy": -1.57, "cluster_size": 1, "cluster_id": 3, "rank_in_cluster": 1}

>  <energy>  (19) 
-7.49

>  <cluster_rmsd>  (19) 
1.56

>  <cluster>  (19) 
1

$$$$

     RDKit          3D

 56 59  0  0  0  0  0  0  0  0999 V2000
  139.4280   75.2510  222.7020 O   0  0  0  0  0  0  0  0  0  0  0  0
  140.2060   75.7510  221.8380 C   0  0  0  0  0  0  0  0  0  0  0  0
  139.9520   77.1120  221.4880 N   0  0  0  0  0  0  0  0  0  0  0  0
  138.8280   77.7450  222.1700 C   0  0  0  0  0  0  0  0  0  0  0  0
  139.1570   79.1040  222.6470 C   0  0  0  0  0  0  0  0  0  0  0  0
  138.2900   79.8630  223.1370 O   0  0  0  0  0  0  0  0  0  0  0  0
  140.4940   79.5400  222.5380 N   0  0  0  0  0  0  0  0  0  0  0  0
  141.5850   79.0230  223.3710 C   0  0  0  0  0  0  0  0  0  0  0  0
  142.5280   80.0840  223.8420 C   0  0  0  0  0  0  0  0  0  0  0  0
  142.2030   81.4910  223.5370 C   0  0  0  0  0  0  0  0  0  0  0  0
  141.2510   81.7570  222.4200 C   0  0  0  0  0  0  0  0  0  0  0  0
  140.9220   80.5830  221.5870 C   0  0  1  0  0  0  0  0  0  0  0  0
  141.9130   80.0830  220.6270 C   0  0  0  0  0  0  0  0  0  0  0  0
  141.5450   79.0100  219.7530 N   0  0  0  0  0  0  0  0  0  0  0  0
  142.4960   78.9280  218.6180 C   0  0  0  0  0  0  0  0  0  0  0  0
  142.3200   80.2800  217.9800 C   0  0  0  0  0  0  0  0  0  0  0  0
  140.8170   80.4800  218.0790 C   0  0  0  0  0  0  0  0  0  0  0  0
  140.3530   79.3140  218.9310 C   0  0  0  0  0  0  0  0  0  0  0  0
  141.2860   74.9710  221.2490 C   0  0  0  0  0  0  0  0  0  0  0  0
  142.2270   75.6420  220.4980 C   0  0  0  0  0  0  0  0  0  0  0  0
  143.2960   75.0130  219.8950 C   0  0  0  0  0  0  0  0  0  0  0  0
  143.3800   73.6340  220.0900 C   0  0  0  0  0  0  0  0  0  0  0  0
  144.4320   72.9510  219.5110 C   0  0  0  0  0  0  0  0  0  0  0  0
  144.5900   71.5720  219.6570 C   0  0  0  0  0  0  0  0  0  0  0  0
  145.9340   70.7210  218.9140 Cl  0  0  0  0  0  0  0  0  0  0  0  0
  143.6310   70.9330  220.4150 C   0  0  0  0  0  0  0  0  0  0  0  0
  142.5700   71.5890  221.0050 C   0  0  0  0  0  0  0  0  0  0  0  0
  142.4420   72.9520  220.8420 C   0  0  0  0  0  0  0  0  0  0  0  0
  141.4050   73.6350  221.4120 N   0  0  0  0  0  0  0  0  0  0  0  0
  140.5470   77.5930  220.7900 H   0  0  0  0  0  0  0  0  0  0  0  0
  137.9811   77.8105  221.4710 H   0  0  0  0  0  0  0  0  0  0  0  0
  138.5770   77.1311  223.0476 H   0  0  0  0  0  0  0  0  0  0  0  0
  141.1475   78.5297  224.2515 H   0  0  0  0  0  0  0  0  0  0  0  0
  142.1657   78.3259  222.7489 H   0  0  0  0  0  0  0  0  0  0  0  0
  142.5986   79.9953  224.9361 H   0  0  0  0  0  0  0  0  0  0  0  0
  143.4560   79.8913  223.2838 H   0  0  0  0  0  0  0  0  0  0  0  0
  141.7727   81.9334  224.4476 H   0  0  0  0  0  0  0  0  0  0  0  0
  143.1544   81.9293  223.2013 H   0  0  0  0  0  0  0  0  0  0  0  0
  140.3156   82.1409  222.8531 H   0  0  0  0  0  0  0  0  0  0  0  0
  141.7515   82.4755  221.7543 H   0  0  0  0  0  0  0  0  0  0  0  0
  140.1453   80.9060  220.8782 H   0  0  0  0  0  0  0  0  0  0  0  0
  142.2050   80.9321  219.9916 H   0  0  0  0  0  0  0  0  0  0  0  0
  142.7032   79.6524  221.2596 H   0  0  0  0  0  0  0  0  0  0  0  0
  143.5282   78.7805  218.9686 H   0  0  0  0  0  0  0  0  0  0  0  0
  142.3104   78.0837  217.9377 H   0  0  0  0  0  0  0  0  0  0  0  0
  142.8646   81.0582  218.5349 H   0  0  0  0  0  0  0  0  0  0  0  0
  142.7098   80.3411  216.9532 H   0  0  0  0  0  0  0  0  0  0  0  0
  140.5802   81.4385  218.5639 H   0  0  0  0  0  0  0  0  0  0  0  0
  140.3259   80.5104  217.0952 H   0  0  0  0  0  0  0  0  0  0  0  0
  139.4993   79.6006  219.5627 H   0  0  0  0  0  0  0  0  0  0  0  0
  140.0034   78.4555  218.3388 H   0  0  0  0  0  0  0  0  0  0  0  0
  142.1204   76.7298  220.3738 H   0  0  0  0  0  0  0  0  0  0  0  0
  144.0367   75.5644  219.2972 H   0  0  0  0  0  0  0  0  0  0  0  0
  145.1682   73.5116  218.9163 H   0  0  0  0  0  0  0  0  0  0  0  0
  143.7163   69.8455  220.5563 H   0  0  0  0  0  0  0  0  0  0  0  0
  141.8331   71.0295  221.6000 H   0  0  0  0  0  0  0  0  0  0  0  0
  1  2  2  0
  2  3  1  0
  3  4  1  0
  4  5  1  0
  5  6  2  0
  5  7  1  0
  7  8  1  0
  8  9  1  0
  9 10  1  0
 10 11  1  0
 11 12  1  0
 12 13  1  0
 13 14  1  0
 14 15  1  0
 15 16  1  0
 16 17  1  0
 17 18  1  0
  2 19  1  0
 19 20  2  0
 20 21  1  0
 21 22  2  0
 22 23  1  0
 23 24  2  0
 24 25  1  0
 24 26  1  0
 26 27  2  0
 27 28  1  0
 28 29  2  0
 12  7  1  0
 18 14  1  0
 29 19  1  0
 28 22  1  0
  3 30  1  0
  4 31  1  0
  4 32  1  0
  8 33  1  0
  8 34  1  0
  9 35  1  0
  9 36  1  0
 10 37  1  0
 10 38  1  0
 11 39  1  0
 11 40  1  0
 12 41  1  6
 13 42  1  0
 13 43  1  0
 15 44  1  0
 15 45  1  0
 16 46  1  0
 16 47  1  0
 17 48  1  0
 17 49  1  0
 18 50  1  0
 18 51  1  0
 20 52  1  0
 21 53  1  0
 23 54  1  0
 26 55  1  0
 27 56  1  0
M  END
>  <smiles>  (20) 
O=C(NCC(=O)N1CCCC[C@H]1CN1CCCC1)c1ccc2cc(Cl)ccc2n1

>  <score_type>  (20) 
oracle

>  <origin>  (20) 
autodockgpu

>  <m_score__min__energy>  (20) 
-8.25

>  <m_primary>  (20) 
energy

>  <rmsd>  (20) 
6.4133357206968675

>  <m_score__min__rmsd>  (20) 
6.4133357206968675

>  <meeko>  (20) 
{"free_energy": -6.31, "intermolecular_energy": -8.1, "internal_energy": -2.79, "cluster_size": 15, "cluster_id": 6, "rank_in_cluster": 5}

>  <energy>  (20) 
-7.46

>  <cluster_rmsd>  (20) 
1.34

>  <cluster>  (20) 
1

$$$$

     RDKit          3D

 56 59  0  0  0  0  0  0  0  0999 V2000
  138.8620   71.1120  221.3200 O   0  0  0  0  0  0  0  0  0  0  0  0
  139.0150   71.8000  222.3710 C   0  0  0  0  0  0  0  0  0  0  0  0
  138.6450   73.1760  222.2710 N   0  0  0  0  0  0  0  0  0  0  0  0
  138.1420   73.6060  220.9710 C   0  0  0  0  0  0  0  0  0  0  0  0
  137.9350   75.0680  220.9080 C   0  0  0  0  0  0  0  0  0  0  0  0
  136.7920   75.5770  220.9500 O   0  0  0  0  0  0  0  0  0  0  0  0
  139.0720   75.8960  220.8000 N   0  0  0  0  0  0  0  0  0  0  0  0
  139.6330   76.3380  219.5200 C   0  0  0  0  0  0  0  0  0  0  0  0
  141.1280   76.3010  219.4800 C   0  0  0  0  0  0  0  0  0  0  0  0
  141.8410   75.7300  220.6390 C   0  0  0  0  0  0  0  0  0  0  0  0
  141.1090   75.6530  221.9370 C   0  0  0  0  0  0  0  0  0  0  0  0
  139.8250   76.3800  221.9720 C   0  0  1  0  0  0  0  0  0  0  0  0
  139.8300   77.8460  222.0590 C   0  0  0  0  0  0  0  0  0  0  0  0
  140.1630   78.4600  223.3080 N   0  0  0  0  0  0  0  0  0  0  0  0
  139.8250   79.9040  223.2710 C   0  0  0  0  0  0  0  0  0  0  0  0
  140.6930   80.3860  222.1400 C   0  0  0  0  0  0  0  0  0  0  0  0
  141.9800   79.6150  222.3800 C   0  0  0  0  0  0  0  0  0  0  0  0
  141.6190   78.6500  223.4920 C   0  0  0  0  0  0  0  0  0  0  0  0
  139.5390   71.2080  223.5950 C   0  0  0  0  0  0  0  0  0  0  0  0
  140.4880   71.9200  224.2970 C   0  0  0  0  0  0  0  0  0  0  0  0
  141.0530   71.4650  225.4700 C   0  0  0  0  0  0  0  0  0  0  0  0
  140.6050   70.2220  225.9200 C   0  0  0  0  0  0  0  0  0  0  0  0
  141.1350   69.7180  227.0910 C   0  0  0  0  0  0  0  0  0  0  0  0
  140.7420   68.4830  227.6110 C   0  0  0  0  0  0  0  0  0  0  0  0
  141.4270   67.8580  229.1010 Cl  0  0  0  0  0  0  0  0  0  0  0  0
  139.7920   67.7980  226.8830 C   0  0  0  0  0  0  0  0  0  0  0  0
  139.2450   68.2790  225.7100 C   0  0  0  0  0  0  0  0  0  0  0  0
  139.6540   69.5020  225.2230 C   0  0  0  0  0  0  0  0  0  0  0  0
  139.1340   70.0080  224.0660 N   0  0  0  0  0  0  0  0  0  0  0  0
  138.7390   73.8030  223.0890 H   0  0  0  0  0  0  0  0  0  0  0  0
  138.8684   73.3174  220.1970 H   0  0  0  0  0  0  0  0  0  0  0  0
  137.1688   73.1199  220.8079 H   0  0  0  0  0  0  0  0  0  0  0  0
  139.2470   75.6824  218.7256 H   0  0  0  0  0  0  0  0  0  0  0  0
  139.3310   77.3863  219.3787 H   0  0  0  0  0  0  0  0  0  0  0  0
  141.4165   75.7123  218.5967 H   0  0  0  0  0  0  0  0  0  0  0  0
  141.4274   77.3594  219.4692 H   0  0  0  0  0  0  0  0  0  0  0  0
  142.1389   74.7061  220.3691 H   0  0  0  0  0  0  0  0  0  0  0  0
  142.6678   76.4305  220.8283 H   0  0  0  0  0  0  0  0  0  0  0  0
  140.9074   74.5934  222.1529 H   0  0  0  0  0  0  0  0  0  0  0  0
  141.7562   76.1351  222.6845 H   0  0  0  0  0  0  0  0  0  0  0  0
  139.3610   76.1530  222.9431 H   0  0  0  0  0  0  0  0  0  0  0  0
  140.5535   78.2118  221.3155 H   0  0  0  0  0  0  0  0  0  0  0  0
  138.7789   78.1264  221.8959 H   0  0  0  0  0  0  0  0  0  0  0  0
  138.7582   80.0616  223.0542 H   0  0  0  0  0  0  0  0  0  0  0  0
  139.9952   80.4291  224.2224 H   0  0  0  0  0  0  0  0  0  0  0  0
  140.2530   80.1354  221.1635 H   0  0  0  0  0  0  0  0  0  0  0  0
  140.8271   81.4776  222.1175 H   0  0  0  0  0  0  0  0  0  0  0  0
  142.2868   79.0721  221.4738 H   0  0  0  0  0  0  0  0  0  0  0  0
  142.8259   80.2682  222.6404 H   0  0  0  0  0  0  0  0  0  0  0  0
  142.1592   77.6983  223.3805 H   0  0  0  0  0  0  0  0  0  0  0  0
  141.8846   79.0223  224.4924 H   0  0  0  0  0  0  0  0  0  0  0  0
  140.8094   72.8957  223.9036 H   0  0  0  0  0  0  0  0  0  0  0  0
  141.8100   72.0459  226.0172 H   0  0  0  0  0  0  0  0  0  0  0  0
  141.8903   70.3076  227.6312 H   0  0  0  0  0  0  0  0  0  0  0  0
  139.4532   66.8199  227.2552 H   0  0  0  0  0  0  0  0  0  0  0  0
  138.4891   67.6912  225.1686 H   0  0  0  0  0  0  0  0  0  0  0  0
  1  2  2  0
  2  3  1  0
  3  4  1  0
  4  5  1  0
  5  6  2  0
  5  7  1  0
  7  8  1  0
  8  9  1  0
  9 10  1  0
 10 11  1  0
 11 12  1  0
 12 13  1  0
 13 14  1  0
 14 15  1  0
 15 16  1  0
 16 17  1  0
 17 18  1  0
  2 19  1  0
 19 20  2  0
 20 21  1  0
 21 22  2  0
 22 23  1  0
 23 24  2  0
 24 25  1  0
 24 26  1  0
 26 27  2  0
 27 28  1  0
 28 29  2  0
 12  7  1  0
 18 14  1  0
 29 19  1  0
 28 22  1  0
  3 30  1  0
  4 31  1  0
  4 32  1  0
  8 33  1  0
  8 34  1  0
  9 35  1  0
  9 36  1  0
 10 37  1  0
 10 38  1  0
 11 39  1  0
 11 40  1  0
 12 41  1  1
 13 42  1  0
 13 43  1  0
 15 44  1  0
 15 45  1  0
 16 46  1  0
 16 47  1  0
 17 48  1  0
 17 49  1  0
 18 50  1  0
 18 51  1  0
 20 52  1  0
 21 53  1  0
 23 54  1  0
 26 55  1  0
 27 56  1  0
M  END
>  <smiles>  (21) 
O=C(NCC(=O)N1CCCC[C@H]1CN1CCCC1)c1ccc2cc(Cl)ccc2n1

>  <score_type>  (21) 
oracle

>  <origin>  (21) 
autodockgpu

>  <m_score__min__energy>  (21) 
-8.25

>  <m_primary>  (21) 
energy

>  <rmsd>  (21) 
3.0502279079033907

>  <m_score__min__rmsd>  (21) 
3.0502279079033907

>  <meeko>  (21) 
{"free_energy": -7.44, "intermolecular_energy": -9.23, "internal_energy": -1.59, "cluster_size": 25, "cluster_id": 1, "rank_in_cluster": 21}

>  <energy>  (21) 
-7.44

>  <cluster_rmsd>  (21) 
1.46

>  <cluster>  (21) 
1

$$$$

     RDKit          3D

 56 59  0  0  0  0  0  0  0  0999 V2000
  138.8550   75.9630  223.0840 O   0  0  0  0  0  0  0  0  0  0  0  0
  139.5320   76.1340  222.0280 C   0  0  0  0  0  0  0  0  0  0  0  0
  139.2640   77.3370  221.3070 N   0  0  0  0  0  0  0  0  0  0  0  0
  138.2430   78.2080  221.8810 C   0  0  0  0  0  0  0  0  0  0  0  0
  138.8310   79.3270  222.6470 C   0  0  0  0  0  0  0  0  0  0  0  0
  138.1340   80.0670  223.3780 O   0  0  0  0  0  0  0  0  0  0  0  0
  140.2200   79.5490  222.5390 N   0  0  0  0  0  0  0  0  0  0  0  0
  141.2140   78.8880  223.3910 C   0  0  0  0  0  0  0  0  0  0  0  0
  142.3080   79.8020  223.8460 C   0  0  0  0  0  0  0  0  0  0  0  0
  142.2060   81.2350  223.5070 C   0  0  0  0  0  0  0  0  0  0  0  0
  141.3100   81.6190  222.3780 C   0  0  0  0  0  0  0  0  0  0  0  0
  140.8070   80.4910  221.5690 C   0  0  1  0  0  0  0  0  0  0  0  0
  141.7130   79.8220  220.6270 C   0  0  0  0  0  0  0  0  0  0  0  0
  141.2080   78.7420  219.8360 N   0  0  0  0  0  0  0  0  0  0  0  0
  142.2680   78.2340  218.9310 C   0  0  0  0  0  0  0  0  0  0  0  0
  142.5740   79.4570  218.1100 C   0  0  0  0  0  0  0  0  0  0  0  0
  141.1880   80.0380  217.8830 C   0  0  0  0  0  0  0  0  0  0  0  0
  140.2920   79.1870  218.7620 C   0  0  0  0  0  0  0  0  0  0  0  0
  140.5170   75.1530  221.5920 C   0  0  0  0  0  0  0  0  0  0  0  0
  140.1970   73.8190  221.7270 C   0  0  0  0  0  0  0  0  0  0  0  0
  141.0440   72.8000  221.3460 C   0  0  0  0  0  0  0  0  0  0  0  0
  142.2680   73.1960  220.8040 C   0  0  0  0  0  0  0  0  0  0  0  0
  143.1560   72.2170  220.4030 C   0  0  0  0  0  0  0  0  0  0  0  0
  144.4010   72.5280  219.8510 C   0  0  0  0  0  0  0  0  0  0  0  0
  145.5170   71.2710  219.3470 Cl  0  0  0  0  0  0  0  0  0  0  0  0
  144.6880   73.8710  219.7320 C   0  0  0  0  0  0  0  0  0  0  0  0
  143.8190   74.8700  220.1230 C   0  0  0  0  0  0  0  0  0  0  0  0
  142.5980   74.5310  220.6650 C   0  0  0  0  0  0  0  0  0  0  0  0
  141.7130   75.4930  221.0630 N   0  0  0  0  0  0  0  0  0  0  0  0
  139.7780   77.5500  220.4340 H   0  0  0  0  0  0  0  0  0  0  0  0
  137.6297   78.6200  221.0661 H   0  0  0  0  0  0  0  0  0  0  0  0
  137.6360   77.6064  222.5736 H   0  0  0  0  0  0  0  0  0  0  0  0
  140.7019   78.4881  224.2786 H   0  0  0  0  0  0  0  0  0  0  0  0
  141.6822   78.0953  222.7890 H   0  0  0  0  0  0  0  0  0  0  0  0
  142.3590   79.7291  224.9424 H   0  0  0  0  0  0  0  0  0  0  0  0
  143.1976   79.4554  223.2996 H   0  0  0  0  0  0  0  0  0  0  0  0
  141.8469   81.7600  224.4044 H   0  0  0  0  0  0  0  0  0  0  0  0
  143.2149   81.5126  223.1677 H   0  0  0  0  0  0  0  0  0  0  0  0
  140.4434   82.1521  222.7962 H   0  0  0  0  0  0  0  0  0  0  0  0
  141.9173   82.2367  221.7001 H   0  0  0  0  0  0  0  0  0  0  0  0
  140.0920   80.9136  220.8477 H   0  0  0  0  0  0  0  0  0  0  0  0
  142.0795   80.5899  219.9298 H   0  0  0  0  0  0  0  0  0  0  0  0
  142.4676   79.3493  221.2729 H   0  0  0  0  0  0  0  0  0  0  0  0
  143.1505   77.8977  219.4950 H   0  0  0  0  0  0  0  0  0  0  0  0
  141.9680   77.3585  218.3364 H   0  0  0  0  0  0  0  0  0  0  0  0
  143.2164   80.1589  218.6620 H   0  0  0  0  0  0  0  0  0  0  0  0
  143.1233   79.2426  217.1814 H   0  0  0  0  0  0  0  0  0  0  0  0
  141.1502   81.0936  218.1901 H   0  0  0  0  0  0  0  0  0  0  0  0
  140.8871   80.0210  216.8251 H   0  0  0  0  0  0  0  0  0  0  0  0
  139.4608   79.7799  219.1713 H   0  0  0  0  0  0  0  0  0  0  0  0
  139.8187   78.3537  218.2220 H   0  0  0  0  0  0  0  0  0  0  0  0
  139.2203   73.5552  222.1589 H   0  0  0  0  0  0  0  0  0  0  0  0
  140.7721   71.7405  221.4619 H   0  0  0  0  0  0  0  0  0  0  0  0
  142.8743   71.1604  220.5219 H   0  0  0  0  0  0  0  0  0  0  0  0
  145.6587   74.1615  219.3038 H   0  0  0  0  0  0  0  0  0  0  0  0
  144.0986   75.9271  220.0030 H   0  0  0  0  0  0  0  0  0  0  0  0
  1  2  2  0
  2  3  1  0
  3  4  1  0
  4  5  1  0
  5  6  2  0
  5  7  1  0
  7  8  1  0
  8  9  1  0
  9 10  1  0
 10 11  1  0
 11 12  1  0
 12 13  1  0
 13 14  1  0
 14 15  1  0
 15 16  1  0
 16 17  1  0
 17 18  1  0
  2 19  1  0
 19 20  2  0
 20 21  1  0
 21 22  2  0
 22 23  1  0
 23 24  2  0
 24 25  1  0
 24 26  1  0
 26 27  2  0
 27 28  1  0
 28 29  2  0
 12  7  1  0
 18 14  1  0
 29 19  1  0
 28 22  1  0
  3 30  1  0
  4 31  1  0
  4 32  1  0
  8 33  1  0
  8 34  1  0
  9 35  1  0
  9 36  1  0
 10 37  1  0
 10 38  1  0
 11 39  1  0
 11 40  1  0
 12 41  1  6
 13 42  1  0
 13 43  1  0
 15 44  1  0
 15 45  1  0
 16 46  1  0
 16 47  1  0
 17 48  1  0
 17 49  1  0
 18 50  1  0
 18 51  1  0
 20 52  1  0
 21 53  1  0
 23 54  1  0
 26 55  1  0
 27 56  1  0
M  END
>  <smiles>  (22) 
O=C(NCC(=O)N1CCCC[C@H]1CN1CCCC1)c1ccc2cc(Cl)ccc2n1

>  <score_type>  (22) 
oracle

>  <origin>  (22) 
autodockgpu

>  <m_score__min__energy>  (22) 
-8.25

>  <m_primary>  (22) 
energy

>  <rmsd>  (22) 
6.107387167275995

>  <m_score__min__rmsd>  (22) 
6.107387167275995

>  <meeko>  (22) 
{"free_energy": -6.27, "intermolecular_energy": -8.06, "internal_energy": -3.08, "cluster_size": 15, "cluster_id": 6, "rank_in_cluster": 9}

>  <energy>  (22) 
-7.42

>  <cluster_rmsd>  (22) 
1.04

>  <cluster>  (22) 
1

$$$$

     RDKit          3D

 56 59  0  0  0  0  0  0  0  0999 V2000
  138.9120   75.8670  223.0790 O   0  0  0  0  0  0  0  0  0  0  0  0
  139.6210   76.0700  222.0500 C   0  0  0  0  0  0  0  0  0  0  0  0
  139.3900   77.3040  221.3710 N   0  0  0  0  0  0  0  0  0  0  0  0
  138.3650   78.1670  221.9500 C   0  0  0  0  0  0  0  0  0  0  0  0
  138.9470   79.2910  222.7110 C   0  0  0  0  0  0  0  0  0  0  0  0
  138.2520   80.0130  223.4620 O   0  0  0  0  0  0  0  0  0  0  0  0
  140.3290   79.5410  222.5760 N   0  0  0  0  0  0  0  0  0  0  0  0
  141.3530   78.8960  223.4040 C   0  0  0  0  0  0  0  0  0  0  0  0
  142.4380   79.8280  223.8410 C   0  0  0  0  0  0  0  0  0  0  0  0
  142.3010   81.2600  223.5120 C   0  0  0  0  0  0  0  0  0  0  0  0
  141.3760   81.6320  222.4030 C   0  0  0  0  0  0  0  0  0  0  0  0
  140.8780   80.4990  221.5990 C   0  0  1  0  0  0  0  0  0  0  0  0
  141.7770   79.8510  220.6350 C   0  0  0  0  0  0  0  0  0  0  0  0
  141.2800   78.7570  219.8580 N   0  0  0  0  0  0  0  0  0  0  0  0
  142.3270   78.2820  218.9200 C   0  0  0  0  0  0  0  0  0  0  0  0
  142.5710   79.5140  218.0930 C   0  0  0  0  0  0  0  0  0  0  0  0
  141.1630   80.0540  217.9080 C   0  0  0  0  0  0  0  0  0  0  0  0
  140.3200   79.1760  218.8130 C   0  0  0  0  0  0  0  0  0  0  0  0
  140.6050   75.0920  221.6040 C   0  0  0  0  0  0  0  0  0  0  0  0
  140.2910   73.7570  221.7420 C   0  0  0  0  0  0  0  0  0  0  0  0
  141.1390   72.7420  221.3520 C   0  0  0  0  0  0  0  0  0  0  0  0
  142.3550   73.1430  220.7970 C   0  0  0  0  0  0  0  0  0  0  0  0
  143.2420   72.1670  220.3860 C   0  0  0  0  0  0  0  0  0  0  0  0
  144.4800   72.4820  219.8210 C   0  0  0  0  0  0  0  0  0  0  0  0
  145.5950   71.2290  219.3040 Cl  0  0  0  0  0  0  0  0  0  0  0  0
  144.7600   73.8270  219.6980 C   0  0  0  0  0  0  0  0  0  0  0  0
  143.8920   74.8220  220.0980 C   0  0  0  0  0  0  0  0  0  0  0  0
  142.6780   74.4780  220.6540 C   0  0  0  0  0  0  0  0  0  0  0  0
  141.7930   75.4370  221.0620 N   0  0  0  0  0  0  0  0  0  0  0  0
  139.9320   77.5440  220.5220 H   0  0  0  0  0  0  0  0  0  0  0  0
  137.7436   78.5729  221.1381 H   0  0  0  0  0  0  0  0  0  0  0  0
  137.7673   77.5609  222.6467 H   0  0  0  0  0  0  0  0  0  0  0  0
  140.8671   78.4822  224.2999 H   0  0  0  0  0  0  0  0  0  0  0  0
  141.8240   78.1156  222.7882 H   0  0  0  0  0  0  0  0  0  0  0  0
  142.5134   79.7505  224.9357 H   0  0  0  0  0  0  0  0  0  0  0  0
  143.3226   79.5014  223.2747 H   0  0  0  0  0  0  0  0  0  0  0  0
  141.9491   81.7731  224.4191 H   0  0  0  0  0  0  0  0  0  0  0  0
  143.2973   81.5592  223.1546 H   0  0  0  0  0  0  0  0  0  0  0  0
  140.5083   82.1471  222.8408 H   0  0  0  0  0  0  0  0  0  0  0  0
  141.9583   82.2637  221.7161 H   0  0  0  0  0  0  0  0  0  0  0  0
  140.1407   80.9120  220.8949 H   0  0  0  0  0  0  0  0  0  0  0  0
  142.1064   80.6266  219.9280 H   0  0  0  0  0  0  0  0  0  0  0  0
  142.5590   79.3986  221.2625 H   0  0  0  0  0  0  0  0  0  0  0  0
  143.2359   77.9716  219.4563 H   0  0  0  0  0  0  0  0  0  0  0  0
  142.0355   77.3986  218.3329 H   0  0  0  0  0  0  0  0  0  0  0  0
  143.2083   80.2341  218.6271 H   0  0  0  0  0  0  0  0  0  0  0  0
  143.0981   79.3166  217.1479 H   0  0  0  0  0  0  0  0  0  0  0  0
  141.1032   81.1079  218.2172 H   0  0  0  0  0  0  0  0  0  0  0  0
  140.8309   80.0290  216.8596 H   0  0  0  0  0  0  0  0  0  0  0  0
  139.4845   79.7438  219.2484 H   0  0  0  0  0  0  0  0  0  0  0  0
  139.8559   78.3293  218.2860 H   0  0  0  0  0  0  0  0  0  0  0  0
  139.3197   73.4891  222.1834 H   0  0  0  0  0  0  0  0  0  0  0  0
  140.8733   71.6812  221.4711 H   0  0  0  0  0  0  0  0  0  0  0  0
  142.9649   71.1094  220.5074 H   0  0  0  0  0  0  0  0  0  0  0  0
  145.7245   74.1213  219.2586 H   0  0  0  0  0  0  0  0  0  0  0  0
  144.1659   75.8802  219.9745 H   0  0  0  0  0  0  0  0  0  0  0  0
  1  2  2  0
  2  3  1  0
  3  4  1  0
  4  5  1  0
  5  6  2  0
  5  7  1  0
  7  8  1  0
  8  9  1  0
  9 10  1  0
 10 11  1  0
 11 12  1  0
 12 13  1  0
 13 14  1  0
 14 15  1  0
 15 16  1  0
 16 17  1  0
 17 18  1  0
  2 19  1  0
 19 20  2  0
 20 21  1  0
 21 22  2  0
 22 23  1  0
 23 24  2  0
 24 25  1  0
 24 26  1  0
 26 27  2  0
 27 28  1  0
 28 29  2  0
 12  7  1  0
 18 14  1  0
 29 19  1  0
 28 22  1  0
  3 30  1  0
  4 31  1  0
  4 32  1  0
  8 33  1  0
  8 34  1  0
  9 35  1  0
  9 36  1  0
 10 37  1  0
 10 38  1  0
 11 39  1  0
 11 40  1  0
 12 41  1  6
 13 42  1  0
 13 43  1  0
 15 44  1  0
 15 45  1  0
 16 46  1  0
 16 47  1  0
 17 48  1  0
 17 49  1  0
 18 50  1  0
 18 51  1  0
 20 52  1  0
 21 53  1  0
 23 54  1  0
 26 55  1  0
 27 56  1  0
M  END
>  <smiles>  (23) 
O=C(NCC(=O)N1CCCC[C@H]1CN1CCCC1)c1ccc2cc(Cl)ccc2n1

>  <score_type>  (23) 
oracle

>  <origin>  (23) 
autodockgpu

>  <m_score__min__energy>  (23) 
-8.25

>  <m_primary>  (23) 
energy

>  <rmsd>  (23) 
6.118058280425808

>  <m_score__min__rmsd>  (23) 
6.118058280425808

>  <meeko>  (23) 
{"free_energy": -6.3, "intermolecular_energy": -8.09, "internal_energy": -3.05, "cluster_size": 15, "cluster_id": 6, "rank_in_cluster": 6}

>  <energy>  (23) 
-7.35

>  <cluster_rmsd>  (23) 
1.18

>  <cluster>  (23) 
1

$$$$

     RDKit          3D

 56 59  0  0  0  0  0  0  0  0999 V2000
  140.5260   72.4370  220.8220 O   0  0  0  0  0  0  0  0  0  0  0  0
  139.9930   72.7380  221.9300 C   0  0  0  0  0  0  0  0  0  0  0  0
  139.3450   74.0090  221.9820 N   0  0  0  0  0  0  0  0  0  0  0  0
  139.3850   74.7940  220.7520 C   0  0  0  0  0  0  0  0  0  0  0  0
  140.4570   75.8100  220.7720 C   0  0  0  0  0  0  0  0  0  0  0  0
  141.5390   75.6430  220.1640 O   0  0  0  0  0  0  0  0  0  0  0  0
  140.2350   76.9960  221.5030 N   0  0  0  0  0  0  0  0  0  0  0  0
  139.3540   77.0740  222.6720 C   0  0  0  0  0  0  0  0  0  0  0  0
  138.5110   78.3090  222.7010 C   0  0  0  0  0  0  0  0  0  0  0  0
  138.5630   79.2160  221.5370 C   0  0  0  0  0  0  0  0  0  0  0  0
  139.7470   79.1190  220.6340 C   0  0  0  0  0  0  0  0  0  0  0  0
  140.8540   78.2860  221.1430 C   0  0  1  0  0  0  0  0  0  0  0  0
  141.7110   78.8060  222.2170 C   0  0  0  0  0  0  0  0  0  0  0  0
  142.5400   79.9400  221.9460 N   0  0  0  0  0  0  0  0  0  0  0  0
  143.4800   80.1640  223.0720 C   0  0  0  0  0  0  0  0  0  0  0  0
  142.5300   80.4020  224.2140 C   0  0  0  0  0  0  0  0  0  0  0  0
  141.4560   81.2530  223.5580 C   0  0  0  0  0  0  0  0  0  0  0  0
  141.8260   81.2290  222.0870 C   0  0  0  0  0  0  0  0  0  0  0  0
  140.0500   71.8310  223.0690 C   0  0  0  0  0  0  0  0  0  0  0  0
  139.5700   70.5510  222.8940 C   0  0  0  0  0  0  0  0  0  0  0  0
  139.5750   69.6030  223.8950 C   0  0  0  0  0  0  0  0  0  0  0  0
  140.1030   70.0130  225.1200 C   0  0  0  0  0  0  0  0  0  0  0  0
  140.1360   69.1040  226.1590 C   0  0  0  0  0  0  0  0  0  0  0  0
  140.6480   69.4330  227.4150 C   0  0  0  0  0  0  0  0  0  0  0  0
  140.6810   68.2640  228.7250 Cl  0  0  0  0  0  0  0  0  0  0  0  0
  141.1190   70.7210  227.5550 C   0  0  0  0  0  0  0  0  0  0  0  0
  141.0990   71.6500  226.5340 C   0  0  0  0  0  0  0  0  0  0  0  0
  140.5870   71.2940  225.3050 C   0  0  0  0  0  0  0  0  0  0  0  0
  140.5520   72.1870  224.2710 N   0  0  0  0  0  0  0  0  0  0  0  0
  138.8840   74.3260  222.8530 H   0  0  0  0  0  0  0  0  0  0  0  0
  139.5567   74.1148  219.9039 H   0  0  0  0  0  0  0  0  0  0  0  0
  138.4236   75.3199  220.6561 H   0  0  0  0  0  0  0  0  0  0  0  0
  138.6886   76.1981  222.6658 H   0  0  0  0  0  0  0  0  0  0  0  0
  139.9990   77.1010  223.5626 H   0  0  0  0  0  0  0  0  0  0  0  0
  137.4655   77.9877  222.8178 H   0  0  0  0  0  0  0  0  0  0  0  0
  138.9258   78.9031  223.5286 H   0  0  0  0  0  0  0  0  0  0  0  0
  137.6683   79.0201  220.9277 H   0  0  0  0  0  0  0  0  0  0  0  0
  138.6278   80.2239  221.9728 H   0  0  0  0  0  0  0  0  0  0  0  0
  139.4119   78.6931  219.6767 H   0  0  0  0  0  0  0  0  0  0  0  0
  140.1476   80.1393  220.5422 H   0  0  0  0  0  0  0  0  0  0  0  0
  141.6023   78.2298  220.3387 H   0  0  0  0  0  0  0  0  0  0  0  0
  141.0514   79.0796  223.0537 H   0  0  0  0  0  0  0  0  0  0  0  0
  142.4258   77.9916  222.4063 H   0  0  0  0  0  0  0  0  0  0  0  0
  144.1101   79.2803  223.2511 H   0  0  0  0  0  0  0  0  0  0  0  0
  144.1933   80.9844  222.9040 H   0  0  0  0  0  0  0  0  0  0  0  0
  142.1150   79.4563  224.5926 H   0  0  0  0  0  0  0  0  0  0  0  0
  142.9982   80.8754  225.0896 H   0  0  0  0  0  0  0  0  0  0  0  0
  140.4585   80.8180  223.7186 H   0  0  0  0  0  0  0  0  0  0  0  0
  141.4098   82.2722  223.9691 H   0  0  0  0  0  0  0  0  0  0  0  0
  140.9278   81.2552  221.4526 H   0  0  0  0  0  0  0  0  0  0  0  0
  142.4286   82.0953  221.7767 H   0  0  0  0  0  0  0  0  0  0  0  0
  139.1642   70.2729  221.9102 H   0  0  0  0  0  0  0  0  0  0  0  0
  139.1866   68.5859  223.7378 H   0  0  0  0  0  0  0  0  0  0  0  0
  139.7466   68.0889  225.9915 H   0  0  0  0  0  0  0  0  0  0  0  0
  141.5314   71.0236  228.5288 H   0  0  0  0  0  0  0  0  0  0  0  0
  141.4883   72.6654  226.6999 H   0  0  0  0  0  0  0  0  0  0  0  0
  1  2  2  0
  2  3  1  0
  3  4  1  0
  4  5  1  0
  5  6  2  0
  5  7  1  0
  7  8  1  0
  8  9  1  0
  9 10  1  0
 10 11  1  0
 11 12  1  0
 12 13  1  0
 13 14  1  0
 14 15  1  0
 15 16  1  0
 16 17  1  0
 17 18  1  0
  2 19  1  0
 19 20  2  0
 20 21  1  0
 21 22  2  0
 22 23  1  0
 23 24  2  0
 24 25  1  0
 24 26  1  0
 26 27  2  0
 27 28  1  0
 28 29  2  0
 12  7  1  0
 18 14  1  0
 29 19  1  0
 28 22  1  0
  3 30  1  0
  4 31  1  0
  4 32  1  0
  8 33  1  0
  8 34  1  0
  9 35  1  0
  9 36  1  0
 10 37  1  0
 10 38  1  0
 11 39  1  0
 11 40  1  0
 12 41  1  6
 13 42  1  0
 13 43  1  0
 15 44  1  0
 15 45  1  0
 16 46  1  0
 16 47  1  0
 17 48  1  0
 17 49  1  0
 18 50  1  0
 18 51  1  0
 20 52  1  0
 21 53  1  0
 23 54  1  0
 26 55  1  0
 27 56  1  0
M  END
>  <smiles>  (24) 
O=C(NCC(=O)N1CCCC[C@H]1CN1CCCC1)c1ccc2cc(Cl)ccc2n1

>  <score_type>  (24) 
oracle

>  <origin>  (24) 
autodockgpu

>  <m_score__min__energy>  (24) 
-8.25

>  <m_primary>  (24) 
energy

>  <rmsd>  (24) 
2.872311934148352

>  <m_score__min__rmsd>  (24) 
2.872311934148352

>  <meeko>  (24) 
{"free_energy": -8.12, "intermolecular_energy": -9.91, "internal_energy": -1.49, "cluster_size": 25, "cluster_id": 1, "rank_in_cluster": 4}

>  <energy>  (24) 
-7.33

>  <cluster_rmsd>  (24) 
1.46

>  <cluster>  (24) 
1

$$$$

     RDKit          3D

 56 59  0  0  0  0  0  0  0  0999 V2000
  139.9190   72.4740  220.9180 O   0  0  0  0  0  0  0  0  0  0  0  0
  139.7750   72.8410  222.1210 C   0  0  0  0  0  0  0  0  0  0  0  0
  139.4830   74.2240  222.3180 N   0  0  0  0  0  0  0  0  0  0  0  0
  139.3920   75.0340  221.1070 C   0  0  0  0  0  0  0  0  0  0  0  0
  139.3290   76.4790  221.4060 C   0  0  0  0  0  0  0  0  0  0  0  0
  138.5420   76.9450  222.2620 O   0  0  0  0  0  0  0  0  0  0  0  0
  140.1900   77.3430  220.6960 N   0  0  0  0  0  0  0  0  0  0  0  0
  139.7960   78.0550  219.4770 C   0  0  0  0  0  0  0  0  0  0  0  0
  140.8610   78.0680  218.4260 C   0  0  0  0  0  0  0  0  0  0  0  0
  142.0910   77.2900  218.6700 C   0  0  0  0  0  0  0  0  0  0  0  0
  142.4140   76.9270  220.0800 C   0  0  0  0  0  0  0  0  0  0  0  0
  141.5850   77.5950  221.1030 C   0  0  1  0  0  0  0  0  0  0  0  0
  141.8240   79.0110  221.4090 C   0  0  0  0  0  0  0  0  0  0  0  0
  142.4920   79.3480  222.6290 N   0  0  0  0  0  0  0  0  0  0  0  0
  141.7780   78.7470  223.7830 C   0  0  0  0  0  0  0  0  0  0  0  0
  140.4240   79.3940  223.6680 C   0  0  0  0  0  0  0  0  0  0  0  0
  140.7870   80.8180  223.2830 C   0  0  0  0  0  0  0  0  0  0  0  0
  142.2830   80.7540  223.0370 C   0  0  0  0  0  0  0  0  0  0  0  0
  139.9040   71.8940  223.2210 C   0  0  0  0  0  0  0  0  0  0  0  0
  139.5150   70.5910  222.9950 C   0  0  0  0  0  0  0  0  0  0  0  0
  139.5950   69.6050  223.9560 C   0  0  0  0  0  0  0  0  0  0  0  0
  140.1020   70.0010  225.1950 C   0  0  0  0  0  0  0  0  0  0  0  0
  140.2060   69.0550  226.1950 C   0  0  0  0  0  0  0  0  0  0  0  0
  140.7030   69.3680  227.4620 C   0  0  0  0  0  0  0  0  0  0  0  0
  140.8290   68.1510  228.7210 Cl  0  0  0  0  0  0  0  0  0  0  0  0
  141.0830   70.6800  227.6520 C   0  0  0  0  0  0  0  0  0  0  0  0
  140.9900   71.6450  226.6710 C   0  0  0  0  0  0  0  0  0  0  0  0
  140.4950   71.3050  225.4300 C   0  0  0  0  0  0  0  0  0  0  0  0
  140.3900   72.2350  224.4350 N   0  0  0  0  0  0  0  0  0  0  0  0
  139.3490   74.6000  223.2740 H   0  0  0  0  0  0  0  0  0  0  0  0
  140.2770   74.8395  220.4833 H   0  0  0  0  0  0  0  0  0  0  0  0
  138.4650   74.7566  220.5839 H   0  0  0  0  0  0  0  0  0  0  0  0
  138.9021   77.5669  219.0616 H   0  0  0  0  0  0  0  0  0  0  0  0
  139.6053   79.1010  219.7591 H   0  0  0  0  0  0  0  0  0  0  0  0
  140.4098   77.6828  217.4997 H   0  0  0  0  0  0  0  0  0  0  0  0
  141.2013   79.1136  218.3957 H   0  0  0  0  0  0  0  0  0  0  0  0
  142.0050   76.3525  218.1010 H   0  0  0  0  0  0  0  0  0  0  0  0
  142.9083   77.9583  218.3610 H   0  0  0  0  0  0  0  0  0  0  0  0
  142.2829   75.8405  220.1910 H   0  0  0  0  0  0  0  0  0  0  0  0
  143.4468   77.2630  220.2546 H   0  0  0  0  0  0  0  0  0  0  0  0
  141.8677   77.1599  222.0729 H   0  0  0  0  0  0  0  0  0  0  0  0
  142.4264   79.4228  220.5858 H   0  0  0  0  0  0  0  0  0  0  0  0
  140.8149   79.4312  221.5326 H   0  0  0  0  0  0  0  0  0  0  0  0
  141.7101   77.6532  223.6881 H   0  0  0  0  0  0  0  0  0  0  0  0
  142.2728   78.9113  224.7516 H   0  0  0  0  0  0  0  0  0  0  0  0
  139.8154   78.9119  222.8887 H   0  0  0  0  0  0  0  0  0  0  0  0
  139.8187   79.3224  224.5837 H   0  0  0  0  0  0  0  0  0  0  0  0
  140.2526   81.1265  222.3724 H   0  0  0  0  0  0  0  0  0  0  0  0
  140.5131   81.5514  224.0557 H   0  0  0  0  0  0  0  0  0  0  0  0
  142.5823   81.4468  222.2367 H   0  0  0  0  0  0  0  0  0  0  0  0
  142.8798   81.0446  223.9141 H   0  0  0  0  0  0  0  0  0  0  0  0
  139.1226   70.3254  222.0023 H   0  0  0  0  0  0  0  0  0  0  0  0
  139.2788   68.5701  223.7584 H   0  0  0  0  0  0  0  0  0  0  0  0
  139.8875   68.0228  225.9874 H   0  0  0  0  0  0  0  0  0  0  0  0
  141.4803   70.9715  228.6355 H   0  0  0  0  0  0  0  0  0  0  0  0
  141.3082   72.6776  226.8771 H   0  0  0  0  0  0  0  0  0  0  0  0
  1  2  2  0
  2  3  1  0
  3  4  1  0
  4  5  1  0
  5  6  2  0
  5  7  1  0
  7  8  1  0
  8  9  1  0
  9 10  1  0
 10 11  1  0
 11 12  1  0
 12 13  1  0
 13 14  1  0
 14 15  1  0
 15 16  1  0
 16 17  1  0
 17 18  1  0
  2 19  1  0
 19 20  2  0
 20 21  1  0
 21 22  2  0
 22 23  1  0
 23 24  2  0
 24 25  1  0
 24 26  1  0
 26 27  2  0
 27 28  1  0
 28 29  2  0
 12  7  1  0
 18 14  1  0
 29 19  1  0
 28 22  1  0
  3 30  1  0
  4 31  1  0
  4 32  1  0
  8 33  1  0
  8 34  1  0
  9 35  1  0
  9 36  1  0
 10 37  1  0
 10 38  1  0
 11 39  1  0
 11 40  1  0
 12 41  1  1
 13 42  1  0
 13 43  1  0
 15 44  1  0
 15 45  1  0
 16 46  1  0
 16 47  1  0
 17 48  1  0
 17 49  1  0
 18 50  1  0
 18 51  1  0
 20 52  1  0
 21 53  1  0
 23 54  1  0
 26 55  1  0
 27 56  1  0
M  END
>  <smiles>  (25) 
O=C(NCC(=O)N1CCCC[C@H]1CN1CCCC1)c1ccc2cc(Cl)ccc2n1

>  <score_type>  (25) 
oracle

>  <origin>  (25) 
autodockgpu

>  <m_score__min__energy>  (25) 
-8.25

>  <m_primary>  (25) 
energy

>  <rmsd>  (25) 
2.1918147042257794

>  <m_score__min__rmsd>  (25) 
2.1918147042257794

>  <meeko>  (25) 
{"free_energy": -8.18, "intermolecular_energy": -9.97, "internal_energy": -1.73, "cluster_size": 25, "cluster_id": 1, "rank_in_cluster": 2}

>  <energy>  (25) 
-7.32

>  <cluster_rmsd>  (25) 
1.12

>  <cluster>  (25) 
1

$$$$

     RDKit          3D

 56 59  0  0  0  0  0  0  0  0999 V2000
  141.0630   72.8910  221.4830 O   0  0  0  0  0  0  0  0  0  0  0  0
  140.1180   72.8180  222.3220 C   0  0  0  0  0  0  0  0  0  0  0  0
  139.0230   73.7080  222.1020 N   0  0  0  0  0  0  0  0  0  0  0  0
  139.1390   74.5850  220.9410 C   0  0  0  0  0  0  0  0  0  0  0  0
  139.9850   75.7640  221.2150 C   0  0  0  0  0  0  0  0  0  0  0  0
  141.2050   75.7840  220.9300 O   0  0  0  0  0  0  0  0  0  0  0  0
  139.3830   76.8900  221.8140 N   0  0  0  0  0  0  0  0  0  0  0  0
  138.2590   76.8050  222.7520 C   0  0  0  0  0  0  0  0  0  0  0  0
  137.2150   77.8510  222.5250 C   0  0  0  0  0  0  0  0  0  0  0  0
  137.3610   78.7400  221.3560 C   0  0  0  0  0  0  0  0  0  0  0  0
  138.7160   78.8690  220.7470 C   0  0  0  0  0  0  0  0  0  0  0  0
  139.8130   78.2730  221.5330 C   0  0  1  0  0  0  0  0  0  0  0  0
  140.2880   78.9600  222.7410 C   0  0  0  0  0  0  0  0  0  0  0  0
  140.3770   80.3880  222.7310 N   0  0  0  0  0  0  0  0  0  0  0  0
  141.2840   80.8340  221.6450 C   0  0  0  0  0  0  0  0  0  0  0  0
  142.5770   80.1770  222.0460 C   0  0  0  0  0  0  0  0  0  0  0  0
  142.5720   80.3660  223.5530 C   0  0  0  0  0  0  0  0  0  0  0  0
  141.1920   80.9270  223.8410 C   0  0  0  0  0  0  0  0  0  0  0  0
  140.1650   71.8790  223.4350 C   0  0  0  0  0  0  0  0  0  0  0  0
  139.7130   70.5970  223.2120 C   0  0  0  0  0  0  0  0  0  0  0  0
  139.7120   69.6200  224.1860 C   0  0  0  0  0  0  0  0  0  0  0  0
  140.2040   70.0040  225.4340 C   0  0  0  0  0  0  0  0  0  0  0  0
  140.2280   69.0650  226.4470 C   0  0  0  0  0  0  0  0  0  0  0  0
  140.7040   69.3670  227.7250 C   0  0  0  0  0  0  0  0  0  0  0  0
  140.7280   68.1610  229.0000 Cl  0  0  0  0  0  0  0  0  0  0  0  0
  141.1480   70.6590  227.9120 C   0  0  0  0  0  0  0  0  0  0  0  0
  141.1360   71.6160  226.9180 C   0  0  0  0  0  0  0  0  0  0  0  0
  140.6590   71.2870  225.6670 C   0  0  0  0  0  0  0  0  0  0  0  0
  140.6320   72.2090  224.6590 N   0  0  0  0  0  0  0  0  0  0  0  0
  138.2110   73.7060  222.7440 H   0  0  0  0  0  0  0  0  0  0  0  0
  139.5822   74.0163  220.1103 H   0  0  0  0  0  0  0  0  0  0  0  0
  138.1308   74.9444  220.6871 H   0  0  0  0  0  0  0  0  0  0  0  0
  137.7901   75.8156  222.6455 H   0  0  0  0  0  0  0  0  0  0  0  0
  138.6657   76.9662  223.7612 H   0  0  0  0  0  0  0  0  0  0  0  0
  136.2506   77.3322  222.4217 H   0  0  0  0  0  0  0  0  0  0  0  0
  137.3089   78.5223  223.3913 H   0  0  0  0  0  0  0  0  0  0  0  0
  136.6835   78.3675  220.5736 H   0  0  0  0  0  0  0  0  0  0  0  0
  137.1330   79.7448  221.7413 H   0  0  0  0  0  0  0  0  0  0  0  0
  138.6958   78.3781  219.7628 H   0  0  0  0  0  0  0  0  0  0  0  0
  138.9272   79.9472  220.6935 H   0  0  0  0  0  0  0  0  0  0  0  0
  140.7222   78.3569  220.9195 H   0  0  0  0  0  0  0  0  0  0  0  0
  139.6064   78.6841  223.5591 H   0  0  0  0  0  0  0  0  0  0  0  0
  141.3320   78.6288  222.8427 H   0  0  0  0  0  0  0  0  0  0  0  0
  140.9401   80.4781  220.6626 H   0  0  0  0  0  0  0  0  0  0  0  0
  141.3507   81.9266  221.5364 H   0  0  0  0  0  0  0  0  0  0  0  0
  142.5839   79.1105  221.7768 H   0  0  0  0  0  0  0  0  0  0  0  0
  143.4625   80.5995  221.5486 H   0  0  0  0  0  0  0  0  0  0  0  0
  142.7207   79.4060  224.0691 H   0  0  0  0  0  0  0  0  0  0  0  0
  143.3810   81.0242  223.9026 H   0  0  0  0  0  0  0  0  0  0  0  0
  140.8173   80.5757  224.8137 H   0  0  0  0  0  0  0  0  0  0  0  0
  141.1735   82.0253  223.8995 H   0  0  0  0  0  0  0  0  0  0  0  0
  139.3354   70.3405  222.2112 H   0  0  0  0  0  0  0  0  0  0  0  0
  139.3460   68.6012  223.9908 H   0  0  0  0  0  0  0  0  0  0  0  0
  139.8611   68.0487  226.2409 H   0  0  0  0  0  0  0  0  0  0  0  0
  141.5312   70.9411  228.9038 H   0  0  0  0  0  0  0  0  0  0  0  0
  141.5038   72.6324  227.1219 H   0  0  0  0  0  0  0  0  0  0  0  0
  1  2  2  0
  2  3  1  0
  3  4  1  0
  4  5  1  0
  5  6  2  0
  5  7  1  0
  7  8  1  0
  8  9  1  0
  9 10  1  0
 10 11  1  0
 11 12  1  0
 12 13  1  0
 13 14  1  0
 14 15  1  0
 15 16  1  0
 16 17  1  0
 17 18  1  0
  2 19  1  0
 19 20  2  0
 20 21  1  0
 21 22  2  0
 22 23  1  0
 23 24  2  0
 24 25  1  0
 24 26  1  0
 26 27  2  0
 27 28  1  0
 28 29  2  0
 12  7  1  0
 18 14  1  0
 29 19  1  0
 28 22  1  0
  3 30  1  0
  4 31  1  0
  4 32  1  0
  8 33  1  0
  8 34  1  0
  9 35  1  0
  9 36  1  0
 10 37  1  0
 10 38  1  0
 11 39  1  0
 11 40  1  0
 12 41  1  6
 13 42  1  0
 13 43  1  0
 15 44  1  0
 15 45  1  0
 16 46  1  0
 16 47  1  0
 17 48  1  0
 17 49  1  0
 18 50  1  0
 18 51  1  0
 20 52  1  0
 21 53  1  0
 23 54  1  0
 26 55  1  0
 27 56  1  0
M  END
>  <smiles>  (26) 
O=C(NCC(=O)N1CCCC[C@H]1CN1CCCC1)c1ccc2cc(Cl)ccc2n1

>  <score_type>  (26) 
oracle

>  <origin>  (26) 
autodockgpu

>  <m_score__min__energy>  (26) 
-8.25

>  <m_primary>  (26) 
energy

>  <rmsd>  (26) 
3.074263271071243

>  <m_score__min__rmsd>  (26) 
3.074263271071243

>  <meeko>  (26) 
{"free_energy": -7.89, "intermolecular_energy": -9.68, "internal_energy": -1.41, "cluster_size": 25, "cluster_id": 1, "rank_in_cluster": 8}

>  <energy>  (26) 
-7.84

>  <cluster_rmsd>  (26) 
0.0

>  <cluster>  (26) 
2

$$$$

     RDKit          3D

 56 59  0  0  0  0  0  0  0  0999 V2000
  138.8890   75.9390  223.0760 O   0  0  0  0  0  0  0  0  0  0  0  0
  139.5760   76.1190  222.0280 C   0  0  0  0  0  0  0  0  0  0  0  0
  139.3190   77.3290  221.3170 N   0  0  0  0  0  0  0  0  0  0  0  0
  138.2970   78.1990  221.8910 C   0  0  0  0  0  0  0  0  0  0  0  0
  138.8810   79.2950  222.6900 C   0  0  0  0  0  0  0  0  0  0  0  0
  138.1850   80.0010  223.4560 O   0  0  0  0  0  0  0  0  0  0  0  0
  140.2660   79.5380  222.5750 N   0  0  0  0  0  0  0  0  0  0  0  0
  141.2740   78.9010  223.4290 C   0  0  0  0  0  0  0  0  0  0  0  0
  142.3550   79.8350  223.8710 C   0  0  0  0  0  0  0  0  0  0  0  0
  142.2300   81.2630  223.5180 C   0  0  0  0  0  0  0  0  0  0  0  0
  141.3240   81.6220  222.3880 C   0  0  0  0  0  0  0  0  0  0  0  0
  140.8350   80.4790  221.5930 C   0  0  1  0  0  0  0  0  0  0  0  0
  141.7480   79.8140  220.6540 C   0  0  0  0  0  0  0  0  0  0  0  0
  141.2460   78.7430  219.8490 N   0  0  0  0  0  0  0  0  0  0  0  0
  142.3030   78.2590  218.9270 C   0  0  0  0  0  0  0  0  0  0  0  0
  142.5920   79.4990  218.1250 C   0  0  0  0  0  0  0  0  0  0  0  0
  141.2000   80.0710  217.9180 C   0  0  0  0  0  0  0  0  0  0  0  0
  140.3180   79.1970  218.7890 C   0  0  0  0  0  0  0  0  0  0  0  0
  140.5620   75.1380  221.5920 C   0  0  0  0  0  0  0  0  0  0  0  0
  140.2420   73.8040  221.7250 C   0  0  0  0  0  0  0  0  0  0  0  0
  141.0890   72.7850  221.3420 C   0  0  0  0  0  0  0  0  0  0  0  0
  142.3130   73.1820  220.8020 C   0  0  0  0  0  0  0  0  0  0  0  0
  143.2020   72.2040  220.4000 C   0  0  0  0  0  0  0  0  0  0  0  0
  144.4470   72.5160  219.8490 C   0  0  0  0  0  0  0  0  0  0  0  0
  145.5630   71.2590  219.3430 Cl  0  0  0  0  0  0  0  0  0  0  0  0
  144.7340   73.8590  219.7310 C   0  0  0  0  0  0  0  0  0  0  0  0
  143.8640   74.8570  220.1230 C   0  0  0  0  0  0  0  0  0  0  0  0
  142.6430   74.5170  220.6640 C   0  0  0  0  0  0  0  0  0  0  0  0
  141.7570   75.4780  221.0630 N   0  0  0  0  0  0  0  0  0  0  0  0
  139.8430   77.5490  220.4520 H   0  0  0  0  0  0  0  0  0  0  0  0
  137.7028   78.6341  221.0740 H   0  0  0  0  0  0  0  0  0  0  0  0
  137.6721   77.5894  222.5603 H   0  0  0  0  0  0  0  0  0  0  0  0
  140.7718   78.5015  224.3224 H   0  0  0  0  0  0  0  0  0  0  0  0
  141.7523   78.1106  222.8320 H   0  0  0  0  0  0  0  0  0  0  0  0
  142.4107   79.7738  224.9679 H   0  0  0  0  0  0  0  0  0  0  0  0
  143.2480   79.4963  223.3253 H   0  0  0  0  0  0  0  0  0  0  0  0
  141.8660   81.7915  224.4114 H   0  0  0  0  0  0  0  0  0  0  0  0
  143.2333   81.5525  223.1723 H   0  0  0  0  0  0  0  0  0  0  0  0
  140.4512   82.1466  222.8039 H   0  0  0  0  0  0  0  0  0  0  0  0
  141.9197   82.2414  221.7014 H   0  0  0  0  0  0  0  0  0  0  0  0
  140.1107   80.8832  220.8705 H   0  0  0  0  0  0  0  0  0  0  0  0
  142.1247   80.5862  219.9671 H   0  0  0  0  0  0  0  0  0  0  0  0
  142.4944   79.3328  221.3031 H   0  0  0  0  0  0  0  0  0  0  0  0
  143.1927   77.9204  219.4781 H   0  0  0  0  0  0  0  0  0  0  0  0
  142.0058   77.3912  218.3199 H   0  0  0  0  0  0  0  0  0  0  0  0
  143.2321   80.1970  218.6845 H   0  0  0  0  0  0  0  0  0  0  0  0
  143.1364   79.3056  217.1889 H   0  0  0  0  0  0  0  0  0  0  0  0
  141.1551   81.1209  218.2432 H   0  0  0  0  0  0  0  0  0  0  0  0
  140.8915   80.0693  216.8622 H   0  0  0  0  0  0  0  0  0  0  0  0
  139.4842   79.7751  219.2140 H   0  0  0  0  0  0  0  0  0  0  0  0
  139.8485   78.3684  218.2386 H   0  0  0  0  0  0  0  0  0  0  0  0
  139.2655   73.5396  222.1568 H   0  0  0  0  0  0  0  0  0  0  0  0
  140.8166   71.7253  221.4552 H   0  0  0  0  0  0  0  0  0  0  0  0
  142.9207   71.1471  220.5174 H   0  0  0  0  0  0  0  0  0  0  0  0
  145.7046   74.1503  219.3032 H   0  0  0  0  0  0  0  0  0  0  0  0
  144.1431   75.9144  220.0045 H   0  0  0  0  0  0  0  0  0  0  0  0
  1  2  2  0
  2  3  1  0
  3  4  1  0
  4  5  1  0
  5  6  2  0
  5  7  1  0
  7  8  1  0
  8  9  1  0
  9 10  1  0
 10 11  1  0
 11 12  1  0
 12 13  1  0
 13 14  1  0
 14 15  1  0
 15 16  1  0
 16 17  1  0
 17 18  1  0
  2 19  1  0
 19 20  2  0
 20 21  1  0
 21 22  2  0
 22 23  1  0
 23 24  2  0
 24 25  1  0
 24 26  1  0
 26 27  2  0
 27 28  1  0
 28 29  2  0
 12  7  1  0
 18 14  1  0
 29 19  1  0
 28 22  1  0
  3 30  1  0
  4 31  1  0
  4 32  1  0
  8 33  1  0
  8 34  1  0
  9 35  1  0
  9 36  1  0
 10 37  1  0
 10 38  1  0
 11 39  1  0
 11 40  1  0
 12 41  1  6
 13 42  1  0
 13 43  1  0
 15 44  1  0
 15 45  1  0
 16 46  1  0
 16 47  1  0
 17 48  1  0
 17 49  1  0
 18 50  1  0
 18 51  1  0
 20 52  1  0
 21 53  1  0
 23 54  1  0
 26 55  1  0
 27 56  1  0
M  END
>  <smiles>  (27) 
O=C(NCC(=O)N1CCCC[C@H]1CN1CCCC1)c1ccc2cc(Cl)ccc2n1

>  <score_type>  (27) 
oracle

>  <origin>  (27) 
autodockgpu

>  <m_score__min__energy>  (27) 
-8.25

>  <m_primary>  (27) 
energy

>  <rmsd>  (27) 
6.116633491992243

>  <m_score__min__rmsd>  (27) 
6.116633491992243

>  <meeko>  (27) 
{"free_energy": -6.3, "intermolecular_energy": -8.09, "internal_energy": -3.07, "cluster_size": 15, "cluster_id": 6, "rank_in_cluster": 7}

>  <energy>  (27) 
-7.83

>  <cluster_rmsd>  (27) 
0.06

>  <cluster>  (27) 
2

$$$$

     RDKit          3D

 56 59  0  0  0  0  0  0  0  0999 V2000
  140.7770   73.1500  221.6950 O   0  0  0  0  0  0  0  0  0  0  0  0
  139.8150   72.8520  222.4620 C   0  0  0  0  0  0  0  0  0  0  0  0
  138.5770   73.5060  222.1880 N   0  0  0  0  0  0  0  0  0  0  0  0
  138.5830   74.4330  221.0610 C   0  0  0  0  0  0  0  0  0  0  0  0
  139.1280   75.7560  221.4290 C   0  0  0  0  0  0  0  0  0  0  0  0
  138.7740   76.3510  222.4730 O   0  0  0  0  0  0  0  0  0  0  0  0
  140.0730   76.3490  220.5660 N   0  0  0  0  0  0  0  0  0  0  0  0
  139.8010   76.6660  219.1610 C   0  0  0  0  0  0  0  0  0  0  0  0
  140.9390   76.3410  218.2460 C   0  0  0  0  0  0  0  0  0  0  0  0
  142.1140   75.6520  218.8140 C   0  0  0  0  0  0  0  0  0  0  0  0
  142.3170   75.7270  220.2900 C   0  0  0  0  0  0  0  0  0  0  0  0
  141.4440   76.6880  220.9920 C   0  0  1  0  0  0  0  0  0  0  0  0
  141.7190   78.1260  220.8780 C   0  0  0  0  0  0  0  0  0  0  0  0
  140.8300   79.0490  221.5140 N   0  0  0  0  0  0  0  0  0  0  0  0
  141.5470   80.3060  221.8380 C   0  0  0  0  0  0  0  0  0  0  0  0
  142.6230   79.8090  222.7640 C   0  0  0  0  0  0  0  0  0  0  0  0
  141.8710   78.7840  223.5980 C   0  0  0  0  0  0  0  0  0  0  0  0
  140.5200   78.6870  222.9150 C   0  0  0  0  0  0  0  0  0  0  0  0
  139.9840   71.9000  223.5530 C   0  0  0  0  0  0  0  0  0  0  0  0
  139.6480   70.5850  223.3130 C   0  0  0  0  0  0  0  0  0  0  0  0
  139.7690   69.5930  224.2640 C   0  0  0  0  0  0  0  0  0  0  0  0
  140.2600   69.9970  225.5070 C   0  0  0  0  0  0  0  0  0  0  0  0
  140.4030   69.0450  226.4970 C   0  0  0  0  0  0  0  0  0  0  0  0
  140.8870   69.3650  227.7670 C   0  0  0  0  0  0  0  0  0  0  0  0
  141.0630   68.1420  229.0140 Cl  0  0  0  0  0  0  0  0  0  0  0  0
  141.2120   70.6900  227.9720 C   0  0  0  0  0  0  0  0  0  0  0  0
  141.0800   71.6610  227.0000 C   0  0  0  0  0  0  0  0  0  0  0  0
  140.5990   71.3130  225.7560 C   0  0  0  0  0  0  0  0  0  0  0  0
  140.4550   72.2490  224.7700 N   0  0  0  0  0  0  0  0  0  0  0  0
  137.7430   73.3130  222.7710 H   0  0  0  0  0  0  0  0  0  0  0  0
  139.1997   74.0074  220.2557 H   0  0  0  0  0  0  0  0  0  0  0  0
  137.5419   74.5755  220.7356 H   0  0  0  0  0  0  0  0  0  0  0  0
  138.9198   76.0919  218.8386 H   0  0  0  0  0  0  0  0  0  0  0  0
  139.6359   77.7518  219.0999 H   0  0  0  0  0  0  0  0  0  0  0  0
  140.5411   75.7010  217.4447 H   0  0  0  0  0  0  0  0  0  0  0  0
  141.3239   77.3217  217.9298 H   0  0  0  0  0  0  0  0  0  0  0  0
  142.0311   74.5879  218.5477 H   0  0  0  0  0  0  0  0  0  0  0  0
  142.9789   76.1814  218.3878 H   0  0  0  0  0  0  0  0  0  0  0  0
  142.1323   74.7277  220.7110 H   0  0  0  0  0  0  0  0  0  0  0  0
  143.3475   76.0810  220.4408 H   0  0  0  0  0  0  0  0  0  0  0  0
  141.6365   76.5624  222.0677 H   0  0  0  0  0  0  0  0  0  0  0  0
  142.7203   78.2984  221.2996 H   0  0  0  0  0  0  0  0  0  0  0  0
  141.5986   78.3362  219.8050 H   0  0  0  0  0  0  0  0  0  0  0  0
  141.9751   80.7680  220.9362 H   0  0  0  0  0  0  0  0  0  0  0  0
  140.9069   81.0873  222.2736 H   0  0  0  0  0  0  0  0  0  0  0  0
  143.4477   79.3426  222.2051 H   0  0  0  0  0  0  0  0  0  0  0  0
  143.0988   80.6027  223.3587 H   0  0  0  0  0  0  0  0  0  0  0  0
  142.3876   77.8129  223.5856 H   0  0  0  0  0  0  0  0  0  0  0  0
  141.7938   79.0699  224.6574 H   0  0  0  0  0  0  0  0  0  0  0  0
  140.1165   77.6657  222.9797 H   0  0  0  0  0  0  0  0  0  0  0  0
  139.7556   79.3332  223.3713 H   0  0  0  0  0  0  0  0  0  0  0  0
  139.2659   70.3141  222.3177 H   0  0  0  0  0  0  0  0  0  0  0  0
  139.4955   68.5481  224.0558 H   0  0  0  0  0  0  0  0  0  0  0  0
  140.1272   68.0028  226.2784 H   0  0  0  0  0  0  0  0  0  0  0  0
  141.5954   70.9874  228.9592 H   0  0  0  0  0  0  0  0  0  0  0  0
  141.3563   72.7036  227.2162 H   0  0  0  0  0  0  0  0  0  0  0  0
  1  2  2  0
  2  3  1  0
  3  4  1  0
  4  5  1  0
  5  6  2  0
  5  7  1  0
  7  8  1  0
  8  9  1  0
  9 10  1  0
 10 11  1  0
 11 12  1  0
 12 13  1  0
 13 14  1  0
 14 15  1  0
 15 16  1  0
 16 17  1  0
 17 18  1  0
  2 19  1  0
 19 20  2  0
 20 21  1  0
 21 22  2  0
 22 23  1  0
 23 24  2  0
 24 25  1  0
 24 26  1  0
 26 27  2  0
 27 28  1  0
 28 29  2  0
 12  7  1  0
 18 14  1  0
 29 19  1  0
 28 22  1  0
  3 30  1  0
  4 31  1  0
  4 32  1  0
  8 33  1  0
  8 34  1  0
  9 35  1  0
  9 36  1  0
 10 37  1  0
 10 38  1  0
 11 39  1  0
 11 40  1  0
 12 41  1  1
 13 42  1  0
 13 43  1  0
 15 44  1  0
 15 45  1  0
 16 46  1  0
 16 47  1  0
 17 48  1  0
 17 49  1  0
 18 50  1  0
 18 51  1  0
 20 52  1  0
 21 53  1  0
 23 54  1  0
 26 55  1  0
 27 56  1  0
M  END
>  <smiles>  (28) 
O=C(NCC(=O)N1CCCC[C@H]1CN1CCCC1)c1ccc2cc(Cl)ccc2n1

>  <score_type>  (28) 
oracle

>  <origin>  (28) 
autodockgpu

>  <m_score__min__energy>  (28) 
-8.25

>  <m_primary>  (28) 
energy

>  <rmsd>  (28) 
2.2619481133631756

>  <m_score__min__rmsd>  (28) 
2.2619481133631756

>  <meeko>  (28) 
{"free_energy": -7.71, "intermolecular_energy": -9.5, "internal_energy": -1.76, "cluster_size": 25, "cluster_id": 1, "rank_in_cluster": 10}

>  <energy>  (28) 
-7.28

>  <cluster_rmsd>  (28) 
0.89

>  <cluster>  (28) 
2

$$$$

     RDKit          3D

 56 59  0  0  0  0  0  0  0  0999 V2000
  135.6120   75.8610  221.4530 O   0  0  0  0  0  0  0  0  0  0  0  0
  136.6770   75.6710  222.1100 C   0  0  0  0  0  0  0  0  0  0  0  0
  136.9320   74.3230  222.5060 N   0  0  0  0  0  0  0  0  0  0  0  0
  135.9280   73.3420  222.1030 C   0  0  0  0  0  0  0  0  0  0  0  0
  135.0390   72.9630  223.2200 C   0  0  0  0  0  0  0  0  0  0  0  0
  134.9460   71.7790  223.6200 O   0  0  0  0  0  0  0  0  0  0  0  0
  134.2830   73.9780  223.8430 N   0  0  0  0  0  0  0  0  0  0  0  0
  133.3180   74.8210  223.1300 C   0  0  0  0  0  0  0  0  0  0  0  0
  133.3710   76.2600  223.5360 C   0  0  0  0  0  0  0  0  0  0  0  0
  134.4280   76.6790  224.4780 C   0  0  0  0  0  0  0  0  0  0  0  0
  135.0710   75.6250  225.3140 C   0  0  0  0  0  0  0  0  0  0  0  0
  134.4090   74.3070  225.2750 C   0  0  1  0  0  0  0  0  0  0  0  0
  133.1460   74.1140  225.9990 C   0  0  0  0  0  0  0  0  0  0  0  0
  133.1530   73.3350  227.2000 N   0  0  0  0  0  0  0  0  0  0  0  0
  133.7210   71.9910  226.9310 C   0  0  0  0  0  0  0  0  0  0  0  0
  132.7610   71.4590  225.9020 C   0  0  0  0  0  0  0  0  0  0  0  0
  131.4250   71.9470  226.4370 C   0  0  0  0  0  0  0  0  0  0  0  0
  131.8080   72.8560  227.5890 C   0  0  0  0  0  0  0  0  0  0  0  0
  137.5740   76.7740  222.4320 C   0  0  0  0  0  0  0  0  0  0  0  0
  137.0080   77.9890  222.7510 C   0  0  0  0  0  0  0  0  0  0  0  0
  137.7520   79.1030  223.0780 C   0  0  0  0  0  0  0  0  0  0  0  0
  139.1380   78.9330  223.0710 C   0  0  0  0  0  0  0  0  0  0  0  0
  139.9330   80.0150  223.3930 C   0  0  0  0  0  0  0  0  0  0  0  0
  141.3270   79.9300  223.4100 C   0  0  0  0  0  0  0  0  0  0  0  0
  142.3230   81.3160  223.8210 Cl  0  0  0  0  0  0  0  0  0  0  0  0
  141.8600   78.7000  223.0850 C   0  0  0  0  0  0  0  0  0  0  0  0
  141.0880   77.6020  222.7610 C   0  0  0  0  0  0  0  0  0  0  0  0
  139.7150   77.7180  222.7530 C   0  0  0  0  0  0  0  0  0  0  0  0
  138.9200   76.6530  222.4370 N   0  0  0  0  0  0  0  0  0  0  0  0
  137.7840   74.0880  223.0440 H   0  0  0  0  0  0  0  0  0  0  0  0
  135.3179   73.7711  221.2945 H   0  0  0  0  0  0  0  0  0  0  0  0
  136.4555   72.4364  221.7688 H   0  0  0  0  0  0  0  0  0  0  0  0
  133.5272   74.7550  222.0521 H   0  0  0  0  0  0  0  0  0  0  0  0
  132.3139   74.4495  223.3826 H   0  0  0  0  0  0  0  0  0  0  0  0
  133.4972   76.8536  222.6186 H   0  0  0  0  0  0  0  0  0  0  0  0
  132.4332   76.4232  224.0872 H   0  0  0  0  0  0  0  0  0  0  0  0
  135.2221   77.1596  223.8877 H   0  0  0  0  0  0  0  0  0  0  0  0
  133.9137   77.3303  225.2000 H   0  0  0  0  0  0  0  0  0  0  0  0
  136.1063   75.4972  224.9649 H   0  0  0  0  0  0  0  0  0  0  0  0
  135.0005   75.9733  226.3550 H   0  0  0  0  0  0  0  0  0  0  0  0
  135.0438   73.6185  225.8521 H   0  0  0  0  0  0  0  0  0  0  0  0
  132.7688   75.1129  226.2634 H   0  0  0  0  0  0  0  0  0  0  0  0
  132.5274   73.5270  225.3041 H   0  0  0  0  0  0  0  0  0  0  0  0
  134.7428   72.0598  226.5294 H   0  0  0  0  0  0  0  0  0  0  0  0
  133.8158   71.3574  227.8252 H   0  0  0  0  0  0  0  0  0  0  0  0
  132.9699   71.8770  224.9062 H   0  0  0  0  0  0  0  0  0  0  0  0
  132.8139   70.3686  225.7668 H   0  0  0  0  0  0  0  0  0  0  0  0
  130.8733   72.5036  225.6651 H   0  0  0  0  0  0  0  0  0  0  0  0
  130.7637   71.1240  226.7457 H   0  0  0  0  0  0  0  0  0  0  0  0
  131.1016   73.6939  227.6835 H   0  0  0  0  0  0  0  0  0  0  0  0
  131.7932   72.3493  228.5653 H   0  0  0  0  0  0  0  0  0  0  0  0
  135.9113   78.0744  222.7445 H   0  0  0  0  0  0  0  0  0  0  0  0
  137.2828   80.0658  223.3288 H   0  0  0  0  0  0  0  0  0  0  0  0
  139.4540   80.9729  223.6437 H   0  0  0  0  0  0  0  0  0  0  0  0
  142.9543   78.5883  223.0839 H   0  0  0  0  0  0  0  0  0  0  0  0
  141.5650   76.6428  222.5114 H   0  0  0  0  0  0  0  0  0  0  0  0
  1  2  2  0
  2  3  1  0
  3  4  1  0
  4  5  1  0
  5  6  2  0
  5  7  1  0
  7  8  1  0
  8  9  1  0
  9 10  1  0
 10 11  1  0
 11 12  1  0
 12 13  1  0
 13 14  1  0
 14 15  1  0
 15 16  1  0
 16 17  1  0
 17 18  1  0
  2 19  1  0
 19 20  2  0
 20 21  1  0
 21 22  2  0
 22 23  1  0
 23 24  2  0
 24 25  1  0
 24 26  1  0
 26 27  2  0
 27 28  1  0
 28 29  2  0
 12  7  1  0
 18 14  1  0
 29 19  1  0
 28 22  1  0
  3 30  1  0
  4 31  1  0
  4 32  1  0
  8 33  1  0
  8 34  1  0
  9 35  1  0
  9 36  1  0
 10 37  1  0
 10 38  1  0
 11 39  1  0
 11 40  1  0
 12 41  1  1
 13 42  1  0
 13 43  1  0
 15 44  1  0
 15 45  1  0
 16 46  1  0
 16 47  1  0
 17 48  1  0
 17 49  1  0
 18 50  1  0
 18 51  1  0
 20 52  1  0
 21 53  1  0
 23 54  1  0
 26 55  1  0
 27 56  1  0
M  END
>  <smiles>  (29) 
O=C(NCC(=O)N1CCCC[C@H]1CN1CCCC1)c1ccc2cc(Cl)ccc2n1

>  <score_type>  (29) 
oracle

>  <origin>  (29) 
autodockgpu

>  <m_score__min__energy>  (29) 
-8.25

>  <m_primary>  (29) 
energy

>  <rmsd>  (29) 
9.421838187785085

>  <m_score__min__rmsd>  (29) 
9.421838187785085

>  <meeko>  (29) 
{"free_energy": -6.55, "intermolecular_energy": -8.34, "internal_energy": -2.24, "cluster_size": 1, "cluster_id": 5, "rank_in_cluster": 1}

>  <energy>  (29) 
-7.72

>  <cluster_rmsd>  (29) 
0.0

>  <cluster>  (29) 
3

$$$$

     RDKit          3D

 56 59  0  0  0  0  0  0  0  0999 V2000
  140.8400   72.3600  221.1710 O   0  0  0  0  0  0  0  0  0  0  0  0
  140.0240   72.4930  222.1290 C   0  0  0  0  0  0  0  0  0  0  0  0
  139.0790   73.5550  221.9960 N   0  0  0  0  0  0  0  0  0  0  0  0
  139.1810   74.3480  220.7750 C   0  0  0  0  0  0  0  0  0  0  0  0
  140.2990   75.3110  220.8260 C   0  0  0  0  0  0  0  0  0  0  0  0
  141.4520   75.0080  220.4430 O   0  0  0  0  0  0  0  0  0  0  0  0
  140.0390   76.6060  221.3230 N   0  0  0  0  0  0  0  0  0  0  0  0
  139.1790   76.8710  222.4810 C   0  0  0  0  0  0  0  0  0  0  0  0
  138.2820   78.0540  222.2970 C   0  0  0  0  0  0  0  0  0  0  0  0
  138.2700   78.7210  220.9800 C   0  0  0  0  0  0  0  0  0  0  0  0
  139.4380   78.5010  220.0800 C   0  0  0  0  0  0  0  0  0  0  0  0
  140.5920   77.8260  220.7070 C   0  0  1  0  0  0  0  0  0  0  0  0
  141.4460   78.5770  221.6370 C   0  0  0  0  0  0  0  0  0  0  0  0
  141.0400   79.8890  222.0380 N   0  0  0  0  0  0  0  0  0  0  0  0
  142.2050   80.8070  222.0280 C   0  0  0  0  0  0  0  0  0  0  0  0
  143.1130   80.1510  223.0320 C   0  0  0  0  0  0  0  0  0  0  0  0
  142.1300   79.7120  224.1050 C   0  0  0  0  0  0  0  0  0  0  0  0
  140.7740   79.9960  223.4890 C   0  0  0  0  0  0  0  0  0  0  0  0
  140.0630   71.6090  223.2870 C   0  0  0  0  0  0  0  0  0  0  0  0
  139.5810   70.3270  223.1310 C   0  0  0  0  0  0  0  0  0  0  0  0
  139.5710   69.3990  224.1520 C   0  0  0  0  0  0  0  0  0  0  0  0
  140.0860   69.8320  225.3740 C   0  0  0  0  0  0  0  0  0  0  0  0
  140.1020   68.9430  226.4310 C   0  0  0  0  0  0  0  0  0  0  0  0
  140.6000   69.2960  227.6880 C   0  0  0  0  0  0  0  0  0  0  0  0
  140.6130   68.1530  229.0200 Cl  0  0  0  0  0  0  0  0  0  0  0  0
  141.0740   70.5860  227.8070 C   0  0  0  0  0  0  0  0  0  0  0  0
  141.0710   71.4930  226.7670 C   0  0  0  0  0  0  0  0  0  0  0  0
  140.5720   71.1150  225.5390 C   0  0  0  0  0  0  0  0  0  0  0  0
  140.5530   71.9870  224.4880 N   0  0  0  0  0  0  0  0  0  0  0  0
  138.3760   73.7260  222.7370 H   0  0  0  0  0  0  0  0  0  0  0  0
  139.3372   73.6690  219.9238 H   0  0  0  0  0  0  0  0  0  0  0  0
  138.2479   74.9201  220.6655 H   0  0  0  0  0  0  0  0  0  0  0  0
  138.5538   75.9841  222.6611 H   0  0  0  0  0  0  0  0  0  0  0  0
  139.8397   77.0939  223.3317 H   0  0  0  0  0  0  0  0  0  0  0  0
  137.2545   77.7196  222.5028 H   0  0  0  0  0  0  0  0  0  0  0  0
  138.6862   78.8125  222.9835 H   0  0  0  0  0  0  0  0  0  0  0  0
  137.3734   78.3749  220.4449 H   0  0  0  0  0  0  0  0  0  0  0  0
  138.2976   79.7957  221.2129 H   0  0  0  0  0  0  0  0  0  0  0  0
  139.1035   77.8866  219.2312 H   0  0  0  0  0  0  0  0  0  0  0  0
  139.7903   79.5003  219.7846 H   0  0  0  0  0  0  0  0  0  0  0  0
  141.3261   77.6463  219.9078 H   0  0  0  0  0  0  0  0  0  0  0  0
  141.5374   77.9730  222.5518 H   0  0  0  0  0  0  0  0  0  0  0  0
  142.3728   78.7468  221.0694 H   0  0  0  0  0  0  0  0  0  0  0  0
  142.6722   80.8524  221.0332 H   0  0  0  0  0  0  0  0  0  0  0  0
  141.9547   81.8516  222.2652 H   0  0  0  0  0  0  0  0  0  0  0  0
  143.6378   79.2893  222.5937 H   0  0  0  0  0  0  0  0  0  0  0  0
  143.9124   80.8086  223.4042 H   0  0  0  0  0  0  0  0  0  0  0  0
  142.2436   78.6405  224.3261 H   0  0  0  0  0  0  0  0  0  0  0  0
  142.2815   80.2345  225.0610 H   0  0  0  0  0  0  0  0  0  0  0  0
  140.0299   79.2525  223.8106 H   0  0  0  0  0  0  0  0  0  0  0  0
  140.3594   80.9714  223.7834 H   0  0  0  0  0  0  0  0  0  0  0  0
  139.1864   70.0304  222.1480 H   0  0  0  0  0  0  0  0  0  0  0  0
  139.1809   68.3802  224.0110 H   0  0  0  0  0  0  0  0  0  0  0  0
  139.7108   67.9262  226.2787 H   0  0  0  0  0  0  0  0  0  0  0  0
  141.4744   70.9078  228.7797 H   0  0  0  0  0  0  0  0  0  0  0  0
  141.4637   72.5095  226.9168 H   0  0  0  0  0  0  0  0  0  0  0  0
  1  2  2  0
  2  3  1  0
  3  4  1  0
  4  5  1  0
  5  6  2  0
  5  7  1  0
  7  8  1  0
  8  9  1  0
  9 10  1  0
 10 11  1  0
 11 12  1  0
 12 13  1  0
 13 14  1  0
 14 15  1  0
 15 16  1  0
 16 17  1  0
 17 18  1  0
  2 19  1  0
 19 20  2  0
 20 21  1  0
 21 22  2  0
 22 23  1  0
 23 24  2  0
 24 25  1  0
 24 26  1  0
 26 27  2  0
 27 28  1  0
 28 29  2  0
 12  7  1  0
 18 14  1  0
 29 19  1  0
 28 22  1  0
  3 30  1  0
  4 31  1  0
  4 32  1  0
  8 33  1  0
  8 34  1  0
  9 35  1  0
  9 36  1  0
 10 37  1  0
 10 38  1  0
 11 39  1  0
 11 40  1  0
 12 41  1  6
 13 42  1  0
 13 43  1  0
 15 44  1  0
 15 45  1  0
 16 46  1  0
 16 47  1  0
 17 48  1  0
 17 49  1  0
 18 50  1  0
 18 51  1  0
 20 52  1  0
 21 53  1  0
 23 54  1  0
 26 55  1  0
 27 56  1  0
M  END
>  <smiles>  (30) 
O=C(NCC(=O)N1CCCC[C@H]1CN1CCCC1)c1ccc2cc(Cl)ccc2n1

>  <score_type>  (30) 
oracle

>  <origin>  (30) 
autodockgpu

>  <m_score__min__energy>  (30) 
-8.25

>  <m_primary>  (30) 
energy

>  <rmsd>  (30) 
2.845750888004438

>  <m_score__min__rmsd>  (30) 
2.845750888004438

>  <meeko>  (30) 
{"free_energy": -7.95, "intermolecular_energy": -9.74, "internal_energy": -1.49, "cluster_size": 25, "cluster_id": 1, "rank_in_cluster": 6}

>  <energy>  (30) 
-7.63

>  <cluster_rmsd>  (30) 
0.0

>  <cluster>  (30) 
4

$$$$

     RDKit          3D

 56 59  0  0  0  0  0  0  0  0999 V2000
  140.0590   72.4550  220.8210 O   0  0  0  0  0  0  0  0  0  0  0  0
  139.7860   72.8160  222.0030 C   0  0  0  0  0  0  0  0  0  0  0  0
  139.3700   74.1730  222.1570 N   0  0  0  0  0  0  0  0  0  0  0  0
  139.3160   74.9640  220.9320 C   0  0  0  0  0  0  0  0  0  0  0  0
  139.1800   76.4100  221.2070 C   0  0  0  0  0  0  0  0  0  0  0  0
  138.2780   76.8600  221.9510 O   0  0  0  0  0  0  0  0  0  0  0  0
  140.1020   77.2910  220.6050 N   0  0  0  0  0  0  0  0  0  0  0  0
  139.7980   78.0930  219.4160 C   0  0  0  0  0  0  0  0  0  0  0  0
  140.9200   78.1420  218.4280 C   0  0  0  0  0  0  0  0  0  0  0  0
  142.1130   77.3130  218.6870 C   0  0  0  0  0  0  0  0  0  0  0  0
  142.3460   76.8480  220.0860 C   0  0  0  0  0  0  0  0  0  0  0  0
  141.4780   77.4730  221.1030 C   0  0  1  0  0  0  0  0  0  0  0  0
  141.7370   78.8580  221.5170 C   0  0  0  0  0  0  0  0  0  0  0  0
  142.5330   79.0910  222.6830 N   0  0  0  0  0  0  0  0  0  0  0  0
  141.7990   78.6530  223.8960 C   0  0  0  0  0  0  0  0  0  0  0  0
  140.5800   79.5320  223.8430 C   0  0  0  0  0  0  0  0  0  0  0  0
  141.1680   80.8590  223.3940 C   0  0  0  0  0  0  0  0  0  0  0  0
  142.6080   80.5200  223.0600 C   0  0  0  0  0  0  0  0  0  0  0  0
  139.8970   71.8900  223.1230 C   0  0  0  0  0  0  0  0  0  0  0  0
  139.4760   70.5920  222.9260 C   0  0  0  0  0  0  0  0  0  0  0  0
  139.5360   69.6250  223.9080 C   0  0  0  0  0  0  0  0  0  0  0  0
  140.0570   70.0360  225.1360 C   0  0  0  0  0  0  0  0  0  0  0  0
  140.1430   69.1090  226.1560 C   0  0  0  0  0  0  0  0  0  0  0  0
  140.6520   69.4370  227.4140 C   0  0  0  0  0  0  0  0  0  0  0  0
  140.7530   68.2450  228.6990 Cl  0  0  0  0  0  0  0  0  0  0  0  0
  141.0630   70.7430  227.5760 C   0  0  0  0  0  0  0  0  0  0  0  0
  140.9890   71.6900  226.5740 C   0  0  0  0  0  0  0  0  0  0  0  0
  140.4820   71.3350  225.3420 C   0  0  0  0  0  0  0  0  0  0  0  0
  140.3940   72.2450  224.3280 N   0  0  0  0  0  0  0  0  0  0  0  0
  139.1260   74.5430  223.0930 H   0  0  0  0  0  0  0  0  0  0  0  0
  140.2416   74.7973  220.3615 H   0  0  0  0  0  0  0  0  0  0  0  0
  138.4314   74.6439  220.3619 H   0  0  0  0  0  0  0  0  0  0  0  0
  138.9161   77.6610  218.9205 H   0  0  0  0  0  0  0  0  0  0  0  0
  139.6211   79.1238  219.7569 H   0  0  0  0  0  0  0  0  0  0  0  0
  140.5117   77.8313  217.4550 H   0  0  0  0  0  0  0  0  0  0  0  0
  141.2890   79.1767  218.4853 H   0  0  0  0  0  0  0  0  0  0  0  0
  142.0349   76.4180  218.0523 H   0  0  0  0  0  0  0  0  0  0  0  0
  142.9637   77.9756  218.4696 H   0  0  0  0  0  0  0  0  0  0  0  0
  142.1797   75.7611  220.1166 H   0  0  0  0  0  0  0  0  0  0  0  0
  143.3760   77.1392  220.3396 H   0  0  0  0  0  0  0  0  0  0  0  0
  141.6936   76.9664  222.0553 H   0  0  0  0  0  0  0  0  0  0  0  0
  142.2405   79.3580  220.6765 H   0  0  0  0  0  0  0  0  0  0  0  0
  140.7441   79.2441  221.7910 H   0  0  0  0  0  0  0  0  0  0  0  0
  141.5292   77.5881  223.8397 H   0  0  0  0  0  0  0  0  0  0  0  0
  142.3773   78.7441  224.8273 H   0  0  0  0  0  0  0  0  0  0  0  0
  139.8456   79.1538  223.1166 H   0  0  0  0  0  0  0  0  0  0  0  0
  140.0319   79.5888  224.7950 H   0  0  0  0  0  0  0  0  0  0  0  0
  140.6398   81.2424  222.5085 H   0  0  0  0  0  0  0  0  0  0  0  0
  141.0816   81.6442  224.1595 H   0  0  0  0  0  0  0  0  0  0  0  0
  142.9743   81.1315  222.2222 H   0  0  0  0  0  0  0  0  0  0  0  0
  143.3034   80.7141  223.8899 H   0  0  0  0  0  0  0  0  0  0  0  0
  139.0738   70.3147  221.9404 H   0  0  0  0  0  0  0  0  0  0  0  0
  139.1944   68.5939  223.7341 H   0  0  0  0  0  0  0  0  0  0  0  0
  139.7998   68.0803  225.9716 H   0  0  0  0  0  0  0  0  0  0  0  0
  141.4701   71.0455  228.5521 H   0  0  0  0  0  0  0  0  0  0  0  0
  141.3317   72.7191  226.7571 H   0  0  0  0  0  0  0  0  0  0  0  0
  1  2  2  0
  2  3  1  0
  3  4  1  0
  4  5  1  0
  5  6  2  0
  5  7  1  0
  7  8  1  0
  8  9  1  0
  9 10  1  0
 10 11  1  0
 11 12  1  0
 12 13  1  0
 13 14  1  0
 14 15  1  0
 15 16  1  0
 16 17  1  0
 17 18  1  0
  2 19  1  0
 19 20  2  0
 20 21  1  0
 21 22  2  0
 22 23  1  0
 23 24  2  0
 24 25  1  0
 24 26  1  0
 26 27  2  0
 27 28  1  0
 28 29  2  0
 12  7  1  0
 18 14  1  0
 29 19  1  0
 28 22  1  0
  3 30  1  0
  4 31  1  0
  4 32  1  0
  8 33  1  0
  8 34  1  0
  9 35  1  0
  9 36  1  0
 10 37  1  0
 10 38  1  0
 11 39  1  0
 11 40  1  0
 12 41  1  1
 13 42  1  0
 13 43  1  0
 15 44  1  0
 15 45  1  0
 16 46  1  0
 16 47  1  0
 17 48  1  0
 17 49  1  0
 18 50  1  0
 18 51  1  0
 20 52  1  0
 21 53  1  0
 23 54  1  0
 26 55  1  0
 27 56  1  0
M  END
>  <smiles>  (31) 
O=C(NCC(=O)N1CCCC[C@H]1CN1CCCC1)c1ccc2cc(Cl)ccc2n1

>  <score_type>  (31) 
oracle

>  <origin>  (31) 
autodockgpu

>  <m_score__min__energy>  (31) 
-8.25

>  <m_primary>  (31) 
energy

>  <rmsd>  (31) 
2.218973206704065

>  <m_score__min__rmsd>  (31) 
2.218973206704065

>  <meeko>  (31) 
{"free_energy": -8.25, "intermolecular_energy": -10.04, "internal_energy": -1.65, "cluster_size": 25, "cluster_id": 1, "rank_in_cluster": 1}

>  <energy>  (31) 
-7.63

>  <cluster_rmsd>  (31) 
1.37

>  <cluster>  (31) 
4

$$$$

     RDKit          3D

 56 59  0  0  0  0  0  0  0  0999 V2000
  139.2020   72.9750  220.9140 O   0  0  0  0  0  0  0  0  0  0  0  0
  140.2380   72.7130  221.5920 C   0  0  0  0  0  0  0  0  0  0  0  0
  141.4550   73.2840  221.1130 N   0  0  0  0  0  0  0  0  0  0  0  0
  141.3450   74.0920  219.9030 C   0  0  0  0  0  0  0  0  0  0  0  0
  141.9590   75.4260  220.0650 C   0  0  0  0  0  0  0  0  0  0  0  0
  143.0340   75.7330  219.5000 O   0  0  0  0  0  0  0  0  0  0  0  0
  141.2990   76.3670  220.8820 N   0  0  0  0  0  0  0  0  0  0  0  0
  140.6690   76.0270  222.1620 C   0  0  0  0  0  0  0  0  0  0  0  0
  139.3480   76.6960  222.3710 C   0  0  0  0  0  0  0  0  0  0  0  0
  138.7870   77.4930  221.2620 C   0  0  0  0  0  0  0  0  0  0  0  0
  139.7260   77.9690  220.2050 C   0  0  0  0  0  0  0  0  0  0  0  0
  141.1580   77.7880  220.5150 C   0  0  1  0  0  0  0  0  0  0  0  0
  141.8010   78.6780  221.4900 C   0  0  0  0  0  0  0  0  0  0  0  0
  141.0560   79.7860  222.0060 N   0  0  0  0  0  0  0  0  0  0  0  0
  141.9740   80.8980  222.3530 C   0  0  0  0  0  0  0  0  0  0  0  0
  142.8470   80.2530  223.3960 C   0  0  0  0  0  0  0  0  0  0  0  0
  141.8390   79.4370  224.1880 C   0  0  0  0  0  0  0  0  0  0  0  0
  140.5600   79.5640  223.3810 C   0  0  0  0  0  0  0  0  0  0  0  0
  140.1700   71.8770  222.7850 C   0  0  0  0  0  0  0  0  0  0  0  0
  139.5590   70.6470  222.6720 C   0  0  0  0  0  0  0  0  0  0  0  0
  139.4390   69.7680  223.7280 C   0  0  0  0  0  0  0  0  0  0  0  0
  139.9810   70.1950  224.9410 C   0  0  0  0  0  0  0  0  0  0  0  0
  139.8910   69.3540  226.0330 C   0  0  0  0  0  0  0  0  0  0  0  0
  140.4080   69.7050  227.2820 C   0  0  0  0  0  0  0  0  0  0  0  0
  140.2840   68.6230  228.6590 Cl  0  0  0  0  0  0  0  0  0  0  0  0
  141.0120   70.9420  227.3580 C   0  0  0  0  0  0  0  0  0  0  0  0
  141.1160   71.8020  226.2830 C   0  0  0  0  0  0  0  0  0  0  0  0
  140.5960   71.4270  225.0630 C   0  0  0  0  0  0  0  0  0  0  0  0
  140.6810   72.2520  223.9780 N   0  0  0  0  0  0  0  0  0  0  0  0
  142.3450   73.1170  221.6160 H   0  0  0  0  0  0  0  0  0  0  0  0
  141.8507   73.5670  219.0792 H   0  0  0  0  0  0  0  0  0  0  0  0
  140.2756   74.2362  219.6892 H   0  0  0  0  0  0  0  0  0  0  0  0
  140.5177   74.9380  222.1976 H   0  0  0  0  0  0  0  0  0  0  0  0
  141.3409   76.3801  222.9581 H   0  0  0  0  0  0  0  0  0  0  0  0
  138.6176   75.9087  222.6090 H   0  0  0  0  0  0  0  0  0  0  0  0
  139.5375   77.4314  223.1668 H   0  0  0  0  0  0  0  0  0  0  0  0
  138.0222   76.8757  220.7680 H   0  0  0  0  0  0  0  0  0  0  0  0
  138.4177   78.4124  221.7398 H   0  0  0  0  0  0  0  0  0  0  0  0
  139.5050   77.4180  219.2790 H   0  0  0  0  0  0  0  0  0  0  0  0
  139.5653   79.0536  220.1168 H   0  0  0  0  0  0  0  0  0  0  0  0
  141.7162   78.0886  219.6161 H   0  0  0  0  0  0  0  0  0  0  0  0
  142.0955   78.0577  222.3494 H   0  0  0  0  0  0  0  0  0  0  0  0
  142.6192   79.1471  220.9240 H   0  0  0  0  0  0  0  0  0  0  0  0
  142.5617   81.2208  221.4809 H   0  0  0  0  0  0  0  0  0  0  0  0
  141.4637   81.8097  222.6970 H   0  0  0  0  0  0  0  0  0  0  0  0
  143.6103   79.6084  222.9358 H   0  0  0  0  0  0  0  0  0  0  0  0
  143.4149   80.9710  224.0059 H   0  0  0  0  0  0  0  0  0  0  0  0
  142.1549   78.3858  224.2596 H   0  0  0  0  0  0  0  0  0  0  0  0
  141.7260   79.7884  225.2242 H   0  0  0  0  0  0  0  0  0  0  0  0
  139.9611   78.6433  223.4416 H   0  0  0  0  0  0  0  0  0  0  0  0
  139.8992   80.3673  223.7388 H   0  0  0  0  0  0  0  0  0  0  0  0
  139.1482   70.3528  221.6949 H   0  0  0  0  0  0  0  0  0  0  0  0
  138.9463   68.7904  223.6207 H   0  0  0  0  0  0  0  0  0  0  0  0
  139.3971   68.3782  225.9153 H   0  0  0  0  0  0  0  0  0  0  0  0
  141.4321   71.2597  228.3237 H   0  0  0  0  0  0  0  0  0  0  0  0
  141.6097   72.7781  226.3992 H   0  0  0  0  0  0  0  0  0  0  0  0
  1  2  2  0
  2  3  1  0
  3  4  1  0
  4  5  1  0
  5  6  2  0
  5  7  1  0
  7  8  1  0
  8  9  1  0
  9 10  1  0
 10 11  1  0
 11 12  1  0
 12 13  1  0
 13 14  1  0
 14 15  1  0
 15 16  1  0
 16 17  1  0
 17 18  1  0
  2 19  1  0
 19 20  2  0
 20 21  1  0
 21 22  2  0
 22 23  1  0
 23 24  2  0
 24 25  1  0
 24 26  1  0
 26 27  2  0
 27 28  1  0
 28 29  2  0
 12  7  1  0
 18 14  1  0
 29 19  1  0
 28 22  1  0
  3 30  1  0
  4 31  1  0
  4 32  1  0
  8 33  1  0
  8 34  1  0
  9 35  1  0
  9 36  1  0
 10 37  1  0
 10 38  1  0
 11 39  1  0
 11 40  1  0
 12 41  1  6
 13 42  1  0
 13 43  1  0
 15 44  1  0
 15 45  1  0
 16 46  1  0
 16 47  1  0
 17 48  1  0
 17 49  1  0
 18 50  1  0
 18 51  1  0
 20 52  1  0
 21 53  1  0
 23 54  1  0
 26 55  1  0
 27 56  1  0
M  END
>  <smiles>  (32) 
O=C(NCC(=O)N1CCCC[C@H]1CN1CCCC1)c1ccc2cc(Cl)ccc2n1

>  <score_type>  (32) 
oracle

>  <origin>  (32) 
autodockgpu

>  <m_score__min__energy>  (32) 
-8.25

>  <m_primary>  (32) 
energy

>  <rmsd>  (32) 
3.054979683177884

>  <m_score__min__rmsd>  (32) 
3.054979683177884

>  <meeko>  (32) 
{"free_energy": -7.58, "intermolecular_energy": -9.37, "internal_energy": -1.74, "cluster_size": 25, "cluster_id": 1, "rank_in_cluster": 15}

>  <energy>  (32) 
-7.58

>  <cluster_rmsd>  (32) 
0.58

>  <cluster>  (32) 
4

$$$$

     RDKit          3D

 56 59  0  0  0  0  0  0  0  0999 V2000
  139.1620   72.8650  220.9440 O   0  0  0  0  0  0  0  0  0  0  0  0
  140.1830   72.6890  221.6710 C   0  0  0  0  0  0  0  0  0  0  0  0
  141.3680   73.3670  221.2540 N   0  0  0  0  0  0  0  0  0  0  0  0
  141.2460   74.1730  220.0430 C   0  0  0  0  0  0  0  0  0  0  0  0
  141.9020   75.4890  220.1800 C   0  0  0  0  0  0  0  0  0  0  0  0
  143.0020   75.7410  219.6360 O   0  0  0  0  0  0  0  0  0  0  0  0
  141.2530   76.4780  220.9490 N   0  0  0  0  0  0  0  0  0  0  0  0
  140.5710   76.2000  222.2170 C   0  0  0  0  0  0  0  0  0  0  0  0
  139.2710   76.9240  222.3640 C   0  0  0  0  0  0  0  0  0  0  0  0
  138.7750   77.7070  221.2150 C   0  0  0  0  0  0  0  0  0  0  0  0
  139.7630   78.1160  220.1750 C   0  0  0  0  0  0  0  0  0  0  0  0
  141.1770   77.8920  220.5350 C   0  0  1  0  0  0  0  0  0  0  0  0
  141.8230   78.7860  221.5050 C   0  0  0  0  0  0  0  0  0  0  0  0
  141.0510   79.8420  222.0870 N   0  0  0  0  0  0  0  0  0  0  0  0
  141.9020   81.0390  222.2940 C   0  0  0  0  0  0  0  0  0  0  0  0
  142.9500   80.5050  223.2320 C   0  0  0  0  0  0  0  0  0  0  0  0
  142.1250   79.6290  224.1600 C   0  0  0  0  0  0  0  0  0  0  0  0
  140.7510   79.6200  223.5180 C   0  0  0  0  0  0  0  0  0  0  0  0
  140.1310   71.8410  222.8560 C   0  0  0  0  0  0  0  0  0  0  0  0
  139.5190   70.6120  222.7380 C   0  0  0  0  0  0  0  0  0  0  0  0
  139.4130   69.7220  223.7860 C   0  0  0  0  0  0  0  0  0  0  0  0
  139.9710   70.1370  224.9960 C   0  0  0  0  0  0  0  0  0  0  0  0
  139.8950   69.2840  226.0810 C   0  0  0  0  0  0  0  0  0  0  0  0
  140.4280   69.6220  227.3270 C   0  0  0  0  0  0  0  0  0  0  0  0
  140.3230   68.5260  228.6940 Cl  0  0  0  0  0  0  0  0  0  0  0  0
  141.0330   70.8580  227.4080 C   0  0  0  0  0  0  0  0  0  0  0  0
  141.1230   71.7290  226.3410 C   0  0  0  0  0  0  0  0  0  0  0  0
  140.5870   71.3670  225.1240 C   0  0  0  0  0  0  0  0  0  0  0  0
  140.6580   72.2040  224.0460 N   0  0  0  0  0  0  0  0  0  0  0  0
  142.2430   73.2740  221.7980 H   0  0  0  0  0  0  0  0  0  0  0  0
  141.7123   73.6300  219.2077 H   0  0  0  0  0  0  0  0  0  0  0  0
  140.1754   74.3469  219.8597 H   0  0  0  0  0  0  0  0  0  0  0  0
  140.3769   75.1190  222.2787 H   0  0  0  0  0  0  0  0  0  0  0  0
  141.2309   76.5510  223.0241 H   0  0  0  0  0  0  0  0  0  0  0  0
  138.5040   76.1722  222.6019 H   0  0  0  0  0  0  0  0  0  0  0  0
  139.4643   77.6759  223.1433 H   0  0  0  0  0  0  0  0  0  0  0  0
  138.0030   77.1035  220.7152 H   0  0  0  0  0  0  0  0  0  0  0  0
  138.4263   78.6534  221.6539 H   0  0  0  0  0  0  0  0  0  0  0  0
  139.5497   77.5458  219.2588 H   0  0  0  0  0  0  0  0  0  0  0  0
  139.6460   79.2027  220.0505 H   0  0  0  0  0  0  0  0  0  0  0  0
  141.7724   78.1448  219.6453 H   0  0  0  0  0  0  0  0  0  0  0  0
  142.1874   78.1580  222.3314 H   0  0  0  0  0  0  0  0  0  0  0  0
  142.5903   79.3096  220.9159 H   0  0  0  0  0  0  0  0  0  0  0  0
  142.3470   81.3837  221.3489 H   0  0  0  0  0  0  0  0  0  0  0  0
  141.3584   81.9136  222.6807 H   0  0  0  0  0  0  0  0  0  0  0  0
  143.7061   79.9154  222.6929 H   0  0  0  0  0  0  0  0  0  0  0  0
  143.5209   81.2883  223.7520 H   0  0  0  0  0  0  0  0  0  0  0  0
  142.5406   78.6118  224.2117 H   0  0  0  0  0  0  0  0  0  0  0  0
  142.1096   80.0005  225.1953 H   0  0  0  0  0  0  0  0  0  0  0  0
  140.2493   78.6532  223.6714 H   0  0  0  0  0  0  0  0  0  0  0  0
  140.0703   80.3739  223.9402 H   0  0  0  0  0  0  0  0  0  0  0  0
  139.0957   70.3279  221.7633 H   0  0  0  0  0  0  0  0  0  0  0  0
  138.9192   68.7454  223.6751 H   0  0  0  0  0  0  0  0  0  0  0  0
  139.3997   68.3094  225.9594 H   0  0  0  0  0  0  0  0  0  0  0  0
  141.4658   71.1656  228.3714 H   0  0  0  0  0  0  0  0  0  0  0  0
  141.6183   72.7038  226.4610 H   0  0  0  0  0  0  0  0  0  0  0  0
  1  2  2  0
  2  3  1  0
  3  4  1  0
  4  5  1  0
  5  6  2  0
  5  7  1  0
  7  8  1  0
  8  9  1  0
  9 10  1  0
 10 11  1  0
 11 12  1  0
 12 13  1  0
 13 14  1  0
 14 15  1  0
 15 16  1  0
 16 17  1  0
 17 18  1  0
  2 19  1  0
 19 20  2  0
 20 21  1  0
 21 22  2  0
 22 23  1  0
 23 24  2  0
 24 25  1  0
 24 26  1  0
 26 27  2  0
 27 28  1  0
 28 29  2  0
 12  7  1  0
 18 14  1  0
 29 19  1  0
 28 22  1  0
  3 30  1  0
  4 31  1  0
  4 32  1  0
  8 33  1  0
  8 34  1  0
  9 35  1  0
  9 36  1  0
 10 37  1  0
 10 38  1  0
 11 39  1  0
 11 40  1  0
 12 41  1  6
 13 42  1  0
 13 43  1  0
 15 44  1  0
 15 45  1  0
 16 46  1  0
 16 47  1  0
 17 48  1  0
 17 49  1  0
 18 50  1  0
 18 51  1  0
 20 52  1  0
 21 53  1  0
 23 54  1  0
 26 55  1  0
 27 56  1  0
M  END
>  <smiles>  (33) 
O=C(NCC(=O)N1CCCC[C@H]1CN1CCCC1)c1ccc2cc(Cl)ccc2n1

>  <score_type>  (33) 
oracle

>  <origin>  (33) 
autodockgpu

>  <m_score__min__energy>  (33) 
-8.25

>  <m_primary>  (33) 
energy

>  <rmsd>  (33) 
3.0444174904184127

>  <m_score__min__rmsd>  (33) 
3.0444174904184127

>  <meeko>  (33) 
{"free_energy": -7.63, "intermolecular_energy": -9.42, "internal_energy": -1.71, "cluster_size": 25, "cluster_id": 1, "rank_in_cluster": 12}

>  <energy>  (33) 
-6.55

>  <cluster_rmsd>  (33) 
0.0

>  <cluster>  (33) 
5

$$$$

     RDKit          3D

 56 59  0  0  0  0  0  0  0  0999 V2000
  139.0850   73.0960  221.1660 O   0  0  0  0  0  0  0  0  0  0  0  0
  140.1530   72.7570  221.7550 C   0  0  0  0  0  0  0  0  0  0  0  0
  141.3610   73.2750  221.1970 N   0  0  0  0  0  0  0  0  0  0  0  0
  141.2060   74.1240  220.0200 C   0  0  0  0  0  0  0  0  0  0  0  0
  141.8980   75.4200  220.1720 C   0  0  0  0  0  0  0  0  0  0  0  0
  143.0240   75.6330  219.6650 O   0  0  0  0  0  0  0  0  0  0  0  0
  141.2560   76.4350  220.9110 N   0  0  0  0  0  0  0  0  0  0  0  0
  140.6090   76.2060  222.2070 C   0  0  0  0  0  0  0  0  0  0  0  0
  139.3030   76.9210  222.3540 C   0  0  0  0  0  0  0  0  0  0  0  0
  138.7690   77.6450  221.1840 C   0  0  0  0  0  0  0  0  0  0  0  0
  139.7260   78.0180  220.1030 C   0  0  0  0  0  0  0  0  0  0  0  0
  141.1510   77.8270  220.4370 C   0  0  1  0  0  0  0  0  0  0  0  0
  141.8080   78.7730  221.3490 C   0  0  0  0  0  0  0  0  0  0  0  0
  141.0280   79.8190  221.9360 N   0  0  0  0  0  0  0  0  0  0  0  0
  141.8610   81.0310  222.1240 C   0  0  0  0  0  0  0  0  0  0  0  0
  142.9310   80.5190  223.0500 C   0  0  0  0  0  0  0  0  0  0  0  0
  142.1330   79.6360  223.9950 C   0  0  0  0  0  0  0  0  0  0  0  0
  140.7510   79.6000  223.3720 C   0  0  0  0  0  0  0  0  0  0  0  0
  140.1300   71.8910  222.9270 C   0  0  0  0  0  0  0  0  0  0  0  0
  139.5610   70.6430  222.7900 C   0  0  0  0  0  0  0  0  0  0  0  0
  139.4850   69.7350  223.8250 C   0  0  0  0  0  0  0  0  0  0  0  0
  140.0250   70.1520  225.0430 C   0  0  0  0  0  0  0  0  0  0  0  0
  139.9780   69.2810  226.1140 C   0  0  0  0  0  0  0  0  0  0  0  0
  140.4960   69.6200  227.3660 C   0  0  0  0  0  0  0  0  0  0  0  0
  140.4270   68.5010  228.7170 Cl  0  0  0  0  0  0  0  0  0  0  0  0
  141.0560   70.8760  227.4670 C   0  0  0  0  0  0  0  0  0  0  0  0
  141.1180   71.7640  226.4120 C   0  0  0  0  0  0  0  0  0  0  0  0
  140.5970   71.4010  225.1890 C   0  0  0  0  0  0  0  0  0  0  0  0
  140.6410   72.2550  224.1230 N   0  0  0  0  0  0  0  0  0  0  0  0
  142.2760   73.0440  221.6240 H   0  0  0  0  0  0  0  0  0  0  0  0
  141.6233   73.5998  219.1476 H   0  0  0  0  0  0  0  0  0  0  0  0
  140.1329   74.3274  219.8892 H   0  0  0  0  0  0  0  0  0  0  0  0
  140.4304   75.1267  222.3216 H   0  0  0  0  0  0  0  0  0  0  0  0
  141.2839   76.6004  222.9809 H   0  0  0  0  0  0  0  0  0  0  0  0
  138.5519   76.1718  222.6447 H   0  0  0  0  0  0  0  0  0  0  0  0
  139.5057   77.7097  223.0935 H   0  0  0  0  0  0  0  0  0  0  0  0
  137.9931   77.0103  220.7311 H   0  0  0  0  0  0  0  0  0  0  0  0
  138.4184   78.6060  221.5883 H   0  0  0  0  0  0  0  0  0  0  0  0
  139.4978   77.4047  219.2188 H   0  0  0  0  0  0  0  0  0  0  0  0
  139.5923   79.0966  219.9333 H   0  0  0  0  0  0  0  0  0  0  0  0
  141.7219   78.0453  219.5225 H   0  0  0  0  0  0  0  0  0  0  0  0
  142.2326   78.1838  222.1751 H   0  0  0  0  0  0  0  0  0  0  0  0
  142.5268   79.3047  220.7082 H   0  0  0  0  0  0  0  0  0  0  0  0
  142.2867   81.3778  221.1708 H   0  0  0  0  0  0  0  0  0  0  0  0
  141.3086   81.8989  222.5134 H   0  0  0  0  0  0  0  0  0  0  0  0
  143.6884   79.9379  222.5035 H   0  0  0  0  0  0  0  0  0  0  0  0
  143.4972   81.3142  223.5570 H   0  0  0  0  0  0  0  0  0  0  0  0
  142.5659   78.6262  224.0479 H   0  0  0  0  0  0  0  0  0  0  0  0
  142.1254   80.0144  225.0278 H   0  0  0  0  0  0  0  0  0  0  0  0
  140.2680   78.6257  223.5374 H   0  0  0  0  0  0  0  0  0  0  0  0
  140.0632   80.3445  223.7994 H   0  0  0  0  0  0  0  0  0  0  0  0
  139.1489   70.3585  221.8106 H   0  0  0  0  0  0  0  0  0  0  0  0
  139.0270   68.7429  223.6987 H   0  0  0  0  0  0  0  0  0  0  0  0
  139.5189   68.2908  225.9768 H   0  0  0  0  0  0  0  0  0  0  0  0
  141.4740   71.1856  228.4362 H   0  0  0  0  0  0  0  0  0  0  0  0
  141.5795   72.7534  226.5465 H   0  0  0  0  0  0  0  0  0  0  0  0
  1  2  2  0
  2  3  1  0
  3  4  1  0
  4  5  1  0
  5  6  2  0
  5  7  1  0
  7  8  1  0
  8  9  1  0
  9 10  1  0
 10 11  1  0
 11 12  1  0
 12 13  1  0
 13 14  1  0
 14 15  1  0
 15 16  1  0
 16 17  1  0
 17 18  1  0
  2 19  1  0
 19 20  2  0
 20 21  1  0
 21 22  2  0
 22 23  1  0
 23 24  2  0
 24 25  1  0
 24 26  1  0
 26 27  2  0
 27 28  1  0
 28 29  2  0
 12  7  1  0
 18 14  1  0
 29 19  1  0
 28 22  1  0
  3 30  1  0
  4 31  1  0
  4 32  1  0
  8 33  1  0
  8 34  1  0
  9 35  1  0
  9 36  1  0
 10 37  1  0
 10 38  1  0
 11 39  1  0
 11 40  1  0
 12 41  1  6
 13 42  1  0
 13 43  1  0
 15 44  1  0
 15 45  1  0
 16 46  1  0
 16 47  1  0
 17 48  1  0
 17 49  1  0
 18 50  1  0
 18 51  1  0
 20 52  1  0
 21 53  1  0
 23 54  1  0
 26 55  1  0
 27 56  1  0
M  END
>  <smiles>  (34) 
O=C(NCC(=O)N1CCCC[C@H]1CN1CCCC1)c1ccc2cc(Cl)ccc2n1

>  <score_type>  (34) 
oracle

>  <origin>  (34) 
autodockgpu

>  <m_score__min__energy>  (34) 
-8.25

>  <m_primary>  (34) 
energy

>  <rmsd>  (34) 
3.0223236378520237

>  <m_score__min__rmsd>  (34) 
3.0223236378520237

>  <meeko>  (34) 
{"free_energy": -7.68, "intermolecular_energy": -9.47, "internal_energy": -1.7, "cluster_size": 25, "cluster_id": 1, "rank_in_cluster": 11}

>  <energy>  (34) 
-6.43

>  <cluster_rmsd>  (34) 
0.0

>  <cluster>  (34) 
6

$$$$

     RDKit          3D

 56 59  0  0  0  0  0  0  0  0999 V2000
  139.5790   71.8990  220.8830 O   0  0  0  0  0  0  0  0  0  0  0  0
  139.6020   72.3700  222.0580 C   0  0  0  0  0  0  0  0  0  0  0  0
  139.4630   73.7870  222.1610 N   0  0  0  0  0  0  0  0  0  0  0  0
  139.3140   74.5050  220.9000 C   0  0  0  0  0  0  0  0  0  0  0  0
  139.8470   75.8810  220.9740 C   0  0  0  0  0  0  0  0  0  0  0  0
  140.9390   76.1970  220.4480 O   0  0  0  0  0  0  0  0  0  0  0  0
  139.0890   76.8520  221.6620 N   0  0  0  0  0  0  0  0  0  0  0  0
  138.1500   76.5300  222.7410 C   0  0  0  0  0  0  0  0  0  0  0  0
  136.8740   77.3080  222.6700 C   0  0  0  0  0  0  0  0  0  0  0  0
  136.6560   78.1840  221.5020 C   0  0  0  0  0  0  0  0  0  0  0  0
  137.8530   78.6070  220.7190 C   0  0  0  0  0  0  0  0  0  0  0  0
  139.1520   78.2900  221.3440 C   0  0  1  0  0  0  0  0  0  0  0  0
  139.6140   79.0890  222.4860 C   0  0  0  0  0  0  0  0  0  0  0  0
  140.8830   78.7830  223.0720 N   0  0  0  0  0  0  0  0  0  0  0  0
  141.3840   79.9480  223.8410 C   0  0  0  0  0  0  0  0  0  0  0  0
  141.4820   80.9970  222.7680 C   0  0  0  0  0  0  0  0  0  0  0  0
  142.0290   80.1990  221.5960 C   0  0  0  0  0  0  0  0  0  0  0  0
  141.9880   78.7650  222.0880 C   0  0  0  0  0  0  0  0  0  0  0  0
  139.7640   71.5030  223.2180 C   0  0  0  0  0  0  0  0  0  0  0  0
  139.3740   70.1870  223.0940 C   0  0  0  0  0  0  0  0  0  0  0  0
  139.4820   69.2710  224.1200 C   0  0  0  0  0  0  0  0  0  0  0  0
  140.0190   69.7540  225.3130 C   0  0  0  0  0  0  0  0  0  0  0  0
  140.1530   68.8810  226.3750 C   0  0  0  0  0  0  0  0  0  0  0  0
  140.6810   69.2830  227.6030 C   0  0  0  0  0  0  0  0  0  0  0  0
  140.8440   68.1580  228.9410 Cl  0  0  0  0  0  0  0  0  0  0  0  0
  141.0600   70.6060  227.6910 C   0  0  0  0  0  0  0  0  0  0  0  0
  140.9390   71.5000  226.6470 C   0  0  0  0  0  0  0  0  0  0  0  0
  140.4130   71.0720  225.4470 C   0  0  0  0  0  0  0  0  0  0  0  0
  140.2780   71.9300  224.3910 N   0  0  0  0  0  0  0  0  0  0  0  0
  139.4690   74.2470  223.0890 H   0  0  0  0  0  0  0  0  0  0  0  0
  139.8554   73.9573  220.1146 H   0  0  0  0  0  0  0  0  0  0  0  0
  138.2394   74.5711  220.6744 H   0  0  0  0  0  0  0  0  0  0  0  0
  137.9085   75.4583  222.6849 H   0  0  0  0  0  0  0  0  0  0  0  0
  138.6406   76.7965  223.6888 H   0  0  0  0  0  0  0  0  0  0  0  0
  136.0477   76.5823  222.6923 H   0  0  0  0  0  0  0  0  0  0  0  0
  136.9283   77.9997  223.5236 H   0  0  0  0  0  0  0  0  0  0  0  0
  135.9842   77.6514  220.8128 H   0  0  0  0  0  0  0  0  0  0  0  0
  136.2570   79.1175  221.9255 H   0  0  0  0  0  0  0  0  0  0  0  0
  137.8144   78.1069  219.7400 H   0  0  0  0  0  0  0  0  0  0  0  0
  137.8041   79.7039  220.6517 H   0  0  0  0  0  0  0  0  0  0  0  0
  139.9288   78.5666  220.6159 H   0  0  0  0  0  0  0  0  0  0  0  0
  139.6560   80.1363  222.1522 H   0  0  0  0  0  0  0  0  0  0  0  0
  138.8906   78.8590  223.2821 H   0  0  0  0  0  0  0  0  0  0  0  0
  140.6755   80.2441  224.6287 H   0  0  0  0  0  0  0  0  0  0  0  0
  142.3287   79.7612  224.3727 H   0  0  0  0  0  0  0  0  0  0  0  0
  140.4954   81.4241  222.5351 H   0  0  0  0  0  0  0  0  0  0  0  0
  142.1047   81.8599  223.0466 H   0  0  0  0  0  0  0  0  0  0  0  0
  141.3964   80.3264  220.7052 H   0  0  0  0  0  0  0  0  0  0  0  0
  143.0380   80.5185  221.2963 H   0  0  0  0  0  0  0  0  0  0  0  0
  141.7719   78.0699  221.2633 H   0  0  0  0  0  0  0  0  0  0  0  0
  142.9433   78.4253  222.5146 H   0  0  0  0  0  0  0  0  0  0  0  0
  138.9574   69.8515  222.1328 H   0  0  0  0  0  0  0  0  0  0  0  0
  139.1642   68.2243  224.0042 H   0  0  0  0  0  0  0  0  0  0  0  0
  139.8335   67.8360  226.2490 H   0  0  0  0  0  0  0  0  0  0  0  0
  141.4800   70.9668  228.6415 H   0  0  0  0  0  0  0  0  0  0  0  0
  141.2594   72.5449  226.7713 H   0  0  0  0  0  0  0  0  0  0  0  0
  1  2  2  0
  2  3  1  0
  3  4  1  0
  4  5  1  0
  5  6  2  0
  5  7  1  0
  7  8  1  0
  8  9  1  0
  9 10  1  0
 10 11  1  0
 11 12  1  0
 12 13  1  0
 13 14  1  0
 14 15  1  0
 15 16  1  0
 16 17  1  0
 17 18  1  0
  2 19  1  0
 19 20  2  0
 20 21  1  0
 21 22  2  0
 22 23  1  0
 23 24  2  0
 24 25  1  0
 24 26  1  0
 26 27  2  0
 27 28  1  0
 28 29  2  0
 12  7  1  0
 18 14  1  0
 29 19  1  0
 28 22  1  0
  3 30  1  0
  4 31  1  0
  4 32  1  0
  8 33  1  0
  8 34  1  0
  9 35  1  0
  9 36  1  0
 10 37  1  0
 10 38  1  0
 11 39  1  0
 11 40  1  0
 12 41  1  6
 13 42  1  0
 13 43  1  0
 15 44  1  0
 15 45  1  0
 16 46  1  0
 16 47  1  0
 17 48  1  0
 17 49  1  0
 18 50  1  0
 18 51  1  0
 20 52  1  0
 21 53  1  0
 23 54  1  0
 26 55  1  0
 27 56  1  0
M  END
>  <smiles>  (35) 
O=C(NCC(=O)N1CCCC[C@H]1CN1CCCC1)c1ccc2cc(Cl)ccc2n1

>  <score_type>  (35) 
oracle

>  <origin>  (35) 
autodockgpu

>  <m_score__min__energy>  (35) 
-8.25

>  <m_primary>  (35) 
energy

>  <rmsd>  (35) 
2.934385521063784

>  <m_score__min__rmsd>  (35) 
2.934385521063784

>  <meeko>  (35) 
{"free_energy": -7.6, "intermolecular_energy": -9.39, "internal_energy": -1.61, "cluster_size": 25, "cluster_id": 1, "rank_in_cluster": 14}

>  <energy>  (35) 
-6.41

>  <cluster_rmsd>  (35) 
0.12

>  <cluster>  (35) 
6

$$$$

     RDKit          3D

 56 59  0  0  0  0  0  0  0  0999 V2000
  139.8890   72.1700  220.8030 O   0  0  0  0  0  0  0  0  0  0  0  0
  139.8040   72.5940  221.9930 C   0  0  0  0  0  0  0  0  0  0  0  0
  139.5950   73.9990  222.1380 N   0  0  0  0  0  0  0  0  0  0  0  0
  139.5100   74.7610  220.8960 C   0  0  0  0  0  0  0  0  0  0  0  0
  138.3670   75.6970  220.8930 C   0  0  0  0  0  0  0  0  0  0  0  0
  137.2610   75.3910  220.3910 O   0  0  0  0  0  0  0  0  0  0  0  0
  138.5480   76.9680  221.4790 N   0  0  0  0  0  0  0  0  0  0  0  0
  137.9220   77.3730  222.7420 C   0  0  0  0  0  0  0  0  0  0  0  0
  137.3960   78.7740  222.7220 C   0  0  0  0  0  0  0  0  0  0  0  0
  137.4500   79.5200  221.4500 C   0  0  0  0  0  0  0  0  0  0  0  0
  138.4080   79.0490  220.4080 C   0  0  0  0  0  0  0  0  0  0  0  0
  139.3690   78.0250  220.8620 C   0  0  1  0  0  0  0  0  0  0  0  0
  140.4930   78.4230  221.7190 C   0  0  0  0  0  0  0  0  0  0  0  0
  140.4560   79.7070  222.3510 N   0  0  0  0  0  0  0  0  0  0  0  0
  141.7770   80.3720  222.2300 C   0  0  0  0  0  0  0  0  0  0  0  0
  142.6700   79.3990  222.9510 C   0  0  0  0  0  0  0  0  0  0  0  0
  141.8030   78.9910  224.1310 C   0  0  0  0  0  0  0  0  0  0  0  0
  140.4600   79.6280  223.8280 C   0  0  0  0  0  0  0  0  0  0  0  0
  139.9160   71.6880  223.1290 C   0  0  0  0  0  0  0  0  0  0  0  0
  139.4840   70.3900  222.9600 C   0  0  0  0  0  0  0  0  0  0  0  0
  139.5440   69.4420  223.9590 C   0  0  0  0  0  0  0  0  0  0  0  0
  140.0770   69.8710  225.1750 C   0  0  0  0  0  0  0  0  0  0  0  0
  140.1630   68.9630  226.2120 C   0  0  0  0  0  0  0  0  0  0  0  0
  140.6830   69.3110  227.4610 C   0  0  0  0  0  0  0  0  0  0  0  0
  140.7850   68.1430  228.7670 Cl  0  0  0  0  0  0  0  0  0  0  0  0
  141.1050   70.6170  227.5940 C   0  0  0  0  0  0  0  0  0  0  0  0
  141.0310   71.5450  226.5750 C   0  0  0  0  0  0  0  0  0  0  0  0
  140.5120   71.1710  225.3540 C   0  0  0  0  0  0  0  0  0  0  0  0
  140.4250   72.0630  224.3230 N   0  0  0  0  0  0  0  0  0  0  0  0
  139.5120   74.4210  223.0800 H   0  0  0  0  0  0  0  0  0  0  0  0
  140.4391   75.3360  220.7688 H   0  0  0  0  0  0  0  0  0  0  0  0
  139.3647   74.0477  220.0713 H   0  0  0  0  0  0  0  0  0  0  0  0
  137.0860   76.6896  222.9517 H   0  0  0  0  0  0  0  0  0  0  0  0
  138.6997   77.3291  223.5187 H   0  0  0  0  0  0  0  0  0  0  0  0
  136.3410   78.7309  223.0305 H   0  0  0  0  0  0  0  0  0  0  0  0
  138.0696   79.3281  223.3923 H   0  0  0  0  0  0  0  0  0  0  0  0
  136.4431   79.4887  221.0082 H   0  0  0  0  0  0  0  0  0  0  0  0
  137.8143   80.5194  221.7300 H   0  0  0  0  0  0  0  0  0  0  0  0
  137.8263   78.6260  219.5757 H   0  0  0  0  0  0  0  0  0  0  0  0
  139.0061   79.9264  220.1210 H   0  0  0  0  0  0  0  0  0  0  0  0
  139.9352   77.7083  219.9737 H   0  0  0  0  0  0  0  0  0  0  0  0
  140.5726   77.6712  222.5181 H   0  0  0  0  0  0  0  0  0  0  0  0
  141.3450   78.4912  221.0266 H   0  0  0  0  0  0  0  0  0  0  0  0
  142.0744   80.4862  221.1771 H   0  0  0  0  0  0  0  0  0  0  0  0
  141.8041   81.3930  222.6384 H   0  0  0  0  0  0  0  0  0  0  0  0
  142.9142   78.5344  222.3163 H   0  0  0  0  0  0  0  0  0  0  0  0
  143.6439   79.8206  223.2404 H   0  0  0  0  0  0  0  0  0  0  0  0
  141.7131   77.8964  224.1917 H   0  0  0  0  0  0  0  0  0  0  0  0
  142.2191   79.3129  225.0970 H   0  0  0  0  0  0  0  0  0  0  0  0
  139.6334   79.0006  224.1928 H   0  0  0  0  0  0  0  0  0  0  0  0
  140.3233   80.6047  224.3151 H   0  0  0  0  0  0  0  0  0  0  0  0
  139.0724   70.0971  221.9829 H   0  0  0  0  0  0  0  0  0  0  0  0
  139.1932   68.4106  223.8068 H   0  0  0  0  0  0  0  0  0  0  0  0
  139.8110   67.9336  226.0494 H   0  0  0  0  0  0  0  0  0  0  0  0
  141.5216   70.9353  228.5610 H   0  0  0  0  0  0  0  0  0  0  0  0
  141.3833   72.5746  226.7359 H   0  0  0  0  0  0  0  0  0  0  0  0
  1  2  2  0
  2  3  1  0
  3  4  1  0
  4  5  1  0
  5  6  2  0
  5  7  1  0
  7  8  1  0
  8  9  1  0
  9 10  1  0
 10 11  1  0
 11 12  1  0
 12 13  1  0
 13 14  1  0
 14 15  1  0
 15 16  1  0
 16 17  1  0
 17 18  1  0
  2 19  1  0
 19 20  2  0
 20 21  1  0
 21 22  2  0
 22 23  1  0
 23 24  2  0
 24 25  1  0
 24 26  1  0
 26 27  2  0
 27 28  1  0
 28 29  2  0
 12  7  1  0
 18 14  1  0
 29 19  1  0
 28 22  1  0
  3 30  1  0
  4 31  1  0
  4 32  1  0
  8 33  1  0
  8 34  1  0
  9 35  1  0
  9 36  1  0
 10 37  1  0
 10 38  1  0
 11 39  1  0
 11 40  1  0
 12 41  1  6
 13 42  1  0
 13 43  1  0
 15 44  1  0
 15 45  1  0
 16 46  1  0
 16 47  1  0
 17 48  1  0
 17 49  1  0
 18 50  1  0
 18 51  1  0
 20 52  1  0
 21 53  1  0
 23 54  1  0
 26 55  1  0
 27 56  1  0
M  END
>  <smiles>  (36) 
O=C(NCC(=O)N1CCCC[C@H]1CN1CCCC1)c1ccc2cc(Cl)ccc2n1

>  <score_type>  (36) 
oracle

>  <origin>  (36) 
autodockgpu

>  <m_score__min__energy>  (36) 
-8.25

>  <m_primary>  (36) 
energy

>  <rmsd>  (36) 
3.2928236702189824

>  <m_score__min__rmsd>  (36) 
3.2928236702189824

>  <meeko>  (36) 
{"free_energy": -7.46, "intermolecular_energy": -9.25, "internal_energy": -1.53, "cluster_size": 25, "cluster_id": 1, "rank_in_cluster": 20}

>  <energy>  (36) 
-6.37

>  <cluster_rmsd>  (36) 
0.19

>  <cluster>  (36) 
6

$$$$

     RDKit          3D

 56 59  0  0  0  0  0  0  0  0999 V2000
  140.4190   72.3760  220.7620 O   0  0  0  0  0  0  0  0  0  0  0  0
  139.9500   72.7090  221.8900 C   0  0  0  0  0  0  0  0  0  0  0  0
  139.3530   74.0040  221.9560 N   0  0  0  0  0  0  0  0  0  0  0  0
  139.3650   74.7750  220.7160 C   0  0  0  0  0  0  0  0  0  0  0  0
  140.1260   76.0340  220.8490 C   0  0  0  0  0  0  0  0  0  0  0  0
  139.6540   77.0340  221.4360 O   0  0  0  0  0  0  0  0  0  0  0  0
  141.4210   76.0900  220.2920 N   0  0  0  0  0  0  0  0  0  0  0  0
  142.2010   77.3260  220.1790 C   0  0  0  0  0  0  0  0  0  0  0  0
  142.9270   77.4540  218.8770 C   0  0  0  0  0  0  0  0  0  0  0  0
  142.6910   76.4270  217.8440 C   0  0  0  0  0  0  0  0  0  0  0  0
  142.1370   75.1140  218.2830 C   0  0  0  0  0  0  0  0  0  0  0  0
  142.1090   74.9060  219.7440 C   0  0  1  0  0  0  0  0  0  0  0  0
  143.3620   74.6170  220.4530 C   0  0  0  0  0  0  0  0  0  0  0  0
  144.5130   74.2380  219.6920 N   0  0  0  0  0  0  0  0  0  0  0  0
  144.4470   72.7950  219.3540 C   0  0  0  0  0  0  0  0  0  0  0  0
  144.4260   72.1680  220.7220 C   0  0  0  0  0  0  0  0  0  0  0  0
  145.4290   73.0250  221.4760 C   0  0  0  0  0  0  0  0  0  0  0  0
  145.7440   74.1470  220.5060 C   0  0  0  0  0  0  0  0  0  0  0  0
  140.0260   71.8120  223.0360 C   0  0  0  0  0  0  0  0  0  0  0  0
  139.5750   70.5200  222.8700 C   0  0  0  0  0  0  0  0  0  0  0  0
  139.6000   69.5800  223.8780 C   0  0  0  0  0  0  0  0  0  0  0  0
  140.1180   70.0110  225.1000 C   0  0  0  0  0  0  0  0  0  0  0  0
  140.1690   69.1110  226.1460 C   0  0  0  0  0  0  0  0  0  0  0  0
  140.6730   69.4610  227.4010 C   0  0  0  0  0  0  0  0  0  0  0  0
  140.7310   68.3030  228.7190 Cl  0  0  0  0  0  0  0  0  0  0  0  0
  141.1150   70.7610  227.5310 C   0  0  0  0  0  0  0  0  0  0  0  0
  141.0760   71.6810  226.5030 C   0  0  0  0  0  0  0  0  0  0  0  0
  140.5730   71.3040  225.2760 C   0  0  0  0  0  0  0  0  0  0  0  0
  140.5190   72.1890  224.2350 N   0  0  0  0  0  0  0  0  0  0  0  0
  138.9450   74.3470  222.8440 H   0  0  0  0  0  0  0  0  0  0  0  0
  139.8246   74.1652  219.9242 H   0  0  0  0  0  0  0  0  0  0  0  0
  138.3247   75.0337  220.4692 H   0  0  0  0  0  0  0  0  0  0  0  0
  141.5164   78.1809  220.2819 H   0  0  0  0  0  0  0  0  0  0  0  0
  142.9612   77.3038  220.9737 H   0  0  0  0  0  0  0  0  0  0  0  0
  142.6477   78.4248  218.4417 H   0  0  0  0  0  0  0  0  0  0  0  0
  143.9877   77.3348  219.1431 H   0  0  0  0  0  0  0  0  0  0  0  0
  141.9873   76.8522  217.1133 H   0  0  0  0  0  0  0  0  0  0  0  0
  143.6924   76.1893  217.4557 H   0  0  0  0  0  0  0  0  0  0  0  0
  141.1061   75.0358  217.9074 H   0  0  0  0  0  0  0  0  0  0  0  0
  142.8097   74.3448  217.8758 H   0  0  0  0  0  0  0  0  0  0  0  0
  141.5903   73.9515  219.9171 H   0  0  0  0  0  0  0  0  0  0  0  0
  143.6309   75.5226  221.0166 H   0  0  0  0  0  0  0  0  0  0  0  0
  143.1302   73.7217  221.0485 H   0  0  0  0  0  0  0  0  0  0  0  0
  143.5344   72.5560  218.7882 H   0  0  0  0  0  0  0  0  0  0  0  0
  145.2700   72.4461  218.7129 H   0  0  0  0  0  0  0  0  0  0  0  0
  143.4257   72.2307  221.1754 H   0  0  0  0  0  0  0  0  0  0  0  0
  144.6693   71.0952  220.7227 H   0  0  0  0  0  0  0  0  0  0  0  0
  144.9885   73.4202  222.4033 H   0  0  0  0  0  0  0  0  0  0  0  0
  146.3236   72.4635  221.7833 H   0  0  0  0  0  0  0  0  0  0  0  0
  145.9354   75.0894  221.0401 H   0  0  0  0  0  0  0  0  0  0  0  0
  146.6474   73.9611  219.9066 H   0  0  0  0  0  0  0  0  0  0  0  0
  139.1768   70.2255  221.8878 H   0  0  0  0  0  0  0  0  0  0  0  0
  139.2342   68.5535  223.7283 H   0  0  0  0  0  0  0  0  0  0  0  0
  139.8014   68.0867  225.9861 H   0  0  0  0  0  0  0  0  0  0  0  0
  141.5189   71.0806  228.5030 H   0  0  0  0  0  0  0  0  0  0  0  0
  141.4430   72.7058  226.6612 H   0  0  0  0  0  0  0  0  0  0  0  0
  1  2  2  0
  2  3  1  0
  3  4  1  0
  4  5  1  0
  5  6  2  0
  5  7  1  0
  7  8  1  0
  8  9  1  0
  9 10  1  0
 10 11  1  0
 11 12  1  0
 12 13  1  0
 13 14  1  0
 14 15  1  0
 15 16  1  0
 16 17  1  0
 17 18  1  0
  2 19  1  0
 19 20  2  0
 20 21  1  0
 21 22  2  0
 22 23  1  0
 23 24  2  0
 24 25  1  0
 24 26  1  0
 26 27  2  0
 27 28  1  0
 28 29  2  0
 12  7  1  0
 18 14  1  0
 29 19  1  0
 28 22  1  0
  3 30  1  0
  4 31  1  0
  4 32  1  0
  8 33  1  0
  8 34  1  0
  9 35  1  0
  9 36  1  0
 10 37  1  0
 10 38  1  0
 11 39  1  0
 11 40  1  0
 12 41  1  6
 13 42  1  0
 13 43  1  0
 15 44  1  0
 15 45  1  0
 16 46  1  0
 16 47  1  0
 17 48  1  0
 17 49  1  0
 18 50  1  0
 18 51  1  0
 20 52  1  0
 21 53  1  0
 23 54  1  0
 26 55  1  0
 27 56  1  0
M  END
>  <smiles>  (37) 
O=C(NCC(=O)N1CCCC[C@H]1CN1CCCC1)c1ccc2cc(Cl)ccc2n1

>  <score_type>  (37) 
oracle

>  <origin>  (37) 
autodockgpu

>  <m_score__min__energy>  (37) 
-8.25

>  <m_primary>  (37) 
energy

>  <rmsd>  (37) 
4.2296832583636235

>  <m_score__min__rmsd>  (37) 
4.2296832583636235

>  <meeko>  (37) 
{"free_energy": -7.63, "intermolecular_energy": -9.42, "internal_energy": -1.89, "cluster_size": 3, "cluster_id": 4, "rank_in_cluster": 1}

>  <energy>  (37) 
-6.33

>  <cluster_rmsd>  (37) 
0.72

>  <cluster>  (37) 
6

$$$$

     RDKit          3D

 56 59  0  0  0  0  0  0  0  0999 V2000
  140.8420   73.4910  221.9880 O   0  0  0  0  0  0  0  0  0  0  0  0
  139.8420   72.8140  222.3690 C   0  0  0  0  0  0  0  0  0  0  0  0
  138.6300   73.0370  221.6490 N   0  0  0  0  0  0  0  0  0  0  0  0
  138.7020   74.0180  220.5710 C   0  0  0  0  0  0  0  0  0  0  0  0
  138.2830   75.3650  221.0120 C   0  0  0  0  0  0  0  0  0  0  0  0
  137.1430   75.5820  221.4840 O   0  0  0  0  0  0  0  0  0  0  0  0
  139.2080   76.4220  220.8910 N   0  0  0  0  0  0  0  0  0  0  0  0
  139.0800   77.5010  219.9060 C   0  0  0  0  0  0  0  0  0  0  0  0
  140.3770   77.8740  219.2600 C   0  0  0  0  0  0  0  0  0  0  0  0
  141.5710   77.0670  219.5790 C   0  0  0  0  0  0  0  0  0  0  0  0
  141.5460   76.2530  220.8280 C   0  0  0  0  0  0  0  0  0  0  0  0
  140.4140   76.5320  221.7330 C   0  0  1  0  0  0  0  0  0  0  0  0
  140.4190   77.7640  222.5320 C   0  0  0  0  0  0  0  0  0  0  0  0
  141.6750   78.3110  222.9450 N   0  0  0  0  0  0  0  0  0  0  0  0
  141.4840   79.1980  224.1180 C   0  0  0  0  0  0  0  0  0  0  0  0
  140.5550   80.2410  223.5570 C   0  0  0  0  0  0  0  0  0  0  0  0
  141.1230   80.4510  222.1640 C   0  0  0  0  0  0  0  0  0  0  0  0
  142.1760   79.3660  222.0370 C   0  0  0  0  0  0  0  0  0  0  0  0
  139.9440   71.8710  223.4760 C   0  0  0  0  0  0  0  0  0  0  0  0
  139.5080   70.5810  223.2620 C   0  0  0  0  0  0  0  0  0  0  0  0
  139.5580   69.6010  224.2300 C   0  0  0  0  0  0  0  0  0  0  0  0
  140.0850   69.9890  225.4630 C   0  0  0  0  0  0  0  0  0  0  0  0
  140.1610   69.0470  226.4700 C   0  0  0  0  0  0  0  0  0  0  0  0
  140.6750   69.3520  227.7320 C   0  0  0  0  0  0  0  0  0  0  0  0
  140.7650   68.1410  229.0000 Cl  0  0  0  0  0  0  0  0  0  0  0  0
  141.1010   70.6510  227.9110 C   0  0  0  0  0  0  0  0  0  0  0  0
  141.0380   71.6120  226.9220 C   0  0  0  0  0  0  0  0  0  0  0  0
  140.5250   71.2790  225.6870 C   0  0  0  0  0  0  0  0  0  0  0  0
  140.4470   72.2050  224.6840 N   0  0  0  0  0  0  0  0  0  0  0  0
  137.7690   72.5190  221.9000 H   0  0  0  0  0  0  0  0  0  0  0  0
  139.7393   74.0707  220.2089 H   0  0  0  0  0  0  0  0  0  0  0  0
  138.0154   73.6950  219.7746 H   0  0  0  0  0  0  0  0  0  0  0  0
  138.3808   77.1757  219.1216 H   0  0  0  0  0  0  0  0  0  0  0  0
  138.7181   78.3898  220.4437 H   0  0  0  0  0  0  0  0  0  0  0  0
  140.2272   77.8192  218.1716 H   0  0  0  0  0  0  0  0  0  0  0  0
  140.6059   78.8716  219.6629 H   0  0  0  0  0  0  0  0  0  0  0  0
  141.7333   76.3750  218.7395 H   0  0  0  0  0  0  0  0  0  0  0  0
  142.3686   77.8059  219.7456 H   0  0  0  0  0  0  0  0  0  0  0  0
  141.5008   75.1917  220.5425 H   0  0  0  0  0  0  0  0  0  0  0  0
  142.4568   76.5176  221.3851 H   0  0  0  0  0  0  0  0  0  0  0  0
  140.4743   75.7976  222.5497 H   0  0  0  0  0  0  0  0  0  0  0  0
  139.9091   78.5369  221.9382 H   0  0  0  0  0  0  0  0  0  0  0  0
  139.9322   77.4726  223.4744 H   0  0  0  0  0  0  0  0  0  0  0  0
  141.0224   78.6590  224.9585 H   0  0  0  0  0  0  0  0  0  0  0  0
  142.4193   79.6051  224.5296 H   0  0  0  0  0  0  0  0  0  0  0  0
  139.5192   79.8731  223.5153 H   0  0  0  0  0  0  0  0  0  0  0  0
  140.5038   81.1602  224.1590 H   0  0  0  0  0  0  0  0  0  0  0  0
  140.3414   80.3303  221.3995 H   0  0  0  0  0  0  0  0  0  0  0  0
  141.5327   81.4615  222.0188 H   0  0  0  0  0  0  0  0  0  0  0  0
  142.2428   78.9986  221.0023 H   0  0  0  0  0  0  0  0  0  0  0  0
  143.1889   79.7121  222.2904 H   0  0  0  0  0  0  0  0  0  0  0  0
  139.1015   70.3217  222.2733 H   0  0  0  0  0  0  0  0  0  0  0  0
  139.2044   68.5764  224.0424 H   0  0  0  0  0  0  0  0  0  0  0  0
  139.8057   68.0250  226.2719 H   0  0  0  0  0  0  0  0  0  0  0  0
  141.5116   70.9359  228.8909 H   0  0  0  0  0  0  0  0  0  0  0  0
  141.3940   72.6342  227.1179 H   0  0  0  0  0  0  0  0  0  0  0  0
  1  2  2  0
  2  3  1  0
  3  4  1  0
  4  5  1  0
  5  6  2  0
  5  7  1  0
  7  8  1  0
  8  9  1  0
  9 10  1  0
 10 11  1  0
 11 12  1  0
 12 13  1  0
 13 14  1  0
 14 15  1  0
 15 16  1  0
 16 17  1  0
 17 18  1  0
  2 19  1  0
 19 20  2  0
 20 21  1  0
 21 22  2  0
 22 23  1  0
 23 24  2  0
 24 25  1  0
 24 26  1  0
 26 27  2  0
 27 28  1  0
 28 29  2  0
 12  7  1  0
 18 14  1  0
 29 19  1  0
 28 22  1  0
  3 30  1  0
  4 31  1  0
  4 32  1  0
  8 33  1  0
  8 34  1  0
  9 35  1  0
  9 36  1  0
 10 37  1  0
 10 38  1  0
 11 39  1  0
 11 40  1  0
 12 41  1  1
 13 42  1  0
 13 43  1  0
 15 44  1  0
 15 45  1  0
 16 46  1  0
 16 47  1  0
 17 48  1  0
 17 49  1  0
 18 50  1  0
 18 51  1  0
 20 52  1  0
 21 53  1  0
 23 54  1  0
 26 55  1  0
 27 56  1  0
M  END
>  <smiles>  (38) 
O=C(NCC(=O)N1CCCC[C@H]1CN1CCCC1)c1ccc2cc(Cl)ccc2n1

>  <score_type>  (38) 
oracle

>  <origin>  (38) 
autodockgpu

>  <m_score__min__energy>  (38) 
-8.25

>  <m_primary>  (38) 
energy

>  <rmsd>  (38) 
2.1940288059605235

>  <m_score__min__rmsd>  (38) 
2.1940288059605235

>  <meeko>  (38) 
{"free_energy": -7.52, "intermolecular_energy": -9.31, "internal_energy": -1.71, "cluster_size": 25, "cluster_id": 1, "rank_in_cluster": 16}

>  <energy>  (38) 
-6.31

>  <cluster_rmsd>  (38) 
0.31

>  <cluster>  (38) 
6

$$$$

     RDKit          3D

 56 59  0  0  0  0  0  0  0  0999 V2000
  139.2970   72.9960  220.6740 O   0  0  0  0  0  0  0  0  0  0  0  0
  140.3020   72.7590  221.4070 C   0  0  0  0  0  0  0  0  0  0  0  0
  141.5280   73.3630  220.9950 N   0  0  0  0  0  0  0  0  0  0  0  0
  141.4620   74.1730  219.7820 C   0  0  0  0  0  0  0  0  0  0  0  0
  142.0390   75.5180  219.9780 C   0  0  0  0  0  0  0  0  0  0  0  0
  143.0940   75.8760  219.4050 O   0  0  0  0  0  0  0  0  0  0  0  0
  141.3670   76.4120  220.8370 N   0  0  0  0  0  0  0  0  0  0  0  0
  140.7710   76.0120  222.1160 C   0  0  0  0  0  0  0  0  0  0  0  0
  139.4340   76.6340  222.3700 C   0  0  0  0  0  0  0  0  0  0  0  0
  138.8290   77.4480  221.2970 C   0  0  0  0  0  0  0  0  0  0  0  0
  139.7330   77.9850  220.2400 C   0  0  0  0  0  0  0  0  0  0  0  0
  141.1750   77.8390  220.5180 C   0  0  1  0  0  0  0  0  0  0  0  0
  141.8090   78.7170  221.5100 C   0  0  0  0  0  0  0  0  0  0  0  0
  141.0390   79.7790  222.0810 N   0  0  0  0  0  0  0  0  0  0  0  0
  141.9190   80.9270  222.4100 C   0  0  0  0  0  0  0  0  0  0  0  0
  142.8670   80.3040  223.3990 C   0  0  0  0  0  0  0  0  0  0  0  0
  141.9360   79.4260  224.2180 C   0  0  0  0  0  0  0  0  0  0  0  0
  140.6170   79.5070  223.4730 C   0  0  0  0  0  0  0  0  0  0  0  0
  140.1930   71.9170  222.5920 C   0  0  0  0  0  0  0  0  0  0  0  0
  139.5300   70.7150  222.4660 C   0  0  0  0  0  0  0  0  0  0  0  0
  139.3670   69.8330  223.5140 C   0  0  0  0  0  0  0  0  0  0  0  0
  139.9200   70.2270  224.7330 C   0  0  0  0  0  0  0  0  0  0  0  0
  139.7890   69.3820  225.8170 C   0  0  0  0  0  0  0  0  0  0  0  0
  140.3130   69.7000  227.0720 C   0  0  0  0  0  0  0  0  0  0  0  0
  140.1370   68.6130  228.4390 Cl  0  0  0  0  0  0  0  0  0  0  0  0
  140.9690   70.9100  227.1610 C   0  0  0  0  0  0  0  0  0  0  0  0
  141.1150   71.7730  226.0940 C   0  0  0  0  0  0  0  0  0  0  0  0
  140.5860   71.4300  224.8690 C   0  0  0  0  0  0  0  0  0  0  0  0
  140.7130   72.2600  223.7900 N   0  0  0  0  0  0  0  0  0  0  0  0
  142.3930   73.2180  221.5440 H   0  0  0  0  0  0  0  0  0  0  0  0
  142.0192   73.6613  218.9835 H   0  0  0  0  0  0  0  0  0  0  0  0
  140.4020   74.2957  219.5148 H   0  0  0  0  0  0  0  0  0  0  0  0
  140.6527   74.9184  222.1185 H   0  0  0  0  0  0  0  0  0  0  0  0
  141.4467   76.3594  222.9114 H   0  0  0  0  0  0  0  0  0  0  0  0
  138.7320   75.8178  222.5957 H   0  0  0  0  0  0  0  0  0  0  0  0
  139.6162   77.3493  223.1855 H   0  0  0  0  0  0  0  0  0  0  0  0
  138.0739   76.8235  220.7971 H   0  0  0  0  0  0  0  0  0  0  0  0
  138.4413   78.3403  221.8104 H   0  0  0  0  0  0  0  0  0  0  0  0
  139.5115   77.4565  219.3010 H   0  0  0  0  0  0  0  0  0  0  0  0
  139.5380   79.0664  220.1897 H   0  0  0  0  0  0  0  0  0  0  0  0
  141.7058   78.1852  219.6189 H   0  0  0  0  0  0  0  0  0  0  0  0
  142.1444   78.0780  222.3402 H   0  0  0  0  0  0  0  0  0  0  0  0
  142.5971   79.2342  220.9431 H   0  0  0  0  0  0  0  0  0  0  0  0
  142.4508   81.2938  221.5197 H   0  0  0  0  0  0  0  0  0  0  0  0
  141.3832   81.8071  222.7952 H   0  0  0  0  0  0  0  0  0  0  0  0
  143.6376   79.7052  222.8915 H   0  0  0  0  0  0  0  0  0  0  0  0
  143.4276   81.0365  223.9983 H   0  0  0  0  0  0  0  0  0  0  0  0
  142.3038   78.3899  224.2529 H   0  0  0  0  0  0  0  0  0  0  0  0
  141.8546   79.7519  225.2655 H   0  0  0  0  0  0  0  0  0  0  0  0
  140.0653   78.5578  223.5409 H   0  0  0  0  0  0  0  0  0  0  0  0
  139.9362   80.2706  223.8773 H   0  0  0  0  0  0  0  0  0  0  0  0
  139.1117   70.4468  221.4846 H   0  0  0  0  0  0  0  0  0  0  0  0
  138.8340   68.8780  223.3960 H   0  0  0  0  0  0  0  0  0  0  0  0
  139.2554   68.4288  225.6882 H   0  0  0  0  0  0  0  0  0  0  0  0
  141.3973   71.2018  228.1312 H   0  0  0  0  0  0  0  0  0  0  0  0
  141.6490   72.7263  226.2205 H   0  0  0  0  0  0  0  0  0  0  0  0
  1  2  2  0
  2  3  1  0
  3  4  1  0
  4  5  1  0
  5  6  2  0
  5  7  1  0
  7  8  1  0
  8  9  1  0
  9 10  1  0
 10 11  1  0
 11 12  1  0
 12 13  1  0
 13 14  1  0
 14 15  1  0
 15 16  1  0
 16 17  1  0
 17 18  1  0
  2 19  1  0
 19 20  2  0
 20 21  1  0
 21 22  2  0
 22 23  1  0
 23 24  2  0
 24 25  1  0
 24 26  1  0
 26 27  2  0
 27 28  1  0
 28 29  2  0
 12  7  1  0
 18 14  1  0
 29 19  1  0
 28 22  1  0
  3 30  1  0
  4 31  1  0
  4 32  1  0
  8 33  1  0
  8 34  1  0
  9 35  1  0
  9 36  1  0
 10 37  1  0
 10 38  1  0
 11 39  1  0
 11 40  1  0
 12 41  1  6
 13 42  1  0
 13 43  1  0
 15 44  1  0
 15 45  1  0
 16 46  1  0
 16 47  1  0
 17 48  1  0
 17 49  1  0
 18 50  1  0
 18 51  1  0
 20 52  1  0
 21 53  1  0
 23 54  1  0
 26 55  1  0
 27 56  1  0
M  END
>  <smiles>  (39) 
O=C(NCC(=O)N1CCCC[C@H]1CN1CCCC1)c1ccc2cc(Cl)ccc2n1

>  <score_type>  (39) 
oracle

>  <origin>  (39) 
autodockgpu

>  <m_score__min__energy>  (39) 
-8.25

>  <m_primary>  (39) 
energy

>  <rmsd>  (39) 
3.1122383730502956

>  <m_score__min__rmsd>  (39) 
3.1122383730502956

>  <meeko>  (39) 
{"free_energy": -7.49, "intermolecular_energy": -9.28, "internal_energy": -1.75, "cluster_size": 25, "cluster_id": 1, "rank_in_cluster": 19}

>  <energy>  (39) 
-6.3

>  <cluster_rmsd>  (39) 
0.75

>  <cluster>  (39) 
6

$$$$

     RDKit          3D

 56 59  0  0  0  0  0  0  0  0999 V2000
  141.3190   73.3440  220.7620 O   0  0  0  0  0  0  0  0  0  0  0  0
  140.6470   74.1310  221.4920 C   0  0  0  0  0  0  0  0  0  0  0  0
  139.6580   73.5190  222.3190 N   0  0  0  0  0  0  0  0  0  0  0  0
  139.5510   72.0670  222.2130 C   0  0  0  0  0  0  0  0  0  0  0  0
  139.8180   71.3920  223.5000 C   0  0  0  0  0  0  0  0  0  0  0  0
  140.6170   71.8640  224.3420 O   0  0  0  0  0  0  0  0  0  0  0  0
  139.1440   70.1830  223.7690 N   0  0  0  0  0  0  0  0  0  0  0  0
  139.1960   69.0130  222.8870 C   0  0  0  0  0  0  0  0  0  0  0  0
  137.8750   68.3300  222.7250 C   0  0  0  0  0  0  0  0  0  0  0  0
  136.6890   68.9530  223.3430 C   0  0  0  0  0  0  0  0  0  0  0  0
  136.9130   69.9310  224.4470 C   0  0  0  0  0  0  0  0  0  0  0  0
  138.2960   69.9870  224.9600 C   0  0  1  0  0  0  0  0  0  0  0  0
  138.7900   68.9010  225.8170 C   0  0  0  0  0  0  0  0  0  0  0  0
  139.3150   69.2280  227.1070 N   0  0  0  0  0  0  0  0  0  0  0  0
  140.4120   70.2180  226.9750 C   0  0  0  0  0  0  0  0  0  0  0  0
  141.3970   69.4630  226.1240 C   0  0  0  0  0  0  0  0  0  0  0  0
  141.3110   68.0640  226.7090 C   0  0  0  0  0  0  0  0  0  0  0  0
  140.1520   68.1520  227.6830 C   0  0  0  0  0  0  0  0  0  0  0  0
  140.8840   75.5690  221.4720 C   0  0  0  0  0  0  0  0  0  0  0  0
  141.7100   76.0700  220.4890 C   0  0  0  0  0  0  0  0  0  0  0  0
  142.0040   77.4120  220.3660 C   0  0  0  0  0  0  0  0  0  0  0  0
  141.4090   78.2540  221.3060 C   0  0  0  0  0  0  0  0  0  0  0  0
  141.6670   79.6090  221.2290 C   0  0  0  0  0  0  0  0  0  0  0  0
  141.1130   80.5210  222.1300 C   0  0  0  0  0  0  0  0  0  0  0  0
  141.4520   82.2390  222.0180 Cl  0  0  0  0  0  0  0  0  0  0  0  0
  140.2920   79.9850  223.1000 C   0  0  0  0  0  0  0  0  0  0  0  0
  140.0160   78.6360  223.1990 C   0  0  0  0  0  0  0  0  0  0  0  0
  140.5800   77.7620  222.2950 C   0  0  0  0  0  0  0  0  0  0  0  0
  140.3290   76.4200  222.3630 N   0  0  0  0  0  0  0  0  0  0  0  0
  139.0700   74.0960  222.9460 H   0  0  0  0  0  0  0  0  0  0  0  0
  138.5338   71.8100  221.8826 H   0  0  0  0  0  0  0  0  0  0  0  0
  140.3055   71.7248  221.4894 H   0  0  0  0  0  0  0  0  0  0  0  0
  139.5434   69.3393  221.8956 H   0  0  0  0  0  0  0  0  0  0  0  0
  139.8810   68.2879  223.3507 H   0  0  0  0  0  0  0  0  0  0  0  0
  137.6778   68.2524  221.6456 H   0  0  0  0  0  0  0  0  0  0  0  0
  137.9930   67.3765  223.2607 H   0  0  0  0  0  0  0  0  0  0  0  0
  136.1411   69.4774  222.5462 H   0  0  0  0  0  0  0  0  0  0  0  0
  136.1527   68.1178  223.8172 H   0  0  0  0  0  0  0  0  0  0  0  0
  136.6459   70.9315  224.0759 H   0  0  0  0  0  0  0  0  0  0  0  0
  136.2870   69.5951  225.2869 H   0  0  0  0  0  0  0  0  0  0  0  0
  138.3289   70.8096  225.6896 H   0  0  0  0  0  0  0  0  0  0  0  0
  137.9516   68.2067  225.9752 H   0  0  0  0  0  0  0  0  0  0  0  0
  139.6566   68.5021  225.2694 H   0  0  0  0  0  0  0  0  0  0  0  0
  140.0678   71.1347  226.4738 H   0  0  0  0  0  0  0  0  0  0  0  0
  140.8218   70.5639  227.9354 H   0  0  0  0  0  0  0  0  0  0  0  0
  141.1001   69.4725  225.0649 H   0  0  0  0  0  0  0  0  0  0  0  0
  142.4116   69.8878  226.1365 H   0  0  0  0  0  0  0  0  0  0  0  0
  141.1072   67.3220  225.9229 H   0  0  0  0  0  0  0  0  0  0  0  0
  142.2477   67.7444  227.1890 H   0  0  0  0  0  0  0  0  0  0  0  0
  139.5995   67.2019  227.7271 H   0  0  0  0  0  0  0  0  0  0  0  0
  140.4686   68.3550  228.7167 H   0  0  0  0  0  0  0  0  0  0  0  0
  142.1553   75.3672  219.7694 H   0  0  0  0  0  0  0  0  0  0  0  0
  142.6666   77.7947  219.5757 H   0  0  0  0  0  0  0  0  0  0  0  0
  142.3293   79.9811  220.4334 H   0  0  0  0  0  0  0  0  0  0  0  0
  139.8340   80.6668  223.8317 H   0  0  0  0  0  0  0  0  0  0  0  0
  139.3519   78.2621  223.9922 H   0  0  0  0  0  0  0  0  0  0  0  0
  1  2  2  0
  2  3  1  0
  3  4  1  0
  4  5  1  0
  5  6  2  0
  5  7  1  0
  7  8  1  0
  8  9  1  0
  9 10  1  0
 10 11  1  0
 11 12  1  0
 12 13  1  0
 13 14  1  0
 14 15  1  0
 15 16  1  0
 16 17  1  0
 17 18  1  0
  2 19  1  0
 19 20  2  0
 20 21  1  0
 21 22  2  0
 22 23  1  0
 23 24  2  0
 24 25  1  0
 24 26  1  0
 26 27  2  0
 27 28  1  0
 28 29  2  0
 12  7  1  0
 18 14  1  0
 29 19  1  0
 28 22  1  0
  3 30  1  0
  4 31  1  0
  4 32  1  0
  8 33  1  0
  8 34  1  0
  9 35  1  0
  9 36  1  0
 10 37  1  0
 10 38  1  0
 11 39  1  0
 11 40  1  0
 12 41  1  1
 13 42  1  0
 13 43  1  0
 15 44  1  0
 15 45  1  0
 16 46  1  0
 16 47  1  0
 17 48  1  0
 17 49  1  0
 18 50  1  0
 18 51  1  0
 20 52  1  0
 21 53  1  0
 23 54  1  0
 26 55  1  0
 27 56  1  0
M  END
>  <smiles>  (40) 
O=C(NCC(=O)N1CCCC[C@H]1CN1CCCC1)c1ccc2cc(Cl)ccc2n1

>  <score_type>  (40) 
oracle

>  <origin>  (40) 
autodockgpu

>  <m_score__min__energy>  (40) 
-8.25

>  <m_primary>  (40) 
energy

>  <rmsd>  (40) 
9.50488801861955

>  <m_score__min__rmsd>  (40) 
9.50488801861955

>  <meeko>  (40) 
{"free_energy": -7.84, "intermolecular_energy": -9.63, "internal_energy": -1.69, "cluster_size": 3, "cluster_id": 2, "rank_in_cluster": 1}

>  <energy>  (40) 
-6.3

>  <cluster_rmsd>  (40) 
0.76

>  <cluster>  (40) 
6

$$$$

     RDKit          3D

 56 59  0  0  0  0  0  0  0  0999 V2000
  138.8530   72.5350  221.0780 O   0  0  0  0  0  0  0  0  0  0  0  0
  139.6690   72.7500  222.0210 C   0  0  0  0  0  0  0  0  0  0  0  0
  140.4370   73.9490  221.9170 N   0  0  0  0  0  0  0  0  0  0  0  0
  140.1800   74.7680  220.7360 C   0  0  0  0  0  0  0  0  0  0  0  0
  139.6760   76.1110  221.0870 C   0  0  0  0  0  0  0  0  0  0  0  0
  138.6980   76.2720  221.8530 O   0  0  0  0  0  0  0  0  0  0  0  0
  140.3310   77.2320  220.5350 N   0  0  0  0  0  0  0  0  0  0  0  0
  139.7050   78.1390  219.5670 C   0  0  0  0  0  0  0  0  0  0  0  0
  140.6220   78.5500  218.4590 C   0  0  0  0  0  0  0  0  0  0  0  0
  141.9590   77.9270  218.3930 C   0  0  0  0  0  0  0  0  0  0  0  0
  142.4960   77.3020  219.6360 C   0  0  0  0  0  0  0  0  0  0  0  0
  141.7240   77.5880  220.8610 C   0  0  1  0  0  0  0  0  0  0  0  0
  141.8250   78.9150  221.4820 C   0  0  0  0  0  0  0  0  0  0  0  0
  142.4170   79.0240  222.7800 N   0  0  0  0  0  0  0  0  0  0  0  0
  141.3630   79.0000  223.8240 C   0  0  0  0  0  0  0  0  0  0  0  0
  140.5480   80.2100  223.4570 C   0  0  0  0  0  0  0  0  0  0  0  0
  141.6250   81.2110  223.0760 C   0  0  0  0  0  0  0  0  0  0  0  0
  142.9000   80.3890  223.0850 C   0  0  0  0  0  0  0  0  0  0  0  0
  139.8040   71.8180  223.1330 C   0  0  0  0  0  0  0  0  0  0  0  0
  139.3810   70.5210  222.9380 C   0  0  0  0  0  0  0  0  0  0  0  0
  139.4610   69.5490  223.9130 C   0  0  0  0  0  0  0  0  0  0  0  0
  140.0050   69.9530  225.1330 C   0  0  0  0  0  0  0  0  0  0  0  0
  140.1120   69.0210  226.1460 C   0  0  0  0  0  0  0  0  0  0  0  0
  140.6450   69.3430  227.3960 C   0  0  0  0  0  0  0  0  0  0  0  0
  140.7730   68.1440  228.6720 Cl  0  0  0  0  0  0  0  0  0  0  0  0
  141.0570   70.6490  227.5560 C   0  0  0  0  0  0  0  0  0  0  0  0
  140.9630   71.6010  226.5610 C   0  0  0  0  0  0  0  0  0  0  0  0
  140.4320   71.2510  225.3380 C   0  0  0  0  0  0  0  0  0  0  0  0
  140.3240   72.1680  224.3300 N   0  0  0  0  0  0  0  0  0  0  0  0
  141.1240   74.1960  222.6500 H   0  0  0  0  0  0  0  0  0  0  0  0
  141.1171   74.8780  220.1705 H   0  0  0  0  0  0  0  0  0  0  0  0
  139.4076   74.2635  220.1369 H   0  0  0  0  0  0  0  0  0  0  0  0
  138.8328   77.6324  219.1280 H   0  0  0  0  0  0  0  0  0  0  0  0
  139.4245   79.0524  220.1121 H   0  0  0  0  0  0  0  0  0  0  0  0
  140.1102   78.3252  217.5116 H   0  0  0  0  0  0  0  0  0  0  0  0
  140.8259   79.6132  218.6539 H   0  0  0  0  0  0  0  0  0  0  0  0
  141.9181   77.1429  217.6226 H   0  0  0  0  0  0  0  0  0  0  0  0
  142.6441   78.7618  218.1839 H   0  0  0  0  0  0  0  0  0  0  0  0
  142.5131   76.2119  219.4900 H   0  0  0  0  0  0  0  0  0  0  0  0
  143.4941   77.7370  219.7927 H   0  0  0  0  0  0  0  0  0  0  0  0
  142.1759   76.9886  221.6651 H   0  0  0  0  0  0  0  0  0  0  0  0
  142.4167   79.5460  220.8025 H   0  0  0  0  0  0  0  0  0  0  0  0
  140.7788   79.2157  221.6401 H   0  0  0  0  0  0  0  0  0  0  0  0
  140.7631   78.0797  223.7680 H   0  0  0  0  0  0  0  0  0  0  0  0
  141.7513   79.0166  224.8531 H   0  0  0  0  0  0  0  0  0  0  0  0
  139.8795   79.9997  222.6091 H   0  0  0  0  0  0  0  0  0  0  0  0
  139.8830   80.5579  224.2612 H   0  0  0  0  0  0  0  0  0  0  0  0
  141.4354   81.6297  222.0766 H   0  0  0  0  0  0  0  0  0  0  0  0
  141.6680   82.0716  223.7598 H   0  0  0  0  0  0  0  0  0  0  0  0
  143.6029   80.7410  222.3156 H   0  0  0  0  0  0  0  0  0  0  0  0
  143.4503   80.4523  224.0354 H   0  0  0  0  0  0  0  0  0  0  0  0
  138.9599   70.2483  221.9590 H   0  0  0  0  0  0  0  0  0  0  0  0
  139.1172   68.5186  223.7397 H   0  0  0  0  0  0  0  0  0  0  0  0
  139.7667   67.9928  225.9628 H   0  0  0  0  0  0  0  0  0  0  0  0
  141.4821   70.9474  228.5257 H   0  0  0  0  0  0  0  0  0  0  0  0
  141.3086   72.6294  226.7423 H   0  0  0  0  0  0  0  0  0  0  0  0
  1  2  2  0
  2  3  1  0
  3  4  1  0
  4  5  1  0
  5  6  2  0
  5  7  1  0
  7  8  1  0
  8  9  1  0
  9 10  1  0
 10 11  1  0
 11 12  1  0
 12 13  1  0
 13 14  1  0
 14 15  1  0
 15 16  1  0
 16 17  1  0
 17 18  1  0
  2 19  1  0
 19 20  2  0
 20 21  1  0
 21 22  2  0
 22 23  1  0
 23 24  2  0
 24 25  1  0
 24 26  1  0
 26 27  2  0
 27 28  1  0
 28 29  2  0
 12  7  1  0
 18 14  1  0
 29 19  1  0
 28 22  1  0
  3 30  1  0
  4 31  1  0
  4 32  1  0
  8 33  1  0
  8 34  1  0
  9 35  1  0
  9 36  1  0
 10 37  1  0
 10 38  1  0
 11 39  1  0
 11 40  1  0
 12 41  1  1
 13 42  1  0
 13 43  1  0
 15 44  1  0
 15 45  1  0
 16 46  1  0
 16 47  1  0
 17 48  1  0
 17 49  1  0
 18 50  1  0
 18 51  1  0
 20 52  1  0
 21 53  1  0
 23 54  1  0
 26 55  1  0
 27 56  1  0
M  END
>  <smiles>  (41) 
O=C(NCC(=O)N1CCCC[C@H]1CN1CCCC1)c1ccc2cc(Cl)ccc2n1

>  <score_type>  (41) 
oracle

>  <origin>  (41) 
autodockgpu

>  <m_score__min__energy>  (41) 
-8.25

>  <m_primary>  (41) 
energy

>  <rmsd>  (41) 
2.256014683402986

>  <m_score__min__rmsd>  (41) 
2.256014683402986

>  <meeko>  (41) 
{"free_energy": -7.62, "intermolecular_energy": -9.41, "internal_energy": -1.55, "cluster_size": 25, "cluster_id": 1, "rank_in_cluster": 13}

>  <energy>  (41) 
-6.3

>  <cluster_rmsd>  (41) 
1.09

>  <cluster>  (41) 
6

$$$$

     RDKit          3D

 56 59  0  0  0  0  0  0  0  0999 V2000
  138.5100   74.8070  222.0130 O   0  0  0  0  0  0  0  0  0  0  0  0
  139.7210   75.1620  221.9160 C   0  0  0  0  0  0  0  0  0  0  0  0
  140.0040   76.5120  222.2830 N   0  0  0  0  0  0  0  0  0  0  0  0
  138.8590   77.3060  222.7180 C   0  0  0  0  0  0  0  0  0  0  0  0
  139.2440   78.6830  223.0920 C   0  0  0  0  0  0  0  0  0  0  0  0
  138.4540   79.4540  223.6830 O   0  0  0  0  0  0  0  0  0  0  0  0
  140.5440   79.1210  222.7640 N   0  0  0  0  0  0  0  0  0  0  0  0
  141.7050   78.9410  223.6430 C   0  0  0  0  0  0  0  0  0  0  0  0
  142.6010   80.1370  223.6970 C   0  0  0  0  0  0  0  0  0  0  0  0
  142.1740   81.3610  222.9890 C   0  0  0  0  0  0  0  0  0  0  0  0
  141.1540   81.2190  221.9110 C   0  0  0  0  0  0  0  0  0  0  0  0
  140.8590   79.8290  221.5090 C   0  0  1  0  0  0  0  0  0  0  0  0
  141.8310   79.0950  220.6900 C   0  0  0  0  0  0  0  0  0  0  0  0
  141.5790   77.7200  220.3880 N   0  0  0  0  0  0  0  0  0  0  0  0
  142.6850   77.1660  219.5710 C   0  0  0  0  0  0  0  0  0  0  0  0
  142.6260   78.0440  218.3510 C   0  0  0  0  0  0  0  0  0  0  0  0
  141.1290   78.1830  218.1350 C   0  0  0  0  0  0  0  0  0  0  0  0
  140.5260   77.5330  219.3660 C   0  0  0  0  0  0  0  0  0  0  0  0
  140.7470   74.2350  221.4560 C   0  0  0  0  0  0  0  0  0  0  0  0
  140.4120   72.9010  221.3650 C   0  0  0  0  0  0  0  0  0  0  0  0
  141.2950   71.9310  220.9390 C   0  0  0  0  0  0  0  0  0  0  0  0
  142.5710   72.3790  220.5950 C   0  0  0  0  0  0  0  0  0  0  0  0
  143.4970   71.4510  220.1590 C   0  0  0  0  0  0  0  0  0  0  0  0
  144.7950   71.8150  219.7950 C   0  0  0  0  0  0  0  0  0  0  0  0
  145.9590   70.6220  219.2430 Cl  0  0  0  0  0  0  0  0  0  0  0  0
  145.0960   73.1570  219.8980 C   0  0  0  0  0  0  0  0  0  0  0  0
  144.1900   74.1050  220.3290 C   0  0  0  0  0  0  0  0  0  0  0  0
  142.9160   73.7140  220.6820 C   0  0  0  0  0  0  0  0  0  0  0  0
  141.9940   74.6250  221.1130 N   0  0  0  0  0  0  0  0  0  0  0  0
  140.9720   76.8760  222.2330 H   0  0  0  0  0  0  0  0  0  0  0  0
  138.1282   77.3531  221.8972 H   0  0  0  0  0  0  0  0  0  0  0  0
  138.4308   76.8216  223.6080 H   0  0  0  0  0  0  0  0  0  0  0  0
  141.3428   78.7306  224.6601 H   0  0  0  0  0  0  0  0  0  0  0  0
  142.2973   78.1102  223.2320 H   0  0  0  0  0  0  0  0  0  0  0  0
  142.7290   80.4012  224.7571 H   0  0  0  0  0  0  0  0  0  0  0  0
  143.5118   79.8196  223.1681 H   0  0  0  0  0  0  0  0  0  0  0  0
  141.7623   82.0491  223.7420 H   0  0  0  0  0  0  0  0  0  0  0  0
  143.0786   81.7118  222.4707 H   0  0  0  0  0  0  0  0  0  0  0  0
  140.2186   81.6778  222.2639 H   0  0  0  0  0  0  0  0  0  0  0  0
  141.5752   81.7127  221.0228 H   0  0  0  0  0  0  0  0  0  0  0  0
  140.0305   79.8786  220.7871 H   0  0  0  0  0  0  0  0  0  0  0  0
  141.9124   79.6270  219.7306 H   0  0  0  0  0  0  0  0  0  0  0  0
  142.7373   79.0686  221.3128 H   0  0  0  0  0  0  0  0  0  0  0  0
  143.6518   77.2599  220.0872 H   0  0  0  0  0  0  0  0  0  0  0  0
  142.5885   76.0917  219.3553 H   0  0  0  0  0  0  0  0  0  0  0  0
  143.0953   79.0210  218.5385 H   0  0  0  0  0  0  0  0  0  0  0  0
  143.1635   77.6344  217.4830 H   0  0  0  0  0  0  0  0  0  0  0  0
  140.8389   79.2420  218.0687 H   0  0  0  0  0  0  0  0  0  0  0  0
  140.7887   77.7185  217.1978 H   0  0  0  0  0  0  0  0  0  0  0  0
  139.5934   78.0355  219.6622 H   0  0  0  0  0  0  0  0  0  0  0  0
  140.2535   76.4786  219.2110 H   0  0  0  0  0  0  0  0  0  0  0  0
  139.3930   72.5959  221.6452 H   0  0  0  0  0  0  0  0  0  0  0  0
  141.0111   70.8702  220.8744 H   0  0  0  0  0  0  0  0  0  0  0  0
  143.2027   70.3929  220.0967 H   0  0  0  0  0  0  0  0  0  0  0  0
  146.1082   73.4883  219.6230 H   0  0  0  0  0  0  0  0  0  0  0  0
  144.4821   75.1637  220.3903 H   0  0  0  0  0  0  0  0  0  0  0  0
  1  2  2  0
  2  3  1  0
  3  4  1  0
  4  5  1  0
  5  6  2  0
  5  7  1  0
  7  8  1  0
  8  9  1  0
  9 10  1  0
 10 11  1  0
 11 12  1  0
 12 13  1  0
 13 14  1  0
 14 15  1  0
 15 16  1  0
 16 17  1  0
 17 18  1  0
  2 19  1  0
 19 20  2  0
 20 21  1  0
 21 22  2  0
 22 23  1  0
 23 24  2  0
 24 25  1  0
 24 26  1  0
 26 27  2  0
 27 28  1  0
 28 29  2  0
 12  7  1  0
 18 14  1  0
 29 19  1  0
 28 22  1  0
  3 30  1  0
  4 31  1  0
  4 32  1  0
  8 33  1  0
  8 34  1  0
  9 35  1  0
  9 36  1  0
 10 37  1  0
 10 38  1  0
 11 39  1  0
 11 40  1  0
 12 41  1  6
 13 42  1  0
 13 43  1  0
 15 44  1  0
 15 45  1  0
 16 46  1  0
 16 47  1  0
 17 48  1  0
 17 49  1  0
 18 50  1  0
 18 51  1  0
 20 52  1  0
 21 53  1  0
 23 54  1  0
 26 55  1  0
 27 56  1  0
M  END
>  <smiles>  (42) 
O=C(NCC(=O)N1CCCC[C@H]1CN1CCCC1)c1ccc2cc(Cl)ccc2n1

>  <score_type>  (42) 
oracle

>  <origin>  (42) 
autodockgpu

>  <m_score__min__energy>  (42) 
-8.25

>  <m_primary>  (42) 
energy

>  <rmsd>  (42) 
5.929613813515143

>  <m_score__min__rmsd>  (42) 
5.929613813515143

>  <meeko>  (42) 
{"free_energy": -6.26, "intermolecular_energy": -8.05, "internal_energy": -3.1, "cluster_size": 15, "cluster_id": 6, "rank_in_cluster": 10}

>  <energy>  (42) 
-6.27

>  <cluster_rmsd>  (42) 
0.78

>  <cluster>  (42) 
6

$$$$

     RDKit          3D

 56 59  0  0  0  0  0  0  0  0999 V2000
  139.4670   75.9610  222.8350 O   0  0  0  0  0  0  0  0  0  0  0  0
  140.0130   76.2410  221.7280 C   0  0  0  0  0  0  0  0  0  0  0  0
  139.5270   77.4130  221.0750 N   0  0  0  0  0  0  0  0  0  0  0  0
  138.4630   78.1330  221.7690 C   0  0  0  0  0  0  0  0  0  0  0  0
  138.9910   79.2000  222.6440 C   0  0  0  0  0  0  0  0  0  0  0  0
  138.2580   79.8190  223.4490 O   0  0  0  0  0  0  0  0  0  0  0  0
  140.3640   79.5130  222.5570 N   0  0  0  0  0  0  0  0  0  0  0  0
  141.3960   78.8590  223.3670 C   0  0  0  0  0  0  0  0  0  0  0  0
  142.4320   79.8050  223.8870 C   0  0  0  0  0  0  0  0  0  0  0  0
  142.2420   81.2490  223.6440 C   0  0  0  0  0  0  0  0  0  0  0  0
  141.3250   81.6520  222.5390 C   0  0  0  0  0  0  0  0  0  0  0  0
  140.8920   80.5530  221.6550 C   0  0  1  0  0  0  0  0  0  0  0  0
  141.8380   80.0040  220.6740 C   0  0  0  0  0  0  0  0  0  0  0  0
  141.3330   79.1810  219.6170 N   0  0  0  0  0  0  0  0  0  0  0  0
  142.3460   79.0570  218.5410 C   0  0  0  0  0  0  0  0  0  0  0  0
  142.5190   80.4920  218.1240 C   0  0  0  0  0  0  0  0  0  0  0  0
  141.0900   81.0060  218.1660 C   0  0  0  0  0  0  0  0  0  0  0  0
  140.3140   79.8610  218.7880 C   0  0  0  0  0  0  0  0  0  0  0  0
  141.0690   75.4040  221.1710 C   0  0  0  0  0  0  0  0  0  0  0  0
  142.0280   76.0160  220.3930 C   0  0  0  0  0  0  0  0  0  0  0  0
  143.0770   75.3310  219.8170 C   0  0  0  0  0  0  0  0  0  0  0  0
  143.1200   73.9590  220.0680 C   0  0  0  0  0  0  0  0  0  0  0  0
  144.1500   73.2220  219.5180 C   0  0  0  0  0  0  0  0  0  0  0  0
  144.2680   71.8450  219.7210 C   0  0  0  0  0  0  0  0  0  0  0  0
  145.5840   70.9250  219.0130 Cl  0  0  0  0  0  0  0  0  0  0  0  0
  143.2910   71.2670  220.5040 C   0  0  0  0  0  0  0  0  0  0  0  0
  142.2510   71.9790  221.0670 C   0  0  0  0  0  0  0  0  0  0  0  0
  142.1630   73.3370  220.8480 C   0  0  0  0  0  0  0  0  0  0  0  0
  141.1480   74.0740  221.3900 N   0  0  0  0  0  0  0  0  0  0  0  0
  139.9250   77.7090  220.1660 H   0  0  0  0  0  0  0  0  0  0  0  0
  137.7953   78.5859  221.0212 H   0  0  0  0  0  0  0  0  0  0  0  0
  137.9243   77.4124  222.4019 H   0  0  0  0  0  0  0  0  0  0  0  0
  140.9090   78.3701  224.2236 H   0  0  0  0  0  0  0  0  0  0  0  0
  141.9121   78.1388  222.7152 H   0  0  0  0  0  0  0  0  0  0  0  0
  142.4872   79.6619  224.9762 H   0  0  0  0  0  0  0  0  0  0  0  0
  143.3415   79.5507  223.3229 H   0  0  0  0  0  0  0  0  0  0  0  0
  141.8505   81.6896  224.5728 H   0  0  0  0  0  0  0  0  0  0  0  0
  143.2321   81.6102  223.3289 H   0  0  0  0  0  0  0  0  0  0  0  0
  140.4274   82.1025  222.9878 H   0  0  0  0  0  0  0  0  0  0  0  0
  141.8942   82.3489  221.9063 H   0  0  0  0  0  0  0  0  0  0  0  0
  140.1524   80.9796  220.9614 H   0  0  0  0  0  0  0  0  0  0  0  0
  142.3485   80.8575  220.2039 H   0  0  0  0  0  0  0  0  0  0  0  0
  142.4690   79.3231  221.2640 H   0  0  0  0  0  0  0  0  0  0  0  0
  143.2869   78.6332  218.9220 H   0  0  0  0  0  0  0  0  0  0  0  0
  142.0500   78.3849  217.7221 H   0  0  0  0  0  0  0  0  0  0  0  0
  143.1616   81.0388  218.8297 H   0  0  0  0  0  0  0  0  0  0  0  0
  143.0064   80.6144  217.1455 H   0  0  0  0  0  0  0  0  0  0  0  0
  141.0170   81.9117  218.7859 H   0  0  0  0  0  0  0  0  0  0  0  0
  140.7096   81.2892  217.1735 H   0  0  0  0  0  0  0  0  0  0  0  0
  139.4856   80.2351  219.4075 H   0  0  0  0  0  0  0  0  0  0  0  0
  139.8474   79.1985  218.0441 H   0  0  0  0  0  0  0  0  0  0  0  0
  141.9532   77.1003  220.2238 H   0  0  0  0  0  0  0  0  0  0  0  0
  143.8335   75.8351  219.1977 H   0  0  0  0  0  0  0  0  0  0  0  0
  144.9015   73.7356  218.9004 H   0  0  0  0  0  0  0  0  0  0  0  0
  143.3430   70.1840  220.6893 H   0  0  0  0  0  0  0  0  0  0  0  0
  141.4989   71.4670  221.6852 H   0  0  0  0  0  0  0  0  0  0  0  0
  1  2  2  0
  2  3  1  0
  3  4  1  0
  4  5  1  0
  5  6  2  0
  5  7  1  0
  7  8  1  0
  8  9  1  0
  9 10  1  0
 10 11  1  0
 11 12  1  0
 12 13  1  0
 13 14  1  0
 14 15  1  0
 15 16  1  0
 16 17  1  0
 17 18  1  0
  2 19  1  0
 19 20  2  0
 20 21  1  0
 21 22  2  0
 22 23  1  0
 23 24  2  0
 24 25  1  0
 24 26  1  0
 26 27  2  0
 27 28  1  0
 28 29  2  0
 12  7  1  0
 18 14  1  0
 29 19  1  0
 28 22  1  0
  3 30  1  0
  4 31  1  0
  4 32  1  0
  8 33  1  0
  8 34  1  0
  9 35  1  0
  9 36  1  0
 10 37  1  0
 10 38  1  0
 11 39  1  0
 11 40  1  0
 12 41  1  6
 13 42  1  0
 13 43  1  0
 15 44  1  0
 15 45  1  0
 16 46  1  0
 16 47  1  0
 17 48  1  0
 17 49  1  0
 18 50  1  0
 18 51  1  0
 20 52  1  0
 21 53  1  0
 23 54  1  0
 26 55  1  0
 27 56  1  0
M  END
>  <smiles>  (43) 
O=C(NCC(=O)N1CCCC[C@H]1CN1CCCC1)c1ccc2cc(Cl)ccc2n1

>  <score_type>  (43) 
oracle

>  <origin>  (43) 
autodockgpu

>  <m_score__min__energy>  (43) 
-8.25

>  <m_primary>  (43) 
energy

>  <rmsd>  (43) 
6.439050724709617

>  <m_score__min__rmsd>  (43) 
6.439050724709617

>  <meeko>  (43) 
{"free_energy": -6.37, "intermolecular_energy": -8.16, "internal_energy": -2.94, "cluster_size": 15, "cluster_id": 6, "rank_in_cluster": 3}

>  <energy>  (43) 
-6.26

>  <cluster_rmsd>  (43) 
1.17

>  <cluster>  (43) 
6

$$$$

     RDKit          3D

 56 59  0  0  0  0  0  0  0  0999 V2000
  139.3440   74.2010  222.3140 O   0  0  0  0  0  0  0  0  0  0  0  0
  140.4990   74.5520  221.9300 C   0  0  0  0  0  0  0  0  0  0  0  0
  140.8210   75.9310  222.1110 N   0  0  0  0  0  0  0  0  0  0  0  0
  139.7770   76.7540  222.7130 C   0  0  0  0  0  0  0  0  0  0  0  0
  139.6420   78.0630  222.0410 C   0  0  0  0  0  0  0  0  0  0  0  0
  138.5320   78.6270  221.9050 O   0  0  0  0  0  0  0  0  0  0  0  0
  140.8110   78.6800  221.5460 N   0  0  0  0  0  0  0  0  0  0  0  0
  141.9280   79.0980  222.3990 C   0  0  0  0  0  0  0  0  0  0  0  0
  142.4980   80.4290  222.0210 C   0  0  0  0  0  0  0  0  0  0  0  0
  141.8240   81.2000  220.9580 C   0  0  0  0  0  0  0  0  0  0  0  0
  140.9320   80.4570  220.0210 C   0  0  0  0  0  0  0  0  0  0  0  0
  141.0110   78.9870  220.1180 C   0  0  1  0  0  0  0  0  0  0  0  0
  142.1790   78.2910  219.5620 C   0  0  0  0  0  0  0  0  0  0  0  0
  142.3450   76.8970  219.8370 N   0  0  0  0  0  0  0  0  0  0  0  0
  143.5880   76.3960  219.1990 C   0  0  0  0  0  0  0  0  0  0  0  0
  143.3100   76.6700  217.7450 C   0  0  0  0  0  0  0  0  0  0  0  0
  141.8430   76.2910  217.6290 C   0  0  0  0  0  0  0  0  0  0  0  0
  141.4210   76.0380  219.0630 C   0  0  0  0  0  0  0  0  0  0  0  0
  141.4250   73.5920  221.3420 C   0  0  0  0  0  0  0  0  0  0  0  0
  140.9550   72.3230  221.0840 C   0  0  0  0  0  0  0  0  0  0  0  0
  141.7340   71.3320  220.5250 C   0  0  0  0  0  0  0  0  0  0  0  0
  143.0500   71.6880  220.2270 C   0  0  0  0  0  0  0  0  0  0  0  0
  143.8770   70.7350  219.6630 C   0  0  0  0  0  0  0  0  0  0  0  0
  145.2060   71.0090  219.3340 C   0  0  0  0  0  0  0  0  0  0  0  0
  146.2420   69.7860  218.6190 Cl  0  0  0  0  0  0  0  0  0  0  0  0
  145.6420   72.2890  219.6060 C   0  0  0  0  0  0  0  0  0  0  0  0
  144.8380   73.2600  220.1680 C   0  0  0  0  0  0  0  0  0  0  0  0
  143.5300   72.9580  220.4820 C   0  0  0  0  0  0  0  0  0  0  0  0
  142.7060   73.8950  221.0380 N   0  0  0  0  0  0  0  0  0  0  0  0
  141.7470   76.2930  221.8250 H   0  0  0  0  0  0  0  0  0  0  0  0
  138.8187   76.2187  222.6419 H   0  0  0  0  0  0  0  0  0  0  0  0
  140.0550   76.9392  223.7611 H   0  0  0  0  0  0  0  0  0  0  0  0
  141.5715   79.1537  223.4381 H   0  0  0  0  0  0  0  0  0  0  0  0
  142.7286   78.3542  222.2737 H   0  0  0  0  0  0  0  0  0  0  0  0
  142.4976   81.0531  222.9268 H   0  0  0  0  0  0  0  0  0  0  0  0
  143.4868   80.1927  221.6010 H   0  0  0  0  0  0  0  0  0  0  0  0
  141.2140   81.9725  221.4490 H   0  0  0  0  0  0  0  0  0  0  0  0
  142.6421   81.5740  220.3249 H   0  0  0  0  0  0  0  0  0  0  0  0
  139.8942   80.7572  220.2278 H   0  0  0  0  0  0  0  0  0  0  0  0
  141.2681   80.7164  219.0062 H   0  0  0  0  0  0  0  0  0  0  0  0
  140.2367   78.5853  219.4479 H   0  0  0  0  0  0  0  0  0  0  0  0
  142.1312   78.4015  218.4686 H   0  0  0  0  0  0  0  0  0  0  0  0
  143.0354   78.7653  220.0636 H   0  0  0  0  0  0  0  0  0  0  0  0
  144.4713   76.9493  219.5505 H   0  0  0  0  0  0  0  0  0  0  0  0
  143.8136   75.3427  219.4219 H   0  0  0  0  0  0  0  0  0  0  0  0
  143.4697   77.7304  217.5001 H   0  0  0  0  0  0  0  0  0  0  0  0
  143.9670   76.1194  217.0556 H   0  0  0  0  0  0  0  0  0  0  0  0
  141.2596   77.1126  217.1879 H   0  0  0  0  0  0  0  0  0  0  0  0
  141.6786   75.4204  216.9770 H   0  0  0  0  0  0  0  0  0  0  0  0
  140.3745   76.3354  219.2257 H   0  0  0  0  0  0  0  0  0  0  0  0
  141.4718   74.9772  219.3497 H   0  0  0  0  0  0  0  0  0  0  0  0
  139.9099   72.0895  221.3356 H   0  0  0  0  0  0  0  0  0  0  0  0
  141.3424   70.3235  220.3263 H   0  0  0  0  0  0  0  0  0  0  0  0
  143.4758   69.7296  219.4673 H   0  0  0  0  0  0  0  0  0  0  0  0
  146.6828   72.5490  219.3628 H   0  0  0  0  0  0  0  0  0  0  0  0
  145.2374   74.2661  220.3637 H   0  0  0  0  0  0  0  0  0  0  0  0
  1  2  2  0
  2  3  1  0
  3  4  1  0
  4  5  1  0
  5  6  2  0
  5  7  1  0
  7  8  1  0
  8  9  1  0
  9 10  1  0
 10 11  1  0
 11 12  1  0
 12 13  1  0
 13 14  1  0
 14 15  1  0
 15 16  1  0
 16 17  1  0
 17 18  1  0
  2 19  1  0
 19 20  2  0
 20 21  1  0
 21 22  2  0
 22 23  1  0
 23 24  2  0
 24 25  1  0
 24 26  1  0
 26 27  2  0
 27 28  1  0
 28 29  2  0
 12  7  1  0
 18 14  1  0
 29 19  1  0
 28 22  1  0
  3 30  1  0
  4 31  1  0
  4 32  1  0
  8 33  1  0
  8 34  1  0
  9 35  1  0
  9 36  1  0
 10 37  1  0
 10 38  1  0
 11 39  1  0
 11 40  1  0
 12 41  1  6
 13 42  1  0
 13 43  1  0
 15 44  1  0
 15 45  1  0
 16 46  1  0
 16 47  1  0
 17 48  1  0
 17 49  1  0
 18 50  1  0
 18 51  1  0
 20 52  1  0
 21 53  1  0
 23 54  1  0
 26 55  1  0
 27 56  1  0
M  END
>  <smiles>  (44) 
O=C(NCC(=O)N1CCCC[C@H]1CN1CCCC1)c1ccc2cc(Cl)ccc2n1

>  <score_type>  (44) 
oracle

>  <origin>  (44) 
autodockgpu

>  <m_score__min__energy>  (44) 
-8.25

>  <m_primary>  (44) 
energy

>  <rmsd>  (44) 
5.886318985092271

>  <m_score__min__rmsd>  (44) 
5.886318985092271

>  <meeko>  (44) 
{"free_energy": -5.73, "intermolecular_energy": -7.52, "internal_energy": -3.26, "cluster_size": 15, "cluster_id": 6, "rank_in_cluster": 15}

>  <energy>  (44) 
-6.06

>  <cluster_rmsd>  (44) 
1.38

>  <cluster>  (44) 
6

$$$$

     RDKit          3D

 56 59  0  0  0  0  0  0  0  0999 V2000
  139.4910   75.8570  222.8210 O   0  0  0  0  0  0  0  0  0  0  0  0
  140.0480   76.1480  221.7230 C   0  0  0  0  0  0  0  0  0  0  0  0
  139.5760   77.3320  221.0810 N   0  0  0  0  0  0  0  0  0  0  0  0
  138.5100   78.0500  221.7750 C   0  0  0  0  0  0  0  0  0  0  0  0
  139.0380   79.0650  222.7100 C   0  0  0  0  0  0  0  0  0  0  0  0
  138.3190   79.5930  223.5890 O   0  0  0  0  0  0  0  0  0  0  0  0
  140.3940   79.4350  222.5930 N   0  0  0  0  0  0  0  0  0  0  0  0
  141.4650   78.8540  223.4090 C   0  0  0  0  0  0  0  0  0  0  0  0
  142.4640   79.8620  223.8830 C   0  0  0  0  0  0  0  0  0  0  0  0
  142.2080   81.2870  223.5950 C   0  0  0  0  0  0  0  0  0  0  0  0
  141.2600   81.6120  222.4900 C   0  0  0  0  0  0  0  0  0  0  0  0
  140.8650   80.4660  221.6490 C   0  0  1  0  0  0  0  0  0  0  0  0
  141.8210   79.9260  220.6730 C   0  0  0  0  0  0  0  0  0  0  0  0
  141.3260   79.1280  219.5930 N   0  0  0  0  0  0  0  0  0  0  0  0
  142.3590   79.0060  218.5360 C   0  0  0  0  0  0  0  0  0  0  0  0
  142.5620   80.4450  218.1460 C   0  0  0  0  0  0  0  0  0  0  0  0
  141.1390   80.9790  218.1680 C   0  0  0  0  0  0  0  0  0  0  0  0
  140.3340   79.8360  218.7550 C   0  0  0  0  0  0  0  0  0  0  0  0
  141.1040   75.3120  221.1640 C   0  0  0  0  0  0  0  0  0  0  0  0
  142.0700   75.9270  220.3970 C   0  0  0  0  0  0  0  0  0  0  0  0
  143.1200   75.2430  219.8210 C   0  0  0  0  0  0  0  0  0  0  0  0
  143.1560   73.8690  220.0600 C   0  0  0  0  0  0  0  0  0  0  0  0
  144.1870   73.1330  219.5090 C   0  0  0  0  0  0  0  0  0  0  0  0
  144.2970   71.7540  219.7010 C   0  0  0  0  0  0  0  0  0  0  0  0
  145.6140   70.8350  218.9920 Cl  0  0  0  0  0  0  0  0  0  0  0  0
  143.3140   71.1730  220.4730 C   0  0  0  0  0  0  0  0  0  0  0  0
  142.2740   71.8840  221.0370 C   0  0  0  0  0  0  0  0  0  0  0  0
  142.1930   73.2440  220.8290 C   0  0  0  0  0  0  0  0  0  0  0  0
  141.1770   73.9800  221.3720 N   0  0  0  0  0  0  0  0  0  0  0  0
  139.9840   77.6380  220.1800 H   0  0  0  0  0  0  0  0  0  0  0  0
  137.8763   78.5514  221.0286 H   0  0  0  0  0  0  0  0  0  0  0  0
  137.9352   77.3176  222.3608 H   0  0  0  0  0  0  0  0  0  0  0  0
  141.0116   78.3724  224.2879 H   0  0  0  0  0  0  0  0  0  0  0  0
  142.0043   78.1361  222.7737 H   0  0  0  0  0  0  0  0  0  0  0  0
  142.5385   79.7584  224.9756 H   0  0  0  0  0  0  0  0  0  0  0  0
  143.3767   79.6290  223.3149 H   0  0  0  0  0  0  0  0  0  0  0  0
  141.8094   81.7414  224.5140 H   0  0  0  0  0  0  0  0  0  0  0  0
  143.1772   81.6801  223.2543 H   0  0  0  0  0  0  0  0  0  0  0  0
  140.3491   82.0376  222.9362 H   0  0  0  0  0  0  0  0  0  0  0  0
  141.7898   82.3115  221.8267 H   0  0  0  0  0  0  0  0  0  0  0  0
  140.0992   80.8363  220.9516 H   0  0  0  0  0  0  0  0  0  0  0  0
  142.3471   80.7831  220.2272 H   0  0  0  0  0  0  0  0  0  0  0  0
  142.4354   79.2277  221.2603 H   0  0  0  0  0  0  0  0  0  0  0  0
  143.2854   78.5619  218.9291 H   0  0  0  0  0  0  0  0  0  0  0  0
  142.0699   78.3517  217.7003 H   0  0  0  0  0  0  0  0  0  0  0  0
  143.1980   80.9708  218.8733 H   0  0  0  0  0  0  0  0  0  0  0  0
  143.0713   80.5763  217.1799 H   0  0  0  0  0  0  0  0  0  0  0  0
  141.0664   81.8755  218.8013 H   0  0  0  0  0  0  0  0  0  0  0  0
  140.7830   81.2835  217.1727 H   0  0  0  0  0  0  0  0  0  0  0  0
  139.4986   80.2122  219.3637 H   0  0  0  0  0  0  0  0  0  0  0  0
  139.8731   79.1926  217.9911 H   0  0  0  0  0  0  0  0  0  0  0  0
  142.0003   77.0131  220.2370 H   0  0  0  0  0  0  0  0  0  0  0  0
  143.8821   75.7496  219.2107 H   0  0  0  0  0  0  0  0  0  0  0  0
  144.9444   73.6488  218.9005 H   0  0  0  0  0  0  0  0  0  0  0  0
  143.3607   70.0881  220.6485 H   0  0  0  0  0  0  0  0  0  0  0  0
  141.5167   71.3698  221.6470 H   0  0  0  0  0  0  0  0  0  0  0  0
  1  2  2  0
  2  3  1  0
  3  4  1  0
  4  5  1  0
  5  6  2  0
  5  7  1  0
  7  8  1  0
  8  9  1  0
  9 10  1  0
 10 11  1  0
 11 12  1  0
 12 13  1  0
 13 14  1  0
 14 15  1  0
 15 16  1  0
 16 17  1  0
 17 18  1  0
  2 19  1  0
 19 20  2  0
 20 21  1  0
 21 22  2  0
 22 23  1  0
 23 24  2  0
 24 25  1  0
 24 26  1  0
 26 27  2  0
 27 28  1  0
 28 29  2  0
 12  7  1  0
 18 14  1  0
 29 19  1  0
 28 22  1  0
  3 30  1  0
  4 31  1  0
  4 32  1  0
  8 33  1  0
  8 34  1  0
  9 35  1  0
  9 36  1  0
 10 37  1  0
 10 38  1  0
 11 39  1  0
 11 40  1  0
 12 41  1  6
 13 42  1  0
 13 43  1  0
 15 44  1  0
 15 45  1  0
 16 46  1  0
 16 47  1  0
 17 48  1  0
 17 49  1  0
 18 50  1  0
 18 51  1  0
 20 52  1  0
 21 53  1  0
 23 54  1  0
 26 55  1  0
 27 56  1  0
M  END
>  <smiles>  (45) 
O=C(NCC(=O)N1CCCC[C@H]1CN1CCCC1)c1ccc2cc(Cl)ccc2n1

>  <score_type>  (45) 
oracle

>  <origin>  (45) 
autodockgpu

>  <m_score__min__energy>  (45) 
-8.25

>  <m_primary>  (45) 
energy

>  <rmsd>  (45) 
6.414674027334635

>  <m_score__min__rmsd>  (45) 
6.414674027334635

>  <meeko>  (45) 
{"free_energy": -6.41, "intermolecular_energy": -8.2, "internal_energy": -2.93, "cluster_size": 15, "cluster_id": 6, "rank_in_cluster": 2}

>  <energy>  (45) 
-5.99

>  <cluster_rmsd>  (45) 
0.91

>  <cluster>  (45) 
6

$$$$

     RDKit          3D

 56 59  0  0  0  0  0  0  0  0999 V2000
  141.8290   73.3770  221.0520 O   0  0  0  0  0  0  0  0  0  0  0  0
  141.0000   74.1660  221.5930 C   0  0  0  0  0  0  0  0  0  0  0  0
  139.9230   73.5480  222.2970 N   0  0  0  0  0  0  0  0  0  0  0  0
  139.9190   72.0890  222.2990 C   0  0  0  0  0  0  0  0  0  0  0  0
  138.6570   71.5350  222.8300 C   0  0  0  0  0  0  0  0  0  0  0  0
  137.6400   72.2470  222.9970 O   0  0  0  0  0  0  0  0  0  0  0  0
  138.6150   70.1620  223.1500 N   0  0  0  0  0  0  0  0  0  0  0  0
  139.3170   69.1290  222.3800 C   0  0  0  0  0  0  0  0  0  0  0  0
  138.5080   67.8880  222.1760 C   0  0  0  0  0  0  0  0  0  0  0  0
  137.1070   67.8830  222.6420 C   0  0  0  0  0  0  0  0  0  0  0  0
  136.7150   68.8900  223.6710 C   0  0  0  0  0  0  0  0  0  0  0  0
  137.8380   69.6270  224.2830 C   0  0  1  0  0  0  0  0  0  0  0  0
  138.6920   68.9490  225.2680 C   0  0  0  0  0  0  0  0  0  0  0  0
  140.0840   69.2750  225.3120 N   0  0  0  0  0  0  0  0  0  0  0  0
  140.8090   68.3000  226.1620 C   0  0  0  0  0  0  0  0  0  0  0  0
  140.1280   68.4940  227.4890 C   0  0  0  0  0  0  0  0  0  0  0  0
  139.9550   70.0030  227.5360 C   0  0  0  0  0  0  0  0  0  0  0  0
  140.3780   70.4560  226.1520 C   0  0  0  0  0  0  0  0  0  0  0  0
  141.1530   75.6120  221.4900 C   0  0  0  0  0  0  0  0  0  0  0  0
  141.7990   76.1110  220.3790 C   0  0  0  0  0  0  0  0  0  0  0  0
  141.9990   77.4590  220.1680 C   0  0  0  0  0  0  0  0  0  0  0  0
  141.5030   78.3100  221.1570 C   0  0  0  0  0  0  0  0  0  0  0  0
  141.6730   79.6720  220.9970 C   0  0  0  0  0  0  0  0  0  0  0  0
  141.2070   80.5920  221.9390 C   0  0  0  0  0  0  0  0  0  0  0  0
  141.4320   82.3190  221.7200 Cl  0  0  0  0  0  0  0  0  0  0  0  0
  140.5660   80.0570  223.0370 C   0  0  0  0  0  0  0  0  0  0  0  0
  140.3810   78.7020  223.2210 C   0  0  0  0  0  0  0  0  0  0  0  0
  140.8540   77.8190  222.2740 C   0  0  0  0  0  0  0  0  0  0  0  0
  140.6880   76.4710  222.4230 N   0  0  0  0  0  0  0  0  0  0  0  0
  139.2060   74.1270  222.7690 H   0  0  0  0  0  0  0  0  0  0  0  0
  140.0557   71.7330  221.2672 H   0  0  0  0  0  0  0  0  0  0  0  0
  140.7373   71.7501  222.9513 H   0  0  0  0  0  0  0  0  0  0  0  0
  139.5744   69.5435  221.3941 H   0  0  0  0  0  0  0  0  0  0  0  0
  140.2092   68.8439  222.9569 H   0  0  0  0  0  0  0  0  0  0  0  0
  138.4928   67.6827  221.0954 H   0  0  0  0  0  0  0  0  0  0  0  0
  139.0057   67.1327  222.8019 H   0  0  0  0  0  0  0  0  0  0  0  0
  136.4674   68.0463  221.7621 H   0  0  0  0  0  0  0  0  0  0  0  0
  136.9839   66.9113  223.1427 H   0  0  0  0  0  0  0  0  0  0  0  0
  136.0460   69.6218  223.1947 H   0  0  0  0  0  0  0  0  0  0  0  0
  136.2371   68.3264  224.4858 H   0  0  0  0  0  0  0  0  0  0  0  0
  137.3941   70.3909  224.9382 H   0  0  0  0  0  0  0  0  0  0  0  0
  138.2766   69.1693  226.2624 H   0  0  0  0  0  0  0  0  0  0  0  0
  138.6750   67.8947  224.9546 H   0  0  0  0  0  0  0  0  0  0  0  0
  140.6822   67.2720  225.7918 H   0  0  0  0  0  0  0  0  0  0  0  0
  141.8980   68.4526  226.1903 H   0  0  0  0  0  0  0  0  0  0  0  0
  139.1565   67.9789  227.5190 H   0  0  0  0  0  0  0  0  0  0  0  0
  140.6907   68.0848  228.3410 H   0  0  0  0  0  0  0  0  0  0  0  0
  138.9068   70.2718  227.7335 H   0  0  0  0  0  0  0  0  0  0  0  0
  140.5425   70.4749  228.3373 H   0  0  0  0  0  0  0  0  0  0  0  0
  139.7935   71.3288  225.8257 H   0  0  0  0  0  0  0  0  0  0  0  0
  141.4302   70.7728  226.1020 H   0  0  0  0  0  0  0  0  0  0  0  0
  142.1721   75.4011  219.6261 H   0  0  0  0  0  0  0  0  0  0  0  0
  142.5172   77.8400  219.2757 H   0  0  0  0  0  0  0  0  0  0  0  0
  142.1911   80.0430  220.1004 H   0  0  0  0  0  0  0  0  0  0  0  0
  140.1829   80.7453  223.8048 H   0  0  0  0  0  0  0  0  0  0  0  0
  139.8605   78.3297  224.1157 H   0  0  0  0  0  0  0  0  0  0  0  0
  1  2  2  0
  2  3  1  0
  3  4  1  0
  4  5  1  0
  5  6  2  0
  5  7  1  0
  7  8  1  0
  8  9  1  0
  9 10  1  0
 10 11  1  0
 11 12  1  0
 12 13  1  0
 13 14  1  0
 14 15  1  0
 15 16  1  0
 16 17  1  0
 17 18  1  0
  2 19  1  0
 19 20  2  0
 20 21  1  0
 21 22  2  0
 22 23  1  0
 23 24  2  0
 24 25  1  0
 24 26  1  0
 26 27  2  0
 27 28  1  0
 28 29  2  0
 12  7  1  0
 18 14  1  0
 29 19  1  0
 28 22  1  0
  3 30  1  0
  4 31  1  0
  4 32  1  0
  8 33  1  0
  8 34  1  0
  9 35  1  0
  9 36  1  0
 10 37  1  0
 10 38  1  0
 11 39  1  0
 11 40  1  0
 12 41  1  1
 13 42  1  0
 13 43  1  0
 15 44  1  0
 15 45  1  0
 16 46  1  0
 16 47  1  0
 17 48  1  0
 17 49  1  0
 18 50  1  0
 18 51  1  0
 20 52  1  0
 21 53  1  0
 23 54  1  0
 26 55  1  0
 27 56  1  0
M  END
>  <smiles>  (46) 
O=C(NCC(=O)N1CCCC[C@H]1CN1CCCC1)c1ccc2cc(Cl)ccc2n1

>  <score_type>  (46) 
oracle

>  <origin>  (46) 
autodockgpu

>  <m_score__min__energy>  (46) 
-8.25

>  <m_primary>  (46) 
energy

>  <rmsd>  (46) 
9.355824310988046

>  <m_score__min__rmsd>  (46) 
9.355824310988046

>  <meeko>  (46) 
{"free_energy": -7.28, "intermolecular_energy": -9.07, "internal_energy": -1.86, "cluster_size": 3, "cluster_id": 2, "rank_in_cluster": 3}

>  <energy>  (46) 
-5.93

>  <cluster_rmsd>  (46) 
0.98

>  <cluster>  (46) 
6

$$$$

     RDKit          3D

 56 59  0  0  0  0  0  0  0  0999 V2000
  140.2580   71.9200  220.8520 O   0  0  0  0  0  0  0  0  0  0  0  0
  139.8850   72.3300  221.9900 C   0  0  0  0  0  0  0  0  0  0  0  0
  139.3910   73.6680  222.0370 N   0  0  0  0  0  0  0  0  0  0  0  0
  139.3820   74.3880  220.7670 C   0  0  0  0  0  0  0  0  0  0  0  0
  140.4220   75.4360  220.7130 C   0  0  0  0  0  0  0  0  0  0  0  0
  141.5270   75.2440  220.1550 O   0  0  0  0  0  0  0  0  0  0  0  0
  140.1430   76.6820  221.3120 N   0  0  0  0  0  0  0  0  0  0  0  0
  139.3960   76.8280  222.5650 C   0  0  0  0  0  0  0  0  0  0  0  0
  138.4190   77.9600  222.5460 C   0  0  0  0  0  0  0  0  0  0  0  0
  138.2300   78.6970  221.2810 C   0  0  0  0  0  0  0  0  0  0  0  0
  139.3070   78.6010  220.2540 C   0  0  0  0  0  0  0  0  0  0  0  0
  140.5560   77.9670  220.7180 C   0  0  1  0  0  0  0  0  0  0  0  0
  141.4600   78.7180  221.5990 C   0  0  0  0  0  0  0  0  0  0  0  0
  141.0530   80.0090  222.0620 N   0  0  0  0  0  0  0  0  0  0  0  0
  142.2170   80.9290  222.0910 C   0  0  0  0  0  0  0  0  0  0  0  0
  143.1300   80.2290  223.0600 C   0  0  0  0  0  0  0  0  0  0  0  0
  142.1520   79.7390  224.1150 C   0  0  0  0  0  0  0  0  0  0  0  0
  140.7930   80.0490  223.5180 C   0  0  0  0  0  0  0  0  0  0  0  0
  139.9650   71.4730  223.1660 C   0  0  0  0  0  0  0  0  0  0  0  0
  139.5130   70.1760  223.0470 C   0  0  0  0  0  0  0  0  0  0  0  0
  139.5420   69.2720  224.0880 C   0  0  0  0  0  0  0  0  0  0  0  0
  140.0650   69.7450  225.2920 C   0  0  0  0  0  0  0  0  0  0  0  0
  140.1200   68.8820  226.3690 C   0  0  0  0  0  0  0  0  0  0  0  0
  140.6290   69.2750  227.6080 C   0  0  0  0  0  0  0  0  0  0  0  0
  140.6920   68.1640  228.9660 Cl  0  0  0  0  0  0  0  0  0  0  0  0
  141.0720   70.5790  227.6910 C   0  0  0  0  0  0  0  0  0  0  0  0
  141.0300   71.4620  226.6310 C   0  0  0  0  0  0  0  0  0  0  0  0
  140.5210   71.0430  225.4210 C   0  0  0  0  0  0  0  0  0  0  0  0
  140.4640   71.8910  224.3500 N   0  0  0  0  0  0  0  0  0  0  0  0
  139.0650   74.0740  222.9320 H   0  0  0  0  0  0  0  0  0  0  0  0
  139.5589   73.6709  219.9518 H   0  0  0  0  0  0  0  0  0  0  0  0
  138.4027   74.8780  220.6632 H   0  0  0  0  0  0  0  0  0  0  0  0
  138.8447   75.8949  222.7530 H   0  0  0  0  0  0  0  0  0  0  0  0
  140.1287   77.0449  223.3563 H   0  0  0  0  0  0  0  0  0  0  0  0
  137.4397   77.5505  222.8344 H   0  0  0  0  0  0  0  0  0  0  0  0
  138.8498   78.7034  223.2329 H   0  0  0  0  0  0  0  0  0  0  0  0
  137.3028   78.3257  220.8201 H   0  0  0  0  0  0  0  0  0  0  0  0
  138.2214   79.7567  221.5759 H   0  0  0  0  0  0  0  0  0  0  0  0
  138.9203   78.0142  219.4078 H   0  0  0  0  0  0  0  0  0  0  0  0
  139.5685   79.6350  219.9850 H   0  0  0  0  0  0  0  0  0  0  0  0
  141.2097   77.8780  219.8378 H   0  0  0  0  0  0  0  0  0  0  0  0
  141.6359   78.0956  222.4888 H   0  0  0  0  0  0  0  0  0  0  0  0
  142.3368   78.9250  220.9679 H   0  0  0  0  0  0  0  0  0  0  0  0
  142.6805   81.0217  221.0978 H   0  0  0  0  0  0  0  0  0  0  0  0
  141.9655   81.9607  222.3778 H   0  0  0  0  0  0  0  0  0  0  0  0
  143.6546   79.3896  222.5802 H   0  0  0  0  0  0  0  0  0  0  0  0
  143.9298   80.8701  223.4592 H   0  0  0  0  0  0  0  0  0  0  0  0
  142.2681   78.6585  224.2857 H   0  0  0  0  0  0  0  0  0  0  0  0
  142.3064   80.2168  225.0937 H   0  0  0  0  0  0  0  0  0  0  0  0
  140.0512   79.2904  223.8083 H   0  0  0  0  0  0  0  0  0  0  0  0
  140.3785   81.0094  223.8584 H   0  0  0  0  0  0  0  0  0  0  0  0
  139.1108   69.8472  222.0774 H   0  0  0  0  0  0  0  0  0  0  0  0
  139.1752   68.2410  223.9760 H   0  0  0  0  0  0  0  0  0  0  0  0
  139.7512   67.8529  226.2466 H   0  0  0  0  0  0  0  0  0  0  0  0
  141.4790   70.9326  228.6498 H   0  0  0  0  0  0  0  0  0  0  0  0
  141.3996   72.4911  226.7511 H   0  0  0  0  0  0  0  0  0  0  0  0
  1  2  2  0
  2  3  1  0
  3  4  1  0
  4  5  1  0
  5  6  2  0
  5  7  1  0
  7  8  1  0
  8  9  1  0
  9 10  1  0
 10 11  1  0
 11 12  1  0
 12 13  1  0
 13 14  1  0
 14 15  1  0
 15 16  1  0
 16 17  1  0
 17 18  1  0
  2 19  1  0
 19 20  2  0
 20 21  1  0
 21 22  2  0
 22 23  1  0
 23 24  2  0
 24 25  1  0
 24 26  1  0
 26 27  2  0
 27 28  1  0
 28 29  2  0
 12  7  1  0
 18 14  1  0
 29 19  1  0
 28 22  1  0
  3 30  1  0
  4 31  1  0
  4 32  1  0
  8 33  1  0
  8 34  1  0
  9 35  1  0
  9 36  1  0
 10 37  1  0
 10 38  1  0
 11 39  1  0
 11 40  1  0
 12 41  1  6
 13 42  1  0
 13 43  1  0
 15 44  1  0
 15 45  1  0
 16 46  1  0
 16 47  1  0
 17 48  1  0
 17 49  1  0
 18 50  1  0
 18 51  1  0
 20 52  1  0
 21 53  1  0
 23 54  1  0
 26 55  1  0
 27 56  1  0
M  END
>  <smiles>  (47) 
O=C(NCC(=O)N1CCCC[C@H]1CN1CCCC1)c1ccc2cc(Cl)ccc2n1

>  <score_type>  (47) 
oracle

>  <origin>  (47) 
autodockgpu

>  <m_score__min__energy>  (47) 
-8.25

>  <m_primary>  (47) 
energy

>  <rmsd>  (47) 
2.894530180577717

>  <m_score__min__rmsd>  (47) 
2.894530180577717

>  <meeko>  (47) 
{"free_energy": -7.92, "intermolecular_energy": -9.71, "internal_energy": -1.52, "cluster_size": 25, "cluster_id": 1, "rank_in_cluster": 7}

>  <energy>  (47) 
-5.76

>  <cluster_rmsd>  (47) 
1.59

>  <cluster>  (47) 
6

$$$$

     RDKit          3D

 56 59  0  0  0  0  0  0  0  0999 V2000
  140.4550   72.4110  220.8600 O   0  0  0  0  0  0  0  0  0  0  0  0
  140.0420   72.7560  222.0060 C   0  0  0  0  0  0  0  0  0  0  0  0
  139.5580   74.0950  222.1150 N   0  0  0  0  0  0  0  0  0  0  0  0
  139.6060   74.8890  220.8910 C   0  0  0  0  0  0  0  0  0  0  0  0
  140.5360   76.0320  221.0040 C   0  0  0  0  0  0  0  0  0  0  0  0
  140.4130   76.9000  221.8990 O   0  0  0  0  0  0  0  0  0  0  0  0
  141.5870   76.1290  220.0680 N   0  0  0  0  0  0  0  0  0  0  0  0
  142.3750   77.3480  219.8590 C   0  0  0  0  0  0  0  0  0  0  0  0
  142.6570   77.6340  218.4180 C   0  0  0  0  0  0  0  0  0  0  0  0
  142.0330   76.7660  217.4000 C   0  0  0  0  0  0  0  0  0  0  0  0
  141.5560   75.4200  217.8330 C   0  0  0  0  0  0  0  0  0  0  0  0
  141.9800   75.0140  219.1870 C   0  0  1  0  0  0  0  0  0  0  0  0
  143.3700   74.5970  219.4110 C   0  0  0  0  0  0  0  0  0  0  0  0
  143.7370   74.0880  220.6970 N   0  0  0  0  0  0  0  0  0  0  0  0
  145.2140   74.0670  220.8330 C   0  0  0  0  0  0  0  0  0  0  0  0
  145.6060   73.1420  219.7130 C   0  0  0  0  0  0  0  0  0  0  0  0
  144.5290   72.0740  219.7950 C   0  0  0  0  0  0  0  0  0  0  0  0
  143.5530   72.6250  220.8180 C   0  0  0  0  0  0  0  0  0  0  0  0
  140.0690   71.8300  223.1310 C   0  0  0  0  0  0  0  0  0  0  0  0
  139.5790   70.5580  222.9260 C   0  0  0  0  0  0  0  0  0  0  0  0
  139.5560   69.5930  223.9110 C   0  0  0  0  0  0  0  0  0  0  0  0
  140.0670   69.9780  225.1520 C   0  0  0  0  0  0  0  0  0  0  0  0
  140.0700   69.0510  226.1760 C   0  0  0  0  0  0  0  0  0  0  0  0
  140.5630   69.3540  227.4470 C   0  0  0  0  0  0  0  0  0  0  0  0
  140.5610   68.1640  228.7370 Cl  0  0  0  0  0  0  0  0  0  0  0  0
  141.0460   70.6350  227.6160 C   0  0  0  0  0  0  0  0  0  0  0  0
  141.0550   71.5800  226.6100 C   0  0  0  0  0  0  0  0  0  0  0  0
  140.5610   71.2500  225.3670 C   0  0  0  0  0  0  0  0  0  0  0  0
  140.5540   72.1610  224.3470 N   0  0  0  0  0  0  0  0  0  0  0  0
  139.2010   74.4500  223.0190 H   0  0  0  0  0  0  0  0  0  0  0  0
  139.9359   74.2443  220.0631 H   0  0  0  0  0  0  0  0  0  0  0  0
  138.5981   75.2901  220.7085 H   0  0  0  0  0  0  0  0  0  0  0  0
  141.8197   78.1986  220.2810 H   0  0  0  0  0  0  0  0  0  0  0  0
  143.3448   77.1966  220.3556 H   0  0  0  0  0  0  0  0  0  0  0  0
  142.3234   78.6630  218.2182 H   0  0  0  0  0  0  0  0  0  0  0  0
  143.7360   77.4497  218.3094 H   0  0  0  0  0  0  0  0  0  0  0  0
  141.1654   77.3070  216.9944 H   0  0  0  0  0  0  0  0  0  0  0  0
  142.8393   76.5569  216.6815 H   0  0  0  0  0  0  0  0  0  0  0  0
  140.4563   75.4228  217.8062 H   0  0  0  0  0  0  0  0  0  0  0  0
  142.0079   74.6958  217.1392 H   0  0  0  0  0  0  0  0  0  0  0  0
  141.4780   74.0589  219.4009 H   0  0  0  0  0  0  0  0  0  0  0  0
  143.5943   73.8103  218.6756 H   0  0  0  0  0  0  0  0  0  0  0  0
  143.9462   75.5295  219.3190 H   0  0  0  0  0  0  0  0  0  0  0  0
  145.6444   75.0699  220.6950 H   0  0  0  0  0  0  0  0  0  0  0  0
  145.5684   73.7465  221.8238 H   0  0  0  0  0  0  0  0  0  0  0  0
  145.5841   73.6582  218.7419 H   0  0  0  0  0  0  0  0  0  0  0  0
  146.6293   72.7480  219.8003 H   0  0  0  0  0  0  0  0  0  0  0  0
  144.0388   71.9356  218.8200 H   0  0  0  0  0  0  0  0  0  0  0  0
  144.9274   71.0874  220.0742 H   0  0  0  0  0  0  0  0  0  0  0  0
  142.5200   72.3348  220.5756 H   0  0  0  0  0  0  0  0  0  0  0  0
  143.7318   72.2477  221.8357 H   0  0  0  0  0  0  0  0  0  0  0  0
  139.1881   70.3007  221.9305 H   0  0  0  0  0  0  0  0  0  0  0  0
  139.1597   68.5829  223.7302 H   0  0  0  0  0  0  0  0  0  0  0  0
  139.6720   68.0436  225.9845 H   0  0  0  0  0  0  0  0  0  0  0  0
  141.4439   70.9175  228.6018 H   0  0  0  0  0  0  0  0  0  0  0  0
  141.4531   72.5878  226.7991 H   0  0  0  0  0  0  0  0  0  0  0  0
  1  2  2  0
  2  3  1  0
  3  4  1  0
  4  5  1  0
  5  6  2  0
  5  7  1  0
  7  8  1  0
  8  9  1  0
  9 10  1  0
 10 11  1  0
 11 12  1  0
 12 13  1  0
 13 14  1  0
 14 15  1  0
 15 16  1  0
 16 17  1  0
 17 18  1  0
  2 19  1  0
 19 20  2  0
 20 21  1  0
 21 22  2  0
 22 23  1  0
 23 24  2  0
 24 25  1  0
 24 26  1  0
 26 27  2  0
 27 28  1  0
 28 29  2  0
 12  7  1  0
 18 14  1  0
 29 19  1  0
 28 22  1  0
  3 30  1  0
  4 31  1  0
  4 32  1  0
  8 33  1  0
  8 34  1  0
  9 35  1  0
  9 36  1  0
 10 37  1  0
 10 38  1  0
 11 39  1  0
 11 40  1  0
 12 41  1  1
 13 42  1  0
 13 43  1  0
 15 44  1  0
 15 45  1  0
 16 46  1  0
 16 47  1  0
 17 48  1  0
 17 49  1  0
 18 50  1  0
 18 51  1  0
 20 52  1  0
 21 53  1  0
 23 54  1  0
 26 55  1  0
 27 56  1  0
M  END
>  <smiles>  (48) 
O=C(NCC(=O)N1CCCC[C@H]1CN1CCCC1)c1ccc2cc(Cl)ccc2n1

>  <score_type>  (48) 
oracle

>  <origin>  (48) 
autodockgpu

>  <m_score__min__energy>  (48) 
-8.25

>  <m_primary>  (48) 
energy

>  <rmsd>  (48) 
4.2461122995421245

>  <m_score__min__rmsd>  (48) 
4.2461122995421245

>  <meeko>  (48) 
{"free_energy": -7.58, "intermolecular_energy": -9.37, "internal_energy": -2.01, "cluster_size": 3, "cluster_id": 4, "rank_in_cluster": 3}

>  <energy>  (48) 
-5.73

>  <cluster_rmsd>  (48) 
1.69

>  <cluster>  (48) 
6

$$$$

     RDKit          3D

 56 59  0  0  0  0  0  0  0  0999 V2000
  139.8820   72.3570  220.8040 O   0  0  0  0  0  0  0  0  0  0  0  0
  139.7680   72.7630  221.9980 C   0  0  0  0  0  0  0  0  0  0  0  0
  139.5240   74.1600  222.1580 N   0  0  0  0  0  0  0  0  0  0  0  0
  139.4400   74.9370  220.9250 C   0  0  0  0  0  0  0  0  0  0  0  0
  139.3920   76.3900  221.1830 C   0  0  0  0  0  0  0  0  0  0  0  0
  138.6290   76.8850  222.0450 O   0  0  0  0  0  0  0  0  0  0  0  0
  140.2380   77.2290  220.4270 N   0  0  0  0  0  0  0  0  0  0  0  0
  139.8460   77.8390  219.1540 C   0  0  0  0  0  0  0  0  0  0  0  0
  140.9280   77.8110  218.1220 C   0  0  0  0  0  0  0  0  0  0  0  0
  142.1770   77.0920  218.4420 C   0  0  0  0  0  0  0  0  0  0  0  0
  142.4850   76.8410  219.8790 C   0  0  0  0  0  0  0  0  0  0  0  0
  141.6170   77.5530  220.8370 C   0  0  1  0  0  0  0  0  0  0  0  0
  141.8070   78.9950  221.0460 C   0  0  0  0  0  0  0  0  0  0  0  0
  140.8400   79.7110  221.8200 N   0  0  0  0  0  0  0  0  0  0  0  0
  141.4690   80.8980  222.4490 C   0  0  0  0  0  0  0  0  0  0  0  0
  142.5320   80.2580  223.3000 C   0  0  0  0  0  0  0  0  0  0  0  0
  141.8060   79.0410  223.8470 C   0  0  0  0  0  0  0  0  0  0  0  0
  140.4930   79.0330  223.0880 C   0  0  0  0  0  0  0  0  0  0  0  0
  139.8840   71.8450  223.1240 C   0  0  0  0  0  0  0  0  0  0  0  0
  139.4680   70.5440  222.9360 C   0  0  0  0  0  0  0  0  0  0  0  0
  139.5330   69.5840  223.9240 C   0  0  0  0  0  0  0  0  0  0  0  0
  140.0530   70.0050  225.1480 C   0  0  0  0  0  0  0  0  0  0  0  0
  140.1440   69.0850  226.1740 C   0  0  0  0  0  0  0  0  0  0  0  0
  140.6520   69.4230  227.4300 C   0  0  0  0  0  0  0  0  0  0  0  0
  140.7600   68.2400  228.7230 Cl  0  0  0  0  0  0  0  0  0  0  0  0
  141.0590   70.7320  227.5820 C   0  0  0  0  0  0  0  0  0  0  0  0
  140.9810   71.6720  226.5740 C   0  0  0  0  0  0  0  0  0  0  0  0
  140.4730   71.3060  225.3460 C   0  0  0  0  0  0  0  0  0  0  0  0
  140.3810   72.2100  224.3250 N   0  0  0  0  0  0  0  0  0  0  0  0
  139.4170   74.5670  223.1040 H   0  0  0  0  0  0  0  0  0  0  0  0
  140.3223   74.7161  220.3064 H   0  0  0  0  0  0  0  0  0  0  0  0
  138.5094   74.6546  220.4109 H   0  0  0  0  0  0  0  0  0  0  0  0
  138.9750   77.2945  218.7604 H   0  0  0  0  0  0  0  0  0  0  0  0
  139.6195   78.8960  219.3574 H   0  0  0  0  0  0  0  0  0  0  0  0
  140.5058   77.3459  217.2190 H   0  0  0  0  0  0  0  0  0  0  0  0
  141.2361   78.8621  218.0207 H   0  0  0  0  0  0  0  0  0  0  0  0
  142.1305   76.1140  217.9406 H   0  0  0  0  0  0  0  0  0  0  0  0
  142.9787   77.7628  218.0995 H   0  0  0  0  0  0  0  0  0  0  0  0
  142.3856   75.7615  220.0657 H   0  0  0  0  0  0  0  0  0  0  0  0
  143.5035   77.2214  220.0459 H   0  0  0  0  0  0  0  0  0  0  0  0
  141.8951   77.1963  221.8397 H   0  0  0  0  0  0  0  0  0  0  0  0
  142.7797   79.1246  221.5432 H   0  0  0  0  0  0  0  0  0  0  0  0
  141.7134   79.4253  220.0380 H   0  0  0  0  0  0  0  0  0  0  0  0
  141.9074   81.5677  221.6945 H   0  0  0  0  0  0  0  0  0  0  0  0
  140.7675   81.5333  223.0097 H   0  0  0  0  0  0  0  0  0  0  0  0
  143.4046   79.9658  222.6974 H   0  0  0  0  0  0  0  0  0  0  0  0
  142.9364   80.9212  224.0789 H   0  0  0  0  0  0  0  0  0  0  0  0
  142.3780   78.1222  223.6506 H   0  0  0  0  0  0  0  0  0  0  0  0
  141.6673   79.0823  224.9374 H   0  0  0  0  0  0  0  0  0  0  0  0
  140.1478   78.0047  222.9053 H   0  0  0  0  0  0  0  0  0  0  0  0
  139.6733   79.5241  223.6329 H   0  0  0  0  0  0  0  0  0  0  0  0
  139.0658   70.2586  221.9528 H   0  0  0  0  0  0  0  0  0  0  0  0
  139.1957   68.5504  223.7572 H   0  0  0  0  0  0  0  0  0  0  0  0
  139.8057   68.0535  225.9962 H   0  0  0  0  0  0  0  0  0  0  0  0
  141.4663   71.0426  228.5555 H   0  0  0  0  0  0  0  0  0  0  0  0
  141.3210   72.7034  226.7491 H   0  0  0  0  0  0  0  0  0  0  0  0
  1  2  2  0
  2  3  1  0
  3  4  1  0
  4  5  1  0
  5  6  2  0
  5  7  1  0
  7  8  1  0
  8  9  1  0
  9 10  1  0
 10 11  1  0
 11 12  1  0
 12 13  1  0
 13 14  1  0
 14 15  1  0
 15 16  1  0
 16 17  1  0
 17 18  1  0
  2 19  1  0
 19 20  2  0
 20 21  1  0
 21 22  2  0
 22 23  1  0
 23 24  2  0
 24 25  1  0
 24 26  1  0
 26 27  2  0
 27 28  1  0
 28 29  2  0
 12  7  1  0
 18 14  1  0
 29 19  1  0
 28 22  1  0
  3 30  1  0
  4 31  1  0
  4 32  1  0
  8 33  1  0
  8 34  1  0
  9 35  1  0
  9 36  1  0
 10 37  1  0
 10 38  1  0
 11 39  1  0
 11 40  1  0
 12 41  1  1
 13 42  1  0
 13 43  1  0
 15 44  1  0
 15 45  1  0
 16 46  1  0
 16 47  1  0
 17 48  1  0
 17 49  1  0
 18 50  1  0
 18 51  1  0
 20 52  1  0
 21 53  1  0
 23 54  1  0
 26 55  1  0
 27 56  1  0
M  END
>  <smiles>  (49) 
O=C(NCC(=O)N1CCCC[C@H]1CN1CCCC1)c1ccc2cc(Cl)ccc2n1

>  <score_type>  (49) 
oracle

>  <origin>  (49) 
autodockgpu

>  <m_score__min__energy>  (49) 
-8.25

>  <m_primary>  (49) 
energy

>  <rmsd>  (49) 
2.379402088760665

>  <m_score__min__rmsd>  (49) 
2.379402088760665

>  <meeko>  (49) 
{"free_energy": -8.13, "intermolecular_energy": -9.92, "internal_energy": -1.74, "cluster_size": 25, "cluster_id": 1, "rank_in_cluster": 3}

>  <energy>  (49) 
-5.99

>  <cluster_rmsd>  (49) 
0.0

>  <cluster>  (49) 
7

$$$$

     RDKit          3D

 56 59  0  0  0  0  0  0  0  0999 V2000
  138.6030   74.4440  222.0730 O   0  0  0  0  0  0  0  0  0  0  0  0
  139.8000   74.8120  221.8880 C   0  0  0  0  0  0  0  0  0  0  0  0
  140.0900   76.1710  222.2150 N   0  0  0  0  0  0  0  0  0  0  0  0
  138.9670   76.9570  222.7160 C   0  0  0  0  0  0  0  0  0  0  0  0
  139.2390   78.4090  222.6730 C   0  0  0  0  0  0  0  0  0  0  0  0
  138.3520   79.2570  222.9280 O   0  0  0  0  0  0  0  0  0  0  0  0
  140.5410   78.8320  222.3330 N   0  0  0  0  0  0  0  0  0  0  0  0
  141.7030   78.6540  223.2090 C   0  0  0  0  0  0  0  0  0  0  0  0
  142.6100   79.8430  223.2420 C   0  0  0  0  0  0  0  0  0  0  0  0
  142.1910   81.0600  222.5190 C   0  0  0  0  0  0  0  0  0  0  0  0
  141.1640   80.9110  221.4470 C   0  0  0  0  0  0  0  0  0  0  0  0
  140.8550   79.5190  221.0670 C   0  0  1  0  0  0  0  0  0  0  0  0
  141.8180   78.7650  220.2540 C   0  0  0  0  0  0  0  0  0  0  0  0
  141.7410   77.3360  220.2440 N   0  0  0  0  0  0  0  0  0  0  0  0
  142.9680   76.7640  219.6380 C   0  0  0  0  0  0  0  0  0  0  0  0
  142.9230   77.3540  218.2550 C   0  0  0  0  0  0  0  0  0  0  0  0
  141.4440   77.2590  217.9200 C   0  0  0  0  0  0  0  0  0  0  0  0
  140.8090   76.8110  219.2230 C   0  0  0  0  0  0  0  0  0  0  0  0
  140.8050   73.8900  221.3730 C   0  0  0  0  0  0  0  0  0  0  0  0
  140.4170   72.5900  221.1290 C   0  0  0  0  0  0  0  0  0  0  0  0
  141.2760   71.6300  220.6370 C   0  0  0  0  0  0  0  0  0  0  0  0
  142.5840   72.0500  220.3920 C   0  0  0  0  0  0  0  0  0  0  0  0
  143.4870   71.1300  219.8970 C   0  0  0  0  0  0  0  0  0  0  0  0
  144.8150   71.4680  219.6250 C   0  0  0  0  0  0  0  0  0  0  0  0
  145.9490   70.2860  218.9950 Cl  0  0  0  0  0  0  0  0  0  0  0  0
  145.1680   72.7760  219.8810 C   0  0  0  0  0  0  0  0  0  0  0  0
  144.2850   73.7160  220.3750 C   0  0  0  0  0  0  0  0  0  0  0  0
  142.9820   73.3510  220.6340 C   0  0  0  0  0  0  0  0  0  0  0  0
  142.0810   74.2550  221.1230 N   0  0  0  0  0  0  0  0  0  0  0  0
  141.0470   76.5460  222.0940 H   0  0  0  0  0  0  0  0  0  0  0  0
  138.0819   76.7439  222.0986 H   0  0  0  0  0  0  0  0  0  0  0  0
  138.7995   76.6756  223.7661 H   0  0  0  0  0  0  0  0  0  0  0  0
  141.3433   78.4615  224.2305 H   0  0  0  0  0  0  0  0  0  0  0  0
  142.2861   77.8119  222.8078 H   0  0  0  0  0  0  0  0  0  0  0  0
  142.7451   80.1210  224.2977 H   0  0  0  0  0  0  0  0  0  0  0  0
  143.5154   79.5100  222.7135 H   0  0  0  0  0  0  0  0  0  0  0  0
  141.7889   81.7625  223.2638 H   0  0  0  0  0  0  0  0  0  0  0  0
  143.0963   81.3957  221.9919 H   0  0  0  0  0  0  0  0  0  0  0  0
  140.2344   81.3832  221.7974 H   0  0  0  0  0  0  0  0  0  0  0  0
  141.5855   81.3877  220.5498 H   0  0  0  0  0  0  0  0  0  0  0  0
  140.0229   79.5651  220.3490 H   0  0  0  0  0  0  0  0  0  0  0  0
  141.6977   79.1027  219.2140 H   0  0  0  0  0  0  0  0  0  0  0  0
  142.7886   78.9761  220.7267 H   0  0  0  0  0  0  0  0  0  0  0  0
  143.8701   77.0819  220.1812 H   0  0  0  0  0  0  0  0  0  0  0  0
  143.0062   75.6648  219.6555 H   0  0  0  0  0  0  0  0  0  0  0  0
  143.2667   78.3989  218.2547 H   0  0  0  0  0  0  0  0  0  0  0  0
  143.5755   76.8419  217.5325 H   0  0  0  0  0  0  0  0  0  0  0  0
  141.0490   78.2367  217.6068 H   0  0  0  0  0  0  0  0  0  0  0  0
  141.2387   76.5710  217.0867 H   0  0  0  0  0  0  0  0  0  0  0  0
  139.8053   77.2446  219.3435 H   0  0  0  0  0  0  0  0  0  0  0  0
  140.6669   75.7219  219.2844 H   0  0  0  0  0  0  0  0  0  0  0  0
  139.3748   72.3055  221.3362 H   0  0  0  0  0  0  0  0  0  0  0  0
  140.9501   70.5963  220.4491 H   0  0  0  0  0  0  0  0  0  0  0  0
  143.1504   70.0994  219.7112 H   0  0  0  0  0  0  0  0  0  0  0  0
  146.2044   73.0862  219.6819 H   0  0  0  0  0  0  0  0  0  0  0  0
  144.6193   74.7475  220.5601 H   0  0  0  0  0  0  0  0  0  0  0  0
  1  2  2  0
  2  3  1  0
  3  4  1  0
  4  5  1  0
  5  6  2  0
  5  7  1  0
  7  8  1  0
  8  9  1  0
  9 10  1  0
 10 11  1  0
 11 12  1  0
 12 13  1  0
 13 14  1  0
 14 15  1  0
 15 16  1  0
 16 17  1  0
 17 18  1  0
  2 19  1  0
 19 20  2  0
 20 21  1  0
 21 22  2  0
 22 23  1  0
 23 24  2  0
 24 25  1  0
 24 26  1  0
 26 27  2  0
 27 28  1  0
 28 29  2  0
 12  7  1  0
 18 14  1  0
 29 19  1  0
 28 22  1  0
  3 30  1  0
  4 31  1  0
  4 32  1  0
  8 33  1  0
  8 34  1  0
  9 35  1  0
  9 36  1  0
 10 37  1  0
 10 38  1  0
 11 39  1  0
 11 40  1  0
 12 41  1  6
 13 42  1  0
 13 43  1  0
 15 44  1  0
 15 45  1  0
 16 46  1  0
 16 47  1  0
 17 48  1  0
 17 49  1  0
 18 50  1  0
 18 51  1  0
 20 52  1  0
 21 53  1  0
 23 54  1  0
 26 55  1  0
 27 56  1  0
M  END
>  <smiles>  (50) 
O=C(NCC(=O)N1CCCC[C@H]1CN1CCCC1)c1ccc2cc(Cl)ccc2n1

>  <score_type>  (50) 
oracle

>  <origin>  (50) 
autodockgpu

>  <m_score__min__energy>  (50) 
-8.25

>  <m_primary>  (50) 
energy

>  <rmsd>  (50) 
5.810707214685456

>  <m_score__min__rmsd>  (50) 
5.810707214685456

>  <meeko>  (50) 
{"free_energy": -6.06, "intermolecular_energy": -7.85, "internal_energy": -3.22, "cluster_size": 15, "cluster_id": 6, "rank_in_cluster": 11}

>  <energy>  (50) 
-5.97

>  <cluster_rmsd>  (50) 
0.0

>  <cluster>  (50) 
8

$$$$
