
     RDKit          3D

 55 58  0  0  0  0  0  0  0  0999 V2000
  135.0430   68.5120  225.0260 O   0  0  0  0  0  0  0  0  0  0  0  0
  135.5260   69.6670  224.9800 C   0  0  0  0  0  0  0  0  0  0  0  0
  136.7860   69.9830  224.4060 N   0  0  0  0  0  0  0  0  0  0  0  0
  137.6220   68.9190  223.8130 C   0  0  0  0  0  0  0  0  0  0  0  0
  138.7690   68.7250  224.6860 C   0  0  0  0  0  0  0  0  0  0  0  0
  139.2430   67.5330  224.7630 O   0  0  0  0  0  0  0  0  0  0  0  0
  139.4390   69.6860  225.4730 N   0  0  0  0  0  0  0  0  0  0  0  0
  139.9010   69.2990  226.8380 C   0  0  0  0  0  0  0  0  0  0  0  0
  140.6670   70.4790  227.3360 C   0  0  0  0  0  0  0  0  0  0  0  0
  141.0950   71.1650  226.0770 C   0  0  0  0  0  0  0  0  0  0  0  0
  139.7970   71.0570  225.2580 C   0  0  1  0  0  0  0  0  0  0  0  0
  140.0430   71.4660  223.8440 C   0  0  0  0  0  0  0  0  0  0  0  0
  138.8310   71.8300  223.2770 O   0  0  0  0  0  0  0  0  0  0  0  0
  138.9340   72.3570  222.0110 C   0  0  0  0  0  0  0  0  0  0  0  0
  139.4730   73.7330  221.9600 C   0  0  0  0  0  0  0  0  0  0  0  0
  140.8060   73.8760  221.5940 C   0  0  0  0  0  0  0  0  0  0  0  0
  141.4270   75.1040  221.5090 C   0  0  0  0  0  0  0  0  0  0  0  0
  140.6630   76.2110  221.8070 C   0  0  0  0  0  0  0  0  0  0  0  0
  139.3450   76.0880  222.1690 C   0  0  0  0  0  0  0  0  0  0  0  0
  138.7210   74.8490  222.2540 C   0  0  0  0  0  0  0  0  0  0  0  0
  134.7420   70.7590  225.5550 C   0  0  0  0  0  0  0  0  0  0  0  0
  133.6840   70.5280  226.4110 C   0  0  0  0  0  0  0  0  0  0  0  0
  132.9230   71.5260  226.9710 C   0  0  0  0  0  0  0  0  0  0  0  0
  133.2200   72.8380  226.6720 C   0  0  0  0  0  0  0  0  0  0  0  0
  132.4620   73.8460  227.2280 C   0  0  0  0  0  0  0  0  0  0  0  0
  132.7960   75.1430  226.9000 C   0  0  0  0  0  0  0  0  0  0  0  0
  131.8520   76.4520  227.5910 Cl  0  0  0  0  0  0  0  0  0  0  0  0
  133.8410   75.4450  226.0510 C   0  0  0  0  0  0  0  0  0  0  0  0
  134.5770   74.3940  225.5130 C   0  0  0  0  0  0  0  0  0  0  0  0
  134.2780   73.0720  225.8150 C   0  0  0  0  0  0  0  0  0  0  0  0
  135.0110   72.0600  225.2780 N   0  0  0  0  0  0  0  0  0  0  0  0
  137.1530   70.9770  224.3880 H   0  0  0  0  0  0  0  0  0  0  0  0
  137.0447   67.9856  223.7387 H   0  0  0  0  0  0  0  0  0  0  0  0
  137.9490   69.2023  222.8017 H   0  0  0  0  0  0  0  0  0  0  0  0
  139.0416   69.0917  227.4926 H   0  0  0  0  0  0  0  0  0  0  0  0
  140.5134   68.3854  226.8231 H   0  0  0  0  0  0  0  0  0  0  0  0
  140.0283   71.1354  227.9453 H   0  0  0  0  0  0  0  0  0  0  0  0
  141.5111   70.2027  227.9850 H   0  0  0  0  0  0  0  0  0  0  0  0
  141.3768   72.2126  226.2587 H   0  0  0  0  0  0  0  0  0  0  0  0
  141.9842   70.7336  225.5941 H   0  0  0  0  0  0  0  0  0  0  0  0
  138.9710   71.7237  225.5467 H   0  0  0  0  0  0  0  0  0  0  0  0
  140.7361   72.3198  223.8193 H   0  0  0  0  0  0  0  0  0  0  0  0
  140.4886   70.6325  223.2813 H   0  0  0  0  0  0  0  0  0  0  0  0
  139.5968   71.7066  221.4213 H   0  0  0  0  0  0  0  0  0  0  0  0
  137.9111   72.4074  221.6096 H   0  0  0  0  0  0  0  0  0  0  0  0
  141.3894   72.9726  221.3627 H   0  0  0  0  0  0  0  0  0  0  0  0
  142.4835   75.1956  221.2168 H   0  0  0  0  0  0  0  0  0  0  0  0
  141.1175   77.2113  221.7538 H   0  0  0  0  0  0  0  0  0  0  0  0
  138.7664   76.9950  222.3982 H   0  0  0  0  0  0  0  0  0  0  0  0
  137.6639   74.7627  222.5457 H   0  0  0  0  0  0  0  0  0  0  0  0
  133.4358   69.4855  226.6591 H   0  0  0  0  0  0  0  0  0  0  0  0
  132.0903   71.2815  227.6469 H   0  0  0  0  0  0  0  0  0  0  0  0
  131.6245   73.6247  227.9060 H   0  0  0  0  0  0  0  0  0  0  0  0
  134.0857   76.4891  225.8060 H   0  0  0  0  0  0  0  0  0  0  0  0
  135.4136   74.6150  224.8339 H   0  0  0  0  0  0  0  0  0  0  0  0
  1  2  2  0
  2  3  1  0
  3  4  1  0
  4  5  1  0
  5  6  2  0
  5  7  1  0
  7  8  1  0
  8  9  1  0
  9 10  1  0
 10 11  1  0
 11 12  1  0
 12 13  1  0
 13 14  1  0
 14 15  1  0
 15 16  2  0
 16 17  1  0
 17 18  2  0
 18 19  1  0
 19 20  2  0
  2 21  1  0
 21 22  2  0
 22 23  1  0
 23 24  2  0
 24 25  1  0
 25 26  2  0
 26 27  1  0
 26 28  1  0
 28 29  2  0
 29 30  1  0
 30 31  2  0
 11  7  1  0
 20 15  1  0
 31 21  1  0
 30 24  1  0
  3 32  1  0
  4 33  1  0
  4 34  1  0
  8 35  1  0
  8 36  1  0
  9 37  1  0
  9 38  1  0
 10 39  1  0
 10 40  1  0
 11 41  1  1
 12 42  1  0
 12 43  1  0
 14 44  1  0
 14 45  1  0
 16 46  1  0
 17 47  1  0
 18 48  1  0
 19 49  1  0
 20 50  1  0
 22 51  1  0
 23 52  1  0
 25 53  1  0
 28 54  1  0
 29 55  1  0
M  END
>  <smiles>  (1) 
O=C(NCC(=O)N1CCC[C@H]1COCc1ccccc1)c1ccc2cc(Cl)ccc2n1

>  <score_type>  (1) 
oracle

>  <origin>  (1) 
autodockgpu

>  <m_score__min__energy>  (1) 
-9.1699999999999999

>  <m_primary>  (1) 
energy

>  <rmsd>  (1) 
8.01915432401036

>  <m_score__min__rmsd>  (1) 
8.01915432401036

>  <meeko>  (1) 
{"free_energy": -7.76, "intermolecular_energy": -10.15, "internal_energy": -2.62, "cluster_size": 3, "cluster_id": 5, "rank_in_cluster": 1}

>  <energy>  (1) 
-9.17

>  <cluster_rmsd>  (1) 
0.0

>  <cluster>  (1) 
1

$$$$

     RDKit          3D

 55 58  0  0  0  0  0  0  0  0999 V2000
  140.3660   72.1830  220.8210 O   0  0  0  0  0  0  0  0  0  0  0  0
  139.8810   72.5450  221.9180 C   0  0  0  0  0  0  0  0  0  0  0  0
  139.2790   73.8110  222.1450 N   0  0  0  0  0  0  0  0  0  0  0  0
  139.1930   74.8030  221.0520 C   0  0  0  0  0  0  0  0  0  0  0  0
  139.2820   76.1250  221.6520 C   0  0  0  0  0  0  0  0  0  0  0  0
  138.4670   76.3800  222.6130 O   0  0  0  0  0  0  0  0  0  0  0  0
  140.1550   77.1800  221.3130 N   0  0  0  0  0  0  0  0  0  0  0  0
  140.8320   77.9320  222.4110 C   0  0  0  0  0  0  0  0  0  0  0  0
  141.7620   78.8710  221.7200 C   0  0  0  0  0  0  0  0  0  0  0  0
  142.0000   78.2080  220.4000 C   0  0  0  0  0  0  0  0  0  0  0  0
  140.5680   77.7530  220.0660 C   0  0  1  0  0  0  0  0  0  0  0  0
  140.5790   76.8400  218.8860 C   0  0  0  0  0  0  0  0  0  0  0  0
  141.1840   75.6500  219.2610 O   0  0  0  0  0  0  0  0  0  0  0  0
  142.4340   75.4540  218.7210 C   0  0  0  0  0  0  0  0  0  0  0  0
  143.2990   74.5340  219.4920 C   0  0  0  0  0  0  0  0  0  0  0  0
  142.9060   73.2030  219.5560 C   0  0  0  0  0  0  0  0  0  0  0  0
  143.6240   72.2470  220.2430 C   0  0  0  0  0  0  0  0  0  0  0  0
  144.7730   72.6670  220.8780 C   0  0  0  0  0  0  0  0  0  0  0  0
  145.1750   73.9790  220.8240 C   0  0  0  0  0  0  0  0  0  0  0  0
  144.4490   74.9400  220.1320 C   0  0  0  0  0  0  0  0  0  0  0  0
  139.9410   71.6040  223.0350 C   0  0  0  0  0  0  0  0  0  0  0  0
  139.5020   70.3010  222.9180 C   0  0  0  0  0  0  0  0  0  0  0  0
  139.5420   69.3880  223.9450 C   0  0  0  0  0  0  0  0  0  0  0  0
  140.0450   69.7790  225.1670 C   0  0  0  0  0  0  0  0  0  0  0  0
  140.0890   68.8700  226.2020 C   0  0  0  0  0  0  0  0  0  0  0  0
  140.6010   69.3070  227.4050 C   0  0  0  0  0  0  0  0  0  0  0  0
  140.6710   68.1750  228.7450 Cl  0  0  0  0  0  0  0  0  0  0  0  0
  141.0570   70.5950  227.5900 C   0  0  0  0  0  0  0  0  0  0  0  0
  140.9930   71.4770  226.5170 C   0  0  0  0  0  0  0  0  0  0  0  0
  140.4850   71.0840  225.2860 C   0  0  0  0  0  0  0  0  0  0  0  0
  140.4320   71.9620  224.2490 N   0  0  0  0  0  0  0  0  0  0  0  0
  138.8800   74.0730  223.0910 H   0  0  0  0  0  0  0  0  0  0  0  0
  140.0224   74.6551  220.3448 H   0  0  0  0  0  0  0  0  0  0  0  0
  138.2475   74.6909  220.5012 H   0  0  0  0  0  0  0  0  0  0  0  0
  140.0956   78.4881  223.0098 H   0  0  0  0  0  0  0  0  0  0  0  0
  141.3614   77.2624  223.1048 H   0  0  0  0  0  0  0  0  0  0  0  0
  141.2976   79.8592  221.5869 H   0  0  0  0  0  0  0  0  0  0  0  0
  142.6885   79.0532  222.2842 H   0  0  0  0  0  0  0  0  0  0  0  0
  142.3883   78.9152  219.6523 H   0  0  0  0  0  0  0  0  0  0  0  0
  142.7498   77.4032  220.4148 H   0  0  0  0  0  0  0  0  0  0  0  0
  139.8614   78.5320  219.7437 H   0  0  0  0  0  0  0  0  0  0  0  0
  139.5476   76.6452  218.5570 H   0  0  0  0  0  0  0  0  0  0  0  0
  141.1333   77.3013  218.0554 H   0  0  0  0  0  0  0  0  0  0  0  0
  142.3100   75.0414  217.7089 H   0  0  0  0  0  0  0  0  0  0  0  0
  142.9347   76.4334  218.7284 H   0  0  0  0  0  0  0  0  0  0  0  0
  141.9846   72.8994  219.0375 H   0  0  0  0  0  0  0  0  0  0  0  0
  143.2951   71.1981  220.2824 H   0  0  0  0  0  0  0  0  0  0  0  0
  145.3784   71.9388  221.4376 H   0  0  0  0  0  0  0  0  0  0  0  0
  146.0977   74.2772  221.3433 H   0  0  0  0  0  0  0  0  0  0  0  0
  144.7808   75.9882  220.0964 H   0  0  0  0  0  0  0  0  0  0  0  0
  139.0974   69.9746  221.9486 H   0  0  0  0  0  0  0  0  0  0  0  0
  139.1781   68.3610  223.7937 H   0  0  0  0  0  0  0  0  0  0  0  0
  139.7303   67.8381  226.0734 H   0  0  0  0  0  0  0  0  0  0  0  0
  141.4610   70.9165  228.5613 H   0  0  0  0  0  0  0  0  0  0  0  0
  141.3526   72.5085  226.6462 H   0  0  0  0  0  0  0  0  0  0  0  0
  1  2  2  0
  2  3  1  0
  3  4  1  0
  4  5  1  0
  5  6  2  0
  5  7  1  0
  7  8  1  0
  8  9  1  0
  9 10  1  0
 10 11  1  0
 11 12  1  0
 12 13  1  0
 13 14  1  0
 14 15  1  0
 15 16  2  0
 16 17  1  0
 17 18  2  0
 18 19  1  0
 19 20  2  0
  2 21  1  0
 21 22  2  0
 22 23  1  0
 23 24  2  0
 24 25  1  0
 25 26  2  0
 26 27  1  0
 26 28  1  0
 28 29  2  0
 29 30  1  0
 30 31  2  0
 11  7  1  0
 20 15  1  0
 31 21  1  0
 30 24  1  0
  3 32  1  0
  4 33  1  0
  4 34  1  0
  8 35  1  0
  8 36  1  0
  9 37  1  0
  9 38  1  0
 10 39  1  0
 10 40  1  0
 11 41  1  6
 12 42  1  0
 12 43  1  0
 14 44  1  0
 14 45  1  0
 16 46  1  0
 17 47  1  0
 18 48  1  0
 19 49  1  0
 20 50  1  0
 22 51  1  0
 23 52  1  0
 25 53  1  0
 28 54  1  0
 29 55  1  0
M  END
>  <smiles>  (2) 
O=C(NCC(=O)N1CCC[C@H]1COCc1ccccc1)c1ccc2cc(Cl)ccc2n1

>  <score_type>  (2) 
oracle

>  <origin>  (2) 
autodockgpu

>  <m_score__min__energy>  (2) 
-9.1699999999999999

>  <m_primary>  (2) 
energy

>  <rmsd>  (2) 
2.6330761381888372

>  <m_score__min__rmsd>  (2) 
2.6330761381888372

>  <meeko>  (2) 
{"free_energy": -7.89, "intermolecular_energy": -10.28, "internal_energy": -2.46, "cluster_size": 14, "cluster_id": 3, "rank_in_cluster": 7}

>  <energy>  (2) 
-8.74

>  <cluster_rmsd>  (2) 
1.4

>  <cluster>  (2) 
1

$$$$

     RDKit          3D

 55 58  0  0  0  0  0  0  0  0999 V2000
  140.1720   72.3820  220.6800 O   0  0  0  0  0  0  0  0  0  0  0  0
  139.9690   72.8370  221.8300 C   0  0  0  0  0  0  0  0  0  0  0  0
  139.7060   74.2030  222.1120 N   0  0  0  0  0  0  0  0  0  0  0  0
  139.6590   75.1950  221.0160 C   0  0  0  0  0  0  0  0  0  0  0  0
  139.5860   76.5150  221.6240 C   0  0  0  0  0  0  0  0  0  0  0  0
  139.2230   76.5660  222.8560 O   0  0  0  0  0  0  0  0  0  0  0  0
  139.8630   77.7650  221.0300 N   0  0  0  0  0  0  0  0  0  0  0  0
  138.9620   78.9170  221.3300 C   0  0  0  0  0  0  0  0  0  0  0  0
  139.5990   80.0890  220.6620 C   0  0  0  0  0  0  0  0  0  0  0  0
  141.0360   79.6880  220.5640 C   0  0  0  0  0  0  0  0  0  0  0  0
  140.8780   78.2220  220.1270 C   0  0  1  0  0  0  0  0  0  0  0  0
  142.1920   77.5180  220.1930 C   0  0  0  0  0  0  0  0  0  0  0  0
  142.0720   76.3060  219.5300 O   0  0  0  0  0  0  0  0  0  0  0  0
  143.2610   75.7930  219.0660 C   0  0  0  0  0  0  0  0  0  0  0  0
  143.7430   74.6010  219.7980 C   0  0  0  0  0  0  0  0  0  0  0  0
  142.9230   73.4800  219.7880 C   0  0  0  0  0  0  0  0  0  0  0  0
  143.2560   72.3080  220.4320 C   0  0  0  0  0  0  0  0  0  0  0  0
  144.4610   72.2850  221.1010 C   0  0  0  0  0  0  0  0  0  0  0  0
  145.2830   73.3840  221.1200 C   0  0  0  0  0  0  0  0  0  0  0  0
  144.9440   74.5640  220.4700 C   0  0  0  0  0  0  0  0  0  0  0  0
  140.0060   71.9000  222.9520 C   0  0  0  0  0  0  0  0  0  0  0  0
  139.5490   70.6030  222.8370 C   0  0  0  0  0  0  0  0  0  0  0  0
  139.5680   69.6940  223.8680 C   0  0  0  0  0  0  0  0  0  0  0  0
  140.0670   70.0830  225.0920 C   0  0  0  0  0  0  0  0  0  0  0  0
  140.0900   69.1790  226.1310 C   0  0  0  0  0  0  0  0  0  0  0  0
  140.5980   69.6130  227.3370 C   0  0  0  0  0  0  0  0  0  0  0  0
  140.6420   68.4870  228.6830 Cl  0  0  0  0  0  0  0  0  0  0  0  0
  141.0720   70.8960  227.5200 C   0  0  0  0  0  0  0  0  0  0  0  0
  141.0290   71.7740  226.4420 C   0  0  0  0  0  0  0  0  0  0  0  0
  140.5250   71.3820  225.2090 C   0  0  0  0  0  0  0  0  0  0  0  0
  140.4920   72.2560  224.1680 N   0  0  0  0  0  0  0  0  0  0  0  0
  139.5380   74.5420  223.1020 H   0  0  0  0  0  0  0  0  0  0  0  0
  140.5657   75.1156  220.3984 H   0  0  0  0  0  0  0  0  0  0  0  0
  138.7869   75.0173  220.3696 H   0  0  0  0  0  0  0  0  0  0  0  0
  137.9566   78.7382  220.9212 H   0  0  0  0  0  0  0  0  0  0  0  0
  138.8386   79.0745  222.4117 H   0  0  0  0  0  0  0  0  0  0  0  0
  139.1675   80.2567  219.6642 H   0  0  0  0  0  0  0  0  0  0  0  0
  139.4508   81.0309  221.2105 H   0  0  0  0  0  0  0  0  0  0  0  0
  141.5747   80.2821  219.8111 H   0  0  0  0  0  0  0  0  0  0  0  0
  141.6208   79.8357  221.4839 H   0  0  0  0  0  0  0  0  0  0  0  0
  140.5784   78.0449  219.0835 H   0  0  0  0  0  0  0  0  0  0  0  0
  142.9668   78.1311  219.7094 H   0  0  0  0  0  0  0  0  0  0  0  0
  142.4784   77.3489  221.2415 H   0  0  0  0  0  0  0  0  0  0  0  0
  143.1268   75.5164  218.0098 H   0  0  0  0  0  0  0  0  0  0  0  0
  144.0182   76.5773  219.2128 H   0  0  0  0  0  0  0  0  0  0  0  0
  141.9685   73.5297  219.2436 H   0  0  0  0  0  0  0  0  0  0  0  0
  142.5912   71.4318  220.4131 H   0  0  0  0  0  0  0  0  0  0  0  0
  144.7691   71.3703  221.6286 H   0  0  0  0  0  0  0  0  0  0  0  0
  146.2368   73.3289  221.6651 H   0  0  0  0  0  0  0  0  0  0  0  0
  145.6116   75.4380  220.4915 H   0  0  0  0  0  0  0  0  0  0  0  0
  139.1470   70.2783  221.8659 H   0  0  0  0  0  0  0  0  0  0  0  0
  139.1906   68.6717  223.7181 H   0  0  0  0  0  0  0  0  0  0  0  0
  139.7179   68.1517  226.0036 H   0  0  0  0  0  0  0  0  0  0  0  0
  141.4733   71.2160  228.4929 H   0  0  0  0  0  0  0  0  0  0  0  0
  141.4023   72.8009  226.5690 H   0  0  0  0  0  0  0  0  0  0  0  0
  1  2  2  0
  2  3  1  0
  3  4  1  0
  4  5  1  0
  5  6  2  0
  5  7  1  0
  7  8  1  0
  8  9  1  0
  9 10  1  0
 10 11  1  0
 11 12  1  0
 12 13  1  0
 13 14  1  0
 14 15  1  0
 15 16  2  0
 16 17  1  0
 17 18  2  0
 18 19  1  0
 19 20  2  0
  2 21  1  0
 21 22  2  0
 22 23  1  0
 23 24  2  0
 24 25  1  0
 25 26  2  0
 26 27  1  0
 26 28  1  0
 28 29  2  0
 29 30  1  0
 30 31  2  0
 11  7  1  0
 20 15  1  0
 31 21  1  0
 30 24  1  0
  3 32  1  0
  4 33  1  0
  4 34  1  0
  8 35  1  0
  8 36  1  0
  9 37  1  0
  9 38  1  0
 10 39  1  0
 10 40  1  0
 11 41  1  6
 12 42  1  0
 12 43  1  0
 14 44  1  0
 14 45  1  0
 16 46  1  0
 17 47  1  0
 18 48  1  0
 19 49  1  0
 20 50  1  0
 22 51  1  0
 23 52  1  0
 25 53  1  0
 28 54  1  0
 29 55  1  0
M  END
>  <smiles>  (3) 
O=C(NCC(=O)N1CCC[C@H]1COCc1ccccc1)c1ccc2cc(Cl)ccc2n1

>  <score_type>  (3) 
oracle

>  <origin>  (3) 
autodockgpu

>  <m_score__min__energy>  (3) 
-9.1699999999999999

>  <m_primary>  (3) 
energy

>  <rmsd>  (3) 
2.6647018192238763

>  <m_score__min__rmsd>  (3) 
2.6647018192238763

>  <meeko>  (3) 
{"free_energy": -7.68, "intermolecular_energy": -10.06, "internal_energy": -2.72, "cluster_size": 14, "cluster_id": 3, "rank_in_cluster": 10}

>  <energy>  (3) 
-8.69

>  <cluster_rmsd>  (3) 
1.6

>  <cluster>  (3) 
1

$$$$

     RDKit          3D

 55 58  0  0  0  0  0  0  0  0999 V2000
  140.8360   73.3320  219.9490 O   0  0  0  0  0  0  0  0  0  0  0  0
  140.3900   73.9400  220.9490 C   0  0  0  0  0  0  0  0  0  0  0  0
  139.5620   73.3480  221.9400 N   0  0  0  0  0  0  0  0  0  0  0  0
  139.1730   71.9260  221.8320 C   0  0  0  0  0  0  0  0  0  0  0  0
  139.1800   71.3670  223.1750 C   0  0  0  0  0  0  0  0  0  0  0  0
  140.3020   71.3810  223.8020 O   0  0  0  0  0  0  0  0  0  0  0  0
  138.1020   70.8030  223.8910 N   0  0  0  0  0  0  0  0  0  0  0  0
  136.7800   71.4950  223.8610 C   0  0  0  0  0  0  0  0  0  0  0  0
  135.8510   70.5870  224.5940 C   0  0  0  0  0  0  0  0  0  0  0  0
  136.5040   69.2480  224.4590 C   0  0  0  0  0  0  0  0  0  0  0  0
  137.9710   69.6370  224.7140 C   0  0  1  0  0  0  0  0  0  0  0  0
  138.8720   68.4920  224.3930 C   0  0  0  0  0  0  0  0  0  0  0  0
  139.1040   67.7790  225.5590 O   0  0  0  0  0  0  0  0  0  0  0  0
  140.3100   68.0540  226.1620 C   0  0  0  0  0  0  0  0  0  0  0  0
  140.3870   69.3860  226.8010 C   0  0  0  0  0  0  0  0  0  0  0  0
  141.2310   70.3200  226.2140 C   0  0  0  0  0  0  0  0  0  0  0  0
  141.3920   71.5960  226.7120 C   0  0  0  0  0  0  0  0  0  0  0  0
  140.6690   71.9210  227.8390 C   0  0  0  0  0  0  0  0  0  0  0  0
  139.8290   71.0100  228.4310 C   0  0  0  0  0  0  0  0  0  0  0  0
  139.6700   69.7250  227.9260 C   0  0  0  0  0  0  0  0  0  0  0  0
  140.7420   75.3510  221.1040 C   0  0  0  0  0  0  0  0  0  0  0  0
  141.7140   75.9510  220.3290 C   0  0  0  0  0  0  0  0  0  0  0  0
  142.0730   77.2730  220.4460 C   0  0  0  0  0  0  0  0  0  0  0  0
  141.4370   78.0570  221.3840 C   0  0  0  0  0  0  0  0  0  0  0  0
  141.7900   79.3830  221.5070 C   0  0  0  0  0  0  0  0  0  0  0  0
  141.1260   80.1280  222.4590 C   0  0  0  0  0  0  0  0  0  0  0  0
  141.5520   81.8220  222.6430 Cl  0  0  0  0  0  0  0  0  0  0  0  0
  140.1450   79.5910  223.2660 C   0  0  0  0  0  0  0  0  0  0  0  0
  139.8220   78.2480  223.1050 C   0  0  0  0  0  0  0  0  0  0  0  0
  140.4640   77.4570  222.1600 C   0  0  0  0  0  0  0  0  0  0  0  0
  140.1320   76.1460  222.0190 N   0  0  0  0  0  0  0  0  0  0  0  0
  139.2090   73.9030  222.7700 H   0  0  0  0  0  0  0  0  0  0  0  0
  138.1662   71.8442  221.3965 H   0  0  0  0  0  0  0  0  0  0  0  0
  139.8737   71.3812  221.1822 H   0  0  0  0  0  0  0  0  0  0  0  0
  136.8433   72.4712  224.3641 H   0  0  0  0  0  0  0  0  0  0  0  0
  136.4401   71.6912  222.8334 H   0  0  0  0  0  0  0  0  0  0  0  0
  135.7658   70.8795  225.6510 H   0  0  0  0  0  0  0  0  0  0  0  0
  134.8250   70.6084  224.1978 H   0  0  0  0  0  0  0  0  0  0  0  0
  136.1341   68.5360  225.2115 H   0  0  0  0  0  0  0  0  0  0  0  0
  136.3203   68.7382  223.5018 H   0  0  0  0  0  0  0  0  0  0  0  0
  138.2517   69.8619  225.7535 H   0  0  0  0  0  0  0  0  0  0  0  0
  138.3933   67.8399  223.6476 H   0  0  0  0  0  0  0  0  0  0  0  0
  139.8221   68.8622  223.9804 H   0  0  0  0  0  0  0  0  0  0  0  0
  140.4897   67.2916  226.9343 H   0  0  0  0  0  0  0  0  0  0  0  0
  141.0676   68.0455  225.3645 H   0  0  0  0  0  0  0  0  0  0  0  0
  141.7943   70.0300  225.3148 H   0  0  0  0  0  0  0  0  0  0  0  0
  142.0662   72.3205  226.2318 H   0  0  0  0  0  0  0  0  0  0  0  0
  140.7663   72.9275  228.2720 H   0  0  0  0  0  0  0  0  0  0  0  0
  139.2668   71.3054  229.3292 H   0  0  0  0  0  0  0  0  0  0  0  0
  138.9943   69.0036  228.4088 H   0  0  0  0  0  0  0  0  0  0  0  0
  142.2300   75.3373  219.5759 H   0  0  0  0  0  0  0  0  0  0  0  0
  142.8558   77.6983  219.8008 H   0  0  0  0  0  0  0  0  0  0  0  0
  142.5695   79.8293  220.8720 H   0  0  0  0  0  0  0  0  0  0  0  0
  139.6315   80.2088  224.0174 H   0  0  0  0  0  0  0  0  0  0  0  0
  139.0416   77.8023  223.7393 H   0  0  0  0  0  0  0  0  0  0  0  0
  1  2  2  0
  2  3  1  0
  3  4  1  0
  4  5  1  0
  5  6  2  0
  5  7  1  0
  7  8  1  0
  8  9  1  0
  9 10  1  0
 10 11  1  0
 11 12  1  0
 12 13  1  0
 13 14  1  0
 14 15  1  0
 15 16  2  0
 16 17  1  0
 17 18  2  0
 18 19  1  0
 19 20  2  0
  2 21  1  0
 21 22  2  0
 22 23  1  0
 23 24  2  0
 24 25  1  0
 25 26  2  0
 26 27  1  0
 26 28  1  0
 28 29  2  0
 29 30  1  0
 30 31  2  0
 11  7  1  0
 20 15  1  0
 31 21  1  0
 30 24  1  0
  3 32  1  0
  4 33  1  0
  4 34  1  0
  8 35  1  0
  8 36  1  0
  9 37  1  0
  9 38  1  0
 10 39  1  0
 10 40  1  0
 11 41  1  1
 12 42  1  0
 12 43  1  0
 14 44  1  0
 14 45  1  0
 16 46  1  0
 17 47  1  0
 18 48  1  0
 19 49  1  0
 20 50  1  0
 22 51  1  0
 23 52  1  0
 25 53  1  0
 28 54  1  0
 29 55  1  0
M  END
>  <smiles>  (4) 
O=C(NCC(=O)N1CCC[C@H]1COCc1ccccc1)c1ccc2cc(Cl)ccc2n1

>  <score_type>  (4) 
oracle

>  <origin>  (4) 
autodockgpu

>  <m_score__min__energy>  (4) 
-9.1699999999999999

>  <m_primary>  (4) 
energy

>  <rmsd>  (4) 
8.355528330069832

>  <m_score__min__rmsd>  (4) 
8.355528330069832

>  <meeko>  (4) 
{"free_energy": -9.17, "intermolecular_energy": -11.56, "internal_energy": -2.05, "cluster_size": 16, "cluster_id": 1, "rank_in_cluster": 1}

>  <energy>  (4) 
-8.58

>  <cluster_rmsd>  (4) 
1.63

>  <cluster>  (4) 
1

$$$$

     RDKit          3D

 55 58  0  0  0  0  0  0  0  0999 V2000
  141.7970   72.7920  220.7730 O   0  0  0  0  0  0  0  0  0  0  0  0
  141.0560   73.5020  221.4920 C   0  0  0  0  0  0  0  0  0  0  0  0
  140.0820   72.9860  222.3870 N   0  0  0  0  0  0  0  0  0  0  0  0
  139.8870   71.5270  222.5160 C   0  0  0  0  0  0  0  0  0  0  0  0
  138.4640   71.2900  222.7010 C   0  0  0  0  0  0  0  0  0  0  0  0
  137.7190   72.3270  222.8510 O   0  0  0  0  0  0  0  0  0  0  0  0
  137.7830   70.0540  222.7390 N   0  0  0  0  0  0  0  0  0  0  0  0
  136.7670   69.7620  221.6850 C   0  0  0  0  0  0  0  0  0  0  0  0
  136.3410   68.3550  221.9380 C   0  0  0  0  0  0  0  0  0  0  0  0
  137.5070   67.7710  222.6710 C   0  0  0  0  0  0  0  0  0  0  0  0
  137.8310   68.9310  223.6280 C   0  0  1  0  0  0  0  0  0  0  0  0
  139.1320   68.6840  224.3170 C   0  0  0  0  0  0  0  0  0  0  0  0
  138.8710   68.1100  225.5510 O   0  0  0  0  0  0  0  0  0  0  0  0
  139.9150   68.1840  226.4440 C   0  0  0  0  0  0  0  0  0  0  0  0
  140.2620   69.5560  226.8700 C   0  0  0  0  0  0  0  0  0  0  0  0
  141.0450   70.3080  226.0030 C   0  0  0  0  0  0  0  0  0  0  0  0
  141.4380   71.6000  226.2850 C   0  0  0  0  0  0  0  0  0  0  0  0
  141.0160   72.1320  227.4830 C   0  0  0  0  0  0  0  0  0  0  0  0
  140.2420   71.4030  228.3510 C   0  0  0  0  0  0  0  0  0  0  0  0
  139.8480   70.1020  228.0650 C   0  0  0  0  0  0  0  0  0  0  0  0
  141.2050   74.9540  221.4020 C   0  0  0  0  0  0  0  0  0  0  0  0
  141.9750   75.5520  220.4250 C   0  0  0  0  0  0  0  0  0  0  0  0
  142.1380   76.9110  220.3080 C   0  0  0  0  0  0  0  0  0  0  0  0
  141.5060   77.7390  221.2100 C   0  0  0  0  0  0  0  0  0  0  0  0
  141.6650   79.1040  221.1010 C   0  0  0  0  0  0  0  0  0  0  0  0
  141.0120   79.8920  222.0260 C   0  0  0  0  0  0  0  0  0  0  0  0
  141.1930   81.6350  221.9160 Cl  0  0  0  0  0  0  0  0  0  0  0  0
  140.2270   79.3600  223.0270 C   0  0  0  0  0  0  0  0  0  0  0  0
  140.0970   77.9770  223.0980 C   0  0  0  0  0  0  0  0  0  0  0  0
  140.7350   77.1430  222.1890 C   0  0  0  0  0  0  0  0  0  0  0  0
  140.5940   75.7930  222.2760 N   0  0  0  0  0  0  0  0  0  0  0  0
  139.4780   73.6270  222.9770 H   0  0  0  0  0  0  0  0  0  0  0  0
  140.2368   71.0195  221.6049 H   0  0  0  0  0  0  0  0  0  0  0  0
  140.4590   71.1340  223.3694 H   0  0  0  0  0  0  0  0  0  0  0  0
  135.9108   70.4469  221.7732 H   0  0  0  0  0  0  0  0  0  0  0  0
  137.1735   69.8945  220.6715 H   0  0  0  0  0  0  0  0  0  0  0  0
  135.4311   68.3234  222.5553 H   0  0  0  0  0  0  0  0  0  0  0  0
  136.0925   67.8074  221.0169 H   0  0  0  0  0  0  0  0  0  0  0  0
  137.2296   66.8571  223.2168 H   0  0  0  0  0  0  0  0  0  0  0  0
  138.3429   67.4516  222.0313 H   0  0  0  0  0  0  0  0  0  0  0  0
  137.1483   69.0789  224.4777 H   0  0  0  0  0  0  0  0  0  0  0  0
  139.7487   68.0022  223.7130 H   0  0  0  0  0  0  0  0  0  0  0  0
  139.6762   69.6309  224.4480 H   0  0  0  0  0  0  0  0  0  0  0  0
  139.6431   67.6050  227.3389 H   0  0  0  0  0  0  0  0  0  0  0  0
  140.7990   67.7849  225.9251 H   0  0  0  0  0  0  0  0  0  0  0  0
  141.3646   69.8548  225.0530 H   0  0  0  0  0  0  0  0  0  0  0  0
  142.0595   72.1783  225.5855 H   0  0  0  0  0  0  0  0  0  0  0  0
  141.3044   73.1596  227.7491 H   0  0  0  0  0  0  0  0  0  0  0  0
  139.9250   71.8616  229.2992 H   0  0  0  0  0  0  0  0  0  0  0  0
  139.2270   69.5278  228.7683 H   0  0  0  0  0  0  0  0  0  0  0  0
  142.4872   74.9036  219.6989 H   0  0  0  0  0  0  0  0  0  0  0  0
  142.7633   77.3316  219.5067 H   0  0  0  0  0  0  0  0  0  0  0  0
  142.2870   79.5466  220.3090 H   0  0  0  0  0  0  0  0  0  0  0  0
  139.7167   80.0125  223.7507 H   0  0  0  0  0  0  0  0  0  0  0  0
  139.4759   77.5345  223.8907 H   0  0  0  0  0  0  0  0  0  0  0  0
  1  2  2  0
  2  3  1  0
  3  4  1  0
  4  5  1  0
  5  6  2  0
  5  7  1  0
  7  8  1  0
  8  9  1  0
  9 10  1  0
 10 11  1  0
 11 12  1  0
 12 13  1  0
 13 14  1  0
 14 15  1  0
 15 16  2  0
 16 17  1  0
 17 18  2  0
 18 19  1  0
 19 20  2  0
  2 21  1  0
 21 22  2  0
 22 23  1  0
 23 24  2  0
 24 25  1  0
 25 26  2  0
 26 27  1  0
 26 28  1  0
 28 29  2  0
 29 30  1  0
 30 31  2  0
 11  7  1  0
 20 15  1  0
 31 21  1  0
 30 24  1  0
  3 32  1  0
  4 33  1  0
  4 34  1  0
  8 35  1  0
  8 36  1  0
  9 37  1  0
  9 38  1  0
 10 39  1  0
 10 40  1  0
 11 41  1  1
 12 42  1  0
 12 43  1  0
 14 44  1  0
 14 45  1  0
 16 46  1  0
 17 47  1  0
 18 48  1  0
 19 49  1  0
 20 50  1  0
 22 51  1  0
 23 52  1  0
 25 53  1  0
 28 54  1  0
 29 55  1  0
M  END
>  <smiles>  (5) 
O=C(NCC(=O)N1CCC[C@H]1COCc1ccccc1)c1ccc2cc(Cl)ccc2n1

>  <score_type>  (5) 
oracle

>  <origin>  (5) 
autodockgpu

>  <m_score__min__energy>  (5) 
-9.1699999999999999

>  <m_primary>  (5) 
energy

>  <rmsd>  (5) 
8.259420457984044

>  <m_score__min__rmsd>  (5) 
8.259420457984044

>  <meeko>  (5) 
{"free_energy": -8.54, "intermolecular_energy": -10.93, "internal_energy": -2.28, "cluster_size": 16, "cluster_id": 1, "rank_in_cluster": 5}

>  <energy>  (5) 
-8.54

>  <cluster_rmsd>  (5) 
1.15

>  <cluster>  (5) 
1

$$$$

     RDKit          3D

 55 58  0  0  0  0  0  0  0  0999 V2000
  139.3800   71.8910  220.7100 O   0  0  0  0  0  0  0  0  0  0  0  0
  139.5410   72.3960  221.8460 C   0  0  0  0  0  0  0  0  0  0  0  0
  139.5960   73.7930  222.0980 N   0  0  0  0  0  0  0  0  0  0  0  0
  139.4630   74.7560  220.9840 C   0  0  0  0  0  0  0  0  0  0  0  0
  140.4250   75.8230  221.2120 C   0  0  0  0  0  0  0  0  0  0  0  0
  140.3510   76.4390  222.3370 O   0  0  0  0  0  0  0  0  0  0  0  0
  141.4440   76.2780  220.3470 N   0  0  0  0  0  0  0  0  0  0  0  0
  142.6340   75.4070  220.1180 C   0  0  0  0  0  0  0  0  0  0  0  0
  143.4350   76.1120  219.0770 C   0  0  0  0  0  0  0  0  0  0  0  0
  142.4190   76.9560  218.3760 C   0  0  0  0  0  0  0  0  0  0  0  0
  141.6240   77.4790  219.5860 C   0  0  1  0  0  0  0  0  0  0  0  0
  140.3820   78.1690  219.1290 C   0  0  0  0  0  0  0  0  0  0  0  0
  140.5800   79.5380  219.2320 O   0  0  0  0  0  0  0  0  0  0  0  0
  141.6420   79.8990  220.0280 C   0  0  0  0  0  0  0  0  0  0  0  0
  141.4050   79.7390  221.4790 C   0  0  0  0  0  0  0  0  0  0  0  0
  142.5190   79.7700  222.3090 C   0  0  0  0  0  0  0  0  0  0  0  0
  142.4310   79.6330  223.6780 C   0  0  0  0  0  0  0  0  0  0  0  0
  141.1710   79.4600  224.2080 C   0  0  0  0  0  0  0  0  0  0  0  0
  140.0600   79.4270  223.4030 C   0  0  0  0  0  0  0  0  0  0  0  0
  140.1520   79.5660  222.0230 C   0  0  0  0  0  0  0  0  0  0  0  0
  139.6810   71.4880  222.9830 C   0  0  0  0  0  0  0  0  0  0  0  0
  139.2600   70.1750  222.9270 C   0  0  0  0  0  0  0  0  0  0  0  0
  139.3750   69.2920  223.9740 C   0  0  0  0  0  0  0  0  0  0  0  0
  139.9380   69.7260  225.1540 C   0  0  0  0  0  0  0  0  0  0  0  0
  140.0570   68.8480  226.2090 C   0  0  0  0  0  0  0  0  0  0  0  0
  140.6270   69.3270  227.3700 C   0  0  0  0  0  0  0  0  0  0  0  0
  140.7930   68.2350  228.7340 Cl  0  0  0  0  0  0  0  0  0  0  0  0
  141.0680   70.6280  227.4940 C   0  0  0  0  0  0  0  0  0  0  0  0
  140.9280   71.4780  226.4020 C   0  0  0  0  0  0  0  0  0  0  0  0
  140.3590   71.0410  225.2130 C   0  0  0  0  0  0  0  0  0  0  0  0
  140.2320   71.8880  224.1570 N   0  0  0  0  0  0  0  0  0  0  0  0
  139.7320   74.1740  223.0770 H   0  0  0  0  0  0  0  0  0  0  0  0
  139.6762   74.2560  220.0277 H   0  0  0  0  0  0  0  0  0  0  0  0
  138.4404   75.1589  220.9398 H   0  0  0  0  0  0  0  0  0  0  0  0
  143.2163   75.2968  221.0447 H   0  0  0  0  0  0  0  0  0  0  0  0
  142.3484   74.3927  219.8023 H   0  0  0  0  0  0  0  0  0  0  0  0
  144.2165   76.7354  219.5359 H   0  0  0  0  0  0  0  0  0  0  0  0
  143.9641   75.4241  218.4011 H   0  0  0  0  0  0  0  0  0  0  0  0
  142.8884   77.7750  217.8112 H   0  0  0  0  0  0  0  0  0  0  0  0
  141.8187   76.4268  217.6213 H   0  0  0  0  0  0  0  0  0  0  0  0
  142.1043   78.2576  220.1968 H   0  0  0  0  0  0  0  0  0  0  0  0
  140.1716   77.9015  218.0830 H   0  0  0  0  0  0  0  0  0  0  0  0
  139.5280   77.8622  219.7507 H   0  0  0  0  0  0  0  0  0  0  0  0
  142.5059   79.2771  219.7506 H   0  0  0  0  0  0  0  0  0  0  0  0
  141.8106   80.9723  219.8557 H   0  0  0  0  0  0  0  0  0  0  0  0
  143.5113   79.9095  221.8553 H   0  0  0  0  0  0  0  0  0  0  0  0
  143.3255   79.6605  224.3177 H   0  0  0  0  0  0  0  0  0  0  0  0
  141.0535   79.3463  225.2958 H   0  0  0  0  0  0  0  0  0  0  0  0
  139.0703   79.2868  223.8621 H   0  0  0  0  0  0  0  0  0  0  0  0
  139.2546   79.5387  221.3874 H   0  0  0  0  0  0  0  0  0  0  0  0
  138.8068   69.8148  221.9917 H   0  0  0  0  0  0  0  0  0  0  0  0
  139.0230   68.2549  223.8713 H   0  0  0  0  0  0  0  0  0  0  0  0
  139.7113   67.8068  226.1286 H   0  0  0  0  0  0  0  0  0  0  0  0
  141.5187   70.9841  228.4321 H   0  0  0  0  0  0  0  0  0  0  0  0
  141.2754   72.5186  226.4819 H   0  0  0  0  0  0  0  0  0  0  0  0
  1  2  2  0
  2  3  1  0
  3  4  1  0
  4  5  1  0
  5  6  2  0
  5  7  1  0
  7  8  1  0
  8  9  1  0
  9 10  1  0
 10 11  1  0
 11 12  1  0
 12 13  1  0
 13 14  1  0
 14 15  1  0
 15 16  2  0
 16 17  1  0
 17 18  2  0
 18 19  1  0
 19 20  2  0
  2 21  1  0
 21 22  2  0
 22 23  1  0
 23 24  2  0
 24 25  1  0
 25 26  2  0
 26 27  1  0
 26 28  1  0
 28 29  2  0
 29 30  1  0
 30 31  2  0
 11  7  1  0
 20 15  1  0
 31 21  1  0
 30 24  1  0
  3 32  1  0
  4 33  1  0
  4 34  1  0
  8 35  1  0
  8 36  1  0
  9 37  1  0
  9 38  1  0
 10 39  1  0
 10 40  1  0
 11 41  1  1
 12 42  1  0
 12 43  1  0
 14 44  1  0
 14 45  1  0
 16 46  1  0
 17 47  1  0
 18 48  1  0
 19 49  1  0
 20 50  1  0
 22 51  1  0
 23 52  1  0
 25 53  1  0
 28 54  1  0
 29 55  1  0
M  END
>  <smiles>  (6) 
O=C(NCC(=O)N1CCC[C@H]1COCc1ccccc1)c1ccc2cc(Cl)ccc2n1

>  <score_type>  (6) 
oracle

>  <origin>  (6) 
autodockgpu

>  <m_score__min__energy>  (6) 
-9.1699999999999999

>  <m_primary>  (6) 
energy

>  <rmsd>  (6) 
2.015187528301351

>  <m_score__min__rmsd>  (6) 
2.015187528301351

>  <meeko>  (6) 
{"free_energy": -8.22, "intermolecular_energy": -10.6, "internal_energy": -2.25, "cluster_size": 12, "cluster_id": 2, "rank_in_cluster": 6}

>  <energy>  (6) 
-8.42

>  <cluster_rmsd>  (6) 
1.86

>  <cluster>  (6) 
1

$$$$

     RDKit          3D

 55 58  0  0  0  0  0  0  0  0999 V2000
  141.3610   72.8490  221.0400 O   0  0  0  0  0  0  0  0  0  0  0  0
  140.6210   73.6640  221.6390 C   0  0  0  0  0  0  0  0  0  0  0  0
  139.5130   73.2920  222.4450 N   0  0  0  0  0  0  0  0  0  0  0  0
  139.1650   71.8660  222.6220 C   0  0  0  0  0  0  0  0  0  0  0  0
  137.7350   71.7930  222.8790 C   0  0  0  0  0  0  0  0  0  0  0  0
  137.0770   72.8950  222.8060 O   0  0  0  0  0  0  0  0  0  0  0  0
  136.9640   70.6570  223.2040 N   0  0  0  0  0  0  0  0  0  0  0  0
  135.4760   70.7730  223.1920 C   0  0  0  0  0  0  0  0  0  0  0  0
  134.9790   69.3900  223.4470 C   0  0  0  0  0  0  0  0  0  0  0  0
  136.1150   68.5280  222.9960 C   0  0  0  0  0  0  0  0  0  0  0  0
  137.2990   69.3160  223.5840 C   0  0  1  0  0  0  0  0  0  0  0  0
  138.5880   68.7790  223.0580 C   0  0  0  0  0  0  0  0  0  0  0  0
  139.6040   69.1560  223.9230 O   0  0  0  0  0  0  0  0  0  0  0  0
  139.3410   68.9030  225.2500 C   0  0  0  0  0  0  0  0  0  0  0  0
  139.9000   69.9010  226.1880 C   0  0  0  0  0  0  0  0  0  0  0  0
  140.6990   70.9000  225.6450 C   0  0  0  0  0  0  0  0  0  0  0  0
  141.2790   71.8880  226.4110 C   0  0  0  0  0  0  0  0  0  0  0  0
  141.0340   71.8500  227.7670 C   0  0  0  0  0  0  0  0  0  0  0  0
  140.2470   70.8700  228.3190 C   0  0  0  0  0  0  0  0  0  0  0  0
  139.6640   69.8750  227.5440 C   0  0  0  0  0  0  0  0  0  0  0  0
  140.9180   75.0880  221.4960 C   0  0  0  0  0  0  0  0  0  0  0  0
  141.7350   75.5680  220.4930 C   0  0  0  0  0  0  0  0  0  0  0  0
  142.0380   76.8990  220.3270 C   0  0  0  0  0  0  0  0  0  0  0  0
  141.5040   77.8190  221.2030 C   0  0  0  0  0  0  0  0  0  0  0  0
  141.8030   79.1550  221.0440 C   0  0  0  0  0  0  0  0  0  0  0  0
  141.2460   80.0380  221.9450 C   0  0  0  0  0  0  0  0  0  0  0  0
  141.6040   81.7480  221.7720 Cl  0  0  0  0  0  0  0  0  0  0  0  0
  140.4210   79.6260  222.9700 C   0  0  0  0  0  0  0  0  0  0  0  0
  140.1480   78.2680  223.0910 C   0  0  0  0  0  0  0  0  0  0  0  0
  140.6870   77.3400  222.2080 C   0  0  0  0  0  0  0  0  0  0  0  0
  140.4070   76.0160  222.3440 N   0  0  0  0  0  0  0  0  0  0  0  0
  138.9160   74.0180  222.9340 H   0  0  0  0  0  0  0  0  0  0  0  0
  139.4117   71.3033  221.7096 H   0  0  0  0  0  0  0  0  0  0  0  0
  139.7314   71.4301  223.4581 H   0  0  0  0  0  0  0  0  0  0  0  0
  135.1352   71.4581  223.9822 H   0  0  0  0  0  0  0  0  0  0  0  0
  135.1008   71.1781  222.2406 H   0  0  0  0  0  0  0  0  0  0  0  0
  134.7688   69.2376  224.5159 H   0  0  0  0  0  0  0  0  0  0  0  0
  134.0365   69.1681  222.9251 H   0  0  0  0  0  0  0  0  0  0  0  0
  136.0502   67.5140  223.4173 H   0  0  0  0  0  0  0  0  0  0  0  0
  136.1651   68.3585  221.9103 H   0  0  0  0  0  0  0  0  0  0  0  0
  137.4504   69.2469  224.6713 H   0  0  0  0  0  0  0  0  0  0  0  0
  138.5374   67.6817  223.0000 H   0  0  0  0  0  0  0  0  0  0  0  0
  138.7811   69.1777  222.0512 H   0  0  0  0  0  0  0  0  0  0  0  0
  138.2496   68.8782  225.3852 H   0  0  0  0  0  0  0  0  0  0  0  0
  139.8261   67.9448  225.4876 H   0  0  0  0  0  0  0  0  0  0  0  0
  140.8758   70.9022  224.5593 H   0  0  0  0  0  0  0  0  0  0  0  0
  141.9081   72.6704  225.9613 H   0  0  0  0  0  0  0  0  0  0  0  0
  141.4768   72.6182  228.4180 H   0  0  0  0  0  0  0  0  0  0  0  0
  140.0731   70.8725  229.4052 H   0  0  0  0  0  0  0  0  0  0  0  0
  139.0361   69.0941  227.9979 H   0  0  0  0  0  0  0  0  0  0  0  0
  142.1684   74.8451  219.7862 H   0  0  0  0  0  0  0  0  0  0  0  0
  142.6962   77.2242  219.5079 H   0  0  0  0  0  0  0  0  0  0  0  0
  142.4587   79.5025  220.2321 H   0  0  0  0  0  0  0  0  0  0  0  0
  139.9898   80.3530  223.6740 H   0  0  0  0  0  0  0  0  0  0  0  0
  139.4916   77.9209  223.9026 H   0  0  0  0  0  0  0  0  0  0  0  0
  1  2  2  0
  2  3  1  0
  3  4  1  0
  4  5  1  0
  5  6  2  0
  5  7  1  0
  7  8  1  0
  8  9  1  0
  9 10  1  0
 10 11  1  0
 11 12  1  0
 12 13  1  0
 13 14  1  0
 14 15  1  0
 15 16  2  0
 16 17  1  0
 17 18  2  0
 18 19  1  0
 19 20  2  0
  2 21  1  0
 21 22  2  0
 22 23  1  0
 23 24  2  0
 24 25  1  0
 25 26  2  0
 26 27  1  0
 26 28  1  0
 28 29  2  0
 29 30  1  0
 30 31  2  0
 11  7  1  0
 20 15  1  0
 31 21  1  0
 30 24  1  0
  3 32  1  0
  4 33  1  0
  4 34  1  0
  8 35  1  0
  8 36  1  0
  9 37  1  0
  9 38  1  0
 10 39  1  0
 10 40  1  0
 11 41  1  1
 12 42  1  0
 12 43  1  0
 14 44  1  0
 14 45  1  0
 16 46  1  0
 17 47  1  0
 18 48  1  0
 19 49  1  0
 20 50  1  0
 22 51  1  0
 23 52  1  0
 25 53  1  0
 28 54  1  0
 29 55  1  0
M  END
>  <smiles>  (7) 
O=C(NCC(=O)N1CCC[C@H]1COCc1ccccc1)c1ccc2cc(Cl)ccc2n1

>  <score_type>  (7) 
oracle

>  <origin>  (7) 
autodockgpu

>  <m_score__min__energy>  (7) 
-9.1699999999999999

>  <m_primary>  (7) 
energy

>  <rmsd>  (7) 
8.367945974315642

>  <m_score__min__rmsd>  (7) 
8.367945974315642

>  <meeko>  (7) 
{"free_energy": -7.84, "intermolecular_energy": -10.23, "internal_energy": -2.54, "cluster_size": 16, "cluster_id": 1, "rank_in_cluster": 13}

>  <energy>  (7) 
-8.34

>  <cluster_rmsd>  (7) 
0.99

>  <cluster>  (7) 
1

$$$$

     RDKit          3D

 55 58  0  0  0  0  0  0  0  0999 V2000
  140.1160   72.3860  220.7320 O   0  0  0  0  0  0  0  0  0  0  0  0
  139.9370   72.8370  221.8880 C   0  0  0  0  0  0  0  0  0  0  0  0
  139.6840   74.2030  222.1820 N   0  0  0  0  0  0  0  0  0  0  0  0
  139.6180   75.1990  221.0920 C   0  0  0  0  0  0  0  0  0  0  0  0
  139.4640   76.5090  221.7060 C   0  0  0  0  0  0  0  0  0  0  0  0
  138.9290   76.5420  222.8740 O   0  0  0  0  0  0  0  0  0  0  0  0
  139.8280   77.7670  221.1800 N   0  0  0  0  0  0  0  0  0  0  0  0
  138.9610   78.9460  221.4740 C   0  0  0  0  0  0  0  0  0  0  0  0
  139.6850   80.1130  220.8920 C   0  0  0  0  0  0  0  0  0  0  0  0
  141.1070   79.6530  220.8610 C   0  0  0  0  0  0  0  0  0  0  0  0
  140.9130   78.2130  220.3560 C   0  0  1  0  0  0  0  0  0  0  0  0
  142.1900   77.4490  220.4690 C   0  0  0  0  0  0  0  0  0  0  0  0
  142.1390   76.3800  219.5880 O   0  0  0  0  0  0  0  0  0  0  0  0
  143.3710   75.9120  219.1920 C   0  0  0  0  0  0  0  0  0  0  0  0
  143.8030   74.6700  219.8680 C   0  0  0  0  0  0  0  0  0  0  0  0
  142.9100   73.6060  219.8650 C   0  0  0  0  0  0  0  0  0  0  0  0
  143.1920   72.3950  220.4610 C   0  0  0  0  0  0  0  0  0  0  0  0
  144.4200   72.2730  221.0740 C   0  0  0  0  0  0  0  0  0  0  0  0
  145.3140   73.3150  221.0860 C   0  0  0  0  0  0  0  0  0  0  0  0
  145.0260   74.5340  220.4850 C   0  0  0  0  0  0  0  0  0  0  0  0
  139.9940   71.8940  223.0050 C   0  0  0  0  0  0  0  0  0  0  0  0
  139.5680   70.5870  222.8820 C   0  0  0  0  0  0  0  0  0  0  0  0
  139.6060   69.6730  223.9070 C   0  0  0  0  0  0  0  0  0  0  0  0
  140.0940   70.0670  225.1340 C   0  0  0  0  0  0  0  0  0  0  0  0
  140.1350   69.1570  226.1680 C   0  0  0  0  0  0  0  0  0  0  0  0
  140.6310   69.5970  227.3780 C   0  0  0  0  0  0  0  0  0  0  0  0
  140.6980   68.4640  228.7170 Cl  0  0  0  0  0  0  0  0  0  0  0  0
  141.0740   70.8890  227.5690 C   0  0  0  0  0  0  0  0  0  0  0  0
  141.0120   71.7720  226.4960 C   0  0  0  0  0  0  0  0  0  0  0  0
  140.5200   71.3750  225.2600 C   0  0  0  0  0  0  0  0  0  0  0  0
  140.4700   72.2550  224.2240 N   0  0  0  0  0  0  0  0  0  0  0  0
  139.5370   74.5370  223.1760 H   0  0  0  0  0  0  0  0  0  0  0  0
  140.5439   75.1686  220.4988 H   0  0  0  0  0  0  0  0  0  0  0  0
  138.7735   74.9838  220.4209 H   0  0  0  0  0  0  0  0  0  0  0  0
  137.9748   78.8280  221.0012 H   0  0  0  0  0  0  0  0  0  0  0  0
  138.7811   79.0676  222.5523 H   0  0  0  0  0  0  0  0  0  0  0  0
  139.3210   80.3374  219.8785 H   0  0  0  0  0  0  0  0  0  0  0  0
  139.5440   81.0390  221.4687 H   0  0  0  0  0  0  0  0  0  0  0  0
  141.7141   80.2509  220.1653 H   0  0  0  0  0  0  0  0  0  0  0  0
  141.6421   79.7394  221.8182 H   0  0  0  0  0  0  0  0  0  0  0  0
  140.6682   78.0899  219.2907 H   0  0  0  0  0  0  0  0  0  0  0  0
  143.0375   78.1017  220.2126 H   0  0  0  0  0  0  0  0  0  0  0  0
  142.3230   77.0848  221.4984 H   0  0  0  0  0  0  0  0  0  0  0  0
  143.3331   75.7185  218.1098 H   0  0  0  0  0  0  0  0  0  0  0  0
  144.1021   76.6869  219.4658 H   0  0  0  0  0  0  0  0  0  0  0  0
  141.9379   73.7348  219.3667 H   0  0  0  0  0  0  0  0  0  0  0  0
  142.4703   71.5650  220.4477 H   0  0  0  0  0  0  0  0  0  0  0  0
  144.6887   71.3246  221.5621 H   0  0  0  0  0  0  0  0  0  0  0  0
  146.2850   73.1810  221.5852 H   0  0  0  0  0  0  0  0  0  0  0  0
  145.7502   75.3618  220.5016 H   0  0  0  0  0  0  0  0  0  0  0  0
  139.1758   70.2585  221.9082 H   0  0  0  0  0  0  0  0  0  0  0  0
  139.2525   68.6431  223.7507 H   0  0  0  0  0  0  0  0  0  0  0  0
  139.7866   68.1222  226.0342 H   0  0  0  0  0  0  0  0  0  0  0  0
  141.4661   71.2128  228.5444 H   0  0  0  0  0  0  0  0  0  0  0  0
  141.3602   72.8068  226.6296 H   0  0  0  0  0  0  0  0  0  0  0  0
  1  2  2  0
  2  3  1  0
  3  4  1  0
  4  5  1  0
  5  6  2  0
  5  7  1  0
  7  8  1  0
  8  9  1  0
  9 10  1  0
 10 11  1  0
 11 12  1  0
 12 13  1  0
 13 14  1  0
 14 15  1  0
 15 16  2  0
 16 17  1  0
 17 18  2  0
 18 19  1  0
 19 20  2  0
  2 21  1  0
 21 22  2  0
 22 23  1  0
 23 24  2  0
 24 25  1  0
 25 26  2  0
 26 27  1  0
 26 28  1  0
 28 29  2  0
 29 30  1  0
 30 31  2  0
 11  7  1  0
 20 15  1  0
 31 21  1  0
 30 24  1  0
  3 32  1  0
  4 33  1  0
  4 34  1  0
  8 35  1  0
  8 36  1  0
  9 37  1  0
  9 38  1  0
 10 39  1  0
 10 40  1  0
 11 41  1  6
 12 42  1  0
 12 43  1  0
 14 44  1  0
 14 45  1  0
 16 46  1  0
 17 47  1  0
 18 48  1  0
 19 49  1  0
 20 50  1  0
 22 51  1  0
 23 52  1  0
 25 53  1  0
 28 54  1  0
 29 55  1  0
M  END
>  <smiles>  (8) 
O=C(NCC(=O)N1CCC[C@H]1COCc1ccccc1)c1ccc2cc(Cl)ccc2n1

>  <score_type>  (8) 
oracle

>  <origin>  (8) 
autodockgpu

>  <m_score__min__energy>  (8) 
-9.1699999999999999

>  <m_primary>  (8) 
energy

>  <rmsd>  (8) 
2.720858258526914

>  <m_score__min__rmsd>  (8) 
2.720858258526914

>  <meeko>  (8) 
{"free_energy": -7.76, "intermolecular_energy": -10.15, "internal_energy": -2.71, "cluster_size": 14, "cluster_id": 3, "rank_in_cluster": 9}

>  <energy>  (8) 
-8.19

>  <cluster_rmsd>  (8) 
1.24

>  <cluster>  (8) 
1

$$$$

     RDKit          3D

 55 58  0  0  0  0  0  0  0  0999 V2000
  137.9270   71.0750  221.3730 O   0  0  0  0  0  0  0  0  0  0  0  0
  138.5450   71.6520  222.2980 C   0  0  0  0  0  0  0  0  0  0  0  0
  138.8560   73.0370  222.3070 N   0  0  0  0  0  0  0  0  0  0  0  0
  138.4490   73.9000  221.1770 C   0  0  0  0  0  0  0  0  0  0  0  0
  139.5180   74.8600  220.9530 C   0  0  0  0  0  0  0  0  0  0  0  0
  140.2710   75.1320  221.9580 O   0  0  0  0  0  0  0  0  0  0  0  0
  139.8400   75.5440  219.7610 N   0  0  0  0  0  0  0  0  0  0  0  0
  138.7460   75.8610  218.7980 C   0  0  0  0  0  0  0  0  0  0  0  0
  139.3930   76.6820  217.7340 C   0  0  0  0  0  0  0  0  0  0  0  0
  140.5820   77.2660  218.4280 C   0  0  0  0  0  0  0  0  0  0  0  0
  141.0690   76.0330  219.2100 C   0  0  1  0  0  0  0  0  0  0  0  0
  142.1270   76.4260  220.1870 C   0  0  0  0  0  0  0  0  0  0  0  0
  141.9430   77.7610  220.5150 O   0  0  0  0  0  0  0  0  0  0  0  0
  141.2080   77.9680  221.6590 C   0  0  0  0  0  0  0  0  0  0  0  0
  141.6380   79.1320  222.4630 C   0  0  0  0  0  0  0  0  0  0  0  0
  140.6390   79.9560  222.9670 C   0  0  0  0  0  0  0  0  0  0  0  0
  140.9080   81.0720  223.7290 C   0  0  0  0  0  0  0  0  0  0  0  0
  142.2340   81.3500  223.9820 C   0  0  0  0  0  0  0  0  0  0  0  0
  143.2330   80.5460  223.4930 C   0  0  0  0  0  0  0  0  0  0  0  0
  142.9590   79.4220  222.7240 C   0  0  0  0  0  0  0  0  0  0  0  0
  138.9730   70.8450  223.4400 C   0  0  0  0  0  0  0  0  0  0  0  0
  138.7400   69.4860  223.5050 C   0  0  0  0  0  0  0  0  0  0  0  0
  139.1270   68.6960  224.5600 C   0  0  0  0  0  0  0  0  0  0  0  0
  139.7860   69.2760  225.6220 C   0  0  0  0  0  0  0  0  0  0  0  0
  140.1770   68.4910  226.6850 C   0  0  0  0  0  0  0  0  0  0  0  0
  140.8340   69.1160  227.7250 C   0  0  0  0  0  0  0  0  0  0  0  0
  141.3470   68.1460  229.0950 Cl  0  0  0  0  0  0  0  0  0  0  0  0
  141.0990   70.4690  227.7240 C   0  0  0  0  0  0  0  0  0  0  0  0
  140.6850   71.2210  226.6300 C   0  0  0  0  0  0  0  0  0  0  0  0
  140.0200   70.6360  225.5600 C   0  0  0  0  0  0  0  0  0  0  0  0
  139.6240   71.3900  224.4990 N   0  0  0  0  0  0  0  0  0  0  0  0
  139.3790   73.4820  223.1140 H   0  0  0  0  0  0  0  0  0  0  0  0
  138.2968   73.2900  220.2744 H   0  0  0  0  0  0  0  0  0  0  0  0
  137.5053   74.4172  221.4049 H   0  0  0  0  0  0  0  0  0  0  0  0
  138.3264   74.9376  218.3721 H   0  0  0  0  0  0  0  0  0  0  0  0
  137.9127   76.3929  219.2804 H   0  0  0  0  0  0  0  0  0  0  0  0
  139.7009   76.0548  216.8844 H   0  0  0  0  0  0  0  0  0  0  0  0
  138.7230   77.4449  217.3107 H   0  0  0  0  0  0  0  0  0  0  0  0
  141.3387   77.6204  217.7126 H   0  0  0  0  0  0  0  0  0  0  0  0
  140.3690   78.1511  219.0454 H   0  0  0  0  0  0  0  0  0  0  0  0
  141.5755   75.2459  218.6321 H   0  0  0  0  0  0  0  0  0  0  0  0
  142.0462   75.8061  221.0921 H   0  0  0  0  0  0  0  0  0  0  0  0
  143.1238   76.2781  219.7459 H   0  0  0  0  0  0  0  0  0  0  0  0
  140.1577   78.1198  221.3696 H   0  0  0  0  0  0  0  0  0  0  0  0
  141.3566   77.0799  222.2908 H   0  0  0  0  0  0  0  0  0  0  0  0
  139.5901   79.7070  222.7486 H   0  0  0  0  0  0  0  0  0  0  0  0
  140.1017   81.7115  224.1175 H   0  0  0  0  0  0  0  0  0  0  0  0
  142.4960   82.2312  224.5860 H   0  0  0  0  0  0  0  0  0  0  0  0
  144.2800   80.7987  223.7162 H   0  0  0  0  0  0  0  0  0  0  0  0
  143.7687   78.7858  222.3371 H   0  0  0  0  0  0  0  0  0  0  0  0
  138.2148   69.0087  222.6646 H   0  0  0  0  0  0  0  0  0  0  0  0
  138.9141   67.6168  224.5570 H   0  0  0  0  0  0  0  0  0  0  0  0
  139.9736   67.4101  226.7036 H   0  0  0  0  0  0  0  0  0  0  0  0
  141.6245   70.9415  228.5670 H   0  0  0  0  0  0  0  0  0  0  0  0
  140.8884   72.3019  226.6116 H   0  0  0  0  0  0  0  0  0  0  0  0
  1  2  2  0
  2  3  1  0
  3  4  1  0
  4  5  1  0
  5  6  2  0
  5  7  1  0
  7  8  1  0
  8  9  1  0
  9 10  1  0
 10 11  1  0
 11 12  1  0
 12 13  1  0
 13 14  1  0
 14 15  1  0
 15 16  2  0
 16 17  1  0
 17 18  2  0
 18 19  1  0
 19 20  2  0
  2 21  1  0
 21 22  2  0
 22 23  1  0
 23 24  2  0
 24 25  1  0
 25 26  2  0
 26 27  1  0
 26 28  1  0
 28 29  2  0
 29 30  1  0
 30 31  2  0
 11  7  1  0
 20 15  1  0
 31 21  1  0
 30 24  1  0
  3 32  1  0
  4 33  1  0
  4 34  1  0
  8 35  1  0
  8 36  1  0
  9 37  1  0
  9 38  1  0
 10 39  1  0
 10 40  1  0
 11 41  1  6
 12 42  1  0
 12 43  1  0
 14 44  1  0
 14 45  1  0
 16 46  1  0
 17 47  1  0
 18 48  1  0
 19 49  1  0
 20 50  1  0
 22 51  1  0
 23 52  1  0
 25 53  1  0
 28 54  1  0
 29 55  1  0
M  END
>  <smiles>  (9) 
O=C(NCC(=O)N1CCC[C@H]1COCc1ccccc1)c1ccc2cc(Cl)ccc2n1

>  <score_type>  (9) 
oracle

>  <origin>  (9) 
autodockgpu

>  <m_score__min__energy>  (9) 
-9.1699999999999999

>  <m_primary>  (9) 
energy

>  <rmsd>  (9) 
0.8631522007307989

>  <m_score__min__rmsd>  (9) 
0.8631522007307989

>  <meeko>  (9) 
{"free_energy": -8.16, "intermolecular_energy": -10.54, "internal_energy": -2.23, "cluster_size": 12, "cluster_id": 2, "rank_in_cluster": 7}

>  <energy>  (9) 
-8.09

>  <cluster_rmsd>  (9) 
1.13

>  <cluster>  (9) 
1

$$$$

     RDKit          3D

 55 58  0  0  0  0  0  0  0  0999 V2000
  137.4300   74.4800  220.9160 O   0  0  0  0  0  0  0  0  0  0  0  0
  138.4160   74.4030  221.6860 C   0  0  0  0  0  0  0  0  0  0  0  0
  138.8180   73.2150  222.3510 N   0  0  0  0  0  0  0  0  0  0  0  0
  138.0600   71.9600  222.1580 C   0  0  0  0  0  0  0  0  0  0  0  0
  138.8710   70.8740  222.6850 C   0  0  0  0  0  0  0  0  0  0  0  0
  139.9650   71.2010  223.2740 O   0  0  0  0  0  0  0  0  0  0  0  0
  138.6110   69.4870  222.6340 N   0  0  0  0  0  0  0  0  0  0  0  0
  138.9030   68.7490  221.3700 C   0  0  0  0  0  0  0  0  0  0  0  0
  138.6440   67.3160  221.6910 C   0  0  0  0  0  0  0  0  0  0  0  0
  138.8180   67.2600  223.1750 C   0  0  0  0  0  0  0  0  0  0  0  0
  138.0820   68.5490  223.5800 C   0  0  1  0  0  0  0  0  0  0  0  0
  138.3240   68.8510  225.0210 C   0  0  0  0  0  0  0  0  0  0  0  0
  138.9500   67.7560  225.5970 O   0  0  0  0  0  0  0  0  0  0  0  0
  140.2060   68.0170  226.0940 C   0  0  0  0  0  0  0  0  0  0  0  0
  140.3630   69.3620  226.6890 C   0  0  0  0  0  0  0  0  0  0  0  0
  141.0960   70.2920  225.9620 C   0  0  0  0  0  0  0  0  0  0  0  0
  141.3160   71.5790  226.4070 C   0  0  0  0  0  0  0  0  0  0  0  0
  140.7700   71.9190  227.6250 C   0  0  0  0  0  0  0  0  0  0  0  0
  140.0430   71.0120  228.3560 C   0  0  0  0  0  0  0  0  0  0  0  0
  139.8240   69.7160  227.9050 C   0  0  0  0  0  0  0  0  0  0  0  0
  139.2000   75.6160  221.9150 C   0  0  0  0  0  0  0  0  0  0  0  0
  140.5230   75.7140  221.5330 C   0  0  0  0  0  0  0  0  0  0  0  0
  141.2920   76.8360  221.7310 C   0  0  0  0  0  0  0  0  0  0  0  0
  140.7270   77.9330  222.3440 C   0  0  0  0  0  0  0  0  0  0  0  0
  141.4910   79.0610  222.5470 C   0  0  0  0  0  0  0  0  0  0  0  0
  140.8830   80.1340  223.1650 C   0  0  0  0  0  0  0  0  0  0  0  0
  141.8270   81.5880  223.4390 Cl  0  0  0  0  0  0  0  0  0  0  0  0
  139.5660   80.1030  223.5720 C   0  0  0  0  0  0  0  0  0  0  0  0
  138.8340   78.9410  223.3460 C   0  0  0  0  0  0  0  0  0  0  0  0
  139.4030   77.8360  222.7280 C   0  0  0  0  0  0  0  0  0  0  0  0
  138.6700   76.7100  222.5170 N   0  0  0  0  0  0  0  0  0  0  0  0
  139.6610   73.1970  222.9920 H   0  0  0  0  0  0  0  0  0  0  0  0
  137.1039   72.0117  222.6995 H   0  0  0  0  0  0  0  0  0  0  0  0
  137.8424   71.7989  221.0918 H   0  0  0  0  0  0  0  0  0  0  0  0
  138.2399   69.0900  220.5612 H   0  0  0  0  0  0  0  0  0  0  0  0
  139.9337   68.9150  221.0234 H   0  0  0  0  0  0  0  0  0  0  0  0
  137.6229   67.0257  221.4026 H   0  0  0  0  0  0  0  0  0  0  0  0
  139.3110   66.6266  221.1527 H   0  0  0  0  0  0  0  0  0  0  0  0
  138.3445   66.3665  223.6080 H   0  0  0  0  0  0  0  0  0  0  0  0
  139.8616   67.1959  223.5167 H   0  0  0  0  0  0  0  0  0  0  0  0
  136.9832   68.5283  223.5337 H   0  0  0  0  0  0  0  0  0  0  0  0
  138.9683   69.7379  225.1119 H   0  0  0  0  0  0  0  0  0  0  0  0
  137.3705   69.0535  225.5307 H   0  0  0  0  0  0  0  0  0  0  0  0
  140.4307   67.2699  226.8695 H   0  0  0  0  0  0  0  0  0  0  0  0
  140.8966   67.9706  225.2390 H   0  0  0  0  0  0  0  0  0  0  0  0
  141.5180   69.9896  224.9922 H   0  0  0  0  0  0  0  0  0  0  0  0
  141.9003   72.3002  225.8166 H   0  0  0  0  0  0  0  0  0  0  0  0
  140.9190   72.9351  228.0191 H   0  0  0  0  0  0  0  0  0  0  0  0
  139.6226   71.3197  229.3248 H   0  0  0  0  0  0  0  0  0  0  0  0
  139.2400   68.9978  228.4993 H   0  0  0  0  0  0  0  0  0  0  0  0
  140.9877   74.8458  221.0428 H   0  0  0  0  0  0  0  0  0  0  0  0
  142.3424   76.8577  221.4051 H   0  0  0  0  0  0  0  0  0  0  0  0
  142.5432   79.1044  222.2292 H   0  0  0  0  0  0  0  0  0  0  0  0
  139.1060   80.9736  224.0624 H   0  0  0  0  0  0  0  0  0  0  0  0
  137.7819   78.8974  223.6640 H   0  0  0  0  0  0  0  0  0  0  0  0
  1  2  2  0
  2  3  1  0
  3  4  1  0
  4  5  1  0
  5  6  2  0
  5  7  1  0
  7  8  1  0
  8  9  1  0
  9 10  1  0
 10 11  1  0
 11 12  1  0
 12 13  1  0
 13 14  1  0
 14 15  1  0
 15 16  2  0
 16 17  1  0
 17 18  2  0
 18 19  1  0
 19 20  2  0
  2 21  1  0
 21 22  2  0
 22 23  1  0
 23 24  2  0
 24 25  1  0
 25 26  2  0
 26 27  1  0
 26 28  1  0
 28 29  2  0
 29 30  1  0
 30 31  2  0
 11  7  1  0
 20 15  1  0
 31 21  1  0
 30 24  1  0
  3 32  1  0
  4 33  1  0
  4 34  1  0
  8 35  1  0
  8 36  1  0
  9 37  1  0
  9 38  1  0
 10 39  1  0
 10 40  1  0
 11 41  1  1
 12 42  1  0
 12 43  1  0
 14 44  1  0
 14 45  1  0
 16 46  1  0
 17 47  1  0
 18 48  1  0
 19 49  1  0
 20 50  1  0
 22 51  1  0
 23 52  1  0
 25 53  1  0
 28 54  1  0
 29 55  1  0
M  END
>  <smiles>  (10) 
O=C(NCC(=O)N1CCC[C@H]1COCc1ccccc1)c1ccc2cc(Cl)ccc2n1

>  <score_type>  (10) 
oracle

>  <origin>  (10) 
autodockgpu

>  <m_score__min__energy>  (10) 
-9.1699999999999999

>  <m_primary>  (10) 
energy

>  <rmsd>  (10) 
8.245475889727771

>  <m_score__min__rmsd>  (10) 
8.245475889727771

>  <meeko>  (10) 
{"free_energy": -8.74, "intermolecular_energy": -11.13, "internal_energy": -2.26, "cluster_size": 16, "cluster_id": 1, "rank_in_cluster": 2}

>  <energy>  (10) 
-8.05

>  <cluster_rmsd>  (10) 
1.29

>  <cluster>  (10) 
1

$$$$

     RDKit          3D

 55 58  0  0  0  0  0  0  0  0999 V2000
  139.5070   72.0240  220.8030 O   0  0  0  0  0  0  0  0  0  0  0  0
  139.5760   72.4960  221.9620 C   0  0  0  0  0  0  0  0  0  0  0  0
  139.4990   73.8810  222.2650 N   0  0  0  0  0  0  0  0  0  0  0  0
  139.3270   74.8730  221.1820 C   0  0  0  0  0  0  0  0  0  0  0  0
  140.5810   75.5970  221.0500 C   0  0  0  0  0  0  0  0  0  0  0  0
  141.0550   76.1340  222.1170 O   0  0  0  0  0  0  0  0  0  0  0  0
  141.3570   75.7940  219.8870 N   0  0  0  0  0  0  0  0  0  0  0  0
  142.4380   76.8230  219.9120 C   0  0  0  0  0  0  0  0  0  0  0  0
  143.1320   76.6850  218.5980 C   0  0  0  0  0  0  0  0  0  0  0  0
  142.8310   75.2760  218.1980 C   0  0  0  0  0  0  0  0  0  0  0  0
  141.3430   75.2000  218.5830 C   0  0  1  0  0  0  0  0  0  0  0  0
  140.8600   73.7900  218.5000 C   0  0  0  0  0  0  0  0  0  0  0  0
  141.9630   72.9500  218.4920 O   0  0  0  0  0  0  0  0  0  0  0  0
  142.3270   72.4790  219.7320 C   0  0  0  0  0  0  0  0  0  0  0  0
  143.7500   72.6890  220.0760 C   0  0  0  0  0  0  0  0  0  0  0  0
  144.0600   73.8240  220.8150 C   0  0  0  0  0  0  0  0  0  0  0  0
  145.3480   74.1340  221.1990 C   0  0  0  0  0  0  0  0  0  0  0  0
  146.3400   73.2580  220.8150 C   0  0  0  0  0  0  0  0  0  0  0  0
  146.0510   72.1330  220.0840 C   0  0  0  0  0  0  0  0  0  0  0  0
  144.7520   71.8240  219.6990 C   0  0  0  0  0  0  0  0  0  0  0  0
  139.7490   71.5590  223.0710 C   0  0  0  0  0  0  0  0  0  0  0  0
  139.4150   70.2250  222.9610 C   0  0  0  0  0  0  0  0  0  0  0  0
  139.5630   69.3150  223.9800 C   0  0  0  0  0  0  0  0  0  0  0  0
  140.0700   69.7430  225.1880 C   0  0  0  0  0  0  0  0  0  0  0  0
  140.2210   68.8370  226.2160 C   0  0  0  0  0  0  0  0  0  0  0  0
  140.7330   69.3110  227.4060 C   0  0  0  0  0  0  0  0  0  0  0  0
  140.9380   68.1850  228.7370 Cl  0  0  0  0  0  0  0  0  0  0  0  0
  141.0860   70.6320  227.5840 C   0  0  0  0  0  0  0  0  0  0  0  0
  140.9160   71.5090  226.5180 C   0  0  0  0  0  0  0  0  0  0  0  0
  140.4040   71.0790  225.3010 C   0  0  0  0  0  0  0  0  0  0  0  0
  140.2460   71.9530  224.2720 N   0  0  0  0  0  0  0  0  0  0  0  0
  139.5600   74.2340  223.2620 H   0  0  0  0  0  0  0  0  0  0  0  0
  139.0876   74.3611  220.2382 H   0  0  0  0  0  0  0  0  0  0  0  0
  138.5034   75.5636  221.4161 H   0  0  0  0  0  0  0  0  0  0  0  0
  142.0103   77.8307  220.0195 H   0  0  0  0  0  0  0  0  0  0  0  0
  143.1248   76.6807  220.7594 H   0  0  0  0  0  0  0  0  0  0  0  0
  142.7301   77.3980  217.8630 H   0  0  0  0  0  0  0  0  0  0  0  0
  144.2101   76.8957  218.6557 H   0  0  0  0  0  0  0  0  0  0  0  0
  142.9823   75.1166  217.1202 H   0  0  0  0  0  0  0  0  0  0  0  0
  143.4704   74.5145  218.6685 H   0  0  0  0  0  0  0  0  0  0  0  0
  140.6326   75.7228  217.9258 H   0  0  0  0  0  0  0  0  0  0  0  0
  140.2260   73.5626  219.3696 H   0  0  0  0  0  0  0  0  0  0  0  0
  140.2684   73.6462  217.5839 H   0  0  0  0  0  0  0  0  0  0  0  0
  141.7122   72.9902  220.4874 H   0  0  0  0  0  0  0  0  0  0  0  0
  142.1681   71.3907  219.7115 H   0  0  0  0  0  0  0  0  0  0  0  0
  143.2449   74.5031  221.1057 H   0  0  0  0  0  0  0  0  0  0  0  0
  145.5727   75.0379  221.7842 H   0  0  0  0  0  0  0  0  0  0  0  0
  147.3824   73.4642  221.0995 H   0  0  0  0  0  0  0  0  0  0  0  0
  146.8698   71.4576  219.7950 H   0  0  0  0  0  0  0  0  0  0  0  0
  144.5321   70.9193  219.1132 H   0  0  0  0  0  0  0  0  0  0  0  0
  139.0071   69.8696  222.0033 H   0  0  0  0  0  0  0  0  0  0  0  0
  139.2813   68.2618  223.8339 H   0  0  0  0  0  0  0  0  0  0  0  0
  139.9445   67.7795  226.0924 H   0  0  0  0  0  0  0  0  0  0  0  0
  141.4916   70.9831  228.5443 H   0  0  0  0  0  0  0  0  0  0  0  0
  141.1932   72.5663  226.6417 H   0  0  0  0  0  0  0  0  0  0  0  0
  1  2  2  0
  2  3  1  0
  3  4  1  0
  4  5  1  0
  5  6  2  0
  5  7  1  0
  7  8  1  0
  8  9  1  0
  9 10  1  0
 10 11  1  0
 11 12  1  0
 12 13  1  0
 13 14  1  0
 14 15  1  0
 15 16  2  0
 16 17  1  0
 17 18  2  0
 18 19  1  0
 19 20  2  0
  2 21  1  0
 21 22  2  0
 22 23  1  0
 23 24  2  0
 24 25  1  0
 25 26  2  0
 26 27  1  0
 26 28  1  0
 28 29  2  0
 29 30  1  0
 30 31  2  0
 11  7  1  0
 20 15  1  0
 31 21  1  0
 30 24  1  0
  3 32  1  0
  4 33  1  0
  4 34  1  0
  8 35  1  0
  8 36  1  0
  9 37  1  0
  9 38  1  0
 10 39  1  0
 10 40  1  0
 11 41  1  6
 12 42  1  0
 12 43  1  0
 14 44  1  0
 14 45  1  0
 16 46  1  0
 17 47  1  0
 18 48  1  0
 19 49  1  0
 20 50  1  0
 22 51  1  0
 23 52  1  0
 25 53  1  0
 28 54  1  0
 29 55  1  0
M  END
>  <smiles>  (11) 
O=C(NCC(=O)N1CCC[C@H]1COCc1ccccc1)c1ccc2cc(Cl)ccc2n1

>  <score_type>  (11) 
oracle

>  <origin>  (11) 
autodockgpu

>  <m_score__min__energy>  (11) 
-9.1699999999999999

>  <m_primary>  (11) 
energy

>  <rmsd>  (11) 
2.2835168561864885

>  <m_score__min__rmsd>  (11) 
2.2835168561864885

>  <meeko>  (11) 
{"free_energy": -7.58, "intermolecular_energy": -9.97, "internal_energy": -2.65, "cluster_size": 14, "cluster_id": 3, "rank_in_cluster": 13}

>  <energy>  (11) 
-8.01

>  <cluster_rmsd>  (11) 
1.19

>  <cluster>  (11) 
1

$$$$

     RDKit          3D

 55 58  0  0  0  0  0  0  0  0999 V2000
  141.4050   74.1920  220.7910 O   0  0  0  0  0  0  0  0  0  0  0  0
  140.5170   74.3440  221.6620 C   0  0  0  0  0  0  0  0  0  0  0  0
  139.8520   73.2750  222.3190 N   0  0  0  0  0  0  0  0  0  0  0  0
  140.1890   71.8730  221.9900 C   0  0  0  0  0  0  0  0  0  0  0  0
  139.4750   71.0210  222.9280 C   0  0  0  0  0  0  0  0  0  0  0  0
  139.2240   71.5180  224.0860 O   0  0  0  0  0  0  0  0  0  0  0  0
  139.0170   69.7000  222.7320 N   0  0  0  0  0  0  0  0  0  0  0  0
  139.3100   69.0250  221.4330 C   0  0  0  0  0  0  0  0  0  0  0  0
  138.8110   67.6290  221.6020 C   0  0  0  0  0  0  0  0  0  0  0  0
  138.8370   67.4340  223.0850 C   0  0  0  0  0  0  0  0  0  0  0  0
  138.2680   68.7880  223.5440 C   0  0  1  0  0  0  0  0  0  0  0  0
  138.4180   68.9360  225.0210 C   0  0  0  0  0  0  0  0  0  0  0  0
  139.0670   67.8120  225.5090 O   0  0  0  0  0  0  0  0  0  0  0  0
  140.3060   68.0630  226.0500 C   0  0  0  0  0  0  0  0  0  0  0  0
  140.4500   69.4020  226.6620 C   0  0  0  0  0  0  0  0  0  0  0  0
  141.2310   70.3270  225.9820 C   0  0  0  0  0  0  0  0  0  0  0  0
  141.4430   71.6080  226.4460 C   0  0  0  0  0  0  0  0  0  0  0  0
  140.8400   71.9470  227.6370 C   0  0  0  0  0  0  0  0  0  0  0  0
  140.0640   71.0450  228.3230 C   0  0  0  0  0  0  0  0  0  0  0  0
  139.8520   69.7550  227.8520 C   0  0  0  0  0  0  0  0  0  0  0  0
  140.1430   75.7100  222.0230 C   0  0  0  0  0  0  0  0  0  0  0  0
  141.0820   76.7080  222.1850 C   0  0  0  0  0  0  0  0  0  0  0  0
  140.7690   78.0030  222.5240 C   0  0  0  0  0  0  0  0  0  0  0  0
  139.4470   78.3400  222.7180 C   0  0  0  0  0  0  0  0  0  0  0  0
  139.1240   79.6360  223.0590 C   0  0  0  0  0  0  0  0  0  0  0  0
  137.7890   79.9270  223.2430 C   0  0  0  0  0  0  0  0  0  0  0  0
  137.3420   81.5680  223.6770 Cl  0  0  0  0  0  0  0  0  0  0  0  0
  136.7990   78.9780  223.0960 C   0  0  0  0  0  0  0  0  0  0  0  0
  137.1730   77.6840  222.7520 C   0  0  0  0  0  0  0  0  0  0  0  0
  138.5050   77.3430  222.5570 C   0  0  0  0  0  0  0  0  0  0  0  0
  138.8490   76.0710  222.2210 N   0  0  0  0  0  0  0  0  0  0  0  0
  139.1080   73.4530  223.0510 H   0  0  0  0  0  0  0  0  0  0  0  0
  139.8765   71.6431  220.9607 H   0  0  0  0  0  0  0  0  0  0  0  0
  141.2739   71.7073  222.0640 H   0  0  0  0  0  0  0  0  0  0  0  0
  138.7823   69.5271  220.6087 H   0  0  0  0  0  0  0  0  0  0  0  0
  140.3813   69.0537  221.1849 H   0  0  0  0  0  0  0  0  0  0  0  0
  137.7891   67.5250  221.2083 H   0  0  0  0  0  0  0  0  0  0  0  0
  139.4139   66.8866  221.0586 H   0  0  0  0  0  0  0  0  0  0  0  0
  138.1972   66.5955  223.3975 H   0  0  0  0  0  0  0  0  0  0  0  0
  139.8234   67.1815  223.5013 H   0  0  0  0  0  0  0  0  0  0  0  0
  137.1877   68.9447  223.4082 H   0  0  0  0  0  0  0  0  0  0  0  0
  139.0110   69.8347  225.2461 H   0  0  0  0  0  0  0  0  0  0  0  0
  137.4298   69.0372  225.4934 H   0  0  0  0  0  0  0  0  0  0  0  0
  140.5011   67.3081  226.8260 H   0  0  0  0  0  0  0  0  0  0  0  0
  141.0242   68.0213  225.2179 H   0  0  0  0  0  0  0  0  0  0  0  0
  141.7000   70.0254  225.0338 H   0  0  0  0  0  0  0  0  0  0  0  0
  142.0647   72.3258  225.8908 H   0  0  0  0  0  0  0  0  0  0  0  0
  140.9824   72.9581  228.0460 H   0  0  0  0  0  0  0  0  0  0  0  0
  139.5977   71.3520  229.2708 H   0  0  0  0  0  0  0  0  0  0  0  0
  139.2286   69.0406  228.4097 H   0  0  0  0  0  0  0  0  0  0  0  0
  142.1413   76.4529  222.0343 H   0  0  0  0  0  0  0  0  0  0  0  0
  141.5609   78.7578  222.6385 H   0  0  0  0  0  0  0  0  0  0  0  0
  139.8997   80.4065  223.1794 H   0  0  0  0  0  0  0  0  0  0  0  0
  135.7410   79.2383  223.2470 H   0  0  0  0  0  0  0  0  0  0  0  0
  136.3971   76.9136  222.6317 H   0  0  0  0  0  0  0  0  0  0  0  0
  1  2  2  0
  2  3  1  0
  3  4  1  0
  4  5  1  0
  5  6  2  0
  5  7  1  0
  7  8  1  0
  8  9  1  0
  9 10  1  0
 10 11  1  0
 11 12  1  0
 12 13  1  0
 13 14  1  0
 14 15  1  0
 15 16  2  0
 16 17  1  0
 17 18  2  0
 18 19  1  0
 19 20  2  0
  2 21  1  0
 21 22  2  0
 22 23  1  0
 23 24  2  0
 24 25  1  0
 25 26  2  0
 26 27  1  0
 26 28  1  0
 28 29  2  0
 29 30  1  0
 30 31  2  0
 11  7  1  0
 20 15  1  0
 31 21  1  0
 30 24  1  0
  3 32  1  0
  4 33  1  0
  4 34  1  0
  8 35  1  0
  8 36  1  0
  9 37  1  0
  9 38  1  0
 10 39  1  0
 10 40  1  0
 11 41  1  1
 12 42  1  0
 12 43  1  0
 14 44  1  0
 14 45  1  0
 16 46  1  0
 17 47  1  0
 18 48  1  0
 19 49  1  0
 20 50  1  0
 22 51  1  0
 23 52  1  0
 25 53  1  0
 28 54  1  0
 29 55  1  0
M  END
>  <smiles>  (12) 
O=C(NCC(=O)N1CCC[C@H]1COCc1ccccc1)c1ccc2cc(Cl)ccc2n1

>  <score_type>  (12) 
oracle

>  <origin>  (12) 
autodockgpu

>  <m_score__min__energy>  (12) 
-9.1699999999999999

>  <m_primary>  (12) 
energy

>  <rmsd>  (12) 
8.346069111418231

>  <m_score__min__rmsd>  (12) 
8.346069111418231

>  <meeko>  (12) 
{"free_energy": -8.69, "intermolecular_energy": -11.08, "internal_energy": -2.45, "cluster_size": 16, "cluster_id": 1, "rank_in_cluster": 3}

>  <energy>  (12) 
-7.89

>  <cluster_rmsd>  (12) 
1.29

>  <cluster>  (12) 
1

$$$$

     RDKit          3D

 55 58  0  0  0  0  0  0  0  0999 V2000
  136.0390   74.5460  221.6630 O   0  0  0  0  0  0  0  0  0  0  0  0
  137.2160   74.5620  222.0920 C   0  0  0  0  0  0  0  0  0  0  0  0
  137.9850   73.3980  222.3550 N   0  0  0  0  0  0  0  0  0  0  0  0
  137.4080   72.0560  222.1270 C   0  0  0  0  0  0  0  0  0  0  0  0
  138.3670   71.0790  222.6170 C   0  0  0  0  0  0  0  0  0  0  0  0
  139.3880   71.5360  223.2510 O   0  0  0  0  0  0  0  0  0  0  0  0
  138.3260   69.6740  222.4860 N   0  0  0  0  0  0  0  0  0  0  0  0
  138.8210   69.0570  221.2210 C   0  0  0  0  0  0  0  0  0  0  0  0
  138.7590   67.5850  221.4590 C   0  0  0  0  0  0  0  0  0  0  0  0
  138.8250   67.4760  222.9490 C   0  0  0  0  0  0  0  0  0  0  0  0
  137.8730   68.6190  223.3440 C   0  0  1  0  0  0  0  0  0  0  0  0
  137.9560   68.8740  224.8120 C   0  0  0  0  0  0  0  0  0  0  0  0
  139.0110   68.1350  225.3260 O   0  0  0  0  0  0  0  0  0  0  0  0
  139.3390   68.4420  226.6260 C   0  0  0  0  0  0  0  0  0  0  0  0
  140.0610   69.7230  226.7910 C   0  0  0  0  0  0  0  0  0  0  0  0
  139.9770   70.3390  228.0330 C   0  0  0  0  0  0  0  0  0  0  0  0
  140.6030   71.5350  228.3150 C   0  0  0  0  0  0  0  0  0  0  0  0
  141.3330   72.1110  227.2980 C   0  0  0  0  0  0  0  0  0  0  0  0
  141.4260   71.5150  226.0650 C   0  0  0  0  0  0  0  0  0  0  0  0
  140.7930   70.3100  225.7840 C   0  0  0  0  0  0  0  0  0  0  0  0
  137.8360   75.8640  222.3370 C   0  0  0  0  0  0  0  0  0  0  0  0
  137.0910   77.0220  222.4310 C   0  0  0  0  0  0  0  0  0  0  0  0
  137.6370   78.2630  222.6600 C   0  0  0  0  0  0  0  0  0  0  0  0
  139.0030   78.3740  222.8070 C   0  0  0  0  0  0  0  0  0  0  0  0
  139.5580   79.6140  223.0370 C   0  0  0  0  0  0  0  0  0  0  0  0
  140.9290   79.6760  223.1780 C   0  0  0  0  0  0  0  0  0  0  0  0
  141.6700   81.2400  223.4720 Cl  0  0  0  0  0  0  0  0  0  0  0  0
  141.7320   78.5580  223.0960 C   0  0  0  0  0  0  0  0  0  0  0  0
  141.1260   77.3280  222.8620 C   0  0  0  0  0  0  0  0  0  0  0  0
  139.7490   77.2150  222.7130 C   0  0  0  0  0  0  0  0  0  0  0  0
  139.1770   76.0030  222.4860 N   0  0  0  0  0  0  0  0  0  0  0  0
  138.9800   73.4610  222.7160 H   0  0  0  0  0  0  0  0  0  0  0  0
  136.4587   71.9575  222.6739 H   0  0  0  0  0  0  0  0  0  0  0  0
  137.2059   71.8978  221.0574 H   0  0  0  0  0  0  0  0  0  0  0  0
  138.1768   69.3393  220.3752 H   0  0  0  0  0  0  0  0  0  0  0  0
  139.8377   69.3921  220.9681 H   0  0  0  0  0  0  0  0  0  0  0  0
  137.8192   67.1625  221.0740 H   0  0  0  0  0  0  0  0  0  0  0  0
  139.5623   67.0318  220.9503 H   0  0  0  0  0  0  0  0  0  0  0  0
  138.4605   66.5005  223.3033 H   0  0  0  0  0  0  0  0  0  0  0  0
  139.8369   67.5486  223.3741 H   0  0  0  0  0  0  0  0  0  0  0  0
  136.7966   68.4404  223.2043 H   0  0  0  0  0  0  0  0  0  0  0  0
  138.1293   69.9449  224.9938 H   0  0  0  0  0  0  0  0  0  0  0  0
  137.0153   68.5797  225.3004 H   0  0  0  0  0  0  0  0  0  0  0  0
  138.4094   68.4938  227.2118 H   0  0  0  0  0  0  0  0  0  0  0  0
  140.0217   67.6516  226.9712 H   0  0  0  0  0  0  0  0  0  0  0  0
  139.3870   69.8530  228.8241 H   0  0  0  0  0  0  0  0  0  0  0  0
  140.5233   72.0071  229.3054 H   0  0  0  0  0  0  0  0  0  0  0  0
  141.8502   73.0651  227.4774 H   0  0  0  0  0  0  0  0  0  0  0  0
  142.0178   72.0046  225.2776 H   0  0  0  0  0  0  0  0  0  0  0  0
  140.8742   69.8420  224.7919 H   0  0  0  0  0  0  0  0  0  0  0  0
  135.9995   76.9480  222.3163 H   0  0  0  0  0  0  0  0  0  0  0  0
  136.9939   79.1531  222.7249 H   0  0  0  0  0  0  0  0  0  0  0  0
  138.9338   80.5171  223.1054 H   0  0  0  0  0  0  0  0  0  0  0  0
  142.8230   78.6367  223.2125 H   0  0  0  0  0  0  0  0  0  0  0  0
  141.7504   76.4250  222.7934 H   0  0  0  0  0  0  0  0  0  0  0  0
  1  2  2  0
  2  3  1  0
  3  4  1  0
  4  5  1  0
  5  6  2  0
  5  7  1  0
  7  8  1  0
  8  9  1  0
  9 10  1  0
 10 11  1  0
 11 12  1  0
 12 13  1  0
 13 14  1  0
 14 15  1  0
 15 16  2  0
 16 17  1  0
 17 18  2  0
 18 19  1  0
 19 20  2  0
  2 21  1  0
 21 22  2  0
 22 23  1  0
 23 24  2  0
 24 25  1  0
 25 26  2  0
 26 27  1  0
 26 28  1  0
 28 29  2  0
 29 30  1  0
 30 31  2  0
 11  7  1  0
 20 15  1  0
 31 21  1  0
 30 24  1  0
  3 32  1  0
  4 33  1  0
  4 34  1  0
  8 35  1  0
  8 36  1  0
  9 37  1  0
  9 38  1  0
 10 39  1  0
 10 40  1  0
 11 41  1  6
 12 42  1  0
 12 43  1  0
 14 44  1  0
 14 45  1  0
 16 46  1  0
 17 47  1  0
 18 48  1  0
 19 49  1  0
 20 50  1  0
 22 51  1  0
 23 52  1  0
 25 53  1  0
 28 54  1  0
 29 55  1  0
M  END
>  <smiles>  (13) 
O=C(NCC(=O)N1CCC[C@H]1COCc1ccccc1)c1ccc2cc(Cl)ccc2n1

>  <score_type>  (13) 
oracle

>  <origin>  (13) 
autodockgpu

>  <m_score__min__energy>  (13) 
-9.1699999999999999

>  <m_primary>  (13) 
energy

>  <rmsd>  (13) 
8.168805914975545

>  <m_score__min__rmsd>  (13) 
8.168805914975545

>  <meeko>  (13) 
{"free_energy": -8.42, "intermolecular_energy": -10.8, "internal_energy": -2.48, "cluster_size": 16, "cluster_id": 1, "rank_in_cluster": 6}

>  <energy>  (13) 
-7.84

>  <cluster_rmsd>  (13) 
1.16

>  <cluster>  (13) 
1

$$$$

     RDKit          3D

 55 58  0  0  0  0  0  0  0  0999 V2000
  139.7110   72.3460  220.5860 O   0  0  0  0  0  0  0  0  0  0  0  0
  139.6890   72.7990  221.7540 C   0  0  0  0  0  0  0  0  0  0  0  0
  139.5250   74.1730  222.0740 N   0  0  0  0  0  0  0  0  0  0  0  0
  139.3670   75.1750  220.9990 C   0  0  0  0  0  0  0  0  0  0  0  0
  139.6190   76.4840  221.5800 C   0  0  0  0  0  0  0  0  0  0  0  0
  139.3800   76.6150  222.8360 O   0  0  0  0  0  0  0  0  0  0  0  0
  140.0970   77.6470  220.9380 N   0  0  0  0  0  0  0  0  0  0  0  0
  139.8890   78.9680  221.6000 C   0  0  0  0  0  0  0  0  0  0  0  0
  140.6110   79.9500  220.7400 C   0  0  0  0  0  0  0  0  0  0  0  0
  141.6330   79.1080  220.0440 C   0  0  0  0  0  0  0  0  0  0  0  0
  140.7770   77.8770  219.6980 C   0  0  1  0  0  0  0  0  0  0  0  0
  141.6430   76.7690  219.2000 C   0  0  0  0  0  0  0  0  0  0  0  0
  142.6960   76.6050  220.0870 O   0  0  0  0  0  0  0  0  0  0  0  0
  143.7900   75.9610  219.5570 C   0  0  0  0  0  0  0  0  0  0  0  0
  143.9660   74.5670  220.0200 C   0  0  0  0  0  0  0  0  0  0  0  0
  142.8280   73.7720  220.0790 C   0  0  0  0  0  0  0  0  0  0  0  0
  142.8580   72.4580  220.4940 C   0  0  0  0  0  0  0  0  0  0  0  0
  144.0850   71.9470  220.8570 C   0  0  0  0  0  0  0  0  0  0  0  0
  145.2190   72.7190  220.8050 C   0  0  0  0  0  0  0  0  0  0  0  0
  145.1850   74.0430  220.3860 C   0  0  0  0  0  0  0  0  0  0  0  0
  139.8430   71.8520  222.8570 C   0  0  0  0  0  0  0  0  0  0  0  0
  139.4940   70.5220  222.7330 C   0  0  0  0  0  0  0  0  0  0  0  0
  139.6240   69.6020  223.7460 C   0  0  0  0  0  0  0  0  0  0  0  0
  140.1290   70.0140  224.9610 C   0  0  0  0  0  0  0  0  0  0  0  0
  140.2620   69.0990  225.9820 C   0  0  0  0  0  0  0  0  0  0  0  0
  140.7720   69.5570  227.1790 C   0  0  0  0  0  0  0  0  0  0  0  0
  140.9560   68.4170  228.5010 Cl  0  0  0  0  0  0  0  0  0  0  0  0
  141.1400   70.8720  227.3700 C   0  0  0  0  0  0  0  0  0  0  0  0
  140.9870   71.7590  226.3100 C   0  0  0  0  0  0  0  0  0  0  0  0
  140.4780   71.3450  225.0860 C   0  0  0  0  0  0  0  0  0  0  0  0
  140.3370   72.2290  224.0630 N   0  0  0  0  0  0  0  0  0  0  0  0
  139.5110   74.5090  223.0790 H   0  0  0  0  0  0  0  0  0  0  0  0
  140.0883   74.9771  220.1924 H   0  0  0  0  0  0  0  0  0  0  0  0
  138.3539   75.1291  220.5729 H   0  0  0  0  0  0  0  0  0  0  0  0
  138.8174   79.2114  221.6486 H   0  0  0  0  0  0  0  0  0  0  0  0
  140.2611   78.9740  222.6352 H   0  0  0  0  0  0  0  0  0  0  0  0
  139.9273   80.4187  220.0169 H   0  0  0  0  0  0  0  0  0  0  0  0
  141.0522   80.7806  221.3105 H   0  0  0  0  0  0  0  0  0  0  0  0
  142.0217   79.6015  219.1410 H   0  0  0  0  0  0  0  0  0  0  0  0
  142.5353   78.8927  220.6351 H   0  0  0  0  0  0  0  0  0  0  0  0
  140.0563   77.9894  218.8746 H   0  0  0  0  0  0  0  0  0  0  0  0
  141.0589   75.8388  219.1405 H   0  0  0  0  0  0  0  0  0  0  0  0
  142.0268   77.0101  218.1977 H   0  0  0  0  0  0  0  0  0  0  0  0
  143.6841   75.9485  218.4622 H   0  0  0  0  0  0  0  0  0  0  0  0
  144.6756   76.5176  219.8975 H   0  0  0  0  0  0  0  0  0  0  0  0
  141.8633   74.2093  219.7822 H   0  0  0  0  0  0  0  0  0  0  0  0
  141.9449   71.8458  220.5336 H   0  0  0  0  0  0  0  0  0  0  0  0
  144.1572   70.9025  221.1943 H   0  0  0  0  0  0  0  0  0  0  0  0
  146.1811   72.2770  221.1033 H   0  0  0  0  0  0  0  0  0  0  0  0
  146.1005   74.6516  220.3480 H   0  0  0  0  0  0  0  0  0  0  0  0
  139.0891   70.1793  221.7694 H   0  0  0  0  0  0  0  0  0  0  0  0
  139.3298   68.5537  223.5898 H   0  0  0  0  0  0  0  0  0  0  0  0
  139.9733   68.0460  225.8482 H   0  0  0  0  0  0  0  0  0  0  0  0
  141.5440   71.2106  228.3355 H   0  0  0  0  0  0  0  0  0  0  0  0
  141.2756   72.8120  226.4440 H   0  0  0  0  0  0  0  0  0  0  0  0
  1  2  2  0
  2  3  1  0
  3  4  1  0
  4  5  1  0
  5  6  2  0
  5  7  1  0
  7  8  1  0
  8  9  1  0
  9 10  1  0
 10 11  1  0
 11 12  1  0
 12 13  1  0
 13 14  1  0
 14 15  1  0
 15 16  2  0
 16 17  1  0
 17 18  2  0
 18 19  1  0
 19 20  2  0
  2 21  1  0
 21 22  2  0
 22 23  1  0
 23 24  2  0
 24 25  1  0
 25 26  2  0
 26 27  1  0
 26 28  1  0
 28 29  2  0
 29 30  1  0
 30 31  2  0
 11  7  1  0
 20 15  1  0
 31 21  1  0
 30 24  1  0
  3 32  1  0
  4 33  1  0
  4 34  1  0
  8 35  1  0
  8 36  1  0
  9 37  1  0
  9 38  1  0
 10 39  1  0
 10 40  1  0
 11 41  1  6
 12 42  1  0
 12 43  1  0
 14 44  1  0
 14 45  1  0
 16 46  1  0
 17 47  1  0
 18 48  1  0
 19 49  1  0
 20 50  1  0
 22 51  1  0
 23 52  1  0
 25 53  1  0
 28 54  1  0
 29 55  1  0
M  END
>  <smiles>  (14) 
O=C(NCC(=O)N1CCC[C@H]1COCc1ccccc1)c1ccc2cc(Cl)ccc2n1

>  <score_type>  (14) 
oracle

>  <origin>  (14) 
autodockgpu

>  <m_score__min__energy>  (14) 
-9.1699999999999999

>  <m_primary>  (14) 
energy

>  <rmsd>  (14) 
2.6383076774624277

>  <m_score__min__rmsd>  (14) 
2.6383076774624277

>  <meeko>  (14) 
{"free_energy": -7.65, "intermolecular_energy": -10.04, "internal_energy": -2.8, "cluster_size": 14, "cluster_id": 3, "rank_in_cluster": 12}

>  <energy>  (14) 
-7.83

>  <cluster_rmsd>  (14) 
1.9

>  <cluster>  (14) 
1

$$$$

     RDKit          3D

 55 58  0  0  0  0  0  0  0  0999 V2000
  141.3480   74.1440  220.7900 O   0  0  0  0  0  0  0  0  0  0  0  0
  140.4480   74.3090  221.6450 C   0  0  0  0  0  0  0  0  0  0  0  0
  139.7430   73.2500  222.2760 N   0  0  0  0  0  0  0  0  0  0  0  0
  140.0510   71.8440  221.9370 C   0  0  0  0  0  0  0  0  0  0  0  0
  139.2520   70.9980  222.8100 C   0  0  0  0  0  0  0  0  0  0  0  0
  138.8350   71.5270  223.9050 O   0  0  0  0  0  0  0  0  0  0  0  0
  138.8700   69.6540  222.6120 N   0  0  0  0  0  0  0  0  0  0  0  0
  139.1960   69.0000  221.3120 C   0  0  0  0  0  0  0  0  0  0  0  0
  138.7790   67.5770  221.4790 C   0  0  0  0  0  0  0  0  0  0  0  0
  138.8210   67.3810  222.9610 C   0  0  0  0  0  0  0  0  0  0  0  0
  138.1770   68.6980  223.4250 C   0  0  1  0  0  0  0  0  0  0  0  0
  138.3230   68.8520  224.9030 C   0  0  0  0  0  0  0  0  0  0  0  0
  139.2510   67.9220  225.3480 O   0  0  0  0  0  0  0  0  0  0  0  0
  139.7680   68.1900  226.5940 C   0  0  0  0  0  0  0  0  0  0  0  0
  140.2930   69.5630  226.7590 C   0  0  0  0  0  0  0  0  0  0  0  0
  139.9900   70.2170  227.9470 C   0  0  0  0  0  0  0  0  0  0  0  0
  140.4180   71.4980  228.2230 C   0  0  0  0  0  0  0  0  0  0  0  0
  141.1750   72.1230  227.2560 C   0  0  0  0  0  0  0  0  0  0  0  0
  141.4840   71.4920  226.0770 C   0  0  0  0  0  0  0  0  0  0  0  0
  141.0500   70.2000  225.8030 C   0  0  0  0  0  0  0  0  0  0  0  0
  140.1000   75.6800  222.0160 C   0  0  0  0  0  0  0  0  0  0  0  0
  141.0620   76.6520  222.2070 C   0  0  0  0  0  0  0  0  0  0  0  0
  140.7750   77.9500  222.5560 C   0  0  0  0  0  0  0  0  0  0  0  0
  139.4580   78.3190  222.7290 C   0  0  0  0  0  0  0  0  0  0  0  0
  139.1620   79.6180  223.0790 C   0  0  0  0  0  0  0  0  0  0  0  0
  137.8310   79.9410  223.2420 C   0  0  0  0  0  0  0  0  0  0  0  0
  137.4170   81.5880  223.6870 Cl  0  0  0  0  0  0  0  0  0  0  0  0
  136.8200   79.0190  223.0660 C   0  0  0  0  0  0  0  0  0  0  0  0
  137.1680   77.7200  222.7130 C   0  0  0  0  0  0  0  0  0  0  0  0
  138.4950   77.3470  222.5390 C   0  0  0  0  0  0  0  0  0  0  0  0
  138.8130   76.0710  222.1930 N   0  0  0  0  0  0  0  0  0  0  0  0
  138.9890   73.4380  222.9970 H   0  0  0  0  0  0  0  0  0  0  0  0
  139.7949   71.6465  220.8856 H   0  0  0  0  0  0  0  0  0  0  0  0
  141.1229   71.6386  222.0739 H   0  0  0  0  0  0  0  0  0  0  0  0
  138.6372   69.4726  220.4908 H   0  0  0  0  0  0  0  0  0  0  0  0
  140.2630   69.0906  221.0605 H   0  0  0  0  0  0  0  0  0  0  0  0
  137.7636   67.4149  221.0882 H   0  0  0  0  0  0  0  0  0  0  0  0
  139.4219   66.8718  220.9319 H   0  0  0  0  0  0  0  0  0  0  0  0
  138.2316   66.5064  223.2736 H   0  0  0  0  0  0  0  0  0  0  0  0
  139.8217   67.1850  223.3735 H   0  0  0  0  0  0  0  0  0  0  0  0
  137.0890   68.7921  223.2934 H   0  0  0  0  0  0  0  0  0  0  0  0
  138.6724   69.8681  225.1384 H   0  0  0  0  0  0  0  0  0  0  0  0
  137.3547   68.6884  225.3987 H   0  0  0  0  0  0  0  0  0  0  0  0
  138.9715   68.0354  227.3368 H   0  0  0  0  0  0  0  0  0  0  0  0
  140.6221   67.5104  226.7306 H   0  0  0  0  0  0  0  0  0  0  0  0
  139.3833   69.6906  228.6986 H   0  0  0  0  0  0  0  0  0  0  0  0
  140.1671   71.9976  229.1703 H   0  0  0  0  0  0  0  0  0  0  0  0
  141.5383   73.1462  227.4322 H   0  0  0  0  0  0  0  0  0  0  0  0
  142.0912   72.0227  225.3289 H   0  0  0  0  0  0  0  0  0  0  0  0
  141.3032   69.7040  224.8544 H   0  0  0  0  0  0  0  0  0  0  0  0
  142.1171   76.3718  222.0723 H   0  0  0  0  0  0  0  0  0  0  0  0
  141.5834   78.6829  222.6951 H   0  0  0  0  0  0  0  0  0  0  0  0
  139.9547   80.3670  223.2226 H   0  0  0  0  0  0  0  0  0  0  0  0
  135.7662   79.3041  223.2014 H   0  0  0  0  0  0  0  0  0  0  0  0
  136.3753   76.9712  222.5683 H   0  0  0  0  0  0  0  0  0  0  0  0
  1  2  2  0
  2  3  1  0
  3  4  1  0
  4  5  1  0
  5  6  2  0
  5  7  1  0
  7  8  1  0
  8  9  1  0
  9 10  1  0
 10 11  1  0
 11 12  1  0
 12 13  1  0
 13 14  1  0
 14 15  1  0
 15 16  2  0
 16 17  1  0
 17 18  2  0
 18 19  1  0
 19 20  2  0
  2 21  1  0
 21 22  2  0
 22 23  1  0
 23 24  2  0
 24 25  1  0
 25 26  2  0
 26 27  1  0
 26 28  1  0
 28 29  2  0
 29 30  1  0
 30 31  2  0
 11  7  1  0
 20 15  1  0
 31 21  1  0
 30 24  1  0
  3 32  1  0
  4 33  1  0
  4 34  1  0
  8 35  1  0
  8 36  1  0
  9 37  1  0
  9 38  1  0
 10 39  1  0
 10 40  1  0
 11 41  1  1
 12 42  1  0
 12 43  1  0
 14 44  1  0
 14 45  1  0
 16 46  1  0
 17 47  1  0
 18 48  1  0
 19 49  1  0
 20 50  1  0
 22 51  1  0
 23 52  1  0
 25 53  1  0
 28 54  1  0
 29 55  1  0
M  END
>  <smiles>  (15) 
O=C(NCC(=O)N1CCC[C@H]1COCc1ccccc1)c1ccc2cc(Cl)ccc2n1

>  <score_type>  (15) 
oracle

>  <origin>  (15) 
autodockgpu

>  <m_score__min__energy>  (15) 
-9.1699999999999999

>  <m_primary>  (15) 
energy

>  <rmsd>  (15) 
8.340190718983553

>  <m_score__min__rmsd>  (15) 
8.340190718983553

>  <meeko>  (15) 
{"free_energy": -8.58, "intermolecular_energy": -10.97, "internal_energy": -2.48, "cluster_size": 16, "cluster_id": 1, "rank_in_cluster": 4}

>  <energy>  (15) 
-7.69

>  <cluster_rmsd>  (15) 
1.44

>  <cluster>  (15) 
1

$$$$

     RDKit          3D

 55 58  0  0  0  0  0  0  0  0999 V2000
  140.0180   74.0910  221.9050 O   0  0  0  0  0  0  0  0  0  0  0  0
  140.4360   75.2610  221.7420 C   0  0  0  0  0  0  0  0  0  0  0  0
  141.7160   75.5850  221.2190 N   0  0  0  0  0  0  0  0  0  0  0  0
  142.6550   74.5120  220.8280 C   0  0  0  0  0  0  0  0  0  0  0  0
  143.6670   75.1080  219.9690 C   0  0  0  0  0  0  0  0  0  0  0  0
  144.8540   75.2020  220.4520 O   0  0  0  0  0  0  0  0  0  0  0  0
  143.5140   75.6050  218.6570 N   0  0  0  0  0  0  0  0  0  0  0  0
  144.0710   74.8130  217.5210 C   0  0  0  0  0  0  0  0  0  0  0  0
  143.6330   75.5380  216.2930 C   0  0  0  0  0  0  0  0  0  0  0  0
  142.4200   76.2830  216.7500 C   0  0  0  0  0  0  0  0  0  0  0  0
  142.9140   76.7890  218.1170 C   0  0  1  0  0  0  0  0  0  0  0  0
  141.7800   77.3720  218.8920 C   0  0  0  0  0  0  0  0  0  0  0  0
  142.3020   78.2180  219.8600 O   0  0  0  0  0  0  0  0  0  0  0  0
  141.4650   79.2460  220.2250 C   0  0  0  0  0  0  0  0  0  0  0  0
  141.8610   79.9490  221.4660 C   0  0  0  0  0  0  0  0  0  0  0  0
  141.4600   81.2720  221.5970 C   0  0  0  0  0  0  0  0  0  0  0  0
  141.7650   82.0360  222.7030 C   0  0  0  0  0  0  0  0  0  0  0  0
  142.4990   81.4270  223.6980 C   0  0  0  0  0  0  0  0  0  0  0  0
  142.9020   80.1200  223.5840 C   0  0  0  0  0  0  0  0  0  0  0  0
  142.5930   79.3530  222.4680 C   0  0  0  0  0  0  0  0  0  0  0  0
  139.5490   76.3610  222.1150 C   0  0  0  0  0  0  0  0  0  0  0  0
  138.1980   76.3400  221.8300 C   0  0  0  0  0  0  0  0  0  0  0  0
  137.3330   77.3540  222.1640 C   0  0  0  0  0  0  0  0  0  0  0  0
  137.8250   78.4620  222.8200 C   0  0  0  0  0  0  0  0  0  0  0  0
  136.9650   79.4840  223.1580 C   0  0  0  0  0  0  0  0  0  0  0  0
  137.5020   80.5720  223.8130 C   0  0  0  0  0  0  0  0  0  0  0  0
  136.4340   81.8920  224.2590 Cl  0  0  0  0  0  0  0  0  0  0  0  0
  138.8420   80.6570  224.1280 C   0  0  0  0  0  0  0  0  0  0  0  0
  139.6720   79.6010  223.7660 C   0  0  0  0  0  0  0  0  0  0  0  0
  139.1770   78.4850  223.1050 C   0  0  0  0  0  0  0  0  0  0  0  0
  140.0050   77.4640  222.7600 N   0  0  0  0  0  0  0  0  0  0  0  0
  142.0260   76.5910  221.0970 H   0  0  0  0  0  0  0  0  0  0  0  0
  143.1280   74.0822  221.7233 H   0  0  0  0  0  0  0  0  0  0  0  0
  142.1243   73.7061  220.2999 H   0  0  0  0  0  0  0  0  0  0  0  0
  145.1689   74.7761  217.5772 H   0  0  0  0  0  0  0  0  0  0  0  0
  143.7196   73.7707  217.5327 H   0  0  0  0  0  0  0  0  0  0  0  0
  144.4132   76.2307  215.9446 H   0  0  0  0  0  0  0  0  0  0  0  0
  143.4328   74.8672  215.4445 H   0  0  0  0  0  0  0  0  0  0  0  0
  142.1723   77.1137  216.0728 H   0  0  0  0  0  0  0  0  0  0  0  0
  141.4963   75.6866  216.7837 H   0  0  0  0  0  0  0  0  0  0  0  0
  143.6343   77.6203  218.1083 H   0  0  0  0  0  0  0  0  0  0  0  0
  141.1219   77.9398  218.2178 H   0  0  0  0  0  0  0  0  0  0  0  0
  141.1937   76.5708  219.3657 H   0  0  0  0  0  0  0  0  0  0  0  0
  141.4449   79.9799  219.4059 H   0  0  0  0  0  0  0  0  0  0  0  0
  140.4817   78.7939  220.4218 H   0  0  0  0  0  0  0  0  0  0  0  0
  140.8752   81.7289  220.7851 H   0  0  0  0  0  0  0  0  0  0  0  0
  141.4379   83.0828  222.7876 H   0  0  0  0  0  0  0  0  0  0  0  0
  142.7664   81.9984  224.5991 H   0  0  0  0  0  0  0  0  0  0  0  0
  143.4859   79.6674  224.3990 H   0  0  0  0  0  0  0  0  0  0  0  0
  142.9216   78.3063  222.3877 H   0  0  0  0  0  0  0  0  0  0  0  0
  137.7915   75.4623  221.3062 H   0  0  0  0  0  0  0  0  0  0  0  0
  136.2647   77.2827  221.9119 H   0  0  0  0  0  0  0  0  0  0  0  0
  135.8933   79.4340  222.9151 H   0  0  0  0  0  0  0  0  0  0  0  0
  139.2439   81.5368  224.6518 H   0  0  0  0  0  0  0  0  0  0  0  0
  140.7437   79.6513  224.0087 H   0  0  0  0  0  0  0  0  0  0  0  0
  1  2  2  0
  2  3  1  0
  3  4  1  0
  4  5  1  0
  5  6  2  0
  5  7  1  0
  7  8  1  0
  8  9  1  0
  9 10  1  0
 10 11  1  0
 11 12  1  0
 12 13  1  0
 13 14  1  0
 14 15  1  0
 15 16  2  0
 16 17  1  0
 17 18  2  0
 18 19  1  0
 19 20  2  0
  2 21  1  0
 21 22  2  0
 22 23  1  0
 23 24  2  0
 24 25  1  0
 25 26  2  0
 26 27  1  0
 26 28  1  0
 28 29  2  0
 29 30  1  0
 30 31  2  0
 11  7  1  0
 20 15  1  0
 31 21  1  0
 30 24  1  0
  3 32  1  0
  4 33  1  0
  4 34  1  0
  8 35  1  0
  8 36  1  0
  9 37  1  0
  9 38  1  0
 10 39  1  0
 10 40  1  0
 11 41  1  6
 12 42  1  0
 12 43  1  0
 14 44  1  0
 14 45  1  0
 16 46  1  0
 17 47  1  0
 18 48  1  0
 19 49  1  0
 20 50  1  0
 22 51  1  0
 23 52  1  0
 25 53  1  0
 28 54  1  0
 29 55  1  0
M  END
>  <smiles>  (16) 
O=C(NCC(=O)N1CCC[C@H]1COCc1ccccc1)c1ccc2cc(Cl)ccc2n1

>  <score_type>  (16) 
oracle

>  <origin>  (16) 
autodockgpu

>  <m_score__min__energy>  (16) 
-9.1699999999999999

>  <m_primary>  (16) 
energy

>  <rmsd>  (16) 
7.003053681866691

>  <m_score__min__rmsd>  (16) 
7.003053681866691

>  <meeko>  (16) 
{"free_energy": -6.81, "intermolecular_energy": -9.2, "internal_energy": -3.42, "cluster_size": 1, "cluster_id": 7, "rank_in_cluster": 1}

>  <energy>  (16) 
-7.65

>  <cluster_rmsd>  (16) 
1.6

>  <cluster>  (16) 
1

$$$$

     RDKit          3D

 55 58  0  0  0  0  0  0  0  0999 V2000
  140.1820   72.4620  220.8350 O   0  0  0  0  0  0  0  0  0  0  0  0
  139.9180   72.8700  221.9900 C   0  0  0  0  0  0  0  0  0  0  0  0
  139.5690   74.2100  222.3020 N   0  0  0  0  0  0  0  0  0  0  0  0
  139.4990   75.2300  221.2340 C   0  0  0  0  0  0  0  0  0  0  0  0
  139.5010   76.5360  221.8750 C   0  0  0  0  0  0  0  0  0  0  0  0
  138.8920   76.6280  223.0030 O   0  0  0  0  0  0  0  0  0  0  0  0
  140.0900   77.7330  221.4150 N   0  0  0  0  0  0  0  0  0  0  0  0
  139.6030   79.0310  221.9670 C   0  0  0  0  0  0  0  0  0  0  0  0
  140.5040   80.0640  221.3800 C   0  0  0  0  0  0  0  0  0  0  0  0
  141.7430   79.2920  221.0550 C   0  0  0  0  0  0  0  0  0  0  0  0
  141.1180   78.0190  220.4580 C   0  0  1  0  0  0  0  0  0  0  0  0
  142.1620   76.9700  220.2700 C   0  0  0  0  0  0  0  0  0  0  0  0
  141.6350   75.9670  219.4710 O   0  0  0  0  0  0  0  0  0  0  0  0
  142.5760   75.2340  218.7860 C   0  0  0  0  0  0  0  0  0  0  0  0
  143.3520   74.2940  219.6230 C   0  0  0  0  0  0  0  0  0  0  0  0
  144.5580   74.7530  220.1370 C   0  0  0  0  0  0  0  0  0  0  0  0
  145.3740   73.9750  220.9300 C   0  0  0  0  0  0  0  0  0  0  0  0
  144.9410   72.6950  221.2030 C   0  0  0  0  0  0  0  0  0  0  0  0
  143.7520   72.2260  220.7040 C   0  0  0  0  0  0  0  0  0  0  0  0
  142.9320   73.0130  219.9040 C   0  0  0  0  0  0  0  0  0  0  0  0
  139.9750   71.9030  223.0850 C   0  0  0  0  0  0  0  0  0  0  0  0
  139.5360   70.6030  222.9370 C   0  0  0  0  0  0  0  0  0  0  0  0
  139.5730   69.6670  223.9430 C   0  0  0  0  0  0  0  0  0  0  0  0
  140.0730   70.0300  225.1750 C   0  0  0  0  0  0  0  0  0  0  0  0
  140.1140   69.0970  226.1880 C   0  0  0  0  0  0  0  0  0  0  0  0
  140.6220   69.5060  227.4030 C   0  0  0  0  0  0  0  0  0  0  0  0
  140.6890   68.3440  228.7170 Cl  0  0  0  0  0  0  0  0  0  0  0  0
  141.0780   70.7900  227.6190 C   0  0  0  0  0  0  0  0  0  0  0  0
  141.0170   71.6960  226.5660 C   0  0  0  0  0  0  0  0  0  0  0  0
  140.5130   71.3310  225.3250 C   0  0  0  0  0  0  0  0  0  0  0  0
  140.4620   72.2330  224.3090 N   0  0  0  0  0  0  0  0  0  0  0  0
  139.3520   74.5090  223.2950 H   0  0  0  0  0  0  0  0  0  0  0  0
  140.3698   75.1371  220.5684 H   0  0  0  0  0  0  0  0  0  0  0  0
  138.5893   75.0965  220.6301 H   0  0  0  0  0  0  0  0  0  0  0  0
  138.5604   79.2118  221.6664 H   0  0  0  0  0  0  0  0  0  0  0  0
  139.6212   79.0445  223.0668 H   0  0  0  0  0  0  0  0  0  0  0  0
  140.0630   80.5024  220.4726 H   0  0  0  0  0  0  0  0  0  0  0  0
  140.6886   80.9107  222.0576 H   0  0  0  0  0  0  0  0  0  0  0  0
  142.3721   79.8195  220.3229 H   0  0  0  0  0  0  0  0  0  0  0  0
  142.4179   79.1205  221.9065 H   0  0  0  0  0  0  0  0  0  0  0  0
  140.6948   78.1010  219.4460 H   0  0  0  0  0  0  0  0  0  0  0  0
  143.0453   77.4080  219.7823 H   0  0  0  0  0  0  0  0  0  0  0  0
  142.4639   76.5580  221.2442 H   0  0  0  0  0  0  0  0  0  0  0  0
  142.0590   74.6538  218.0074 H   0  0  0  0  0  0  0  0  0  0  0  0
  143.2976   75.9567  218.3774 H   0  0  0  0  0  0  0  0  0  0  0  0
  144.8750   75.7797  219.9015 H   0  0  0  0  0  0  0  0  0  0  0  0
  146.3261   74.3576  221.3264 H   0  0  0  0  0  0  0  0  0  0  0  0
  145.5596   72.0380  221.8320 H   0  0  0  0  0  0  0  0  0  0  0  0
  143.4392   71.1990  220.9437 H   0  0  0  0  0  0  0  0  0  0  0  0
  141.9809   72.6262  219.5092 H   0  0  0  0  0  0  0  0  0  0  0  0
  139.1340   70.2988  221.9593 H   0  0  0  0  0  0  0  0  0  0  0  0
  139.2091   68.6439  223.7674 H   0  0  0  0  0  0  0  0  0  0  0  0
  139.7563   68.0683  226.0339 H   0  0  0  0  0  0  0  0  0  0  0  0
  141.4793   71.0892  228.5985 H   0  0  0  0  0  0  0  0  0  0  0  0
  141.3759   72.7244  226.7196 H   0  0  0  0  0  0  0  0  0  0  0  0
  1  2  2  0
  2  3  1  0
  3  4  1  0
  4  5  1  0
  5  6  2  0
  5  7  1  0
  7  8  1  0
  8  9  1  0
  9 10  1  0
 10 11  1  0
 11 12  1  0
 12 13  1  0
 13 14  1  0
 14 15  1  0
 15 16  2  0
 16 17  1  0
 17 18  2  0
 18 19  1  0
 19 20  2  0
  2 21  1  0
 21 22  2  0
 22 23  1  0
 23 24  2  0
 24 25  1  0
 25 26  2  0
 26 27  1  0
 26 28  1  0
 28 29  2  0
 29 30  1  0
 30 31  2  0
 11  7  1  0
 20 15  1  0
 31 21  1  0
 30 24  1  0
  3 32  1  0
  4 33  1  0
  4 34  1  0
  8 35  1  0
  8 36  1  0
  9 37  1  0
  9 38  1  0
 10 39  1  0
 10 40  1  0
 11 41  1  6
 12 42  1  0
 12 43  1  0
 14 44  1  0
 14 45  1  0
 16 46  1  0
 17 47  1  0
 18 48  1  0
 19 49  1  0
 20 50  1  0
 22 51  1  0
 23 52  1  0
 25 53  1  0
 28 54  1  0
 29 55  1  0
M  END
>  <smiles>  (17) 
O=C(NCC(=O)N1CCC[C@H]1COCc1ccccc1)c1ccc2cc(Cl)ccc2n1

>  <score_type>  (17) 
oracle

>  <origin>  (17) 
autodockgpu

>  <m_score__min__energy>  (17) 
-9.1699999999999999

>  <m_primary>  (17) 
energy

>  <rmsd>  (17) 
2.833535472731424

>  <m_score__min__rmsd>  (17) 
2.833535472731424

>  <meeko>  (17) 
{"free_energy": -7.87, "intermolecular_energy": -10.26, "internal_energy": -2.62, "cluster_size": 14, "cluster_id": 3, "rank_in_cluster": 8}

>  <energy>  (17) 
-8.93

>  <cluster_rmsd>  (17) 
0.0

>  <cluster>  (17) 
2

$$$$

     RDKit          3D

 55 58  0  0  0  0  0  0  0  0999 V2000
  139.6660   72.1190  220.7920 O   0  0  0  0  0  0  0  0  0  0  0  0
  139.6540   72.5770  221.9580 C   0  0  0  0  0  0  0  0  0  0  0  0
  139.5160   73.9550  222.2730 N   0  0  0  0  0  0  0  0  0  0  0  0
  139.3760   74.9560  221.1940 C   0  0  0  0  0  0  0  0  0  0  0  0
  139.2020   76.2550  221.8230 C   0  0  0  0  0  0  0  0  0  0  0  0
  138.7460   76.2600  223.0250 O   0  0  0  0  0  0  0  0  0  0  0  0
  139.4690   77.5310  221.2790 N   0  0  0  0  0  0  0  0  0  0  0  0
  138.4900   78.6310  221.5190 C   0  0  0  0  0  0  0  0  0  0  0  0
  139.1250   79.8470  220.9330 C   0  0  0  0  0  0  0  0  0  0  0  0
  140.5830   79.5170  220.9570 C   0  0  0  0  0  0  0  0  0  0  0  0
  140.5350   78.0550  220.4790 C   0  0  1  0  0  0  0  0  0  0  0  0
  141.8720   77.4130  220.6480 C   0  0  0  0  0  0  0  0  0  0  0  0
  142.1470   76.6710  219.5100 O   0  0  0  0  0  0  0  0  0  0  0  0
  143.4380   76.2010  219.4380 C   0  0  0  0  0  0  0  0  0  0  0  0
  143.6210   74.8270  219.9540 C   0  0  0  0  0  0  0  0  0  0  0  0
  144.8730   74.5050  220.4630 C   0  0  0  0  0  0  0  0  0  0  0  0
  145.1710   73.2600  220.9730 C   0  0  0  0  0  0  0  0  0  0  0  0
  144.1610   72.3230  220.9620 C   0  0  0  0  0  0  0  0  0  0  0  0
  142.9180   72.6250  220.4630 C   0  0  0  0  0  0  0  0  0  0  0  0
  142.6210   73.8810  219.9490 C   0  0  0  0  0  0  0  0  0  0  0  0
  139.7920   71.6310  223.0640 C   0  0  0  0  0  0  0  0  0  0  0  0
  139.4230   70.3060  222.9440 C   0  0  0  0  0  0  0  0  0  0  0  0
  139.5370   69.3880  223.9610 C   0  0  0  0  0  0  0  0  0  0  0  0
  140.0460   69.7960  225.1750 C   0  0  0  0  0  0  0  0  0  0  0  0
  140.1630   68.8820  226.1990 C   0  0  0  0  0  0  0  0  0  0  0  0
  140.6770   69.3370  227.3960 C   0  0  0  0  0  0  0  0  0  0  0  0
  140.8410   68.1990  228.7220 Cl  0  0  0  0  0  0  0  0  0  0  0  0
  141.0650   70.6470  227.5830 C   0  0  0  0  0  0  0  0  0  0  0  0
  140.9280   71.5330  226.5200 C   0  0  0  0  0  0  0  0  0  0  0  0
  140.4150   71.1220  225.2970 C   0  0  0  0  0  0  0  0  0  0  0  0
  140.2890   72.0050  224.2700 N   0  0  0  0  0  0  0  0  0  0  0  0
  139.5100   74.2950  223.2760 H   0  0  0  0  0  0  0  0  0  0  0  0
  140.2794   74.9606  220.5664 H   0  0  0  0  0  0  0  0  0  0  0  0
  138.5143   74.7172  220.5534 H   0  0  0  0  0  0  0  0  0  0  0  0
  137.5346   78.4144  221.0187 H   0  0  0  0  0  0  0  0  0  0  0  0
  138.2639   78.7572  222.5881 H   0  0  0  0  0  0  0  0  0  0  0  0
  138.7760   80.0170  219.9038 H   0  0  0  0  0  0  0  0  0  0  0  0
  138.8823   80.7679  221.4834 H   0  0  0  0  0  0  0  0  0  0  0  0
  141.1568   80.1532  220.2671 H   0  0  0  0  0  0  0  0  0  0  0  0
  141.0765   79.6706  221.9280 H   0  0  0  0  0  0  0  0  0  0  0  0
  140.3365   77.8874  219.4101 H   0  0  0  0  0  0  0  0  0  0  0  0
  142.6418   78.1872  220.7819 H   0  0  0  0  0  0  0  0  0  0  0  0
  141.8692   76.7605  221.5336 H   0  0  0  0  0  0  0  0  0  0  0  0
  143.7507   76.2163  218.3835 H   0  0  0  0  0  0  0  0  0  0  0  0
  144.0459   76.8583  220.0770 H   0  0  0  0  0  0  0  0  0  0  0  0
  145.6583   75.2752  220.4587 H   0  0  0  0  0  0  0  0  0  0  0  0
  146.1694   73.0251  221.3706 H   0  0  0  0  0  0  0  0  0  0  0  0
  144.3537   71.3157  221.3598 H   0  0  0  0  0  0  0  0  0  0  0  0
  142.1361   71.8514  220.4704 H   0  0  0  0  0  0  0  0  0  0  0  0
  141.6215   74.1116  219.5518 H   0  0  0  0  0  0  0  0  0  0  0  0
  139.0150   69.9658  221.9808 H   0  0  0  0  0  0  0  0  0  0  0  0
  139.2267   68.3438  223.8081 H   0  0  0  0  0  0  0  0  0  0  0  0
  139.8592   67.8329  226.0679 H   0  0  0  0  0  0  0  0  0  0  0  0
  141.4724   70.9825  228.5481 H   0  0  0  0  0  0  0  0  0  0  0  0
  141.2325   72.5819  226.6509 H   0  0  0  0  0  0  0  0  0  0  0  0
  1  2  2  0
  2  3  1  0
  3  4  1  0
  4  5  1  0
  5  6  2  0
  5  7  1  0
  7  8  1  0
  8  9  1  0
  9 10  1  0
 10 11  1  0
 11 12  1  0
 12 13  1  0
 13 14  1  0
 14 15  1  0
 15 16  2  0
 16 17  1  0
 17 18  2  0
 18 19  1  0
 19 20  2  0
  2 21  1  0
 21 22  2  0
 22 23  1  0
 23 24  2  0
 24 25  1  0
 25 26  2  0
 26 27  1  0
 26 28  1  0
 28 29  2  0
 29 30  1  0
 30 31  2  0
 11  7  1  0
 20 15  1  0
 31 21  1  0
 30 24  1  0
  3 32  1  0
  4 33  1  0
  4 34  1  0
  8 35  1  0
  8 36  1  0
  9 37  1  0
  9 38  1  0
 10 39  1  0
 10 40  1  0
 11 41  1  6
 12 42  1  0
 12 43  1  0
 14 44  1  0
 14 45  1  0
 16 46  1  0
 17 47  1  0
 18 48  1  0
 19 49  1  0
 20 50  1  0
 22 51  1  0
 23 52  1  0
 25 53  1  0
 28 54  1  0
 29 55  1  0
M  END
>  <smiles>  (18) 
O=C(NCC(=O)N1CCC[C@H]1COCc1ccccc1)c1ccc2cc(Cl)ccc2n1

>  <score_type>  (18) 
oracle

>  <origin>  (18) 
autodockgpu

>  <m_score__min__energy>  (18) 
-9.1699999999999999

>  <m_primary>  (18) 
energy

>  <rmsd>  (18) 
2.573716267318697

>  <m_score__min__rmsd>  (18) 
2.573716267318697

>  <meeko>  (18) 
{"free_energy": -7.66, "intermolecular_energy": -10.04, "internal_energy": -2.68, "cluster_size": 14, "cluster_id": 3, "rank_in_cluster": 11}

>  <energy>  (18) 
-8.68

>  <cluster_rmsd>  (18) 
0.54

>  <cluster>  (18) 
2

$$$$

     RDKit          3D

 55 58  0  0  0  0  0  0  0  0999 V2000
  140.5590   72.3940  221.3010 O   0  0  0  0  0  0  0  0  0  0  0  0
  139.8410   73.3330  221.7170 C   0  0  0  0  0  0  0  0  0  0  0  0
  138.5660   73.1560  222.3180 N   0  0  0  0  0  0  0  0  0  0  0  0
  138.0030   71.8000  222.4860 C   0  0  0  0  0  0  0  0  0  0  0  0
  136.8390   71.9140  223.3520 C   0  0  0  0  0  0  0  0  0  0  0  0
  136.1950   73.0250  223.3120 O   0  0  0  0  0  0  0  0  0  0  0  0
  136.3190   70.9520  224.2440 N   0  0  0  0  0  0  0  0  0  0  0  0
  135.0240   71.2360  224.9290 C   0  0  0  0  0  0  0  0  0  0  0  0
  134.7030   69.9900  225.6820 C   0  0  0  0  0  0  0  0  0  0  0  0
  135.4540   68.9350  224.9340 C   0  0  0  0  0  0  0  0  0  0  0  0
  136.7830   69.6720  224.6920 C   0  0  1  0  0  0  0  0  0  0  0  0
  137.6330   68.9020  223.7370 C   0  0  0  0  0  0  0  0  0  0  0  0
  138.9630   69.1100  224.0720 O   0  0  0  0  0  0  0  0  0  0  0  0
  139.2670   68.8290  225.3840 C   0  0  0  0  0  0  0  0  0  0  0  0
  139.9270   69.9340  226.1120 C   0  0  0  0  0  0  0  0  0  0  0  0
  139.7680   69.9660  227.4910 C   0  0  0  0  0  0  0  0  0  0  0  0
  140.3310   70.9440  228.2840 C   0  0  0  0  0  0  0  0  0  0  0  0
  141.0760   71.9110  227.6450 C   0  0  0  0  0  0  0  0  0  0  0  0
  141.2440   71.8940  226.2830 C   0  0  0  0  0  0  0  0  0  0  0  0
  140.6750   70.9070  225.4870 C   0  0  0  0  0  0  0  0  0  0  0  0
  140.3480   74.6960  221.5730 C   0  0  0  0  0  0  0  0  0  0  0  0
  141.3600   75.0110  220.6890 C   0  0  0  0  0  0  0  0  0  0  0  0
  141.8640   76.2790  220.5260 C   0  0  0  0  0  0  0  0  0  0  0  0
  141.3400   77.3070  221.2810 C   0  0  0  0  0  0  0  0  0  0  0  0
  141.8390   78.5820  221.1240 C   0  0  0  0  0  0  0  0  0  0  0  0
  141.2840   79.5770  221.9000 C   0  0  0  0  0  0  0  0  0  0  0  0
  141.8960   81.2140  221.7260 Cl  0  0  0  0  0  0  0  0  0  0  0  0
  140.2710   79.3330  222.8030 C   0  0  0  0  0  0  0  0  0  0  0  0
  139.8000   78.0300  222.9260 C   0  0  0  0  0  0  0  0  0  0  0  0
  140.3280   76.9940  222.1670 C   0  0  0  0  0  0  0  0  0  0  0  0
  139.8520   75.7270  222.3030 N   0  0  0  0  0  0  0  0  0  0  0  0
  137.9950   73.9820  222.6570 H   0  0  0  0  0  0  0  0  0  0  0  0
  137.7054   71.3931  221.5083 H   0  0  0  0  0  0  0  0  0  0  0  0
  138.7491   71.1226  222.9269 H   0  0  0  0  0  0  0  0  0  0  0  0
  135.1297   72.0873  225.6176 H   0  0  0  0  0  0  0  0  0  0  0  0
  134.2301   71.5035  224.2162 H   0  0  0  0  0  0  0  0  0  0  0  0
  135.0505   70.0580  226.7234 H   0  0  0  0  0  0  0  0  0  0  0  0
  133.6232   69.7892  225.7431 H   0  0  0  0  0  0  0  0  0  0  0  0
  135.5950   68.0276  225.5396 H   0  0  0  0  0  0  0  0  0  0  0  0
  134.9554   68.5690  224.0244 H   0  0  0  0  0  0  0  0  0  0  0  0
  137.4545   69.7827  225.5562 H   0  0  0  0  0  0  0  0  0  0  0  0
  137.3948   67.8304  223.8078 H   0  0  0  0  0  0  0  0  0  0  0  0
  137.4448   69.2379  222.7066 H   0  0  0  0  0  0  0  0  0  0  0  0
  138.3317   68.5830  225.9080 H   0  0  0  0  0  0  0  0  0  0  0  0
  139.9835   67.9945  225.3667 H   0  0  0  0  0  0  0  0  0  0  0  0
  139.1682   69.1787  227.9709 H   0  0  0  0  0  0  0  0  0  0  0  0
  140.1918   70.9516  229.3751 H   0  0  0  0  0  0  0  0  0  0  0  0
  141.5445   72.7110  228.2371 H   0  0  0  0  0  0  0  0  0  0  0  0
  141.8455   72.6832  225.8084 H   0  0  0  0  0  0  0  0  0  0  0  0
  140.8171   70.9031  224.3962 H   0  0  0  0  0  0  0  0  0  0  0  0
  141.7876   74.2008  220.0801 H   0  0  0  0  0  0  0  0  0  0  0  0
  142.6723   76.4708  219.8050 H   0  0  0  0  0  0  0  0  0  0  0  0
  142.6468   78.7968  220.4090 H   0  0  0  0  0  0  0  0  0  0  0  0
  139.8468   80.1467  223.4096 H   0  0  0  0  0  0  0  0  0  0  0  0
  138.9914   77.8155  223.6403 H   0  0  0  0  0  0  0  0  0  0  0  0
  1  2  2  0
  2  3  1  0
  3  4  1  0
  4  5  1  0
  5  6  2  0
  5  7  1  0
  7  8  1  0
  8  9  1  0
  9 10  1  0
 10 11  1  0
 11 12  1  0
 12 13  1  0
 13 14  1  0
 14 15  1  0
 15 16  2  0
 16 17  1  0
 17 18  2  0
 18 19  1  0
 19 20  2  0
  2 21  1  0
 21 22  2  0
 22 23  1  0
 23 24  2  0
 24 25  1  0
 25 26  2  0
 26 27  1  0
 26 28  1  0
 28 29  2  0
 29 30  1  0
 30 31  2  0
 11  7  1  0
 20 15  1  0
 31 21  1  0
 30 24  1  0
  3 32  1  0
  4 33  1  0
  4 34  1  0
  8 35  1  0
  8 36  1  0
  9 37  1  0
  9 38  1  0
 10 39  1  0
 10 40  1  0
 11 41  1  1
 12 42  1  0
 12 43  1  0
 14 44  1  0
 14 45  1  0
 16 46  1  0
 17 47  1  0
 18 48  1  0
 19 49  1  0
 20 50  1  0
 22 51  1  0
 23 52  1  0
 25 53  1  0
 28 54  1  0
 29 55  1  0
M  END
>  <smiles>  (19) 
O=C(NCC(=O)N1CCC[C@H]1COCc1ccccc1)c1ccc2cc(Cl)ccc2n1

>  <score_type>  (19) 
oracle

>  <origin>  (19) 
autodockgpu

>  <m_score__min__energy>  (19) 
-9.1699999999999999

>  <m_primary>  (19) 
energy

>  <rmsd>  (19) 
8.518195259692684

>  <m_score__min__rmsd>  (19) 
8.518195259692684

>  <meeko>  (19) 
{"free_energy": -7.89, "intermolecular_energy": -10.28, "internal_energy": -2.61, "cluster_size": 16, "cluster_id": 1, "rank_in_cluster": 12}

>  <energy>  (19) 
-8.5

>  <cluster_rmsd>  (19) 
1.28

>  <cluster>  (19) 
2

$$$$

     RDKit          3D

 55 58  0  0  0  0  0  0  0  0999 V2000
  134.9970   68.5490  225.0220 O   0  0  0  0  0  0  0  0  0  0  0  0
  135.5100   69.6920  224.9920 C   0  0  0  0  0  0  0  0  0  0  0  0
  136.8020   69.9730  224.4730 N   0  0  0  0  0  0  0  0  0  0  0  0
  137.6370   68.8840  223.9230 C   0  0  0  0  0  0  0  0  0  0  0  0
  138.7730   68.7110  224.8140 C   0  0  0  0  0  0  0  0  0  0  0  0
  139.2120   67.5130  224.9670 O   0  0  0  0  0  0  0  0  0  0  0  0
  139.4670   69.6990  225.5460 N   0  0  0  0  0  0  0  0  0  0  0  0
  139.9320   69.3750  226.9260 C   0  0  0  0  0  0  0  0  0  0  0  0
  140.7240   70.5640  227.3560 C   0  0  0  0  0  0  0  0  0  0  0  0
  141.1540   71.1750  226.0610 C   0  0  0  0  0  0  0  0  0  0  0  0
  139.8480   71.0500  225.2570 C   0  0  1  0  0  0  0  0  0  0  0  0
  140.0910   71.3800  223.8220 C   0  0  0  0  0  0  0  0  0  0  0  0
  138.8790   71.3330  223.1520 O   0  0  0  0  0  0  0  0  0  0  0  0
  138.8510   72.0500  221.9790 C   0  0  0  0  0  0  0  0  0  0  0  0
  138.2920   73.4140  222.1060 C   0  0  0  0  0  0  0  0  0  0  0  0
  139.1820   74.4740  221.9890 C   0  0  0  0  0  0  0  0  0  0  0  0
  138.7880   75.7920  222.0890 C   0  0  0  0  0  0  0  0  0  0  0  0
  137.4490   76.0260  222.3130 C   0  0  0  0  0  0  0  0  0  0  0  0
  136.5560   74.9900  222.4310 C   0  0  0  0  0  0  0  0  0  0  0  0
  136.9570   73.6630  222.3300 C   0  0  0  0  0  0  0  0  0  0  0  0
  134.7280   70.8060  225.5260 C   0  0  0  0  0  0  0  0  0  0  0  0
  133.6350   70.6070  226.3450 C   0  0  0  0  0  0  0  0  0  0  0  0
  132.8770   71.6270  226.8650 C   0  0  0  0  0  0  0  0  0  0  0  0
  133.2110   72.9290  226.5620 C   0  0  0  0  0  0  0  0  0  0  0  0
  132.4550   73.9590  227.0800 C   0  0  0  0  0  0  0  0  0  0  0  0
  132.8280   75.2450  226.7490 C   0  0  0  0  0  0  0  0  0  0  0  0
  131.8880   76.5810  227.3910 Cl  0  0  0  0  0  0  0  0  0  0  0  0
  133.9090   75.5150  225.9360 C   0  0  0  0  0  0  0  0  0  0  0  0
  134.6420   74.4430  225.4370 C   0  0  0  0  0  0  0  0  0  0  0  0
  134.3040   73.1310  225.7420 C   0  0  0  0  0  0  0  0  0  0  0  0
  135.0350   72.0980  225.2440 N   0  0  0  0  0  0  0  0  0  0  0  0
  137.1940   70.9570  224.4670 H   0  0  0  0  0  0  0  0  0  0  0  0
  137.0539   67.9526  223.8728 H   0  0  0  0  0  0  0  0  0  0  0  0
  137.9764   69.1320  222.9065 H   0  0  0  0  0  0  0  0  0  0  0  0
  139.0740   69.2190  227.5964 H   0  0  0  0  0  0  0  0  0  0  0  0
  140.5267   68.4501  226.9550 H   0  0  0  0  0  0  0  0  0  0  0  0
  140.1028   71.2632  227.9350 H   0  0  0  0  0  0  0  0  0  0  0  0
  141.5681   70.3055  228.0122 H   0  0  0  0  0  0  0  0  0  0  0  0
  141.4569   72.2250  226.1862 H   0  0  0  0  0  0  0  0  0  0  0  0
  142.0309   70.7017  225.5951 H   0  0  0  0  0  0  0  0  0  0  0  0
  139.0368   71.7466  225.5152 H   0  0  0  0  0  0  0  0  0  0  0  0
  140.5219   72.3888  223.7404 H   0  0  0  0  0  0  0  0  0  0  0  0
  140.7949   70.6584  223.3818 H   0  0  0  0  0  0  0  0  0  0  0  0
  139.8815   72.1347  221.6036 H   0  0  0  0  0  0  0  0  0  0  0  0
  138.1869   71.5026  221.2939 H   0  0  0  0  0  0  0  0  0  0  0  0
  140.2445   74.2533  221.8092 H   0  0  0  0  0  0  0  0  0  0  0  0
  139.5089   76.6174  221.9944 H   0  0  0  0  0  0  0  0  0  0  0  0
  137.0888   77.0618  222.3989 H   0  0  0  0  0  0  0  0  0  0  0  0
  135.4945   75.2162  222.6103 H   0  0  0  0  0  0  0  0  0  0  0  0
  136.2328   72.8406  222.4257 H   0  0  0  0  0  0  0  0  0  0  0  0
  133.3554   69.5730  226.5952 H   0  0  0  0  0  0  0  0  0  0  0  0
  132.0161   71.4080  227.5137 H   0  0  0  0  0  0  0  0  0  0  0  0
  131.5899   73.7633  227.7306 H   0  0  0  0  0  0  0  0  0  0  0  0
  134.1843   76.5509  225.6886 H   0  0  0  0  0  0  0  0  0  0  0  0
  135.5076   74.6388  224.7871 H   0  0  0  0  0  0  0  0  0  0  0  0
  1  2  2  0
  2  3  1  0
  3  4  1  0
  4  5  1  0
  5  6  2  0
  5  7  1  0
  7  8  1  0
  8  9  1  0
  9 10  1  0
 10 11  1  0
 11 12  1  0
 12 13  1  0
 13 14  1  0
 14 15  1  0
 15 16  2  0
 16 17  1  0
 17 18  2  0
 18 19  1  0
 19 20  2  0
  2 21  1  0
 21 22  2  0
 22 23  1  0
 23 24  2  0
 24 25  1  0
 25 26  2  0
 26 27  1  0
 26 28  1  0
 28 29  2  0
 29 30  1  0
 30 31  2  0
 11  7  1  0
 20 15  1  0
 31 21  1  0
 30 24  1  0
  3 32  1  0
  4 33  1  0
  4 34  1  0
  8 35  1  0
  8 36  1  0
  9 37  1  0
  9 38  1  0
 10 39  1  0
 10 40  1  0
 11 41  1  1
 12 42  1  0
 12 43  1  0
 14 44  1  0
 14 45  1  0
 16 46  1  0
 17 47  1  0
 18 48  1  0
 19 49  1  0
 20 50  1  0
 22 51  1  0
 23 52  1  0
 25 53  1  0
 28 54  1  0
 29 55  1  0
M  END
>  <smiles>  (20) 
O=C(NCC(=O)N1CCC[C@H]1COCc1ccccc1)c1ccc2cc(Cl)ccc2n1

>  <score_type>  (20) 
oracle

>  <origin>  (20) 
autodockgpu

>  <m_score__min__energy>  (20) 
-9.1699999999999999

>  <m_primary>  (20) 
energy

>  <rmsd>  (20) 
8.04179356221109

>  <m_score__min__rmsd>  (20) 
8.04179356221109

>  <meeko>  (20) 
{"free_energy": -7.28, "intermolecular_energy": -9.66, "internal_energy": -3.03, "cluster_size": 3, "cluster_id": 5, "rank_in_cluster": 3}

>  <energy>  (20) 
-8.41

>  <cluster_rmsd>  (20) 
1.0

>  <cluster>  (20) 
2

$$$$

     RDKit          3D

 55 58  0  0  0  0  0  0  0  0999 V2000
  138.9170   71.9030  220.8490 O   0  0  0  0  0  0  0  0  0  0  0  0
  139.2000   72.3910  221.9680 C   0  0  0  0  0  0  0  0  0  0  0  0
  139.2920   73.7840  222.2310 N   0  0  0  0  0  0  0  0  0  0  0  0
  139.0480   74.7640  221.1500 C   0  0  0  0  0  0  0  0  0  0  0  0
  138.5750   75.9910  221.7720 C   0  0  0  0  0  0  0  0  0  0  0  0
  138.3450   75.9480  223.0350 O   0  0  0  0  0  0  0  0  0  0  0  0
  138.3300   77.2400  221.1610 N   0  0  0  0  0  0  0  0  0  0  0  0
  137.4550   78.2230  221.8650 C   0  0  0  0  0  0  0  0  0  0  0  0
  137.5090   79.4560  221.0280 C   0  0  0  0  0  0  0  0  0  0  0  0
  138.8060   79.3180  220.2980 C   0  0  0  0  0  0  0  0  0  0  0  0
  138.7460   77.8270  219.9220 C   0  0  1  0  0  0  0  0  0  0  0  0
  140.0620   77.3770  219.3810 C   0  0  0  0  0  0  0  0  0  0  0  0
  140.8720   77.0190  220.4480 O   0  0  0  0  0  0  0  0  0  0  0  0
  141.9640   77.8360  220.6310 C   0  0  0  0  0  0  0  0  0  0  0  0
  141.8690   78.7330  221.8030 C   0  0  0  0  0  0  0  0  0  0  0  0
  142.1930   80.0700  221.6030 C   0  0  0  0  0  0  0  0  0  0  0  0
  142.1470   81.0060  222.6140 C   0  0  0  0  0  0  0  0  0  0  0  0
  141.7570   80.5610  223.8580 C   0  0  0  0  0  0  0  0  0  0  0  0
  141.4330   79.2450  224.0730 C   0  0  0  0  0  0  0  0  0  0  0  0
  141.4820   78.3030  223.0520 C   0  0  0  0  0  0  0  0  0  0  0  0
  139.4530   71.4670  223.0720 C   0  0  0  0  0  0  0  0  0  0  0  0
  139.1330   70.1270  222.9930 C   0  0  0  0  0  0  0  0  0  0  0  0
  139.3550   69.2280  224.0080 C   0  0  0  0  0  0  0  0  0  0  0  0
  139.9290   69.6740  225.1800 C   0  0  0  0  0  0  0  0  0  0  0  0
  140.1550   68.7790  226.2030 C   0  0  0  0  0  0  0  0  0  0  0  0
  140.7320   69.2710  227.3560 C   0  0  0  0  0  0  0  0  0  0  0  0
  141.0340   68.1590  228.6800 Cl  0  0  0  0  0  0  0  0  0  0  0  0
  141.0770   70.5980  227.5020 C   0  0  0  0  0  0  0  0  0  0  0  0
  140.8290   71.4630  226.4410 C   0  0  0  0  0  0  0  0  0  0  0  0
  140.2500   71.0150  225.2610 C   0  0  0  0  0  0  0  0  0  0  0  0
  140.0170   71.8780  224.2370 N   0  0  0  0  0  0  0  0  0  0  0  0
  139.5330   74.1510  223.1950 H   0  0  0  0  0  0  0  0  0  0  0  0
  139.9810   74.9569  220.6001 H   0  0  0  0  0  0  0  0  0  0  0  0
  138.3038   74.3784  220.4377 H   0  0  0  0  0  0  0  0  0  0  0  0
  136.4240   77.8452  221.9309 H   0  0  0  0  0  0  0  0  0  0  0  0
  137.7887   78.4088  222.8966 H   0  0  0  0  0  0  0  0  0  0  0  0
  136.6633   79.4931  220.3256 H   0  0  0  0  0  0  0  0  0  0  0  0
  137.4435   80.3814  221.6191 H   0  0  0  0  0  0  0  0  0  0  0  0
  138.8432   79.9622  219.4071 H   0  0  0  0  0  0  0  0  0  0  0  0
  139.6949   79.6143  220.8742 H   0  0  0  0  0  0  0  0  0  0  0  0
  138.0597   77.5466  219.1093 H   0  0  0  0  0  0  0  0  0  0  0  0
  139.9154   76.5112  218.7185 H   0  0  0  0  0  0  0  0  0  0  0  0
  140.5316   78.1872  218.8039 H   0  0  0  0  0  0  0  0  0  0  0  0
  142.8522   77.1994  220.7566 H   0  0  0  0  0  0  0  0  0  0  0  0
  142.0217   78.4845  219.7444 H   0  0  0  0  0  0  0  0  0  0  0  0
  142.4984   80.3942  220.5972 H   0  0  0  0  0  0  0  0  0  0  0  0
  142.4095   82.0592  222.4357 H   0  0  0  0  0  0  0  0  0  0  0  0
  141.7043   81.2736  224.6943 H   0  0  0  0  0  0  0  0  0  0  0  0
  141.1263   78.9270  225.0804 H   0  0  0  0  0  0  0  0  0  0  0  0
  141.2206   77.2504  223.2358 H   0  0  0  0  0  0  0  0  0  0  0  0
  138.6739   69.7574  222.0642 H   0  0  0  0  0  0  0  0  0  0  0  0
  139.0794   68.1699  223.8878 H   0  0  0  0  0  0  0  0  0  0  0  0
  139.8867   67.7168  226.1047 H   0  0  0  0  0  0  0  0  0  0  0  0
  141.5361   70.9630  228.4326 H   0  0  0  0  0  0  0  0  0  0  0  0
  141.0975   72.5252  226.5390 H   0  0  0  0  0  0  0  0  0  0  0  0
  1  2  2  0
  2  3  1  0
  3  4  1  0
  4  5  1  0
  5  6  2  0
  5  7  1  0
  7  8  1  0
  8  9  1  0
  9 10  1  0
 10 11  1  0
 11 12  1  0
 12 13  1  0
 13 14  1  0
 14 15  1  0
 15 16  2  0
 16 17  1  0
 17 18  2  0
 18 19  1  0
 19 20  2  0
  2 21  1  0
 21 22  2  0
 22 23  1  0
 23 24  2  0
 24 25  1  0
 25 26  2  0
 26 27  1  0
 26 28  1  0
 28 29  2  0
 29 30  1  0
 30 31  2  0
 11  7  1  0
 20 15  1  0
 31 21  1  0
 30 24  1  0
  3 32  1  0
  4 33  1  0
  4 34  1  0
  8 35  1  0
  8 36  1  0
  9 37  1  0
  9 38  1  0
 10 39  1  0
 10 40  1  0
 11 41  1  6
 12 42  1  0
 12 43  1  0
 14 44  1  0
 14 45  1  0
 16 46  1  0
 17 47  1  0
 18 48  1  0
 19 49  1  0
 20 50  1  0
 22 51  1  0
 23 52  1  0
 25 53  1  0
 28 54  1  0
 29 55  1  0
M  END
>  <smiles>  (21) 
O=C(NCC(=O)N1CCC[C@H]1COCc1ccccc1)c1ccc2cc(Cl)ccc2n1

>  <score_type>  (21) 
oracle

>  <origin>  (21) 
autodockgpu

>  <m_score__min__energy>  (21) 
-9.1699999999999999

>  <m_primary>  (21) 
energy

>  <rmsd>  (21) 
2.6855573751986057

>  <m_score__min__rmsd>  (21) 
2.6855573751986057

>  <meeko>  (21) 
{"free_energy": -7.66, "intermolecular_energy": -10.05, "internal_energy": -2.78, "cluster_size": 12, "cluster_id": 2, "rank_in_cluster": 12}

>  <energy>  (21) 
-8.27

>  <cluster_rmsd>  (21) 
1.44

>  <cluster>  (21) 
2

$$$$

     RDKit          3D

 55 58  0  0  0  0  0  0  0  0999 V2000
  141.1570   72.4230  221.4590 O   0  0  0  0  0  0  0  0  0  0  0  0
  140.3520   73.3110  221.8240 C   0  0  0  0  0  0  0  0  0  0  0  0
  139.1010   73.0490  222.4420 N   0  0  0  0  0  0  0  0  0  0  0  0
  138.6720   71.6560  222.6940 C   0  0  0  0  0  0  0  0  0  0  0  0
  137.2920   71.7000  223.1530 C   0  0  0  0  0  0  0  0  0  0  0  0
  136.5580   72.6480  222.6900 O   0  0  0  0  0  0  0  0  0  0  0  0
  136.6440   70.8270  224.0540 N   0  0  0  0  0  0  0  0  0  0  0  0
  135.3050   71.2130  224.5870 C   0  0  0  0  0  0  0  0  0  0  0  0
  134.8550   70.0380  225.3890 C   0  0  0  0  0  0  0  0  0  0  0  0
  135.6230   68.9030  224.7920 C   0  0  0  0  0  0  0  0  0  0  0  0
  137.0020   69.5660  224.6310 C   0  0  1  0  0  0  0  0  0  0  0  0
  137.9020   68.6950  223.8200 C   0  0  0  0  0  0  0  0  0  0  0  0
  139.2150   69.0470  224.0950 O   0  0  0  0  0  0  0  0  0  0  0  0
  139.6340   68.7260  225.3660 C   0  0  0  0  0  0  0  0  0  0  0  0
  140.1610   69.8670  226.1450 C   0  0  0  0  0  0  0  0  0  0  0  0
  139.8300   69.9180  227.4940 C   0  0  0  0  0  0  0  0  0  0  0  0
  140.2570   70.9290  228.3280 C   0  0  0  0  0  0  0  0  0  0  0  0
  141.0430   71.9110  227.7650 C   0  0  0  0  0  0  0  0  0  0  0  0
  141.3800   71.8760  226.4350 C   0  0  0  0  0  0  0  0  0  0  0  0
  140.9470   70.8560  225.5970 C   0  0  0  0  0  0  0  0  0  0  0  0
  140.7250   74.7060  221.5960 C   0  0  0  0  0  0  0  0  0  0  0  0
  141.6460   75.0700  220.6350 C   0  0  0  0  0  0  0  0  0  0  0  0
  142.0220   76.3700  220.3930 C   0  0  0  0  0  0  0  0  0  0  0  0
  141.4580   77.3790  221.1420 C   0  0  0  0  0  0  0  0  0  0  0  0
  141.8290   78.6850  220.9050 C   0  0  0  0  0  0  0  0  0  0  0  0
  141.2370   79.6600  221.6800 C   0  0  0  0  0  0  0  0  0  0  0  0
  141.6870   81.3350  221.4050 Cl  0  0  0  0  0  0  0  0  0  0  0  0
  140.3090   79.3670  222.6560 C   0  0  0  0  0  0  0  0  0  0  0  0
  139.9660   78.0340  222.8590 C   0  0  0  0  0  0  0  0  0  0  0  0
  140.5350   77.0170  222.1050 C   0  0  0  0  0  0  0  0  0  0  0  0
  140.1850   75.7210  222.3190 N   0  0  0  0  0  0  0  0  0  0  0  0
  138.4530   73.8330  222.7360 H   0  0  0  0  0  0  0  0  0  0  0  0
  138.7409   71.0682  221.7668 H   0  0  0  0  0  0  0  0  0  0  0  0
  139.3167   71.1825  223.4491 H   0  0  0  0  0  0  0  0  0  0  0  0
  135.3850   72.1071  225.2227 H   0  0  0  0  0  0  0  0  0  0  0  0
  134.5960   71.4604  223.7832 H   0  0  0  0  0  0  0  0  0  0  0  0
  135.1048   70.1672  226.4524 H   0  0  0  0  0  0  0  0  0  0  0  0
  133.7660   69.8858  225.3578 H   0  0  0  0  0  0  0  0  0  0  0  0
  135.6634   68.0370  225.4691 H   0  0  0  0  0  0  0  0  0  0  0  0
  135.1961   68.4926  223.8650 H   0  0  0  0  0  0  0  0  0  0  0  0
  137.5931   69.7121  225.5471 H   0  0  0  0  0  0  0  0  0  0  0  0
  137.7366   67.6404  224.0853 H   0  0  0  0  0  0  0  0  0  0  0  0
  137.6914   68.8271  222.7485 H   0  0  0  0  0  0  0  0  0  0  0  0
  138.7787   68.3025  225.9129 H   0  0  0  0  0  0  0  0  0  0  0  0
  140.4657   68.0154  225.2508 H   0  0  0  0  0  0  0  0  0  0  0  0
  139.2014   69.1186  227.9133 H   0  0  0  0  0  0  0  0  0  0  0  0
  139.9832   70.9509  229.3931 H   0  0  0  0  0  0  0  0  0  0  0  0
  141.4068   72.7377  228.3928 H   0  0  0  0  0  0  0  0  0  0  0  0
  142.0100   72.6772  226.0213 H   0  0  0  0  0  0  0  0  0  0  0  0
  141.2226   70.8390  224.5322 H   0  0  0  0  0  0  0  0  0  0  0  0
  142.1051   74.2754  220.0285 H   0  0  0  0  0  0  0  0  0  0  0  0
  142.7623   76.6010  219.6128 H   0  0  0  0  0  0  0  0  0  0  0  0
  142.5668   78.9391  220.1297 H   0  0  0  0  0  0  0  0  0  0  0  0
  139.8517   80.1658  223.2584 H   0  0  0  0  0  0  0  0  0  0  0  0
  139.2277   77.7805  223.6340 H   0  0  0  0  0  0  0  0  0  0  0  0
  1  2  2  0
  2  3  1  0
  3  4  1  0
  4  5  1  0
  5  6  2  0
  5  7  1  0
  7  8  1  0
  8  9  1  0
  9 10  1  0
 10 11  1  0
 11 12  1  0
 12 13  1  0
 13 14  1  0
 14 15  1  0
 15 16  2  0
 16 17  1  0
 17 18  2  0
 18 19  1  0
 19 20  2  0
  2 21  1  0
 21 22  2  0
 22 23  1  0
 23 24  2  0
 24 25  1  0
 25 26  2  0
 26 27  1  0
 26 28  1  0
 28 29  2  0
 29 30  1  0
 30 31  2  0
 11  7  1  0
 20 15  1  0
 31 21  1  0
 30 24  1  0
  3 32  1  0
  4 33  1  0
  4 34  1  0
  8 35  1  0
  8 36  1  0
  9 37  1  0
  9 38  1  0
 10 39  1  0
 10 40  1  0
 11 41  1  1
 12 42  1  0
 12 43  1  0
 14 44  1  0
 14 45  1  0
 16 46  1  0
 17 47  1  0
 18 48  1  0
 19 49  1  0
 20 50  1  0
 22 51  1  0
 23 52  1  0
 25 53  1  0
 28 54  1  0
 29 55  1  0
M  END
>  <smiles>  (22) 
O=C(NCC(=O)N1CCC[C@H]1COCc1ccccc1)c1ccc2cc(Cl)ccc2n1

>  <score_type>  (22) 
oracle

>  <origin>  (22) 
autodockgpu

>  <m_score__min__energy>  (22) 
-9.1699999999999999

>  <m_primary>  (22) 
energy

>  <rmsd>  (22) 
8.512179454398629

>  <m_score__min__rmsd>  (22) 
8.512179454398629

>  <meeko>  (22) 
{"free_energy": -8.01, "intermolecular_energy": -10.4, "internal_energy": -2.55, "cluster_size": 16, "cluster_id": 1, "rank_in_cluster": 11}

>  <energy>  (22) 
-8.22

>  <cluster_rmsd>  (22) 
0.86

>  <cluster>  (22) 
2

$$$$

     RDKit          3D

 55 58  0  0  0  0  0  0  0  0999 V2000
  140.2800   72.2760  220.7810 O   0  0  0  0  0  0  0  0  0  0  0  0
  139.9530   72.7010  221.9140 C   0  0  0  0  0  0  0  0  0  0  0  0
  139.5510   74.0370  222.1800 N   0  0  0  0  0  0  0  0  0  0  0  0
  139.4980   75.0310  221.0860 C   0  0  0  0  0  0  0  0  0  0  0  0
  140.6750   75.8770  221.2080 C   0  0  0  0  0  0  0  0  0  0  0  0
  140.6080   76.8430  222.0520 O   0  0  0  0  0  0  0  0  0  0  0  0
  141.8970   75.7770  220.5090 N   0  0  0  0  0  0  0  0  0  0  0  0
  142.6940   74.5210  220.6330 C   0  0  0  0  0  0  0  0  0  0  0  0
  143.8350   74.6920  219.6880 C   0  0  0  0  0  0  0  0  0  0  0  0
  143.3140   75.6850  218.6990 C   0  0  0  0  0  0  0  0  0  0  0  0
  142.6160   76.6720  219.6510 C   0  0  1  0  0  0  0  0  0  0  0  0
  141.7970   77.6480  218.8730 C   0  0  0  0  0  0  0  0  0  0  0  0
  141.0860   78.4320  219.7680 O   0  0  0  0  0  0  0  0  0  0  0  0
  141.5430   79.7250  219.8780 C   0  0  0  0  0  0  0  0  0  0  0  0
  141.7820   80.1760  221.2660 C   0  0  0  0  0  0  0  0  0  0  0  0
  142.2690   79.2320  222.1620 C   0  0  0  0  0  0  0  0  0  0  0  0
  142.5320   79.5260  223.4830 C   0  0  0  0  0  0  0  0  0  0  0  0
  142.2900   80.8190  223.8940 C   0  0  0  0  0  0  0  0  0  0  0  0
  141.8090   81.7630  223.0220 C   0  0  0  0  0  0  0  0  0  0  0  0
  141.5450   81.4640  221.6910 C   0  0  0  0  0  0  0  0  0  0  0  0
  139.9890   71.7610  223.0330 C   0  0  0  0  0  0  0  0  0  0  0  0
  139.5180   70.4680  222.9180 C   0  0  0  0  0  0  0  0  0  0  0  0
  139.5350   69.5560  223.9460 C   0  0  0  0  0  0  0  0  0  0  0  0
  140.0480   69.9370  225.1670 C   0  0  0  0  0  0  0  0  0  0  0  0
  140.0680   69.0290  226.2030 C   0  0  0  0  0  0  0  0  0  0  0  0
  140.5900   69.4550  227.4070 C   0  0  0  0  0  0  0  0  0  0  0  0
  140.6330   68.3230  228.7480 Cl  0  0  0  0  0  0  0  0  0  0  0  0
  141.0780   70.7320  227.5900 C   0  0  0  0  0  0  0  0  0  0  0  0
  141.0360   71.6130  226.5150 C   0  0  0  0  0  0  0  0  0  0  0  0
  140.5190   71.2300  225.2840 C   0  0  0  0  0  0  0  0  0  0  0  0
  140.4880   72.1080  224.2460 N   0  0  0  0  0  0  0  0  0  0  0  0
  139.2810   74.3500  223.1550 H   0  0  0  0  0  0  0  0  0  0  0  0
  139.5026   74.5189  220.1125 H   0  0  0  0  0  0  0  0  0  0  0  0
  138.5794   75.6325  221.1525 H   0  0  0  0  0  0  0  0  0  0  0  0
  143.0604   74.3958  221.6626 H   0  0  0  0  0  0  0  0  0  0  0  0
  142.0957   73.6277  220.4004 H   0  0  0  0  0  0  0  0  0  0  0  0
  144.7227   75.0816  220.2079 H   0  0  0  0  0  0  0  0  0  0  0  0
  144.1553   73.7478  219.2233 H   0  0  0  0  0  0  0  0  0  0  0  0
  144.1278   76.1666  218.1371 H   0  0  0  0  0  0  0  0  0  0  0  0
  142.6677   75.2623  217.9156 H   0  0  0  0  0  0  0  0  0  0  0  0
  143.2647   77.3375  220.2394 H   0  0  0  0  0  0  0  0  0  0  0  0
  142.4560   78.2840  218.2637 H   0  0  0  0  0  0  0  0  0  0  0  0
  141.1052   77.1140  218.2050 H   0  0  0  0  0  0  0  0  0  0  0  0
  142.4900   79.8028  219.3238 H   0  0  0  0  0  0  0  0  0  0  0  0
  140.7516   80.3717  219.4713 H   0  0  0  0  0  0  0  0  0  0  0  0
  142.4521   78.2086  221.8026 H   0  0  0  0  0  0  0  0  0  0  0  0
  142.9171   78.7640  224.1767 H   0  0  0  0  0  0  0  0  0  0  0  0
  142.4859   81.0992  224.9395 H   0  0  0  0  0  0  0  0  0  0  0  0
  141.6274   82.7847  223.3868 H   0  0  0  0  0  0  0  0  0  0  0  0
  141.1602   82.2294  221.0011 H   0  0  0  0  0  0  0  0  0  0  0  0
  139.1060   70.1500  221.9489 H   0  0  0  0  0  0  0  0  0  0  0  0
  139.1454   68.5382  223.7966 H   0  0  0  0  0  0  0  0  0  0  0  0
  139.6835   68.0063  226.0755 H   0  0  0  0  0  0  0  0  0  0  0  0
  141.4896   71.0453  228.5608 H   0  0  0  0  0  0  0  0  0  0  0  0
  141.4206   72.6357  226.6423 H   0  0  0  0  0  0  0  0  0  0  0  0
  1  2  2  0
  2  3  1  0
  3  4  1  0
  4  5  1  0
  5  6  2  0
  5  7  1  0
  7  8  1  0
  8  9  1  0
  9 10  1  0
 10 11  1  0
 11 12  1  0
 12 13  1  0
 13 14  1  0
 14 15  1  0
 15 16  2  0
 16 17  1  0
 17 18  2  0
 18 19  1  0
 19 20  2  0
  2 21  1  0
 21 22  2  0
 22 23  1  0
 23 24  2  0
 24 25  1  0
 25 26  2  0
 26 27  1  0
 26 28  1  0
 28 29  2  0
 29 30  1  0
 30 31  2  0
 11  7  1  0
 20 15  1  0
 31 21  1  0
 30 24  1  0
  3 32  1  0
  4 33  1  0
  4 34  1  0
  8 35  1  0
  8 36  1  0
  9 37  1  0
  9 38  1  0
 10 39  1  0
 10 40  1  0
 11 41  1  1
 12 42  1  0
 12 43  1  0
 14 44  1  0
 14 45  1  0
 16 46  1  0
 17 47  1  0
 18 48  1  0
 19 49  1  0
 20 50  1  0
 22 51  1  0
 23 52  1  0
 25 53  1  0
 28 54  1  0
 29 55  1  0
M  END
>  <smiles>  (23) 
O=C(NCC(=O)N1CCC[C@H]1COCc1ccccc1)c1ccc2cc(Cl)ccc2n1

>  <score_type>  (23) 
oracle

>  <origin>  (23) 
autodockgpu

>  <m_score__min__energy>  (23) 
-9.1699999999999999

>  <m_primary>  (23) 
energy

>  <rmsd>  (23) 
2.396610252006024

>  <m_score__min__rmsd>  (23) 
2.396610252006024

>  <meeko>  (23) 
{"free_energy": -8.93, "intermolecular_energy": -11.31, "internal_energy": -1.91, "cluster_size": 12, "cluster_id": 2, "rank_in_cluster": 1}

>  <energy>  (23) 
-8.16

>  <cluster_rmsd>  (23) 
1.43

>  <cluster>  (23) 
2

$$$$

     RDKit          3D

 55 58  0  0  0  0  0  0  0  0999 V2000
  140.7830   72.3480  221.4470 O   0  0  0  0  0  0  0  0  0  0  0  0
  140.0320   73.2790  221.8190 C   0  0  0  0  0  0  0  0  0  0  0  0
  138.7560   73.0860  222.4110 N   0  0  0  0  0  0  0  0  0  0  0  0
  138.2310   71.7210  222.6240 C   0  0  0  0  0  0  0  0  0  0  0  0
  136.8940   71.8480  223.1820 C   0  0  0  0  0  0  0  0  0  0  0  0
  136.1770   72.8230  222.7510 O   0  0  0  0  0  0  0  0  0  0  0  0
  136.2720   71.0300  224.1500 N   0  0  0  0  0  0  0  0  0  0  0  0
  134.9790   71.4810  224.7450 C   0  0  0  0  0  0  0  0  0  0  0  0
  134.5390   70.3510  225.6140 C   0  0  0  0  0  0  0  0  0  0  0  0
  135.2330   69.1690  225.0170 C   0  0  0  0  0  0  0  0  0  0  0  0
  136.6220   69.7780  224.7530 C   0  0  1  0  0  0  0  0  0  0  0  0
  137.4440   68.8490  223.9240 C   0  0  0  0  0  0  0  0  0  0  0  0
  138.5280   68.4310  224.6810 O   0  0  0  0  0  0  0  0  0  0  0  0
  139.6330   69.2440  224.5860 C   0  0  0  0  0  0  0  0  0  0  0  0
  139.9820   69.9550  225.8350 C   0  0  0  0  0  0  0  0  0  0  0  0
  140.6880   71.1450  225.7090 C   0  0  0  0  0  0  0  0  0  0  0  0
  141.0740   71.9010  226.7950 C   0  0  0  0  0  0  0  0  0  0  0  0
  140.7270   71.4240  228.0410 C   0  0  0  0  0  0  0  0  0  0  0  0
  140.0290   70.2510  228.1830 C   0  0  0  0  0  0  0  0  0  0  0  0
  139.6420   69.4910  227.0860 C   0  0  0  0  0  0  0  0  0  0  0  0
  140.5000   74.6510  221.6300 C   0  0  0  0  0  0  0  0  0  0  0  0
  141.4890   74.9680  220.7210 C   0  0  0  0  0  0  0  0  0  0  0  0
  141.9550   76.2440  220.5150 C   0  0  0  0  0  0  0  0  0  0  0  0
  141.4170   77.2780  221.2500 C   0  0  0  0  0  0  0  0  0  0  0  0
  141.8790   78.5610  221.0510 C   0  0  0  0  0  0  0  0  0  0  0  0
  141.3100   79.5620  221.8090 C   0  0  0  0  0  0  0  0  0  0  0  0
  141.8740   81.2090  221.5800 Cl  0  0  0  0  0  0  0  0  0  0  0  0
  140.3180   79.3160  222.7350 C   0  0  0  0  0  0  0  0  0  0  0  0
  139.8840   78.0050  222.9010 C   0  0  0  0  0  0  0  0  0  0  0  0
  140.4270   76.9630  222.1610 C   0  0  0  0  0  0  0  0  0  0  0  0
  139.9880   75.6880  222.3400 N   0  0  0  0  0  0  0  0  0  0  0  0
  138.1560   73.9060  222.7120 H   0  0  0  0  0  0  0  0  0  0  0  0
  138.1884   71.1815  221.6663 H   0  0  0  0  0  0  0  0  0  0  0  0
  138.8836   71.1576  223.3071 H   0  0  0  0  0  0  0  0  0  0  0  0
  135.1254   72.3934  225.3418 H   0  0  0  0  0  0  0  0  0  0  0  0
  134.2325   71.7249  223.9748 H   0  0  0  0  0  0  0  0  0  0  0  0
  134.8547   70.5088  226.6558 H   0  0  0  0  0  0  0  0  0  0  0  0
  133.4457   70.2357  225.6502 H   0  0  0  0  0  0  0  0  0  0  0  0
  135.2842   68.3267  225.7226 H   0  0  0  0  0  0  0  0  0  0  0  0
  134.7396   68.7409  224.1320 H   0  0  0  0  0  0  0  0  0  0  0  0
  137.2695   69.9352  225.6282 H   0  0  0  0  0  0  0  0  0  0  0  0
  136.8386   67.9790  223.6297 H   0  0  0  0  0  0  0  0  0  0  0  0
  137.7924   69.3610  223.0149 H   0  0  0  0  0  0  0  0  0  0  0  0
  140.4922   68.6227  224.2930 H   0  0  0  0  0  0  0  0  0  0  0  0
  139.3882   70.0182  223.8439 H   0  0  0  0  0  0  0  0  0  0  0  0
  140.9498   71.4985  224.7008 H   0  0  0  0  0  0  0  0  0  0  0  0
  141.6326   72.8407  226.6732 H   0  0  0  0  0  0  0  0  0  0  0  0
  141.0146   71.9936  228.9370 H   0  0  0  0  0  0  0  0  0  0  0  0
  139.7686   69.9027  229.1934 H   0  0  0  0  0  0  0  0  0  0  0  0
  139.0837   68.5517  227.2125 H   0  0  0  0  0  0  0  0  0  0  0  0
  141.9291   74.1529  220.1278 H   0  0  0  0  0  0  0  0  0  0  0  0
  142.7454   76.4372  219.7747 H   0  0  0  0  0  0  0  0  0  0  0  0
  142.6695   78.7775  220.3173 H   0  0  0  0  0  0  0  0  0  0  0  0
  139.8818   80.1345  223.3263 H   0  0  0  0  0  0  0  0  0  0  0  0
  139.0933   77.7889  223.6346 H   0  0  0  0  0  0  0  0  0  0  0  0
  1  2  2  0
  2  3  1  0
  3  4  1  0
  4  5  1  0
  5  6  2  0
  5  7  1  0
  7  8  1  0
  8  9  1  0
  9 10  1  0
 10 11  1  0
 11 12  1  0
 12 13  1  0
 13 14  1  0
 14 15  1  0
 15 16  2  0
 16 17  1  0
 17 18  2  0
 18 19  1  0
 19 20  2  0
  2 21  1  0
 21 22  2  0
 22 23  1  0
 23 24  2  0
 24 25  1  0
 25 26  2  0
 26 27  1  0
 26 28  1  0
 28 29  2  0
 29 30  1  0
 30 31  2  0
 11  7  1  0
 20 15  1  0
 31 21  1  0
 30 24  1  0
  3 32  1  0
  4 33  1  0
  4 34  1  0
  8 35  1  0
  8 36  1  0
  9 37  1  0
  9 38  1  0
 10 39  1  0
 10 40  1  0
 11 41  1  1
 12 42  1  0
 12 43  1  0
 14 44  1  0
 14 45  1  0
 16 46  1  0
 17 47  1  0
 18 48  1  0
 19 49  1  0
 20 50  1  0
 22 51  1  0
 23 52  1  0
 25 53  1  0
 28 54  1  0
 29 55  1  0
M  END
>  <smiles>  (24) 
O=C(NCC(=O)N1CCC[C@H]1COCc1ccccc1)c1ccc2cc(Cl)ccc2n1

>  <score_type>  (24) 
oracle

>  <origin>  (24) 
autodockgpu

>  <m_score__min__energy>  (24) 
-9.1699999999999999

>  <m_primary>  (24) 
energy

>  <rmsd>  (24) 
8.497450823819308

>  <m_score__min__rmsd>  (24) 
8.497450823819308

>  <meeko>  (24) 
{"free_energy": -8.05, "intermolecular_energy": -10.44, "internal_energy": -2.5, "cluster_size": 16, "cluster_id": 1, "rank_in_cluster": 10}

>  <energy>  (24) 
-8.1

>  <cluster_rmsd>  (24) 
1.14

>  <cluster>  (24) 
2

$$$$

     RDKit          3D

 55 58  0  0  0  0  0  0  0  0999 V2000
  139.6720   71.9000  220.6270 O   0  0  0  0  0  0  0  0  0  0  0  0
  139.6650   72.3920  221.7790 C   0  0  0  0  0  0  0  0  0  0  0  0
  139.5430   73.7810  222.0520 N   0  0  0  0  0  0  0  0  0  0  0  0
  139.4140   74.7500  220.9430 C   0  0  0  0  0  0  0  0  0  0  0  0
  139.6380   76.0770  221.4940 C   0  0  0  0  0  0  0  0  0  0  0  0
  139.2920   76.2610  222.7190 O   0  0  0  0  0  0  0  0  0  0  0  0
  140.1900   77.2070  220.8530 N   0  0  0  0  0  0  0  0  0  0  0  0
  140.0090   78.5480  221.4810 C   0  0  0  0  0  0  0  0  0  0  0  0
  140.8080   79.4820  220.6360 C   0  0  0  0  0  0  0  0  0  0  0  0
  141.8230   78.5860  220.0010 C   0  0  0  0  0  0  0  0  0  0  0  0
  140.9320   77.3840  219.6400 C   0  0  1  0  0  0  0  0  0  0  0  0
  141.7730   76.2320  219.2000 C   0  0  0  0  0  0  0  0  0  0  0  0
  142.6510   75.9170  220.2250 O   0  0  0  0  0  0  0  0  0  0  0  0
  142.5170   74.6380  220.7140 C   0  0  0  0  0  0  0  0  0  0  0  0
  143.6720   73.7530  220.4450 C   0  0  0  0  0  0  0  0  0  0  0  0
  144.9380   74.3130  220.5670 C   0  0  0  0  0  0  0  0  0  0  0  0
  146.0930   73.5950  220.3430 C   0  0  0  0  0  0  0  0  0  0  0  0
  145.9470   72.2730  219.9860 C   0  0  0  0  0  0  0  0  0  0  0  0
  144.7030   71.7040  219.8620 C   0  0  0  0  0  0  0  0  0  0  0  0
  143.5400   72.4300  220.0880 C   0  0  0  0  0  0  0  0  0  0  0  0
  139.7920   71.4790  222.9130 C   0  0  0  0  0  0  0  0  0  0  0  0
  139.3880   70.1610  222.8400 C   0  0  0  0  0  0  0  0  0  0  0  0
  139.4920   69.2730  223.8840 C   0  0  0  0  0  0  0  0  0  0  0  0
  140.0250   69.7060  225.0780 C   0  0  0  0  0  0  0  0  0  0  0  0
  140.1320   68.8220  226.1310 C   0  0  0  0  0  0  0  0  0  0  0  0
  140.6730   69.3010  227.3060 C   0  0  0  0  0  0  0  0  0  0  0  0
  140.8240   68.2020  228.6660 Cl  0  0  0  0  0  0  0  0  0  0  0  0
  141.0960   70.6060  227.4470 C   0  0  0  0  0  0  0  0  0  0  0  0
  140.9680   71.4610  226.3570 C   0  0  0  0  0  0  0  0  0  0  0  0
  140.4300   71.0250  225.1540 C   0  0  0  0  0  0  0  0  0  0  0  0
  140.3140   71.8780  224.1010 N   0  0  0  0  0  0  0  0  0  0  0  0
  139.5410   74.1520  223.0450 H   0  0  0  0  0  0  0  0  0  0  0  0
  140.1629   74.5343  220.1667 H   0  0  0  0  0  0  0  0  0  0  0  0
  138.4161   74.6840  220.4848 H   0  0  0  0  0  0  0  0  0  0  0  0
  138.9474   78.8361  221.4778 H   0  0  0  0  0  0  0  0  0  0  0  0
  140.3357   78.5595  222.5313 H   0  0  0  0  0  0  0  0  0  0  0  0
  140.1763   79.9638  219.8752 H   0  0  0  0  0  0  0  0  0  0  0  0
  141.2586   80.3048  221.2105 H   0  0  0  0  0  0  0  0  0  0  0  0
  142.2703   79.0453  219.1072 H   0  0  0  0  0  0  0  0  0  0  0  0
  142.6894   78.3460  220.6348 H   0  0  0  0  0  0  0  0  0  0  0  0
  140.2523   77.5085  218.7842 H   0  0  0  0  0  0  0  0  0  0  0  0
  141.1315   75.3658  218.9805 H   0  0  0  0  0  0  0  0  0  0  0  0
  142.3320   76.4968  218.2904 H   0  0  0  0  0  0  0  0  0  0  0  0
  142.3781   74.6997  221.8035 H   0  0  0  0  0  0  0  0  0  0  0  0
  141.6553   74.1936  220.1944 H   0  0  0  0  0  0  0  0  0  0  0  0
  145.0217   75.3717  220.8538 H   0  0  0  0  0  0  0  0  0  0  0  0
  147.0861   74.0569  220.4448 H   0  0  0  0  0  0  0  0  0  0  0  0
  146.8421   71.6622  219.7969 H   0  0  0  0  0  0  0  0  0  0  0  0
  144.6253   70.6447  219.5760 H   0  0  0  0  0  0  0  0  0  0  0  0
  142.5488   71.9641  219.9853 H   0  0  0  0  0  0  0  0  0  0  0  0
  138.9588   69.8012  221.8932 H   0  0  0  0  0  0  0  0  0  0  0  0
  139.1547   68.2325  223.7677 H   0  0  0  0  0  0  0  0  0  0  0  0
  139.7995   67.7776  226.0377 H   0  0  0  0  0  0  0  0  0  0  0  0
  141.5233   70.9615  228.3962 H   0  0  0  0  0  0  0  0  0  0  0  0
  141.3004   72.5054  226.4505 H   0  0  0  0  0  0  0  0  0  0  0  0
  1  2  2  0
  2  3  1  0
  3  4  1  0
  4  5  1  0
  5  6  2  0
  5  7  1  0
  7  8  1  0
  8  9  1  0
  9 10  1  0
 10 11  1  0
 11 12  1  0
 12 13  1  0
 13 14  1  0
 14 15  1  0
 15 16  2  0
 16 17  1  0
 17 18  2  0
 18 19  1  0
 19 20  2  0
  2 21  1  0
 21 22  2  0
 22 23  1  0
 23 24  2  0
 24 25  1  0
 25 26  2  0
 26 27  1  0
 26 28  1  0
 28 29  2  0
 29 30  1  0
 30 31  2  0
 11  7  1  0
 20 15  1  0
 31 21  1  0
 30 24  1  0
  3 32  1  0
  4 33  1  0
  4 34  1  0
  8 35  1  0
  8 36  1  0
  9 37  1  0
  9 38  1  0
 10 39  1  0
 10 40  1  0
 11 41  1  6
 12 42  1  0
 12 43  1  0
 14 44  1  0
 14 45  1  0
 16 46  1  0
 17 47  1  0
 18 48  1  0
 19 49  1  0
 20 50  1  0
 22 51  1  0
 23 52  1  0
 25 53  1  0
 28 54  1  0
 29 55  1  0
M  END
>  <smiles>  (25) 
O=C(NCC(=O)N1CCC[C@H]1COCc1ccccc1)c1ccc2cc(Cl)ccc2n1

>  <score_type>  (25) 
oracle

>  <origin>  (25) 
autodockgpu

>  <m_score__min__energy>  (25) 
-9.1699999999999999

>  <m_primary>  (25) 
energy

>  <rmsd>  (25) 
2.3858592183787257

>  <m_score__min__rmsd>  (25) 
2.3858592183787257

>  <meeko>  (25) 
{"free_energy": -7.94, "intermolecular_energy": -10.32, "internal_energy": -2.54, "cluster_size": 14, "cluster_id": 3, "rank_in_cluster": 5}

>  <energy>  (25) 
-8.08

>  <cluster_rmsd>  (25) 
1.91

>  <cluster>  (25) 
2

$$$$

     RDKit          3D

 55 58  0  0  0  0  0  0  0  0999 V2000
  139.7010   71.8390  220.7220 O   0  0  0  0  0  0  0  0  0  0  0  0
  139.6550   72.3390  221.8700 C   0  0  0  0  0  0  0  0  0  0  0  0
  139.5030   73.7270  222.1300 N   0  0  0  0  0  0  0  0  0  0  0  0
  139.3880   74.6870  221.0110 C   0  0  0  0  0  0  0  0  0  0  0  0
  139.9520   75.9500  221.4590 C   0  0  0  0  0  0  0  0  0  0  0  0
  139.7420   76.2760  222.6850 O   0  0  0  0  0  0  0  0  0  0  0  0
  140.7100   76.8800  220.7150 N   0  0  0  0  0  0  0  0  0  0  0  0
  141.9420   76.4080  220.0190 C   0  0  0  0  0  0  0  0  0  0  0  0
  142.4200   77.5850  219.2370 C   0  0  0  0  0  0  0  0  0  0  0  0
  141.1800   78.3990  219.0520 C   0  0  0  0  0  0  0  0  0  0  0  0
  140.5700   78.2840  220.4600 C   0  0  1  0  0  0  0  0  0  0  0  0
  139.1790   78.8250  220.4660 C   0  0  0  0  0  0  0  0  0  0  0  0
  138.6410   78.6310  221.7290 O   0  0  0  0  0  0  0  0  0  0  0  0
  138.7360   79.7240  222.5600 C   0  0  0  0  0  0  0  0  0  0  0  0
  140.1160   80.0690  222.9650 C   0  0  0  0  0  0  0  0  0  0  0  0
  140.8700   79.0640  223.5580 C   0  0  0  0  0  0  0  0  0  0  0  0
  142.1680   79.2580  223.9810 C   0  0  0  0  0  0  0  0  0  0  0  0
  142.7040   80.5130  223.7900 C   0  0  0  0  0  0  0  0  0  0  0  0
  141.9730   81.5170  223.2060 C   0  0  0  0  0  0  0  0  0  0  0  0
  140.6650   81.3180  222.7810 C   0  0  0  0  0  0  0  0  0  0  0  0
  139.7670   71.4360  223.0140 C   0  0  0  0  0  0  0  0  0  0  0  0
  139.3410   70.1240  222.9540 C   0  0  0  0  0  0  0  0  0  0  0  0
  139.4300   69.2450  224.0070 C   0  0  0  0  0  0  0  0  0  0  0  0
  139.9710   69.6810  225.1970 C   0  0  0  0  0  0  0  0  0  0  0  0
  140.0630   68.8070  226.2580 C   0  0  0  0  0  0  0  0  0  0  0  0
  140.6110   69.2880  227.4280 C   0  0  0  0  0  0  0  0  0  0  0  0
  140.7430   68.2010  228.8000 Cl  0  0  0  0  0  0  0  0  0  0  0  0
  141.0560   70.5870  227.5560 C   0  0  0  0  0  0  0  0  0  0  0  0
  140.9420   71.4340  226.4580 C   0  0  0  0  0  0  0  0  0  0  0  0
  140.3970   70.9940  225.2590 C   0  0  0  0  0  0  0  0  0  0  0  0
  140.2950   71.8380  224.1970 N   0  0  0  0  0  0  0  0  0  0  0  0
  139.4670   74.1040  223.1200 H   0  0  0  0  0  0  0  0  0  0  0  0
  139.9453   74.3153  220.1385 H   0  0  0  0  0  0  0  0  0  0  0  0
  138.3358   74.8151  220.7171 H   0  0  0  0  0  0  0  0  0  0  0  0
  142.7025   76.0947  220.7494 H   0  0  0  0  0  0  0  0  0  0  0  0
  141.7449   75.5377  219.3758 H   0  0  0  0  0  0  0  0  0  0  0  0
  143.1813   78.1478  219.7971 H   0  0  0  0  0  0  0  0  0  0  0  0
  142.8984   77.3059  218.2866 H   0  0  0  0  0  0  0  0  0  0  0  0
  141.4120   79.4423  218.7919 H   0  0  0  0  0  0  0  0  0  0  0  0
  140.5242   78.0638  218.2350 H   0  0  0  0  0  0  0  0  0  0  0  0
  141.0463   78.8734  221.2573 H   0  0  0  0  0  0  0  0  0  0  0  0
  139.1969   79.8993  220.2305 H   0  0  0  0  0  0  0  0  0  0  0  0
  138.5685   78.3081  219.7109 H   0  0  0  0  0  0  0  0  0  0  0  0
  138.3043   80.5908  222.0381 H   0  0  0  0  0  0  0  0  0  0  0  0
  138.1954   79.4637  223.4820 H   0  0  0  0  0  0  0  0  0  0  0  0
  140.4128   78.0730  223.6957 H   0  0  0  0  0  0  0  0  0  0  0  0
  142.7482   78.4490  224.4489 H   0  0  0  0  0  0  0  0  0  0  0  0
  143.7366   80.7138  224.1115 H   0  0  0  0  0  0  0  0  0  0  0  0
  142.4350   82.5061  223.0706 H   0  0  0  0  0  0  0  0  0  0  0  0
  140.0884   82.1301  222.3139 H   0  0  0  0  0  0  0  0  0  0  0  0
  138.9061   69.7619  222.0107 H   0  0  0  0  0  0  0  0  0  0  0  0
  139.0748   68.2093  223.9014 H   0  0  0  0  0  0  0  0  0  0  0  0
  139.7133   67.7674  226.1749 H   0  0  0  0  0  0  0  0  0  0  0  0
  141.4898   70.9443  228.5016 H   0  0  0  0  0  0  0  0  0  0  0  0
  141.2909   72.4739  226.5415 H   0  0  0  0  0  0  0  0  0  0  0  0
  1  2  2  0
  2  3  1  0
  3  4  1  0
  4  5  1  0
  5  6  2  0
  5  7  1  0
  7  8  1  0
  8  9  1  0
  9 10  1  0
 10 11  1  0
 11 12  1  0
 12 13  1  0
 13 14  1  0
 14 15  1  0
 15 16  2  0
 16 17  1  0
 17 18  2  0
 18 19  1  0
 19 20  2  0
  2 21  1  0
 21 22  2  0
 22 23  1  0
 23 24  2  0
 24 25  1  0
 25 26  2  0
 26 27  1  0
 26 28  1  0
 28 29  2  0
 29 30  1  0
 30 31  2  0
 11  7  1  0
 20 15  1  0
 31 21  1  0
 30 24  1  0
  3 32  1  0
  4 33  1  0
  4 34  1  0
  8 35  1  0
  8 36  1  0
  9 37  1  0
  9 38  1  0
 10 39  1  0
 10 40  1  0
 11 41  1  1
 12 42  1  0
 12 43  1  0
 14 44  1  0
 14 45  1  0
 16 46  1  0
 17 47  1  0
 18 48  1  0
 19 49  1  0
 20 50  1  0
 22 51  1  0
 23 52  1  0
 25 53  1  0
 28 54  1  0
 29 55  1  0
M  END
>  <smiles>  (26) 
O=C(NCC(=O)N1CCC[C@H]1COCc1ccccc1)c1ccc2cc(Cl)ccc2n1

>  <score_type>  (26) 
oracle

>  <origin>  (26) 
autodockgpu

>  <m_score__min__energy>  (26) 
-9.1699999999999999

>  <m_primary>  (26) 
energy

>  <rmsd>  (26) 
1.921626815592869

>  <m_score__min__rmsd>  (26) 
1.921626815592869

>  <meeko>  (26) 
{"free_energy": -8.5, "intermolecular_energy": -10.88, "internal_energy": -2.49, "cluster_size": 12, "cluster_id": 2, "rank_in_cluster": 3}

>  <energy>  (26) 
-8.04

>  <cluster_rmsd>  (26) 
1.95

>  <cluster>  (26) 
2

$$$$

     RDKit          3D

 55 58  0  0  0  0  0  0  0  0999 V2000
  139.3520   71.7380  220.8900 O   0  0  0  0  0  0  0  0  0  0  0  0
  139.4600   72.2480  222.0300 C   0  0  0  0  0  0  0  0  0  0  0  0
  139.4160   73.6440  222.2860 N   0  0  0  0  0  0  0  0  0  0  0  0
  139.2330   74.6010  221.1740 C   0  0  0  0  0  0  0  0  0  0  0  0
  140.5530   75.0620  220.7730 C   0  0  0  0  0  0  0  0  0  0  0  0
  141.3410   75.4490  221.7110 O   0  0  0  0  0  0  0  0  0  0  0  0
  141.0910   75.1420  219.4700 N   0  0  0  0  0  0  0  0  0  0  0  0
  140.2850   74.6170  218.3290 C   0  0  0  0  0  0  0  0  0  0  0  0
  141.0690   74.9670  217.1090 C   0  0  0  0  0  0  0  0  0  0  0  0
  141.8940   76.1320  217.5550 C   0  0  0  0  0  0  0  0  0  0  0  0
  142.3290   75.6360  218.9450 C   0  0  1  0  0  0  0  0  0  0  0  0
  142.9790   76.7420  219.7080 C   0  0  0  0  0  0  0  0  0  0  0  0
  142.3460   77.9310  219.3780 O   0  0  0  0  0  0  0  0  0  0  0  0
  141.2790   78.2480  220.1860 C   0  0  0  0  0  0  0  0  0  0  0  0
  141.6410   78.9580  221.4320 C   0  0  0  0  0  0  0  0  0  0  0  0
  141.4140   78.2900  222.6290 C   0  0  0  0  0  0  0  0  0  0  0  0
  141.7070   78.8420  223.8570 C   0  0  0  0  0  0  0  0  0  0  0  0
  142.2480   80.1100  223.8580 C   0  0  0  0  0  0  0  0  0  0  0  0
  142.4790   80.7840  222.6840 C   0  0  0  0  0  0  0  0  0  0  0  0
  142.1820   80.2240  221.4480 C   0  0  0  0  0  0  0  0  0  0  0  0
  139.6450   71.3470  223.1660 C   0  0  0  0  0  0  0  0  0  0  0  0
  139.2930   70.0140  223.1070 C   0  0  0  0  0  0  0  0  0  0  0  0
  139.4510   69.1370  224.1540 C   0  0  0  0  0  0  0  0  0  0  0  0
  139.9890   69.5980  225.3360 C   0  0  0  0  0  0  0  0  0  0  0  0
  140.1510   68.7260  226.3900 C   0  0  0  0  0  0  0  0  0  0  0  0
  140.6920   69.2330  227.5530 C   0  0  0  0  0  0  0  0  0  0  0  0
  140.9130   68.1490  228.9160 Cl  0  0  0  0  0  0  0  0  0  0  0  0
  141.0650   70.5550  227.6790 C   0  0  0  0  0  0  0  0  0  0  0  0
  140.8830   71.3980  226.5880 C   0  0  0  0  0  0  0  0  0  0  0  0
  140.3410   70.9330  225.3970 C   0  0  0  0  0  0  0  0  0  0  0  0
  140.1710   71.7740  224.3420 N   0  0  0  0  0  0  0  0  0  0  0  0
  139.5100   74.0300  223.2690 H   0  0  0  0  0  0  0  0  0  0  0  0
  138.7358   74.1035  220.3282 H   0  0  0  0  0  0  0  0  0  0  0  0
  138.6062   75.4478  221.4904 H   0  0  0  0  0  0  0  0  0  0  0  0
  140.1634   73.5268  218.4108 H   0  0  0  0  0  0  0  0  0  0  0  0
  139.2724   75.0461  218.3065 H   0  0  0  0  0  0  0  0  0  0  0  0
  141.7079   74.1279  216.7966 H   0  0  0  0  0  0  0  0  0  0  0  0
  140.4348   75.1953  216.2397 H   0  0  0  0  0  0  0  0  0  0  0  0
  142.7564   76.2986  216.8928 H   0  0  0  0  0  0  0  0  0  0  0  0
  141.3696   77.0990  217.5517 H   0  0  0  0  0  0  0  0  0  0  0  0
  143.1027   74.8546  218.9730 H   0  0  0  0  0  0  0  0  0  0  0  0
  142.8814   76.5561  220.7878 H   0  0  0  0  0  0  0  0  0  0  0  0
  144.0479   76.7993  219.4546 H   0  0  0  0  0  0  0  0  0  0  0  0
  140.5928   78.8887  219.6128 H   0  0  0  0  0  0  0  0  0  0  0  0
  140.8242   77.2940  220.4911 H   0  0  0  0  0  0  0  0  0  0  0  0
  140.9826   77.2787  222.5949 H   0  0  0  0  0  0  0  0  0  0  0  0
  141.5180   78.2962  224.7932 H   0  0  0  0  0  0  0  0  0  0  0  0
  142.4989   80.5900  224.8154 H   0  0  0  0  0  0  0  0  0  0  0  0
  142.9110   81.7949  222.7235 H   0  0  0  0  0  0  0  0  0  0  0  0
  142.3725   80.7731  220.5141 H   0  0  0  0  0  0  0  0  0  0  0  0
  138.8619   69.6317  222.1700 H   0  0  0  0  0  0  0  0  0  0  0  0
  139.1525   68.0834  224.0498 H   0  0  0  0  0  0  0  0  0  0  0  0
  139.8607   67.6682  226.3075 H   0  0  0  0  0  0  0  0  0  0  0  0
  141.4953   70.9327  228.6182 H   0  0  0  0  0  0  0  0  0  0  0  0
  141.1745   72.4555  226.6702 H   0  0  0  0  0  0  0  0  0  0  0  0
  1  2  2  0
  2  3  1  0
  3  4  1  0
  4  5  1  0
  5  6  2  0
  5  7  1  0
  7  8  1  0
  8  9  1  0
  9 10  1  0
 10 11  1  0
 11 12  1  0
 12 13  1  0
 13 14  1  0
 14 15  1  0
 15 16  2  0
 16 17  1  0
 17 18  2  0
 18 19  1  0
 19 20  2  0
  2 21  1  0
 21 22  2  0
 22 23  1  0
 23 24  2  0
 24 25  1  0
 25 26  2  0
 26 27  1  0
 26 28  1  0
 28 29  2  0
 29 30  1  0
 30 31  2  0
 11  7  1  0
 20 15  1  0
 31 21  1  0
 30 24  1  0
  3 32  1  0
  4 33  1  0
  4 34  1  0
  8 35  1  0
  8 36  1  0
  9 37  1  0
  9 38  1  0
 10 39  1  0
 10 40  1  0
 11 41  1  6
 12 42  1  0
 12 43  1  0
 14 44  1  0
 14 45  1  0
 16 46  1  0
 17 47  1  0
 18 48  1  0
 19 49  1  0
 20 50  1  0
 22 51  1  0
 23 52  1  0
 25 53  1  0
 28 54  1  0
 29 55  1  0
M  END
>  <smiles>  (27) 
O=C(NCC(=O)N1CCC[C@H]1COCc1ccccc1)c1ccc2cc(Cl)ccc2n1

>  <score_type>  (27) 
oracle

>  <origin>  (27) 
autodockgpu

>  <m_score__min__energy>  (27) 
-9.1699999999999999

>  <m_primary>  (27) 
energy

>  <rmsd>  (27) 
1.3427959367253073

>  <m_score__min__rmsd>  (27) 
1.3427959367253073

>  <meeko>  (27) 
{"free_energy": -8.1, "intermolecular_energy": -10.49, "internal_energy": -2.03, "cluster_size": 12, "cluster_id": 2, "rank_in_cluster": 8}

>  <energy>  (27) 
-7.91

>  <cluster_rmsd>  (27) 
1.49

>  <cluster>  (27) 
2

$$$$

     RDKit          3D

 55 58  0  0  0  0  0  0  0  0999 V2000
  138.8910   73.5290  220.4520 O   0  0  0  0  0  0  0  0  0  0  0  0
  138.6020   74.2490  221.4360 C   0  0  0  0  0  0  0  0  0  0  0  0
  137.5440   73.9740  222.3420 N   0  0  0  0  0  0  0  0  0  0  0  0
  136.6970   72.7760  222.1580 C   0  0  0  0  0  0  0  0  0  0  0  0
  136.0790   72.4770  223.4400 C   0  0  0  0  0  0  0  0  0  0  0  0
  135.8030   73.4780  224.1980 O   0  0  0  0  0  0  0  0  0  0  0  0
  135.7390   71.2140  223.9710 N   0  0  0  0  0  0  0  0  0  0  0  0
  134.2970   70.8410  224.0660 C   0  0  0  0  0  0  0  0  0  0  0  0
  134.2940   69.4250  224.5380 C   0  0  0  0  0  0  0  0  0  0  0  0
  135.6350   68.9200  224.1100 C   0  0  0  0  0  0  0  0  0  0  0  0
  136.5120   70.1250  224.4930 C   0  0  1  0  0  0  0  0  0  0  0  0
  137.8870   69.9610  223.9380 C   0  0  0  0  0  0  0  0  0  0  0  0
  138.5730   71.1540  224.1090 O   0  0  0  0  0  0  0  0  0  0  0  0
  139.9220   71.0050  224.3320 C   0  0  0  0  0  0  0  0  0  0  0  0
  140.2850   70.7280  225.7390 C   0  0  0  0  0  0  0  0  0  0  0  0
  140.1780   69.4120  226.1710 C   0  0  0  0  0  0  0  0  0  0  0  0
  140.4860   69.0240  227.4580 C   0  0  0  0  0  0  0  0  0  0  0  0
  140.9140   70.0090  228.3210 C   0  0  0  0  0  0  0  0  0  0  0  0
  141.0250   71.3140  227.9100 C   0  0  0  0  0  0  0  0  0  0  0  0
  140.7140   71.7020  226.6120 C   0  0  0  0  0  0  0  0  0  0  0  0
  139.4060   75.4480  221.6630 C   0  0  0  0  0  0  0  0  0  0  0  0
  140.6610   75.6040  221.1100 C   0  0  0  0  0  0  0  0  0  0  0  0
  141.4460   76.7160  221.3010 C   0  0  0  0  0  0  0  0  0  0  0  0
  140.9690   77.7420  222.0870 C   0  0  0  0  0  0  0  0  0  0  0  0
  141.7500   78.8610  222.2840 C   0  0  0  0  0  0  0  0  0  0  0  0
  141.2300   79.8620  223.0780 C   0  0  0  0  0  0  0  0  0  0  0  0
  142.1980   81.3010  223.3500 Cl  0  0  0  0  0  0  0  0  0  0  0  0
  139.9840   79.7720  223.6600 C   0  0  0  0  0  0  0  0  0  0  0  0
  139.2320   78.6240  223.4330 C   0  0  0  0  0  0  0  0  0  0  0  0
  139.7130   77.5880  222.6420 C   0  0  0  0  0  0  0  0  0  0  0  0
  138.9620   76.4750  222.4320 N   0  0  0  0  0  0  0  0  0  0  0  0
  137.3380   74.6120  223.1620 H   0  0  0  0  0  0  0  0  0  0  0  0
  135.9210   72.9767  221.4046 H   0  0  0  0  0  0  0  0  0  0  0  0
  137.3004   71.9244  221.8106 H   0  0  0  0  0  0  0  0  0  0  0  0
  133.7766   71.4896  224.7861 H   0  0  0  0  0  0  0  0  0  0  0  0
  133.7763   70.9567  223.1040 H   0  0  0  0  0  0  0  0  0  0  0  0
  134.1836   69.3738  225.6312 H   0  0  0  0  0  0  0  0  0  0  0  0
  133.4601   68.8355  224.1291 H   0  0  0  0  0  0  0  0  0  0  0  0
  135.9244   68.0133  224.6616 H   0  0  0  0  0  0  0  0  0  0  0  0
  135.6999   68.6180  223.0543 H   0  0  0  0  0  0  0  0  0  0  0  0
  136.7157   70.2702  225.5642 H   0  0  0  0  0  0  0  0  0  0  0  0
  138.4089   69.1526  224.4711 H   0  0  0  0  0  0  0  0  0  0  0  0
  137.8353   69.7044  222.8696 H   0  0  0  0  0  0  0  0  0  0  0  0
  140.2821   70.1696  223.7136 H   0  0  0  0  0  0  0  0  0  0  0  0
  140.3897   71.9660  224.0720 H   0  0  0  0  0  0  0  0  0  0  0  0
  139.8337   68.6487  225.4577 H   0  0  0  0  0  0  0  0  0  0  0  0
  140.3942   67.9764  227.7807 H   0  0  0  0  0  0  0  0  0  0  0  0
  141.1713   69.7451  229.3574 H   0  0  0  0  0  0  0  0  0  0  0  0
  141.3694   72.0734  228.6274 H   0  0  0  0  0  0  0  0  0  0  0  0
  140.8074   72.7507  226.2935 H   0  0  0  0  0  0  0  0  0  0  0  0
  141.0553   74.7924  220.4808 H   0  0  0  0  0  0  0  0  0  0  0  0
  142.4394   76.7856  220.8337 H   0  0  0  0  0  0  0  0  0  0  0  0
  142.7464   78.9518  221.8270 H   0  0  0  0  0  0  0  0  0  0  0  0
  139.5943   80.5869  224.2878 H   0  0  0  0  0  0  0  0  0  0  0  0
  138.2352   78.5345  223.8895 H   0  0  0  0  0  0  0  0  0  0  0  0
  1  2  2  0
  2  3  1  0
  3  4  1  0
  4  5  1  0
  5  6  2  0
  5  7  1  0
  7  8  1  0
  8  9  1  0
  9 10  1  0
 10 11  1  0
 11 12  1  0
 12 13  1  0
 13 14  1  0
 14 15  1  0
 15 16  2  0
 16 17  1  0
 17 18  2  0
 18 19  1  0
 19 20  2  0
  2 21  1  0
 21 22  2  0
 22 23  1  0
 23 24  2  0
 24 25  1  0
 25 26  2  0
 26 27  1  0
 26 28  1  0
 28 29  2  0
 29 30  1  0
 30 31  2  0
 11  7  1  0
 20 15  1  0
 31 21  1  0
 30 24  1  0
  3 32  1  0
  4 33  1  0
  4 34  1  0
  8 35  1  0
  8 36  1  0
  9 37  1  0
  9 38  1  0
 10 39  1  0
 10 40  1  0
 11 41  1  1
 12 42  1  0
 12 43  1  0
 14 44  1  0
 14 45  1  0
 16 46  1  0
 17 47  1  0
 18 48  1  0
 19 49  1  0
 20 50  1  0
 22 51  1  0
 23 52  1  0
 25 53  1  0
 28 54  1  0
 29 55  1  0
M  END
>  <smiles>  (28) 
O=C(NCC(=O)N1CCC[C@H]1COCc1ccccc1)c1ccc2cc(Cl)ccc2n1

>  <score_type>  (28) 
oracle

>  <origin>  (28) 
autodockgpu

>  <m_score__min__energy>  (28) 
-9.1699999999999999

>  <m_primary>  (28) 
energy

>  <rmsd>  (28) 
8.429538946424165

>  <m_score__min__rmsd>  (28) 
8.429538946424165

>  <meeko>  (28) 
{"free_energy": -7.65, "intermolecular_energy": -10.04, "internal_energy": -2.41, "cluster_size": 16, "cluster_id": 1, "rank_in_cluster": 16}

>  <energy>  (28) 
-7.66

>  <cluster_rmsd>  (28) 
1.69

>  <cluster>  (28) 
2

$$$$

     RDKit          3D

 55 58  0  0  0  0  0  0  0  0999 V2000
  140.0050   72.2320  220.6300 O   0  0  0  0  0  0  0  0  0  0  0  0
  139.8700   72.7180  221.7780 C   0  0  0  0  0  0  0  0  0  0  0  0
  139.6590   74.0980  222.0400 N   0  0  0  0  0  0  0  0  0  0  0  0
  139.5880   75.0660  220.9250 C   0  0  0  0  0  0  0  0  0  0  0  0
  140.5190   76.1440  221.2220 C   0  0  0  0  0  0  0  0  0  0  0  0
  141.1350   76.0830  222.3490 O   0  0  0  0  0  0  0  0  0  0  0  0
  140.8390   77.2650  220.4260 N   0  0  0  0  0  0  0  0  0  0  0  0
  140.8750   78.6120  221.0660 C   0  0  0  0  0  0  0  0  0  0  0  0
  141.3610   79.5340  219.9990 C   0  0  0  0  0  0  0  0  0  0  0  0
  142.1130   78.6270  219.0790 C   0  0  0  0  0  0  0  0  0  0  0  0
  141.1490   77.4280  219.0360 C   0  0  1  0  0  0  0  0  0  0  0  0
  141.7980   76.2670  218.3590 C   0  0  0  0  0  0  0  0  0  0  0  0
  143.1730   76.4160  218.4600 O   0  0  0  0  0  0  0  0  0  0  0  0
  143.6750   76.2050  219.7230 C   0  0  0  0  0  0  0  0  0  0  0  0
  143.8710   74.7830  220.0760 C   0  0  0  0  0  0  0  0  0  0  0  0
  145.1510   74.3960  220.4530 C   0  0  0  0  0  0  0  0  0  0  0  0
  145.4650   73.1010  220.8050 C   0  0  0  0  0  0  0  0  0  0  0  0
  144.4400   72.1800  220.7700 C   0  0  0  0  0  0  0  0  0  0  0  0
  143.1700   72.5450  220.4000 C   0  0  0  0  0  0  0  0  0  0  0  0
  142.8570   73.8520  220.0450 C   0  0  0  0  0  0  0  0  0  0  0  0
  139.9350   71.8050  222.9180 C   0  0  0  0  0  0  0  0  0  0  0  0
  139.4910   70.5010  222.8360 C   0  0  0  0  0  0  0  0  0  0  0  0
  139.5350   69.6140  223.8850 C   0  0  0  0  0  0  0  0  0  0  0  0
  140.0470   70.0340  225.0930 C   0  0  0  0  0  0  0  0  0  0  0  0
  140.0950   69.1510  226.1510 C   0  0  0  0  0  0  0  0  0  0  0  0
  140.6160   69.6160  227.3400 C   0  0  0  0  0  0  0  0  0  0  0  0
  140.6920   68.5180  228.7070 Cl  0  0  0  0  0  0  0  0  0  0  0  0
  141.0770   70.9070  227.4890 C   0  0  0  0  0  0  0  0  0  0  0  0
  141.0090   71.7620  226.3940 C   0  0  0  0  0  0  0  0  0  0  0  0
  140.4910   71.3390  225.1770 C   0  0  0  0  0  0  0  0  0  0  0  0
  140.4340   72.1910  224.1190 N   0  0  0  0  0  0  0  0  0  0  0  0
  139.5490   74.4620  223.0290 H   0  0  0  0  0  0  0  0  0  0  0  0
  139.8707   74.5746  219.9824 H   0  0  0  0  0  0  0  0  0  0  0  0
  138.5655   75.4563  220.8152 H   0  0  0  0  0  0  0  0  0  0  0  0
  139.8703   78.9066  221.4033 H   0  0  0  0  0  0  0  0  0  0  0  0
  141.5236   78.6300  221.9543 H   0  0  0  0  0  0  0  0  0  0  0  0
  140.5188   80.0135  219.4786 H   0  0  0  0  0  0  0  0  0  0  0  0
  141.9758   80.3585  220.3890 H   0  0  0  0  0  0  0  0  0  0  0  0
  142.2494   79.0766  218.0844 H   0  0  0  0  0  0  0  0  0  0  0  0
  143.1368   78.3862  219.4014 H   0  0  0  0  0  0  0  0  0  0  0  0
  140.2299   77.5505  218.4442 H   0  0  0  0  0  0  0  0  0  0  0  0
  141.4886   75.3312  218.8475 H   0  0  0  0  0  0  0  0  0  0  0  0
  141.4979   76.2292  217.3014 H   0  0  0  0  0  0  0  0  0  0  0  0
  144.6475   76.7140  219.7955 H   0  0  0  0  0  0  0  0  0  0  0  0
  142.9280   76.6015  220.4264 H   0  0  0  0  0  0  0  0  0  0  0  0
  145.9471   75.1549  220.4713 H   0  0  0  0  0  0  0  0  0  0  0  0
  146.4856   72.8158  221.1000 H   0  0  0  0  0  0  0  0  0  0  0  0
  144.6437   71.1342  221.0435 H   0  0  0  0  0  0  0  0  0  0  0  0
  142.3777   71.7821  220.3839 H   0  0  0  0  0  0  0  0  0  0  0  0
  141.8352   74.1326  219.7497 H   0  0  0  0  0  0  0  0  0  0  0  0
  139.0789   70.1520  221.8777 H   0  0  0  0  0  0  0  0  0  0  0  0
  139.1671   68.5847  223.7619 H   0  0  0  0  0  0  0  0  0  0  0  0
  139.7323   68.1174  226.0506 H   0  0  0  0  0  0  0  0  0  0  0  0
  141.4880   71.2519  228.4493 H   0  0  0  0  0  0  0  0  0  0  0  0
  141.3733   72.7951  226.4942 H   0  0  0  0  0  0  0  0  0  0  0  0
  1  2  2  0
  2  3  1  0
  3  4  1  0
  4  5  1  0
  5  6  2  0
  5  7  1  0
  7  8  1  0
  8  9  1  0
  9 10  1  0
 10 11  1  0
 11 12  1  0
 12 13  1  0
 13 14  1  0
 14 15  1  0
 15 16  2  0
 16 17  1  0
 17 18  2  0
 18 19  1  0
 19 20  2  0
  2 21  1  0
 21 22  2  0
 22 23  1  0
 23 24  2  0
 24 25  1  0
 25 26  2  0
 26 27  1  0
 26 28  1  0
 28 29  2  0
 29 30  1  0
 30 31  2  0
 11  7  1  0
 20 15  1  0
 31 21  1  0
 30 24  1  0
  3 32  1  0
  4 33  1  0
  4 34  1  0
  8 35  1  0
  8 36  1  0
  9 37  1  0
  9 38  1  0
 10 39  1  0
 10 40  1  0
 11 41  1  6
 12 42  1  0
 12 43  1  0
 14 44  1  0
 14 45  1  0
 16 46  1  0
 17 47  1  0
 18 48  1  0
 19 49  1  0
 20 50  1  0
 22 51  1  0
 23 52  1  0
 25 53  1  0
 28 54  1  0
 29 55  1  0
M  END
>  <smiles>  (29) 
O=C(NCC(=O)N1CCC[C@H]1COCc1ccccc1)c1ccc2cc(Cl)ccc2n1

>  <score_type>  (29) 
oracle

>  <origin>  (29) 
autodockgpu

>  <m_score__min__energy>  (29) 
-9.1699999999999999

>  <m_primary>  (29) 
energy

>  <rmsd>  (29) 
2.4521470468261044

>  <m_score__min__rmsd>  (29) 
2.4521470468261044

>  <meeko>  (29) 
{"free_energy": -8.13, "intermolecular_energy": -10.52, "internal_energy": -2.56, "cluster_size": 14, "cluster_id": 3, "rank_in_cluster": 2}

>  <energy>  (29) 
-8.23

>  <cluster_rmsd>  (29) 
0.0

>  <cluster>  (29) 
3

$$$$

     RDKit          3D

 55 58  0  0  0  0  0  0  0  0999 V2000
  139.9110   72.3560  220.6680 O   0  0  0  0  0  0  0  0  0  0  0  0
  139.7980   72.8160  221.8280 C   0  0  0  0  0  0  0  0  0  0  0  0
  139.5930   74.1890  222.1250 N   0  0  0  0  0  0  0  0  0  0  0  0
  139.4990   75.1820  221.0330 C   0  0  0  0  0  0  0  0  0  0  0  0
  140.1640   76.3940  221.4850 C   0  0  0  0  0  0  0  0  0  0  0  0
  140.6080   76.3940  222.6910 O   0  0  0  0  0  0  0  0  0  0  0  0
  140.3880   77.5870  220.7640 N   0  0  0  0  0  0  0  0  0  0  0  0
  139.5490   78.7810  221.0760 C   0  0  0  0  0  0  0  0  0  0  0  0
  140.1200   79.8810  220.2460 C   0  0  0  0  0  0  0  0  0  0  0  0
  141.5280   79.4370  220.0110 C   0  0  0  0  0  0  0  0  0  0  0  0
  141.2940   77.9460  219.7140 C   0  0  1  0  0  0  0  0  0  0  0  0
  142.5950   77.2160  219.6800 C   0  0  0  0  0  0  0  0  0  0  0  0
  142.5070   76.2110  218.7280 O   0  0  0  0  0  0  0  0  0  0  0  0
  142.1710   74.9770  219.2360 C   0  0  0  0  0  0  0  0  0  0  0  0
  143.2860   74.2550  219.8850 C   0  0  0  0  0  0  0  0  0  0  0  0
  143.0750   72.9190  220.2000 C   0  0  0  0  0  0  0  0  0  0  0  0
  144.0340   72.1360  220.8070 C   0  0  0  0  0  0  0  0  0  0  0  0
  145.2390   72.7390  221.0970 C   0  0  0  0  0  0  0  0  0  0  0  0
  145.4640   74.0590  220.7920 C   0  0  0  0  0  0  0  0  0  0  0  0
  144.4950   74.8450  220.1810 C   0  0  0  0  0  0  0  0  0  0  0  0
  139.8860   71.8780  222.9460 C   0  0  0  0  0  0  0  0  0  0  0  0
  139.4610   70.5700  222.8390 C   0  0  0  0  0  0  0  0  0  0  0  0
  139.5270   69.6600  223.8670 C   0  0  0  0  0  0  0  0  0  0  0  0
  140.0440   70.0600  225.0800 C   0  0  0  0  0  0  0  0  0  0  0  0
  140.1140   69.1540  226.1170 C   0  0  0  0  0  0  0  0  0  0  0  0
  140.6380   69.6000  227.3120 C   0  0  0  0  0  0  0  0  0  0  0  0
  140.7420   68.4730  228.6530 Cl  0  0  0  0  0  0  0  0  0  0  0  0
  141.0820   70.8940  227.4870 C   0  0  0  0  0  0  0  0  0  0  0  0
  140.9910   71.7730  226.4120 C   0  0  0  0  0  0  0  0  0  0  0  0
  140.4690   71.3700  225.1900 C   0  0  0  0  0  0  0  0  0  0  0  0
  140.3900   72.2450  224.1520 N   0  0  0  0  0  0  0  0  0  0  0  0
  139.5010   74.5320  223.1230 H   0  0  0  0  0  0  0  0  0  0  0  0
  139.9952   74.7957  220.1305 H   0  0  0  0  0  0  0  0  0  0  0  0
  138.4470   75.3869  220.7855 H   0  0  0  0  0  0  0  0  0  0  0  0
  138.4989   78.5972  220.8050 H   0  0  0  0  0  0  0  0  0  0  0  0
  139.5592   79.0245  222.1487 H   0  0  0  0  0  0  0  0  0  0  0  0
  139.5746   79.9820  219.2961 H   0  0  0  0  0  0  0  0  0  0  0  0
  140.0539   80.8660  220.7312 H   0  0  0  0  0  0  0  0  0  0  0  0
  141.9822   79.9571  219.1547 H   0  0  0  0  0  0  0  0  0  0  0  0
  142.2216   79.6402  220.8403 H   0  0  0  0  0  0  0  0  0  0  0  0
  140.8679   77.6963  218.7311 H   0  0  0  0  0  0  0  0  0  0  0  0
  143.4045   77.9112  219.4128 H   0  0  0  0  0  0  0  0  0  0  0  0
  142.8123   76.7836  220.6678 H   0  0  0  0  0  0  0  0  0  0  0  0
  141.3737   75.1179  219.9806 H   0  0  0  0  0  0  0  0  0  0  0  0
  141.8574   74.3619  218.3797 H   0  0  0  0  0  0  0  0  0  0  0  0
  142.1026   72.4667  219.9551 H   0  0  0  0  0  0  0  0  0  0  0  0
  143.8461   71.0794  221.0485 H   0  0  0  0  0  0  0  0  0  0  0  0
  146.0341   72.1529  221.5810 H   0  0  0  0  0  0  0  0  0  0  0  0
  146.4383   74.5063  221.0383 H   0  0  0  0  0  0  0  0  0  0  0  0
  144.6865   75.9015  219.9420 H   0  0  0  0  0  0  0  0  0  0  0  0
  139.0458   70.2364  221.8766 H   0  0  0  0  0  0  0  0  0  0  0  0
  139.1726   68.6286  223.7236 H   0  0  0  0  0  0  0  0  0  0  0  0
  139.7660   68.1175  225.9960 H   0  0  0  0  0  0  0  0  0  0  0  0
  141.4972   71.2226  228.4511 H   0  0  0  0  0  0  0  0  0  0  0  0
  141.3400   72.8091  226.5329 H   0  0  0  0  0  0  0  0  0  0  0  0
  1  2  2  0
  2  3  1  0
  3  4  1  0
  4  5  1  0
  5  6  2  0
  5  7  1  0
  7  8  1  0
  8  9  1  0
  9 10  1  0
 10 11  1  0
 11 12  1  0
 12 13  1  0
 13 14  1  0
 14 15  1  0
 15 16  2  0
 16 17  1  0
 17 18  2  0
 18 19  1  0
 19 20  2  0
  2 21  1  0
 21 22  2  0
 22 23  1  0
 23 24  2  0
 24 25  1  0
 25 26  2  0
 26 27  1  0
 26 28  1  0
 28 29  2  0
 29 30  1  0
 30 31  2  0
 11  7  1  0
 20 15  1  0
 31 21  1  0
 30 24  1  0
  3 32  1  0
  4 33  1  0
  4 34  1  0
  8 35  1  0
  8 36  1  0
  9 37  1  0
  9 38  1  0
 10 39  1  0
 10 40  1  0
 11 41  1  6
 12 42  1  0
 12 43  1  0
 14 44  1  0
 14 45  1  0
 16 46  1  0
 17 47  1  0
 18 48  1  0
 19 49  1  0
 20 50  1  0
 22 51  1  0
 23 52  1  0
 25 53  1  0
 28 54  1  0
 29 55  1  0
M  END
>  <smiles>  (30) 
O=C(NCC(=O)N1CCC[C@H]1COCc1ccccc1)c1ccc2cc(Cl)ccc2n1

>  <score_type>  (30) 
oracle

>  <origin>  (30) 
autodockgpu

>  <m_score__min__energy>  (30) 
-9.1699999999999999

>  <m_primary>  (30) 
energy

>  <rmsd>  (30) 
2.4798076733348635

>  <m_score__min__rmsd>  (30) 
2.4798076733348635

>  <meeko>  (30) 
{"free_energy": -7.92, "intermolecular_energy": -10.31, "internal_energy": -2.69, "cluster_size": 14, "cluster_id": 3, "rank_in_cluster": 6}

>  <energy>  (30) 
-8.13

>  <cluster_rmsd>  (30) 
0.93

>  <cluster>  (30) 
3

$$$$

     RDKit          3D

 55 58  0  0  0  0  0  0  0  0999 V2000
  135.0190   68.5260  225.0510 O   0  0  0  0  0  0  0  0  0  0  0  0
  135.5180   69.6760  225.0360 C   0  0  0  0  0  0  0  0  0  0  0  0
  136.8060   69.9800  224.5230 N   0  0  0  0  0  0  0  0  0  0  0  0
  137.6560   68.9090  223.9610 C   0  0  0  0  0  0  0  0  0  0  0  0
  138.7660   68.7030  224.8780 C   0  0  0  0  0  0  0  0  0  0  0  0
  139.2060   67.5010  224.9950 O   0  0  0  0  0  0  0  0  0  0  0  0
  139.4330   69.6630  225.6700 N   0  0  0  0  0  0  0  0  0  0  0  0
  139.8430   69.2900  227.0550 C   0  0  0  0  0  0  0  0  0  0  0  0
  140.6200   70.4610  227.5570 C   0  0  0  0  0  0  0  0  0  0  0  0
  141.1020   71.1150  226.3010 C   0  0  0  0  0  0  0  0  0  0  0  0
  139.8280   71.0220  225.4430 C   0  0  1  0  0  0  0  0  0  0  0  0
  140.1280   71.4000  224.0310 C   0  0  0  0  0  0  0  0  0  0  0  0
  138.9810   71.2120  223.2760 O   0  0  0  0  0  0  0  0  0  0  0  0
  138.6350   72.2880  222.4910 C   0  0  0  0  0  0  0  0  0  0  0  0
  139.7820   72.9990  221.8850 C   0  0  0  0  0  0  0  0  0  0  0  0
  140.7130   72.2290  221.2010 C   0  0  0  0  0  0  0  0  0  0  0  0
  141.8260   72.7710  220.5930 C   0  0  0  0  0  0  0  0  0  0  0  0
  141.9850   74.1360  220.6890 C   0  0  0  0  0  0  0  0  0  0  0  0
  141.0740   74.9120  221.3610 C   0  0  0  0  0  0  0  0  0  0  0  0
  139.9540   74.3630  221.9730 C   0  0  0  0  0  0  0  0  0  0  0  0
  134.7210   70.7730  225.5820 C   0  0  0  0  0  0  0  0  0  0  0  0
  133.6410   70.5500  226.4120 C   0  0  0  0  0  0  0  0  0  0  0  0
  132.8680   71.5550  226.9450 C   0  0  0  0  0  0  0  0  0  0  0  0
  133.1750   72.8640  226.6440 C   0  0  0  0  0  0  0  0  0  0  0  0
  132.4060   73.8770  227.1730 C   0  0  0  0  0  0  0  0  0  0  0  0
  132.7520   75.1710  226.8440 C   0  0  0  0  0  0  0  0  0  0  0  0
  131.7930   76.4870  227.5010 Cl  0  0  0  0  0  0  0  0  0  0  0  0
  133.8190   75.4640  226.0210 C   0  0  0  0  0  0  0  0  0  0  0  0
  134.5660   74.4080  225.5100 C   0  0  0  0  0  0  0  0  0  0  0  0
  134.2560   73.0890  225.8130 C   0  0  0  0  0  0  0  0  0  0  0  0
  135.0000   72.0720  225.3030 N   0  0  0  0  0  0  0  0  0  0  0  0
  137.1860   70.9690  224.5300 H   0  0  0  0  0  0  0  0  0  0  0  0
  137.0738   67.9809  223.8620 H   0  0  0  0  0  0  0  0  0  0  0  0
  138.0253   69.1914  222.9641 H   0  0  0  0  0  0  0  0  0  0  0  0
  138.9591   69.1137  227.6855 H   0  0  0  0  0  0  0  0  0  0  0  0
  140.4345   68.3628  227.0750 H   0  0  0  0  0  0  0  0  0  0  0  0
  139.9779   71.1420  228.1350 H   0  0  0  0  0  0  0  0  0  0  0  0
  141.4370   70.1773  228.2367 H   0  0  0  0  0  0  0  0  0  0  0  0
  141.4020   72.1591  226.4740 H   0  0  0  0  0  0  0  0  0  0  0  0
  141.9956   70.6552  225.8536 H   0  0  0  0  0  0  0  0  0  0  0  0
  139.0087   71.7119  225.6935 H   0  0  0  0  0  0  0  0  0  0  0  0
  140.4340   72.4556  223.9857 H   0  0  0  0  0  0  0  0  0  0  0  0
  140.9459   70.7780  223.6383 H   0  0  0  0  0  0  0  0  0  0  0  0
  137.9868   71.9266  221.6790 H   0  0  0  0  0  0  0  0  0  0  0  0
  138.1336   73.0097  223.1526 H   0  0  0  0  0  0  0  0  0  0  0  0
  140.5565   71.1418  221.1415 H   0  0  0  0  0  0  0  0  0  0  0  0
  142.5525   72.1429  220.0567 H   0  0  0  0  0  0  0  0  0  0  0  0
  142.8577   74.6125  220.2186 H   0  0  0  0  0  0  0  0  0  0  0  0
  141.2351   75.9987  221.4166 H   0  0  0  0  0  0  0  0  0  0  0  0
  139.2304   74.9950  222.5087 H   0  0  0  0  0  0  0  0  0  0  0  0
  133.3840   69.5099  226.6613 H   0  0  0  0  0  0  0  0  0  0  0  0
  132.0179   71.3174  227.6014 H   0  0  0  0  0  0  0  0  0  0  0  0
  131.5509   73.6627  227.8310 H   0  0  0  0  0  0  0  0  0  0  0  0
  134.0727   76.5057  225.7751 H   0  0  0  0  0  0  0  0  0  0  0  0
  135.4207   74.6224  224.8516 H   0  0  0  0  0  0  0  0  0  0  0  0
  1  2  2  0
  2  3  1  0
  3  4  1  0
  4  5  1  0
  5  6  2  0
  5  7  1  0
  7  8  1  0
  8  9  1  0
  9 10  1  0
 10 11  1  0
 11 12  1  0
 12 13  1  0
 13 14  1  0
 14 15  1  0
 15 16  2  0
 16 17  1  0
 17 18  2  0
 18 19  1  0
 19 20  2  0
  2 21  1  0
 21 22  2  0
 22 23  1  0
 23 24  2  0
 24 25  1  0
 25 26  2  0
 26 27  1  0
 26 28  1  0
 28 29  2  0
 29 30  1  0
 30 31  2  0
 11  7  1  0
 20 15  1  0
 31 21  1  0
 30 24  1  0
  3 32  1  0
  4 33  1  0
  4 34  1  0
  8 35  1  0
  8 36  1  0
  9 37  1  0
  9 38  1  0
 10 39  1  0
 10 40  1  0
 11 41  1  1
 12 42  1  0
 12 43  1  0
 14 44  1  0
 14 45  1  0
 16 46  1  0
 17 47  1  0
 18 48  1  0
 19 49  1  0
 20 50  1  0
 22 51  1  0
 23 52  1  0
 25 53  1  0
 28 54  1  0
 29 55  1  0
M  END
>  <smiles>  (31) 
O=C(NCC(=O)N1CCC[C@H]1COCc1ccccc1)c1ccc2cc(Cl)ccc2n1

>  <score_type>  (31) 
oracle

>  <origin>  (31) 
autodockgpu

>  <m_score__min__energy>  (31) 
-9.1699999999999999

>  <m_primary>  (31) 
energy

>  <rmsd>  (31) 
8.119847642302728

>  <m_score__min__rmsd>  (31) 
8.119847642302728

>  <meeko>  (31) 
{"free_energy": -7.68, "intermolecular_energy": -10.06, "internal_energy": -2.41, "cluster_size": 3, "cluster_id": 5, "rank_in_cluster": 2}

>  <energy>  (31) 
-7.95

>  <cluster_rmsd>  (31) 
0.77

>  <cluster>  (31) 
3

$$$$

     RDKit          3D

 55 58  0  0  0  0  0  0  0  0999 V2000
  141.1090   72.6490  221.2480 O   0  0  0  0  0  0  0  0  0  0  0  0
  140.3330   73.5220  221.7020 C   0  0  0  0  0  0  0  0  0  0  0  0
  139.1090   73.2370  222.3610 N   0  0  0  0  0  0  0  0  0  0  0  0
  138.6730   71.8360  222.5500 C   0  0  0  0  0  0  0  0  0  0  0  0
  137.3360   71.8670  223.1220 C   0  0  0  0  0  0  0  0  0  0  0  0
  136.5980   72.8740  222.8140 O   0  0  0  0  0  0  0  0  0  0  0  0
  136.7340   70.9260  223.9850 N   0  0  0  0  0  0  0  0  0  0  0  0
  135.3890   71.2330  224.5540 C   0  0  0  0  0  0  0  0  0  0  0  0
  134.9960   70.0030  225.3000 C   0  0  0  0  0  0  0  0  0  0  0  0
  135.7980   68.9290  224.6370 C   0  0  0  0  0  0  0  0  0  0  0  0
  137.1480   69.6520  224.4930 C   0  0  1  0  0  0  0  0  0  0  0  0
  138.0690   68.8580  223.6270 C   0  0  0  0  0  0  0  0  0  0  0  0
  139.3010   68.7780  224.2580 O   0  0  0  0  0  0  0  0  0  0  0  0
  139.2310   68.6960  225.6290 C   0  0  0  0  0  0  0  0  0  0  0  0
  139.8650   69.8250  226.3450 C   0  0  0  0  0  0  0  0  0  0  0  0
  140.5290   70.7700  225.5710 C   0  0  0  0  0  0  0  0  0  0  0  0
  141.1610   71.8670  226.1160 C   0  0  0  0  0  0  0  0  0  0  0  0
  141.1100   71.9990  227.4870 C   0  0  0  0  0  0  0  0  0  0  0  0
  140.4590   71.0740  228.2660 C   0  0  0  0  0  0  0  0  0  0  0  0
  139.8230   69.9690  227.7130 C   0  0  0  0  0  0  0  0  0  0  0  0
  140.7140   74.9250  221.5400 C   0  0  0  0  0  0  0  0  0  0  0  0
  141.6110   75.3330  220.5730 C   0  0  0  0  0  0  0  0  0  0  0  0
  141.9930   76.6400  220.3910 C   0  0  0  0  0  0  0  0  0  0  0  0
  141.4610   77.6110  221.2110 C   0  0  0  0  0  0  0  0  0  0  0  0
  141.8390   78.9250  221.0350 C   0  0  0  0  0  0  0  0  0  0  0  0
  141.2810   79.8620  221.8790 C   0  0  0  0  0  0  0  0  0  0  0  0
  141.7400   81.5450  221.6830 Cl  0  0  0  0  0  0  0  0  0  0  0  0
  140.3790   79.5230  222.8660 C   0  0  0  0  0  0  0  0  0  0  0  0
  140.0270   78.1840  223.0060 C   0  0  0  0  0  0  0  0  0  0  0  0
  140.5640   77.2050  222.1800 C   0  0  0  0  0  0  0  0  0  0  0  0
  140.2060   75.9020  222.3330 N   0  0  0  0  0  0  0  0  0  0  0  0
  138.4850   74.0090  222.7300 H   0  0  0  0  0  0  0  0  0  0  0  0
  138.6551   71.3144  221.5817 H   0  0  0  0  0  0  0  0  0  0  0  0
  139.3665   71.3011  223.2155 H   0  0  0  0  0  0  0  0  0  0  0  0
  135.4445   72.0962  225.2335 H   0  0  0  0  0  0  0  0  0  0  0  0
  134.6595   71.4935  223.7730 H   0  0  0  0  0  0  0  0  0  0  0  0
  135.2558   70.0882  226.3655 H   0  0  0  0  0  0  0  0  0  0  0  0
  133.9133   69.8106  225.2739 H   0  0  0  0  0  0  0  0  0  0  0  0
  135.8807   68.0325  225.2690 H   0  0  0  0  0  0  0  0  0  0  0  0
  135.3739   68.5490  223.6959 H   0  0  0  0  0  0  0  0  0  0  0  0
  137.7461   69.7746  225.4080 H   0  0  0  0  0  0  0  0  0  0  0  0
  137.6609   67.8473  223.4789 H   0  0  0  0  0  0  0  0  0  0  0  0
  138.1773   69.3426  222.6455 H   0  0  0  0  0  0  0  0  0  0  0  0
  138.1701   68.6590  225.9171 H   0  0  0  0  0  0  0  0  0  0  0  0
  139.7871   67.7916  225.9168 H   0  0  0  0  0  0  0  0  0  0  0  0
  140.5509   70.6368  224.4793 H   0  0  0  0  0  0  0  0  0  0  0  0
  141.6819   72.6030  225.4860 H   0  0  0  0  0  0  0  0  0  0  0  0
  141.5992   72.8602  227.9656 H   0  0  0  0  0  0  0  0  0  0  0  0
  140.4405   71.2115  229.3572 H   0  0  0  0  0  0  0  0  0  0  0  0
  139.3040   69.2349  228.3468 H   0  0  0  0  0  0  0  0  0  0  0  0
  142.0441   74.5686  219.9111 H   0  0  0  0  0  0  0  0  0  0  0  0
  142.7124   76.9071  219.6029 H   0  0  0  0  0  0  0  0  0  0  0  0
  142.5566   79.2143  220.2531 H   0  0  0  0  0  0  0  0  0  0  0  0
  139.9490   80.2913  223.5254 H   0  0  0  0  0  0  0  0  0  0  0  0
  139.3085   77.8949  223.7871 H   0  0  0  0  0  0  0  0  0  0  0  0
  1  2  2  0
  2  3  1  0
  3  4  1  0
  4  5  1  0
  5  6  2  0
  5  7  1  0
  7  8  1  0
  8  9  1  0
  9 10  1  0
 10 11  1  0
 11 12  1  0
 12 13  1  0
 13 14  1  0
 14 15  1  0
 15 16  2  0
 16 17  1  0
 17 18  2  0
 18 19  1  0
 19 20  2  0
  2 21  1  0
 21 22  2  0
 22 23  1  0
 23 24  2  0
 24 25  1  0
 25 26  2  0
 26 27  1  0
 26 28  1  0
 28 29  2  0
 29 30  1  0
 30 31  2  0
 11  7  1  0
 20 15  1  0
 31 21  1  0
 30 24  1  0
  3 32  1  0
  4 33  1  0
  4 34  1  0
  8 35  1  0
  8 36  1  0
  9 37  1  0
  9 38  1  0
 10 39  1  0
 10 40  1  0
 11 41  1  1
 12 42  1  0
 12 43  1  0
 14 44  1  0
 14 45  1  0
 16 46  1  0
 17 47  1  0
 18 48  1  0
 19 49  1  0
 20 50  1  0
 22 51  1  0
 23 52  1  0
 25 53  1  0
 28 54  1  0
 29 55  1  0
M  END
>  <smiles>  (32) 
O=C(NCC(=O)N1CCC[C@H]1COCc1ccccc1)c1ccc2cc(Cl)ccc2n1

>  <score_type>  (32) 
oracle

>  <origin>  (32) 
autodockgpu

>  <m_score__min__energy>  (32) 
-9.1699999999999999

>  <m_primary>  (32) 
energy

>  <rmsd>  (32) 
8.506458027887202

>  <m_score__min__rmsd>  (32) 
8.506458027887202

>  <meeko>  (32) 
{"free_energy": -8.09, "intermolecular_energy": -10.48, "internal_energy": -2.59, "cluster_size": 16, "cluster_id": 1, "rank_in_cluster": 9}

>  <energy>  (32) 
-7.95

>  <cluster_rmsd>  (32) 
0.71

>  <cluster>  (32) 
3

$$$$

     RDKit          3D

 55 58  0  0  0  0  0  0  0  0999 V2000
  138.4590   73.7130  220.5960 O   0  0  0  0  0  0  0  0  0  0  0  0
  139.4120   74.0810  221.3210 C   0  0  0  0  0  0  0  0  0  0  0  0
  140.1960   73.2030  222.1160 N   0  0  0  0  0  0  0  0  0  0  0  0
  139.9110   71.7520  222.1250 C   0  0  0  0  0  0  0  0  0  0  0  0
  139.5770   71.3810  223.4910 C   0  0  0  0  0  0  0  0  0  0  0  0
  140.4660   71.6170  224.3890 O   0  0  0  0  0  0  0  0  0  0  0  0
  138.3890   70.7860  223.9680 N   0  0  0  0  0  0  0  0  0  0  0  0
  137.0900   71.4770  223.7200 C   0  0  0  0  0  0  0  0  0  0  0  0
  136.0480   70.5380  224.2270 C   0  0  0  0  0  0  0  0  0  0  0  0
  136.7270   69.2070  224.1610 C   0  0  0  0  0  0  0  0  0  0  0  0
  138.1160   69.5860  224.7030 C   0  0  1  0  0  0  0  0  0  0  0  0
  139.0710   68.4560  224.5090 C   0  0  0  0  0  0  0  0  0  0  0  0
  139.2010   67.7820  225.7140 O   0  0  0  0  0  0  0  0  0  0  0  0
  140.3840   68.0230  226.3740 C   0  0  0  0  0  0  0  0  0  0  0  0
  140.4730   69.3560  227.0090 C   0  0  0  0  0  0  0  0  0  0  0  0
  139.5700   69.6310  228.0280 C   0  0  0  0  0  0  0  0  0  0  0  0
  139.5490   70.8350  228.6980 C   0  0  0  0  0  0  0  0  0  0  0  0
  140.4770   71.7790  228.3150 C   0  0  0  0  0  0  0  0  0  0  0  0
  141.3770   71.5230  227.3110 C   0  0  0  0  0  0  0  0  0  0  0  0
  141.3950   70.3080  226.6360 C   0  0  0  0  0  0  0  0  0  0  0  0
  139.7360   75.5060  221.3520 C   0  0  0  0  0  0  0  0  0  0  0  0
  139.3290   76.3710  220.3560 C   0  0  0  0  0  0  0  0  0  0  0  0
  139.6140   77.7150  220.3500 C   0  0  0  0  0  0  0  0  0  0  0  0
  140.3470   78.2470  221.3880 C   0  0  0  0  0  0  0  0  0  0  0  0
  140.6380   79.5940  221.3900 C   0  0  0  0  0  0  0  0  0  0  0  0
  141.3740   80.0810  222.4490 C   0  0  0  0  0  0  0  0  0  0  0  0
  141.7620   81.7920  222.4830 Cl  0  0  0  0  0  0  0  0  0  0  0  0
  141.8130   79.2730  223.4770 C   0  0  0  0  0  0  0  0  0  0  0  0
  141.4950   77.9190  223.4320 C   0  0  0  0  0  0  0  0  0  0  0  0
  140.7560   77.3830  222.3860 C   0  0  0  0  0  0  0  0  0  0  0  0
  140.4570   76.0570  222.3620 N   0  0  0  0  0  0  0  0  0  0  0  0
  140.9940   73.5610  222.7140 H   0  0  0  0  0  0  0  0  0  0  0  0
  139.0645   71.5313  221.4581 H   0  0  0  0  0  0  0  0  0  0  0  0
  140.7837   71.1834  221.7713 H   0  0  0  0  0  0  0  0  0  0  0  0
  137.0493   72.4308  224.2665 H   0  0  0  0  0  0  0  0  0  0  0  0
  136.9468   71.7163  222.6559 H   0  0  0  0  0  0  0  0  0  0  0  0
  135.7635   70.7850  225.2605 H   0  0  0  0  0  0  0  0  0  0  0  0
  135.1142   70.5754  223.6468 H   0  0  0  0  0  0  0  0  0  0  0  0
  136.2290   68.4629  224.8000 H   0  0  0  0  0  0  0  0  0  0  0  0
  136.7310   68.7387  223.1657 H   0  0  0  0  0  0  0  0  0  0  0  0
  138.1947   69.7671  225.7851 H   0  0  0  0  0  0  0  0  0  0  0  0
  138.6849   67.7710  223.7398 H   0  0  0  0  0  0  0  0  0  0  0  0
  140.0490   68.8391  224.1824 H   0  0  0  0  0  0  0  0  0  0  0  0
  140.5011   67.2606  227.1582 H   0  0  0  0  0  0  0  0  0  0  0  0
  141.1787   67.9853  225.6144 H   0  0  0  0  0  0  0  0  0  0  0  0
  138.8423   68.8564  228.3116 H   0  0  0  0  0  0  0  0  0  0  0  0
  138.8247   71.0335  229.5017 H   0  0  0  0  0  0  0  0  0  0  0  0
  140.4968   72.7546  228.8228 H   0  0  0  0  0  0  0  0  0  0  0  0
  142.1038   72.3004  227.0329 H   0  0  0  0  0  0  0  0  0  0  0  0
  142.1204   70.1140  225.8321 H   0  0  0  0  0  0  0  0  0  0  0  0
  138.7434   75.9610  219.5199 H   0  0  0  0  0  0  0  0  0  0  0  0
  139.2622   78.3566  219.5287 H   0  0  0  0  0  0  0  0  0  0  0  0
  140.2967   80.2542  220.5790 H   0  0  0  0  0  0  0  0  0  0  0  0
  142.3990   79.6879  224.3104 H   0  0  0  0  0  0  0  0  0  0  0  0
  141.8366   77.2589  224.2429 H   0  0  0  0  0  0  0  0  0  0  0  0
  1  2  2  0
  2  3  1  0
  3  4  1  0
  4  5  1  0
  5  6  2  0
  5  7  1  0
  7  8  1  0
  8  9  1  0
  9 10  1  0
 10 11  1  0
 11 12  1  0
 12 13  1  0
 13 14  1  0
 14 15  1  0
 15 16  2  0
 16 17  1  0
 17 18  2  0
 18 19  1  0
 19 20  2  0
  2 21  1  0
 21 22  2  0
 22 23  1  0
 23 24  2  0
 24 25  1  0
 25 26  2  0
 26 27  1  0
 26 28  1  0
 28 29  2  0
 29 30  1  0
 30 31  2  0
 11  7  1  0
 20 15  1  0
 31 21  1  0
 30 24  1  0
  3 32  1  0
  4 33  1  0
  4 34  1  0
  8 35  1  0
  8 36  1  0
  9 37  1  0
  9 38  1  0
 10 39  1  0
 10 40  1  0
 11 41  1  1
 12 42  1  0
 12 43  1  0
 14 44  1  0
 14 45  1  0
 16 46  1  0
 17 47  1  0
 18 48  1  0
 19 49  1  0
 20 50  1  0
 22 51  1  0
 23 52  1  0
 25 53  1  0
 28 54  1  0
 29 55  1  0
M  END
>  <smiles>  (33) 
O=C(NCC(=O)N1CCC[C@H]1COCc1ccccc1)c1ccc2cc(Cl)ccc2n1

>  <score_type>  (33) 
oracle

>  <origin>  (33) 
autodockgpu

>  <m_score__min__energy>  (33) 
-9.1699999999999999

>  <m_primary>  (33) 
energy

>  <rmsd>  (33) 
8.258128562139783

>  <m_score__min__rmsd>  (33) 
8.258128562139783

>  <meeko>  (33) 
{"free_energy": -8.34, "intermolecular_energy": -10.73, "internal_energy": -2.21, "cluster_size": 16, "cluster_id": 1, "rank_in_cluster": 7}

>  <energy>  (33) 
-7.94

>  <cluster_rmsd>  (33) 
0.81

>  <cluster>  (33) 
3

$$$$

     RDKit          3D

 55 58  0  0  0  0  0  0  0  0999 V2000
  137.3500   77.5480  221.8860 O   0  0  0  0  0  0  0  0  0  0  0  0
  137.3750   76.4280  222.4470 C   0  0  0  0  0  0  0  0  0  0  0  0
  138.3880   75.4540  222.2380 N   0  0  0  0  0  0  0  0  0  0  0  0
  139.5050   75.7280  221.3090 C   0  0  0  0  0  0  0  0  0  0  0  0
  140.4790   74.6600  221.4690 C   0  0  0  0  0  0  0  0  0  0  0  0
  140.1670   73.7080  222.2740 O   0  0  0  0  0  0  0  0  0  0  0  0
  141.7400   74.5290  220.8490 N   0  0  0  0  0  0  0  0  0  0  0  0
  142.4450   73.2150  220.9270 C   0  0  0  0  0  0  0  0  0  0  0  0
  143.6610   73.3780  220.0780 C   0  0  0  0  0  0  0  0  0  0  0  0
  143.2780   74.4770  219.1390 C   0  0  0  0  0  0  0  0  0  0  0  0
  142.5750   75.4350  220.1170 C   0  0  1  0  0  0  0  0  0  0  0  0
  141.8790   76.5200  219.3660 C   0  0  0  0  0  0  0  0  0  0  0  0
  142.3140   77.7410  219.8590 O   0  0  0  0  0  0  0  0  0  0  0  0
  141.3210   78.5150  220.4140 C   0  0  0  0  0  0  0  0  0  0  0  0
  141.6830   79.1480  221.7010 C   0  0  0  0  0  0  0  0  0  0  0  0
  141.4590   78.4080  222.8550 C   0  0  0  0  0  0  0  0  0  0  0  0
  141.7520   78.8850  224.1140 C   0  0  0  0  0  0  0  0  0  0  0  0
  142.2890   80.1520  224.1910 C   0  0  0  0  0  0  0  0  0  0  0  0
  142.5180   80.8970  223.0610 C   0  0  0  0  0  0  0  0  0  0  0  0
  142.2200   80.4130  221.7930 C   0  0  0  0  0  0  0  0  0  0  0  0
  136.2920   76.1030  223.3740 C   0  0  0  0  0  0  0  0  0  0  0  0
  135.4290   77.0660  223.8570 C   0  0  0  0  0  0  0  0  0  0  0  0
  134.4010   76.7990  224.7290 C   0  0  0  0  0  0  0  0  0  0  0  0
  134.2070   75.5040  225.1550 C   0  0  0  0  0  0  0  0  0  0  0  0
  133.1780   75.2280  226.0300 C   0  0  0  0  0  0  0  0  0  0  0  0
  133.0220   73.9170  226.4290 C   0  0  0  0  0  0  0  0  0  0  0  0
  131.7210   73.5300  227.5430 Cl  0  0  0  0  0  0  0  0  0  0  0  0
  133.8480   72.9060  225.9850 C   0  0  0  0  0  0  0  0  0  0  0  0
  134.8730   73.2330  225.1030 C   0  0  0  0  0  0  0  0  0  0  0  0
  135.0700   74.5390  224.6730 C   0  0  0  0  0  0  0  0  0  0  0  0
  136.0780   74.8360  223.8110 N   0  0  0  0  0  0  0  0  0  0  0  0
  138.3680   74.5190  222.7360 H   0  0  0  0  0  0  0  0  0  0  0  0
  139.1357   75.7473  220.2730 H   0  0  0  0  0  0  0  0  0  0  0  0
  139.9612   76.7044  221.5292 H   0  0  0  0  0  0  0  0  0  0  0  0
  142.7265   72.9884  221.9660 H   0  0  0  0  0  0  0  0  0  0  0  0
  141.8102   72.3846  220.5843 H   0  0  0  0  0  0  0  0  0  0  0  0
  144.5313   73.6647  220.6866 H   0  0  0  0  0  0  0  0  0  0  0  0
  143.9535   72.4519  219.5615 H   0  0  0  0  0  0  0  0  0  0  0  0
  144.1599   74.9428  218.6750 H   0  0  0  0  0  0  0  0  0  0  0  0
  142.6658   74.1602  218.2818 H   0  0  0  0  0  0  0  0  0  0  0  0
  143.2191   76.0084  220.7999 H   0  0  0  0  0  0  0  0  0  0  0  0
  142.1198   76.4444  218.2953 H   0  0  0  0  0  0  0  0  0  0  0  0
  140.7900   76.4279  219.4907 H   0  0  0  0  0  0  0  0  0  0  0  0
  141.0663   79.3114  219.6992 H   0  0  0  0  0  0  0  0  0  0  0  0
  140.4786   77.8394  220.6239 H   0  0  0  0  0  0  0  0  0  0  0  0
  141.0300   77.3996  222.7598 H   0  0  0  0  0  0  0  0  0  0  0  0
  141.5660   78.2828  225.0155 H   0  0  0  0  0  0  0  0  0  0  0  0
  142.5386   80.5738  225.1758 H   0  0  0  0  0  0  0  0  0  0  0  0
  142.9489   81.9040  223.1620 H   0  0  0  0  0  0  0  0  0  0  0  0
  142.4065   81.0190  220.8941 H   0  0  0  0  0  0  0  0  0  0  0  0
  135.5721   78.1050  223.5254 H   0  0  0  0  0  0  0  0  0  0  0  0
  133.7433   77.6073  225.0813 H   0  0  0  0  0  0  0  0  0  0  0  0
  132.5087   76.0210  226.3950 H   0  0  0  0  0  0  0  0  0  0  0  0
  133.7004   71.8685  226.3193 H   0  0  0  0  0  0  0  0  0  0  0  0
  135.5421   72.4398  224.7381 H   0  0  0  0  0  0  0  0  0  0  0  0
  1  2  2  0
  2  3  1  0
  3  4  1  0
  4  5  1  0
  5  6  2  0
  5  7  1  0
  7  8  1  0
  8  9  1  0
  9 10  1  0
 10 11  1  0
 11 12  1  0
 12 13  1  0
 13 14  1  0
 14 15  1  0
 15 16  2  0
 16 17  1  0
 17 18  2  0
 18 19  1  0
 19 20  2  0
  2 21  1  0
 21 22  2  0
 22 23  1  0
 23 24  2  0
 24 25  1  0
 25 26  2  0
 26 27  1  0
 26 28  1  0
 28 29  2  0
 29 30  1  0
 30 31  2  0
 11  7  1  0
 20 15  1  0
 31 21  1  0
 30 24  1  0
  3 32  1  0
  4 33  1  0
  4 34  1  0
  8 35  1  0
  8 36  1  0
  9 37  1  0
  9 38  1  0
 10 39  1  0
 10 40  1  0
 11 41  1  1
 12 42  1  0
 12 43  1  0
 14 44  1  0
 14 45  1  0
 16 46  1  0
 17 47  1  0
 18 48  1  0
 19 49  1  0
 20 50  1  0
 22 51  1  0
 23 52  1  0
 25 53  1  0
 28 54  1  0
 29 55  1  0
M  END
>  <smiles>  (34) 
O=C(NCC(=O)N1CCC[C@H]1COCc1ccccc1)c1ccc2cc(Cl)ccc2n1

>  <score_type>  (34) 
oracle

>  <origin>  (34) 
autodockgpu

>  <m_score__min__energy>  (34) 
-9.1699999999999999

>  <m_primary>  (34) 
energy

>  <rmsd>  (34) 
6.18213330267684

>  <m_score__min__rmsd>  (34) 
6.18213330267684

>  <meeko>  (34) 
{"free_energy": -7.46, "intermolecular_energy": -9.85, "internal_energy": -2.47, "cluster_size": 1, "cluster_id": 6, "rank_in_cluster": 1}

>  <energy>  (34) 
-7.92

>  <cluster_rmsd>  (34) 
0.79

>  <cluster>  (34) 
3

$$$$

     RDKit          3D

 55 58  0  0  0  0  0  0  0  0999 V2000
  132.5650   69.8810  226.4670 O   0  0  0  0  0  0  0  0  0  0  0  0
  133.3580   70.8380  226.3090 C   0  0  0  0  0  0  0  0  0  0  0  0
  134.6590   70.7130  225.7520 N   0  0  0  0  0  0  0  0  0  0  0  0
  135.1590   69.3930  225.3150 C   0  0  0  0  0  0  0  0  0  0  0  0
  136.2420   69.6250  224.3720 C   0  0  0  0  0  0  0  0  0  0  0  0
  136.9300   70.6980  224.5340 O   0  0  0  0  0  0  0  0  0  0  0  0
  136.6420   68.8160  223.2860 N   0  0  0  0  0  0  0  0  0  0  0  0
  135.6650   68.5580  222.1870 C   0  0  0  0  0  0  0  0  0  0  0  0
  136.4330   67.7950  221.1600 C   0  0  0  0  0  0  0  0  0  0  0  0
  137.8510   68.1840  221.4340 C   0  0  0  0  0  0  0  0  0  0  0  0
  137.8550   68.1210  222.9720 C   0  0  1  0  0  0  0  0  0  0  0  0
  139.1160   68.7100  223.5090 C   0  0  0  0  0  0  0  0  0  0  0  0
  139.4440   68.0450  224.6810 O   0  0  0  0  0  0  0  0  0  0  0  0
  138.9280   68.6180  225.8210 C   0  0  0  0  0  0  0  0  0  0  0  0
  139.7140   69.7560  226.3450 C   0  0  0  0  0  0  0  0  0  0  0  0
  139.6840   69.9650  227.7180 C   0  0  0  0  0  0  0  0  0  0  0  0
  140.3720   70.9910  228.3300 C   0  0  0  0  0  0  0  0  0  0  0  0
  141.1080   71.8220  227.5140 C   0  0  0  0  0  0  0  0  0  0  0  0
  141.1490   71.6300  226.1550 C   0  0  0  0  0  0  0  0  0  0  0  0
  140.4540   70.5950  225.5420 C   0  0  0  0  0  0  0  0  0  0  0  0
  132.9160   72.1670  226.7270 C   0  0  0  0  0  0  0  0  0  0  0  0
  131.7570   72.3590  227.4520 C   0  0  0  0  0  0  0  0  0  0  0  0
  131.3090   73.5910  227.8620 C   0  0  0  0  0  0  0  0  0  0  0  0
  132.0450   74.7100  227.5390 C   0  0  0  0  0  0  0  0  0  0  0  0
  131.6030   75.9510  227.9450 C   0  0  0  0  0  0  0  0  0  0  0  0
  132.3720   77.0410  227.5990 C   0  0  0  0  0  0  0  0  0  0  0  0
  131.8380   78.6360  228.1010 Cl  0  0  0  0  0  0  0  0  0  0  0  0
  133.5410   76.9210  226.8760 C   0  0  0  0  0  0  0  0  0  0  0  0
  133.9470   75.6490  226.4870 C   0  0  0  0  0  0  0  0  0  0  0  0
  133.2050   74.5210  226.8120 C   0  0  0  0  0  0  0  0  0  0  0  0
  133.6210   73.2870  226.4230 N   0  0  0  0  0  0  0  0  0  0  0  0
  135.2940   71.5530  225.6360 H   0  0  0  0  0  0  0  0  0  0  0  0
  135.5307   68.8267  226.1817 H   0  0  0  0  0  0  0  0  0  0  0  0
  134.3535   68.8106  224.8437 H   0  0  0  0  0  0  0  0  0  0  0  0
  134.8161   67.9636  222.5558 H   0  0  0  0  0  0  0  0  0  0  0  0
  135.2439   69.4895  221.7809 H   0  0  0  0  0  0  0  0  0  0  0  0
  136.2901   66.7115  221.2851 H   0  0  0  0  0  0  0  0  0  0  0  0
  136.1159   68.0182  220.1306 H   0  0  0  0  0  0  0  0  0  0  0  0
  138.5623   67.4692  220.9946 H   0  0  0  0  0  0  0  0  0  0  0  0
  138.1553   69.1523  221.0099 H   0  0  0  0  0  0  0  0  0  0  0  0
  137.8592   67.1202  223.4285 H   0  0  0  0  0  0  0  0  0  0  0  0
  139.9253   68.5889  222.7739 H   0  0  0  0  0  0  0  0  0  0  0  0
  138.9776   69.7828  223.7086 H   0  0  0  0  0  0  0  0  0  0  0  0
  137.9126   68.9763  225.5961 H   0  0  0  0  0  0  0  0  0  0  0  0
  138.9472   67.8401  226.5985 H   0  0  0  0  0  0  0  0  0  0  0  0
  139.0869   69.2841  228.3424 H   0  0  0  0  0  0  0  0  0  0  0  0
  140.3350   71.1393  229.4193 H   0  0  0  0  0  0  0  0  0  0  0  0
  141.6729   72.6542  227.9592 H   0  0  0  0  0  0  0  0  0  0  0  0
  141.7479   72.3137  225.5354 H   0  0  0  0  0  0  0  0  0  0  0  0
  140.4935   70.4506  224.4522 H   0  0  0  0  0  0  0  0  0  0  0  0
  131.1582   71.4750  227.7164 H   0  0  0  0  0  0  0  0  0  0  0  0
  130.3771   73.6828  228.4392 H   0  0  0  0  0  0  0  0  0  0  0  0
  130.6737   76.0666  228.5221 H   0  0  0  0  0  0  0  0  0  0  0  0
  134.1363   77.8082  226.6141 H   0  0  0  0  0  0  0  0  0  0  0  0
  134.8760   75.5339  225.9094 H   0  0  0  0  0  0  0  0  0  0  0  0
  1  2  2  0
  2  3  1  0
  3  4  1  0
  4  5  1  0
  5  6  2  0
  5  7  1  0
  7  8  1  0
  8  9  1  0
  9 10  1  0
 10 11  1  0
 11 12  1  0
 12 13  1  0
 13 14  1  0
 14 15  1  0
 15 16  2  0
 16 17  1  0
 17 18  2  0
 18 19  1  0
 19 20  2  0
  2 21  1  0
 21 22  2  0
 22 23  1  0
 23 24  2  0
 24 25  1  0
 25 26  2  0
 26 27  1  0
 26 28  1  0
 28 29  2  0
 29 30  1  0
 30 31  2  0
 11  7  1  0
 20 15  1  0
 31 21  1  0
 30 24  1  0
  3 32  1  0
  4 33  1  0
  4 34  1  0
  8 35  1  0
  8 36  1  0
  9 37  1  0
  9 38  1  0
 10 39  1  0
 10 40  1  0
 11 41  1  6
 12 42  1  0
 12 43  1  0
 14 44  1  0
 14 45  1  0
 16 46  1  0
 17 47  1  0
 18 48  1  0
 19 49  1  0
 20 50  1  0
 22 51  1  0
 23 52  1  0
 25 53  1  0
 28 54  1  0
 29 55  1  0
M  END
>  <smiles>  (35) 
O=C(NCC(=O)N1CCC[C@H]1COCc1ccccc1)c1ccc2cc(Cl)ccc2n1

>  <score_type>  (35) 
oracle

>  <origin>  (35) 
autodockgpu

>  <m_score__min__energy>  (35) 
-9.1699999999999999

>  <m_primary>  (35) 
energy

>  <rmsd>  (35) 
8.922792251063273

>  <m_score__min__rmsd>  (35) 
8.922792251063273

>  <meeko>  (35) 
{"free_energy": -7.99, "intermolecular_energy": -10.38, "internal_energy": -2.36, "cluster_size": 3, "cluster_id": 4, "rank_in_cluster": 3}

>  <energy>  (35) 
-7.89

>  <cluster_rmsd>  (35) 
0.54

>  <cluster>  (35) 
3

$$$$

     RDKit          3D

 55 58  0  0  0  0  0  0  0  0999 V2000
  138.8180   71.3530  220.9560 O   0  0  0  0  0  0  0  0  0  0  0  0
  139.1390   71.9140  222.0290 C   0  0  0  0  0  0  0  0  0  0  0  0
  139.2580   73.3200  222.1900 N   0  0  0  0  0  0  0  0  0  0  0  0
  138.9980   74.2250  221.0500 C   0  0  0  0  0  0  0  0  0  0  0  0
  139.5010   75.5410  221.4120 C   0  0  0  0  0  0  0  0  0  0  0  0
  140.3900   75.5850  222.3380 O   0  0  0  0  0  0  0  0  0  0  0  0
  139.1350   76.7940  220.8730 N   0  0  0  0  0  0  0  0  0  0  0  0
  139.2470   77.0010  219.4000 C   0  0  0  0  0  0  0  0  0  0  0  0
  138.6710   78.3550  219.1560 C   0  0  0  0  0  0  0  0  0  0  0  0
  137.7640   78.5580  220.3270 C   0  0  0  0  0  0  0  0  0  0  0  0
  138.6560   78.0120  221.4560 C   0  0  1  0  0  0  0  0  0  0  0  0
  137.8700   77.8820  222.7180 C   0  0  0  0  0  0  0  0  0  0  0  0
  138.1370   78.9850  223.5140 O   0  0  0  0  0  0  0  0  0  0  0  0
  138.7420   80.0290  222.8530 C   0  0  0  0  0  0  0  0  0  0  0  0
  140.1960   80.1490  223.0970 C   0  0  0  0  0  0  0  0  0  0  0  0
  140.8510   79.0230  223.5810 C   0  0  0  0  0  0  0  0  0  0  0  0
  142.2030   79.0060  223.8500 C   0  0  0  0  0  0  0  0  0  0  0  0
  142.9000   80.1720  223.6160 C   0  0  0  0  0  0  0  0  0  0  0  0
  142.2680   81.2930  223.1380 C   0  0  0  0  0  0  0  0  0  0  0  0
  140.9050   81.3070  222.8680 C   0  0  0  0  0  0  0  0  0  0  0  0
  139.4100   71.0670  223.1890 C   0  0  0  0  0  0  0  0  0  0  0  0
  139.0880   69.7250  223.2060 C   0  0  0  0  0  0  0  0  0  0  0  0
  139.3270   68.8970  224.2770 C   0  0  0  0  0  0  0  0  0  0  0  0
  139.9200   69.4190  225.4060 C   0  0  0  0  0  0  0  0  0  0  0  0
  140.1620   68.5960  226.4840 C   0  0  0  0  0  0  0  0  0  0  0  0
  140.7570   69.1640  227.5910 C   0  0  0  0  0  0  0  0  0  0  0  0
  141.0810   68.1440  228.9830 Cl  0  0  0  0  0  0  0  0  0  0  0  0
  141.1050   70.4970  227.6410 C   0  0  0  0  0  0  0  0  0  0  0  0
  140.8410   71.2890  226.5280 C   0  0  0  0  0  0  0  0  0  0  0  0
  140.2420   70.7630  225.3910 C   0  0  0  0  0  0  0  0  0  0  0  0
  139.9930   71.5550  224.3140 N   0  0  0  0  0  0  0  0  0  0  0  0
  139.5310   73.7510  223.1190 H   0  0  0  0  0  0  0  0  0  0  0  0
  139.5182   73.8579  220.1530 H   0  0  0  0  0  0  0  0  0  0  0  0
  137.9214   74.2695  220.8287 H   0  0  0  0  0  0  0  0  0  0  0  0
  140.2999   76.9659  219.0835 H   0  0  0  0  0  0  0  0  0  0  0  0
  138.7213   76.2196  218.8316 H   0  0  0  0  0  0  0  0  0  0  0  0
  139.4604   79.1206  219.1314 H   0  0  0  0  0  0  0  0  0  0  0  0
  138.1514   78.4344  218.1897 H   0  0  0  0  0  0  0  0  0  0  0  0
  137.5219   79.6206  220.4761 H   0  0  0  0  0  0  0  0  0  0  0  0
  136.7802   78.0739  220.2395 H   0  0  0  0  0  0  0  0  0  0  0  0
  139.4959   78.6457  221.7769 H   0  0  0  0  0  0  0  0  0  0  0  0
  136.7957   77.8434  222.4845 H   0  0  0  0  0  0  0  0  0  0  0  0
  138.1504   76.9581  223.2451 H   0  0  0  0  0  0  0  0  0  0  0  0
  138.5852   79.8891  221.7733 H   0  0  0  0  0  0  0  0  0  0  0  0
  138.2829   80.9514  223.2382 H   0  0  0  0  0  0  0  0  0  0  0  0
  140.2667   78.1077  223.7567 H   0  0  0  0  0  0  0  0  0  0  0  0
  142.7023   78.1040  224.2335 H   0  0  0  0  0  0  0  0  0  0  0  0
  143.9812   80.2048  223.8157 H   0  0  0  0  0  0  0  0  0  0  0  0
  142.8570   82.2056  222.9639 H   0  0  0  0  0  0  0  0  0  0  0  0
  140.4098   82.2114  222.4848 H   0  0  0  0  0  0  0  0  0  0  0  0
  138.6134   69.2937  222.3123 H   0  0  0  0  0  0  0  0  0  0  0  0
  139.0490   67.8336  224.2334 H   0  0  0  0  0  0  0  0  0  0  0  0
  139.8918   67.5299  226.4627 H   0  0  0  0  0  0  0  0  0  0  0  0
  141.5790   70.9233  228.5374 H   0  0  0  0  0  0  0  0  0  0  0  0
  141.1126   72.3547  226.5492 H   0  0  0  0  0  0  0  0  0  0  0  0
  1  2  2  0
  2  3  1  0
  3  4  1  0
  4  5  1  0
  5  6  2  0
  5  7  1  0
  7  8  1  0
  8  9  1  0
  9 10  1  0
 10 11  1  0
 11 12  1  0
 12 13  1  0
 13 14  1  0
 14 15  1  0
 15 16  2  0
 16 17  1  0
 17 18  2  0
 18 19  1  0
 19 20  2  0
  2 21  1  0
 21 22  2  0
 22 23  1  0
 23 24  2  0
 24 25  1  0
 25 26  2  0
 26 27  1  0
 26 28  1  0
 28 29  2  0
 29 30  1  0
 30 31  2  0
 11  7  1  0
 20 15  1  0
 31 21  1  0
 30 24  1  0
  3 32  1  0
  4 33  1  0
  4 34  1  0
  8 35  1  0
  8 36  1  0
  9 37  1  0
  9 38  1  0
 10 39  1  0
 10 40  1  0
 11 41  1  1
 12 42  1  0
 12 43  1  0
 14 44  1  0
 14 45  1  0
 16 46  1  0
 17 47  1  0
 18 48  1  0
 19 49  1  0
 20 50  1  0
 22 51  1  0
 23 52  1  0
 25 53  1  0
 28 54  1  0
 29 55  1  0
M  END
>  <smiles>  (36) 
O=C(NCC(=O)N1CCC[C@H]1COCc1ccccc1)c1ccc2cc(Cl)ccc2n1

>  <score_type>  (36) 
oracle

>  <origin>  (36) 
autodockgpu

>  <m_score__min__energy>  (36) 
-9.1699999999999999

>  <m_primary>  (36) 
energy

>  <rmsd>  (36) 
2.0275913910338286

>  <m_score__min__rmsd>  (36) 
2.0275913910338286

>  <meeko>  (36) 
{"free_energy": -8.08, "intermolecular_energy": -10.47, "internal_energy": -2.28, "cluster_size": 12, "cluster_id": 2, "rank_in_cluster": 9}

>  <energy>  (36) 
-7.87

>  <cluster_rmsd>  (36) 
0.6

>  <cluster>  (36) 
3

$$$$

     RDKit          3D

 55 58  0  0  0  0  0  0  0  0999 V2000
  140.2070   72.2220  221.2320 O   0  0  0  0  0  0  0  0  0  0  0  0
  139.5430   73.1800  221.6910 C   0  0  0  0  0  0  0  0  0  0  0  0
  138.2900   73.0420  222.3460 N   0  0  0  0  0  0  0  0  0  0  0  0
  137.6850   71.7040  222.5220 C   0  0  0  0  0  0  0  0  0  0  0  0
  136.5410   71.8540  223.4070 C   0  0  0  0  0  0  0  0  0  0  0  0
  135.9610   73.0010  223.4130 O   0  0  0  0  0  0  0  0  0  0  0  0
  135.9770   70.8950  224.2750 N   0  0  0  0  0  0  0  0  0  0  0  0
  134.6520   71.1830  224.8990 C   0  0  0  0  0  0  0  0  0  0  0  0
  134.2940   69.9370  225.6370 C   0  0  0  0  0  0  0  0  0  0  0  0
  135.0760   68.8800  224.9250 C   0  0  0  0  0  0  0  0  0  0  0  0
  136.4160   69.6140  224.7440 C   0  0  1  0  0  0  0  0  0  0  0  0
  137.3080   68.8410  223.8300 C   0  0  0  0  0  0  0  0  0  0  0  0
  138.6180   69.2290  224.0680 O   0  0  0  0  0  0  0  0  0  0  0  0
  139.1870   68.6500  225.1790 C   0  0  0  0  0  0  0  0  0  0  0  0
  139.8150   69.6070  226.1160 C   0  0  0  0  0  0  0  0  0  0  0  0
  140.1150   70.8700  225.6220 C   0  0  0  0  0  0  0  0  0  0  0  0
  140.7010   71.8510  226.3930 C   0  0  0  0  0  0  0  0  0  0  0  0
  140.9860   71.5280  227.7020 C   0  0  0  0  0  0  0  0  0  0  0  0
  140.6950   70.2840  228.2060 C   0  0  0  0  0  0  0  0  0  0  0  0
  140.1050   69.2980  227.4260 C   0  0  0  0  0  0  0  0  0  0  0  0
  140.0930   74.5260  221.5410 C   0  0  0  0  0  0  0  0  0  0  0  0
  141.1450   74.7960  220.6900 C   0  0  0  0  0  0  0  0  0  0  0  0
  141.6890   76.0470  220.5220 C   0  0  0  0  0  0  0  0  0  0  0  0
  141.1670   77.1030  221.2380 C   0  0  0  0  0  0  0  0  0  0  0  0
  141.7070   78.3610  221.0770 C   0  0  0  0  0  0  0  0  0  0  0  0
  141.1520   79.3860  221.8140 C   0  0  0  0  0  0  0  0  0  0  0  0
  141.8150   81.0010  221.6330 Cl  0  0  0  0  0  0  0  0  0  0  0  0
  140.1000   79.1860  222.6830 C   0  0  0  0  0  0  0  0  0  0  0  0
  139.5880   77.8990  222.8130 C   0  0  0  0  0  0  0  0  0  0  0  0
  140.1140   76.8350  222.0920 C   0  0  0  0  0  0  0  0  0  0  0  0
  139.5990   75.5840  222.2340 N   0  0  0  0  0  0  0  0  0  0  0  0
  137.7650   73.8820  222.7200 H   0  0  0  0  0  0  0  0  0  0  0  0
  137.3577   71.3090  221.5490 H   0  0  0  0  0  0  0  0  0  0  0  0
  138.4158   71.0018  222.9495 H   0  0  0  0  0  0  0  0  0  0  0  0
  134.7276   72.0343  225.5915 H   0  0  0  0  0  0  0  0  0  0  0  0
  133.8925   71.4526  224.1504 H   0  0  0  0  0  0  0  0  0  0  0  0
  134.5934   70.0046  226.6933 H   0  0  0  0  0  0  0  0  0  0  0  0
  133.2121   69.7386  225.6481 H   0  0  0  0  0  0  0  0  0  0  0  0
  135.1871   67.9727  225.5370 H   0  0  0  0  0  0  0  0  0  0  0  0
  134.6190   68.5143  223.9937 H   0  0  0  0  0  0  0  0  0  0  0  0
  137.0469   69.7239  225.6384 H   0  0  0  0  0  0  0  0  0  0  0  0
  137.1977   67.7642  224.0258 H   0  0  0  0  0  0  0  0  0  0  0  0
  137.0390   69.0386  222.7819 H   0  0  0  0  0  0  0  0  0  0  0  0
  138.4018   68.1030  225.7215 H   0  0  0  0  0  0  0  0  0  0  0  0
  139.9924   67.9962  224.8132 H   0  0  0  0  0  0  0  0  0  0  0  0
  139.8752   71.0967  224.5727 H   0  0  0  0  0  0  0  0  0  0  0  0
  140.9305   72.8454  225.9825 H   0  0  0  0  0  0  0  0  0  0  0  0
  141.4546   72.2795  228.3544 H   0  0  0  0  0  0  0  0  0  0  0  0
  140.9359   70.0625  229.2562 H   0  0  0  0  0  0  0  0  0  0  0  0
  139.8773   68.3048  227.8403 H   0  0  0  0  0  0  0  0  0  0  0  0
  141.5726   73.9627  220.1132 H   0  0  0  0  0  0  0  0  0  0  0  0
  142.5275   76.2030  219.8273 H   0  0  0  0  0  0  0  0  0  0  0  0
  142.5463   78.5400  220.3888 H   0  0  0  0  0  0  0  0  0  0  0  0
  139.6767   80.0224  223.2585 H   0  0  0  0  0  0  0  0  0  0  0  0
  138.7488   77.7204  223.5014 H   0  0  0  0  0  0  0  0  0  0  0  0
  1  2  2  0
  2  3  1  0
  3  4  1  0
  4  5  1  0
  5  6  2  0
  5  7  1  0
  7  8  1  0
  8  9  1  0
  9 10  1  0
 10 11  1  0
 11 12  1  0
 12 13  1  0
 13 14  1  0
 14 15  1  0
 15 16  2  0
 16 17  1  0
 17 18  2  0
 18 19  1  0
 19 20  2  0
  2 21  1  0
 21 22  2  0
 22 23  1  0
 23 24  2  0
 24 25  1  0
 25 26  2  0
 26 27  1  0
 26 28  1  0
 28 29  2  0
 29 30  1  0
 30 31  2  0
 11  7  1  0
 20 15  1  0
 31 21  1  0
 30 24  1  0
  3 32  1  0
  4 33  1  0
  4 34  1  0
  8 35  1  0
  8 36  1  0
  9 37  1  0
  9 38  1  0
 10 39  1  0
 10 40  1  0
 11 41  1  1
 12 42  1  0
 12 43  1  0
 14 44  1  0
 14 45  1  0
 16 46  1  0
 17 47  1  0
 18 48  1  0
 19 49  1  0
 20 50  1  0
 22 51  1  0
 23 52  1  0
 25 53  1  0
 28 54  1  0
 29 55  1  0
M  END
>  <smiles>  (37) 
O=C(NCC(=O)N1CCC[C@H]1COCc1ccccc1)c1ccc2cc(Cl)ccc2n1

>  <score_type>  (37) 
oracle

>  <origin>  (37) 
autodockgpu

>  <m_score__min__energy>  (37) 
-9.1699999999999999

>  <m_primary>  (37) 
energy

>  <rmsd>  (37) 
8.541330857900151

>  <m_score__min__rmsd>  (37) 
8.541330857900151

>  <meeko>  (37) 
{"free_energy": -7.69, "intermolecular_energy": -10.07, "internal_energy": -2.57, "cluster_size": 16, "cluster_id": 1, "rank_in_cluster": 15}

>  <energy>  (37) 
-7.76

>  <cluster_rmsd>  (37) 
0.79

>  <cluster>  (37) 
3

$$$$

     RDKit          3D

 55 58  0  0  0  0  0  0  0  0999 V2000
  139.6760   71.9490  220.7240 O   0  0  0  0  0  0  0  0  0  0  0  0
  139.6700   72.4340  221.8790 C   0  0  0  0  0  0  0  0  0  0  0  0
  139.5500   73.8200  222.1620 N   0  0  0  0  0  0  0  0  0  0  0  0
  139.4220   74.7980  221.0600 C   0  0  0  0  0  0  0  0  0  0  0  0
  140.4600   75.8000  221.2420 C   0  0  0  0  0  0  0  0  0  0  0  0
  140.4790   76.4160  222.3700 O   0  0  0  0  0  0  0  0  0  0  0  0
  141.4630   76.1930  220.3290 N   0  0  0  0  0  0  0  0  0  0  0  0
  142.6180   75.2790  220.0950 C   0  0  0  0  0  0  0  0  0  0  0  0
  143.4060   75.9220  219.0040 C   0  0  0  0  0  0  0  0  0  0  0  0
  142.3920   76.7720  218.3060 C   0  0  0  0  0  0  0  0  0  0  0  0
  141.6530   77.3610  219.5200 C   0  0  1  0  0  0  0  0  0  0  0  0
  140.4180   78.0720  219.0780 C   0  0  0  0  0  0  0  0  0  0  0  0
  140.6230   79.4360  219.2250 O   0  0  0  0  0  0  0  0  0  0  0  0
  141.8580   79.7720  219.7300 C   0  0  0  0  0  0  0  0  0  0  0  0
  141.8550   80.1380  221.1630 C   0  0  0  0  0  0  0  0  0  0  0  0
  142.1810   79.1370  222.0710 C   0  0  0  0  0  0  0  0  0  0  0  0
  142.2140   79.3490  223.4330 C   0  0  0  0  0  0  0  0  0  0  0  0
  141.9060   80.6170  223.8740 C   0  0  0  0  0  0  0  0  0  0  0  0
  141.5830   81.6180  222.9910 C   0  0  0  0  0  0  0  0  0  0  0  0
  141.5510   81.4010  221.6190 C   0  0  0  0  0  0  0  0  0  0  0  0
  139.7970   71.5120  223.0070 C   0  0  0  0  0  0  0  0  0  0  0  0
  139.4080   70.1910  222.9190 C   0  0  0  0  0  0  0  0  0  0  0  0
  139.5110   69.2950  223.9560 C   0  0  0  0  0  0  0  0  0  0  0  0
  140.0280   69.7240  225.1590 C   0  0  0  0  0  0  0  0  0  0  0  0
  140.1350   68.8330  226.2050 C   0  0  0  0  0  0  0  0  0  0  0  0
  140.6590   69.3070  227.3890 C   0  0  0  0  0  0  0  0  0  0  0  0
  140.8090   68.1980  228.7420 Cl  0  0  0  0  0  0  0  0  0  0  0  0
  141.0670   70.6150  227.5450 C   0  0  0  0  0  0  0  0  0  0  0  0
  140.9400   71.4780  226.4610 C   0  0  0  0  0  0  0  0  0  0  0  0
  140.4180   71.0460  225.2490 C   0  0  0  0  0  0  0  0  0  0  0  0
  140.3030   71.9070  224.2030 N   0  0  0  0  0  0  0  0  0  0  0  0
  139.5480   74.1840  223.1570 H   0  0  0  0  0  0  0  0  0  0  0  0
  139.5537   74.2924  220.0920 H   0  0  0  0  0  0  0  0  0  0  0  0
  138.4263   75.2654  221.0705 H   0  0  0  0  0  0  0  0  0  0  0  0
  143.2263   75.1839  221.0065 H   0  0  0  0  0  0  0  0  0  0  0  0
  142.2925   74.2634  219.8255 H   0  0  0  0  0  0  0  0  0  0  0  0
  144.2204   76.5367  219.4151 H   0  0  0  0  0  0  0  0  0  0  0  0
  143.8926   75.1951  218.3370 H   0  0  0  0  0  0  0  0  0  0  0  0
  142.8663   77.5560  217.6974 H   0  0  0  0  0  0  0  0  0  0  0  0
  141.7518   76.2349  217.5907 H   0  0  0  0  0  0  0  0  0  0  0  0
  142.1753   78.1457  220.0869 H   0  0  0  0  0  0  0  0  0  0  0  0
  140.2122   77.8386  218.0229 H   0  0  0  0  0  0  0  0  0  0  0  0
  139.5587   77.7509  219.6850 H   0  0  0  0  0  0  0  0  0  0  0  0
  142.5297   78.9112  219.5965 H   0  0  0  0  0  0  0  0  0  0  0  0
  142.1891   80.6649  219.1794 H   0  0  0  0  0  0  0  0  0  0  0  0
  142.4225   78.1348  221.6871 H   0  0  0  0  0  0  0  0  0  0  0  0
  142.4742   78.5429  224.1348 H   0  0  0  0  0  0  0  0  0  0  0  0
  141.9190   80.8317  224.9528 H   0  0  0  0  0  0  0  0  0  0  0  0
  141.3432   82.6184  223.3804 H   0  0  0  0  0  0  0  0  0  0  0  0
  141.2916   82.2106  220.9210 H   0  0  0  0  0  0  0  0  0  0  0  0
  138.9920   69.8350  221.9650 H   0  0  0  0  0  0  0  0  0  0  0  0
  139.1859   68.2520  223.8276 H   0  0  0  0  0  0  0  0  0  0  0  0
  139.8152   67.7858  226.0995 H   0  0  0  0  0  0  0  0  0  0  0  0
  141.4819   70.9668  228.5011 H   0  0  0  0  0  0  0  0  0  0  0  0
  141.2600   72.5251  226.5664 H   0  0  0  0  0  0  0  0  0  0  0  0
  1  2  2  0
  2  3  1  0
  3  4  1  0
  4  5  1  0
  5  6  2  0
  5  7  1  0
  7  8  1  0
  8  9  1  0
  9 10  1  0
 10 11  1  0
 11 12  1  0
 12 13  1  0
 13 14  1  0
 14 15  1  0
 15 16  2  0
 16 17  1  0
 17 18  2  0
 18 19  1  0
 19 20  2  0
  2 21  1  0
 21 22  2  0
 22 23  1  0
 23 24  2  0
 24 25  1  0
 25 26  2  0
 26 27  1  0
 26 28  1  0
 28 29  2  0
 29 30  1  0
 30 31  2  0
 11  7  1  0
 20 15  1  0
 31 21  1  0
 30 24  1  0
  3 32  1  0
  4 33  1  0
  4 34  1  0
  8 35  1  0
  8 36  1  0
  9 37  1  0
  9 38  1  0
 10 39  1  0
 10 40  1  0
 11 41  1  1
 12 42  1  0
 12 43  1  0
 14 44  1  0
 14 45  1  0
 16 46  1  0
 17 47  1  0
 18 48  1  0
 19 49  1  0
 20 50  1  0
 22 51  1  0
 23 52  1  0
 25 53  1  0
 28 54  1  0
 29 55  1  0
M  END
>  <smiles>  (38) 
O=C(NCC(=O)N1CCC[C@H]1COCc1ccccc1)c1ccc2cc(Cl)ccc2n1

>  <score_type>  (38) 
oracle

>  <origin>  (38) 
autodockgpu

>  <m_score__min__energy>  (38) 
-9.1699999999999999

>  <m_primary>  (38) 
energy

>  <rmsd>  (38) 
2.006859971683094

>  <m_score__min__rmsd>  (38) 
2.006859971683094

>  <meeko>  (38) 
{"free_energy": -8.68, "intermolecular_energy": -11.07, "internal_energy": -2.1, "cluster_size": 12, "cluster_id": 2, "rank_in_cluster": 2}

>  <energy>  (38) 
-7.68

>  <cluster_rmsd>  (38) 
0.8

>  <cluster>  (38) 
3

$$$$

     RDKit          3D

 55 58  0  0  0  0  0  0  0  0999 V2000
  139.3510   71.8070  220.6760 O   0  0  0  0  0  0  0  0  0  0  0  0
  139.4640   72.3290  221.8090 C   0  0  0  0  0  0  0  0  0  0  0  0
  139.4360   73.7290  222.0480 N   0  0  0  0  0  0  0  0  0  0  0  0
  139.2670   74.6740  220.9240 C   0  0  0  0  0  0  0  0  0  0  0  0
  139.5960   76.0030  221.4160 C   0  0  0  0  0  0  0  0  0  0  0  0
  140.2870   76.0640  222.4980 O   0  0  0  0  0  0  0  0  0  0  0  0
  139.2510   77.2510  220.8550 N   0  0  0  0  0  0  0  0  0  0  0  0
  139.3350   77.4200  219.3750 C   0  0  0  0  0  0  0  0  0  0  0  0
  138.7890   78.7830  219.1100 C   0  0  0  0  0  0  0  0  0  0  0  0
  137.9140   79.0380  220.2950 C   0  0  0  0  0  0  0  0  0  0  0  0
  138.8170   78.4960  221.4170 C   0  0  1  0  0  0  0  0  0  0  0  0
  138.0560   78.4170  222.6990 C   0  0  0  0  0  0  0  0  0  0  0  0
  137.9980   79.6870  223.2520 O   0  0  0  0  0  0  0  0  0  0  0  0
  138.9870   79.9510  224.1710 C   0  0  0  0  0  0  0  0  0  0  0  0
  140.3430   80.0770  223.5960 C   0  0  0  0  0  0  0  0  0  0  0  0
  140.5990   81.2030  222.8230 C   0  0  0  0  0  0  0  0  0  0  0  0
  141.8220   81.4380  222.2300 C   0  0  0  0  0  0  0  0  0  0  0  0
  142.8050   80.4950  222.4370 C   0  0  0  0  0  0  0  0  0  0  0  0
  142.5700   79.3770  223.1980 C   0  0  0  0  0  0  0  0  0  0  0  0
  141.3360   79.1440  223.7930 C   0  0  0  0  0  0  0  0  0  0  0  0
  139.6360   71.4410  222.9570 C   0  0  0  0  0  0  0  0  0  0  0  0
  139.2530   70.1160  222.9210 C   0  0  0  0  0  0  0  0  0  0  0  0
  139.3980   69.2500  223.9790 C   0  0  0  0  0  0  0  0  0  0  0  0
  139.9570   69.7160  225.1490 C   0  0  0  0  0  0  0  0  0  0  0  0
  140.1060   68.8550  226.2150 C   0  0  0  0  0  0  0  0  0  0  0  0
  140.6700   69.3650  227.3660 C   0  0  0  0  0  0  0  0  0  0  0  0
  140.8760   68.2960  228.7430 Cl  0  0  0  0  0  0  0  0  0  0  0  0
  141.0760   70.6790  227.4700 C   0  0  0  0  0  0  0  0  0  0  0  0
  140.9040   71.5110  226.3680 C   0  0  0  0  0  0  0  0  0  0  0  0
  140.3410   71.0420  225.1880 C   0  0  0  0  0  0  0  0  0  0  0  0
  140.1830   71.8720  224.1220 N   0  0  0  0  0  0  0  0  0  0  0  0
  139.5340   74.1260  223.0260 H   0  0  0  0  0  0  0  0  0  0  0  0
  139.9420   74.4012  220.0994 H   0  0  0  0  0  0  0  0  0  0  0  0
  138.2343   74.6457  220.5463 H   0  0  0  0  0  0  0  0  0  0  0  0
  140.3792   77.3494  219.0365 H   0  0  0  0  0  0  0  0  0  0  0  0
  138.7762   76.6396  218.8378 H   0  0  0  0  0  0  0  0  0  0  0  0
  139.5973   79.5266  219.0495 H   0  0  0  0  0  0  0  0  0  0  0  0
  138.2503   78.8530  218.1535 H   0  0  0  0  0  0  0  0  0  0  0  0
  137.7028   80.1099  220.4231 H   0  0  0  0  0  0  0  0  0  0  0  0
  136.9162   78.5782  220.2411 H   0  0  0  0  0  0  0  0  0  0  0  0
  139.6802   79.1152  221.7025 H   0  0  0  0  0  0  0  0  0  0  0  0
  137.0376   78.0495  222.5045 H   0  0  0  0  0  0  0  0  0  0  0  0
  138.5552   77.7248  223.3930 H   0  0  0  0  0  0  0  0  0  0  0  0
  138.7405   80.8951  224.6788 H   0  0  0  0  0  0  0  0  0  0  0  0
  139.0165   79.0891  224.8538 H   0  0  0  0  0  0  0  0  0  0  0  0
  139.7930   81.9374  222.6780 H   0  0  0  0  0  0  0  0  0  0  0  0
  142.0039   82.3356  221.6208 H   0  0  0  0  0  0  0  0  0  0  0  0
  143.7967   80.6408  221.9839 H   0  0  0  0  0  0  0  0  0  0  0  0
  143.3798   78.6463  223.3406 H   0  0  0  0  0  0  0  0  0  0  0  0
  141.1586   78.2445  224.4008 H   0  0  0  0  0  0  0  0  0  0  0  0
  138.8061   69.7304  221.9928 H   0  0  0  0  0  0  0  0  0  0  0  0
  139.0731   68.2026  223.8929 H   0  0  0  0  0  0  0  0  0  0  0  0
  139.7881   67.8039  226.1505 H   0  0  0  0  0  0  0  0  0  0  0  0
  141.5241   71.0593  228.3998 H   0  0  0  0  0  0  0  0  0  0  0  0
  141.2206   72.5625  226.4327 H   0  0  0  0  0  0  0  0  0  0  0  0
  1  2  2  0
  2  3  1  0
  3  4  1  0
  4  5  1  0
  5  6  2  0
  5  7  1  0
  7  8  1  0
  8  9  1  0
  9 10  1  0
 10 11  1  0
 11 12  1  0
 12 13  1  0
 13 14  1  0
 14 15  1  0
 15 16  2  0
 16 17  1  0
 17 18  2  0
 18 19  1  0
 19 20  2  0
  2 21  1  0
 21 22  2  0
 22 23  1  0
 23 24  2  0
 24 25  1  0
 25 26  2  0
 26 27  1  0
 26 28  1  0
 28 29  2  0
 29 30  1  0
 30 31  2  0
 11  7  1  0
 20 15  1  0
 31 21  1  0
 30 24  1  0
  3 32  1  0
  4 33  1  0
  4 34  1  0
  8 35  1  0
  8 36  1  0
  9 37  1  0
  9 38  1  0
 10 39  1  0
 10 40  1  0
 11 41  1  1
 12 42  1  0
 12 43  1  0
 14 44  1  0
 14 45  1  0
 16 46  1  0
 17 47  1  0
 18 48  1  0
 19 49  1  0
 20 50  1  0
 22 51  1  0
 23 52  1  0
 25 53  1  0
 28 54  1  0
 29 55  1  0
M  END
>  <smiles>  (39) 
O=C(NCC(=O)N1CCC[C@H]1COCc1ccccc1)c1ccc2cc(Cl)ccc2n1

>  <score_type>  (39) 
oracle

>  <origin>  (39) 
autodockgpu

>  <m_score__min__energy>  (39) 
-9.1699999999999999

>  <m_primary>  (39) 
energy

>  <rmsd>  (39) 
2.2166072802127363

>  <m_score__min__rmsd>  (39) 
2.2166072802127363

>  <meeko>  (39) 
{"free_energy": -8.04, "intermolecular_energy": -10.43, "internal_energy": -2.52, "cluster_size": 12, "cluster_id": 2, "rank_in_cluster": 10}

>  <energy>  (39) 
-7.66

>  <cluster_rmsd>  (39) 
0.83

>  <cluster>  (39) 
3

$$$$

     RDKit          3D

 55 58  0  0  0  0  0  0  0  0999 V2000
  140.1520   72.3590  220.8430 O   0  0  0  0  0  0  0  0  0  0  0  0
  139.8980   72.7590  222.0030 C   0  0  0  0  0  0  0  0  0  0  0  0
  139.5510   74.0970  222.3280 N   0  0  0  0  0  0  0  0  0  0  0  0
  139.4730   75.1250  221.2670 C   0  0  0  0  0  0  0  0  0  0  0  0
  139.4080   76.4230  221.9200 C   0  0  0  0  0  0  0  0  0  0  0  0
  138.4470   76.6030  222.7550 O   0  0  0  0  0  0  0  0  0  0  0  0
  140.2710   77.5270  221.7550 N   0  0  0  0  0  0  0  0  0  0  0  0
  140.7330   78.2640  222.9670 C   0  0  0  0  0  0  0  0  0  0  0  0
  141.7130   79.2680  222.4590 C   0  0  0  0  0  0  0  0  0  0  0  0
  142.1830   78.6670  221.1730 C   0  0  0  0  0  0  0  0  0  0  0  0
  140.8440   78.1650  220.6060 C   0  0  1  0  0  0  0  0  0  0  0  0
  141.0810   77.2990  219.4140 C   0  0  0  0  0  0  0  0  0  0  0  0
  142.2660   76.6050  219.6070 O   0  0  0  0  0  0  0  0  0  0  0  0
  142.2090   75.2760  219.2570 C   0  0  0  0  0  0  0  0  0  0  0  0
  143.2260   74.4250  219.9120 C   0  0  0  0  0  0  0  0  0  0  0  0
  144.4470   75.0160  220.2110 C   0  0  0  0  0  0  0  0  0  0  0  0
  145.4770   74.3310  220.8200 C   0  0  0  0  0  0  0  0  0  0  0  0
  145.2480   73.0080  221.1290 C   0  0  0  0  0  0  0  0  0  0  0  0
  144.0480   72.4080  220.8400 C   0  0  0  0  0  0  0  0  0  0  0  0
  143.0120   73.1020  220.2260 C   0  0  0  0  0  0  0  0  0  0  0  0
  139.9630   71.7840  223.0910 C   0  0  0  0  0  0  0  0  0  0  0  0
  139.5420   70.4800  222.9310 C   0  0  0  0  0  0  0  0  0  0  0  0
  139.5880   69.5360  223.9290 C   0  0  0  0  0  0  0  0  0  0  0  0
  140.0780   69.8960  225.1660 C   0  0  0  0  0  0  0  0  0  0  0  0
  140.1270   68.9560  226.1730 C   0  0  0  0  0  0  0  0  0  0  0  0
  140.6250   69.3620  227.3930 C   0  0  0  0  0  0  0  0  0  0  0  0
  140.7020   68.1910  228.6980 Cl  0  0  0  0  0  0  0  0  0  0  0  0
  141.0620   70.6500  227.6210 C   0  0  0  0  0  0  0  0  0  0  0  0
  140.9930   71.5640  226.5750 C   0  0  0  0  0  0  0  0  0  0  0  0
  140.4990   71.2020  225.3280 C   0  0  0  0  0  0  0  0  0  0  0  0
  140.4410   72.1110  224.3190 N   0  0  0  0  0  0  0  0  0  0  0  0
  139.3420   74.3890  223.3240 H   0  0  0  0  0  0  0  0  0  0  0  0
  140.3652   75.0714  220.6258 H   0  0  0  0  0  0  0  0  0  0  0  0
  138.5866   74.9640  220.6358 H   0  0  0  0  0  0  0  0  0  0  0  0
  139.8872   78.7649  223.4606 H   0  0  0  0  0  0  0  0  0  0  0  0
  141.1804   77.5915  223.7137 H   0  0  0  0  0  0  0  0  0  0  0  0
  141.2280   80.2400  222.2860 H   0  0  0  0  0  0  0  0  0  0  0  0
  142.5315   79.4677  223.1662 H   0  0  0  0  0  0  0  0  0  0  0  0
  142.6477   79.4181  220.5174 H   0  0  0  0  0  0  0  0  0  0  0  0
  142.9591   77.8948  221.2794 H   0  0  0  0  0  0  0  0  0  0  0  0
  140.1592   78.9253  220.2022 H   0  0  0  0  0  0  0  0  0  0  0  0
  140.2488   76.5889  219.2991 H   0  0  0  0  0  0  0  0  0  0  0  0
  141.1473   77.9156  218.5055 H   0  0  0  0  0  0  0  0  0  0  0  0
  141.2142   74.8920  219.5270 H   0  0  0  0  0  0  0  0  0  0  0  0
  142.4099   75.2282  218.1766 H   0  0  0  0  0  0  0  0  0  0  0  0
  144.5984   76.0741  219.9512 H   0  0  0  0  0  0  0  0  0  0  0  0
  146.4365   74.8179  221.0485 H   0  0  0  0  0  0  0  0  0  0  0  0
  146.0413   72.4220  221.6161 H   0  0  0  0  0  0  0  0  0  0  0  0
  143.9022   71.3495  221.1013 H   0  0  0  0  0  0  0  0  0  0  0  0
  142.0542   72.6110  219.9989 H   0  0  0  0  0  0  0  0  0  0  0  0
  139.1473   70.1788  221.9494 H   0  0  0  0  0  0  0  0  0  0  0  0
  139.2392   68.5094  223.7434 H   0  0  0  0  0  0  0  0  0  0  0  0
  139.7828   67.9240  226.0100 H   0  0  0  0  0  0  0  0  0  0  0  0
  141.4549   70.9467  228.6046 H   0  0  0  0  0  0  0  0  0  0  0  0
  141.3370   72.5959  226.7386 H   0  0  0  0  0  0  0  0  0  0  0  0
  1  2  2  0
  2  3  1  0
  3  4  1  0
  4  5  1  0
  5  6  2  0
  5  7  1  0
  7  8  1  0
  8  9  1  0
  9 10  1  0
 10 11  1  0
 11 12  1  0
 12 13  1  0
 13 14  1  0
 14 15  1  0
 15 16  2  0
 16 17  1  0
 17 18  2  0
 18 19  1  0
 19 20  2  0
  2 21  1  0
 21 22  2  0
 22 23  1  0
 23 24  2  0
 24 25  1  0
 25 26  2  0
 26 27  1  0
 26 28  1  0
 28 29  2  0
 29 30  1  0
 30 31  2  0
 11  7  1  0
 20 15  1  0
 31 21  1  0
 30 24  1  0
  3 32  1  0
  4 33  1  0
  4 34  1  0
  8 35  1  0
  8 36  1  0
  9 37  1  0
  9 38  1  0
 10 39  1  0
 10 40  1  0
 11 41  1  6
 12 42  1  0
 12 43  1  0
 14 44  1  0
 14 45  1  0
 16 46  1  0
 17 47  1  0
 18 48  1  0
 19 49  1  0
 20 50  1  0
 22 51  1  0
 23 52  1  0
 25 53  1  0
 28 54  1  0
 29 55  1  0
M  END
>  <smiles>  (40) 
O=C(NCC(=O)N1CCC[C@H]1COCc1ccccc1)c1ccc2cc(Cl)ccc2n1

>  <score_type>  (40) 
oracle

>  <origin>  (40) 
autodockgpu

>  <m_score__min__energy>  (40) 
-9.1699999999999999

>  <m_primary>  (40) 
energy

>  <rmsd>  (40) 
2.9907646019255574

>  <m_score__min__rmsd>  (40) 
2.9907646019255574

>  <meeko>  (40) 
{"free_energy": -8.23, "intermolecular_energy": -10.61, "internal_energy": -2.43, "cluster_size": 14, "cluster_id": 3, "rank_in_cluster": 1}

>  <energy>  (40) 
-7.65

>  <cluster_rmsd>  (40) 
0.75

>  <cluster>  (40) 
3

$$$$

     RDKit          3D

 55 58  0  0  0  0  0  0  0  0999 V2000
  135.5670   75.4760  221.9490 O   0  0  0  0  0  0  0  0  0  0  0  0
  136.7680   75.3220  222.2710 C   0  0  0  0  0  0  0  0  0  0  0  0
  137.3900   74.0580  222.4520 N   0  0  0  0  0  0  0  0  0  0  0  0
  136.6170   72.8130  222.2620 C   0  0  0  0  0  0  0  0  0  0  0  0
  137.1900   71.8040  223.1390 C   0  0  0  0  0  0  0  0  0  0  0  0
  138.4720   71.7420  223.1900 O   0  0  0  0  0  0  0  0  0  0  0  0
  136.5130   70.8690  223.9520 N   0  0  0  0  0  0  0  0  0  0  0  0
  135.1500   71.2090  224.4550 C   0  0  0  0  0  0  0  0  0  0  0  0
  134.6790   69.9800  225.1580 C   0  0  0  0  0  0  0  0  0  0  0  0
  135.4810   68.8920  224.5180 C   0  0  0  0  0  0  0  0  0  0  0  0
  136.8590   69.5730  224.4580 C   0  0  1  0  0  0  0  0  0  0  0  0
  137.7990   68.7650  223.6270 C   0  0  0  0  0  0  0  0  0  0  0  0
  138.9670   68.5730  224.3510 O   0  0  0  0  0  0  0  0  0  0  0  0
  138.8270   68.7430  225.7080 C   0  0  0  0  0  0  0  0  0  0  0  0
  139.6340   69.8460  226.2750 C   0  0  0  0  0  0  0  0  0  0  0  0
  139.6650   69.9590  227.6590 C   0  0  0  0  0  0  0  0  0  0  0  0
  140.3780   70.9430  228.3100 C   0  0  0  0  0  0  0  0  0  0  0  0
  141.0760   71.8320  227.5220 C   0  0  0  0  0  0  0  0  0  0  0  0
  141.0560   71.7340  226.1530 C   0  0  0  0  0  0  0  0  0  0  0  0
  140.3360   70.7410  225.5000 C   0  0  0  0  0  0  0  0  0  0  0  0
  137.5790   76.5210  222.4750 C   0  0  0  0  0  0  0  0  0  0  0  0
  137.0130   77.7720  222.6140 C   0  0  0  0  0  0  0  0  0  0  0  0
  137.7420   78.9220  222.8060 C   0  0  0  0  0  0  0  0  0  0  0  0
  139.1160   78.8380  222.8660 C   0  0  0  0  0  0  0  0  0  0  0  0
  139.8550   79.9860  223.0580 C   0  0  0  0  0  0  0  0  0  0  0  0
  141.2260   79.8530  223.1120 C   0  0  0  0  0  0  0  0  0  0  0  0
  142.1980   81.2950  223.3560 Cl  0  0  0  0  0  0  0  0  0  0  0  0
  141.8560   78.6330  222.9810 C   0  0  0  0  0  0  0  0  0  0  0  0
  141.0690   77.5030  222.7880 C   0  0  0  0  0  0  0  0  0  0  0  0
  139.6840   77.5870  222.7270 C   0  0  0  0  0  0  0  0  0  0  0  0
  138.9340   76.4690  222.5380 N   0  0  0  0  0  0  0  0  0  0  0  0
  138.4110   73.9780  222.7240 H   0  0  0  0  0  0  0  0  0  0  0  0
  135.5620   72.9824  222.5234 H   0  0  0  0  0  0  0  0  0  0  0  0
  136.6625   72.4852  221.2129 H   0  0  0  0  0  0  0  0  0  0  0  0
  135.1961   72.0590  225.1517 H   0  0  0  0  0  0  0  0  0  0  0  0
  134.4715   71.5046  223.6412 H   0  0  0  0  0  0  0  0  0  0  0  0
  134.8849   70.0393  226.2369 H   0  0  0  0  0  0  0  0  0  0  0  0
  133.5936   69.8232  225.0726 H   0  0  0  0  0  0  0  0  0  0  0  0
  135.5020   67.9828  225.1368 H   0  0  0  0  0  0  0  0  0  0  0  0
  135.0955   68.5420  223.5491 H   0  0  0  0  0  0  0  0  0  0  0  0
  137.4109   69.6602  225.4055 H   0  0  0  0  0  0  0  0  0  0  0  0
  137.3438   67.7919  223.3907 H   0  0  0  0  0  0  0  0  0  0  0  0
  138.0190   69.2898  222.6857 H   0  0  0  0  0  0  0  0  0  0  0  0
  137.7674   68.9479  225.9210 H   0  0  0  0  0  0  0  0  0  0  0  0
  139.1892   67.8168  226.1782 H   0  0  0  0  0  0  0  0  0  0  0  0
  139.0973   69.2336  228.2603 H   0  0  0  0  0  0  0  0  0  0  0  0
  140.3892   71.0151  229.4076 H   0  0  0  0  0  0  0  0  0  0  0  0
  141.6592   72.6340  227.9981 H   0  0  0  0  0  0  0  0  0  0  0  0
  141.6257   72.4617  225.5564 H   0  0  0  0  0  0  0  0  0  0  0  0
  140.3274   70.6726  224.4022 H   0  0  0  0  0  0  0  0  0  0  0  0
  135.9170   77.8538  222.5686 H   0  0  0  0  0  0  0  0  0  0  0  0
  137.2364   79.8934  222.9100 H   0  0  0  0  0  0  0  0  0  0  0  0
  139.3704   80.9678  223.1638 H   0  0  0  0  0  0  0  0  0  0  0  0
  142.9523   78.5560  223.0280 H   0  0  0  0  0  0  0  0  0  0  0  0
  141.5538   76.5214  222.6813 H   0  0  0  0  0  0  0  0  0  0  0  0
  1  2  2  0
  2  3  1  0
  3  4  1  0
  4  5  1  0
  5  6  2  0
  5  7  1  0
  7  8  1  0
  8  9  1  0
  9 10  1  0
 10 11  1  0
 11 12  1  0
 12 13  1  0
 13 14  1  0
 14 15  1  0
 15 16  2  0
 16 17  1  0
 17 18  2  0
 18 19  1  0
 19 20  2  0
  2 21  1  0
 21 22  2  0
 22 23  1  0
 23 24  2  0
 24 25  1  0
 25 26  2  0
 26 27  1  0
 26 28  1  0
 28 29  2  0
 29 30  1  0
 30 31  2  0
 11  7  1  0
 20 15  1  0
 31 21  1  0
 30 24  1  0
  3 32  1  0
  4 33  1  0
  4 34  1  0
  8 35  1  0
  8 36  1  0
  9 37  1  0
  9 38  1  0
 10 39  1  0
 10 40  1  0
 11 41  1  1
 12 42  1  0
 12 43  1  0
 14 44  1  0
 14 45  1  0
 16 46  1  0
 17 47  1  0
 18 48  1  0
 19 49  1  0
 20 50  1  0
 22 51  1  0
 23 52  1  0
 25 53  1  0
 28 54  1  0
 29 55  1  0
M  END
>  <smiles>  (41) 
O=C(NCC(=O)N1CCC[C@H]1COCc1ccccc1)c1ccc2cc(Cl)ccc2n1

>  <score_type>  (41) 
oracle

>  <origin>  (41) 
autodockgpu

>  <m_score__min__energy>  (41) 
-9.1699999999999999

>  <m_primary>  (41) 
energy

>  <rmsd>  (41) 
8.745402488989935

>  <m_score__min__rmsd>  (41) 
8.745402488989935

>  <meeko>  (41) 
{"free_energy": -7.83, "intermolecular_energy": -10.21, "internal_energy": -2.44, "cluster_size": 16, "cluster_id": 1, "rank_in_cluster": 14}

>  <energy>  (41) 
-7.58

>  <cluster_rmsd>  (41) 
1.33

>  <cluster>  (41) 
3

$$$$

     RDKit          3D

 55 58  0  0  0  0  0  0  0  0999 V2000
  133.5470   70.0670  226.6210 O   0  0  0  0  0  0  0  0  0  0  0  0
  133.9160   71.1560  226.1220 C   0  0  0  0  0  0  0  0  0  0  0  0
  134.9330   71.2790  225.1390 N   0  0  0  0  0  0  0  0  0  0  0  0
  135.6340   70.0780  224.6380 C   0  0  0  0  0  0  0  0  0  0  0  0
  136.6500   70.5250  223.6980 C   0  0  0  0  0  0  0  0  0  0  0  0
  136.5400   71.7270  223.2550 O   0  0  0  0  0  0  0  0  0  0  0  0
  137.7560   69.8030  223.1990 N   0  0  0  0  0  0  0  0  0  0  0  0
  137.5380   68.4150  222.6960 C   0  0  0  0  0  0  0  0  0  0  0  0
  138.8540   67.9970  222.1330 C   0  0  0  0  0  0  0  0  0  0  0  0
  139.5160   69.2970  221.8060 C   0  0  0  0  0  0  0  0  0  0  0  0
  139.1490   70.1080  223.0610 C   0  0  1  0  0  0  0  0  0  0  0  0
  139.4990   71.5460  222.8670 C   0  0  0  0  0  0  0  0  0  0  0  0
  140.1540   71.9940  224.0040 O   0  0  0  0  0  0  0  0  0  0  0  0
  140.9530   71.0500  224.6060 C   0  0  0  0  0  0  0  0  0  0  0  0
  140.4860   70.6080  225.9380 C   0  0  0  0  0  0  0  0  0  0  0  0
  140.5840   71.5240  226.9780 C   0  0  0  0  0  0  0  0  0  0  0  0
  140.1840   71.2350  228.2650 C   0  0  0  0  0  0  0  0  0  0  0  0
  139.6700   69.9770  228.4910 C   0  0  0  0  0  0  0  0  0  0  0  0
  139.5650   69.0600  227.4740 C   0  0  0  0  0  0  0  0  0  0  0  0
  139.9700   69.3550  226.1780 C   0  0  0  0  0  0  0  0  0  0  0  0
  133.2570   72.3760  226.5840 C   0  0  0  0  0  0  0  0  0  0  0  0
  132.0290   72.3520  227.2140 C   0  0  0  0  0  0  0  0  0  0  0  0
  131.3790   73.4770  227.6620 C   0  0  0  0  0  0  0  0  0  0  0  0
  131.9720   74.7070  227.4790 C   0  0  0  0  0  0  0  0  0  0  0  0
  131.3270   75.8410  227.9250 C   0  0  0  0  0  0  0  0  0  0  0  0
  131.9590   77.0490  227.7200 C   0  0  0  0  0  0  0  0  0  0  0  0
  131.1660   78.5130  228.2760 Cl  0  0  0  0  0  0  0  0  0  0  0  0
  133.1860   77.1450  227.0990 C   0  0  0  0  0  0  0  0  0  0  0  0
  133.7990   75.9740  226.6660 C   0  0  0  0  0  0  0  0  0  0  0  0
  133.2010   74.7340  226.8490 C   0  0  0  0  0  0  0  0  0  0  0  0
  133.8180   73.6010  226.4180 N   0  0  0  0  0  0  0  0  0  0  0  0
  135.2100   72.2230  224.7450 H   0  0  0  0  0  0  0  0  0  0  0  0
  136.1062   69.5423  225.4747 H   0  0  0  0  0  0  0  0  0  0  0  0
  134.9268   69.3931  224.1474 H   0  0  0  0  0  0  0  0  0  0  0  0
  137.2400   67.7481  223.5185 H   0  0  0  0  0  0  0  0  0  0  0  0
  136.7345   68.3689  221.9461 H   0  0  0  0  0  0  0  0  0  0  0  0
  139.4385   67.4325  222.8744 H   0  0  0  0  0  0  0  0  0  0  0  0
  138.7582   67.3315  221.2624 H   0  0  0  0  0  0  0  0  0  0  0  0
  140.6048   69.1844  221.6969 H   0  0  0  0  0  0  0  0  0  0  0  0
  139.2020   69.7498  220.8540 H   0  0  0  0  0  0  0  0  0  0  0  0
  139.6927   69.8647  223.9858 H   0  0  0  0  0  0  0  0  0  0  0  0
  140.1573   71.6534  221.9923 H   0  0  0  0  0  0  0  0  0  0  0  0
  138.5871   72.1376  222.6982 H   0  0  0  0  0  0  0  0  0  0  0  0
  140.9986   70.1692  223.9486 H   0  0  0  0  0  0  0  0  0  0  0  0
  141.9336   71.5238  224.7605 H   0  0  0  0  0  0  0  0  0  0  0  0
  140.9978   72.5208  226.7656 H   0  0  0  0  0  0  0  0  0  0  0  0
  140.2712   71.9748  229.0744 H   0  0  0  0  0  0  0  0  0  0  0  0
  139.3381   69.7023  229.5031 H   0  0  0  0  0  0  0  0  0  0  0  0
  139.1491   68.0651  227.6913 H   0  0  0  0  0  0  0  0  0  0  0  0
  139.8812   68.6124  225.3714 H   0  0  0  0  0  0  0  0  0  0  0  0
  131.5430   71.3770  227.3661 H   0  0  0  0  0  0  0  0  0  0  0  0
  130.4009   73.3966  228.1588 H   0  0  0  0  0  0  0  0  0  0  0  0
  130.3483   75.7842  228.4239 H   0  0  0  0  0  0  0  0  0  0  0  0
  133.6679   78.1225  226.9498 H   0  0  0  0  0  0  0  0  0  0  0  0
  134.7782   76.0313  226.1681 H   0  0  0  0  0  0  0  0  0  0  0  0
  1  2  2  0
  2  3  1  0
  3  4  1  0
  4  5  1  0
  5  6  2  0
  5  7  1  0
  7  8  1  0
  8  9  1  0
  9 10  1  0
 10 11  1  0
 11 12  1  0
 12 13  1  0
 13 14  1  0
 14 15  1  0
 15 16  2  0
 16 17  1  0
 17 18  2  0
 18 19  1  0
 19 20  2  0
  2 21  1  0
 21 22  2  0
 22 23  1  0
 23 24  2  0
 24 25  1  0
 25 26  2  0
 26 27  1  0
 26 28  1  0
 28 29  2  0
 29 30  1  0
 30 31  2  0
 11  7  1  0
 20 15  1  0
 31 21  1  0
 30 24  1  0
  3 32  1  0
  4 33  1  0
  4 34  1  0
  8 35  1  0
  8 36  1  0
  9 37  1  0
  9 38  1  0
 10 39  1  0
 10 40  1  0
 11 41  1  1
 12 42  1  0
 12 43  1  0
 14 44  1  0
 14 45  1  0
 16 46  1  0
 17 47  1  0
 18 48  1  0
 19 49  1  0
 20 50  1  0
 22 51  1  0
 23 52  1  0
 25 53  1  0
 28 54  1  0
 29 55  1  0
M  END
>  <smiles>  (42) 
O=C(NCC(=O)N1CCC[C@H]1COCc1ccccc1)c1ccc2cc(Cl)ccc2n1

>  <score_type>  (42) 
oracle

>  <origin>  (42) 
autodockgpu

>  <m_score__min__energy>  (42) 
-9.1699999999999999

>  <m_primary>  (42) 
energy

>  <rmsd>  (42) 
8.399826727147687

>  <m_score__min__rmsd>  (42) 
8.399826727147687

>  <meeko>  (42) 
{"free_energy": -8.06, "intermolecular_energy": -10.44, "internal_energy": -2.52, "cluster_size": 3, "cluster_id": 4, "rank_in_cluster": 1}

>  <energy>  (42) 
-7.56

>  <cluster_rmsd>  (42) 
0.88

>  <cluster>  (42) 
3

$$$$

     RDKit          3D

 55 58  0  0  0  0  0  0  0  0999 V2000
  141.0150   72.2190  221.5740 O   0  0  0  0  0  0  0  0  0  0  0  0
  140.2210   73.1380  221.8830 C   0  0  0  0  0  0  0  0  0  0  0  0
  138.9500   72.9270  222.4780 N   0  0  0  0  0  0  0  0  0  0  0  0
  138.4830   71.5550  222.7730 C   0  0  0  0  0  0  0  0  0  0  0  0
  137.1080   71.6510  223.2360 C   0  0  0  0  0  0  0  0  0  0  0  0
  136.3910   72.5910  222.7310 O   0  0  0  0  0  0  0  0  0  0  0  0
  136.4470   70.8380  224.1820 N   0  0  0  0  0  0  0  0  0  0  0  0
  135.0710   71.2190  224.6180 C   0  0  0  0  0  0  0  0  0  0  0  0
  134.6230   70.1030  225.5010 C   0  0  0  0  0  0  0  0  0  0  0  0
  135.4570   68.9480  225.0430 C   0  0  0  0  0  0  0  0  0  0  0  0
  136.8190   69.6460  224.8850 C   0  0  1  0  0  0  0  0  0  0  0  0
  137.7850   68.7420  224.1960 C   0  0  0  0  0  0  0  0  0  0  0  0
  138.6400   68.2080  225.1490 O   0  0  0  0  0  0  0  0  0  0  0  0
  139.9280   68.6850  225.0860 C   0  0  0  0  0  0  0  0  0  0  0  0
  140.2200   69.7910  226.0230 C   0  0  0  0  0  0  0  0  0  0  0  0
  139.7560   69.6550  227.3250 C   0  0  0  0  0  0  0  0  0  0  0  0
  139.9610   70.6150  228.2930 C   0  0  0  0  0  0  0  0  0  0  0  0
  140.6610   71.7410  227.9160 C   0  0  0  0  0  0  0  0  0  0  0  0
  141.1270   71.8910  226.6340 C   0  0  0  0  0  0  0  0  0  0  0  0
  140.9180   70.9220  225.6600 C   0  0  0  0  0  0  0  0  0  0  0  0
  140.6310   74.5150  221.6110 C   0  0  0  0  0  0  0  0  0  0  0  0
  141.5980   74.8190  220.6740 C   0  0  0  0  0  0  0  0  0  0  0  0
  142.0100   76.0990  220.3910 C   0  0  0  0  0  0  0  0  0  0  0  0
  141.4350   77.1510  221.0720 C   0  0  0  0  0  0  0  0  0  0  0  0
  141.8420   78.4380  220.7950 C   0  0  0  0  0  0  0  0  0  0  0  0
  141.2390   79.4570  221.5010 C   0  0  0  0  0  0  0  0  0  0  0  0
  141.7330   81.1100  221.1730 Cl  0  0  0  0  0  0  0  0  0  0  0  0
  140.2660   79.2240  222.4500 C   0  0  0  0  0  0  0  0  0  0  0  0
  139.8880   77.9080  222.6960 C   0  0  0  0  0  0  0  0  0  0  0  0
  140.4670   76.8480  222.0100 C   0  0  0  0  0  0  0  0  0  0  0  0
  140.0830   75.5700  222.2660 N   0  0  0  0  0  0  0  0  0  0  0  0
  138.3120   73.7370  222.7240 H   0  0  0  0  0  0  0  0  0  0  0  0
  138.5307   70.9384  221.8633 H   0  0  0  0  0  0  0  0  0  0  0  0
  139.1178   71.0862  223.5393 H   0  0  0  0  0  0  0  0  0  0  0  0
  135.0904   72.1680  225.1739 H   0  0  0  0  0  0  0  0  0  0  0  0
  134.3934   71.3680  223.7643 H   0  0  0  0  0  0  0  0  0  0  0  0
  134.8171   70.3347  226.5587 H   0  0  0  0  0  0  0  0  0  0  0  0
  133.5425   69.9078  225.4346 H   0  0  0  0  0  0  0  0  0  0  0  0
  135.4939   68.1473  225.7963 H   0  0  0  0  0  0  0  0  0  0  0  0
  135.0890   68.4414  224.1386 H   0  0  0  0  0  0  0  0  0  0  0  0
  137.3602   69.8940  225.8100 H   0  0  0  0  0  0  0  0  0  0  0  0
  137.2397   67.9316  223.6901 H   0  0  0  0  0  0  0  0  0  0  0  0
  138.3594   69.3041  223.4449 H   0  0  0  0  0  0  0  0  0  0  0  0
  140.6131   67.8544  225.3111 H   0  0  0  0  0  0  0  0  0  0  0  0
  140.0615   69.0909  224.0724 H   0  0  0  0  0  0  0  0  0  0  0  0
  139.2021   68.7438  227.5950 H   0  0  0  0  0  0  0  0  0  0  0  0
  139.5835   70.4883  229.3184 H   0  0  0  0  0  0  0  0  0  0  0  0
  140.8493   72.5331  228.6556 H   0  0  0  0  0  0  0  0  0  0  0  0
  141.6814   72.8036  226.3700 H   0  0  0  0  0  0  0  0  0  0  0  0
  141.2965   71.0534  224.6355 H   0  0  0  0  0  0  0  0  0  0  0  0
  142.0652   73.9897  220.1227 H   0  0  0  0  0  0  0  0  0  0  0  0
  142.7862   76.2815  219.6332 H   0  0  0  0  0  0  0  0  0  0  0  0
  142.6164   78.6439  220.0414 H   0  0  0  0  0  0  0  0  0  0  0  0
  139.8010   80.0567  222.9980 H   0  0  0  0  0  0  0  0  0  0  0  0
  139.1139   77.7024  223.4500 H   0  0  0  0  0  0  0  0  0  0  0  0
  1  2  2  0
  2  3  1  0
  3  4  1  0
  4  5  1  0
  5  6  2  0
  5  7  1  0
  7  8  1  0
  8  9  1  0
  9 10  1  0
 10 11  1  0
 11 12  1  0
 12 13  1  0
 13 14  1  0
 14 15  1  0
 15 16  2  0
 16 17  1  0
 17 18  2  0
 18 19  1  0
 19 20  2  0
  2 21  1  0
 21 22  2  0
 22 23  1  0
 23 24  2  0
 24 25  1  0
 25 26  2  0
 26 27  1  0
 26 28  1  0
 28 29  2  0
 29 30  1  0
 30 31  2  0
 11  7  1  0
 20 15  1  0
 31 21  1  0
 30 24  1  0
  3 32  1  0
  4 33  1  0
  4 34  1  0
  8 35  1  0
  8 36  1  0
  9 37  1  0
  9 38  1  0
 10 39  1  0
 10 40  1  0
 11 41  1  1
 12 42  1  0
 12 43  1  0
 14 44  1  0
 14 45  1  0
 16 46  1  0
 17 47  1  0
 18 48  1  0
 19 49  1  0
 20 50  1  0
 22 51  1  0
 23 52  1  0
 25 53  1  0
 28 54  1  0
 29 55  1  0
M  END
>  <smiles>  (43) 
O=C(NCC(=O)N1CCC[C@H]1COCc1ccccc1)c1ccc2cc(Cl)ccc2n1

>  <score_type>  (43) 
oracle

>  <origin>  (43) 
autodockgpu

>  <m_score__min__energy>  (43) 
-9.1699999999999999

>  <m_primary>  (43) 
energy

>  <rmsd>  (43) 
8.518786799625993

>  <m_score__min__rmsd>  (43) 
8.518786799625993

>  <meeko>  (43) 
{"free_energy": -8.19, "intermolecular_energy": -10.57, "internal_energy": -2.52, "cluster_size": 16, "cluster_id": 1, "rank_in_cluster": 8}

>  <energy>  (43) 
-8.06

>  <cluster_rmsd>  (43) 
0.0

>  <cluster>  (43) 
4

$$$$

     RDKit          3D

 55 58  0  0  0  0  0  0  0  0999 V2000
  139.9290   72.3380  220.6890 O   0  0  0  0  0  0  0  0  0  0  0  0
  139.8260   72.8090  221.8460 C   0  0  0  0  0  0  0  0  0  0  0  0
  139.6500   74.1890  222.1320 N   0  0  0  0  0  0  0  0  0  0  0  0
  139.5780   75.1750  221.0330 C   0  0  0  0  0  0  0  0  0  0  0  0
  140.6110   76.1720  221.2720 C   0  0  0  0  0  0  0  0  0  0  0  0
  140.9160   76.4070  222.4980 O   0  0  0  0  0  0  0  0  0  0  0  0
  141.3320   76.9260  220.3210 N   0  0  0  0  0  0  0  0  0  0  0  0
  142.5390   76.3180  219.6890 C   0  0  0  0  0  0  0  0  0  0  0  0
  142.9770   77.3070  218.6620 C   0  0  0  0  0  0  0  0  0  0  0  0
  141.7240   78.0670  218.3620 C   0  0  0  0  0  0  0  0  0  0  0  0
  141.1720   78.2460  219.7870 C   0  0  1  0  0  0  0  0  0  0  0  0
  139.7780   78.7790  219.7370 C   0  0  0  0  0  0  0  0  0  0  0  0
  139.8410   80.1630  219.6850 O   0  0  0  0  0  0  0  0  0  0  0  0
  139.6560   80.7840  220.8980 C   0  0  0  0  0  0  0  0  0  0  0  0
  140.6250   80.3920  221.9440 C   0  0  0  0  0  0  0  0  0  0  0  0
  141.9220   80.8740  221.8160 C   0  0  0  0  0  0  0  0  0  0  0  0
  142.9180   80.5800  222.7230 C   0  0  0  0  0  0  0  0  0  0  0  0
  142.5760   79.7740  223.7860 C   0  0  0  0  0  0  0  0  0  0  0  0
  141.2990   79.2900  223.9280 C   0  0  0  0  0  0  0  0  0  0  0  0
  140.2970   79.5870  223.0120 C   0  0  0  0  0  0  0  0  0  0  0  0
  139.8920   71.8790  222.9710 C   0  0  0  0  0  0  0  0  0  0  0  0
  139.4310   70.5810  222.8760 C   0  0  0  0  0  0  0  0  0  0  0  0
  139.4760   69.6780  223.9110 C   0  0  0  0  0  0  0  0  0  0  0  0
  140.0080   70.0730  225.1190 C   0  0  0  0  0  0  0  0  0  0  0  0
  140.0570   69.1740  226.1620 C   0  0  0  0  0  0  0  0  0  0  0  0
  140.5980   69.6140  227.3510 C   0  0  0  0  0  0  0  0  0  0  0  0
  140.6770   68.4950  228.7010 Cl  0  0  0  0  0  0  0  0  0  0  0  0
  141.0780   70.8970  227.5150 C   0  0  0  0  0  0  0  0  0  0  0  0
  141.0080   71.7690  226.4340 C   0  0  0  0  0  0  0  0  0  0  0  0
  140.4700   71.3710  225.2160 C   0  0  0  0  0  0  0  0  0  0  0  0
  140.4110   72.2400  224.1720 N   0  0  0  0  0  0  0  0  0  0  0  0
  139.5650   74.5420  223.1280 H   0  0  0  0  0  0  0  0  0  0  0  0
  139.7535   74.6760  220.0685 H   0  0  0  0  0  0  0  0  0  0  0  0
  138.5847   75.6464  220.9996 H   0  0  0  0  0  0  0  0  0  0  0  0
  143.3300   76.1618  220.4373 H   0  0  0  0  0  0  0  0  0  0  0  0
  142.3230   75.3334  219.2486 H   0  0  0  0  0  0  0  0  0  0  0  0
  143.7557   77.9728  219.0626 H   0  0  0  0  0  0  0  0  0  0  0  0
  143.4195   76.8365  217.7716 H   0  0  0  0  0  0  0  0  0  0  0  0
  141.9378   79.0337  217.8827 H   0  0  0  0  0  0  0  0  0  0  0  0
  141.0387   77.5712  217.6587 H   0  0  0  0  0  0  0  0  0  0  0  0
  141.6758   78.9865  220.4256 H   0  0  0  0  0  0  0  0  0  0  0  0
  139.2657   78.3964  218.8419 H   0  0  0  0  0  0  0  0  0  0  0  0
  139.2185   78.4590  220.6284 H   0  0  0  0  0  0  0  0  0  0  0  0
  139.7383   81.8700  220.7436 H   0  0  0  0  0  0  0  0  0  0  0  0
  138.6645   80.4736  221.2593 H   0  0  0  0  0  0  0  0  0  0  0  0
  142.1639   81.5161  220.9562 H   0  0  0  0  0  0  0  0  0  0  0  0
  143.9390   80.9713  222.6030 H   0  0  0  0  0  0  0  0  0  0  0  0
  143.3391   79.5135  224.5342 H   0  0  0  0  0  0  0  0  0  0  0  0
  141.0625   78.6496  224.7905 H   0  0  0  0  0  0  0  0  0  0  0  0
  139.2775   79.1928  223.1357 H   0  0  0  0  0  0  0  0  0  0  0  0
  139.0035   70.2510  221.9177 H   0  0  0  0  0  0  0  0  0  0  0  0
  139.0931   68.6555  223.7770 H   0  0  0  0  0  0  0  0  0  0  0  0
  139.6797   68.1468  226.0504 H   0  0  0  0  0  0  0  0  0  0  0  0
  141.5048   71.2216  228.4755 H   0  0  0  0  0  0  0  0  0  0  0  0
  141.3866   72.7958  226.5454 H   0  0  0  0  0  0  0  0  0  0  0  0
  1  2  2  0
  2  3  1  0
  3  4  1  0
  4  5  1  0
  5  6  2  0
  5  7  1  0
  7  8  1  0
  8  9  1  0
  9 10  1  0
 10 11  1  0
 11 12  1  0
 12 13  1  0
 13 14  1  0
 14 15  1  0
 15 16  2  0
 16 17  1  0
 17 18  2  0
 18 19  1  0
 19 20  2  0
  2 21  1  0
 21 22  2  0
 22 23  1  0
 23 24  2  0
 24 25  1  0
 25 26  2  0
 26 27  1  0
 26 28  1  0
 28 29  2  0
 29 30  1  0
 30 31  2  0
 11  7  1  0
 20 15  1  0
 31 21  1  0
 30 24  1  0
  3 32  1  0
  4 33  1  0
  4 34  1  0
  8 35  1  0
  8 36  1  0
  9 37  1  0
  9 38  1  0
 10 39  1  0
 10 40  1  0
 11 41  1  1
 12 42  1  0
 12 43  1  0
 14 44  1  0
 14 45  1  0
 16 46  1  0
 17 47  1  0
 18 48  1  0
 19 49  1  0
 20 50  1  0
 22 51  1  0
 23 52  1  0
 25 53  1  0
 28 54  1  0
 29 55  1  0
M  END
>  <smiles>  (44) 
O=C(NCC(=O)N1CCC[C@H]1COCc1ccccc1)c1ccc2cc(Cl)ccc2n1

>  <score_type>  (44) 
oracle

>  <origin>  (44) 
autodockgpu

>  <m_score__min__energy>  (44) 
-9.1699999999999999

>  <m_primary>  (44) 
energy

>  <rmsd>  (44) 
2.1186609045453966

>  <m_score__min__rmsd>  (44) 
2.1186609045453966

>  <meeko>  (44) 
{"free_energy": -8.41, "intermolecular_energy": -10.8, "internal_energy": -2.38, "cluster_size": 12, "cluster_id": 2, "rank_in_cluster": 4}

>  <energy>  (44) 
-8.05

>  <cluster_rmsd>  (44) 
1.25

>  <cluster>  (44) 
4

$$$$

     RDKit          3D

 55 58  0  0  0  0  0  0  0  0999 V2000
  139.8080   71.9700  220.7510 O   0  0  0  0  0  0  0  0  0  0  0  0
  139.6690   72.4550  221.8980 C   0  0  0  0  0  0  0  0  0  0  0  0
  139.4190   73.8280  222.1590 N   0  0  0  0  0  0  0  0  0  0  0  0
  139.3080   74.7910  221.0410 C   0  0  0  0  0  0  0  0  0  0  0  0
  139.4240   76.1280  221.6030 C   0  0  0  0  0  0  0  0  0  0  0  0
  138.8730   76.3250  222.7470 O   0  0  0  0  0  0  0  0  0  0  0  0
  140.0700   77.2540  221.0480 N   0  0  0  0  0  0  0  0  0  0  0  0
  139.9740   78.5600  221.7640 C   0  0  0  0  0  0  0  0  0  0  0  0
  140.8550   79.4870  220.9960 C   0  0  0  0  0  0  0  0  0  0  0  0
  141.8140   78.5630  220.3160 C   0  0  0  0  0  0  0  0  0  0  0  0
  140.8460   77.4570  219.8610 C   0  0  1  0  0  0  0  0  0  0  0  0
  141.6090   76.2780  219.3550 C   0  0  0  0  0  0  0  0  0  0  0  0
  142.5950   75.9680  220.2790 O   0  0  0  0  0  0  0  0  0  0  0  0
  142.4870   74.7080  220.8220 C   0  0  0  0  0  0  0  0  0  0  0  0
  143.6390   73.8220  220.5490 C   0  0  0  0  0  0  0  0  0  0  0  0
  144.9070   74.3570  220.7390 C   0  0  0  0  0  0  0  0  0  0  0  0
  146.0610   73.6350  220.5190 C   0  0  0  0  0  0  0  0  0  0  0  0
  145.9100   72.3330  220.0950 C   0  0  0  0  0  0  0  0  0  0  0  0
  144.6640   71.7880  219.9020 C   0  0  0  0  0  0  0  0  0  0  0  0
  143.5030   72.5190  220.1250 C   0  0  0  0  0  0  0  0  0  0  0  0
  139.7720   71.5480  223.0400 C   0  0  0  0  0  0  0  0  0  0  0  0
  139.3680   70.2310  222.9670 C   0  0  0  0  0  0  0  0  0  0  0  0
  139.4490   69.3490  224.0180 C   0  0  0  0  0  0  0  0  0  0  0  0
  139.9590   69.7880  225.2200 C   0  0  0  0  0  0  0  0  0  0  0  0
  140.0440   68.9110  226.2800 C   0  0  0  0  0  0  0  0  0  0  0  0
  140.5610   69.3960  227.4620 C   0  0  0  0  0  0  0  0  0  0  0  0
  140.6840   68.3050  228.8320 Cl  0  0  0  0  0  0  0  0  0  0  0  0
  140.9840   70.7010  227.6040 C   0  0  0  0  0  0  0  0  0  0  0  0
  140.8790   71.5500  226.5070 C   0  0  0  0  0  0  0  0  0  0  0  0
  140.3640   71.1070  225.2960 C   0  0  0  0  0  0  0  0  0  0  0  0
  140.2710   71.9540  224.2360 N   0  0  0  0  0  0  0  0  0  0  0  0
  139.3070   74.1930  223.1470 H   0  0  0  0  0  0  0  0  0  0  0  0
  140.1154   74.6176  220.3143 H   0  0  0  0  0  0  0  0  0  0  0  0
  138.3464   74.6714  220.5204 H   0  0  0  0  0  0  0  0  0  0  0  0
  138.9363   78.9249  221.7651 H   0  0  0  0  0  0  0  0  0  0  0  0
  140.2798   78.4772  222.8174 H   0  0  0  0  0  0  0  0  0  0  0  0
  140.2748   80.0640  220.2609 H   0  0  0  0  0  0  0  0  0  0  0  0
  141.3531   80.2339  221.6316 H   0  0  0  0  0  0  0  0  0  0  0  0
  142.3107   79.0469  219.4621 H   0  0  0  0  0  0  0  0  0  0  0  0
  142.6480   78.2177  220.9446 H   0  0  0  0  0  0  0  0  0  0  0  0
  140.1941   77.6886  219.0058 H   0  0  0  0  0  0  0  0  0  0  0  0
  140.9308   75.4206  219.2331 H   0  0  0  0  0  0  0  0  0  0  0  0
  142.0628   76.5103  218.3803 H   0  0  0  0  0  0  0  0  0  0  0  0
  142.3838   74.8114  221.9123 H   0  0  0  0  0  0  0  0  0  0  0  0
  141.6118   74.2378  220.3499 H   0  0  0  0  0  0  0  0  0  0  0  0
  144.9940   75.3995  221.0790 H   0  0  0  0  0  0  0  0  0  0  0  0
  147.0557   74.0780  220.6748 H   0  0  0  0  0  0  0  0  0  0  0  0
  146.8032   71.7189  219.9077 H   0  0  0  0  0  0  0  0  0  0  0  0
  144.5828   70.7451  219.5618 H   0  0  0  0  0  0  0  0  0  0  0  0
  142.5101   72.0722  219.9682 H   0  0  0  0  0  0  0  0  0  0  0  0
  138.9578   69.8661  222.0138 H   0  0  0  0  0  0  0  0  0  0  0  0
  139.1118   68.3085  223.9011 H   0  0  0  0  0  0  0  0  0  0  0  0
  139.7126   67.8663  226.1863 H   0  0  0  0  0  0  0  0  0  0  0  0
  141.3935   71.0610  228.5594 H   0  0  0  0  0  0  0  0  0  0  0  0
  141.2110   72.5945  226.6009 H   0  0  0  0  0  0  0  0  0  0  0  0
  1  2  2  0
  2  3  1  0
  3  4  1  0
  4  5  1  0
  5  6  2  0
  5  7  1  0
  7  8  1  0
  8  9  1  0
  9 10  1  0
 10 11  1  0
 11 12  1  0
 12 13  1  0
 13 14  1  0
 14 15  1  0
 15 16  2  0
 16 17  1  0
 17 18  2  0
 18 19  1  0
 19 20  2  0
  2 21  1  0
 21 22  2  0
 22 23  1  0
 23 24  2  0
 24 25  1  0
 25 26  2  0
 26 27  1  0
 26 28  1  0
 28 29  2  0
 29 30  1  0
 30 31  2  0
 11  7  1  0
 20 15  1  0
 31 21  1  0
 30 24  1  0
  3 32  1  0
  4 33  1  0
  4 34  1  0
  8 35  1  0
  8 36  1  0
  9 37  1  0
  9 38  1  0
 10 39  1  0
 10 40  1  0
 11 41  1  6
 12 42  1  0
 12 43  1  0
 14 44  1  0
 14 45  1  0
 16 46  1  0
 17 47  1  0
 18 48  1  0
 19 49  1  0
 20 50  1  0
 22 51  1  0
 23 52  1  0
 25 53  1  0
 28 54  1  0
 29 55  1  0
M  END
>  <smiles>  (45) 
O=C(NCC(=O)N1CCC[C@H]1COCc1ccccc1)c1ccc2cc(Cl)ccc2n1

>  <score_type>  (45) 
oracle

>  <origin>  (45) 
autodockgpu

>  <m_score__min__energy>  (45) 
-9.1699999999999999

>  <m_primary>  (45) 
energy

>  <rmsd>  (45) 
2.476025736108167

>  <m_score__min__rmsd>  (45) 
2.476025736108167

>  <meeko>  (45) 
{"free_energy": -7.95, "intermolecular_energy": -10.34, "internal_energy": -2.49, "cluster_size": 14, "cluster_id": 3, "rank_in_cluster": 3}

>  <energy>  (45) 
-7.99

>  <cluster_rmsd>  (45) 
1.29

>  <cluster>  (45) 
4

$$$$

     RDKit          3D

 55 58  0  0  0  0  0  0  0  0999 V2000
  140.2280   72.3600  220.6950 O   0  0  0  0  0  0  0  0  0  0  0  0
  140.0150   72.8210  221.8400 C   0  0  0  0  0  0  0  0  0  0  0  0
  139.7500   74.1890  222.1130 N   0  0  0  0  0  0  0  0  0  0  0  0
  139.7120   75.1750  221.0110 C   0  0  0  0  0  0  0  0  0  0  0  0
  140.2560   76.4230  221.5220 C   0  0  0  0  0  0  0  0  0  0  0  0
  140.5020   76.4740  222.7830 O   0  0  0  0  0  0  0  0  0  0  0  0
  140.5520   77.6040  220.8070 N   0  0  0  0  0  0  0  0  0  0  0  0
  139.8650   78.8700  221.1980 C   0  0  0  0  0  0  0  0  0  0  0  0
  140.4880   79.9250  220.3470 C   0  0  0  0  0  0  0  0  0  0  0  0
  141.8230   79.3450  220.0040 C   0  0  0  0  0  0  0  0  0  0  0  0
  141.4150   77.8930  219.7000 C   0  0  1  0  0  0  0  0  0  0  0  0
  142.6270   77.0340  219.5600 C   0  0  0  0  0  0  0  0  0  0  0  0
  142.3940   76.1090  218.5540 O   0  0  0  0  0  0  0  0  0  0  0  0
  143.4800   75.3260  218.2400 C   0  0  0  0  0  0  0  0  0  0  0  0
  143.8100   74.3000  219.2530 C   0  0  0  0  0  0  0  0  0  0  0  0
  143.0410   73.1430  219.2530 C   0  0  0  0  0  0  0  0  0  0  0  0
  143.2470   72.1120  220.1450 C   0  0  0  0  0  0  0  0  0  0  0  0
  144.2660   72.2720  221.0580 C   0  0  0  0  0  0  0  0  0  0  0  0
  145.0360   73.4080  221.0710 C   0  0  0  0  0  0  0  0  0  0  0  0
  144.8260   74.4460  220.1700 C   0  0  0  0  0  0  0  0  0  0  0  0
  140.0440   71.8900  222.9670 C   0  0  0  0  0  0  0  0  0  0  0  0
  139.5790   70.5950  222.8590 C   0  0  0  0  0  0  0  0  0  0  0  0
  139.5890   69.6920  223.8950 C   0  0  0  0  0  0  0  0  0  0  0  0
  140.0870   70.0850  225.1180 C   0  0  0  0  0  0  0  0  0  0  0  0
  140.1010   69.1860  226.1620 C   0  0  0  0  0  0  0  0  0  0  0  0
  140.6090   69.6250  227.3670 C   0  0  0  0  0  0  0  0  0  0  0  0
  140.6410   68.5050  228.7190 Cl  0  0  0  0  0  0  0  0  0  0  0  0
  141.0900   70.9050  227.5440 C   0  0  0  0  0  0  0  0  0  0  0  0
  141.0550   71.7770  226.4610 C   0  0  0  0  0  0  0  0  0  0  0  0
  140.5520   71.3810  225.2290 C   0  0  0  0  0  0  0  0  0  0  0  0
  140.5280   72.2500  224.1830 N   0  0  0  0  0  0  0  0  0  0  0  0
  139.5740   74.5330  223.0990 H   0  0  0  0  0  0  0  0  0  0  0  0
  140.3200   74.8181  220.1666 H   0  0  0  0  0  0  0  0  0  0  0  0
  138.6811   75.3187  220.6551 H   0  0  0  0  0  0  0  0  0  0  0  0
  138.7852   78.8011  221.0001 H   0  0  0  0  0  0  0  0  0  0  0  0
  139.9750   79.0858  222.2710 H   0  0  0  0  0  0  0  0  0  0  0  0
  139.8911   80.1037  219.4405 H   0  0  0  0  0  0  0  0  0  0  0  0
  140.5586   80.8998  220.8518 H   0  0  0  0  0  0  0  0  0  0  0  0
  142.2678   79.8362  219.1260 H   0  0  0  0  0  0  0  0  0  0  0  0
  142.5902   79.4564  220.7843 H   0  0  0  0  0  0  0  0  0  0  0  0
  140.8977   77.7119  218.7463 H   0  0  0  0  0  0  0  0  0  0  0  0
  143.4953   77.6565  219.2984 H   0  0  0  0  0  0  0  0  0  0  0  0
  142.8352   76.5167  220.5082 H   0  0  0  0  0  0  0  0  0  0  0  0
  143.2714   74.8148  217.2886 H   0  0  0  0  0  0  0  0  0  0  0  0
  144.3468   76.0010  218.1846 H   0  0  0  0  0  0  0  0  0  0  0  0
  142.2348   73.0454  218.5110 H   0  0  0  0  0  0  0  0  0  0  0  0
  142.6265   71.2039  220.1284 H   0  0  0  0  0  0  0  0  0  0  0  0
  144.4661   71.4752  221.7895 H   0  0  0  0  0  0  0  0  0  0  0  0
  145.8414   73.4998  221.8146 H   0  0  0  0  0  0  0  0  0  0  0  0
  145.4498   75.3518  220.1894 H   0  0  0  0  0  0  0  0  0  0  0  0
  139.1776   70.2671  221.8888 H   0  0  0  0  0  0  0  0  0  0  0  0
  139.2054   68.6713  223.7500 H   0  0  0  0  0  0  0  0  0  0  0  0
  139.7226   68.1604  226.0396 H   0  0  0  0  0  0  0  0  0  0  0  0
  141.4909   71.2280  228.5161 H   0  0  0  0  0  0  0  0  0  0  0  0
  141.4340   72.8024  226.5832 H   0  0  0  0  0  0  0  0  0  0  0  0
  1  2  2  0
  2  3  1  0
  3  4  1  0
  4  5  1  0
  5  6  2  0
  5  7  1  0
  7  8  1  0
  8  9  1  0
  9 10  1  0
 10 11  1  0
 11 12  1  0
 12 13  1  0
 13 14  1  0
 14 15  1  0
 15 16  2  0
 16 17  1  0
 17 18  2  0
 18 19  1  0
 19 20  2  0
  2 21  1  0
 21 22  2  0
 22 23  1  0
 23 24  2  0
 24 25  1  0
 25 26  2  0
 26 27  1  0
 26 28  1  0
 28 29  2  0
 29 30  1  0
 30 31  2  0
 11  7  1  0
 20 15  1  0
 31 21  1  0
 30 24  1  0
  3 32  1  0
  4 33  1  0
  4 34  1  0
  8 35  1  0
  8 36  1  0
  9 37  1  0
  9 38  1  0
 10 39  1  0
 10 40  1  0
 11 41  1  6
 12 42  1  0
 12 43  1  0
 14 44  1  0
 14 45  1  0
 16 46  1  0
 17 47  1  0
 18 48  1  0
 19 49  1  0
 20 50  1  0
 22 51  1  0
 23 52  1  0
 25 53  1  0
 28 54  1  0
 29 55  1  0
M  END
>  <smiles>  (46) 
O=C(NCC(=O)N1CCC[C@H]1COCc1ccccc1)c1ccc2cc(Cl)ccc2n1

>  <score_type>  (46) 
oracle

>  <origin>  (46) 
autodockgpu

>  <m_score__min__energy>  (46) 
-9.1699999999999999

>  <m_primary>  (46) 
energy

>  <rmsd>  (46) 
2.5655627990175107

>  <m_score__min__rmsd>  (46) 
2.5655627990175107

>  <meeko>  (46) 
{"free_energy": -7.56, "intermolecular_energy": -9.95, "internal_energy": -2.76, "cluster_size": 14, "cluster_id": 3, "rank_in_cluster": 14}

>  <energy>  (46) 
-7.76

>  <cluster_rmsd>  (46) 
0.0

>  <cluster>  (46) 
5

$$$$

     RDKit          3D

 55 58  0  0  0  0  0  0  0  0999 V2000
  133.3850   69.7410  226.7520 O   0  0  0  0  0  0  0  0  0  0  0  0
  133.8560   70.8000  226.2760 C   0  0  0  0  0  0  0  0  0  0  0  0
  134.9710   70.8540  225.3990 N   0  0  0  0  0  0  0  0  0  0  0  0
  135.6580   69.6100  224.9890 C   0  0  0  0  0  0  0  0  0  0  0  0
  136.1430   69.8050  223.6320 C   0  0  0  0  0  0  0  0  0  0  0  0
  136.1110   71.0050  223.1730 O   0  0  0  0  0  0  0  0  0  0  0  0
  136.6510   68.8370  222.7390 N   0  0  0  0  0  0  0  0  0  0  0  0
  135.8630   68.5080  221.5150 C   0  0  0  0  0  0  0  0  0  0  0  0
  136.7250   67.5660  220.7420 C   0  0  0  0  0  0  0  0  0  0  0  0
  138.1020   67.8860  221.2280 C   0  0  0  0  0  0  0  0  0  0  0  0
  137.8300   68.0230  222.7370 C   0  0  1  0  0  0  0  0  0  0  0  0
  139.0270   68.5850  223.4280 C   0  0  0  0  0  0  0  0  0  0  0  0
  139.2000   67.9050  224.6240 O   0  0  0  0  0  0  0  0  0  0  0  0
  138.6650   68.5410  225.7210 C   0  0  0  0  0  0  0  0  0  0  0  0
  139.5110   69.6200  226.2780 C   0  0  0  0  0  0  0  0  0  0  0  0
  139.6080   69.6950  227.6610 C   0  0  0  0  0  0  0  0  0  0  0  0
  140.3630   70.6540  228.3040 C   0  0  0  0  0  0  0  0  0  0  0  0
  141.0330   71.5560  227.5070 C   0  0  0  0  0  0  0  0  0  0  0  0
  140.9480   71.4960  226.1380 C   0  0  0  0  0  0  0  0  0  0  0  0
  140.1860   70.5280  225.4940 C   0  0  0  0  0  0  0  0  0  0  0  0
  133.2180   72.0610  226.6510 C   0  0  0  0  0  0  0  0  0  0  0  0
  131.9680   72.1030  227.2350 C   0  0  0  0  0  0  0  0  0  0  0  0
  131.3360   73.2670  227.6010 C   0  0  0  0  0  0  0  0  0  0  0  0
  131.9700   74.4690  227.3780 C   0  0  0  0  0  0  0  0  0  0  0  0
  131.3430   75.6420  227.7410 C   0  0  0  0  0  0  0  0  0  0  0  0
  132.0170   76.8200  227.4990 C   0  0  0  0  0  0  0  0  0  0  0  0
  131.2480   78.3330  227.9500 Cl  0  0  0  0  0  0  0  0  0  0  0  0
  133.2680   76.8500  226.9190 C   0  0  0  0  0  0  0  0  0  0  0  0
  133.8610   75.6420  226.5690 C   0  0  0  0  0  0  0  0  0  0  0  0
  133.2210   74.4300  226.7930 C   0  0  0  0  0  0  0  0  0  0  0  0
  133.8190   73.2600  226.4430 N   0  0  0  0  0  0  0  0  0  0  0  0
  135.3350   71.7740  225.0200 H   0  0  0  0  0  0  0  0  0  0  0  0
  136.5025   69.4074  225.6641 H   0  0  0  0  0  0  0  0  0  0  0  0
  134.9688   68.7539  225.0347 H   0  0  0  0  0  0  0  0  0  0  0  0
  134.9112   68.0276  221.7855 H   0  0  0  0  0  0  0  0  0  0  0  0
  135.6083   69.4065  220.9338 H   0  0  0  0  0  0  0  0  0  0  0  0
  136.4623   66.5206  220.9614 H   0  0  0  0  0  0  0  0  0  0  0  0
  136.6155   67.6759  219.6530 H   0  0  0  0  0  0  0  0  0  0  0  0
  138.8098   67.0718  221.0134 H   0  0  0  0  0  0  0  0  0  0  0  0
  138.5647   68.7672  220.7595 H   0  0  0  0  0  0  0  0  0  0  0  0
  137.6603   67.0921  223.2979 H   0  0  0  0  0  0  0  0  0  0  0  0
  139.9169   68.4553  222.7946 H   0  0  0  0  0  0  0  0  0  0  0  0
  138.8837   69.6585  223.6203 H   0  0  0  0  0  0  0  0  0  0  0  0
  137.6993   68.9784  225.4275 H   0  0  0  0  0  0  0  0  0  0  0  0
  138.5704   67.7793  226.5090 H   0  0  0  0  0  0  0  0  0  0  0  0
  139.0604   68.9597  228.2689 H   0  0  0  0  0  0  0  0  0  0  0  0
  140.4270   70.6964  229.4013 H   0  0  0  0  0  0  0  0  0  0  0  0
  141.6474   72.3387  227.9760 H   0  0  0  0  0  0  0  0  0  0  0  0
  141.4975   72.2336  225.5347 H   0  0  0  0  0  0  0  0  0  0  0  0
  140.1246   70.4890  224.3964 H   0  0  0  0  0  0  0  0  0  0  0  0
  131.4484   71.1508  227.4178 H   0  0  0  0  0  0  0  0  0  0  0  0
  130.3390   73.2391  228.0650 H   0  0  0  0  0  0  0  0  0  0  0  0
  130.3456   75.6381  228.2048 H   0  0  0  0  0  0  0  0  0  0  0  0
  133.7833   77.8048  226.7380 H   0  0  0  0  0  0  0  0  0  0  0  0
  134.8582   75.6464  226.1048 H   0  0  0  0  0  0  0  0  0  0  0  0
  1  2  2  0
  2  3  1  0
  3  4  1  0
  4  5  1  0
  5  6  2  0
  5  7  1  0
  7  8  1  0
  8  9  1  0
  9 10  1  0
 10 11  1  0
 11 12  1  0
 12 13  1  0
 13 14  1  0
 14 15  1  0
 15 16  2  0
 16 17  1  0
 17 18  2  0
 18 19  1  0
 19 20  2  0
  2 21  1  0
 21 22  2  0
 22 23  1  0
 23 24  2  0
 24 25  1  0
 25 26  2  0
 26 27  1  0
 26 28  1  0
 28 29  2  0
 29 30  1  0
 30 31  2  0
 11  7  1  0
 20 15  1  0
 31 21  1  0
 30 24  1  0
  3 32  1  0
  4 33  1  0
  4 34  1  0
  8 35  1  0
  8 36  1  0
  9 37  1  0
  9 38  1  0
 10 39  1  0
 10 40  1  0
 11 41  1  1
 12 42  1  0
 12 43  1  0
 14 44  1  0
 14 45  1  0
 16 46  1  0
 17 47  1  0
 18 48  1  0
 19 49  1  0
 20 50  1  0
 22 51  1  0
 23 52  1  0
 25 53  1  0
 28 54  1  0
 29 55  1  0
M  END
>  <smiles>  (47) 
O=C(NCC(=O)N1CCC[C@H]1COCc1ccccc1)c1ccc2cc(Cl)ccc2n1

>  <score_type>  (47) 
oracle

>  <origin>  (47) 
autodockgpu

>  <m_score__min__energy>  (47) 
-9.1699999999999999

>  <m_primary>  (47) 
energy

>  <rmsd>  (47) 
8.784766005468818

>  <m_score__min__rmsd>  (47) 
8.784766005468818

>  <meeko>  (47) 
{"free_energy": -8.05, "intermolecular_energy": -10.44, "internal_energy": -2.29, "cluster_size": 3, "cluster_id": 4, "rank_in_cluster": 2}

>  <energy>  (47) 
-7.68

>  <cluster_rmsd>  (47) 
0.58

>  <cluster>  (47) 
5

$$$$

     RDKit          3D

 55 58  0  0  0  0  0  0  0  0999 V2000
  139.2410   74.0060  222.3120 O   0  0  0  0  0  0  0  0  0  0  0  0
  139.9550   72.9950  222.1190 C   0  0  0  0  0  0  0  0  0  0  0  0
  140.7160   72.7670  220.9420 N   0  0  0  0  0  0  0  0  0  0  0  0
  140.7000   73.7550  219.8420 C   0  0  0  0  0  0  0  0  0  0  0  0
  141.6430   74.8080  220.1860 C   0  0  0  0  0  0  0  0  0  0  0  0
  142.3610   74.6220  221.2360 O   0  0  0  0  0  0  0  0  0  0  0  0
  141.8760   76.0250  219.5100 N   0  0  0  0  0  0  0  0  0  0  0  0
  142.9270   76.0680  218.4520 C   0  0  0  0  0  0  0  0  0  0  0  0
  142.8280   77.4350  217.8630 C   0  0  0  0  0  0  0  0  0  0  0  0
  141.4200   77.8380  218.1690 C   0  0  0  0  0  0  0  0  0  0  0  0
  141.3060   77.3350  219.6190 C   0  0  1  0  0  0  0  0  0  0  0  0
  139.8880   77.4070  220.0790 C   0  0  0  0  0  0  0  0  0  0  0  0
  139.8660   77.2240  221.4540 O   0  0  0  0  0  0  0  0  0  0  0  0
  141.0820   77.4070  222.0700 C   0  0  0  0  0  0  0  0  0  0  0  0
  141.2820   78.7540  222.6480 C   0  0  0  0  0  0  0  0  0  0  0  0
  142.5520   79.3060  222.5390 C   0  0  0  0  0  0  0  0  0  0  0  0
  142.8670   80.5520  223.0370 C   0  0  0  0  0  0  0  0  0  0  0  0
  141.8550   81.2490  223.6600 C   0  0  0  0  0  0  0  0  0  0  0  0
  140.5940   80.7180  223.7750 C   0  0  0  0  0  0  0  0  0  0  0  0
  140.2800   79.4620  223.2730 C   0  0  0  0  0  0  0  0  0  0  0  0
  140.0050   71.9840  223.1740 C   0  0  0  0  0  0  0  0  0  0  0  0
  139.5770   70.6880  222.9670 C   0  0  0  0  0  0  0  0  0  0  0  0
  139.6080   69.7110  223.9330 C   0  0  0  0  0  0  0  0  0  0  0  0
  140.0910   70.0250  225.1840 C   0  0  0  0  0  0  0  0  0  0  0  0
  140.1260   69.0510  226.1590 C   0  0  0  0  0  0  0  0  0  0  0  0
  140.6170   69.4120  227.3960 C   0  0  0  0  0  0  0  0  0  0  0  0
  140.6760   68.1960  228.6610 Cl  0  0  0  0  0  0  0  0  0  0  0  0
  141.0620   70.6880  227.6710 C   0  0  0  0  0  0  0  0  0  0  0  0
  141.0070   71.6380  226.6550 C   0  0  0  0  0  0  0  0  0  0  0  0
  140.5200   71.3210  225.3940 C   0  0  0  0  0  0  0  0  0  0  0  0
  140.4760   72.2650  224.4160 N   0  0  0  0  0  0  0  0  0  0  0  0
  141.3070   71.8960  220.8250 H   0  0  0  0  0  0  0  0  0  0  0  0
  141.0020   73.2734  218.9002 H   0  0  0  0  0  0  0  0  0  0  0  0
  139.6896   74.1686  219.7075 H   0  0  0  0  0  0  0  0  0  0  0  0
  143.9231   75.9072  218.8901 H   0  0  0  0  0  0  0  0  0  0  0  0
  142.7841   75.2817  217.6962 H   0  0  0  0  0  0  0  0  0  0  0  0
  143.5462   78.1211  218.3357 H   0  0  0  0  0  0  0  0  0  0  0  0
  143.0597   77.4593  216.7880 H   0  0  0  0  0  0  0  0  0  0  0  0
  141.2840   78.9276  218.1032 H   0  0  0  0  0  0  0  0  0  0  0  0
  140.6633   77.4366  217.4790 H   0  0  0  0  0  0  0  0  0  0  0  0
  141.8259   77.9213  220.3910 H   0  0  0  0  0  0  0  0  0  0  0  0
  139.4651   78.3909  219.8280 H   0  0  0  0  0  0  0  0  0  0  0  0
  139.2890   76.6287  219.5836 H   0  0  0  0  0  0  0  0  0  0  0  0
  141.1706   76.6689  222.8808 H   0  0  0  0  0  0  0  0  0  0  0  0
  141.8484   77.2849  221.2904 H   0  0  0  0  0  0  0  0  0  0  0  0
  143.3383   78.7251  222.0347 H   0  0  0  0  0  0  0  0  0  0  0  0
  143.8797   80.9706  222.9414 H   0  0  0  0  0  0  0  0  0  0  0  0
  142.0607   82.2478  224.0723 H   0  0  0  0  0  0  0  0  0  0  0  0
  139.8109   81.3037  224.2787 H   0  0  0  0  0  0  0  0  0  0  0  0
  139.2660   79.0471  223.3712 H   0  0  0  0  0  0  0  0  0  0  0  0
  139.1892   70.4223  221.9725 H   0  0  0  0  0  0  0  0  0  0  0  0
  139.2526   68.6940  223.7105 H   0  0  0  0  0  0  0  0  0  0  0  0
  139.7765   68.0275  225.9584 H   0  0  0  0  0  0  0  0  0  0  0  0
  141.4501   70.9482  228.6668 H   0  0  0  0  0  0  0  0  0  0  0  0
  141.3568   72.6615  226.8554 H   0  0  0  0  0  0  0  0  0  0  0  0
  1  2  2  0
  2  3  1  0
  3  4  1  0
  4  5  1  0
  5  6  2  0
  5  7  1  0
  7  8  1  0
  8  9  1  0
  9 10  1  0
 10 11  1  0
 11 12  1  0
 12 13  1  0
 13 14  1  0
 14 15  1  0
 15 16  2  0
 16 17  1  0
 17 18  2  0
 18 19  1  0
 19 20  2  0
  2 21  1  0
 21 22  2  0
 22 23  1  0
 23 24  2  0
 24 25  1  0
 25 26  2  0
 26 27  1  0
 26 28  1  0
 28 29  2  0
 29 30  1  0
 30 31  2  0
 11  7  1  0
 20 15  1  0
 31 21  1  0
 30 24  1  0
  3 32  1  0
  4 33  1  0
  4 34  1  0
  8 35  1  0
  8 36  1  0
  9 37  1  0
  9 38  1  0
 10 39  1  0
 10 40  1  0
 11 41  1  1
 12 42  1  0
 12 43  1  0
 14 44  1  0
 14 45  1  0
 16 46  1  0
 17 47  1  0
 18 48  1  0
 19 49  1  0
 20 50  1  0
 22 51  1  0
 23 52  1  0
 25 53  1  0
 28 54  1  0
 29 55  1  0
M  END
>  <smiles>  (48) 
O=C(NCC(=O)N1CCC[C@H]1COCc1ccccc1)c1ccc2cc(Cl)ccc2n1

>  <score_type>  (48) 
oracle

>  <origin>  (48) 
autodockgpu

>  <m_score__min__energy>  (48) 
-9.1699999999999999

>  <m_primary>  (48) 
energy

>  <rmsd>  (48) 
2.2844482884983126

>  <m_score__min__rmsd>  (48) 
2.2844482884983126

>  <meeko>  (48) 
{"free_energy": -8.27, "intermolecular_energy": -10.66, "internal_energy": -1.82, "cluster_size": 12, "cluster_id": 2, "rank_in_cluster": 5}

>  <energy>  (48) 
-7.28

>  <cluster_rmsd>  (48) 
0.69

>  <cluster>  (48) 
5

$$$$

     RDKit          3D

 55 58  0  0  0  0  0  0  0  0999 V2000
  140.1390   72.3780  220.6510 O   0  0  0  0  0  0  0  0  0  0  0  0
  139.9450   72.8220  221.8060 C   0  0  0  0  0  0  0  0  0  0  0  0
  139.6830   74.1850  222.1040 N   0  0  0  0  0  0  0  0  0  0  0  0
  139.6250   75.1870  221.0180 C   0  0  0  0  0  0  0  0  0  0  0  0
  139.6830   76.5040  221.6340 C   0  0  0  0  0  0  0  0  0  0  0  0
  139.3100   76.5850  222.8610 O   0  0  0  0  0  0  0  0  0  0  0  0
  140.1000   77.7210  221.0530 N   0  0  0  0  0  0  0  0  0  0  0  0
  139.9010   78.9860  221.8200 C   0  0  0  0  0  0  0  0  0  0  0  0
  140.5550   80.0440  220.9950 C   0  0  0  0  0  0  0  0  0  0  0  0
  141.5540   79.2790  220.1870 C   0  0  0  0  0  0  0  0  0  0  0  0
  140.7060   78.0560  219.7980 C   0  0  1  0  0  0  0  0  0  0  0  0
  141.5670   77.0080  219.1750 C   0  0  0  0  0  0  0  0  0  0  0  0
  142.6110   76.7280  220.0430 O   0  0  0  0  0  0  0  0  0  0  0  0
  143.6980   76.1310  219.4480 C   0  0  0  0  0  0  0  0  0  0  0  0
  144.0190   74.7830  219.9660 C   0  0  0  0  0  0  0  0  0  0  0  0
  143.0110   73.8290  219.9090 C   0  0  0  0  0  0  0  0  0  0  0  0
  143.1820   72.5370  220.3600 C   0  0  0  0  0  0  0  0  0  0  0  0
  144.4180   72.2180  220.8810 C   0  0  0  0  0  0  0  0  0  0  0  0
  145.4240   73.1490  220.9430 C   0  0  0  0  0  0  0  0  0  0  0  0
  145.2480   74.4500  220.4880 C   0  0  0  0  0  0  0  0  0  0  0  0
  139.9930   71.8740  222.9190 C   0  0  0  0  0  0  0  0  0  0  0  0
  139.5460   70.5740  222.7930 C   0  0  0  0  0  0  0  0  0  0  0  0
  139.5750   69.6560  223.8140 C   0  0  0  0  0  0  0  0  0  0  0  0
  140.0750   70.0370  225.0410 C   0  0  0  0  0  0  0  0  0  0  0  0
  140.1070   69.1230  226.0710 C   0  0  0  0  0  0  0  0  0  0  0  0
  140.6150   69.5500  227.2800 C   0  0  0  0  0  0  0  0  0  0  0  0
  140.6720   68.4100  228.6140 Cl  0  0  0  0  0  0  0  0  0  0  0  0
  141.0790   70.8340  227.4740 C   0  0  0  0  0  0  0  0  0  0  0  0
  141.0260   71.7220  226.4050 C   0  0  0  0  0  0  0  0  0  0  0  0
  140.5220   71.3380  225.1690 C   0  0  0  0  0  0  0  0  0  0  0  0
  140.4790   72.2220  224.1370 N   0  0  0  0  0  0  0  0  0  0  0  0
  139.5230   74.5140  223.0980 H   0  0  0  0  0  0  0  0  0  0  0  0
  140.4787   75.0529  220.3374 H   0  0  0  0  0  0  0  0  0  0  0  0
  138.6994   75.0727  220.4347 H   0  0  0  0  0  0  0  0  0  0  0  0
  138.8289   79.1991  221.9431 H   0  0  0  0  0  0  0  0  0  0  0  0
  140.3283   78.9276  222.8319 H   0  0  0  0  0  0  0  0  0  0  0  0
  139.8232   80.5458  220.3449 H   0  0  0  0  0  0  0  0  0  0  0  0
  141.0099   80.8425  221.5995 H   0  0  0  0  0  0  0  0  0  0  0  0
  141.8830   79.8450  219.3030 H   0  0  0  0  0  0  0  0  0  0  0  0
  142.4912   79.0437  220.7126 H   0  0  0  0  0  0  0  0  0  0  0  0
  139.9388   78.2091  219.0247 H   0  0  0  0  0  0  0  0  0  0  0  0
  140.9756   76.0974  218.9989 H   0  0  0  0  0  0  0  0  0  0  0  0
  141.9609   77.3652  218.2121 H   0  0  0  0  0  0  0  0  0  0  0  0
  143.4955   76.0454  218.3702 H   0  0  0  0  0  0  0  0  0  0  0  0
  144.5663   76.7673  219.6740 H   0  0  0  0  0  0  0  0  0  0  0  0
  142.0365   74.1158  219.4869 H   0  0  0  0  0  0  0  0  0  0  0  0
  142.3707   71.7961  220.3066 H   0  0  0  0  0  0  0  0  0  0  0  0
  144.6008   71.1993  221.2535 H   0  0  0  0  0  0  0  0  0  0  0  0
  146.3971   72.8572  221.3647 H   0  0  0  0  0  0  0  0  0  0  0  0
  146.0622   75.1876  220.5431 H   0  0  0  0  0  0  0  0  0  0  0  0
  139.1439   70.2555  221.8199 H   0  0  0  0  0  0  0  0  0  0  0  0
  139.2049   68.6324  223.6552 H   0  0  0  0  0  0  0  0  0  0  0  0
  139.7422   68.0942  225.9348 H   0  0  0  0  0  0  0  0  0  0  0  0
  141.4806   71.1477  228.4489 H   0  0  0  0  0  0  0  0  0  0  0  0
  141.3911   72.7507  226.5413 H   0  0  0  0  0  0  0  0  0  0  0  0
  1  2  2  0
  2  3  1  0
  3  4  1  0
  4  5  1  0
  5  6  2  0
  5  7  1  0
  7  8  1  0
  8  9  1  0
  9 10  1  0
 10 11  1  0
 11 12  1  0
 12 13  1  0
 13 14  1  0
 14 15  1  0
 15 16  2  0
 16 17  1  0
 17 18  2  0
 18 19  1  0
 19 20  2  0
  2 21  1  0
 21 22  2  0
 22 23  1  0
 23 24  2  0
 24 25  1  0
 25 26  2  0
 26 27  1  0
 26 28  1  0
 28 29  2  0
 29 30  1  0
 30 31  2  0
 11  7  1  0
 20 15  1  0
 31 21  1  0
 30 24  1  0
  3 32  1  0
  4 33  1  0
  4 34  1  0
  8 35  1  0
  8 36  1  0
  9 37  1  0
  9 38  1  0
 10 39  1  0
 10 40  1  0
 11 41  1  6
 12 42  1  0
 12 43  1  0
 14 44  1  0
 14 45  1  0
 16 46  1  0
 17 47  1  0
 18 48  1  0
 19 49  1  0
 20 50  1  0
 22 51  1  0
 23 52  1  0
 25 53  1  0
 28 54  1  0
 29 55  1  0
M  END
>  <smiles>  (49) 
O=C(NCC(=O)N1CCC[C@H]1COCc1ccccc1)c1ccc2cc(Cl)ccc2n1

>  <score_type>  (49) 
oracle

>  <origin>  (49) 
autodockgpu

>  <m_score__min__energy>  (49) 
-9.1699999999999999

>  <m_primary>  (49) 
energy

>  <rmsd>  (49) 
2.740783900849364

>  <m_score__min__rmsd>  (49) 
2.740783900849364

>  <meeko>  (49) 
{"free_energy": -7.95, "intermolecular_energy": -10.34, "internal_energy": -2.7, "cluster_size": 14, "cluster_id": 3, "rank_in_cluster": 4}

>  <energy>  (49) 
-7.46

>  <cluster_rmsd>  (49) 
0.0

>  <cluster>  (49) 
6

$$$$

     RDKit          3D

 55 58  0  0  0  0  0  0  0  0999 V2000
  138.0730   71.2070  220.9560 O   0  0  0  0  0  0  0  0  0  0  0  0
  138.4380   71.7970  221.9990 C   0  0  0  0  0  0  0  0  0  0  0  0
  138.4850   73.2090  222.1420 N   0  0  0  0  0  0  0  0  0  0  0  0
  138.0890   74.0850  221.0190 C   0  0  0  0  0  0  0  0  0  0  0  0
  139.1480   74.0270  220.0240 C   0  0  0  0  0  0  0  0  0  0  0  0
  138.9010   74.5660  218.8830 O   0  0  0  0  0  0  0  0  0  0  0  0
  140.4290   73.4470  220.1460 N   0  0  0  0  0  0  0  0  0  0  0  0
  140.7010   72.1550  219.4490 C   0  0  0  0  0  0  0  0  0  0  0  0
  142.1520   71.8930  219.6720 C   0  0  0  0  0  0  0  0  0  0  0  0
  142.7110   73.2570  219.9240 C   0  0  0  0  0  0  0  0  0  0  0  0
  141.6190   73.8290  220.8460 C   0  0  1  0  0  0  0  0  0  0  0  0
  141.8300   75.2920  221.0490 C   0  0  0  0  0  0  0  0  0  0  0  0
  141.0580   75.6990  222.1270 O   0  0  0  0  0  0  0  0  0  0  0  0
  140.3500   76.8580  221.9120 C   0  0  0  0  0  0  0  0  0  0  0  0
  141.1120   78.1000  222.1680 C   0  0  0  0  0  0  0  0  0  0  0  0
  141.4700   78.3610  223.4850 C   0  0  0  0  0  0  0  0  0  0  0  0
  142.1810   79.4840  223.8540 C   0  0  0  0  0  0  0  0  0  0  0  0
  142.5320   80.3580  222.8490 C   0  0  0  0  0  0  0  0  0  0  0  0
  142.1860   80.1150  221.5430 C   0  0  0  0  0  0  0  0  0  0  0  0
  141.4700   78.9820  221.1740 C   0  0  0  0  0  0  0  0  0  0  0  0
  138.8430   70.9790  223.1400 C   0  0  0  0  0  0  0  0  0  0  0  0
  138.5180   69.6400  223.2340 C   0  0  0  0  0  0  0  0  0  0  0  0
  138.8800   68.8390  224.2900 C   0  0  0  0  0  0  0  0  0  0  0  0
  139.6090   69.3870  225.3230 C   0  0  0  0  0  0  0  0  0  0  0  0
  139.9760   68.5910  226.3870 C   0  0  0  0  0  0  0  0  0  0  0  0
  140.7050   69.1820  227.3970 C   0  0  0  0  0  0  0  0  0  0  0  0
  141.1900   68.1970  228.7670 Cl  0  0  0  0  0  0  0  0  0  0  0  0
  141.0650   70.5140  227.3670 C   0  0  0  0  0  0  0  0  0  0  0  0
  140.6710   71.2770  226.2730 C   0  0  0  0  0  0  0  0  0  0  0  0
  139.9360   70.7260  225.2320 C   0  0  0  0  0  0  0  0  0  0  0  0
  139.5620   71.4910  224.1720 N   0  0  0  0  0  0  0  0  0  0  0  0
  138.7990   73.6640  223.0450 H   0  0  0  0  0  0  0  0  0  0  0  0
  137.1436   73.7311  220.5821 H   0  0  0  0  0  0  0  0  0  0  0  0
  137.9412   75.1179  221.3672 H   0  0  0  0  0  0  0  0  0  0  0  0
  140.0917   71.3473  219.8807 H   0  0  0  0  0  0  0  0  0  0  0  0
  140.4498   72.2023  218.3791 H   0  0  0  0  0  0  0  0  0  0  0  0
  142.3052   71.2371  220.5417 H   0  0  0  0  0  0  0  0  0  0  0  0
  142.6325   71.3795  218.8262 H   0  0  0  0  0  0  0  0  0  0  0  0
  143.6876   73.2109  220.4281 H   0  0  0  0  0  0  0  0  0  0  0  0
  142.9099   73.8500  219.0191 H   0  0  0  0  0  0  0  0  0  0  0  0
  141.5972   73.4567  221.8809 H   0  0  0  0  0  0  0  0  0  0  0  0
  142.8920   75.4891  221.2569 H   0  0  0  0  0  0  0  0  0  0  0  0
  141.5385   75.8456  220.1442 H   0  0  0  0  0  0  0  0  0  0  0  0
  140.0187   76.8684  220.8631 H   0  0  0  0  0  0  0  0  0  0  0  0
  139.5145   76.8510  222.6275 H   0  0  0  0  0  0  0  0  0  0  0  0
  141.1746   77.6434  224.2646 H   0  0  0  0  0  0  0  0  0  0  0  0
  142.4550   79.6728  224.9025 H   0  0  0  0  0  0  0  0  0  0  0  0
  143.0997   81.2669  223.0973 H   0  0  0  0  0  0  0  0  0  0  0  0
  142.4833   80.8363  220.7675 H   0  0  0  0  0  0  0  0  0  0  0  0
  141.1990   78.7969  220.1241 H   0  0  0  0  0  0  0  0  0  0  0  0
  137.9361   69.1890  222.4167 H   0  0  0  0  0  0  0  0  0  0  0  0
  138.5925   67.7774  224.3105 H   0  0  0  0  0  0  0  0  0  0  0  0
  139.6985   67.5274  226.4285 H   0  0  0  0  0  0  0  0  0  0  0  0
  141.6479   70.9601  228.1863 H   0  0  0  0  0  0  0  0  0  0  0  0
  140.9479   72.3408  226.2316 H   0  0  0  0  0  0  0  0  0  0  0  0
  1  2  2  0
  2  3  1  0
  3  4  1  0
  4  5  1  0
  5  6  2  0
  5  7  1  0
  7  8  1  0
  8  9  1  0
  9 10  1  0
 10 11  1  0
 11 12  1  0
 12 13  1  0
 13 14  1  0
 14 15  1  0
 15 16  2  0
 16 17  1  0
 17 18  2  0
 18 19  1  0
 19 20  2  0
  2 21  1  0
 21 22  2  0
 22 23  1  0
 23 24  2  0
 24 25  1  0
 25 26  2  0
 26 27  1  0
 26 28  1  0
 28 29  2  0
 29 30  1  0
 30 31  2  0
 11  7  1  0
 20 15  1  0
 31 21  1  0
 30 24  1  0
  3 32  1  0
  4 33  1  0
  4 34  1  0
  8 35  1  0
  8 36  1  0
  9 37  1  0
  9 38  1  0
 10 39  1  0
 10 40  1  0
 11 41  1  1
 12 42  1  0
 12 43  1  0
 14 44  1  0
 14 45  1  0
 16 46  1  0
 17 47  1  0
 18 48  1  0
 19 49  1  0
 20 50  1  0
 22 51  1  0
 23 52  1  0
 25 53  1  0
 28 54  1  0
 29 55  1  0
M  END
>  <smiles>  (50) 
O=C(NCC(=O)N1CCC[C@H]1COCc1ccccc1)c1ccc2cc(Cl)ccc2n1

>  <score_type>  (50) 
oracle

>  <origin>  (50) 
autodockgpu

>  <m_score__min__energy>  (50) 
-9.1699999999999999

>  <m_primary>  (50) 
energy

>  <rmsd>  (50) 
2.5219702206893686

>  <m_score__min__rmsd>  (50) 
2.5219702206893686

>  <meeko>  (50) 
{"free_energy": -7.91, "intermolecular_energy": -10.3, "internal_energy": -2.2, "cluster_size": 12, "cluster_id": 2, "rank_in_cluster": 11}

>  <energy>  (50) 
-6.81

>  <cluster_rmsd>  (50) 
0.0

>  <cluster>  (50) 
7

$$$$
