
     RDKit          3D

 48 51  0  0  0  0  0  0  0  0999 V2000
  138.7830   70.5790  221.2640 O   0  0  0  0  0  0  0  0  0  0  0  0
  138.9890   71.4170  222.1990 C   0  0  0  0  0  0  0  0  0  0  0  0
  138.6710   72.7890  221.9740 N   0  0  0  0  0  0  0  0  0  0  0  0
  138.1270   73.1260  220.6740 C   0  0  0  0  0  0  0  0  0  0  0  0
  139.0980   73.8870  219.8500 C   0  0  0  0  0  0  0  0  0  0  0  0
  138.6720   74.7560  219.0470 O   0  0  0  0  0  0  0  0  0  0  0  0
  140.4750   73.5830  220.0220 N   0  0  0  0  0  0  0  0  0  0  0  0
  141.2340   72.7890  219.0630 C   0  0  0  0  0  0  0  0  0  0  0  0
  142.3120   72.0620  219.8770 C   0  0  0  0  0  0  0  0  0  0  0  0
  143.3380   73.0530  220.3870 C   0  0  0  0  0  0  0  0  0  0  0  0
  142.6160   74.3710  220.6730 C   0  0  0  0  0  0  0  0  0  0  0  0
  141.2160   74.0550  221.1860 C   0  0  1  0  0  0  0  0  0  0  0  0
  140.6780   75.3290  221.7260 C   0  0  0  0  0  0  0  0  0  0  0  0
  139.5000   75.5480  222.3330 N   0  0  0  0  0  0  0  0  0  0  0  0
  139.3860   76.8560  222.6790 C   0  0  0  0  0  0  0  0  0  0  0  0
  140.5550   77.4720  222.2630 C   0  0  0  0  0  0  0  0  0  0  0  0
  141.3130   76.5280  221.6940 N   0  0  0  0  0  0  0  0  0  0  0  0
  139.5420   70.9870  223.4770 C   0  0  0  0  0  0  0  0  0  0  0  0
  140.3700   71.8470  224.1700 C   0  0  0  0  0  0  0  0  0  0  0  0
  140.9310   71.5000  225.3950 C   0  0  0  0  0  0  0  0  0  0  0  0
  140.6080   70.2450  225.8710 C   0  0  0  0  0  0  0  0  0  0  0  0
  141.1110   69.7870  227.0890 C   0  0  0  0  0  0  0  0  0  0  0  0
  140.7780   68.5160  227.5610 C   0  0  0  0  0  0  0  0  0  0  0  0
  141.4360   67.9890  229.0970 Cl  0  0  0  0  0  0  0  0  0  0  0  0
  139.9420   67.7100  226.8130 C   0  0  0  0  0  0  0  0  0  0  0  0
  139.4300   68.1430  225.6000 C   0  0  0  0  0  0  0  0  0  0  0  0
  139.7750   69.4150  225.1470 C   0  0  0  0  0  0  0  0  0  0  0  0
  139.2400   69.7720  223.9580 N   0  0  0  0  0  0  0  0  0  0  0  0
  138.8200   73.5170  222.7020 H   0  0  0  0  0  0  0  0  0  0  0  0
  137.8637   72.1972  220.1467 H   0  0  0  0  0  0  0  0  0  0  0  0
  137.2404   73.7585  220.8283 H   0  0  0  0  0  0  0  0  0  0  0  0
  140.5768   72.0620  218.5633 H   0  0  0  0  0  0  0  0  0  0  0  0
  141.6777   73.4198  218.2786 H   0  0  0  0  0  0  0  0  0  0  0  0
  141.8414   71.5537  220.7315 H   0  0  0  0  0  0  0  0  0  0  0  0
  142.8134   71.3252  219.2322 H   0  0  0  0  0  0  0  0  0  0  0  0
  143.7996   72.6717  221.3098 H   0  0  0  0  0  0  0  0  0  0  0  0
  144.1301   73.2042  219.6388 H   0  0  0  0  0  0  0  0  0  0  0  0
  143.1702   74.9400  221.4340 H   0  0  0  0  0  0  0  0  0  0  0  0
  142.5535   74.9731  219.7546 H   0  0  0  0  0  0  0  0  0  0  0  0
  141.1667   73.2931  221.9779 H   0  0  0  0  0  0  0  0  0  0  0  0
  138.5349   77.3318  223.1882 H   0  0  0  0  0  0  0  0  0  0  0  0
  140.8113   78.5355  222.3786 H   0  0  0  0  0  0  0  0  0  0  0  0
  142.2670   76.6930  221.2800 H   0  0  0  0  0  0  0  0  0  0  0  0
  140.5927   72.8353  223.7413 H   0  0  0  0  0  0  0  0  0  0  0  0
  141.5909   72.1832  225.9498 H   0  0  0  0  0  0  0  0  0  0  0  0
  141.7753   70.4325  227.6823 H   0  0  0  0  0  0  0  0  0  0  0  0
  139.6786   66.7092  227.1857 H   0  0  0  0  0  0  0  0  0  0  0  0
  138.7657   67.4966  225.0077 H   0  0  0  0  0  0  0  0  0  0  0  0
  1  2  2  0
  2  3  1  0
  3  4  1  0
  4  5  1  0
  5  6  2  0
  5  7  1  0
  7  8  1  0
  8  9  1  0
  9 10  1  0
 10 11  1  0
 11 12  1  0
 12 13  1  0
 13 14  2  0
 14 15  1  0
 15 16  2  0
 16 17  1  0
  2 18  1  0
 18 19  2  0
 19 20  1  0
 20 21  2  0
 21 22  1  0
 22 23  2  0
 23 24  1  0
 23 25  1  0
 25 26  2  0
 26 27  1  0
 27 28  2  0
 12  7  1  0
 17 13  1  0
 28 18  1  0
 27 21  1  0
  3 29  1  0
  4 30  1  0
  4 31  1  0
  8 32  1  0
  8 33  1  0
  9 34  1  0
  9 35  1  0
 10 36  1  0
 10 37  1  0
 11 38  1  0
 11 39  1  0
 12 40  1  1
 15 41  1  0
 16 42  1  0
 17 43  1  0
 19 44  1  0
 20 45  1  0
 22 46  1  0
 25 47  1  0
 26 48  1  0
M  END
>  <smiles>  (1) 
O=C(NCC(=O)N1CCCC[C@H]1c1ncc[nH]1)c1ccc2cc(Cl)ccc2n1

>  <score_type>  (1) 
oracle

>  <origin>  (1) 
autodockgpu

>  <m_score__min__energy>  (1) 
-7.8799999999999999

>  <m_primary>  (1) 
energy

>  <rmsd>  (1) 
3.2018310992272796

>  <m_score__min__rmsd>  (1) 
3.2018310992272796

>  <meeko>  (1) 
{"free_energy": -7.33, "intermolecular_energy": -8.82, "internal_energy": -2.49, "cluster_size": 7, "cluster_id": 5, "rank_in_cluster": 2}

>  <energy>  (1) 
-7.88

>  <cluster_rmsd>  (1) 
0.0

>  <cluster>  (1) 
1

$$$$

     RDKit          3D

 48 51  0  0  0  0  0  0  0  0999 V2000
  141.1010   76.6310  222.7710 O   0  0  0  0  0  0  0  0  0  0  0  0
  140.6340   75.8590  221.8730 C   0  0  0  0  0  0  0  0  0  0  0  0
  139.3450   76.1360  221.3320 N   0  0  0  0  0  0  0  0  0  0  0  0
  138.6550   77.2980  221.8570 C   0  0  0  0  0  0  0  0  0  0  0  0
  139.2090   78.5620  221.3130 C   0  0  0  0  0  0  0  0  0  0  0  0
  138.7670   79.0050  220.2220 O   0  0  0  0  0  0  0  0  0  0  0  0
  140.2220   79.2070  222.0710 N   0  0  0  0  0  0  0  0  0  0  0  0
  140.1120   79.4300  223.5080 C   0  0  0  0  0  0  0  0  0  0  0  0
  140.8980   80.7140  223.7970 C   0  0  0  0  0  0  0  0  0  0  0  0
  142.3810   80.4740  223.6020 C   0  0  0  0  0  0  0  0  0  0  0  0
  142.5470   79.4560  222.4720 C   0  0  0  0  0  0  0  0  0  0  0  0
  141.4460   79.6910  221.4440 C   0  0  1  0  0  0  0  0  0  0  0  0
  141.8250   78.8980  220.2470 C   0  0  0  0  0  0  0  0  0  0  0  0
  141.7920   79.2660  218.9560 N   0  0  0  0  0  0  0  0  0  0  0  0
  142.2210   78.2500  218.1660 C   0  0  0  0  0  0  0  0  0  0  0  0
  142.5340   77.2010  219.0170 C   0  0  0  0  0  0  0  0  0  0  0  0
  142.2860   77.6210  220.2620 N   0  0  0  0  0  0  0  0  0  0  0  0
  141.4010   74.7110  221.4030 C   0  0  0  0  0  0  0  0  0  0  0  0
  140.8510   73.4500  221.5170 C   0  0  0  0  0  0  0  0  0  0  0  0
  141.5280   72.3130  221.0890 C   0  0  0  0  0  0  0  0  0  0  0  0
  142.7800   72.5250  220.5460 C   0  0  0  0  0  0  0  0  0  0  0  0
  143.5520   71.4590  220.0840 C   0  0  0  0  0  0  0  0  0  0  0  0
  144.8170   71.6850  219.5370 C   0  0  0  0  0  0  0  0  0  0  0  0
  145.7470   70.3130  218.9700 Cl  0  0  0  0  0  0  0  0  0  0  0  0
  145.3020   72.9760  219.4560 C   0  0  0  0  0  0  0  0  0  0  0  0
  144.5530   74.0500  219.9090 C   0  0  0  0  0  0  0  0  0  0  0  0
  143.2930   73.8030  220.4510 C   0  0  0  0  0  0  0  0  0  0  0  0
  142.6190   74.8960  220.8730 N   0  0  0  0  0  0  0  0  0  0  0  0
  138.9140   75.5400  220.5960 H   0  0  0  0  0  0  0  0  0  0  0  0
  137.5905   77.2313  221.5880 H   0  0  0  0  0  0  0  0  0  0  0  0
  138.7878   77.3093  222.9489 H   0  0  0  0  0  0  0  0  0  0  0  0
  139.0577   79.5541  223.7960 H   0  0  0  0  0  0  0  0  0  0  0  0
  140.5078   78.5777  224.0797 H   0  0  0  0  0  0  0  0  0  0  0  0
  140.5647   81.5064  223.1107 H   0  0  0  0  0  0  0  0  0  0  0  0
  140.7174   81.0190  224.8383 H   0  0  0  0  0  0  0  0  0  0  0  0
  142.8801   81.4165  223.3325 H   0  0  0  0  0  0  0  0  0  0  0  0
  142.8334   80.0942  224.5300 H   0  0  0  0  0  0  0  0  0  0  0  0
  143.5311   79.5851  221.9978 H   0  0  0  0  0  0  0  0  0  0  0  0
  142.4772   78.4338  222.8722 H   0  0  0  0  0  0  0  0  0  0  0  0
  141.3045   80.7380  221.1378 H   0  0  0  0  0  0  0  0  0  0  0  0
  142.3040   78.2570  217.0692 H   0  0  0  0  0  0  0  0  0  0  0  0
  142.9141   76.2113  218.7236 H   0  0  0  0  0  0  0  0  0  0  0  0
  142.4280   77.0430  221.1300 H   0  0  0  0  0  0  0  0  0  0  0  0
  139.8494   73.3414  221.9586 H   0  0  0  0  0  0  0  0  0  0  0  0
  141.0929   71.3066  221.1776 H   0  0  0  0  0  0  0  0  0  0  0  0
  143.1616   70.4328  220.1510 H   0  0  0  0  0  0  0  0  0  0  0  0
  146.2983   73.1541  219.0251 H   0  0  0  0  0  0  0  0  0  0  0  0
  144.9445   75.0758  219.8423 H   0  0  0  0  0  0  0  0  0  0  0  0
  1  2  2  0
  2  3  1  0
  3  4  1  0
  4  5  1  0
  5  6  2  0
  5  7  1  0
  7  8  1  0
  8  9  1  0
  9 10  1  0
 10 11  1  0
 11 12  1  0
 12 13  1  0
 13 14  2  0
 14 15  1  0
 15 16  2  0
 16 17  1  0
  2 18  1  0
 18 19  2  0
 19 20  1  0
 20 21  2  0
 21 22  1  0
 22 23  2  0
 23 24  1  0
 23 25  1  0
 25 26  2  0
 26 27  1  0
 27 28  2  0
 12  7  1  0
 17 13  1  0
 28 18  1  0
 27 21  1  0
  3 29  1  0
  4 30  1  0
  4 31  1  0
  8 32  1  0
  8 33  1  0
  9 34  1  0
  9 35  1  0
 10 36  1  0
 10 37  1  0
 11 38  1  0
 11 39  1  0
 12 40  1  6
 15 41  1  0
 16 42  1  0
 17 43  1  0
 19 44  1  0
 20 45  1  0
 22 46  1  0
 25 47  1  0
 26 48  1  0
M  END
>  <smiles>  (2) 
O=C(NCC(=O)N1CCCC[C@H]1c1ncc[nH]1)c1ccc2cc(Cl)ccc2n1

>  <score_type>  (2) 
oracle

>  <origin>  (2) 
autodockgpu

>  <m_score__min__energy>  (2) 
-7.8799999999999999

>  <m_primary>  (2) 
energy

>  <rmsd>  (2) 
6.1567551433036

>  <m_score__min__rmsd>  (2) 
6.1567551433036

>  <meeko>  (2) 
{"free_energy": -6.46, "intermolecular_energy": -7.95, "internal_energy": -3.26, "cluster_size": 7, "cluster_id": 9, "rank_in_cluster": 2}

>  <energy>  (2) 
-7.85

>  <cluster_rmsd>  (2) 
1.94

>  <cluster>  (2) 
1

$$$$

     RDKit          3D

 48 51  0  0  0  0  0  0  0  0999 V2000
  138.7960   70.6600  221.2920 O   0  0  0  0  0  0  0  0  0  0  0  0
  138.9570   71.4800  222.2510 C   0  0  0  0  0  0  0  0  0  0  0  0
  138.5810   72.8420  222.0600 N   0  0  0  0  0  0  0  0  0  0  0  0
  138.0350   73.1900  220.7630 C   0  0  0  0  0  0  0  0  0  0  0  0
  139.0630   73.7850  219.8740 C   0  0  0  0  0  0  0  0  0  0  0  0
  138.7050   74.5870  218.9740 O   0  0  0  0  0  0  0  0  0  0  0  0
  140.4150   73.4080  220.1000 N   0  0  0  0  0  0  0  0  0  0  0  0
  141.1550   72.5430  219.1880 C   0  0  0  0  0  0  0  0  0  0  0  0
  142.1630   71.7800  220.0560 C   0  0  0  0  0  0  0  0  0  0  0  0
  143.2290   72.7250  220.5710 C   0  0  0  0  0  0  0  0  0  0  0  0
  142.5770   74.0900  220.7960 C   0  0  0  0  0  0  0  0  0  0  0  0
  141.1460   73.8710  221.2720 C   0  0  1  0  0  0  0  0  0  0  0  0
  140.6670   75.1900  221.7590 C   0  0  0  0  0  0  0  0  0  0  0  0
  139.5050   75.4860  222.3640 N   0  0  0  0  0  0  0  0  0  0  0  0
  139.4490   76.8110  222.6530 C   0  0  0  0  0  0  0  0  0  0  0  0
  140.6400   77.3580  222.2010 C   0  0  0  0  0  0  0  0  0  0  0  0
  141.3520   76.3580  221.6680 N   0  0  0  0  0  0  0  0  0  0  0  0
  139.5150   71.0390  223.5240 C   0  0  0  0  0  0  0  0  0  0  0  0
  140.3450   71.8940  224.2210 C   0  0  0  0  0  0  0  0  0  0  0  0
  140.9110   71.5370  225.4400 C   0  0  0  0  0  0  0  0  0  0  0  0
  140.5910   70.2770  225.9070 C   0  0  0  0  0  0  0  0  0  0  0  0
  141.0990   69.8100  227.1190 C   0  0  0  0  0  0  0  0  0  0  0  0
  140.7690   68.5350  227.5810 C   0  0  0  0  0  0  0  0  0  0  0  0
  141.4340   67.9950  229.1100 Cl  0  0  0  0  0  0  0  0  0  0  0  0
  139.9310   67.7340  226.8290 C   0  0  0  0  0  0  0  0  0  0  0  0
  139.4140   68.1770  225.6230 C   0  0  0  0  0  0  0  0  0  0  0  0
  139.7560   69.4530  225.1790 C   0  0  0  0  0  0  0  0  0  0  0  0
  139.2160   69.8200  223.9950 N   0  0  0  0  0  0  0  0  0  0  0  0
  138.6900   73.5560  222.8090 H   0  0  0  0  0  0  0  0  0  0  0  0
  137.6371   72.2808  220.2886 H   0  0  0  0  0  0  0  0  0  0  0  0
  137.2413   73.9363  220.9152 H   0  0  0  0  0  0  0  0  0  0  0  0
  140.4718   71.8405  218.6882 H   0  0  0  0  0  0  0  0  0  0  0  0
  141.6583   73.1233  218.4007 H   0  0  0  0  0  0  0  0  0  0  0  0
  141.6376   71.3252  220.9087 H   0  0  0  0  0  0  0  0  0  0  0  0
  142.6400   70.9968  219.4485 H   0  0  0  0  0  0  0  0  0  0  0  0
  143.6388   72.3456  221.5187 H   0  0  0  0  0  0  0  0  0  0  0  0
  144.0513   72.8077  219.8451 H   0  0  0  0  0  0  0  0  0  0  0  0
  143.1399   74.6488  221.5582 H   0  0  0  0  0  0  0  0  0  0  0  0
  142.5780   74.6667  219.8593 H   0  0  0  0  0  0  0  0  0  0  0  0
  141.0280   73.1372  222.0830 H   0  0  0  0  0  0  0  0  0  0  0  0
  138.6235   77.3443  223.1471 H   0  0  0  0  0  0  0  0  0  0  0  0
  140.9424   78.4135  222.2678 H   0  0  0  0  0  0  0  0  0  0  0  0
  142.3080   76.4630  221.2400 H   0  0  0  0  0  0  0  0  0  0  0  0
  140.5650   72.8862  223.8000 H   0  0  0  0  0  0  0  0  0  0  0  0
  141.5726   72.2160  225.9979 H   0  0  0  0  0  0  0  0  0  0  0  0
  141.7647   70.4513  227.7153 H   0  0  0  0  0  0  0  0  0  0  0  0
  139.6706   66.7294  227.1937 H   0  0  0  0  0  0  0  0  0  0  0  0
  138.7475   67.5353  225.0281 H   0  0  0  0  0  0  0  0  0  0  0  0
  1  2  2  0
  2  3  1  0
  3  4  1  0
  4  5  1  0
  5  6  2  0
  5  7  1  0
  7  8  1  0
  8  9  1  0
  9 10  1  0
 10 11  1  0
 11 12  1  0
 12 13  1  0
 13 14  2  0
 14 15  1  0
 15 16  2  0
 16 17  1  0
  2 18  1  0
 18 19  2  0
 19 20  1  0
 20 21  2  0
 21 22  1  0
 22 23  2  0
 23 24  1  0
 23 25  1  0
 25 26  2  0
 26 27  1  0
 27 28  2  0
 12  7  1  0
 17 13  1  0
 28 18  1  0
 27 21  1  0
  3 29  1  0
  4 30  1  0
  4 31  1  0
  8 32  1  0
  8 33  1  0
  9 34  1  0
  9 35  1  0
 10 36  1  0
 10 37  1  0
 11 38  1  0
 11 39  1  0
 12 40  1  1
 15 41  1  0
 16 42  1  0
 17 43  1  0
 19 44  1  0
 20 45  1  0
 22 46  1  0
 25 47  1  0
 26 48  1  0
M  END
>  <smiles>  (3) 
O=C(NCC(=O)N1CCCC[C@H]1c1ncc[nH]1)c1ccc2cc(Cl)ccc2n1

>  <score_type>  (3) 
oracle

>  <origin>  (3) 
autodockgpu

>  <m_score__min__energy>  (3) 
-7.8799999999999999

>  <m_primary>  (3) 
energy

>  <rmsd>  (3) 
3.283547904282085

>  <m_score__min__rmsd>  (3) 
3.283547904282085

>  <meeko>  (3) 
{"free_energy": -7.32, "intermolecular_energy": -8.81, "internal_energy": -2.53, "cluster_size": 7, "cluster_id": 5, "rank_in_cluster": 6}

>  <energy>  (3) 
-7.83

>  <cluster_rmsd>  (3) 
1.12

>  <cluster>  (3) 
1

$$$$

     RDKit          3D

 48 51  0  0  0  0  0  0  0  0999 V2000
  140.4720   72.1510  220.7900 O   0  0  0  0  0  0  0  0  0  0  0  0
  140.1460   72.5350  221.9580 C   0  0  0  0  0  0  0  0  0  0  0  0
  139.8140   73.9070  222.1620 N   0  0  0  0  0  0  0  0  0  0  0  0
  139.8740   74.7700  220.9990 C   0  0  0  0  0  0  0  0  0  0  0  0
  140.8350   75.8850  221.1880 C   0  0  0  0  0  0  0  0  0  0  0  0
  141.1610   76.2210  222.3550 O   0  0  0  0  0  0  0  0  0  0  0  0
  141.3380   76.5150  220.0180 N   0  0  0  0  0  0  0  0  0  0  0  0
  140.9950   77.8830  219.6490 C   0  0  0  0  0  0  0  0  0  0  0  0
  141.0410   77.9300  218.1170 C   0  0  0  0  0  0  0  0  0  0  0  0
  142.4700   77.7940  217.6330 C   0  0  0  0  0  0  0  0  0  0  0  0
  143.2110   76.8780  218.6080 C   0  0  0  0  0  0  0  0  0  0  0  0
  142.2380   75.8160  219.1080 C   0  0  1  0  0  0  0  0  0  0  0  0
  143.0640   74.7930  219.7980 C   0  0  0  0  0  0  0  0  0  0  0  0
  144.3120   74.9140  220.2810 N   0  0  0  0  0  0  0  0  0  0  0  0
  144.7140   73.7450  220.8410 C   0  0  0  0  0  0  0  0  0  0  0  0
  143.6580   72.8600  220.6940 C   0  0  0  0  0  0  0  0  0  0  0  0
  142.6800   73.5190  220.0630 N   0  0  0  0  0  0  0  0  0  0  0  0
  140.1140   71.5950  223.0720 C   0  0  0  0  0  0  0  0  0  0  0  0
  139.5690   70.3430  222.8720 C   0  0  0  0  0  0  0  0  0  0  0  0
  139.5060   69.3980  223.8910 C   0  0  0  0  0  0  0  0  0  0  0  0
  140.0210   69.7910  225.1110 C   0  0  0  0  0  0  0  0  0  0  0  0
  140.0130   68.9280  226.2060 C   0  0  0  0  0  0  0  0  0  0  0  0
  140.5370   69.3370  227.4340 C   0  0  0  0  0  0  0  0  0  0  0  0
  140.5030   68.2150  228.7800 Cl  0  0  0  0  0  0  0  0  0  0  0  0
  141.0660   70.6070  227.5600 C   0  0  0  0  0  0  0  0  0  0  0  0
  141.0850   71.4810  226.4850 C   0  0  0  0  0  0  0  0  0  0  0  0
  140.5570   71.0540  225.2680 C   0  0  0  0  0  0  0  0  0  0  0  0
  140.6090   71.9580  224.2640 N   0  0  0  0  0  0  0  0  0  0  0  0
  139.5420   74.2780  223.0950 H   0  0  0  0  0  0  0  0  0  0  0  0
  140.1872   74.1738  220.1292 H   0  0  0  0  0  0  0  0  0  0  0  0
  138.8749   75.2030  220.8431 H   0  0  0  0  0  0  0  0  0  0  0  0
  139.9867   78.1350  220.0093 H   0  0  0  0  0  0  0  0  0  0  0  0
  141.6909   78.6081  220.0961 H   0  0  0  0  0  0  0  0  0  0  0  0
  140.4391   77.1042  217.7098 H   0  0  0  0  0  0  0  0  0  0  0  0
  140.6359   78.8937  217.7748 H   0  0  0  0  0  0  0  0  0  0  0  0
  142.4829   77.3550  216.6245 H   0  0  0  0  0  0  0  0  0  0  0  0
  142.9554   78.7801  217.5893 H   0  0  0  0  0  0  0  0  0  0  0  0
  144.0556   76.3952  218.0946 H   0  0  0  0  0  0  0  0  0  0  0  0
  143.5982   77.4633  219.4550 H   0  0  0  0  0  0  0  0  0  0  0  0
  141.6456   75.3163  218.3274 H   0  0  0  0  0  0  0  0  0  0  0  0
  145.6846   73.5408  221.3167 H   0  0  0  0  0  0  0  0  0  0  0  0
  143.6294   71.8137  221.0322 H   0  0  0  0  0  0  0  0  0  0  0  0
  141.7450   73.1080  219.8090 H   0  0  0  0  0  0  0  0  0  0  0  0
  139.1732   70.0849  221.8786 H   0  0  0  0  0  0  0  0  0  0  0  0
  139.0726   68.3991  223.7348 H   0  0  0  0  0  0  0  0  0  0  0  0
  139.5908   67.9176  226.1018 H   0  0  0  0  0  0  0  0  0  0  0  0
  141.4781   70.9290  228.5277 H   0  0  0  0  0  0  0  0  0  0  0  0
  141.5081   72.4909  226.5900 H   0  0  0  0  0  0  0  0  0  0  0  0
  1  2  2  0
  2  3  1  0
  3  4  1  0
  4  5  1  0
  5  6  2  0
  5  7  1  0
  7  8  1  0
  8  9  1  0
  9 10  1  0
 10 11  1  0
 11 12  1  0
 12 13  1  0
 13 14  2  0
 14 15  1  0
 15 16  2  0
 16 17  1  0
  2 18  1  0
 18 19  2  0
 19 20  1  0
 20 21  2  0
 21 22  1  0
 22 23  2  0
 23 24  1  0
 23 25  1  0
 25 26  2  0
 26 27  1  0
 27 28  2  0
 12  7  1  0
 17 13  1  0
 28 18  1  0
 27 21  1  0
  3 29  1  0
  4 30  1  0
  4 31  1  0
  8 32  1  0
  8 33  1  0
  9 34  1  0
  9 35  1  0
 10 36  1  0
 10 37  1  0
 11 38  1  0
 11 39  1  0
 12 40  1  6
 15 41  1  0
 16 42  1  0
 17 43  1  0
 19 44  1  0
 20 45  1  0
 22 46  1  0
 25 47  1  0
 26 48  1  0
M  END
>  <smiles>  (4) 
O=C(NCC(=O)N1CCCC[C@H]1c1ncc[nH]1)c1ccc2cc(Cl)ccc2n1

>  <score_type>  (4) 
oracle

>  <origin>  (4) 
autodockgpu

>  <m_score__min__energy>  (4) 
-7.8799999999999999

>  <m_primary>  (4) 
energy

>  <rmsd>  (4) 
3.267755621141587

>  <m_score__min__rmsd>  (4) 
3.267755621141587

>  <meeko>  (4) 
{"free_energy": -7.35, "intermolecular_energy": -8.84, "internal_energy": -2.51, "cluster_size": 10, "cluster_id": 4, "rank_in_cluster": 3}

>  <energy>  (4) 
-7.83

>  <cluster_rmsd>  (4) 
1.13

>  <cluster>  (4) 
1

$$$$

     RDKit          3D

 48 51  0  0  0  0  0  0  0  0999 V2000
  134.9130   68.4810  225.0230 O   0  0  0  0  0  0  0  0  0  0  0  0
  135.3150   69.6710  224.8170 C   0  0  0  0  0  0  0  0  0  0  0  0
  136.4340   69.8790  223.9600 N   0  0  0  0  0  0  0  0  0  0  0  0
  137.0370   68.6950  223.3780 C   0  0  0  0  0  0  0  0  0  0  0  0
  138.5180   68.7360  223.4560 C   0  0  0  0  0  0  0  0  0  0  0  0
  139.1930   68.3860  222.4550 O   0  0  0  0  0  0  0  0  0  0  0  0
  139.0930   69.1770  224.6780 N   0  0  0  0  0  0  0  0  0  0  0  0
  139.6080   68.2570  225.6850 C   0  0  0  0  0  0  0  0  0  0  0  0
  139.4100   68.9570  227.0350 C   0  0  0  0  0  0  0  0  0  0  0  0
  140.3440   70.1450  227.1480 C   0  0  0  0  0  0  0  0  0  0  0  0
  140.5170   70.7420  225.7510 C   0  0  0  0  0  0  0  0  0  0  0  0
  139.2010   70.5960  224.9960 C   0  0  1  0  0  0  0  0  0  0  0  0
  139.3250   71.4440  223.7840 C   0  0  0  0  0  0  0  0  0  0  0  0
  138.3500   71.9120  222.9870 N   0  0  0  0  0  0  0  0  0  0  0  0
  138.8790   72.6530  221.9810 C   0  0  0  0  0  0  0  0  0  0  0  0
  140.2530   72.6400  222.1700 C   0  0  0  0  0  0  0  0  0  0  0  0
  140.4900   71.9060  223.2620 N   0  0  0  0  0  0  0  0  0  0  0  0
  134.6460   70.8040  225.4460 C   0  0  0  0  0  0  0  0  0  0  0  0
  133.6910   70.5630  226.4130 C   0  0  0  0  0  0  0  0  0  0  0  0
  133.0160   71.5980  227.0520 C   0  0  0  0  0  0  0  0  0  0  0  0
  133.3600   72.8760  226.6590 C   0  0  0  0  0  0  0  0  0  0  0  0
  132.7490   73.9920  227.2300 C   0  0  0  0  0  0  0  0  0  0  0  0
  133.1050   75.2800  226.8240 C   0  0  0  0  0  0  0  0  0  0  0  0
  132.3080   76.6490  227.5720 Cl  0  0  0  0  0  0  0  0  0  0  0  0
  134.0700   75.4440  225.8490 C   0  0  0  0  0  0  0  0  0  0  0  0
  134.6900   74.3500  225.2680 C   0  0  0  0  0  0  0  0  0  0  0  0
  134.3210   73.0730  225.6870 C   0  0  0  0  0  0  0  0  0  0  0  0
  134.9660   72.0540  225.0780 N   0  0  0  0  0  0  0  0  0  0  0  0
  136.8060   70.8290  223.7560 H   0  0  0  0  0  0  0  0  0  0  0  0
  136.6763   67.8085  223.9202 H   0  0  0  0  0  0  0  0  0  0  0  0
  136.7515   68.6524  222.3165 H   0  0  0  0  0  0  0  0  0  0  0  0
  139.0490   67.3100  225.6595 H   0  0  0  0  0  0  0  0  0  0  0  0
  140.6662   68.0150  225.5071 H   0  0  0  0  0  0  0  0  0  0  0  0
  138.3692   69.3036  227.1158 H   0  0  0  0  0  0  0  0  0  0  0  0
  139.6320   68.2464  227.8448 H   0  0  0  0  0  0  0  0  0  0  0  0
  139.9120   70.8969  227.8248 H   0  0  0  0  0  0  0  0  0  0  0  0
  141.3170   69.8300  227.5530 H   0  0  0  0  0  0  0  0  0  0  0  0
  140.7818   71.8065  225.8327 H   0  0  0  0  0  0  0  0  0  0  0  0
  141.3201   70.2165  225.2135 H   0  0  0  0  0  0  0  0  0  0  0  0
  138.3042   70.9104  225.5500 H   0  0  0  0  0  0  0  0  0  0  0  0
  138.3283   73.1622  221.1764 H   0  0  0  0  0  0  0  0  0  0  0  0
  141.0049   73.1389  221.5409 H   0  0  0  0  0  0  0  0  0  0  0  0
  141.4460   71.7130  223.6600 H   0  0  0  0  0  0  0  0  0  0  0  0
  133.4571   69.5234  226.6860 H   0  0  0  0  0  0  0  0  0  0  0  0
  132.2547   71.4097  227.8233 H   0  0  0  0  0  0  0  0  0  0  0  0
  131.9810   73.8568  228.0058 H   0  0  0  0  0  0  0  0  0  0  0  0
  134.3502   76.4585  225.5293 H   0  0  0  0  0  0  0  0  0  0  0  0
  135.4577   74.4863  224.4920 H   0  0  0  0  0  0  0  0  0  0  0  0
  1  2  2  0
  2  3  1  0
  3  4  1  0
  4  5  1  0
  5  6  2  0
  5  7  1  0
  7  8  1  0
  8  9  1  0
  9 10  1  0
 10 11  1  0
 11 12  1  0
 12 13  1  0
 13 14  2  0
 14 15  1  0
 15 16  2  0
 16 17  1  0
  2 18  1  0
 18 19  2  0
 19 20  1  0
 20 21  2  0
 21 22  1  0
 22 23  2  0
 23 24  1  0
 23 25  1  0
 25 26  2  0
 26 27  1  0
 27 28  2  0
 12  7  1  0
 17 13  1  0
 28 18  1  0
 27 21  1  0
  3 29  1  0
  4 30  1  0
  4 31  1  0
  8 32  1  0
  8 33  1  0
  9 34  1  0
  9 35  1  0
 10 36  1  0
 10 37  1  0
 11 38  1  0
 11 39  1  0
 12 40  1  1
 15 41  1  0
 16 42  1  0
 17 43  1  0
 19 44  1  0
 20 45  1  0
 22 46  1  0
 25 47  1  0
 26 48  1  0
M  END
>  <smiles>  (5) 
O=C(NCC(=O)N1CCCC[C@H]1c1ncc[nH]1)c1ccc2cc(Cl)ccc2n1

>  <score_type>  (5) 
oracle

>  <origin>  (5) 
autodockgpu

>  <m_score__min__energy>  (5) 
-7.8799999999999999

>  <m_primary>  (5) 
energy

>  <rmsd>  (5) 
7.986739396906071

>  <m_score__min__rmsd>  (5) 
7.986739396906071

>  <meeko>  (5) 
{"free_energy": -6.69, "intermolecular_energy": -8.18, "internal_energy": -2.65, "cluster_size": 6, "cluster_id": 7, "rank_in_cluster": 5}

>  <energy>  (5) 
-7.82

>  <cluster_rmsd>  (5) 
0.22

>  <cluster>  (5) 
1

$$$$

     RDKit          3D

 48 51  0  0  0  0  0  0  0  0999 V2000
  138.6860   70.6670  221.3340 O   0  0  0  0  0  0  0  0  0  0  0  0
  138.9160   71.4930  222.2740 C   0  0  0  0  0  0  0  0  0  0  0  0
  138.6160   72.8710  222.0660 N   0  0  0  0  0  0  0  0  0  0  0  0
  138.0610   73.2280  220.7750 C   0  0  0  0  0  0  0  0  0  0  0  0
  139.0870   73.8110  219.8770 C   0  0  0  0  0  0  0  0  0  0  0  0
  138.7290   74.6070  218.9720 O   0  0  0  0  0  0  0  0  0  0  0  0
  140.4380   73.4300  220.0980 N   0  0  0  0  0  0  0  0  0  0  0  0
  141.1680   72.5500  219.1930 C   0  0  0  0  0  0  0  0  0  0  0  0
  142.1770   71.7920  220.0640 C   0  0  0  0  0  0  0  0  0  0  0  0
  143.2510   72.7380  220.5610 C   0  0  0  0  0  0  0  0  0  0  0  0
  142.6080   74.1090  220.7730 C   0  0  0  0  0  0  0  0  0  0  0  0
  141.1790   73.9030  221.2610 C   0  0  1  0  0  0  0  0  0  0  0  0
  140.7100   75.2300  221.7340 C   0  0  0  0  0  0  0  0  0  0  0  0
  139.5540   75.5390  222.3440 N   0  0  0  0  0  0  0  0  0  0  0  0
  139.5060   76.8680  222.6160 C   0  0  0  0  0  0  0  0  0  0  0  0
  140.6960   77.4030  222.1490 C   0  0  0  0  0  0  0  0  0  0  0  0
  141.4000   76.3940  221.6240 N   0  0  0  0  0  0  0  0  0  0  0  0
  139.4770   71.0430  223.5430 C   0  0  0  0  0  0  0  0  0  0  0  0
  140.3270   71.8830  224.2320 C   0  0  0  0  0  0  0  0  0  0  0  0
  140.8970   71.5160  225.4470 C   0  0  0  0  0  0  0  0  0  0  0  0
  140.5590   70.2630  225.9170 C   0  0  0  0  0  0  0  0  0  0  0  0
  141.0700   69.7870  227.1240 C   0  0  0  0  0  0  0  0  0  0  0  0
  140.7210   68.5170  227.5900 C   0  0  0  0  0  0  0  0  0  0  0  0
  141.3890   67.9660  229.1130 Cl  0  0  0  0  0  0  0  0  0  0  0  0
  139.8630   67.7310  226.8450 C   0  0  0  0  0  0  0  0  0  0  0  0
  139.3440   68.1830  225.6430 C   0  0  0  0  0  0  0  0  0  0  0  0
  139.7050   69.4530  225.1960 C   0  0  0  0  0  0  0  0  0  0  0  0
  139.1610   69.8280  224.0170 N   0  0  0  0  0  0  0  0  0  0  0  0
  138.7830   73.5910  222.7990 H   0  0  0  0  0  0  0  0  0  0  0  0
  137.6468   72.3247  220.3033 H   0  0  0  0  0  0  0  0  0  0  0  0
  137.2783   73.9839  220.9364 H   0  0  0  0  0  0  0  0  0  0  0  0
  140.4781   71.8452  218.7058 H   0  0  0  0  0  0  0  0  0  0  0  0
  141.6701   73.1181  218.3960 H   0  0  0  0  0  0  0  0  0  0  0  0
  141.6544   71.3503  220.9253 H   0  0  0  0  0  0  0  0  0  0  0  0
  142.6462   70.9988  219.4634 H   0  0  0  0  0  0  0  0  0  0  0  0
  143.6645   72.3682  221.5109 H   0  0  0  0  0  0  0  0  0  0  0  0
  144.0692   72.8075  219.8290 H   0  0  0  0  0  0  0  0  0  0  0  0
  143.1788   74.6743  221.5244 H   0  0  0  0  0  0  0  0  0  0  0  0
  142.6061   74.6742  219.8293 H   0  0  0  0  0  0  0  0  0  0  0  0
  141.0625   73.1798  222.0816 H   0  0  0  0  0  0  0  0  0  0  0  0
  138.6864   77.4116  223.1086 H   0  0  0  0  0  0  0  0  0  0  0  0
  141.0035   78.4579  222.2003 H   0  0  0  0  0  0  0  0  0  0  0  0
  142.3530   76.4890  221.1870 H   0  0  0  0  0  0  0  0  0  0  0  0
  140.5608   72.8711  223.8088 H   0  0  0  0  0  0  0  0  0  0  0  0
  141.5752   72.1833  225.9990 H   0  0  0  0  0  0  0  0  0  0  0  0
  141.7530   70.4162  227.7136 H   0  0  0  0  0  0  0  0  0  0  0  0
  139.5880   66.7312  227.2120 H   0  0  0  0  0  0  0  0  0  0  0  0
  138.6614   67.5531  225.0537 H   0  0  0  0  0  0  0  0  0  0  0  0
  1  2  2  0
  2  3  1  0
  3  4  1  0
  4  5  1  0
  5  6  2  0
  5  7  1  0
  7  8  1  0
  8  9  1  0
  9 10  1  0
 10 11  1  0
 11 12  1  0
 12 13  1  0
 13 14  2  0
 14 15  1  0
 15 16  2  0
 16 17  1  0
  2 18  1  0
 18 19  2  0
 19 20  1  0
 20 21  2  0
 21 22  1  0
 22 23  2  0
 23 24  1  0
 23 25  1  0
 25 26  2  0
 26 27  1  0
 27 28  2  0
 12  7  1  0
 17 13  1  0
 28 18  1  0
 27 21  1  0
  3 29  1  0
  4 30  1  0
  4 31  1  0
  8 32  1  0
  8 33  1  0
  9 34  1  0
  9 35  1  0
 10 36  1  0
 10 37  1  0
 11 38  1  0
 11 39  1  0
 12 40  1  1
 15 41  1  0
 16 42  1  0
 17 43  1  0
 19 44  1  0
 20 45  1  0
 22 46  1  0
 25 47  1  0
 26 48  1  0
M  END
>  <smiles>  (6) 
O=C(NCC(=O)N1CCCC[C@H]1c1ncc[nH]1)c1ccc2cc(Cl)ccc2n1

>  <score_type>  (6) 
oracle

>  <origin>  (6) 
autodockgpu

>  <m_score__min__energy>  (6) 
-7.8799999999999999

>  <m_primary>  (6) 
energy

>  <rmsd>  (6) 
3.2707351814219274

>  <m_score__min__rmsd>  (6) 
3.2707351814219274

>  <meeko>  (6) 
{"free_energy": -7.32, "intermolecular_energy": -8.81, "internal_energy": -2.52, "cluster_size": 7, "cluster_id": 5, "rank_in_cluster": 4}

>  <energy>  (6) 
-7.78

>  <cluster_rmsd>  (6) 
1.92

>  <cluster>  (6) 
1

$$$$

     RDKit          3D

 48 51  0  0  0  0  0  0  0  0999 V2000
  136.5490   71.1920  222.6220 O   0  0  0  0  0  0  0  0  0  0  0  0
  136.1840   71.1310  223.8390 C   0  0  0  0  0  0  0  0  0  0  0  0
  136.4720   69.9500  224.5840 N   0  0  0  0  0  0  0  0  0  0  0  0
  137.1720   68.8920  223.8820 C   0  0  0  0  0  0  0  0  0  0  0  0
  138.6130   69.2030  223.7120 C   0  0  0  0  0  0  0  0  0  0  0  0
  139.1610   68.9790  222.6020 O   0  0  0  0  0  0  0  0  0  0  0  0
  139.2980   69.7460  224.8320 N   0  0  0  0  0  0  0  0  0  0  0  0
  139.6540   68.9490  226.0000 C   0  0  0  0  0  0  0  0  0  0  0  0
  139.6350   69.9160  227.1910 C   0  0  0  0  0  0  0  0  0  0  0  0
  140.7840   70.8990  227.0840 C   0  0  0  0  0  0  0  0  0  0  0  0
  141.0280   71.1760  225.6000 C   0  0  0  0  0  0  0  0  0  0  0  0
  139.6870   71.1500  224.8760 C   0  0  1  0  0  0  0  0  0  0  0  0
  139.9370   71.7140  223.5250 C   0  0  0  0  0  0  0  0  0  0  0  0
  141.0550   71.6420  222.7830 N   0  0  0  0  0  0  0  0  0  0  0  0
  140.8790   72.2890  221.6040 C   0  0  0  0  0  0  0  0  0  0  0  0
  139.5840   72.7850  221.6210 C   0  0  0  0  0  0  0  0  0  0  0  0
  139.0430   72.4230  222.7900 N   0  0  0  0  0  0  0  0  0  0  0  0
  135.4830   72.2460  224.4650 C   0  0  0  0  0  0  0  0  0  0  0  0
  135.7750   73.5310  224.0570 C   0  0  0  0  0  0  0  0  0  0  0  0
  135.1430   74.6390  224.6120 C   0  0  0  0  0  0  0  0  0  0  0  0
  134.2100   74.3720  225.5940 C   0  0  0  0  0  0  0  0  0  0  0  0
  133.5130   75.4040  226.2220 C   0  0  0  0  0  0  0  0  0  0  0  0
  132.5710   75.1220  227.2140 C   0  0  0  0  0  0  0  0  0  0  0  0
  131.7230   76.4540  227.9730 Cl  0  0  0  0  0  0  0  0  0  0  0  0
  132.3320   73.8090  227.5710 C   0  0  0  0  0  0  0  0  0  0  0  0
  133.0120   72.7680  226.9600 C   0  0  0  0  0  0  0  0  0  0  0  0
  133.9480   73.0710  225.9730 C   0  0  0  0  0  0  0  0  0  0  0  0
  134.5730   72.0070  225.4210 N   0  0  0  0  0  0  0  0  0  0  0  0
  136.1980   69.8440  225.5820 H   0  0  0  0  0  0  0  0  0  0  0  0
  137.0745   67.9587  224.4560 H   0  0  0  0  0  0  0  0  0  0  0  0
  136.7240   68.7902  222.8826 H   0  0  0  0  0  0  0  0  0  0  0  0
  138.9214   68.1423  226.1504 H   0  0  0  0  0  0  0  0  0  0  0  0
  140.6395   68.4752  225.8803 H   0  0  0  0  0  0  0  0  0  0  0  0
  138.6835   70.4680  227.1960 H   0  0  0  0  0  0  0  0  0  0  0  0
  139.7396   69.3408  228.1228 H   0  0  0  0  0  0  0  0  0  0  0  0
  140.5250   71.8346  227.6013 H   0  0  0  0  0  0  0  0  0  0  0  0
  141.6892   70.4830  227.5503 H   0  0  0  0  0  0  0  0  0  0  0  0
  141.4958   72.1642  225.4791 H   0  0  0  0  0  0  0  0  0  0  0  0
  141.6982   70.4119  225.1793 H   0  0  0  0  0  0  0  0  0  0  0  0
  138.8847   71.7317  225.3534 H   0  0  0  0  0  0  0  0  0  0  0  0
  141.6166   72.3985  220.7953 H   0  0  0  0  0  0  0  0  0  0  0  0
  139.0948   73.3655  220.8250 H   0  0  0  0  0  0  0  0  0  0  0  0
  138.0630   72.6540  223.0950 H   0  0  0  0  0  0  0  0  0  0  0  0
  136.5288   73.6838  223.2706 H   0  0  0  0  0  0  0  0  0  0  0  0
  135.3725   75.6649  224.2883 H   0  0  0  0  0  0  0  0  0  0  0  0
  133.7066   76.4478  225.9339 H   0  0  0  0  0  0  0  0  0  0  0  0
  131.5904   73.5867  228.3524 H   0  0  0  0  0  0  0  0  0  0  0  0
  132.8172   71.7244  227.2479 H   0  0  0  0  0  0  0  0  0  0  0  0
  1  2  2  0
  2  3  1  0
  3  4  1  0
  4  5  1  0
  5  6  2  0
  5  7  1  0
  7  8  1  0
  8  9  1  0
  9 10  1  0
 10 11  1  0
 11 12  1  0
 12 13  1  0
 13 14  2  0
 14 15  1  0
 15 16  2  0
 16 17  1  0
  2 18  1  0
 18 19  2  0
 19 20  1  0
 20 21  2  0
 21 22  1  0
 22 23  2  0
 23 24  1  0
 23 25  1  0
 25 26  2  0
 26 27  1  0
 27 28  2  0
 12  7  1  0
 17 13  1  0
 28 18  1  0
 27 21  1  0
  3 29  1  0
  4 30  1  0
  4 31  1  0
  8 32  1  0
  8 33  1  0
  9 34  1  0
  9 35  1  0
 10 36  1  0
 10 37  1  0
 11 38  1  0
 11 39  1  0
 12 40  1  1
 15 41  1  0
 16 42  1  0
 17 43  1  0
 19 44  1  0
 20 45  1  0
 22 46  1  0
 25 47  1  0
 26 48  1  0
M  END
>  <smiles>  (7) 
O=C(NCC(=O)N1CCCC[C@H]1c1ncc[nH]1)c1ccc2cc(Cl)ccc2n1

>  <score_type>  (7) 
oracle

>  <origin>  (7) 
autodockgpu

>  <m_score__min__energy>  (7) 
-7.8799999999999999

>  <m_primary>  (7) 
energy

>  <rmsd>  (7) 
7.9068717800787685

>  <m_score__min__rmsd>  (7) 
7.9068717800787685

>  <meeko>  (7) 
{"free_energy": -6.55, "intermolecular_energy": -8.04, "internal_energy": -2.71, "cluster_size": 6, "cluster_id": 7, "rank_in_cluster": 6}

>  <energy>  (7) 
-7.75

>  <cluster_rmsd>  (7) 
1.94

>  <cluster>  (7) 
1

$$$$

     RDKit          3D

 48 51  0  0  0  0  0  0  0  0999 V2000
  140.0080   74.0970  221.9990 O   0  0  0  0  0  0  0  0  0  0  0  0
  140.0810   72.8440  221.7920 C   0  0  0  0  0  0  0  0  0  0  0  0
  140.1750   72.3730  220.4500 N   0  0  0  0  0  0  0  0  0  0  0  0
  140.1810   73.3800  219.4070 C   0  0  0  0  0  0  0  0  0  0  0  0
  141.4900   73.4480  218.7130 C   0  0  0  0  0  0  0  0  0  0  0  0
  141.5170   73.6490  217.4720 O   0  0  0  0  0  0  0  0  0  0  0  0
  142.6560   73.2790  219.5070 N   0  0  0  0  0  0  0  0  0  0  0  0
  143.5060   72.0970  219.4210 C   0  0  0  0  0  0  0  0  0  0  0  0
  144.1090   71.9080  220.8180 C   0  0  0  0  0  0  0  0  0  0  0  0
  145.0980   73.0180  221.1130 C   0  0  0  0  0  0  0  0  0  0  0  0
  144.5970   74.2880  220.4250 C   0  0  0  0  0  0  0  0  0  0  0  0
  143.0730   74.2930  220.4670 C   0  0  1  0  0  0  0  0  0  0  0  0
  142.6550   75.6610  220.0690 C   0  0  0  0  0  0  0  0  0  0  0  0
  143.2330   76.4860  219.1790 N   0  0  0  0  0  0  0  0  0  0  0  0
  142.5420   77.6520  219.1010 C   0  0  0  0  0  0  0  0  0  0  0  0
  141.4840   77.5370  219.9890 C   0  0  0  0  0  0  0  0  0  0  0  0
  141.5780   76.3290  220.5560 N   0  0  0  0  0  0  0  0  0  0  0  0
  140.0680   71.9020  222.9050 C   0  0  0  0  0  0  0  0  0  0  0  0
  139.5340   70.6440  222.7090 C   0  0  0  0  0  0  0  0  0  0  0  0
  139.4900   69.6980  223.7280 C   0  0  0  0  0  0  0  0  0  0  0  0
  140.0120   70.0960  224.9430 C   0  0  0  0  0  0  0  0  0  0  0  0
  140.0220   69.2320  226.0370 C   0  0  0  0  0  0  0  0  0  0  0  0
  140.5530   69.6440  227.2610 C   0  0  0  0  0  0  0  0  0  0  0  0
  140.5420   68.5210  228.6060 Cl  0  0  0  0  0  0  0  0  0  0  0  0
  141.0710   70.9200  227.3830 C   0  0  0  0  0  0  0  0  0  0  0  0
  141.0710   71.7950  226.3090 C   0  0  0  0  0  0  0  0  0  0  0  0
  140.5370   71.3630  225.0960 C   0  0  0  0  0  0  0  0  0  0  0  0
  140.5700   72.2690  224.0940 N   0  0  0  0  0  0  0  0  0  0  0  0
  140.2360   71.3600  220.2210 H   0  0  0  0  0  0  0  0  0  0  0  0
  139.4006   73.1351  218.6715 H   0  0  0  0  0  0  0  0  0  0  0  0
  139.9915   74.3573  219.8749 H   0  0  0  0  0  0  0  0  0  0  0  0
  142.9093   71.2167  219.1399 H   0  0  0  0  0  0  0  0  0  0  0  0
  144.2884   72.2179  218.6573 H   0  0  0  0  0  0  0  0  0  0  0  0
  143.3042   71.9291  221.5675 H   0  0  0  0  0  0  0  0  0  0  0  0
  144.6313   70.9407  220.8568 H   0  0  0  0  0  0  0  0  0  0  0  0
  145.1632   73.1819  222.1988 H   0  0  0  0  0  0  0  0  0  0  0  0
  146.0979   72.7495  220.7413 H   0  0  0  0  0  0  0  0  0  0  0  0
  144.9854   75.1726  220.9509 H   0  0  0  0  0  0  0  0  0  0  0  0
  144.9450   74.3134  219.3818 H   0  0  0  0  0  0  0  0  0  0  0  0
  142.6293   74.0647  221.4473 H   0  0  0  0  0  0  0  0  0  0  0  0
  142.7752   78.5156  218.4609 H   0  0  0  0  0  0  0  0  0  0  0  0
  140.7130   78.2955  220.1895 H   0  0  0  0  0  0  0  0  0  0  0  0
  140.9120   75.9500  221.2770 H   0  0  0  0  0  0  0  0  0  0  0  0
  139.1320   70.3823  221.7191 H   0  0  0  0  0  0  0  0  0  0  0  0
  139.0656   68.6947  223.5754 H   0  0  0  0  0  0  0  0  0  0  0  0
  139.6084   68.2178  225.9352 H   0  0  0  0  0  0  0  0  0  0  0  0
  141.4893   71.2452  228.3470 H   0  0  0  0  0  0  0  0  0  0  0  0
  141.4838   72.8095  226.4113 H   0  0  0  0  0  0  0  0  0  0  0  0
  1  2  2  0
  2  3  1  0
  3  4  1  0
  4  5  1  0
  5  6  2  0
  5  7  1  0
  7  8  1  0
  8  9  1  0
  9 10  1  0
 10 11  1  0
 11 12  1  0
 12 13  1  0
 13 14  2  0
 14 15  1  0
 15 16  2  0
 16 17  1  0
  2 18  1  0
 18 19  2  0
 19 20  1  0
 20 21  2  0
 21 22  1  0
 22 23  2  0
 23 24  1  0
 23 25  1  0
 25 26  2  0
 26 27  1  0
 27 28  2  0
 12  7  1  0
 17 13  1  0
 28 18  1  0
 27 21  1  0
  3 29  1  0
  4 30  1  0
  4 31  1  0
  8 32  1  0
  8 33  1  0
  9 34  1  0
  9 35  1  0
 10 36  1  0
 10 37  1  0
 11 38  1  0
 11 39  1  0
 12 40  1  1
 15 41  1  0
 16 42  1  0
 17 43  1  0
 19 44  1  0
 20 45  1  0
 22 46  1  0
 25 47  1  0
 26 48  1  0
M  END
>  <smiles>  (8) 
O=C(NCC(=O)N1CCCC[C@H]1c1ncc[nH]1)c1ccc2cc(Cl)ccc2n1

>  <score_type>  (8) 
oracle

>  <origin>  (8) 
autodockgpu

>  <m_score__min__energy>  (8) 
-7.8799999999999999

>  <m_primary>  (8) 
energy

>  <rmsd>  (8) 
3.5165630549544415

>  <m_score__min__rmsd>  (8) 
3.5165630549544415

>  <meeko>  (8) 
{"free_energy": -7.22, "intermolecular_energy": -8.71, "internal_energy": -2.52, "cluster_size": 7, "cluster_id": 3, "rank_in_cluster": 6}

>  <energy>  (8) 
-7.54

>  <cluster_rmsd>  (8) 
1.88

>  <cluster>  (8) 
1

$$$$

     RDKit          3D

 48 51  0  0  0  0  0  0  0  0999 V2000
  134.8650   68.4880  224.9940 O   0  0  0  0  0  0  0  0  0  0  0  0
  135.3010   69.6710  224.8220 C   0  0  0  0  0  0  0  0  0  0  0  0
  136.4520   69.8660  224.0040 N   0  0  0  0  0  0  0  0  0  0  0  0
  137.0460   68.6790  223.4230 C   0  0  0  0  0  0  0  0  0  0  0  0
  138.5280   68.7170  223.4830 C   0  0  0  0  0  0  0  0  0  0  0  0
  139.1920   68.3630  222.4760 O   0  0  0  0  0  0  0  0  0  0  0  0
  139.1180   69.1610  224.6970 N   0  0  0  0  0  0  0  0  0  0  0  0
  139.6450   68.2440  225.7010 C   0  0  0  0  0  0  0  0  0  0  0  0
  139.4640   68.9470  227.0520 C   0  0  0  0  0  0  0  0  0  0  0  0
  140.3980   70.1360  227.1510 C   0  0  0  0  0  0  0  0  0  0  0  0
  140.5540   70.7290  225.7500 C   0  0  0  0  0  0  0  0  0  0  0  0
  139.2290   70.5810  225.0110 C   0  0  1  0  0  0  0  0  0  0  0  0
  139.3390   71.4260  223.7960 C   0  0  0  0  0  0  0  0  0  0  0  0
  138.3530   71.8970  223.0130 N   0  0  0  0  0  0  0  0  0  0  0  0
  138.8700   72.6340  221.9980 C   0  0  0  0  0  0  0  0  0  0  0  0
  140.2460   72.6150  222.1650 C   0  0  0  0  0  0  0  0  0  0  0  0
  140.4970   71.8810  223.2550 N   0  0  0  0  0  0  0  0  0  0  0  0
  134.6380   70.8090  225.4480 C   0  0  0  0  0  0  0  0  0  0  0  0
  133.6890   70.5760  226.4220 C   0  0  0  0  0  0  0  0  0  0  0  0
  133.0190   71.6150  227.0590 C   0  0  0  0  0  0  0  0  0  0  0  0
  133.3640   72.8900  226.6560 C   0  0  0  0  0  0  0  0  0  0  0  0
  132.7580   74.0110  227.2240 C   0  0  0  0  0  0  0  0  0  0  0  0
  133.1140   75.2960  226.8090 C   0  0  0  0  0  0  0  0  0  0  0  0
  132.3250   76.6710  227.5550 Cl  0  0  0  0  0  0  0  0  0  0  0  0
  134.0740   75.4520  225.8280 C   0  0  0  0  0  0  0  0  0  0  0  0
  134.6890   74.3530  225.2500 C   0  0  0  0  0  0  0  0  0  0  0  0
  134.3190   73.0800  225.6780 C   0  0  0  0  0  0  0  0  0  0  0  0
  134.9590   72.0560  225.0710 N   0  0  0  0  0  0  0  0  0  0  0  0
  136.8530   70.8110  223.8290 H   0  0  0  0  0  0  0  0  0  0  0  0
  136.6901   67.7965  223.9748 H   0  0  0  0  0  0  0  0  0  0  0  0
  136.7484   68.6313  222.3651 H   0  0  0  0  0  0  0  0  0  0  0  0
  139.0856   67.2970  225.6849 H   0  0  0  0  0  0  0  0  0  0  0  0
  140.7011   68.0021  225.5110 H   0  0  0  0  0  0  0  0  0  0  0  0
  138.4240   69.2928  227.1454 H   0  0  0  0  0  0  0  0  0  0  0  0
  139.6975   68.2382  227.8602 H   0  0  0  0  0  0  0  0  0  0  0  0
  139.9732   70.8894  227.8306 H   0  0  0  0  0  0  0  0  0  0  0  0
  141.3759   69.8233  227.5458 H   0  0  0  0  0  0  0  0  0  0  0  0
  140.8197   71.7937  225.8254 H   0  0  0  0  0  0  0  0  0  0  0  0
  141.3504   70.2017  225.2044 H   0  0  0  0  0  0  0  0  0  0  0  0
  138.3387   70.8963  225.5748 H   0  0  0  0  0  0  0  0  0  0  0  0
  138.3091   73.1448  221.2014 H   0  0  0  0  0  0  0  0  0  0  0  0
  140.9901   73.1094  221.5233 H   0  0  0  0  0  0  0  0  0  0  0  0
  141.4580   71.6840  223.6380 H   0  0  0  0  0  0  0  0  0  0  0  0
  133.4555   69.5384  226.7028 H   0  0  0  0  0  0  0  0  0  0  0  0
  132.2615   71.4326  227.8355 H   0  0  0  0  0  0  0  0  0  0  0  0
  131.9939   73.8817  228.0047 H   0  0  0  0  0  0  0  0  0  0  0  0
  134.3545   76.4640  225.5007 H   0  0  0  0  0  0  0  0  0  0  0  0
  135.4533   74.4830  224.4696 H   0  0  0  0  0  0  0  0  0  0  0  0
  1  2  2  0
  2  3  1  0
  3  4  1  0
  4  5  1  0
  5  6  2  0
  5  7  1  0
  7  8  1  0
  8  9  1  0
  9 10  1  0
 10 11  1  0
 11 12  1  0
 12 13  1  0
 13 14  2  0
 14 15  1  0
 15 16  2  0
 16 17  1  0
  2 18  1  0
 18 19  2  0
 19 20  1  0
 20 21  2  0
 21 22  1  0
 22 23  2  0
 23 24  1  0
 23 25  1  0
 25 26  2  0
 26 27  1  0
 27 28  2  0
 12  7  1  0
 17 13  1  0
 28 18  1  0
 27 21  1  0
  3 29  1  0
  4 30  1  0
  4 31  1  0
  8 32  1  0
  8 33  1  0
  9 34  1  0
  9 35  1  0
 10 36  1  0
 10 37  1  0
 11 38  1  0
 11 39  1  0
 12 40  1  1
 15 41  1  0
 16 42  1  0
 17 43  1  0
 19 44  1  0
 20 45  1  0
 22 46  1  0
 25 47  1  0
 26 48  1  0
M  END
>  <smiles>  (9) 
O=C(NCC(=O)N1CCCC[C@H]1c1ncc[nH]1)c1ccc2cc(Cl)ccc2n1

>  <score_type>  (9) 
oracle

>  <origin>  (9) 
autodockgpu

>  <m_score__min__energy>  (9) 
-7.8799999999999999

>  <m_primary>  (9) 
energy

>  <rmsd>  (9) 
8.000426182130703

>  <m_score__min__rmsd>  (9) 
8.000426182130703

>  <meeko>  (9) 
{"free_energy": -6.73, "intermolecular_energy": -8.22, "internal_energy": -2.63, "cluster_size": 6, "cluster_id": 7, "rank_in_cluster": 3}

>  <energy>  (9) 
-7.88

>  <cluster_rmsd>  (9) 
0.0

>  <cluster>  (9) 
2

$$$$

     RDKit          3D

 48 51  0  0  0  0  0  0  0  0999 V2000
  139.1090   70.5540  221.0650 O   0  0  0  0  0  0  0  0  0  0  0  0
  139.1060   71.3710  222.0410 C   0  0  0  0  0  0  0  0  0  0  0  0
  138.6160   72.6930  221.8290 N   0  0  0  0  0  0  0  0  0  0  0  0
  138.1500   73.0070  220.4920 C   0  0  0  0  0  0  0  0  0  0  0  0
  139.1240   73.8450  219.7510 C   0  0  0  0  0  0  0  0  0  0  0  0
  138.6990   74.7620  219.0030 O   0  0  0  0  0  0  0  0  0  0  0  0
  140.5030   73.5560  219.9360 N   0  0  0  0  0  0  0  0  0  0  0  0
  141.2930   72.8210  218.9550 C   0  0  0  0  0  0  0  0  0  0  0  0
  142.3680   72.0730  219.7550 C   0  0  0  0  0  0  0  0  0  0  0  0
  143.3670   73.0560  220.3310 C   0  0  0  0  0  0  0  0  0  0  0  0
  142.6170   74.3470  220.6640 C   0  0  0  0  0  0  0  0  0  0  0  0
  141.2140   73.9840  221.1340 C   0  0  1  0  0  0  0  0  0  0  0  0
  140.6440   75.2220  221.7230 C   0  0  0  0  0  0  0  0  0  0  0  0
  139.4600   75.3880  222.3380 N   0  0  0  0  0  0  0  0  0  0  0  0
  139.3130   76.6770  222.7340 C   0  0  0  0  0  0  0  0  0  0  0  0
  140.4670   77.3390  222.3430 C   0  0  0  0  0  0  0  0  0  0  0  0
  141.2480   76.4380  221.7370 N   0  0  0  0  0  0  0  0  0  0  0  0
  139.5960   70.9680  223.3540 C   0  0  0  0  0  0  0  0  0  0  0  0
  140.3280   71.8690  224.0990 C   0  0  0  0  0  0  0  0  0  0  0  0
  140.8240   71.5480  225.3590 C   0  0  0  0  0  0  0  0  0  0  0  0
  140.5400   70.2760  225.8130 C   0  0  0  0  0  0  0  0  0  0  0  0
  140.9860   69.8430  227.0610 C   0  0  0  0  0  0  0  0  0  0  0  0
  140.6920   68.5540  227.5110 C   0  0  0  0  0  0  0  0  0  0  0  0
  141.2750   68.0580  229.0860 Cl  0  0  0  0  0  0  0  0  0  0  0  0
  139.9530   67.7050  226.7080 C   0  0  0  0  0  0  0  0  0  0  0  0
  139.5000   68.1150  225.4650 C   0  0  0  0  0  0  0  0  0  0  0  0
  139.8040   69.4050  225.0350 C   0  0  0  0  0  0  0  0  0  0  0  0
  139.3300   69.7360  223.8130 N   0  0  0  0  0  0  0  0  0  0  0  0
  138.5900   73.4030  222.5890 H   0  0  0  0  0  0  0  0  0  0  0  0
  137.9951   72.0685  219.9395 H   0  0  0  0  0  0  0  0  0  0  0  0
  137.2111   73.5730  220.5817 H   0  0  0  0  0  0  0  0  0  0  0  0
  140.6577   72.1084  218.4087 H   0  0  0  0  0  0  0  0  0  0  0  0
  141.7404   73.4954  218.2100 H   0  0  0  0  0  0  0  0  0  0  0  0
  141.8902   71.5172  220.5752 H   0  0  0  0  0  0  0  0  0  0  0  0
  142.8939   71.3754  219.0866 H   0  0  0  0  0  0  0  0  0  0  0  0
  143.8177   72.6394  221.2439 H   0  0  0  0  0  0  0  0  0  0  0  0
  144.1703   73.2553  219.6064 H   0  0  0  0  0  0  0  0  0  0  0  0
  143.1468   74.8887  221.4614 H   0  0  0  0  0  0  0  0  0  0  0  0
  142.5613   74.9907  219.7737 H   0  0  0  0  0  0  0  0  0  0  0  0
  141.1635   73.1845  221.8878 H   0  0  0  0  0  0  0  0  0  0  0  0
  138.4501   77.1108  223.2605 H   0  0  0  0  0  0  0  0  0  0  0  0
  140.6965   78.4031  222.5012 H   0  0  0  0  0  0  0  0  0  0  0  0
  142.1970   76.6420  221.3300 H   0  0  0  0  0  0  0  0  0  0  0  0
  140.5252   72.8691  223.6856 H   0  0  0  0  0  0  0  0  0  0  0  0
  141.4068   72.2643  225.9566 H   0  0  0  0  0  0  0  0  0  0  0  0
  141.5740   70.5219  227.6961 H   0  0  0  0  0  0  0  0  0  0  0  0
  139.7215   66.6894  227.0614 H   0  0  0  0  0  0  0  0  0  0  0  0
  138.9121   67.4359  224.8301 H   0  0  0  0  0  0  0  0  0  0  0  0
  1  2  2  0
  2  3  1  0
  3  4  1  0
  4  5  1  0
  5  6  2  0
  5  7  1  0
  7  8  1  0
  8  9  1  0
  9 10  1  0
 10 11  1  0
 11 12  1  0
 12 13  1  0
 13 14  2  0
 14 15  1  0
 15 16  2  0
 16 17  1  0
  2 18  1  0
 18 19  2  0
 19 20  1  0
 20 21  2  0
 21 22  1  0
 22 23  2  0
 23 24  1  0
 23 25  1  0
 25 26  2  0
 26 27  1  0
 27 28  2  0
 12  7  1  0
 17 13  1  0
 28 18  1  0
 27 21  1  0
  3 29  1  0
  4 30  1  0
  4 31  1  0
  8 32  1  0
  8 33  1  0
  9 34  1  0
  9 35  1  0
 10 36  1  0
 10 37  1  0
 11 38  1  0
 11 39  1  0
 12 40  1  1
 15 41  1  0
 16 42  1  0
 17 43  1  0
 19 44  1  0
 20 45  1  0
 22 46  1  0
 25 47  1  0
 26 48  1  0
M  END
>  <smiles>  (10) 
O=C(NCC(=O)N1CCCC[C@H]1c1ncc[nH]1)c1ccc2cc(Cl)ccc2n1

>  <score_type>  (10) 
oracle

>  <origin>  (10) 
autodockgpu

>  <m_score__min__energy>  (10) 
-7.8799999999999999

>  <m_primary>  (10) 
energy

>  <rmsd>  (10) 
3.226232327973095

>  <m_score__min__rmsd>  (10) 
3.226232327973095

>  <meeko>  (10) 
{"free_energy": -7.2, "intermolecular_energy": -8.69, "internal_energy": -2.54, "cluster_size": 7, "cluster_id": 5, "rank_in_cluster": 7}

>  <energy>  (10) 
-7.37

>  <cluster_rmsd>  (10) 
1.16

>  <cluster>  (10) 
2

$$$$

     RDKit          3D

 48 51  0  0  0  0  0  0  0  0999 V2000
  134.8140   68.5070  224.9160 O   0  0  0  0  0  0  0  0  0  0  0  0
  135.2830   69.6830  224.7830 C   0  0  0  0  0  0  0  0  0  0  0  0
  136.4610   69.8680  224.0020 N   0  0  0  0  0  0  0  0  0  0  0  0
  137.0430   68.6800  223.4110 C   0  0  0  0  0  0  0  0  0  0  0  0
  138.5240   68.6920  223.4930 C   0  0  0  0  0  0  0  0  0  0  0  0
  139.1960   68.3060  222.5030 O   0  0  0  0  0  0  0  0  0  0  0  0
  139.1040   69.1480  224.7070 N   0  0  0  0  0  0  0  0  0  0  0  0
  139.6180   68.2410  225.7260 C   0  0  0  0  0  0  0  0  0  0  0  0
  139.4260   68.9600  227.0670 C   0  0  0  0  0  0  0  0  0  0  0  0
  140.3650   70.1460  227.1610 C   0  0  0  0  0  0  0  0  0  0  0  0
  140.5370   70.7220  225.7550 C   0  0  0  0  0  0  0  0  0  0  0  0
  139.2180   70.5700  225.0060 C   0  0  1  0  0  0  0  0  0  0  0  0
  139.3430   71.4010  223.7810 C   0  0  0  0  0  0  0  0  0  0  0  0
  138.3650   71.9050  223.0100 N   0  0  0  0  0  0  0  0  0  0  0  0
  138.8960   72.6120  221.9800 C   0  0  0  0  0  0  0  0  0  0  0  0
  140.2720   72.5380  222.1260 C   0  0  0  0  0  0  0  0  0  0  0  0
  140.5110   71.8040  223.2180 N   0  0  0  0  0  0  0  0  0  0  0  0
  134.6300   70.8220  225.4160 C   0  0  0  0  0  0  0  0  0  0  0  0
  133.6880   70.5910  226.3980 C   0  0  0  0  0  0  0  0  0  0  0  0
  133.0280   71.6330  227.0420 C   0  0  0  0  0  0  0  0  0  0  0  0
  133.3730   72.9070  226.6370 C   0  0  0  0  0  0  0  0  0  0  0  0
  132.7760   74.0290  227.2120 C   0  0  0  0  0  0  0  0  0  0  0  0
  133.1330   75.3130  226.7950 C   0  0  0  0  0  0  0  0  0  0  0  0
  132.3540   76.6900  227.5480 Cl  0  0  0  0  0  0  0  0  0  0  0  0
  134.0840   75.4670  225.8050 C   0  0  0  0  0  0  0  0  0  0  0  0
  134.6890   74.3670  225.2200 C   0  0  0  0  0  0  0  0  0  0  0  0
  134.3200   73.0940  225.6510 C   0  0  0  0  0  0  0  0  0  0  0  0
  134.9510   72.0680  225.0370 N   0  0  0  0  0  0  0  0  0  0  0  0
  136.8880   70.8060  223.8590 H   0  0  0  0  0  0  0  0  0  0  0  0
  136.6642   67.7953  223.9438 H   0  0  0  0  0  0  0  0  0  0  0  0
  136.7599   68.6534  222.3484 H   0  0  0  0  0  0  0  0  0  0  0  0
  139.0556   67.2957  225.7151 H   0  0  0  0  0  0  0  0  0  0  0  0
  140.6751   67.9935  225.5491 H   0  0  0  0  0  0  0  0  0  0  0  0
  138.3867   69.3116  227.1458 H   0  0  0  0  0  0  0  0  0  0  0  0
  139.6472   68.2597  227.8860 H   0  0  0  0  0  0  0  0  0  0  0  0
  139.9375   70.9093  227.8278 H   0  0  0  0  0  0  0  0  0  0  0  0
  141.3377   69.8332  227.5685 H   0  0  0  0  0  0  0  0  0  0  0  0
  140.8062   71.7866  225.8204 H   0  0  0  0  0  0  0  0  0  0  0  0
  141.3368   70.1859  225.2230 H   0  0  0  0  0  0  0  0  0  0  0  0
  138.3240   70.8948  225.5585 H   0  0  0  0  0  0  0  0  0  0  0  0
  138.3441   73.1386  221.1875 H   0  0  0  0  0  0  0  0  0  0  0  0
  141.0252   72.9963  221.4682 H   0  0  0  0  0  0  0  0  0  0  0  0
  141.4680   71.5710  223.5890 H   0  0  0  0  0  0  0  0  0  0  0  0
  133.4524   69.5540  226.6794 H   0  0  0  0  0  0  0  0  0  0  0  0
  132.2774   71.4528  227.8257 H   0  0  0  0  0  0  0  0  0  0  0  0
  132.0187   73.9014  227.9995 H   0  0  0  0  0  0  0  0  0  0  0  0
  134.3650   76.4784  225.4763 H   0  0  0  0  0  0  0  0  0  0  0  0
  135.4451   74.4954  224.4315 H   0  0  0  0  0  0  0  0  0  0  0  0
  1  2  2  0
  2  3  1  0
  3  4  1  0
  4  5  1  0
  5  6  2  0
  5  7  1  0
  7  8  1  0
  8  9  1  0
  9 10  1  0
 10 11  1  0
 11 12  1  0
 12 13  1  0
 13 14  2  0
 14 15  1  0
 15 16  2  0
 16 17  1  0
  2 18  1  0
 18 19  2  0
 19 20  1  0
 20 21  2  0
 21 22  1  0
 22 23  2  0
 23 24  1  0
 23 25  1  0
 25 26  2  0
 26 27  1  0
 27 28  2  0
 12  7  1  0
 17 13  1  0
 28 18  1  0
 27 21  1  0
  3 29  1  0
  4 30  1  0
  4 31  1  0
  8 32  1  0
  8 33  1  0
  9 34  1  0
  9 35  1  0
 10 36  1  0
 10 37  1  0
 11 38  1  0
 11 39  1  0
 12 40  1  1
 15 41  1  0
 16 42  1  0
 17 43  1  0
 19 44  1  0
 20 45  1  0
 22 46  1  0
 25 47  1  0
 26 48  1  0
M  END
>  <smiles>  (11) 
O=C(NCC(=O)N1CCCC[C@H]1c1ncc[nH]1)c1ccc2cc(Cl)ccc2n1

>  <score_type>  (11) 
oracle

>  <origin>  (11) 
autodockgpu

>  <m_score__min__energy>  (11) 
-7.8799999999999999

>  <m_primary>  (11) 
energy

>  <rmsd>  (11) 
8.011460531267007

>  <m_score__min__rmsd>  (11) 
8.011460531267007

>  <meeko>  (11) 
{"free_energy": -6.74, "intermolecular_energy": -8.23, "internal_energy": -2.62, "cluster_size": 6, "cluster_id": 7, "rank_in_cluster": 2}

>  <energy>  (11) 
-7.64

>  <cluster_rmsd>  (11) 
0.0

>  <cluster>  (11) 
3

$$$$

     RDKit          3D

 48 51  0  0  0  0  0  0  0  0999 V2000
  140.2790   74.1330  222.0160 O   0  0  0  0  0  0  0  0  0  0  0  0
  140.2030   72.8830  221.7880 C   0  0  0  0  0  0  0  0  0  0  0  0
  140.1760   72.4320  220.4360 N   0  0  0  0  0  0  0  0  0  0  0  0
  140.2380   73.4530  219.4080 C   0  0  0  0  0  0  0  0  0  0  0  0
  141.5420   73.4450  218.7010 C   0  0  0  0  0  0  0  0  0  0  0  0
  141.5640   73.6000  217.4540 O   0  0  0  0  0  0  0  0  0  0  0  0
  142.7080   73.2610  219.4920 N   0  0  0  0  0  0  0  0  0  0  0  0
  143.5530   72.0780  219.3880 C   0  0  0  0  0  0  0  0  0  0  0  0
  144.1580   71.8680  220.7810 C   0  0  0  0  0  0  0  0  0  0  0  0
  145.1510   72.9700  221.0900 C   0  0  0  0  0  0  0  0  0  0  0  0
  144.6540   74.2520  220.4200 C   0  0  0  0  0  0  0  0  0  0  0  0
  143.1310   74.2610  220.4650 C   0  0  1  0  0  0  0  0  0  0  0  0
  142.7170   75.6360  220.0850 C   0  0  0  0  0  0  0  0  0  0  0  0
  143.1830   76.4040  219.0860 N   0  0  0  0  0  0  0  0  0  0  0  0
  142.5420   77.6000  219.0730 C   0  0  0  0  0  0  0  0  0  0  0  0
  141.6330   77.5650  220.1200 C   0  0  0  0  0  0  0  0  0  0  0  0
  141.7620   76.3710  220.7100 N   0  0  0  0  0  0  0  0  0  0  0  0
  140.1450   71.9260  222.8870 C   0  0  0  0  0  0  0  0  0  0  0  0
  139.5890   70.6830  222.6610 C   0  0  0  0  0  0  0  0  0  0  0  0
  139.5030   69.7240  223.6640 C   0  0  0  0  0  0  0  0  0  0  0  0
  140.0050   70.0940  224.8960 C   0  0  0  0  0  0  0  0  0  0  0  0
  139.9720   69.2140  225.9780 C   0  0  0  0  0  0  0  0  0  0  0  0
  140.4830   69.5990  227.2200 C   0  0  0  0  0  0  0  0  0  0  0  0
  140.4180   68.4570  228.5470 Cl  0  0  0  0  0  0  0  0  0  0  0  0
  141.0250   70.8610  227.3720 C   0  0  0  0  0  0  0  0  0  0  0  0
  141.0680   71.7510  226.3110 C   0  0  0  0  0  0  0  0  0  0  0  0
  140.5530   71.3470  225.0800 C   0  0  0  0  0  0  0  0  0  0  0  0
  140.6280   72.2660  224.0910 N   0  0  0  0  0  0  0  0  0  0  0  0
  140.1140   71.4230  220.1900 H   0  0  0  0  0  0  0  0  0  0  0  0
  139.4359   73.2718  218.6774 H   0  0  0  0  0  0  0  0  0  0  0  0
  140.1179   74.4333  219.8923 H   0  0  0  0  0  0  0  0  0  0  0  0
  142.9526   71.2037  219.0962 H   0  0  0  0  0  0  0  0  0  0  0  0
  144.3342   72.2064  218.6243 H   0  0  0  0  0  0  0  0  0  0  0  0
  143.3546   71.8813  221.5322 H   0  0  0  0  0  0  0  0  0  0  0  0
  144.6775   70.8987  220.8051 H   0  0  0  0  0  0  0  0  0  0  0  0
  145.2179   73.1186  222.1779 H   0  0  0  0  0  0  0  0  0  0  0  0
  146.1494   72.7029  220.7132 H   0  0  0  0  0  0  0  0  0  0  0  0
  145.0464   75.1279  220.9575 H   0  0  0  0  0  0  0  0  0  0  0  0
  145.0008   74.2913  219.3768 H   0  0  0  0  0  0  0  0  0  0  0  0
  142.6888   74.0209  221.4432 H   0  0  0  0  0  0  0  0  0  0  0  0
  142.7098   78.4311  218.3722 H   0  0  0  0  0  0  0  0  0  0  0  0
  140.9379   78.3667  220.4102 H   0  0  0  0  0  0  0  0  0  0  0  0
  141.2020   76.0480  221.5400 H   0  0  0  0  0  0  0  0  0  0  0  0
  139.2030   70.4444  221.6590 H   0  0  0  0  0  0  0  0  0  0  0  0
  139.0623   68.7318  223.4870 H   0  0  0  0  0  0  0  0  0  0  0  0
  139.5406   68.2099  225.8524 H   0  0  0  0  0  0  0  0  0  0  0  0
  141.4282   71.1634  228.3497 H   0  0  0  0  0  0  0  0  0  0  0  0
  141.4993   72.7550  226.4372 H   0  0  0  0  0  0  0  0  0  0  0  0
  1  2  2  0
  2  3  1  0
  3  4  1  0
  4  5  1  0
  5  6  2  0
  5  7  1  0
  7  8  1  0
  8  9  1  0
  9 10  1  0
 10 11  1  0
 11 12  1  0
 12 13  1  0
 13 14  2  0
 14 15  1  0
 15 16  2  0
 16 17  1  0
  2 18  1  0
 18 19  2  0
 19 20  1  0
 20 21  2  0
 21 22  1  0
 22 23  2  0
 23 24  1  0
 23 25  1  0
 25 26  2  0
 26 27  1  0
 27 28  2  0
 12  7  1  0
 17 13  1  0
 28 18  1  0
 27 21  1  0
  3 29  1  0
  4 30  1  0
  4 31  1  0
  8 32  1  0
  8 33  1  0
  9 34  1  0
  9 35  1  0
 10 36  1  0
 10 37  1  0
 11 38  1  0
 11 39  1  0
 12 40  1  1
 15 41  1  0
 16 42  1  0
 17 43  1  0
 19 44  1  0
 20 45  1  0
 22 46  1  0
 25 47  1  0
 26 48  1  0
M  END
>  <smiles>  (12) 
O=C(NCC(=O)N1CCCC[C@H]1c1ncc[nH]1)c1ccc2cc(Cl)ccc2n1

>  <score_type>  (12) 
oracle

>  <origin>  (12) 
autodockgpu

>  <m_score__min__energy>  (12) 
-7.8799999999999999

>  <m_primary>  (12) 
energy

>  <rmsd>  (12) 
3.5439515474189265

>  <m_score__min__rmsd>  (12) 
3.5439515474189265

>  <meeko>  (12) 
{"free_energy": -7.25, "intermolecular_energy": -8.74, "internal_energy": -2.52, "cluster_size": 7, "cluster_id": 3, "rank_in_cluster": 5}

>  <energy>  (12) 
-7.37

>  <cluster_rmsd>  (12) 
1.06

>  <cluster>  (12) 
3

$$$$

     RDKit          3D

 48 51  0  0  0  0  0  0  0  0999 V2000
  139.9520   74.1080  222.1750 O   0  0  0  0  0  0  0  0  0  0  0  0
  140.1210   72.8660  221.9560 C   0  0  0  0  0  0  0  0  0  0  0  0
  140.3200   72.4270  220.6140 N   0  0  0  0  0  0  0  0  0  0  0  0
  140.3150   73.4500  219.5870 C   0  0  0  0  0  0  0  0  0  0  0  0
  141.5540   73.4190  218.7720 C   0  0  0  0  0  0  0  0  0  0  0  0
  141.4660   73.5060  217.5210 O   0  0  0  0  0  0  0  0  0  0  0  0
  142.7870   73.2920  219.4670 N   0  0  0  0  0  0  0  0  0  0  0  0
  143.7040   72.1790  219.2510 C   0  0  0  0  0  0  0  0  0  0  0  0
  144.4250   71.9610  220.5870 C   0  0  0  0  0  0  0  0  0  0  0  0
  145.3570   73.1220  220.8710 C   0  0  0  0  0  0  0  0  0  0  0  0
  144.7210   74.3870  220.2940 C   0  0  0  0  0  0  0  0  0  0  0  0
  143.2090   74.2830  220.4490 C   0  0  1  0  0  0  0  0  0  0  0  0
  142.6710   75.6360  220.1610 C   0  0  0  0  0  0  0  0  0  0  0  0
  143.0550   76.5030  219.2080 N   0  0  0  0  0  0  0  0  0  0  0  0
  142.3110   77.6360  219.2760 C   0  0  0  0  0  0  0  0  0  0  0  0
  141.4240   77.4570  220.3260 C   0  0  0  0  0  0  0  0  0  0  0  0
  141.6640   76.2450  220.8380 N   0  0  0  0  0  0  0  0  0  0  0  0
  140.1100   71.9060  223.0530 C   0  0  0  0  0  0  0  0  0  0  0  0
  139.5940   70.6450  222.8320 C   0  0  0  0  0  0  0  0  0  0  0  0
  139.5530   69.6820  223.8340 C   0  0  0  0  0  0  0  0  0  0  0  0
  140.0600   70.0650  225.0600 C   0  0  0  0  0  0  0  0  0  0  0  0
  140.0720   69.1840  226.1400 C   0  0  0  0  0  0  0  0  0  0  0  0
  140.5870   69.5830  227.3750 C   0  0  0  0  0  0  0  0  0  0  0  0
  140.5790   68.4370  228.7010 Cl  0  0  0  0  0  0  0  0  0  0  0  0
  141.0870   70.8620  227.5230 C   0  0  0  0  0  0  0  0  0  0  0  0
  141.0860   71.7550  226.4630 C   0  0  0  0  0  0  0  0  0  0  0  0
  140.5670   71.3370  225.2390 C   0  0  0  0  0  0  0  0  0  0  0  0
  140.5980   72.2590  224.2510 N   0  0  0  0  0  0  0  0  0  0  0  0
  140.4630   71.4240  220.3750 H   0  0  0  0  0  0  0  0  0  0  0  0
  139.4504   73.2873  218.9267 H   0  0  0  0  0  0  0  0  0  0  0  0
  140.2559   74.4307  220.0818 H   0  0  0  0  0  0  0  0  0  0  0  0
  143.1469   71.2746  218.9651 H   0  0  0  0  0  0  0  0  0  0  0  0
  144.4149   72.3939  218.4395 H   0  0  0  0  0  0  0  0  0  0  0  0
  143.6812   71.8857  221.3939 H   0  0  0  0  0  0  0  0  0  0  0  0
  145.0125   71.0327  220.5319 H   0  0  0  0  0  0  0  0  0  0  0  0
  145.4941   73.2343  221.9566 H   0  0  0  0  0  0  0  0  0  0  0  0
  146.3410   72.9445  220.4126 H   0  0  0  0  0  0  0  0  0  0  0  0
  145.0898   75.2689  220.8382 H   0  0  0  0  0  0  0  0  0  0  0  0
  144.9843   74.4895  219.2309 H   0  0  0  0  0  0  0  0  0  0  0  0
  142.8591   73.9748  221.4453 H   0  0  0  0  0  0  0  0  0  0  0  0
  142.3951   78.5202  218.6271 H   0  0  0  0  0  0  0  0  0  0  0  0
  140.6665   78.1754  220.6724 H   0  0  0  0  0  0  0  0  0  0  0  0
  141.1460   75.8230  221.6510 H   0  0  0  0  0  0  0  0  0  0  0  0
  139.2040   70.3948  221.8344 H   0  0  0  0  0  0  0  0  0  0  0  0
  139.1418   68.6765  223.6607 H   0  0  0  0  0  0  0  0  0  0  0  0
  139.6726   68.1663  226.0184 H   0  0  0  0  0  0  0  0  0  0  0  0
  141.4919   71.1764  228.4962 H   0  0  0  0  0  0  0  0  0  0  0  0
  141.4864   72.7722  226.5853 H   0  0  0  0  0  0  0  0  0  0  0  0
  1  2  2  0
  2  3  1  0
  3  4  1  0
  4  5  1  0
  5  6  2  0
  5  7  1  0
  7  8  1  0
  8  9  1  0
  9 10  1  0
 10 11  1  0
 11 12  1  0
 12 13  1  0
 13 14  2  0
 14 15  1  0
 15 16  2  0
 16 17  1  0
  2 18  1  0
 18 19  2  0
 19 20  1  0
 20 21  2  0
 21 22  1  0
 22 23  2  0
 23 24  1  0
 23 25  1  0
 25 26  2  0
 26 27  1  0
 27 28  2  0
 12  7  1  0
 17 13  1  0
 28 18  1  0
 27 21  1  0
  3 29  1  0
  4 30  1  0
  4 31  1  0
  8 32  1  0
  8 33  1  0
  9 34  1  0
  9 35  1  0
 10 36  1  0
 10 37  1  0
 11 38  1  0
 11 39  1  0
 12 40  1  1
 15 41  1  0
 16 42  1  0
 17 43  1  0
 19 44  1  0
 20 45  1  0
 22 46  1  0
 25 47  1  0
 26 48  1  0
M  END
>  <smiles>  (13) 
O=C(NCC(=O)N1CCCC[C@H]1c1ncc[nH]1)c1ccc2cc(Cl)ccc2n1

>  <score_type>  (13) 
oracle

>  <origin>  (13) 
autodockgpu

>  <m_score__min__energy>  (13) 
-7.8799999999999999

>  <m_primary>  (13) 
energy

>  <rmsd>  (13) 
3.509000564401007

>  <m_score__min__rmsd>  (13) 
3.509000564401007

>  <meeko>  (13) 
{"free_energy": -7.31, "intermolecular_energy": -8.8, "internal_energy": -2.4, "cluster_size": 7, "cluster_id": 3, "rank_in_cluster": 4}

>  <energy>  (13) 
-7.33

>  <cluster_rmsd>  (13) 
1.07

>  <cluster>  (13) 
3

$$$$

     RDKit          3D

 48 51  0  0  0  0  0  0  0  0999 V2000
  138.9290   70.5500  221.2000 O   0  0  0  0  0  0  0  0  0  0  0  0
  139.0590   71.3860  222.1510 C   0  0  0  0  0  0  0  0  0  0  0  0
  138.6840   72.7430  221.9270 N   0  0  0  0  0  0  0  0  0  0  0  0
  138.1750   73.0690  220.6090 C   0  0  0  0  0  0  0  0  0  0  0  0
  139.1580   73.8480  219.8160 C   0  0  0  0  0  0  0  0  0  0  0  0
  138.7420   74.7160  219.0070 O   0  0  0  0  0  0  0  0  0  0  0  0
  140.5340   73.5610  220.0230 N   0  0  0  0  0  0  0  0  0  0  0  0
  141.3290   72.7840  219.0790 C   0  0  0  0  0  0  0  0  0  0  0  0
  142.3940   72.0660  219.9160 C   0  0  0  0  0  0  0  0  0  0  0  0
  143.3930   73.0670  220.4600 C   0  0  0  0  0  0  0  0  0  0  0  0
  142.6460   74.3730  220.7350 C   0  0  0  0  0  0  0  0  0  0  0  0
  141.2370   74.0350  221.2080 C   0  0  1  0  0  0  0  0  0  0  0  0
  140.6680   75.2980  221.7420 C   0  0  0  0  0  0  0  0  0  0  0  0
  139.4910   75.4890  222.3610 N   0  0  0  0  0  0  0  0  0  0  0  0
  139.3420   76.7950  222.6960 C   0  0  0  0  0  0  0  0  0  0  0  0
  140.4880   77.4420  222.2600 C   0  0  0  0  0  0  0  0  0  0  0  0
  141.2670   76.5150  221.6900 N   0  0  0  0  0  0  0  0  0  0  0  0
  139.5810   70.9690  223.4460 C   0  0  0  0  0  0  0  0  0  0  0  0
  140.3150   71.8680  224.1920 C   0  0  0  0  0  0  0  0  0  0  0  0
  140.8410   71.5350  225.4350 C   0  0  0  0  0  0  0  0  0  0  0  0
  140.5850   70.2510  225.8740 C   0  0  0  0  0  0  0  0  0  0  0  0
  141.0620   69.8040  227.1060 C   0  0  0  0  0  0  0  0  0  0  0  0
  140.7960   68.5040  227.5400 C   0  0  0  0  0  0  0  0  0  0  0  0
  141.4190   67.9910  229.0950 Cl  0  0  0  0  0  0  0  0  0  0  0  0
  140.0540   67.6580  226.7390 C   0  0  0  0  0  0  0  0  0  0  0  0
  139.5690   68.0800  225.5120 C   0  0  0  0  0  0  0  0  0  0  0  0
  139.8460   69.3820  225.0970 C   0  0  0  0  0  0  0  0  0  0  0  0
  139.3420   69.7260  223.8910 N   0  0  0  0  0  0  0  0  0  0  0  0
  138.7680   73.4700  222.6670 H   0  0  0  0  0  0  0  0  0  0  0  0
  137.9464   72.1351  220.0745 H   0  0  0  0  0  0  0  0  0  0  0  0
  137.2718   73.6843  220.7338 H   0  0  0  0  0  0  0  0  0  0  0  0
  140.6952   72.0520  218.5570 H   0  0  0  0  0  0  0  0  0  0  0  0
  141.7848   73.4262  218.3110 H   0  0  0  0  0  0  0  0  0  0  0  0
  141.9077   71.5455  220.7542 H   0  0  0  0  0  0  0  0  0  0  0  0
  142.9222   71.3405  219.2798 H   0  0  0  0  0  0  0  0  0  0  0  0
  143.8348   72.6855  221.3923 H   0  0  0  0  0  0  0  0  0  0  0  0
  144.2029   73.2337  219.7345 H   0  0  0  0  0  0  0  0  0  0  0  0
  143.1719   74.9440  221.5144 H   0  0  0  0  0  0  0  0  0  0  0  0
  142.6001   74.9805  219.8191 H   0  0  0  0  0  0  0  0  0  0  0  0
  141.1767   73.2670  221.9932 H   0  0  0  0  0  0  0  0  0  0  0  0
  138.4831   77.2500  223.2110 H   0  0  0  0  0  0  0  0  0  0  0  0
  140.7140   78.5136  222.3630 H   0  0  0  0  0  0  0  0  0  0  0  0
  142.2100   76.7030  221.2630 H   0  0  0  0  0  0  0  0  0  0  0  0
  140.4891   72.8776  223.7916 H   0  0  0  0  0  0  0  0  0  0  0  0
  141.4253   72.2505  226.0322 H   0  0  0  0  0  0  0  0  0  0  0  0
  141.6524   70.4811  227.7408 H   0  0  0  0  0  0  0  0  0  0  0  0
  139.8450   66.6335  227.0807 H   0  0  0  0  0  0  0  0  0  0  0  0
  138.9779   67.4023  224.8785 H   0  0  0  0  0  0  0  0  0  0  0  0
  1  2  2  0
  2  3  1  0
  3  4  1  0
  4  5  1  0
  5  6  2  0
  5  7  1  0
  7  8  1  0
  8  9  1  0
  9 10  1  0
 10 11  1  0
 11 12  1  0
 12 13  1  0
 13 14  2  0
 14 15  1  0
 15 16  2  0
 16 17  1  0
  2 18  1  0
 18 19  2  0
 19 20  1  0
 20 21  2  0
 21 22  1  0
 22 23  2  0
 23 24  1  0
 23 25  1  0
 25 26  2  0
 26 27  1  0
 27 28  2  0
 12  7  1  0
 17 13  1  0
 28 18  1  0
 27 21  1  0
  3 29  1  0
  4 30  1  0
  4 31  1  0
  8 32  1  0
  8 33  1  0
  9 34  1  0
  9 35  1  0
 10 36  1  0
 10 37  1  0
 11 38  1  0
 11 39  1  0
 12 40  1  1
 15 41  1  0
 16 42  1  0
 17 43  1  0
 19 44  1  0
 20 45  1  0
 22 46  1  0
 25 47  1  0
 26 48  1  0
M  END
>  <smiles>  (14) 
O=C(NCC(=O)N1CCCC[C@H]1c1ncc[nH]1)c1ccc2cc(Cl)ccc2n1

>  <score_type>  (14) 
oracle

>  <origin>  (14) 
autodockgpu

>  <m_score__min__energy>  (14) 
-7.8799999999999999

>  <m_primary>  (14) 
energy

>  <rmsd>  (14) 
3.2321114956218158

>  <m_score__min__rmsd>  (14) 
3.2321114956218158

>  <meeko>  (14) 
{"free_energy": -7.32, "intermolecular_energy": -8.81, "internal_energy": -2.52, "cluster_size": 7, "cluster_id": 5, "rank_in_cluster": 5}

>  <energy>  (14) 
-7.31

>  <cluster_rmsd>  (14) 
1.09

>  <cluster>  (14) 
3

$$$$

     RDKit          3D

 48 51  0  0  0  0  0  0  0  0999 V2000
  140.2920   72.0940  220.7460 O   0  0  0  0  0  0  0  0  0  0  0  0
  140.0650   72.4930  221.9330 C   0  0  0  0  0  0  0  0  0  0  0  0
  139.8060   73.8770  222.1540 N   0  0  0  0  0  0  0  0  0  0  0  0
  139.8210   74.7370  220.9870 C   0  0  0  0  0  0  0  0  0  0  0  0
  140.6390   75.9540  221.2090 C   0  0  0  0  0  0  0  0  0  0  0  0
  140.8470   76.3460  222.3850 O   0  0  0  0  0  0  0  0  0  0  0  0
  141.1470   76.6150  220.0580 N   0  0  0  0  0  0  0  0  0  0  0  0
  140.7990   77.9900  219.7200 C   0  0  0  0  0  0  0  0  0  0  0  0
  140.8550   78.0750  218.1900 C   0  0  0  0  0  0  0  0  0  0  0  0
  142.2890   77.9570  217.7130 C   0  0  0  0  0  0  0  0  0  0  0  0
  143.0270   77.0220  218.6710 C   0  0  0  0  0  0  0  0  0  0  0  0
  142.0570   75.9440  219.1380 C   0  0  1  0  0  0  0  0  0  0  0  0
  142.8840   74.9090  219.8090 C   0  0  0  0  0  0  0  0  0  0  0  0
  144.1350   75.0180  220.2860 N   0  0  0  0  0  0  0  0  0  0  0  0
  144.5360   73.8410  220.8290 C   0  0  0  0  0  0  0  0  0  0  0  0
  143.4760   72.9610  220.6760 C   0  0  0  0  0  0  0  0  0  0  0  0
  142.4960   73.6320  220.0600 N   0  0  0  0  0  0  0  0  0  0  0  0
  140.0710   71.5550  223.0490 C   0  0  0  0  0  0  0  0  0  0  0  0
  139.5650   70.2860  222.8570 C   0  0  0  0  0  0  0  0  0  0  0  0
  139.5400   69.3430  223.8790 C   0  0  0  0  0  0  0  0  0  0  0  0
  140.0510   69.7560  225.0940 C   0  0  0  0  0  0  0  0  0  0  0  0
  140.0780   68.8960  226.1910 C   0  0  0  0  0  0  0  0  0  0  0  0
  140.5970   69.3250  227.4150 C   0  0  0  0  0  0  0  0  0  0  0  0
  140.6090   68.2070  228.7630 Cl  0  0  0  0  0  0  0  0  0  0  0  0
  141.0870   70.6120  227.5330 C   0  0  0  0  0  0  0  0  0  0  0  0
  141.0700   71.4830  226.4550 C   0  0  0  0  0  0  0  0  0  0  0  0
  140.5470   71.0350  225.2430 C   0  0  0  0  0  0  0  0  0  0  0  0
  140.5630   71.9370  224.2370 N   0  0  0  0  0  0  0  0  0  0  0  0
  139.6150   74.2600  223.1030 H   0  0  0  0  0  0  0  0  0  0  0  0
  140.2394   74.1770  220.1376 H   0  0  0  0  0  0  0  0  0  0  0  0
  138.7874   75.0529  220.7823 H   0  0  0  0  0  0  0  0  0  0  0  0
  139.7869   78.2277  220.0794 H   0  0  0  0  0  0  0  0  0  0  0  0
  141.4881   78.7075  220.1894 H   0  0  0  0  0  0  0  0  0  0  0  0
  140.2597   77.2569  217.7583 H   0  0  0  0  0  0  0  0  0  0  0  0
  140.4477   79.0449  217.8685 H   0  0  0  0  0  0  0  0  0  0  0  0
  142.3112   77.5421  216.6945 H   0  0  0  0  0  0  0  0  0  0  0  0
  142.7700   78.9461  217.6962 H   0  0  0  0  0  0  0  0  0  0  0  0
  143.8780   76.5560  218.1526 H   0  0  0  0  0  0  0  0  0  0  0  0
  143.4044   77.5890  219.5347 H   0  0  0  0  0  0  0  0  0  0  0  0
  141.4728   75.4606  218.3411 H   0  0  0  0  0  0  0  0  0  0  0  0
  145.5083   73.6277  221.2972 H   0  0  0  0  0  0  0  0  0  0  0  0
  143.4462   71.9101  220.9997 H   0  0  0  0  0  0  0  0  0  0  0  0
  141.5590   73.2280  219.8060 H   0  0  0  0  0  0  0  0  0  0  0  0
  139.1701   70.0122  221.8675 H   0  0  0  0  0  0  0  0  0  0  0  0
  139.1379   68.3302  223.7289 H   0  0  0  0  0  0  0  0  0  0  0  0
  139.6878   67.8723  226.0920 H   0  0  0  0  0  0  0  0  0  0  0  0
  141.4964   70.9499  228.4964 H   0  0  0  0  0  0  0  0  0  0  0  0
  141.4611   72.5064  226.5538 H   0  0  0  0  0  0  0  0  0  0  0  0
  1  2  2  0
  2  3  1  0
  3  4  1  0
  4  5  1  0
  5  6  2  0
  5  7  1  0
  7  8  1  0
  8  9  1  0
  9 10  1  0
 10 11  1  0
 11 12  1  0
 12 13  1  0
 13 14  2  0
 14 15  1  0
 15 16  2  0
 16 17  1  0
  2 18  1  0
 18 19  2  0
 19 20  1  0
 20 21  2  0
 21 22  1  0
 22 23  2  0
 23 24  1  0
 23 25  1  0
 25 26  2  0
 26 27  1  0
 27 28  2  0
 12  7  1  0
 17 13  1  0
 28 18  1  0
 27 21  1  0
  3 29  1  0
  4 30  1  0
  4 31  1  0
  8 32  1  0
  8 33  1  0
  9 34  1  0
  9 35  1  0
 10 36  1  0
 10 37  1  0
 11 38  1  0
 11 39  1  0
 12 40  1  6
 15 41  1  0
 16 42  1  0
 17 43  1  0
 19 44  1  0
 20 45  1  0
 22 46  1  0
 25 47  1  0
 26 48  1  0
M  END
>  <smiles>  (15) 
O=C(NCC(=O)N1CCCC[C@H]1c1ncc[nH]1)c1ccc2cc(Cl)ccc2n1

>  <score_type>  (15) 
oracle

>  <origin>  (15) 
autodockgpu

>  <m_score__min__energy>  (15) 
-7.8799999999999999

>  <m_primary>  (15) 
energy

>  <rmsd>  (15) 
3.205565717823722

>  <m_score__min__rmsd>  (15) 
3.205565717823722

>  <meeko>  (15) 
{"free_energy": -7.23, "intermolecular_energy": -8.72, "internal_energy": -2.56, "cluster_size": 10, "cluster_id": 4, "rank_in_cluster": 9}

>  <energy>  (15) 
-7.25

>  <cluster_rmsd>  (15) 
1.04

>  <cluster>  (15) 
3

$$$$

     RDKit          3D

 48 51  0  0  0  0  0  0  0  0999 V2000
  141.1780   72.9420  221.2330 O   0  0  0  0  0  0  0  0  0  0  0  0
  140.2750   73.0200  222.1260 C   0  0  0  0  0  0  0  0  0  0  0  0
  139.3700   74.1210  222.0930 N   0  0  0  0  0  0  0  0  0  0  0  0
  139.5540   75.0820  221.0230 C   0  0  0  0  0  0  0  0  0  0  0  0
  140.7640   75.9140  221.2310 C   0  0  0  0  0  0  0  0  0  0  0  0
  141.3690   75.8520  222.3310 O   0  0  0  0  0  0  0  0  0  0  0  0
  141.1740   76.7450  220.1530 N   0  0  0  0  0  0  0  0  0  0  0  0
  141.0250   76.3560  218.7560 C   0  0  0  0  0  0  0  0  0  0  0  0
  142.1770   77.0330  218.0040 C   0  0  0  0  0  0  0  0  0  0  0  0
  141.9640   78.5330  217.9660 C   0  0  0  0  0  0  0  0  0  0  0  0
  141.2650   78.9420  219.2630 C   0  0  0  0  0  0  0  0  0  0  0  0
  141.7760   78.0510  220.3890 C   0  0  1  0  0  0  0  0  0  0  0  0
  141.3070   78.6750  221.6520 C   0  0  0  0  0  0  0  0  0  0  0  0
  140.4150   79.6670  221.8140 N   0  0  0  0  0  0  0  0  0  0  0  0
  140.2610   79.9510  223.1320 C   0  0  0  0  0  0  0  0  0  0  0  0
  141.1020   79.0870  223.8170 C   0  0  0  0  0  0  0  0  0  0  0  0
  141.7180   78.3320  222.9000 N   0  0  0  0  0  0  0  0  0  0  0  0
  140.1650   72.0050  223.1670 C   0  0  0  0  0  0  0  0  0  0  0  0
  139.5280   70.8160  222.8760 C   0  0  0  0  0  0  0  0  0  0  0  0
  139.3890   69.8070  223.8230 C   0  0  0  0  0  0  0  0  0  0  0  0
  139.9260   70.0690  225.0680 C   0  0  0  0  0  0  0  0  0  0  0  0
  139.8460   69.1310  226.0960 C   0  0  0  0  0  0  0  0  0  0  0  0
  140.3930   69.4070  227.3510 C   0  0  0  0  0  0  0  0  0  0  0  0
  140.2670   68.1950  228.6100 Cl  0  0  0  0  0  0  0  0  0  0  0  0
  141.0170   70.6200  227.5700 C   0  0  0  0  0  0  0  0  0  0  0  0
  141.1080   71.5670  226.5620 C   0  0  0  0  0  0  0  0  0  0  0  0
  140.5560   71.2720  225.3170 C   0  0  0  0  0  0  0  0  0  0  0  0
  140.6810   72.2410  224.3830 N   0  0  0  0  0  0  0  0  0  0  0  0
  138.6130   74.2370  222.7980 H   0  0  0  0  0  0  0  0  0  0  0  0
  139.6541   74.5399  220.0711 H   0  0  0  0  0  0  0  0  0  0  0  0
  138.6793   75.7488  221.0086 H   0  0  0  0  0  0  0  0  0  0  0  0
  141.0923   75.2628  218.6543 H   0  0  0  0  0  0  0  0  0  0  0  0
  140.0473   76.6611  218.3547 H   0  0  0  0  0  0  0  0  0  0  0  0
  143.1251   76.8130  218.5166 H   0  0  0  0  0  0  0  0  0  0  0  0
  142.2102   76.6479  216.9741 H   0  0  0  0  0  0  0  0  0  0  0  0
  142.9337   79.0462  217.8863 H   0  0  0  0  0  0  0  0  0  0  0  0
  141.3505   78.8107  217.0963 H   0  0  0  0  0  0  0  0  0  0  0  0
  141.4911   79.9942  219.4906 H   0  0  0  0  0  0  0  0  0  0  0  0
  140.1761   78.8281  219.1566 H   0  0  0  0  0  0  0  0  0  0  0  0
  142.8691   77.9393  220.4405 H   0  0  0  0  0  0  0  0  0  0  0  0
  139.6008   80.7143  223.5697 H   0  0  0  0  0  0  0  0  0  0  0  0
  141.2371   79.0326  224.9073 H   0  0  0  0  0  0  0  0  0  0  0  0
  142.4210   77.5790  223.1160 H   0  0  0  0  0  0  0  0  0  0  0  0
  139.1187   70.6619  221.8667 H   0  0  0  0  0  0  0  0  0  0  0  0
  138.8821   68.8579  223.5942 H   0  0  0  0  0  0  0  0  0  0  0  0
  139.3484   68.1664  225.9174 H   0  0  0  0  0  0  0  0  0  0  0  0
  141.4478   70.8374  228.5585 H   0  0  0  0  0  0  0  0  0  0  0  0
  141.6057   72.5315  226.7411 H   0  0  0  0  0  0  0  0  0  0  0  0
  1  2  2  0
  2  3  1  0
  3  4  1  0
  4  5  1  0
  5  6  2  0
  5  7  1  0
  7  8  1  0
  8  9  1  0
  9 10  1  0
 10 11  1  0
 11 12  1  0
 12 13  1  0
 13 14  2  0
 14 15  1  0
 15 16  2  0
 16 17  1  0
  2 18  1  0
 18 19  2  0
 19 20  1  0
 20 21  2  0
 21 22  1  0
 22 23  2  0
 23 24  1  0
 23 25  1  0
 25 26  2  0
 26 27  1  0
 27 28  2  0
 12  7  1  0
 17 13  1  0
 28 18  1  0
 27 21  1  0
  3 29  1  0
  4 30  1  0
  4 31  1  0
  8 32  1  0
  8 33  1  0
  9 34  1  0
  9 35  1  0
 10 36  1  0
 10 37  1  0
 11 38  1  0
 11 39  1  0
 12 40  1  1
 15 41  1  0
 16 42  1  0
 17 43  1  0
 19 44  1  0
 20 45  1  0
 22 46  1  0
 25 47  1  0
 26 48  1  0
M  END
>  <smiles>  (16) 
O=C(NCC(=O)N1CCCC[C@H]1c1ncc[nH]1)c1ccc2cc(Cl)ccc2n1

>  <score_type>  (16) 
oracle

>  <origin>  (16) 
autodockgpu

>  <m_score__min__energy>  (16) 
-7.8799999999999999

>  <m_primary>  (16) 
energy

>  <rmsd>  (16) 
1.9291495595153203

>  <m_score__min__rmsd>  (16) 
1.9291495595153203

>  <meeko>  (16) 
{"free_energy": -7.75, "intermolecular_energy": -9.24, "internal_energy": -1.85, "cluster_size": 8, "cluster_id": 1, "rank_in_cluster": 7}

>  <energy>  (16) 
-7.22

>  <cluster_rmsd>  (16) 
1.05

>  <cluster>  (16) 
3

$$$$

     RDKit          3D

 48 51  0  0  0  0  0  0  0  0999 V2000
  134.8540   68.4640  224.9800 O   0  0  0  0  0  0  0  0  0  0  0  0
  135.3070   69.6440  224.8340 C   0  0  0  0  0  0  0  0  0  0  0  0
  136.4830   69.8360  224.0520 N   0  0  0  0  0  0  0  0  0  0  0  0
  137.0810   68.6490  223.4740 C   0  0  0  0  0  0  0  0  0  0  0  0
  138.5630   68.7060  223.5060 C   0  0  0  0  0  0  0  0  0  0  0  0
  139.2120   68.3620  222.4860 O   0  0  0  0  0  0  0  0  0  0  0  0
  139.1700   69.1560  224.7100 N   0  0  0  0  0  0  0  0  0  0  0  0
  139.7170   68.2440  225.7070 C   0  0  0  0  0  0  0  0  0  0  0  0
  139.5530   68.9490  227.0590 C   0  0  0  0  0  0  0  0  0  0  0  0
  140.4840   70.1420  227.1400 C   0  0  0  0  0  0  0  0  0  0  0  0
  140.6150   70.7320  225.7360 C   0  0  0  0  0  0  0  0  0  0  0  0
  139.2800   70.5770  225.0190 C   0  0  1  0  0  0  0  0  0  0  0  0
  139.3670   71.4200  223.7990 C   0  0  0  0  0  0  0  0  0  0  0  0
  138.3670   71.8810  223.0290 N   0  0  0  0  0  0  0  0  0  0  0  0
  138.8650   72.6190  222.0050 C   0  0  0  0  0  0  0  0  0  0  0  0
  140.2430   72.6100  222.1530 C   0  0  0  0  0  0  0  0  0  0  0  0
  140.5150   71.8810  223.2410 N   0  0  0  0  0  0  0  0  0  0  0  0
  134.6390   70.7810  225.4550 C   0  0  0  0  0  0  0  0  0  0  0  0
  133.6740   70.5480  226.4140 C   0  0  0  0  0  0  0  0  0  0  0  0
  132.9990   71.5870  227.0450 C   0  0  0  0  0  0  0  0  0  0  0  0
  133.3530   72.8630  226.6520 C   0  0  0  0  0  0  0  0  0  0  0  0
  132.7430   73.9830  227.2150 C   0  0  0  0  0  0  0  0  0  0  0  0
  133.1090   75.2680  226.8100 C   0  0  0  0  0  0  0  0  0  0  0  0
  132.3130   76.6430  227.5490 Cl  0  0  0  0  0  0  0  0  0  0  0  0
  134.0840   75.4250  225.8440 C   0  0  0  0  0  0  0  0  0  0  0  0
  134.7030   74.3270  225.2710 C   0  0  0  0  0  0  0  0  0  0  0  0
  134.3230   73.0530  225.6890 C   0  0  0  0  0  0  0  0  0  0  0  0
  134.9690   72.0290  225.0870 N   0  0  0  0  0  0  0  0  0  0  0  0
  136.8980   70.7780  223.8990 H   0  0  0  0  0  0  0  0  0  0  0  0
  136.7464   67.7690  224.0428 H   0  0  0  0  0  0  0  0  0  0  0  0
  136.7644   68.5847  222.4225 H   0  0  0  0  0  0  0  0  0  0  0  0
  139.1623   67.2941  225.7014 H   0  0  0  0  0  0  0  0  0  0  0  0
  140.7713   68.0070  225.5012 H   0  0  0  0  0  0  0  0  0  0  0  0
  138.5131   69.2909  227.1674 H   0  0  0  0  0  0  0  0  0  0  0  0
  139.8007   68.2433  227.8656 H   0  0  0  0  0  0  0  0  0  0  0  0
  140.0673   70.8954  227.8246 H   0  0  0  0  0  0  0  0  0  0  0  0
  141.4694   69.8339  227.5196 H   0  0  0  0  0  0  0  0  0  0  0  0
  140.8775   71.7980  225.8047 H   0  0  0  0  0  0  0  0  0  0  0  0
  141.4047   70.2066  225.1790 H   0  0  0  0  0  0  0  0  0  0  0  0
  138.3977   70.8902  225.5964 H   0  0  0  0  0  0  0  0  0  0  0  0
  138.2897   73.1238  221.2149 H   0  0  0  0  0  0  0  0  0  0  0  0
  140.9744   73.1080  221.4995 H   0  0  0  0  0  0  0  0  0  0  0  0
  141.4810   71.6920  223.6120 H   0  0  0  0  0  0  0  0  0  0  0  0
  133.4319   69.5103  226.6870 H   0  0  0  0  0  0  0  0  0  0  0  0
  132.2302   71.4040  227.8102 H   0  0  0  0  0  0  0  0  0  0  0  0
  131.9674   73.8533  227.9842 H   0  0  0  0  0  0  0  0  0  0  0  0
  134.3729   76.4374  225.5253 H   0  0  0  0  0  0  0  0  0  0  0  0
  135.4785   74.4575  224.5019 H   0  0  0  0  0  0  0  0  0  0  0  0
  1  2  2  0
  2  3  1  0
  3  4  1  0
  4  5  1  0
  5  6  2  0
  5  7  1  0
  7  8  1  0
  8  9  1  0
  9 10  1  0
 10 11  1  0
 11 12  1  0
 12 13  1  0
 13 14  2  0
 14 15  1  0
 15 16  2  0
 16 17  1  0
  2 18  1  0
 18 19  2  0
 19 20  1  0
 20 21  2  0
 21 22  1  0
 22 23  2  0
 23 24  1  0
 23 25  1  0
 25 26  2  0
 26 27  1  0
 27 28  2  0
 12  7  1  0
 17 13  1  0
 28 18  1  0
 27 21  1  0
  3 29  1  0
  4 30  1  0
  4 31  1  0
  8 32  1  0
  8 33  1  0
  9 34  1  0
  9 35  1  0
 10 36  1  0
 10 37  1  0
 11 38  1  0
 11 39  1  0
 12 40  1  1
 15 41  1  0
 16 42  1  0
 17 43  1  0
 19 44  1  0
 20 45  1  0
 22 46  1  0
 25 47  1  0
 26 48  1  0
M  END
>  <smiles>  (17) 
O=C(NCC(=O)N1CCCC[C@H]1c1ncc[nH]1)c1ccc2cc(Cl)ccc2n1

>  <score_type>  (17) 
oracle

>  <origin>  (17) 
autodockgpu

>  <m_score__min__energy>  (17) 
-7.8799999999999999

>  <m_primary>  (17) 
energy

>  <rmsd>  (17) 
7.999605543908849

>  <m_score__min__rmsd>  (17) 
7.999605543908849

>  <meeko>  (17) 
{"free_energy": -6.75, "intermolecular_energy": -8.24, "internal_energy": -2.61, "cluster_size": 6, "cluster_id": 7, "rank_in_cluster": 1}

>  <energy>  (17) 
-7.06

>  <cluster_rmsd>  (17) 
1.11

>  <cluster>  (17) 
3

$$$$

     RDKit          3D

 48 51  0  0  0  0  0  0  0  0999 V2000
  140.3660   72.2210  220.7250 O   0  0  0  0  0  0  0  0  0  0  0  0
  140.0930   72.6080  221.9070 C   0  0  0  0  0  0  0  0  0  0  0  0
  139.8040   73.9870  222.1280 N   0  0  0  0  0  0  0  0  0  0  0  0
  139.8440   74.8540  220.9680 C   0  0  0  0  0  0  0  0  0  0  0  0
  140.6310   76.0850  221.2260 C   0  0  0  0  0  0  0  0  0  0  0  0
  140.8600   76.4280  222.4140 O   0  0  0  0  0  0  0  0  0  0  0  0
  141.0880   76.8140  220.0950 N   0  0  0  0  0  0  0  0  0  0  0  0
  140.7030   78.1970  219.8390 C   0  0  0  0  0  0  0  0  0  0  0  0
  140.7060   78.3610  218.3140 C   0  0  0  0  0  0  0  0  0  0  0  0
  142.1250   78.2970  217.7860 C   0  0  0  0  0  0  0  0  0  0  0  0
  142.9130   77.3290  218.6690 C   0  0  0  0  0  0  0  0  0  0  0  0
  141.9790   76.2090  219.1120 C   0  0  1  0  0  0  0  0  0  0  0  0
  142.8470   75.1580  219.7010 C   0  0  0  0  0  0  0  0  0  0  0  0
  144.1200   75.2620  220.1170 N   0  0  0  0  0  0  0  0  0  0  0  0
  144.5580   74.0690  220.5940 C   0  0  0  0  0  0  0  0  0  0  0  0
  143.4970   73.1860  220.4650 C   0  0  0  0  0  0  0  0  0  0  0  0
  142.4820   73.8700  219.9250 N   0  0  0  0  0  0  0  0  0  0  0  0
  140.0770   71.6630  223.0160 C   0  0  0  0  0  0  0  0  0  0  0  0
  139.5420   70.4070  222.8160 C   0  0  0  0  0  0  0  0  0  0  0  0
  139.4960   69.4570  223.8310 C   0  0  0  0  0  0  0  0  0  0  0  0
  140.0160   69.8500  225.0480 C   0  0  0  0  0  0  0  0  0  0  0  0
  140.0230   68.9830  226.1400 C   0  0  0  0  0  0  0  0  0  0  0  0
  140.5510   69.3910  227.3670 C   0  0  0  0  0  0  0  0  0  0  0  0
  140.5370   68.2640  228.7080 Cl  0  0  0  0  0  0  0  0  0  0  0  0
  141.0700   70.6660  227.4940 C   0  0  0  0  0  0  0  0  0  0  0  0
  141.0730   71.5440  226.4220 C   0  0  0  0  0  0  0  0  0  0  0  0
  140.5410   71.1170  225.2070 C   0  0  0  0  0  0  0  0  0  0  0  0
  140.5780   72.0260  224.2070 N   0  0  0  0  0  0  0  0  0  0  0  0
  139.5750   74.3590  223.0720 H   0  0  0  0  0  0  0  0  0  0  0  0
  140.3025   74.3074  220.1308 H   0  0  0  0  0  0  0  0  0  0  0  0
  138.8125   75.1520  220.7286 H   0  0  0  0  0  0  0  0  0  0  0  0
  139.6992   78.3954  220.2428 H   0  0  0  0  0  0  0  0  0  0  0  0
  141.3941   78.9037  220.3217 H   0  0  0  0  0  0  0  0  0  0  0  0
  140.1122   77.5539  217.8601 H   0  0  0  0  0  0  0  0  0  0  0  0
  140.2696   79.3373  218.0561 H   0  0  0  0  0  0  0  0  0  0  0  0
  142.1210   77.9359  216.7470 H   0  0  0  0  0  0  0  0  0  0  0  0
  142.5863   79.2954  217.8062 H   0  0  0  0  0  0  0  0  0  0  0  0
  143.7538   76.9072  218.0988 H   0  0  0  0  0  0  0  0  0  0  0  0
  143.3100   77.8584  219.5477 H   0  0  0  0  0  0  0  0  0  0  0  0
  141.3770   75.7552  218.3110 H   0  0  0  0  0  0  0  0  0  0  0  0
  145.5554   73.8472  221.0014 H   0  0  0  0  0  0  0  0  0  0  0  0
  143.4909   72.1242  220.7522 H   0  0  0  0  0  0  0  0  0  0  0  0
  141.5350   73.4660  219.7050 H   0  0  0  0  0  0  0  0  0  0  0  0
  139.1402   70.1494  221.8250 H   0  0  0  0  0  0  0  0  0  0  0  0
  139.0715   68.4545  223.6737 H   0  0  0  0  0  0  0  0  0  0  0  0
  139.6092   67.9693  226.0343 H   0  0  0  0  0  0  0  0  0  0  0  0
  141.4865   70.9881  228.4598 H   0  0  0  0  0  0  0  0  0  0  0  0
  141.4870   72.5576  226.5280 H   0  0  0  0  0  0  0  0  0  0  0  0
  1  2  2  0
  2  3  1  0
  3  4  1  0
  4  5  1  0
  5  6  2  0
  5  7  1  0
  7  8  1  0
  8  9  1  0
  9 10  1  0
 10 11  1  0
 11 12  1  0
 12 13  1  0
 13 14  2  0
 14 15  1  0
 15 16  2  0
 16 17  1  0
  2 18  1  0
 18 19  2  0
 19 20  1  0
 20 21  2  0
 21 22  1  0
 22 23  2  0
 23 24  1  0
 23 25  1  0
 25 26  2  0
 26 27  1  0
 27 28  2  0
 12  7  1  0
 17 13  1  0
 28 18  1  0
 27 21  1  0
  3 29  1  0
  4 30  1  0
  4 31  1  0
  8 32  1  0
  8 33  1  0
  9 34  1  0
  9 35  1  0
 10 36  1  0
 10 37  1  0
 11 38  1  0
 11 39  1  0
 12 40  1  6
 15 41  1  0
 16 42  1  0
 17 43  1  0
 19 44  1  0
 20 45  1  0
 22 46  1  0
 25 47  1  0
 26 48  1  0
M  END
>  <smiles>  (18) 
O=C(NCC(=O)N1CCCC[C@H]1c1ncc[nH]1)c1ccc2cc(Cl)ccc2n1

>  <score_type>  (18) 
oracle

>  <origin>  (18) 
autodockgpu

>  <m_score__min__energy>  (18) 
-7.8799999999999999

>  <m_primary>  (18) 
energy

>  <rmsd>  (18) 
3.206477518042593

>  <m_score__min__rmsd>  (18) 
3.206477518042593

>  <meeko>  (18) 
{"free_energy": -7.29, "intermolecular_energy": -8.78, "internal_energy": -2.51, "cluster_size": 10, "cluster_id": 4, "rank_in_cluster": 7}

>  <energy>  (18) 
-7.55

>  <cluster_rmsd>  (18) 
0.0

>  <cluster>  (18) 
4

$$$$

     RDKit          3D

 48 51  0  0  0  0  0  0  0  0999 V2000
  140.3340   74.1170  221.9690 O   0  0  0  0  0  0  0  0  0  0  0  0
  140.2100   72.8710  221.7400 C   0  0  0  0  0  0  0  0  0  0  0  0
  140.1210   72.4270  220.3880 N   0  0  0  0  0  0  0  0  0  0  0  0
  140.1800   73.4490  219.3620 C   0  0  0  0  0  0  0  0  0  0  0  0
  141.4780   73.4350  218.6440 C   0  0  0  0  0  0  0  0  0  0  0  0
  141.4870   73.5670  217.3930 O   0  0  0  0  0  0  0  0  0  0  0  0
  142.6530   73.2720  219.4260 N   0  0  0  0  0  0  0  0  0  0  0  0
  143.4140   72.0290  219.4570 C   0  0  0  0  0  0  0  0  0  0  0  0
  144.0440   71.9540  220.8530 C   0  0  0  0  0  0  0  0  0  0  0  0
  145.1170   73.0160  220.9980 C   0  0  0  0  0  0  0  0  0  0  0  0
  144.6860   74.2340  220.1800 C   0  0  0  0  0  0  0  0  0  0  0  0
  143.1680   74.3550  220.2550 C   0  0  1  0  0  0  0  0  0  0  0  0
  142.8350   75.6960  219.7120 C   0  0  0  0  0  0  0  0  0  0  0  0
  141.8390   76.5210  220.0760 N   0  0  0  0  0  0  0  0  0  0  0  0
  141.8760   77.6580  219.3350 C   0  0  0  0  0  0  0  0  0  0  0  0
  142.9510   77.5240  218.4700 C   0  0  0  0  0  0  0  0  0  0  0  0
  143.5090   76.3340  218.7210 N   0  0  0  0  0  0  0  0  0  0  0  0
  140.1590   71.9120  222.8370 C   0  0  0  0  0  0  0  0  0  0  0  0
  139.6260   70.6600  222.6050 C   0  0  0  0  0  0  0  0  0  0  0  0
  139.5480   69.6990  223.6070 C   0  0  0  0  0  0  0  0  0  0  0  0
  140.0340   70.0750  224.8440 C   0  0  0  0  0  0  0  0  0  0  0  0
  140.0080   69.1940  225.9240 C   0  0  0  0  0  0  0  0  0  0  0  0
  140.5030   69.5850  227.1700 C   0  0  0  0  0  0  0  0  0  0  0  0
  140.4470   68.4410  228.4960 Cl  0  0  0  0  0  0  0  0  0  0  0  0
  141.0220   70.8560  227.3270 C   0  0  0  0  0  0  0  0  0  0  0  0
  141.0590   71.7480  226.2680 C   0  0  0  0  0  0  0  0  0  0  0  0
  140.5600   71.3380  225.0330 C   0  0  0  0  0  0  0  0  0  0  0  0
  140.6270   72.2580  224.0460 N   0  0  0  0  0  0  0  0  0  0  0  0
  140.0180   71.4210  220.1420 H   0  0  0  0  0  0  0  0  0  0  0  0
  139.3707   73.2736  218.6379 H   0  0  0  0  0  0  0  0  0  0  0  0
  140.0694   74.4291  219.8491 H   0  0  0  0  0  0  0  0  0  0  0  0
  142.7484   71.1691  219.2913 H   0  0  0  0  0  0  0  0  0  0  0  0
  144.1797   72.0055  218.6676 H   0  0  0  0  0  0  0  0  0  0  0  0
  143.2655   72.1172  221.6128 H   0  0  0  0  0  0  0  0  0  0  0  0
  144.4985   70.9617  220.9902 H   0  0  0  0  0  0  0  0  0  0  0  0
  145.2254   73.2958  222.0563 H   0  0  0  0  0  0  0  0  0  0  0  0
  146.0842   72.6353  220.6380 H   0  0  0  0  0  0  0  0  0  0  0  0
  145.1513   75.1414  220.5924 H   0  0  0  0  0  0  0  0  0  0  0  0
  145.0033   74.1164  219.1333 H   0  0  0  0  0  0  0  0  0  0  0  0
  142.7389   74.2718  221.2645 H   0  0  0  0  0  0  0  0  0  0  0  0
  141.1898   78.5147  219.4067 H   0  0  0  0  0  0  0  0  0  0  0  0
  143.2824   78.2569  217.7197 H   0  0  0  0  0  0  0  0  0  0  0  0
  144.3500   75.9470  218.2210 H   0  0  0  0  0  0  0  0  0  0  0  0
  139.2526   70.4157  221.5996 H   0  0  0  0  0  0  0  0  0  0  0  0
  139.1249   68.7000  223.4255 H   0  0  0  0  0  0  0  0  0  0  0  0
  139.5944   68.1831  225.7938 H   0  0  0  0  0  0  0  0  0  0  0  0
  141.4119   71.1642  228.3083 H   0  0  0  0  0  0  0  0  0  0  0  0
  141.4734   72.7585  226.3990 H   0  0  0  0  0  0  0  0  0  0  0  0
  1  2  2  0
  2  3  1  0
  3  4  1  0
  4  5  1  0
  5  6  2  0
  5  7  1  0
  7  8  1  0
  8  9  1  0
  9 10  1  0
 10 11  1  0
 11 12  1  0
 12 13  1  0
 13 14  2  0
 14 15  1  0
 15 16  2  0
 16 17  1  0
  2 18  1  0
 18 19  2  0
 19 20  1  0
 20 21  2  0
 21 22  1  0
 22 23  2  0
 23 24  1  0
 23 25  1  0
 25 26  2  0
 26 27  1  0
 27 28  2  0
 12  7  1  0
 17 13  1  0
 28 18  1  0
 27 21  1  0
  3 29  1  0
  4 30  1  0
  4 31  1  0
  8 32  1  0
  8 33  1  0
  9 34  1  0
  9 35  1  0
 10 36  1  0
 10 37  1  0
 11 38  1  0
 11 39  1  0
 12 40  1  1
 15 41  1  0
 16 42  1  0
 17 43  1  0
 19 44  1  0
 20 45  1  0
 22 46  1  0
 25 47  1  0
 26 48  1  0
M  END
>  <smiles>  (19) 
O=C(NCC(=O)N1CCCC[C@H]1c1ncc[nH]1)c1ccc2cc(Cl)ccc2n1

>  <score_type>  (19) 
oracle

>  <origin>  (19) 
autodockgpu

>  <m_score__min__energy>  (19) 
-7.8799999999999999

>  <m_primary>  (19) 
energy

>  <rmsd>  (19) 
3.695706268420284

>  <m_score__min__rmsd>  (19) 
3.695706268420284

>  <meeko>  (19) 
{"free_energy": -7.64, "intermolecular_energy": -9.13, "internal_energy": -1.9, "cluster_size": 7, "cluster_id": 3, "rank_in_cluster": 1}

>  <energy>  (19) 
-7.38

>  <cluster_rmsd>  (19) 
0.88

>  <cluster>  (19) 
4

$$$$

     RDKit          3D

 48 51  0  0  0  0  0  0  0  0999 V2000
  140.7920   72.7080  221.0890 O   0  0  0  0  0  0  0  0  0  0  0  0
  140.0770   72.8640  222.1300 C   0  0  0  0  0  0  0  0  0  0  0  0
  139.2740   74.0370  222.2410 N   0  0  0  0  0  0  0  0  0  0  0  0
  139.3360   74.9750  221.1380 C   0  0  0  0  0  0  0  0  0  0  0  0
  140.6630   75.6330  221.0480 C   0  0  0  0  0  0  0  0  0  0  0  0
  141.5020   75.4480  221.9660 O   0  0  0  0  0  0  0  0  0  0  0  0
  140.9100   76.4460  219.9090 N   0  0  0  0  0  0  0  0  0  0  0  0
  140.6780   75.9840  218.5460 C   0  0  0  0  0  0  0  0  0  0  0  0
  141.7010   76.7190  217.6720 C   0  0  0  0  0  0  0  0  0  0  0  0
  141.3600   78.1940  217.5970 C   0  0  0  0  0  0  0  0  0  0  0  0
  140.7400   78.6010  218.9340 C   0  0  0  0  0  0  0  0  0  0  0  0
  141.4170   77.8060  220.0430 C   0  0  1  0  0  0  0  0  0  0  0  0
  141.0050   78.4450  221.3190 C   0  0  0  0  0  0  0  0  0  0  0  0
  140.1420   79.4580  221.5050 N   0  0  0  0  0  0  0  0  0  0  0  0
  140.0370   79.7490  222.8260 C   0  0  0  0  0  0  0  0  0  0  0  0
  140.8810   78.8690  223.4870 C   0  0  0  0  0  0  0  0  0  0  0  0
  141.4480   78.0970  222.5540 N   0  0  0  0  0  0  0  0  0  0  0  0
  140.0760   71.8660  223.1930 C   0  0  0  0  0  0  0  0  0  0  0  0
  139.5750   70.6080  222.9260 C   0  0  0  0  0  0  0  0  0  0  0  0
  139.5450   69.6090  223.8940 C   0  0  0  0  0  0  0  0  0  0  0  0
  140.0460   69.9560  225.1340 C   0  0  0  0  0  0  0  0  0  0  0  0
  140.0670   69.0360  226.1820 C   0  0  0  0  0  0  0  0  0  0  0  0
  140.5760   69.3980  227.4310 C   0  0  0  0  0  0  0  0  0  0  0  0
  140.5800   68.2060  228.7160 Cl  0  0  0  0  0  0  0  0  0  0  0  0
  141.0610   70.6770  227.6250 C   0  0  0  0  0  0  0  0  0  0  0  0
  141.0490   71.6070  226.5970 C   0  0  0  0  0  0  0  0  0  0  0  0
  140.5380   71.2260  225.3580 C   0  0  0  0  0  0  0  0  0  0  0  0
  140.5580   72.1830  224.4040 N   0  0  0  0  0  0  0  0  0  0  0  0
  138.6700   74.2180  223.0700 H   0  0  0  0  0  0  0  0  0  0  0  0
  139.1422   74.4346  220.1997 H   0  0  0  0  0  0  0  0  0  0  0  0
  138.5788   75.7544  221.3090 H   0  0  0  0  0  0  0  0  0  0  0  0
  140.8297   74.8965  218.4798 H   0  0  0  0  0  0  0  0  0  0  0  0
  139.6476   76.1895  218.2203 H   0  0  0  0  0  0  0  0  0  0  0  0
  142.7040   76.5994  218.1076 H   0  0  0  0  0  0  0  0  0  0  0  0
  141.6794   76.2931  216.6580 H   0  0  0  0  0  0  0  0  0  0  0  0
  142.2729   78.7799  217.4145 H   0  0  0  0  0  0  0  0  0  0  0  0
  140.6550   78.3832  216.7741 H   0  0  0  0  0  0  0  0  0  0  0  0
  140.8938   79.6772  219.1020 H   0  0  0  0  0  0  0  0  0  0  0  0
  139.6598   78.3934  218.9271 H   0  0  0  0  0  0  0  0  0  0  0  0
  142.5161   77.7864  220.0029 H   0  0  0  0  0  0  0  0  0  0  0  0
  139.4079   80.5277  223.2819 H   0  0  0  0  0  0  0  0  0  0  0  0
  141.0515   78.8162  224.5724 H   0  0  0  0  0  0  0  0  0  0  0  0
  142.1400   77.3280  222.7490 H   0  0  0  0  0  0  0  0  0  0  0  0
  139.1886   70.3890  221.9197 H   0  0  0  0  0  0  0  0  0  0  0  0
  139.1470   68.6050  223.6850 H   0  0  0  0  0  0  0  0  0  0  0  0
  139.6801   68.0185  226.0237 H   0  0  0  0  0  0  0  0  0  0  0  0
  141.4623   70.9614  228.6089 H   0  0  0  0  0  0  0  0  0  0  0  0
  141.4349   72.6247  226.7562 H   0  0  0  0  0  0  0  0  0  0  0  0
  1  2  2  0
  2  3  1  0
  3  4  1  0
  4  5  1  0
  5  6  2  0
  5  7  1  0
  7  8  1  0
  8  9  1  0
  9 10  1  0
 10 11  1  0
 11 12  1  0
 12 13  1  0
 13 14  2  0
 14 15  1  0
 15 16  2  0
 16 17  1  0
  2 18  1  0
 18 19  2  0
 19 20  1  0
 20 21  2  0
 21 22  1  0
 22 23  2  0
 23 24  1  0
 23 25  1  0
 25 26  2  0
 26 27  1  0
 27 28  2  0
 12  7  1  0
 17 13  1  0
 28 18  1  0
 27 21  1  0
  3 29  1  0
  4 30  1  0
  4 31  1  0
  8 32  1  0
  8 33  1  0
  9 34  1  0
  9 35  1  0
 10 36  1  0
 10 37  1  0
 11 38  1  0
 11 39  1  0
 12 40  1  6
 15 41  1  0
 16 42  1  0
 17 43  1  0
 19 44  1  0
 20 45  1  0
 22 46  1  0
 25 47  1  0
 26 48  1  0
M  END
>  <smiles>  (20) 
O=C(NCC(=O)N1CCCC[C@H]1c1ncc[nH]1)c1ccc2cc(Cl)ccc2n1

>  <score_type>  (20) 
oracle

>  <origin>  (20) 
autodockgpu

>  <m_score__min__energy>  (20) 
-7.8799999999999999

>  <m_primary>  (20) 
energy

>  <rmsd>  (20) 
1.6751924324386993

>  <m_score__min__rmsd>  (20) 
1.6751924324386993

>  <meeko>  (20) 
{"free_energy": -7.54, "intermolecular_energy": -9.03, "internal_energy": -1.95, "cluster_size": 8, "cluster_id": 1, "rank_in_cluster": 8}

>  <energy>  (20) 
-7.35

>  <cluster_rmsd>  (20) 
0.86

>  <cluster>  (20) 
4

$$$$

     RDKit          3D

 48 51  0  0  0  0  0  0  0  0999 V2000
  139.9910   74.1270  222.0360 O   0  0  0  0  0  0  0  0  0  0  0  0
  140.1500   72.8820  221.8290 C   0  0  0  0  0  0  0  0  0  0  0  0
  140.3760   72.4310  220.4960 N   0  0  0  0  0  0  0  0  0  0  0  0
  140.4090   73.4480  219.4620 C   0  0  0  0  0  0  0  0  0  0  0  0
  141.6610   73.3870  218.6690 C   0  0  0  0  0  0  0  0  0  0  0  0
  141.5950   73.4380  217.4140 O   0  0  0  0  0  0  0  0  0  0  0  0
  142.8820   73.2740  219.3880 N   0  0  0  0  0  0  0  0  0  0  0  0
  143.8240   72.1820  219.1770 C   0  0  0  0  0  0  0  0  0  0  0  0
  144.5220   71.9610  220.5250 C   0  0  0  0  0  0  0  0  0  0  0  0
  145.4250   73.1350  220.8440 C   0  0  0  0  0  0  0  0  0  0  0  0
  144.7760   74.3960  220.2710 C   0  0  0  0  0  0  0  0  0  0  0  0
  143.2630   74.2600  220.3920 C   0  0  1  0  0  0  0  0  0  0  0  0
  142.7050   75.6070  220.1100 C   0  0  0  0  0  0  0  0  0  0  0  0
  143.0110   76.4440  219.1050 N   0  0  0  0  0  0  0  0  0  0  0  0
  142.2770   77.5820  219.2010 C   0  0  0  0  0  0  0  0  0  0  0  0
  141.4780   77.4350  220.3250 C   0  0  0  0  0  0  0  0  0  0  0  0
  141.7580   76.2370  220.8500 N   0  0  0  0  0  0  0  0  0  0  0  0
  140.1000   71.9300  222.9320 C   0  0  0  0  0  0  0  0  0  0  0  0
  139.5120   70.6980  222.7240 C   0  0  0  0  0  0  0  0  0  0  0  0
  139.4320   69.7440  223.7330 C   0  0  0  0  0  0  0  0  0  0  0  0
  139.9740   70.1050  224.9500 C   0  0  0  0  0  0  0  0  0  0  0  0
  139.9520   69.2300  226.0350 C   0  0  0  0  0  0  0  0  0  0  0  0
  140.5030   69.6060  227.2620 C   0  0  0  0  0  0  0  0  0  0  0  0
  140.4490   68.4700  228.5940 Cl  0  0  0  0  0  0  0  0  0  0  0  0
  141.0760   70.8570  227.3950 C   0  0  0  0  0  0  0  0  0  0  0  0
  141.1090   71.7430  226.3310 C   0  0  0  0  0  0  0  0  0  0  0  0
  140.5530   71.3480  225.1150 C   0  0  0  0  0  0  0  0  0  0  0  0
  140.6220   72.2620  224.1220 N   0  0  0  0  0  0  0  0  0  0  0  0
  140.5110   71.4250  220.2670 H   0  0  0  0  0  0  0  0  0  0  0  0
  139.5529   73.2982  218.7878 H   0  0  0  0  0  0  0  0  0  0  0  0
  140.3607   74.4329  219.9495 H   0  0  0  0  0  0  0  0  0  0  0  0
  143.2904   71.2708  218.8687 H   0  0  0  0  0  0  0  0  0  0  0  0
  144.5467   72.4205  218.3828 H   0  0  0  0  0  0  0  0  0  0  0  0
  143.7633   71.8607  221.3151 H   0  0  0  0  0  0  0  0  0  0  0  0
  145.1290   71.0453  220.4696 H   0  0  0  0  0  0  0  0  0  0  0  0
  145.5377   73.2347  221.9337 H   0  0  0  0  0  0  0  0  0  0  0  0
  146.4215   72.9829  220.4038 H   0  0  0  0  0  0  0  0  0  0  0  0
  145.1155   75.2770  220.8354 H   0  0  0  0  0  0  0  0  0  0  0  0
  145.0597   74.5190  219.2154 H   0  0  0  0  0  0  0  0  0  0  0  0
  142.8976   73.9313  221.3761 H   0  0  0  0  0  0  0  0  0  0  0  0
  142.3095   78.4475  218.5229 H   0  0  0  0  0  0  0  0  0  0  0  0
  140.7517   78.1652  220.7115 H   0  0  0  0  0  0  0  0  0  0  0  0
  141.3070   75.8400  221.7140 H   0  0  0  0  0  0  0  0  0  0  0  0
  139.0954   70.4647  221.7330 H   0  0  0  0  0  0  0  0  0  0  0  0
  138.9651   68.7613  223.5709 H   0  0  0  0  0  0  0  0  0  0  0  0
  139.4967   68.2348  225.9238 H   0  0  0  0  0  0  0  0  0  0  0  0
  141.5123   71.1532  228.3604 H   0  0  0  0  0  0  0  0  0  0  0  0
  141.5645   72.7379  226.4430 H   0  0  0  0  0  0  0  0  0  0  0  0
  1  2  2  0
  2  3  1  0
  3  4  1  0
  4  5  1  0
  5  6  2  0
  5  7  1  0
  7  8  1  0
  8  9  1  0
  9 10  1  0
 10 11  1  0
 11 12  1  0
 12 13  1  0
 13 14  2  0
 14 15  1  0
 15 16  2  0
 16 17  1  0
  2 18  1  0
 18 19  2  0
 19 20  1  0
 20 21  2  0
 21 22  1  0
 22 23  2  0
 23 24  1  0
 23 25  1  0
 25 26  2  0
 26 27  1  0
 27 28  2  0
 12  7  1  0
 17 13  1  0
 28 18  1  0
 27 21  1  0
  3 29  1  0
  4 30  1  0
  4 31  1  0
  8 32  1  0
  8 33  1  0
  9 34  1  0
  9 35  1  0
 10 36  1  0
 10 37  1  0
 11 38  1  0
 11 39  1  0
 12 40  1  1
 15 41  1  0
 16 42  1  0
 17 43  1  0
 19 44  1  0
 20 45  1  0
 22 46  1  0
 25 47  1  0
 26 48  1  0
M  END
>  <smiles>  (21) 
O=C(NCC(=O)N1CCCC[C@H]1c1ncc[nH]1)c1ccc2cc(Cl)ccc2n1

>  <score_type>  (21) 
oracle

>  <origin>  (21) 
autodockgpu

>  <m_score__min__energy>  (21) 
-7.8799999999999999

>  <m_primary>  (21) 
energy

>  <rmsd>  (21) 
3.5628541076326075

>  <m_score__min__rmsd>  (21) 
3.5628541076326075

>  <meeko>  (21) 
{"free_energy": -7.33, "intermolecular_energy": -8.82, "internal_energy": -2.38, "cluster_size": 7, "cluster_id": 3, "rank_in_cluster": 3}

>  <energy>  (21) 
-7.33

>  <cluster_rmsd>  (21) 
0.85

>  <cluster>  (21) 
4

$$$$

     RDKit          3D

 48 51  0  0  0  0  0  0  0  0999 V2000
  140.3860   72.7090  220.7870 O   0  0  0  0  0  0  0  0  0  0  0  0
  140.0610   72.9980  221.9830 C   0  0  0  0  0  0  0  0  0  0  0  0
  139.6940   74.3410  222.2890 N   0  0  0  0  0  0  0  0  0  0  0  0
  139.7220   75.2890  221.1920 C   0  0  0  0  0  0  0  0  0  0  0  0
  141.0090   76.0250  221.1310 C   0  0  0  0  0  0  0  0  0  0  0  0
  142.0120   75.4630  220.6230 O   0  0  0  0  0  0  0  0  0  0  0  0
  141.0290   77.3440  221.6580 N   0  0  0  0  0  0  0  0  0  0  0  0
  141.0850   77.6220  223.0880 C   0  0  0  0  0  0  0  0  0  0  0  0
  140.3480   78.9520  223.2890 C   0  0  0  0  0  0  0  0  0  0  0  0
  141.1500   80.0890  222.6880 C   0  0  0  0  0  0  0  0  0  0  0  0
  141.8810   79.5490  221.4580 C   0  0  0  0  0  0  0  0  0  0  0  0
  140.9930   78.5110  220.7840 C   0  0  1  0  0  0  0  0  0  0  0  0
  141.6030   78.2470  219.4560 C   0  0  0  0  0  0  0  0  0  0  0  0
  141.1610   78.6210  218.2440 N   0  0  0  0  0  0  0  0  0  0  0  0
  142.0080   78.1820  217.2790 C   0  0  0  0  0  0  0  0  0  0  0  0
  143.0230   77.5010  217.9320 C   0  0  0  0  0  0  0  0  0  0  0  0
  142.7530   77.5580  219.2410 N   0  0  0  0  0  0  0  0  0  0  0  0
  140.0620   71.9780  223.0240 C   0  0  0  0  0  0  0  0  0  0  0  0
  139.5610   70.7250  222.7320 C   0  0  0  0  0  0  0  0  0  0  0  0
  139.5320   69.7070  223.6790 C   0  0  0  0  0  0  0  0  0  0  0  0
  140.0350   70.0270  224.9240 C   0  0  0  0  0  0  0  0  0  0  0  0
  140.0580   69.0860  225.9530 C   0  0  0  0  0  0  0  0  0  0  0  0
  140.5690   69.4210  227.2090 C   0  0  0  0  0  0  0  0  0  0  0  0
  140.5760   68.2030  228.4680 Cl  0  0  0  0  0  0  0  0  0  0  0  0
  141.0550   70.6960  227.4280 C   0  0  0  0  0  0  0  0  0  0  0  0
  141.0420   71.6470  226.4210 C   0  0  0  0  0  0  0  0  0  0  0  0
  140.5270   71.2920  225.1750 C   0  0  0  0  0  0  0  0  0  0  0  0
  140.5460   72.2690  224.2410 N   0  0  0  0  0  0  0  0  0  0  0  0
  139.4200   74.6350  223.2490 H   0  0  0  0  0  0  0  0  0  0  0  0
  139.5785   74.7443  220.2472 H   0  0  0  0  0  0  0  0  0  0  0  0
  138.9172   76.0214  221.3530 H   0  0  0  0  0  0  0  0  0  0  0  0
  140.5874   76.8201  223.6531 H   0  0  0  0  0  0  0  0  0  0  0  0
  142.1232   77.6782  223.4473 H   0  0  0  0  0  0  0  0  0  0  0  0
  139.3651   78.9009  222.7978 H   0  0  0  0  0  0  0  0  0  0  0  0
  140.2196   79.1327  224.3664 H   0  0  0  0  0  0  0  0  0  0  0  0
  140.4761   80.9069  222.3932 H   0  0  0  0  0  0  0  0  0  0  0  0
  141.8707   80.4795  223.4216 H   0  0  0  0  0  0  0  0  0  0  0  0
  142.0867   80.3720  220.7577 H   0  0  0  0  0  0  0  0  0  0  0  0
  142.8350   79.0907  221.7579 H   0  0  0  0  0  0  0  0  0  0  0  0
  139.9469   78.8155  220.6325 H   0  0  0  0  0  0  0  0  0  0  0  0
  141.9087   78.3360  216.1944 H   0  0  0  0  0  0  0  0  0  0  0  0
  143.8868   77.0072  217.4630 H   0  0  0  0  0  0  0  0  0  0  0  0
  143.3470   77.1290  219.9960 H   0  0  0  0  0  0  0  0  0  0  0  0
  139.1739   70.5263  221.7217 H   0  0  0  0  0  0  0  0  0  0  0  0
  139.1327   68.7080  223.4500 H   0  0  0  0  0  0  0  0  0  0  0  0
  139.6707   68.0721  225.7741 H   0  0  0  0  0  0  0  0  0  0  0  0
  141.4582   70.9596  228.4169 H   0  0  0  0  0  0  0  0  0  0  0  0
  141.4297   72.6606  226.6005 H   0  0  0  0  0  0  0  0  0  0  0  0
  1  2  2  0
  2  3  1  0
  3  4  1  0
  4  5  1  0
  5  6  2  0
  5  7  1  0
  7  8  1  0
  8  9  1  0
  9 10  1  0
 10 11  1  0
 11 12  1  0
 12 13  1  0
 13 14  2  0
 14 15  1  0
 15 16  2  0
 16 17  1  0
  2 18  1  0
 18 19  2  0
 19 20  1  0
 20 21  2  0
 21 22  1  0
 22 23  2  0
 23 24  1  0
 23 25  1  0
 25 26  2  0
 26 27  1  0
 27 28  2  0
 12  7  1  0
 17 13  1  0
 28 18  1  0
 27 21  1  0
  3 29  1  0
  4 30  1  0
  4 31  1  0
  8 32  1  0
  8 33  1  0
  9 34  1  0
  9 35  1  0
 10 36  1  0
 10 37  1  0
 11 38  1  0
 11 39  1  0
 12 40  1  6
 15 41  1  0
 16 42  1  0
 17 43  1  0
 19 44  1  0
 20 45  1  0
 22 46  1  0
 25 47  1  0
 26 48  1  0
M  END
>  <smiles>  (22) 
O=C(NCC(=O)N1CCCC[C@H]1c1ncc[nH]1)c1ccc2cc(Cl)ccc2n1

>  <score_type>  (22) 
oracle

>  <origin>  (22) 
autodockgpu

>  <m_score__min__energy>  (22) 
-7.8799999999999999

>  <m_primary>  (22) 
energy

>  <rmsd>  (22) 
3.6615496165374823

>  <m_score__min__rmsd>  (22) 
3.6615496165374823

>  <meeko>  (22) 
{"free_energy": -7.82, "intermolecular_energy": -9.31, "internal_energy": -1.91, "cluster_size": 8, "cluster_id": 1, "rank_in_cluster": 5}

>  <energy>  (22) 
-7.33

>  <cluster_rmsd>  (22) 
0.88

>  <cluster>  (22) 
4

$$$$

     RDKit          3D

 48 51  0  0  0  0  0  0  0  0999 V2000
  136.6340   71.1890  221.6060 O   0  0  0  0  0  0  0  0  0  0  0  0
  137.4300   71.7250  222.4420 C   0  0  0  0  0  0  0  0  0  0  0  0
  137.7430   73.1080  222.3030 N   0  0  0  0  0  0  0  0  0  0  0  0
  137.1170   73.8090  221.1990 C   0  0  0  0  0  0  0  0  0  0  0  0
  138.1190   74.4620  220.3210 C   0  0  0  0  0  0  0  0  0  0  0  0
  138.2960   74.0200  219.1580 O   0  0  0  0  0  0  0  0  0  0  0  0
  138.8290   75.5700  220.8590 N   0  0  0  0  0  0  0  0  0  0  0  0
  138.1770   76.8170  221.2370 C   0  0  0  0  0  0  0  0  0  0  0  0
  139.2190   77.9210  221.0200 C   0  0  0  0  0  0  0  0  0  0  0  0
  140.3330   77.7950  222.0390 C   0  0  0  0  0  0  0  0  0  0  0  0
  140.5280   76.3090  222.3410 C   0  0  0  0  0  0  0  0  0  0  0  0
  140.2720   75.5180  221.0630 C   0  0  1  0  0  0  0  0  0  0  0  0
  140.7610   74.1410  221.3260 C   0  0  0  0  0  0  0  0  0  0  0  0
  140.4430   73.3210  222.3420 N   0  0  0  0  0  0  0  0  0  0  0  0
  141.1070   72.1440  222.2210 C   0  0  0  0  0  0  0  0  0  0  0  0
  141.8740   72.2460  221.0700 C   0  0  0  0  0  0  0  0  0  0  0  0
  141.6450   73.4590  220.5540 N   0  0  0  0  0  0  0  0  0  0  0  0
  138.0140   70.9410  223.5240 C   0  0  0  0  0  0  0  0  0  0  0  0
  137.5650   69.6530  223.7340 C   0  0  0  0  0  0  0  0  0  0  0  0
  138.0790   68.8510  224.7470 C   0  0  0  0  0  0  0  0  0  0  0  0
  139.0630   69.4240  225.5280 C   0  0  0  0  0  0  0  0  0  0  0  0
  139.6530   68.7160  226.5750 C   0  0  0  0  0  0  0  0  0  0  0  0
  140.6470   69.3050  227.3580 C   0  0  0  0  0  0  0  0  0  0  0  0
  141.3570   68.3730  228.6610 Cl  0  0  0  0  0  0  0  0  0  0  0  0
  141.0470   70.6000  227.0890 C   0  0  0  0  0  0  0  0  0  0  0  0
  140.4750   71.3230  226.0550 C   0  0  0  0  0  0  0  0  0  0  0  0
  139.4840   70.7160  225.2850 C   0  0  0  0  0  0  0  0  0  0  0  0
  138.9720   71.4790  224.2940 N   0  0  0  0  0  0  0  0  0  0  0  0
  138.3870   73.5990  222.9570 H   0  0  0  0  0  0  0  0  0  0  0  0
  136.5371   73.0888  220.6031 H   0  0  0  0  0  0  0  0  0  0  0  0
  136.4666   74.5919  221.6163 H   0  0  0  0  0  0  0  0  0  0  0  0
  137.2948   76.9942  220.6042 H   0  0  0  0  0  0  0  0  0  0  0  0
  137.8296   76.7901  222.2804 H   0  0  0  0  0  0  0  0  0  0  0  0
  139.6400   77.8297  220.0079 H   0  0  0  0  0  0  0  0  0  0  0  0
  138.7338   78.9012  221.1373 H   0  0  0  0  0  0  0  0  0  0  0  0
  141.2625   78.2185  221.6308 H   0  0  0  0  0  0  0  0  0  0  0  0
  140.0753   78.3421  222.9579 H   0  0  0  0  0  0  0  0  0  0  0  0
  141.5573   76.1326  222.6867 H   0  0  0  0  0  0  0  0  0  0  0  0
  139.8294   75.9895  223.1283 H   0  0  0  0  0  0  0  0  0  0  0  0
  140.7774   75.9009  220.1642 H   0  0  0  0  0  0  0  0  0  0  0  0
  141.0486   71.2809  222.9004 H   0  0  0  0  0  0  0  0  0  0  0  0
  142.5435   71.4759  220.6593 H   0  0  0  0  0  0  0  0  0  0  0  0
  142.0870   73.8300  219.6740 H   0  0  0  0  0  0  0  0  0  0  0  0
  136.7775   69.2490  223.0809 H   0  0  0  0  0  0  0  0  0  0  0  0
  137.7237   67.8237  224.9157 H   0  0  0  0  0  0  0  0  0  0  0  0
  139.3323   67.6850  226.7853 H   0  0  0  0  0  0  0  0  0  0  0  0
  141.8314   71.0638  227.7052 H   0  0  0  0  0  0  0  0  0  0  0  0
  140.7960   72.3542  225.8459 H   0  0  0  0  0  0  0  0  0  0  0  0
  1  2  2  0
  2  3  1  0
  3  4  1  0
  4  5  1  0
  5  6  2  0
  5  7  1  0
  7  8  1  0
  8  9  1  0
  9 10  1  0
 10 11  1  0
 11 12  1  0
 12 13  1  0
 13 14  2  0
 14 15  1  0
 15 16  2  0
 16 17  1  0
  2 18  1  0
 18 19  2  0
 19 20  1  0
 20 21  2  0
 21 22  1  0
 22 23  2  0
 23 24  1  0
 23 25  1  0
 25 26  2  0
 26 27  1  0
 27 28  2  0
 12  7  1  0
 17 13  1  0
 28 18  1  0
 27 21  1  0
  3 29  1  0
  4 30  1  0
  4 31  1  0
  8 32  1  0
  8 33  1  0
  9 34  1  0
  9 35  1  0
 10 36  1  0
 10 37  1  0
 11 38  1  0
 11 39  1  0
 12 40  1  6
 15 41  1  0
 16 42  1  0
 17 43  1  0
 19 44  1  0
 20 45  1  0
 22 46  1  0
 25 47  1  0
 26 48  1  0
M  END
>  <smiles>  (23) 
O=C(NCC(=O)N1CCCC[C@H]1c1ncc[nH]1)c1ccc2cc(Cl)ccc2n1

>  <score_type>  (23) 
oracle

>  <origin>  (23) 
autodockgpu

>  <m_score__min__energy>  (23) 
-7.8799999999999999

>  <m_primary>  (23) 
energy

>  <rmsd>  (23) 
3.6478782107958354

>  <m_score__min__rmsd>  (23) 
3.6478782107958354

>  <meeko>  (23) 
{"free_energy": -6.59, "intermolecular_energy": -8.08, "internal_energy": -2.75, "cluster_size": 2, "cluster_id": 8, "rank_in_cluster": 1}

>  <energy>  (23) 
-7.32

>  <cluster_rmsd>  (23) 
0.88

>  <cluster>  (23) 
4

$$$$

     RDKit          3D

 48 51  0  0  0  0  0  0  0  0999 V2000
  140.3090   72.1500  220.7530 O   0  0  0  0  0  0  0  0  0  0  0  0
  140.0590   72.5350  221.9400 C   0  0  0  0  0  0  0  0  0  0  0  0
  139.7770   73.9140  222.1690 N   0  0  0  0  0  0  0  0  0  0  0  0
  139.7970   74.7830  221.0100 C   0  0  0  0  0  0  0  0  0  0  0  0
  140.7640   75.8970  221.1720 C   0  0  0  0  0  0  0  0  0  0  0  0
  141.1030   76.2500  222.3300 O   0  0  0  0  0  0  0  0  0  0  0  0
  141.2590   76.5060  219.9880 N   0  0  0  0  0  0  0  0  0  0  0  0
  140.9040   77.8640  219.5910 C   0  0  0  0  0  0  0  0  0  0  0  0
  140.9450   77.8800  218.0580 C   0  0  0  0  0  0  0  0  0  0  0  0
  142.3740   77.7440  217.5730 C   0  0  0  0  0  0  0  0  0  0  0  0
  143.1240   76.8550  218.5650 C   0  0  0  0  0  0  0  0  0  0  0  0
  142.1620   75.7960  219.0900 C   0  0  1  0  0  0  0  0  0  0  0  0
  142.9980   74.7950  219.7980 C   0  0  0  0  0  0  0  0  0  0  0  0
  144.2730   74.9090  220.2080 N   0  0  0  0  0  0  0  0  0  0  0  0
  144.6750   73.7660  220.8190 C   0  0  0  0  0  0  0  0  0  0  0  0
  143.5910   72.9030  220.7810 C   0  0  0  0  0  0  0  0  0  0  0  0
  142.5970   73.5500  220.1620 N   0  0  0  0  0  0  0  0  0  0  0  0
  140.0600   71.5880  223.0480 C   0  0  0  0  0  0  0  0  0  0  0  0
  139.5410   70.3250  222.8480 C   0  0  0  0  0  0  0  0  0  0  0  0
  139.5120   69.3730  223.8620 C   0  0  0  0  0  0  0  0  0  0  0  0
  140.0320   69.7710  225.0780 C   0  0  0  0  0  0  0  0  0  0  0  0
  140.0560   68.9020  226.1680 C   0  0  0  0  0  0  0  0  0  0  0  0
  140.5860   69.3160  227.3920 C   0  0  0  0  0  0  0  0  0  0  0  0
  140.5920   68.1860  228.7310 Cl  0  0  0  0  0  0  0  0  0  0  0  0
  141.0880   70.5970  227.5190 C   0  0  0  0  0  0  0  0  0  0  0  0
  141.0740   71.4770  226.4490 C   0  0  0  0  0  0  0  0  0  0  0  0
  140.5420   71.0450  225.2360 C   0  0  0  0  0  0  0  0  0  0  0  0
  140.5620   71.9550  224.2370 N   0  0  0  0  0  0  0  0  0  0  0  0
  139.5660   74.2850  223.1180 H   0  0  0  0  0  0  0  0  0  0  0  0
  140.0800   74.1917  220.1267 H   0  0  0  0  0  0  0  0  0  0  0  0
  138.7931   75.2167  220.8909 H   0  0  0  0  0  0  0  0  0  0  0  0
  139.8948   78.1155  219.9491 H   0  0  0  0  0  0  0  0  0  0  0  0
  141.5959   78.6035  220.0205 H   0  0  0  0  0  0  0  0  0  0  0  0
  140.3478   77.0419  217.6695 H   0  0  0  0  0  0  0  0  0  0  0  0
  140.5319   78.8335  217.6971 H   0  0  0  0  0  0  0  0  0  0  0  0
  142.3875   77.2835  216.5741 H   0  0  0  0  0  0  0  0  0  0  0  0
  142.8520   78.7325  217.5068 H   0  0  0  0  0  0  0  0  0  0  0  0
  143.9714   76.3685  218.0598 H   0  0  0  0  0  0  0  0  0  0  0  0
  143.5077   77.4615  219.3986 H   0  0  0  0  0  0  0  0  0  0  0  0
  141.5715   75.2753  218.3217 H   0  0  0  0  0  0  0  0  0  0  0  0
  145.6637   73.5645  221.2570 H   0  0  0  0  0  0  0  0  0  0  0  0
  143.5549   71.8799  221.1836 H   0  0  0  0  0  0  0  0  0  0  0  0
  141.6410   73.1500  219.9820 H   0  0  0  0  0  0  0  0  0  0  0  0
  139.1386   70.0635  221.8582 H   0  0  0  0  0  0  0  0  0  0  0  0
  139.1002   68.3652  223.7049 H   0  0  0  0  0  0  0  0  0  0  0  0
  139.6547   67.8832  226.0632 H   0  0  0  0  0  0  0  0  0  0  0  0
  141.5047   70.9228  228.4835 H   0  0  0  0  0  0  0  0  0  0  0  0
  141.4747   72.4959  226.5550 H   0  0  0  0  0  0  0  0  0  0  0  0
  1  2  2  0
  2  3  1  0
  3  4  1  0
  4  5  1  0
  5  6  2  0
  5  7  1  0
  7  8  1  0
  8  9  1  0
  9 10  1  0
 10 11  1  0
 11 12  1  0
 12 13  1  0
 13 14  2  0
 14 15  1  0
 15 16  2  0
 16 17  1  0
  2 18  1  0
 18 19  2  0
 19 20  1  0
 20 21  2  0
 21 22  1  0
 22 23  2  0
 23 24  1  0
 23 25  1  0
 25 26  2  0
 26 27  1  0
 27 28  2  0
 12  7  1  0
 17 13  1  0
 28 18  1  0
 27 21  1  0
  3 29  1  0
  4 30  1  0
  4 31  1  0
  8 32  1  0
  8 33  1  0
  9 34  1  0
  9 35  1  0
 10 36  1  0
 10 37  1  0
 11 38  1  0
 11 39  1  0
 12 40  1  6
 15 41  1  0
 16 42  1  0
 17 43  1  0
 19 44  1  0
 20 45  1  0
 22 46  1  0
 25 47  1  0
 26 48  1  0
M  END
>  <smiles>  (24) 
O=C(NCC(=O)N1CCCC[C@H]1c1ncc[nH]1)c1ccc2cc(Cl)ccc2n1

>  <score_type>  (24) 
oracle

>  <origin>  (24) 
autodockgpu

>  <m_score__min__energy>  (24) 
-7.8799999999999999

>  <m_primary>  (24) 
energy

>  <rmsd>  (24) 
3.2239112404250623

>  <m_score__min__rmsd>  (24) 
3.2239112404250623

>  <meeko>  (24) 
{"free_energy": -7.33, "intermolecular_energy": -8.82, "internal_energy": -2.54, "cluster_size": 10, "cluster_id": 4, "rank_in_cluster": 4}

>  <energy>  (24) 
-7.29

>  <cluster_rmsd>  (24) 
0.79

>  <cluster>  (24) 
4

$$$$

     RDKit          3D

 48 51  0  0  0  0  0  0  0  0999 V2000
  140.9570   72.7280  221.0250 O   0  0  0  0  0  0  0  0  0  0  0  0
  140.2820   72.9580  222.0790 C   0  0  0  0  0  0  0  0  0  0  0  0
  139.6010   74.2050  222.1990 N   0  0  0  0  0  0  0  0  0  0  0  0
  139.7330   75.1280  221.0890 C   0  0  0  0  0  0  0  0  0  0  0  0
  140.8480   76.0840  221.2970 C   0  0  0  0  0  0  0  0  0  0  0  0
  141.4060   76.1400  222.4230 O   0  0  0  0  0  0  0  0  0  0  0  0
  141.2270   76.8910  220.1910 N   0  0  0  0  0  0  0  0  0  0  0  0
  141.0630   76.4610  218.8070 C   0  0  0  0  0  0  0  0  0  0  0  0
  142.1910   77.1380  218.0190 C   0  0  0  0  0  0  0  0  0  0  0  0
  141.9510   78.6320  217.9430 C   0  0  0  0  0  0  0  0  0  0  0  0
  141.2650   79.0640  219.2400 C   0  0  0  0  0  0  0  0  0  0  0  0
  141.8090   78.2140  220.3820 C   0  0  1  0  0  0  0  0  0  0  0  0
  141.3490   78.8650  221.6340 C   0  0  0  0  0  0  0  0  0  0  0  0
  140.4220   79.8260  221.7850 N   0  0  0  0  0  0  0  0  0  0  0  0
  140.2900   80.1500  223.0960 C   0  0  0  0  0  0  0  0  0  0  0  0
  141.1840   79.3470  223.7880 C   0  0  0  0  0  0  0  0  0  0  0  0
  141.8050   78.5840  222.8810 N   0  0  0  0  0  0  0  0  0  0  0  0
  140.2050   71.9690  223.1470 C   0  0  0  0  0  0  0  0  0  0  0  0
  139.6230   70.7450  222.8830 C   0  0  0  0  0  0  0  0  0  0  0  0
  139.5180   69.7570  223.8560 C   0  0  0  0  0  0  0  0  0  0  0  0
  140.0300   70.0770  225.0980 C   0  0  0  0  0  0  0  0  0  0  0  0
  139.9800   69.1650  226.1520 C   0  0  0  0  0  0  0  0  0  0  0  0
  140.5010   69.4990  227.4040 C   0  0  0  0  0  0  0  0  0  0  0  0
  140.4130   68.3180  228.6950 Cl  0  0  0  0  0  0  0  0  0  0  0  0
  141.0690   70.7440  227.5940 C   0  0  0  0  0  0  0  0  0  0  0  0
  141.1290   71.6660  226.5620 C   0  0  0  0  0  0  0  0  0  0  0  0
  140.6040   71.3130  225.3200 C   0  0  0  0  0  0  0  0  0  0  0  0
  140.6970   72.2600  224.3610 N   0  0  0  0  0  0  0  0  0  0  0  0
  139.0350   74.4470  223.0380 H   0  0  0  0  0  0  0  0  0  0  0  0
  139.9225   74.5545  220.1697 H   0  0  0  0  0  0  0  0  0  0  0  0
  138.7991   75.7039  221.0103 H   0  0  0  0  0  0  0  0  0  0  0  0
  141.1487   75.3668  218.7338 H   0  0  0  0  0  0  0  0  0  0  0  0
  140.0737   76.7371  218.4133 H   0  0  0  0  0  0  0  0  0  0  0  0
  143.1505   76.9491  218.5227 H   0  0  0  0  0  0  0  0  0  0  0  0
  142.2150   76.7255  216.9995 H   0  0  0  0  0  0  0  0  0  0  0  0
  142.9100   79.1596  217.8336 H   0  0  0  0  0  0  0  0  0  0  0  0
  141.3194   78.8752  217.0758 H   0  0  0  0  0  0  0  0  0  0  0  0
  141.4756   80.1259  219.4351 H   0  0  0  0  0  0  0  0  0  0  0  0
  140.1769   78.9274  219.1541 H   0  0  0  0  0  0  0  0  0  0  0  0
  142.9046   78.1226  220.4198 H   0  0  0  0  0  0  0  0  0  0  0  0
  139.6093   80.9003  223.5246 H   0  0  0  0  0  0  0  0  0  0  0  0
  141.3509   79.3388  224.8752 H   0  0  0  0  0  0  0  0  0  0  0  0
  142.5440   77.8680  223.1040 H   0  0  0  0  0  0  0  0  0  0  0  0
  139.2314   70.5458  221.8746 H   0  0  0  0  0  0  0  0  0  0  0  0
  139.0556   68.7806  223.6491 H   0  0  0  0  0  0  0  0  0  0  0  0
  139.5267   68.1750  225.9960 H   0  0  0  0  0  0  0  0  0  0  0  0
  141.4799   71.0071  228.5799 H   0  0  0  0  0  0  0  0  0  0  0  0
  141.5816   72.6562  226.7194 H   0  0  0  0  0  0  0  0  0  0  0  0
  1  2  2  0
  2  3  1  0
  3  4  1  0
  4  5  1  0
  5  6  2  0
  5  7  1  0
  7  8  1  0
  8  9  1  0
  9 10  1  0
 10 11  1  0
 11 12  1  0
 12 13  1  0
 13 14  2  0
 14 15  1  0
 15 16  2  0
 16 17  1  0
  2 18  1  0
 18 19  2  0
 19 20  1  0
 20 21  2  0
 21 22  1  0
 22 23  2  0
 23 24  1  0
 23 25  1  0
 25 26  2  0
 26 27  1  0
 27 28  2  0
 12  7  1  0
 17 13  1  0
 28 18  1  0
 27 21  1  0
  3 29  1  0
  4 30  1  0
  4 31  1  0
  8 32  1  0
  8 33  1  0
  9 34  1  0
  9 35  1  0
 10 36  1  0
 10 37  1  0
 11 38  1  0
 11 39  1  0
 12 40  1  1
 15 41  1  0
 16 42  1  0
 17 43  1  0
 19 44  1  0
 20 45  1  0
 22 46  1  0
 25 47  1  0
 26 48  1  0
M  END
>  <smiles>  (25) 
O=C(NCC(=O)N1CCCC[C@H]1c1ncc[nH]1)c1ccc2cc(Cl)ccc2n1

>  <score_type>  (25) 
oracle

>  <origin>  (25) 
autodockgpu

>  <m_score__min__energy>  (25) 
-7.8799999999999999

>  <m_primary>  (25) 
energy

>  <rmsd>  (25) 
1.9743942642493444

>  <m_score__min__rmsd>  (25) 
1.9743942642493444

>  <meeko>  (25) 
{"free_energy": -7.85, "intermolecular_energy": -9.34, "internal_energy": -1.83, "cluster_size": 8, "cluster_id": 1, "rank_in_cluster": 2}

>  <energy>  (25) 
-7.28

>  <cluster_rmsd>  (25) 
0.86

>  <cluster>  (25) 
4

$$$$

     RDKit          3D

 48 51  0  0  0  0  0  0  0  0999 V2000
  140.5150   72.2400  220.7810 O   0  0  0  0  0  0  0  0  0  0  0  0
  140.1780   72.6080  221.9520 C   0  0  0  0  0  0  0  0  0  0  0  0
  139.8270   73.9730  222.1670 N   0  0  0  0  0  0  0  0  0  0  0  0
  139.8820   74.8490  221.0130 C   0  0  0  0  0  0  0  0  0  0  0  0
  140.9610   75.8590  221.1380 C   0  0  0  0  0  0  0  0  0  0  0  0
  141.4000   76.1490  222.2800 O   0  0  0  0  0  0  0  0  0  0  0  0
  141.4430   76.4470  219.9370 N   0  0  0  0  0  0  0  0  0  0  0  0
  141.0730   77.7920  219.5130 C   0  0  0  0  0  0  0  0  0  0  0  0
  141.1050   77.7740  217.9800 C   0  0  0  0  0  0  0  0  0  0  0  0
  142.5320   77.6420  217.4890 C   0  0  0  0  0  0  0  0  0  0  0  0
  143.2970   76.7810  218.4960 C   0  0  0  0  0  0  0  0  0  0  0  0
  142.3480   75.7260  219.0500 C   0  0  1  0  0  0  0  0  0  0  0  0
  143.1980   74.7480  219.7750 C   0  0  0  0  0  0  0  0  0  0  0  0
  144.4590   74.8990  220.2130 N   0  0  0  0  0  0  0  0  0  0  0  0
  144.8820   73.7670  220.8300 C   0  0  0  0  0  0  0  0  0  0  0  0
  143.8250   72.8730  220.7680 C   0  0  0  0  0  0  0  0  0  0  0  0
  142.8260   73.4910  220.1280 N   0  0  0  0  0  0  0  0  0  0  0  0
  140.1520   71.6560  223.0560 C   0  0  0  0  0  0  0  0  0  0  0  0
  139.6310   70.3970  222.8390 C   0  0  0  0  0  0  0  0  0  0  0  0
  139.5760   69.4410  223.8480 C   0  0  0  0  0  0  0  0  0  0  0  0
  140.0730   69.8310  225.0760 C   0  0  0  0  0  0  0  0  0  0  0  0
  140.0700   68.9570  226.1620 C   0  0  0  0  0  0  0  0  0  0  0  0
  140.5760   69.3620  227.3990 C   0  0  0  0  0  0  0  0  0  0  0  0
  140.5500   68.2270  228.7330 Cl  0  0  0  0  0  0  0  0  0  0  0  0
  141.0830   70.6400  227.5420 C   0  0  0  0  0  0  0  0  0  0  0  0
  141.0960   71.5250  226.4760 C   0  0  0  0  0  0  0  0  0  0  0  0
  140.5860   71.1010  225.2500 C   0  0  0  0  0  0  0  0  0  0  0  0
  140.6310   72.0160  224.2560 N   0  0  0  0  0  0  0  0  0  0  0  0
  139.5450   74.3310  223.1030 H   0  0  0  0  0  0  0  0  0  0  0  0
  140.0650   74.2422  220.1139 H   0  0  0  0  0  0  0  0  0  0  0  0
  138.9221   75.3816  220.9425 H   0  0  0  0  0  0  0  0  0  0  0  0
  140.0636   78.0420  219.8716 H   0  0  0  0  0  0  0  0  0  0  0  0
  141.7600   78.5474  219.9221 H   0  0  0  0  0  0  0  0  0  0  0  0
  140.5143   76.9213  217.6140 H   0  0  0  0  0  0  0  0  0  0  0  0
  140.6800   78.7150  217.6006 H   0  0  0  0  0  0  0  0  0  0  0  0
  142.5441   77.1605  216.5000 H   0  0  0  0  0  0  0  0  0  0  0  0
  142.9998   78.6335  217.3986 H   0  0  0  0  0  0  0  0  0  0  0  0
  144.1454   76.2909  217.9960 H   0  0  0  0  0  0  0  0  0  0  0  0
  143.6809   77.4089  219.3135 H   0  0  0  0  0  0  0  0  0  0  0  0
  141.7577   75.1832  218.2971 H   0  0  0  0  0  0  0  0  0  0  0  0
  145.8670   73.5936  221.2879 H   0  0  0  0  0  0  0  0  0  0  0  0
  143.8102   71.8489  221.1692 H   0  0  0  0  0  0  0  0  0  0  0  0
  141.8860   73.0630  219.9270 H   0  0  0  0  0  0  0  0  0  0  0  0
  139.2482   70.1420  221.8398 H   0  0  0  0  0  0  0  0  0  0  0  0
  139.1621   68.4361  223.6782 H   0  0  0  0  0  0  0  0  0  0  0  0
  139.6661   67.9407  226.0437 H   0  0  0  0  0  0  0  0  0  0  0  0
  141.4819   70.9590  228.5162 H   0  0  0  0  0  0  0  0  0  0  0  0
  141.5004   72.5411  226.5947 H   0  0  0  0  0  0  0  0  0  0  0  0
  1  2  2  0
  2  3  1  0
  3  4  1  0
  4  5  1  0
  5  6  2  0
  5  7  1  0
  7  8  1  0
  8  9  1  0
  9 10  1  0
 10 11  1  0
 11 12  1  0
 12 13  1  0
 13 14  2  0
 14 15  1  0
 15 16  2  0
 16 17  1  0
  2 18  1  0
 18 19  2  0
 19 20  1  0
 20 21  2  0
 21 22  1  0
 22 23  2  0
 23 24  1  0
 23 25  1  0
 25 26  2  0
 26 27  1  0
 27 28  2  0
 12  7  1  0
 17 13  1  0
 28 18  1  0
 27 21  1  0
  3 29  1  0
  4 30  1  0
  4 31  1  0
  8 32  1  0
  8 33  1  0
  9 34  1  0
  9 35  1  0
 10 36  1  0
 10 37  1  0
 11 38  1  0
 11 39  1  0
 12 40  1  6
 15 41  1  0
 16 42  1  0
 17 43  1  0
 19 44  1  0
 20 45  1  0
 22 46  1  0
 25 47  1  0
 26 48  1  0
M  END
>  <smiles>  (26) 
O=C(NCC(=O)N1CCCC[C@H]1c1ncc[nH]1)c1ccc2cc(Cl)ccc2n1

>  <score_type>  (26) 
oracle

>  <origin>  (26) 
autodockgpu

>  <m_score__min__energy>  (26) 
-7.8799999999999999

>  <m_primary>  (26) 
energy

>  <rmsd>  (26) 
3.2864765094336743

>  <m_score__min__rmsd>  (26) 
3.2864765094336743

>  <meeko>  (26) 
{"free_energy": -7.32, "intermolecular_energy": -8.81, "internal_energy": -2.5, "cluster_size": 10, "cluster_id": 4, "rank_in_cluster": 6}

>  <energy>  (26) 
-7.23

>  <cluster_rmsd>  (26) 
0.84

>  <cluster>  (26) 
4

$$$$

     RDKit          3D

 48 51  0  0  0  0  0  0  0  0999 V2000
  140.6190   72.5310  220.8070 O   0  0  0  0  0  0  0  0  0  0  0  0
  140.2310   72.8860  221.9660 C   0  0  0  0  0  0  0  0  0  0  0  0
  139.8490   74.2430  222.1770 N   0  0  0  0  0  0  0  0  0  0  0  0
  139.9320   75.1270  221.0310 C   0  0  0  0  0  0  0  0  0  0  0  0
  141.1850   75.9230  221.0400 C   0  0  0  0  0  0  0  0  0  0  0  0
  142.2490   75.3950  220.6290 O   0  0  0  0  0  0  0  0  0  0  0  0
  141.1030   77.2590  221.5180 N   0  0  0  0  0  0  0  0  0  0  0  0
  141.0720   77.5880  222.9380 C   0  0  0  0  0  0  0  0  0  0  0  0
  140.2510   78.8780  223.0540 C   0  0  0  0  0  0  0  0  0  0  0  0
  141.0150   80.0390  222.4500 C   0  0  0  0  0  0  0  0  0  0  0  0
  141.8370   79.5020  221.2780 C   0  0  0  0  0  0  0  0  0  0  0  0
  141.0440   78.3900  220.6000 C   0  0  1  0  0  0  0  0  0  0  0  0
  141.7340   78.1180  219.3140 C   0  0  0  0  0  0  0  0  0  0  0  0
  141.3400   78.4370  218.0700 N   0  0  0  0  0  0  0  0  0  0  0  0
  142.2550   78.0100  217.1630 C   0  0  0  0  0  0  0  0  0  0  0  0
  143.2640   77.3960  217.8880 C   0  0  0  0  0  0  0  0  0  0  0  0
  142.9230   77.4770  219.1790 N   0  0  0  0  0  0  0  0  0  0  0  0
  140.1790   71.9260  223.0620 C   0  0  0  0  0  0  0  0  0  0  0  0
  139.6290   70.6810  222.8330 C   0  0  0  0  0  0  0  0  0  0  0  0
  139.5480   69.7180  223.8340 C   0  0  0  0  0  0  0  0  0  0  0  0
  140.0510   70.0860  225.0660 C   0  0  0  0  0  0  0  0  0  0  0  0
  140.0240   69.2040  226.1460 C   0  0  0  0  0  0  0  0  0  0  0  0
  140.5360   69.5860  227.3870 C   0  0  0  0  0  0  0  0  0  0  0  0
  140.4780   68.4410  228.7120 Cl  0  0  0  0  0  0  0  0  0  0  0  0
  141.0720   70.8500  227.5420 C   0  0  0  0  0  0  0  0  0  0  0  0
  141.1090   71.7440  226.4840 C   0  0  0  0  0  0  0  0  0  0  0  0
  140.5930   71.3420  225.2530 C   0  0  0  0  0  0  0  0  0  0  0  0
  140.6630   72.2640  224.2670 N   0  0  0  0  0  0  0  0  0  0  0  0
  139.5240   74.5890  223.1030 H   0  0  0  0  0  0  0  0  0  0  0  0
  139.9001   74.5231  220.1121 H   0  0  0  0  0  0  0  0  0  0  0  0
  139.0827   75.8247  221.0745 H   0  0  0  0  0  0  0  0  0  0  0  0
  140.5937   76.7778  223.5079 H   0  0  0  0  0  0  0  0  0  0  0  0
  142.0860   77.7173  223.3443 H   0  0  0  0  0  0  0  0  0  0  0  0
  139.2982   78.7520  222.5189 H   0  0  0  0  0  0  0  0  0  0  0  0
  140.0592   79.0878  224.1166 H   0  0  0  0  0  0  0  0  0  0  0  0
  140.3105   80.8045  222.0927 H   0  0  0  0  0  0  0  0  0  0  0  0
  141.6741   80.4967  223.2024 H   0  0  0  0  0  0  0  0  0  0  0  0
  142.0304   80.3115  220.5587 H   0  0  0  0  0  0  0  0  0  0  0  0
  142.7994   79.1115  221.6403 H   0  0  0  0  0  0  0  0  0  0  0  0
  139.9911   78.6259  220.3863 H   0  0  0  0  0  0  0  0  0  0  0  0
  142.2056   78.1278  216.0704 H   0  0  0  0  0  0  0  0  0  0  0  0
  144.1729   76.9303  217.4793 H   0  0  0  0  0  0  0  0  0  0  0  0
  143.4960   77.0970  219.9760 H   0  0  0  0  0  0  0  0  0  0  0  0
  139.2437   70.4433  221.8305 H   0  0  0  0  0  0  0  0  0  0  0  0
  139.1103   68.7249  223.6549 H   0  0  0  0  0  0  0  0  0  0  0  0
  139.5956   68.1989  226.0187 H   0  0  0  0  0  0  0  0  0  0  0  0
  141.4754   71.1511  228.5200 H   0  0  0  0  0  0  0  0  0  0  0  0
  141.5364   72.7494  226.6127 H   0  0  0  0  0  0  0  0  0  0  0  0
  1  2  2  0
  2  3  1  0
  3  4  1  0
  4  5  1  0
  5  6  2  0
  5  7  1  0
  7  8  1  0
  8  9  1  0
  9 10  1  0
 10 11  1  0
 11 12  1  0
 12 13  1  0
 13 14  2  0
 14 15  1  0
 15 16  2  0
 16 17  1  0
  2 18  1  0
 18 19  2  0
 19 20  1  0
 20 21  2  0
 21 22  1  0
 22 23  2  0
 23 24  1  0
 23 25  1  0
 25 26  2  0
 26 27  1  0
 27 28  2  0
 12  7  1  0
 17 13  1  0
 28 18  1  0
 27 21  1  0
  3 29  1  0
  4 30  1  0
  4 31  1  0
  8 32  1  0
  8 33  1  0
  9 34  1  0
  9 35  1  0
 10 36  1  0
 10 37  1  0
 11 38  1  0
 11 39  1  0
 12 40  1  6
 15 41  1  0
 16 42  1  0
 17 43  1  0
 19 44  1  0
 20 45  1  0
 22 46  1  0
 25 47  1  0
 26 48  1  0
M  END
>  <smiles>  (27) 
O=C(NCC(=O)N1CCCC[C@H]1c1ncc[nH]1)c1ccc2cc(Cl)ccc2n1

>  <score_type>  (27) 
oracle

>  <origin>  (27) 
autodockgpu

>  <m_score__min__energy>  (27) 
-7.8799999999999999

>  <m_primary>  (27) 
energy

>  <rmsd>  (27) 
3.6296989029581357

>  <m_score__min__rmsd>  (27) 
3.6296989029581357

>  <meeko>  (27) 
{"free_energy": -7.88, "intermolecular_energy": -9.37, "internal_energy": -1.92, "cluster_size": 8, "cluster_id": 1, "rank_in_cluster": 1}

>  <energy>  (27) 
-7.23

>  <cluster_rmsd>  (27) 
0.77

>  <cluster>  (27) 
4

$$$$

     RDKit          3D

 48 51  0  0  0  0  0  0  0  0999 V2000
  141.1070   72.7870  221.2560 O   0  0  0  0  0  0  0  0  0  0  0  0
  140.2930   72.9080  222.2270 C   0  0  0  0  0  0  0  0  0  0  0  0
  139.4460   74.0530  222.2740 N   0  0  0  0  0  0  0  0  0  0  0  0
  139.5810   75.0070  221.1910 C   0  0  0  0  0  0  0  0  0  0  0  0
  140.5910   76.0500  221.4970 C   0  0  0  0  0  0  0  0  0  0  0  0
  140.8650   76.3040  222.6970 O   0  0  0  0  0  0  0  0  0  0  0  0
  141.2000   76.7080  220.3950 N   0  0  0  0  0  0  0  0  0  0  0  0
  141.0110   76.2760  219.0150 C   0  0  0  0  0  0  0  0  0  0  0  0
  142.3020   76.6480  218.2760 C   0  0  0  0  0  0  0  0  0  0  0  0
  142.4160   78.1540  218.1500 C   0  0  0  0  0  0  0  0  0  0  0  0
  141.7830   78.7780  219.3950 C   0  0  0  0  0  0  0  0  0  0  0  0
  142.0600   77.8690  220.5860 C   0  0  1  0  0  0  0  0  0  0  0  0
  141.6990   78.6530  221.7940 C   0  0  0  0  0  0  0  0  0  0  0  0
  142.4750   79.4780  222.5180 N   0  0  0  0  0  0  0  0  0  0  0  0
  141.7670   80.0040  223.5500 C   0  0  0  0  0  0  0  0  0  0  0  0
  140.4890   79.4750  223.4550 C   0  0  0  0  0  0  0  0  0  0  0  0
  140.4790   78.6660  222.3890 N   0  0  0  0  0  0  0  0  0  0  0  0
  140.2260   71.8960  223.2750 C   0  0  0  0  0  0  0  0  0  0  0  0
  139.6730   70.6660  222.9810 C   0  0  0  0  0  0  0  0  0  0  0  0
  139.5790   69.6570  223.9340 C   0  0  0  0  0  0  0  0  0  0  0  0
  140.0700   69.9630  225.1870 C   0  0  0  0  0  0  0  0  0  0  0  0
  140.0280   69.0300  226.2230 C   0  0  0  0  0  0  0  0  0  0  0  0
  140.5280   69.3510  227.4860 C   0  0  0  0  0  0  0  0  0  0  0  0
  140.4530   68.1430  228.7530 Cl  0  0  0  0  0  0  0  0  0  0  0  0
  141.0680   70.6030  227.7070 C   0  0  0  0  0  0  0  0  0  0  0  0
  141.1190   71.5460  226.6930 C   0  0  0  0  0  0  0  0  0  0  0  0
  140.6150   71.2060  225.4390 C   0  0  0  0  0  0  0  0  0  0  0  0
  140.6980   72.1740  224.4990 N   0  0  0  0  0  0  0  0  0  0  0  0
  138.7620   74.2040  223.0440 H   0  0  0  0  0  0  0  0  0  0  0  0
  139.8875   74.4710  220.2807 H   0  0  0  0  0  0  0  0  0  0  0  0
  138.6095   75.5033  221.0499 H   0  0  0  0  0  0  0  0  0  0  0  0
  140.8464   75.1892  218.9737 H   0  0  0  0  0  0  0  0  0  0  0  0
  140.1326   76.7560  218.5589 H   0  0  0  0  0  0  0  0  0  0  0  0
  143.1661   76.2637  218.8378 H   0  0  0  0  0  0  0  0  0  0  0  0
  142.2811   76.2036  217.2700 H   0  0  0  0  0  0  0  0  0  0  0  0
  143.4748   78.4446  218.0832 H   0  0  0  0  0  0  0  0  0  0  0  0
  141.9020   78.5031  217.2423 H   0  0  0  0  0  0  0  0  0  0  0  0
  142.2212   79.7706  219.5761 H   0  0  0  0  0  0  0  0  0  0  0  0
  140.6983   78.8895  219.2505 H   0  0  0  0  0  0  0  0  0  0  0  0
  143.1022   77.5322  220.6877 H   0  0  0  0  0  0  0  0  0  0  0  0
  142.1341   80.7093  224.3101 H   0  0  0  0  0  0  0  0  0  0  0  0
  139.6437   79.6811  224.1281 H   0  0  0  0  0  0  0  0  0  0  0  0
  139.6440   78.1180  222.0590 H   0  0  0  0  0  0  0  0  0  0  0  0
  139.2961   70.4784  221.9648 H   0  0  0  0  0  0  0  0  0  0  0  0
  139.1401   68.6752  223.7030 H   0  0  0  0  0  0  0  0  0  0  0  0
  139.5976   68.0338  226.0433 H   0  0  0  0  0  0  0  0  0  0  0  0
  141.4632   70.8550  228.7021 H   0  0  0  0  0  0  0  0  0  0  0  0
  141.5484   72.5424  226.8741 H   0  0  0  0  0  0  0  0  0  0  0  0
  1  2  2  0
  2  3  1  0
  3  4  1  0
  4  5  1  0
  5  6  2  0
  5  7  1  0
  7  8  1  0
  8  9  1  0
  9 10  1  0
 10 11  1  0
 11 12  1  0
 12 13  1  0
 13 14  2  0
 14 15  1  0
 15 16  2  0
 16 17  1  0
  2 18  1  0
 18 19  2  0
 19 20  1  0
 20 21  2  0
 21 22  1  0
 22 23  2  0
 23 24  1  0
 23 25  1  0
 25 26  2  0
 26 27  1  0
 27 28  2  0
 12  7  1  0
 17 13  1  0
 28 18  1  0
 27 21  1  0
  3 29  1  0
  4 30  1  0
  4 31  1  0
  8 32  1  0
  8 33  1  0
  9 34  1  0
  9 35  1  0
 10 36  1  0
 10 37  1  0
 11 38  1  0
 11 39  1  0
 12 40  1  1
 15 41  1  0
 16 42  1  0
 17 43  1  0
 19 44  1  0
 20 45  1  0
 22 46  1  0
 25 47  1  0
 26 48  1  0
M  END
>  <smiles>  (28) 
O=C(NCC(=O)N1CCCC[C@H]1c1ncc[nH]1)c1ccc2cc(Cl)ccc2n1

>  <score_type>  (28) 
oracle

>  <origin>  (28) 
autodockgpu

>  <m_score__min__energy>  (28) 
-7.8799999999999999

>  <m_primary>  (28) 
energy

>  <rmsd>  (28) 
1.855112748734113

>  <m_score__min__rmsd>  (28) 
1.855112748734113

>  <meeko>  (28) 
{"free_energy": -7.88, "intermolecular_energy": -9.37, "internal_energy": -1.3, "cluster_size": 2, "cluster_id": 2, "rank_in_cluster": 1}

>  <energy>  (28) 
-7.34

>  <cluster_rmsd>  (28) 
0.0

>  <cluster>  (28) 
5

$$$$

     RDKit          3D

 48 51  0  0  0  0  0  0  0  0999 V2000
  136.2460   77.5350  222.3500 O   0  0  0  0  0  0  0  0  0  0  0  0
  136.7330   76.4720  222.8520 C   0  0  0  0  0  0  0  0  0  0  0  0
  138.1240   76.2060  222.6800 N   0  0  0  0  0  0  0  0  0  0  0  0
  138.8860   77.1880  221.9340 C   0  0  0  0  0  0  0  0  0  0  0  0
  140.3130   77.2020  222.3410 C   0  0  0  0  0  0  0  0  0  0  0  0
  140.9350   76.1140  222.4360 O   0  0  0  0  0  0  0  0  0  0  0  0
  140.9010   78.4700  222.6010 N   0  0  0  0  0  0  0  0  0  0  0  0
  141.0760   78.9960  223.9500 C   0  0  0  0  0  0  0  0  0  0  0  0
  140.9850   80.5220  223.8220 C   0  0  0  0  0  0  0  0  0  0  0  0
  142.1960   81.0570  223.0860 C   0  0  0  0  0  0  0  0  0  0  0  0
  142.6200   80.0100  222.0540 C   0  0  0  0  0  0  0  0  0  0  0  0
  141.3690   79.3250  221.5180 C   0  0  1  0  0  0  0  0  0  0  0  0
  141.8020   78.5520  220.3270 C   0  0  0  0  0  0  0  0  0  0  0  0
  141.7160   78.8950  219.0300 N   0  0  0  0  0  0  0  0  0  0  0  0
  142.2250   77.9100  218.2490 C   0  0  0  0  0  0  0  0  0  0  0  0
  142.6460   76.9080  219.1100 C   0  0  0  0  0  0  0  0  0  0  0  0
  142.3790   77.3230  220.3530 N   0  0  0  0  0  0  0  0  0  0  0  0
  135.8890   75.5390  223.5880 C   0  0  0  0  0  0  0  0  0  0  0  0
  135.8950   74.2060  223.2290 C   0  0  0  0  0  0  0  0  0  0  0  0
  135.1130   73.2640  223.8890 C   0  0  0  0  0  0  0  0  0  0  0  0
  134.3340   73.7450  224.9230 C   0  0  0  0  0  0  0  0  0  0  0  0
  133.5090   72.8930  225.6570 C   0  0  0  0  0  0  0  0  0  0  0  0
  132.7250   73.3900  226.7000 C   0  0  0  0  0  0  0  0  0  0  0  0
  131.7060   72.2790  227.5920 Cl  0  0  0  0  0  0  0  0  0  0  0  0
  132.7710   74.7380  227.0030 C   0  0  0  0  0  0  0  0  0  0  0  0
  133.5830   75.6020  226.2870 C   0  0  0  0  0  0  0  0  0  0  0  0
  134.3570   75.0860  225.2500 C   0  0  0  0  0  0  0  0  0  0  0  0
  135.1240   75.9860  224.5950 N   0  0  0  0  0  0  0  0  0  0  0  0
  138.5760   75.3530  223.0680 H   0  0  0  0  0  0  0  0  0  0  0  0
  138.8236   76.9482  220.8623 H   0  0  0  0  0  0  0  0  0  0  0  0
  138.4610   78.1811  222.1418 H   0  0  0  0  0  0  0  0  0  0  0  0
  140.2831   78.6198  224.6131 H   0  0  0  0  0  0  0  0  0  0  0  0
  142.0377   78.6839  224.3833 H   0  0  0  0  0  0  0  0  0  0  0  0
  140.0745   80.7864  223.2644 H   0  0  0  0  0  0  0  0  0  0  0  0
  140.9507   80.9657  224.8280 H   0  0  0  0  0  0  0  0  0  0  0  0
  141.9392   81.9988  222.5790 H   0  0  0  0  0  0  0  0  0  0  0  0
  143.0168   81.2539  223.7913 H   0  0  0  0  0  0  0  0  0  0  0  0
  143.1577   80.4993  221.2285 H   0  0  0  0  0  0  0  0  0  0  0  0
  143.2850   79.2685  222.5208 H   0  0  0  0  0  0  0  0  0  0  0  0
  140.5554   80.0013  221.2171 H   0  0  0  0  0  0  0  0  0  0  0  0
  142.2908   77.9067  217.1510 H   0  0  0  0  0  0  0  0  0  0  0  0
  143.1113   75.9529  218.8248 H   0  0  0  0  0  0  0  0  0  0  0  0
  142.5860   76.7750  221.2270 H   0  0  0  0  0  0  0  0  0  0  0  0
  136.5366   73.8795  222.3972 H   0  0  0  0  0  0  0  0  0  0  0  0
  135.1149   72.2013  223.6049 H   0  0  0  0  0  0  0  0  0  0  0  0
  133.4757   71.8211  225.4123 H   0  0  0  0  0  0  0  0  0  0  0  0
  132.1537   75.1302  227.8247 H   0  0  0  0  0  0  0  0  0  0  0  0
  133.6160   76.6738  226.5322 H   0  0  0  0  0  0  0  0  0  0  0  0
  1  2  2  0
  2  3  1  0
  3  4  1  0
  4  5  1  0
  5  6  2  0
  5  7  1  0
  7  8  1  0
  8  9  1  0
  9 10  1  0
 10 11  1  0
 11 12  1  0
 12 13  1  0
 13 14  2  0
 14 15  1  0
 15 16  2  0
 16 17  1  0
  2 18  1  0
 18 19  2  0
 19 20  1  0
 20 21  2  0
 21 22  1  0
 22 23  2  0
 23 24  1  0
 23 25  1  0
 25 26  2  0
 26 27  1  0
 27 28  2  0
 12  7  1  0
 17 13  1  0
 28 18  1  0
 27 21  1  0
  3 29  1  0
  4 30  1  0
  4 31  1  0
  8 32  1  0
  8 33  1  0
  9 34  1  0
  9 35  1  0
 10 36  1  0
 10 37  1  0
 11 38  1  0
 11 39  1  0
 12 40  1  6
 15 41  1  0
 16 42  1  0
 17 43  1  0
 19 44  1  0
 20 45  1  0
 22 46  1  0
 25 47  1  0
 26 48  1  0
M  END
>  <smiles>  (29) 
O=C(NCC(=O)N1CCCC[C@H]1c1ncc[nH]1)c1ccc2cc(Cl)ccc2n1

>  <score_type>  (29) 
oracle

>  <origin>  (29) 
autodockgpu

>  <m_score__min__energy>  (29) 
-7.8799999999999999

>  <m_primary>  (29) 
energy

>  <rmsd>  (29) 
6.180837199519966

>  <m_score__min__rmsd>  (29) 
6.180837199519966

>  <meeko>  (29) 
{"free_energy": -7.21, "intermolecular_energy": -8.7, "internal_energy": -2.04, "cluster_size": 1, "cluster_id": 6, "rank_in_cluster": 1}

>  <energy>  (29) 
-7.33

>  <cluster_rmsd>  (29) 
0.16

>  <cluster>  (29) 
5

$$$$

     RDKit          3D

 48 51  0  0  0  0  0  0  0  0999 V2000
  140.6040   72.0850  220.8620 O   0  0  0  0  0  0  0  0  0  0  0  0
  140.2050   72.4650  222.0090 C   0  0  0  0  0  0  0  0  0  0  0  0
  139.8120   73.8240  222.1830 N   0  0  0  0  0  0  0  0  0  0  0  0
  139.8990   74.6810  221.0170 C   0  0  0  0  0  0  0  0  0  0  0  0
  140.8960   75.7640  221.2020 C   0  0  0  0  0  0  0  0  0  0  0  0
  141.2660   76.0650  222.3650 O   0  0  0  0  0  0  0  0  0  0  0  0
  141.3830   76.4050  220.0310 N   0  0  0  0  0  0  0  0  0  0  0  0
  140.9860   77.7540  219.6470 C   0  0  0  0  0  0  0  0  0  0  0  0
  141.0440   77.7910  218.1140 C   0  0  0  0  0  0  0  0  0  0  0  0
  142.4830   77.7120  217.6450 C   0  0  0  0  0  0  0  0  0  0  0  0
  143.2520   76.8360  218.6350 C   0  0  0  0  0  0  0  0  0  0  0  0
  142.3210   75.7390  219.1360 C   0  0  1  0  0  0  0  0  0  0  0  0
  143.1840   74.7580  219.8420 C   0  0  0  0  0  0  0  0  0  0  0  0
  144.4580   74.9010  220.2420 N   0  0  0  0  0  0  0  0  0  0  0  0
  144.8890   73.7690  220.8540 C   0  0  0  0  0  0  0  0  0  0  0  0
  143.8240   72.8830  220.8280 C   0  0  0  0  0  0  0  0  0  0  0  0
  142.8120   73.5060  220.2130 N   0  0  0  0  0  0  0  0  0  0  0  0
  140.1510   71.5320  223.1270 C   0  0  0  0  0  0  0  0  0  0  0  0
  139.5790   70.2900  222.9340 C   0  0  0  0  0  0  0  0  0  0  0  0
  139.4950   69.3530  223.9580 C   0  0  0  0  0  0  0  0  0  0  0  0
  140.0170   69.7420  225.1760 C   0  0  0  0  0  0  0  0  0  0  0  0
  139.9890   68.8850  226.2760 C   0  0  0  0  0  0  0  0  0  0  0  0
  140.5200   69.2890  227.5020 C   0  0  0  0  0  0  0  0  0  0  0  0
  140.4600   68.1750  228.8540 Cl  0  0  0  0  0  0  0  0  0  0  0  0
  141.0770   70.5480  227.6210 C   0  0  0  0  0  0  0  0  0  0  0  0
  141.1160   71.4150  226.5420 C   0  0  0  0  0  0  0  0  0  0  0  0
  140.5800   70.9930  225.3270 C   0  0  0  0  0  0  0  0  0  0  0  0
  140.6530   71.8900  224.3180 N   0  0  0  0  0  0  0  0  0  0  0  0
  139.4780   74.1910  223.0980 H   0  0  0  0  0  0  0  0  0  0  0  0
  140.1916   74.0722  220.1488 H   0  0  0  0  0  0  0  0  0  0  0  0
  138.9145   75.1459  220.8603 H   0  0  0  0  0  0  0  0  0  0  0  0
  139.9646   77.9659  219.9962 H   0  0  0  0  0  0  0  0  0  0  0  0
  141.6468   78.5114  220.0939 H   0  0  0  0  0  0  0  0  0  0  0  0
  140.4817   76.9372  217.7080 H   0  0  0  0  0  0  0  0  0  0  0  0
  140.6012   78.7335  217.7597 H   0  0  0  0  0  0  0  0  0  0  0  0
  142.5248   77.2660  216.6404 H   0  0  0  0  0  0  0  0  0  0  0  0
  142.9266   78.7175  217.5978 H   0  0  0  0  0  0  0  0  0  0  0  0
  144.1209   76.3847  218.1336 H   0  0  0  0  0  0  0  0  0  0  0  0
  143.6057   77.4446  219.4803 H   0  0  0  0  0  0  0  0  0  0  0  0
  141.7573   75.2084  218.3545 H   0  0  0  0  0  0  0  0  0  0  0  0
  145.8853   73.5904  221.2848 H   0  0  0  0  0  0  0  0  0  0  0  0
  143.8126   71.8614  221.2356 H   0  0  0  0  0  0  0  0  0  0  0  0
  141.8630   73.0850  220.0420 H   0  0  0  0  0  0  0  0  0  0  0  0
  139.1784   70.0346  221.9419 H   0  0  0  0  0  0  0  0  0  0  0  0
  139.0406   68.3626  223.8072 H   0  0  0  0  0  0  0  0  0  0  0  0
  139.5452   67.8834  226.1767 H   0  0  0  0  0  0  0  0  0  0  0  0
  141.4956   70.8662  228.5872 H   0  0  0  0  0  0  0  0  0  0  0  0
  141.5609   72.4161  226.6419 H   0  0  0  0  0  0  0  0  0  0  0  0
  1  2  2  0
  2  3  1  0
  3  4  1  0
  4  5  1  0
  5  6  2  0
  5  7  1  0
  7  8  1  0
  8  9  1  0
  9 10  1  0
 10 11  1  0
 11 12  1  0
 12 13  1  0
 13 14  2  0
 14 15  1  0
 15 16  2  0
 16 17  1  0
  2 18  1  0
 18 19  2  0
 19 20  1  0
 20 21  2  0
 21 22  1  0
 22 23  2  0
 23 24  1  0
 23 25  1  0
 25 26  2  0
 26 27  1  0
 27 28  2  0
 12  7  1  0
 17 13  1  0
 28 18  1  0
 27 21  1  0
  3 29  1  0
  4 30  1  0
  4 31  1  0
  8 32  1  0
  8 33  1  0
  9 34  1  0
  9 35  1  0
 10 36  1  0
 10 37  1  0
 11 38  1  0
 11 39  1  0
 12 40  1  6
 15 41  1  0
 16 42  1  0
 17 43  1  0
 19 44  1  0
 20 45  1  0
 22 46  1  0
 25 47  1  0
 26 48  1  0
M  END
>  <smiles>  (30) 
O=C(NCC(=O)N1CCCC[C@H]1c1ncc[nH]1)c1ccc2cc(Cl)ccc2n1

>  <score_type>  (30) 
oracle

>  <origin>  (30) 
autodockgpu

>  <m_score__min__energy>  (30) 
-7.8799999999999999

>  <m_primary>  (30) 
energy

>  <rmsd>  (30) 
3.254284813967988

>  <m_score__min__rmsd>  (30) 
3.254284813967988

>  <meeko>  (30) 
{"free_energy": -7.38, "intermolecular_energy": -8.87, "internal_energy": -2.46, "cluster_size": 10, "cluster_id": 4, "rank_in_cluster": 2}

>  <energy>  (30) 
-7.32

>  <cluster_rmsd>  (30) 
0.13

>  <cluster>  (30) 
5

$$$$

     RDKit          3D

 48 51  0  0  0  0  0  0  0  0999 V2000
  138.9710   70.6470  221.1600 O   0  0  0  0  0  0  0  0  0  0  0  0
  139.0160   71.4560  222.1420 C   0  0  0  0  0  0  0  0  0  0  0  0
  138.5320   72.7840  221.9580 N   0  0  0  0  0  0  0  0  0  0  0  0
  138.0180   73.1140  220.6440 C   0  0  0  0  0  0  0  0  0  0  0  0
  139.0400   73.7860  219.8040 C   0  0  0  0  0  0  0  0  0  0  0  0
  138.6700   74.6220  218.9410 O   0  0  0  0  0  0  0  0  0  0  0  0
  140.3990   73.4380  220.0310 N   0  0  0  0  0  0  0  0  0  0  0  0
  141.1670   72.6120  219.1070 C   0  0  0  0  0  0  0  0  0  0  0  0
  142.1880   71.8560  219.9660 C   0  0  0  0  0  0  0  0  0  0  0  0
  143.2260   72.8170  220.5100 C   0  0  0  0  0  0  0  0  0  0  0  0
  142.5380   74.1600  220.7590 C   0  0  0  0  0  0  0  0  0  0  0  0
  141.1100   73.8940  221.2190 C   0  0  1  0  0  0  0  0  0  0  0  0
  140.5940   75.1900  221.7300 C   0  0  0  0  0  0  0  0  0  0  0  0
  139.4220   75.4420  222.3370 N   0  0  0  0  0  0  0  0  0  0  0  0
  139.3300   76.7590  222.6510 C   0  0  0  0  0  0  0  0  0  0  0  0
  140.5070   77.3470  222.2150 C   0  0  0  0  0  0  0  0  0  0  0  0
  141.2470   76.3780  221.6650 N   0  0  0  0  0  0  0  0  0  0  0  0
  139.5510   71.0370  223.4310 C   0  0  0  0  0  0  0  0  0  0  0  0
  140.3760   71.8990  224.1240 C   0  0  0  0  0  0  0  0  0  0  0  0
  140.9210   71.5620  225.3580 C   0  0  0  0  0  0  0  0  0  0  0  0
  140.5860   70.3140  225.8450 C   0  0  0  0  0  0  0  0  0  0  0  0
  141.0730   69.8670  227.0720 C   0  0  0  0  0  0  0  0  0  0  0  0
  140.7270   68.6030  227.5540 C   0  0  0  0  0  0  0  0  0  0  0  0
  141.3660   68.0880  229.1030 Cl  0  0  0  0  0  0  0  0  0  0  0  0
  139.8960   67.7930  226.8050 C   0  0  0  0  0  0  0  0  0  0  0  0
  139.4010   68.2160  225.5820 C   0  0  0  0  0  0  0  0  0  0  0  0
  139.7570   69.4810  225.1190 C   0  0  0  0  0  0  0  0  0  0  0  0
  139.2380   69.8280  223.9210 N   0  0  0  0  0  0  0  0  0  0  0  0
  138.5440   73.4880  222.7250 H   0  0  0  0  0  0  0  0  0  0  0  0
  137.6993   72.1877  220.1437 H   0  0  0  0  0  0  0  0  0  0  0  0
  137.1726   73.8060  220.7720 H   0  0  0  0  0  0  0  0  0  0  0  0
  140.5054   71.9035  218.5871 H   0  0  0  0  0  0  0  0  0  0  0  0
  141.6612   73.2217  218.3363 H   0  0  0  0  0  0  0  0  0  0  0  0
  141.6683   71.3693  220.8045 H   0  0  0  0  0  0  0  0  0  0  0  0
  142.6894   71.0988  219.3454 H   0  0  0  0  0  0  0  0  0  0  0  0
  143.6382   72.4277  221.4526 H   0  0  0  0  0  0  0  0  0  0  0  0
  144.0512   72.9363  219.7925 H   0  0  0  0  0  0  0  0  0  0  0  0
  143.0809   74.7163  221.5373 H   0  0  0  0  0  0  0  0  0  0  0  0
  142.5312   74.7569  219.8351 H   0  0  0  0  0  0  0  0  0  0  0  0
  141.0051   73.1399  222.0129 H   0  0  0  0  0  0  0  0  0  0  0  0
  138.4887   77.2602  223.1519 H   0  0  0  0  0  0  0  0  0  0  0  0
  140.7805   78.4087  222.3043 H   0  0  0  0  0  0  0  0  0  0  0  0
  142.2010   76.5170  221.2430 H   0  0  0  0  0  0  0  0  0  0  0  0
  140.6093   72.8814  223.6875 H   0  0  0  0  0  0  0  0  0  0  0  0
  141.5788   72.2476  225.9124 H   0  0  0  0  0  0  0  0  0  0  0  0
  141.7350   70.5149  227.6653 H   0  0  0  0  0  0  0  0  0  0  0  0
  139.6231   66.7974  227.1850 H   0  0  0  0  0  0  0  0  0  0  0  0
  138.7405   67.5665  224.9888 H   0  0  0  0  0  0  0  0  0  0  0  0
  1  2  2  0
  2  3  1  0
  3  4  1  0
  4  5  1  0
  5  6  2  0
  5  7  1  0
  7  8  1  0
  8  9  1  0
  9 10  1  0
 10 11  1  0
 11 12  1  0
 12 13  1  0
 13 14  2  0
 14 15  1  0
 15 16  2  0
 16 17  1  0
  2 18  1  0
 18 19  2  0
 19 20  1  0
 20 21  2  0
 21 22  1  0
 22 23  2  0
 23 24  1  0
 23 25  1  0
 25 26  2  0
 26 27  1  0
 27 28  2  0
 12  7  1  0
 17 13  1  0
 28 18  1  0
 27 21  1  0
  3 29  1  0
  4 30  1  0
  4 31  1  0
  8 32  1  0
  8 33  1  0
  9 34  1  0
  9 35  1  0
 10 36  1  0
 10 37  1  0
 11 38  1  0
 11 39  1  0
 12 40  1  1
 15 41  1  0
 16 42  1  0
 17 43  1  0
 19 44  1  0
 20 45  1  0
 22 46  1  0
 25 47  1  0
 26 48  1  0
M  END
>  <smiles>  (31) 
O=C(NCC(=O)N1CCCC[C@H]1c1ncc[nH]1)c1ccc2cc(Cl)ccc2n1

>  <score_type>  (31) 
oracle

>  <origin>  (31) 
autodockgpu

>  <m_score__min__energy>  (31) 
-7.8799999999999999

>  <m_primary>  (31) 
energy

>  <rmsd>  (31) 
3.2666428207629035

>  <m_score__min__rmsd>  (31) 
3.2666428207629035

>  <meeko>  (31) 
{"free_energy": -7.34, "intermolecular_energy": -8.84, "internal_energy": -2.55, "cluster_size": 7, "cluster_id": 5, "rank_in_cluster": 1}

>  <energy>  (31) 
-7.32

>  <cluster_rmsd>  (31) 
0.15

>  <cluster>  (31) 
5

$$$$

     RDKit          3D

 48 51  0  0  0  0  0  0  0  0999 V2000
  140.4460   74.1280  222.1450 O   0  0  0  0  0  0  0  0  0  0  0  0
  140.2750   72.8890  221.9140 C   0  0  0  0  0  0  0  0  0  0  0  0
  140.1430   72.4550  220.5620 N   0  0  0  0  0  0  0  0  0  0  0  0
  140.2150   73.4800  219.5400 C   0  0  0  0  0  0  0  0  0  0  0  0
  141.4350   73.3430  218.7070 C   0  0  0  0  0  0  0  0  0  0  0  0
  141.3260   73.3540  217.4540 O   0  0  0  0  0  0  0  0  0  0  0  0
  142.6750   73.2070  219.3870 N   0  0  0  0  0  0  0  0  0  0  0  0
  143.5840   72.0910  219.1550 C   0  0  0  0  0  0  0  0  0  0  0  0
  144.3190   71.8630  220.4810 C   0  0  0  0  0  0  0  0  0  0  0  0
  145.2600   73.0180  220.7610 C   0  0  0  0  0  0  0  0  0  0  0  0
  144.6230   74.2890  220.1990 C   0  0  0  0  0  0  0  0  0  0  0  0
  143.1120   74.1900  220.3700 C   0  0  1  0  0  0  0  0  0  0  0  0
  142.5770   75.5480  220.0950 C   0  0  0  0  0  0  0  0  0  0  0  0
  142.7060   76.2870  218.9810 N   0  0  0  0  0  0  0  0  0  0  0  0
  142.0680   77.4760  219.1290 C   0  0  0  0  0  0  0  0  0  0  0  0
  141.5180   77.4660  220.4020 C   0  0  0  0  0  0  0  0  0  0  0  0
  141.8400   76.2930  220.9580 N   0  0  0  0  0  0  0  0  0  0  0  0
  140.2150   71.9270  223.0070 C   0  0  0  0  0  0  0  0  0  0  0  0
  139.6700   70.6810  222.7710 C   0  0  0  0  0  0  0  0  0  0  0  0
  139.5820   69.7160  223.7700 C   0  0  0  0  0  0  0  0  0  0  0  0
  140.0720   70.0840  225.0080 C   0  0  0  0  0  0  0  0  0  0  0  0
  140.0370   69.1990  226.0850 C   0  0  0  0  0  0  0  0  0  0  0  0
  140.5350   69.5810  227.3320 C   0  0  0  0  0  0  0  0  0  0  0  0
  140.4670   68.4330  228.6540 Cl  0  0  0  0  0  0  0  0  0  0  0  0
  141.0660   70.8470  227.4940 C   0  0  0  0  0  0  0  0  0  0  0  0
  141.1110   71.7420  226.4380 C   0  0  0  0  0  0  0  0  0  0  0  0
  140.6090   71.3410  225.2010 C   0  0  0  0  0  0  0  0  0  0  0  0
  140.6860   72.2640  224.2170 N   0  0  0  0  0  0  0  0  0  0  0  0
  140.0010   71.4540  220.3140 H   0  0  0  0  0  0  0  0  0  0  0  0
  139.3302   73.3989  218.8915 H   0  0  0  0  0  0  0  0  0  0  0  0
  140.2506   74.4592  220.0399 H   0  0  0  0  0  0  0  0  0  0  0  0
  143.0194   71.1907  218.8711 H   0  0  0  0  0  0  0  0  0  0  0  0
  144.2865   72.3066  218.3365 H   0  0  0  0  0  0  0  0  0  0  0  0
  143.5840   71.7869  221.2959 H   0  0  0  0  0  0  0  0  0  0  0  0
  144.9016   70.9324  220.4140 H   0  0  0  0  0  0  0  0  0  0  0  0
  145.4104   73.1232  221.8456 H   0  0  0  0  0  0  0  0  0  0  0  0
  146.2379   72.8387  220.2902 H   0  0  0  0  0  0  0  0  0  0  0  0
  145.0013   75.1660  220.7447 H   0  0  0  0  0  0  0  0  0  0  0  0
  144.8751   74.3972  219.1338 H   0  0  0  0  0  0  0  0  0  0  0  0
  142.7716   73.8771  221.3681 H   0  0  0  0  0  0  0  0  0  0  0  0
  142.0007   78.2856  218.3874 H   0  0  0  0  0  0  0  0  0  0  0  0
  140.9286   78.2703  220.8664 H   0  0  0  0  0  0  0  0  0  0  0  0
  141.5630   75.9920  221.9270 H   0  0  0  0  0  0  0  0  0  0  0  0
  139.2945   70.4440  221.7646 H   0  0  0  0  0  0  0  0  0  0  0  0
  139.1491   68.7218  223.5852 H   0  0  0  0  0  0  0  0  0  0  0  0
  139.6139   68.1925  225.9511 H   0  0  0  0  0  0  0  0  0  0  0  0
  141.4587   71.1481  228.4764 H   0  0  0  0  0  0  0  0  0  0  0  0
  141.5341   72.7484  226.5727 H   0  0  0  0  0  0  0  0  0  0  0  0
  1  2  2  0
  2  3  1  0
  3  4  1  0
  4  5  1  0
  5  6  2  0
  5  7  1  0
  7  8  1  0
  8  9  1  0
  9 10  1  0
 10 11  1  0
 11 12  1  0
 12 13  1  0
 13 14  2  0
 14 15  1  0
 15 16  2  0
 16 17  1  0
  2 18  1  0
 18 19  2  0
 19 20  1  0
 20 21  2  0
 21 22  1  0
 22 23  2  0
 23 24  1  0
 23 25  1  0
 25 26  2  0
 26 27  1  0
 27 28  2  0
 12  7  1  0
 17 13  1  0
 28 18  1  0
 27 21  1  0
  3 29  1  0
  4 30  1  0
  4 31  1  0
  8 32  1  0
  8 33  1  0
  9 34  1  0
  9 35  1  0
 10 36  1  0
 10 37  1  0
 11 38  1  0
 11 39  1  0
 12 40  1  1
 15 41  1  0
 16 42  1  0
 17 43  1  0
 19 44  1  0
 20 45  1  0
 22 46  1  0
 25 47  1  0
 26 48  1  0
M  END
>  <smiles>  (32) 
O=C(NCC(=O)N1CCCC[C@H]1c1ncc[nH]1)c1ccc2cc(Cl)ccc2n1

>  <score_type>  (32) 
oracle

>  <origin>  (32) 
autodockgpu

>  <m_score__min__energy>  (32) 
-7.8799999999999999

>  <m_primary>  (32) 
energy

>  <rmsd>  (32) 
3.5037059151372336

>  <m_score__min__rmsd>  (32) 
3.5037059151372336

>  <meeko>  (32) 
{"free_energy": -7.37, "intermolecular_energy": -8.86, "internal_energy": -2.41, "cluster_size": 7, "cluster_id": 3, "rank_in_cluster": 2}

>  <energy>  (32) 
-7.32

>  <cluster_rmsd>  (32) 
0.17

>  <cluster>  (32) 
5

$$$$

     RDKit          3D

 48 51  0  0  0  0  0  0  0  0999 V2000
  141.0460   76.5740  222.7410 O   0  0  0  0  0  0  0  0  0  0  0  0
  140.6150   75.8380  221.7970 C   0  0  0  0  0  0  0  0  0  0  0  0
  139.3480   76.1390  221.2150 N   0  0  0  0  0  0  0  0  0  0  0  0
  138.6390   77.2820  221.7560 C   0  0  0  0  0  0  0  0  0  0  0  0
  139.1790   78.5620  221.2360 C   0  0  0  0  0  0  0  0  0  0  0  0
  138.7410   79.0160  220.1480 O   0  0  0  0  0  0  0  0  0  0  0  0
  140.1760   79.2100  222.0140 N   0  0  0  0  0  0  0  0  0  0  0  0
  140.0360   79.4360  223.4480 C   0  0  0  0  0  0  0  0  0  0  0  0
  140.8140   80.7220  223.7510 C   0  0  0  0  0  0  0  0  0  0  0  0
  142.3020   80.4820  223.5870 C   0  0  0  0  0  0  0  0  0  0  0  0
  142.4920   79.4620  222.4630 C   0  0  0  0  0  0  0  0  0  0  0  0
  141.4130   79.6930  221.4120 C   0  0  1  0  0  0  0  0  0  0  0  0
  141.8180   78.8980  220.2250 C   0  0  0  0  0  0  0  0  0  0  0  0
  141.8160   79.2650  218.9320 N   0  0  0  0  0  0  0  0  0  0  0  0
  142.2600   78.2460  218.1540 C   0  0  0  0  0  0  0  0  0  0  0  0
  142.5500   77.1980  219.0130 C   0  0  0  0  0  0  0  0  0  0  0  0
  142.2740   77.6200  220.2520 N   0  0  0  0  0  0  0  0  0  0  0  0
  141.3980   74.7060  221.3160 C   0  0  0  0  0  0  0  0  0  0  0  0
  140.8230   73.4510  221.3090 C   0  0  0  0  0  0  0  0  0  0  0  0
  141.5130   72.3290  220.8630 C   0  0  0  0  0  0  0  0  0  0  0  0
  142.8060   72.5490  220.4310 C   0  0  0  0  0  0  0  0  0  0  0  0
  143.5950   71.4990  219.9620 C   0  0  0  0  0  0  0  0  0  0  0  0
  144.9020   71.7340  219.5270 C   0  0  0  0  0  0  0  0  0  0  0  0
  145.8520   70.3810  218.9480 Cl  0  0  0  0  0  0  0  0  0  0  0  0
  145.4110   73.0180  219.5640 C   0  0  0  0  0  0  0  0  0  0  0  0
  144.6450   74.0760  220.0250 C   0  0  0  0  0  0  0  0  0  0  0  0
  143.3440   73.8210  220.4550 C   0  0  0  0  0  0  0  0  0  0  0  0
  142.6550   74.8990  220.8910 N   0  0  0  0  0  0  0  0  0  0  0  0
  138.9460   75.5710  220.4410 H   0  0  0  0  0  0  0  0  0  0  0  0
  137.5769   77.2054  221.4801 H   0  0  0  0  0  0  0  0  0  0  0  0
  138.7651   77.2766  222.8487 H   0  0  0  0  0  0  0  0  0  0  0  0
  138.9757   79.5591  223.7138 H   0  0  0  0  0  0  0  0  0  0  0  0
  140.4213   78.5855  224.0295 H   0  0  0  0  0  0  0  0  0  0  0  0
  140.4943   81.5128  223.0564 H   0  0  0  0  0  0  0  0  0  0  0  0
  140.6111   81.0296  224.7875 H   0  0  0  0  0  0  0  0  0  0  0  0
  142.8061   81.4242  223.3260 H   0  0  0  0  0  0  0  0  0  0  0  0
  142.7351   80.1042  224.5249 H   0  0  0  0  0  0  0  0  0  0  0  0
  143.4856   79.5910  222.0091 H   0  0  0  0  0  0  0  0  0  0  0  0
  142.4145   78.4407  222.8642 H   0  0  0  0  0  0  0  0  0  0  0  0
  141.2770   80.7392  221.1005 H   0  0  0  0  0  0  0  0  0  0  0  0
  142.3682   78.2508  217.0594 H   0  0  0  0  0  0  0  0  0  0  0  0
  142.9343   76.2070  218.7297 H   0  0  0  0  0  0  0  0  0  0  0  0
  142.3950   77.0430  221.1240 H   0  0  0  0  0  0  0  0  0  0  0  0
  139.7892   73.3351  221.6665 H   0  0  0  0  0  0  0  0  0  0  0  0
  141.0570   71.3280  220.8549 H   0  0  0  0  0  0  0  0  0  0  0  0
  143.1855   70.4784  219.9343 H   0  0  0  0  0  0  0  0  0  0  0  0
  146.4401   73.2028  219.2222 H   0  0  0  0  0  0  0  0  0  0  0  0
  145.0550   75.0964  220.0512 H   0  0  0  0  0  0  0  0  0  0  0  0
  1  2  2  0
  2  3  1  0
  3  4  1  0
  4  5  1  0
  5  6  2  0
  5  7  1  0
  7  8  1  0
  8  9  1  0
  9 10  1  0
 10 11  1  0
 11 12  1  0
 12 13  1  0
 13 14  2  0
 14 15  1  0
 15 16  2  0
 16 17  1  0
  2 18  1  0
 18 19  2  0
 19 20  1  0
 20 21  2  0
 21 22  1  0
 22 23  2  0
 23 24  1  0
 23 25  1  0
 25 26  2  0
 26 27  1  0
 27 28  2  0
 12  7  1  0
 17 13  1  0
 28 18  1  0
 27 21  1  0
  3 29  1  0
  4 30  1  0
  4 31  1  0
  8 32  1  0
  8 33  1  0
  9 34  1  0
  9 35  1  0
 10 36  1  0
 10 37  1  0
 11 38  1  0
 11 39  1  0
 12 40  1  6
 15 41  1  0
 16 42  1  0
 17 43  1  0
 19 44  1  0
 20 45  1  0
 22 46  1  0
 25 47  1  0
 26 48  1  0
M  END
>  <smiles>  (33) 
O=C(NCC(=O)N1CCCC[C@H]1c1ncc[nH]1)c1ccc2cc(Cl)ccc2n1

>  <score_type>  (33) 
oracle

>  <origin>  (33) 
autodockgpu

>  <m_score__min__energy>  (33) 
-7.8799999999999999

>  <m_primary>  (33) 
energy

>  <rmsd>  (33) 
6.162855609084779

>  <m_score__min__rmsd>  (33) 
6.162855609084779

>  <meeko>  (33) 
{"free_energy": -6.42, "intermolecular_energy": -7.91, "internal_energy": -3.26, "cluster_size": 7, "cluster_id": 9, "rank_in_cluster": 7}

>  <energy>  (33) 
-7.32

>  <cluster_rmsd>  (33) 
0.11

>  <cluster>  (33) 
5

$$$$

     RDKit          3D

 48 51  0  0  0  0  0  0  0  0999 V2000
  140.7370   72.6160  220.8990 O   0  0  0  0  0  0  0  0  0  0  0  0
  140.2100   72.9070  222.0200 C   0  0  0  0  0  0  0  0  0  0  0  0
  139.6610   74.2100  222.2030 N   0  0  0  0  0  0  0  0  0  0  0  0
  139.7500   75.1170  221.0760 C   0  0  0  0  0  0  0  0  0  0  0  0
  140.8540   76.0940  221.2400 C   0  0  0  0  0  0  0  0  0  0  0  0
  141.4340   76.1820  222.3520 O   0  0  0  0  0  0  0  0  0  0  0  0
  141.1960   76.8840  220.1090 N   0  0  0  0  0  0  0  0  0  0  0  0
  141.0050   76.4240  218.7390 C   0  0  0  0  0  0  0  0  0  0  0  0
  142.1050   77.0990  217.9110 C   0  0  0  0  0  0  0  0  0  0  0  0
  141.8430   78.5880  217.8110 C   0  0  0  0  0  0  0  0  0  0  0  0
  141.1820   79.0370  219.1150 C   0  0  0  0  0  0  0  0  0  0  0  0
  141.7640   78.2180  220.2600 C   0  0  1  0  0  0  0  0  0  0  0  0
  141.3240   78.8870  221.5100 C   0  0  0  0  0  0  0  0  0  0  0  0
  140.3900   79.8410  221.6640 N   0  0  0  0  0  0  0  0  0  0  0  0
  140.2850   80.1890  222.9710 C   0  0  0  0  0  0  0  0  0  0  0  0
  141.2030   79.4090  223.6570 C   0  0  0  0  0  0  0  0  0  0  0  0
  141.8120   78.6350  222.7520 N   0  0  0  0  0  0  0  0  0  0  0  0
  140.1660   71.9290  223.1010 C   0  0  0  0  0  0  0  0  0  0  0  0
  139.6340   70.6800  222.8490 C   0  0  0  0  0  0  0  0  0  0  0  0
  139.5620   69.7010  223.8350 C   0  0  0  0  0  0  0  0  0  0  0  0
  140.0530   70.0560  225.0750 C   0  0  0  0  0  0  0  0  0  0  0  0
  140.0330   69.1560  226.1410 C   0  0  0  0  0  0  0  0  0  0  0  0
  140.5320   69.5270  227.3910 C   0  0  0  0  0  0  0  0  0  0  0  0
  140.4840   68.3600  228.6970 Cl  0  0  0  0  0  0  0  0  0  0  0  0
  141.0490   70.7960  227.5680 C   0  0  0  0  0  0  0  0  0  0  0  0
  141.0790   71.7060  226.5240 C   0  0  0  0  0  0  0  0  0  0  0  0
  140.5760   71.3170  225.2840 C   0  0  0  0  0  0  0  0  0  0  0  0
  140.6380   72.2550  224.3130 N   0  0  0  0  0  0  0  0  0  0  0  0
  139.2180   74.5030  223.0980 H   0  0  0  0  0  0  0  0  0  0  0  0
  139.9255   74.5319  220.1612 H   0  0  0  0  0  0  0  0  0  0  0  0
  138.8052   75.6767  221.0126 H   0  0  0  0  0  0  0  0  0  0  0  0
  141.1033   75.3297  218.6858 H   0  0  0  0  0  0  0  0  0  0  0  0
  140.0031   76.6794  218.3635 H   0  0  0  0  0  0  0  0  0  0  0  0
  143.0785   76.9328  218.3953 H   0  0  0  0  0  0  0  0  0  0  0  0
  142.1108   76.6661  216.8998 H   0  0  0  0  0  0  0  0  0  0  0  0
  142.7919   79.1258  217.6684 H   0  0  0  0  0  0  0  0  0  0  0  0
  141.1880   78.8054  216.9545 H   0  0  0  0  0  0  0  0  0  0  0  0
  141.3826   80.1053  219.2838 H   0  0  0  0  0  0  0  0  0  0  0  0
  140.0942   78.8842  219.0578 H   0  0  0  0  0  0  0  0  0  0  0  0
  142.8614   78.1428  220.2735 H   0  0  0  0  0  0  0  0  0  0  0  0
  139.6065   80.9405  223.4009 H   0  0  0  0  0  0  0  0  0  0  0  0
  141.3943   79.4238  224.7401 H   0  0  0  0  0  0  0  0  0  0  0  0
  142.5640   77.9320  222.9710 H   0  0  0  0  0  0  0  0  0  0  0  0
  139.2567   70.4527  221.8410 H   0  0  0  0  0  0  0  0  0  0  0  0
  139.1394   68.7047  223.6382 H   0  0  0  0  0  0  0  0  0  0  0  0
  139.6210   68.1465  225.9954 H   0  0  0  0  0  0  0  0  0  0  0  0
  141.4427   71.0881  228.5527 H   0  0  0  0  0  0  0  0  0  0  0  0
  141.4915   72.7151  226.6708 H   0  0  0  0  0  0  0  0  0  0  0  0
  1  2  2  0
  2  3  1  0
  3  4  1  0
  4  5  1  0
  5  6  2  0
  5  7  1  0
  7  8  1  0
  8  9  1  0
  9 10  1  0
 10 11  1  0
 11 12  1  0
 12 13  1  0
 13 14  2  0
 14 15  1  0
 15 16  2  0
 16 17  1  0
  2 18  1  0
 18 19  2  0
 19 20  1  0
 20 21  2  0
 21 22  1  0
 22 23  2  0
 23 24  1  0
 23 25  1  0
 25 26  2  0
 26 27  1  0
 27 28  2  0
 12  7  1  0
 17 13  1  0
 28 18  1  0
 27 21  1  0
  3 29  1  0
  4 30  1  0
  4 31  1  0
  8 32  1  0
  8 33  1  0
  9 34  1  0
  9 35  1  0
 10 36  1  0
 10 37  1  0
 11 38  1  0
 11 39  1  0
 12 40  1  6
 15 41  1  0
 16 42  1  0
 17 43  1  0
 19 44  1  0
 20 45  1  0
 22 46  1  0
 25 47  1  0
 26 48  1  0
M  END
>  <smiles>  (34) 
O=C(NCC(=O)N1CCCC[C@H]1c1ncc[nH]1)c1ccc2cc(Cl)ccc2n1

>  <score_type>  (34) 
oracle

>  <origin>  (34) 
autodockgpu

>  <m_score__min__energy>  (34) 
-7.8799999999999999

>  <m_primary>  (34) 
energy

>  <rmsd>  (34) 
1.9251340482219759

>  <m_score__min__rmsd>  (34) 
1.9251340482219759

>  <meeko>  (34) 
{"free_energy": -7.78, "intermolecular_energy": -9.27, "internal_energy": -1.85, "cluster_size": 8, "cluster_id": 1, "rank_in_cluster": 6}

>  <energy>  (34) 
-7.2

>  <cluster_rmsd>  (34) 
0.17

>  <cluster>  (34) 
5

$$$$

     RDKit          3D

 48 51  0  0  0  0  0  0  0  0999 V2000
  141.0710   76.6090  222.7330 O   0  0  0  0  0  0  0  0  0  0  0  0
  140.6320   75.8460  221.8130 C   0  0  0  0  0  0  0  0  0  0  0  0
  139.3560   76.1250  221.2420 N   0  0  0  0  0  0  0  0  0  0  0  0
  138.6470   77.2770  221.7630 C   0  0  0  0  0  0  0  0  0  0  0  0
  139.1990   78.5490  221.2350 C   0  0  0  0  0  0  0  0  0  0  0  0
  138.7690   78.9970  220.1420 O   0  0  0  0  0  0  0  0  0  0  0  0
  140.1960   79.1970  222.0130 N   0  0  0  0  0  0  0  0  0  0  0  0
  140.0640   79.4070  223.4500 C   0  0  0  0  0  0  0  0  0  0  0  0
  140.8350   80.6950  223.7610 C   0  0  0  0  0  0  0  0  0  0  0  0
  142.3230   80.4680  223.5840 C   0  0  0  0  0  0  0  0  0  0  0  0
  142.5130   79.4600  222.4490 C   0  0  0  0  0  0  0  0  0  0  0  0
  141.4250   79.6950  221.4080 C   0  0  1  0  0  0  0  0  0  0  0  0
  141.8280   78.9140  220.2100 C   0  0  0  0  0  0  0  0  0  0  0  0
  141.8190   79.2960  218.9220 N   0  0  0  0  0  0  0  0  0  0  0  0
  142.2630   78.2870  218.1300 C   0  0  0  0  0  0  0  0  0  0  0  0
  142.5600   77.2300  218.9760 C   0  0  0  0  0  0  0  0  0  0  0  0
  142.2890   77.6370  220.2210 N   0  0  0  0  0  0  0  0  0  0  0  0
  141.4150   74.7070  221.3510 C   0  0  0  0  0  0  0  0  0  0  0  0
  140.8740   73.4410  221.4460 C   0  0  0  0  0  0  0  0  0  0  0  0
  141.5670   72.3120  221.0240 C   0  0  0  0  0  0  0  0  0  0  0  0
  142.8270   72.5370  220.5050 C   0  0  0  0  0  0  0  0  0  0  0  0
  143.6160   71.4810  220.0500 C   0  0  0  0  0  0  0  0  0  0  0  0
  144.8880   71.7200  219.5270 C   0  0  0  0  0  0  0  0  0  0  0  0
  145.8390   70.3590  218.9680 Cl  0  0  0  0  0  0  0  0  0  0  0  0
  145.3650   73.0160  219.4630 C   0  0  0  0  0  0  0  0  0  0  0  0
  144.5990   74.0800  219.9090 C   0  0  0  0  0  0  0  0  0  0  0  0
  143.3310   73.8200  220.4270 C   0  0  0  0  0  0  0  0  0  0  0  0
  142.6410   74.9050  220.8430 N   0  0  0  0  0  0  0  0  0  0  0  0
  138.9470   75.5360  220.4880 H   0  0  0  0  0  0  0  0  0  0  0  0
  137.5876   77.2025  221.4765 H   0  0  0  0  0  0  0  0  0  0  0  0
  138.7613   77.2827  222.8570 H   0  0  0  0  0  0  0  0  0  0  0  0
  139.0047   79.5199  223.7241 H   0  0  0  0  0  0  0  0  0  0  0  0
  140.4590   78.5532  224.0201 H   0  0  0  0  0  0  0  0  0  0  0  0
  140.5047   81.4907  223.0771 H   0  0  0  0  0  0  0  0  0  0  0  0
  140.6375   80.9898  224.8022 H   0  0  0  0  0  0  0  0  0  0  0  0
  142.8180   81.4165  223.3283 H   0  0  0  0  0  0  0  0  0  0  0  0
  142.7656   80.0846  224.5152 H   0  0  0  0  0  0  0  0  0  0  0  0
  143.5027   79.6001  221.9898 H   0  0  0  0  0  0  0  0  0  0  0  0
  142.4458   78.4341  222.8402 H   0  0  0  0  0  0  0  0  0  0  0  0
  141.2793   80.7434  221.1085 H   0  0  0  0  0  0  0  0  0  0  0  0
  142.3665   78.3047  217.0350 H   0  0  0  0  0  0  0  0  0  0  0  0
  142.9455   76.2433  218.6797 H   0  0  0  0  0  0  0  0  0  0  0  0
  142.4150   77.0510  221.0860 H   0  0  0  0  0  0  0  0  0  0  0  0
  139.8651   73.3217  221.8679 H   0  0  0  0  0  0  0  0  0  0  0  0
  141.1382   71.3018  221.0989 H   0  0  0  0  0  0  0  0  0  0  0  0
  143.2329   70.4513  220.1037 H   0  0  0  0  0  0  0  0  0  0  0  0
  146.3676   73.2048  219.0518 H   0  0  0  0  0  0  0  0  0  0  0  0
  144.9832   75.1094  219.8556 H   0  0  0  0  0  0  0  0  0  0  0  0
  1  2  2  0
  2  3  1  0
  3  4  1  0
  4  5  1  0
  5  6  2  0
  5  7  1  0
  7  8  1  0
  8  9  1  0
  9 10  1  0
 10 11  1  0
 11 12  1  0
 12 13  1  0
 13 14  2  0
 14 15  1  0
 15 16  2  0
 16 17  1  0
  2 18  1  0
 18 19  2  0
 19 20  1  0
 20 21  2  0
 21 22  1  0
 22 23  2  0
 23 24  1  0
 23 25  1  0
 25 26  2  0
 26 27  1  0
 27 28  2  0
 12  7  1  0
 17 13  1  0
 28 18  1  0
 27 21  1  0
  3 29  1  0
  4 30  1  0
  4 31  1  0
  8 32  1  0
  8 33  1  0
  9 34  1  0
  9 35  1  0
 10 36  1  0
 10 37  1  0
 11 38  1  0
 11 39  1  0
 12 40  1  6
 15 41  1  0
 16 42  1  0
 17 43  1  0
 19 44  1  0
 20 45  1  0
 22 46  1  0
 25 47  1  0
 26 48  1  0
M  END
>  <smiles>  (35) 
O=C(NCC(=O)N1CCCC[C@H]1c1ncc[nH]1)c1ccc2cc(Cl)ccc2n1

>  <score_type>  (35) 
oracle

>  <origin>  (35) 
autodockgpu

>  <m_score__min__energy>  (35) 
-7.8799999999999999

>  <m_primary>  (35) 
energy

>  <rmsd>  (35) 
6.161477799330315

>  <m_score__min__rmsd>  (35) 
6.161477799330315

>  <meeko>  (35) 
{"free_energy": -6.45, "intermolecular_energy": -7.94, "internal_energy": -3.27, "cluster_size": 7, "cluster_id": 9, "rank_in_cluster": 3}

>  <energy>  (35) 
-7.21

>  <cluster_rmsd>  (35) 
0.0

>  <cluster>  (35) 
6

$$$$

     RDKit          3D

 48 51  0  0  0  0  0  0  0  0999 V2000
  140.1150   73.8570  220.3260 O   0  0  0  0  0  0  0  0  0  0  0  0
  139.7460   73.9090  221.5420 C   0  0  0  0  0  0  0  0  0  0  0  0
  139.4240   75.1780  222.1080 N   0  0  0  0  0  0  0  0  0  0  0  0
  139.5450   76.3290  221.2350 C   0  0  0  0  0  0  0  0  0  0  0  0
  140.9290   76.8650  221.2170 C   0  0  0  0  0  0  0  0  0  0  0  0
  141.8300   76.2160  220.6270 O   0  0  0  0  0  0  0  0  0  0  0  0
  141.1550   78.1020  221.8800 N   0  0  0  0  0  0  0  0  0  0  0  0
  141.4400   78.1920  223.3070 C   0  0  0  0  0  0  0  0  0  0  0  0
  140.8760   79.5420  223.7650 C   0  0  0  0  0  0  0  0  0  0  0  0
  141.6940   80.6750  223.1800 C   0  0  0  0  0  0  0  0  0  0  0  0
  142.1870   80.2360  221.8010 C   0  0  0  0  0  0  0  0  0  0  0  0
  141.1130   79.3670  221.1570 C   0  0  1  0  0  0  0  0  0  0  0  0
  141.5010   79.2230  219.7310 C   0  0  0  0  0  0  0  0  0  0  0  0
  140.9770   79.8360  218.6570 N   0  0  0  0  0  0  0  0  0  0  0  0
  141.6130   79.4310  217.5280 C   0  0  0  0  0  0  0  0  0  0  0  0
  142.5780   78.5200  217.9310 C   0  0  0  0  0  0  0  0  0  0  0  0
  142.4860   78.4160  219.2610 N   0  0  0  0  0  0  0  0  0  0  0  0
  139.6530   72.6980  222.3470 C   0  0  0  0  0  0  0  0  0  0  0  0
  138.8680   71.6560  221.8970 C   0  0  0  0  0  0  0  0  0  0  0  0
  138.7350   70.4720  222.6150 C   0  0  0  0  0  0  0  0  0  0  0  0
  139.4350   70.4060  223.8030 C   0  0  0  0  0  0  0  0  0  0  0  0
  139.3790   69.2690  224.6090 C   0  0  0  0  0  0  0  0  0  0  0  0
  140.0920   69.2140  225.8080 C   0  0  0  0  0  0  0  0  0  0  0  0
  139.9870   67.7620  226.7840 Cl  0  0  0  0  0  0  0  0  0  0  0  0
  140.8570   70.2970  226.1950 C   0  0  0  0  0  0  0  0  0  0  0  0
  140.9290   71.4360  225.4110 C   0  0  0  0  0  0  0  0  0  0  0  0
  140.2100   71.4720  224.2180 C   0  0  0  0  0  0  0  0  0  0  0  0
  140.3260   72.6140  223.5040 N   0  0  0  0  0  0  0  0  0  0  0  0
  139.1170   75.2810  223.0970 H   0  0  0  0  0  0  0  0  0  0  0  0
  139.2650   76.0320  220.2135 H   0  0  0  0  0  0  0  0  0  0  0  0
  138.8783   77.1173  221.6147 H   0  0  0  0  0  0  0  0  0  0  0  0
  140.9492   77.3693  223.8476 H   0  0  0  0  0  0  0  0  0  0  0  0
  142.5187   78.1162  223.5085 H   0  0  0  0  0  0  0  0  0  0  0  0
  139.8333   79.6340  223.4268 H   0  0  0  0  0  0  0  0  0  0  0  0
  140.9203   79.5962  224.8628 H   0  0  0  0  0  0  0  0  0  0  0  0
  141.0700   81.5758  223.0844 H   0  0  0  0  0  0  0  0  0  0  0  0
  142.5463   80.9097  223.8346 H   0  0  0  0  0  0  0  0  0  0  0  0
  142.3732   81.1208  221.1746 H   0  0  0  0  0  0  0  0  0  0  0  0
  143.1232   79.6669  221.8992 H   0  0  0  0  0  0  0  0  0  0  0  0
  140.0913   79.7724  221.2000 H   0  0  0  0  0  0  0  0  0  0  0  0
  141.4046   79.7597  216.4992 H   0  0  0  0  0  0  0  0  0  0  0  0
  143.2849   77.9846  217.2801 H   0  0  0  0  0  0  0  0  0  0  0  0
  143.0920   77.7970  219.8580 H   0  0  0  0  0  0  0  0  0  0  0  0
  138.3318   71.7649  220.9427 H   0  0  0  0  0  0  0  0  0  0  0  0
  138.1106   69.6397  222.2582 H   0  0  0  0  0  0  0  0  0  0  0  0
  138.7682   68.4088  224.2974 H   0  0  0  0  0  0  0  0  0  0  0  0
  141.4176   70.2539  227.1405 H   0  0  0  0  0  0  0  0  0  0  0  0
  141.5412   72.2948  225.7235 H   0  0  0  0  0  0  0  0  0  0  0  0
  1  2  2  0
  2  3  1  0
  3  4  1  0
  4  5  1  0
  5  6  2  0
  5  7  1  0
  7  8  1  0
  8  9  1  0
  9 10  1  0
 10 11  1  0
 11 12  1  0
 12 13  1  0
 13 14  2  0
 14 15  1  0
 15 16  2  0
 16 17  1  0
  2 18  1  0
 18 19  2  0
 19 20  1  0
 20 21  2  0
 21 22  1  0
 22 23  2  0
 23 24  1  0
 23 25  1  0
 25 26  2  0
 26 27  1  0
 27 28  2  0
 12  7  1  0
 17 13  1  0
 28 18  1  0
 27 21  1  0
  3 29  1  0
  4 30  1  0
  4 31  1  0
  8 32  1  0
  8 33  1  0
  9 34  1  0
  9 35  1  0
 10 36  1  0
 10 37  1  0
 11 38  1  0
 11 39  1  0
 12 40  1  6
 15 41  1  0
 16 42  1  0
 17 43  1  0
 19 44  1  0
 20 45  1  0
 22 46  1  0
 25 47  1  0
 26 48  1  0
M  END
>  <smiles>  (36) 
O=C(NCC(=O)N1CCCC[C@H]1c1ncc[nH]1)c1ccc2cc(Cl)ccc2n1

>  <score_type>  (36) 
oracle

>  <origin>  (36) 
autodockgpu

>  <m_score__min__energy>  (36) 
-7.8799999999999999

>  <m_primary>  (36) 
energy

>  <rmsd>  (36) 
4.111173132870391

>  <m_score__min__rmsd>  (36) 
4.111173132870391

>  <meeko>  (36) 
{"free_energy": -7.83, "intermolecular_energy": -9.32, "internal_energy": -1.93, "cluster_size": 8, "cluster_id": 1, "rank_in_cluster": 4}

>  <energy>  (36) 
-6.75

>  <cluster_rmsd>  (36) 
0.0

>  <cluster>  (36) 
7

$$$$

     RDKit          3D

 48 51  0  0  0  0  0  0  0  0999 V2000
  140.9110   72.5370  220.8570 O   0  0  0  0  0  0  0  0  0  0  0  0
  140.2980   72.8320  221.9320 C   0  0  0  0  0  0  0  0  0  0  0  0
  139.6820   74.1130  222.0420 N   0  0  0  0  0  0  0  0  0  0  0  0
  139.8060   74.9950  220.8980 C   0  0  0  0  0  0  0  0  0  0  0  0
  140.7470   76.1110  221.1600 C   0  0  0  0  0  0  0  0  0  0  0  0
  141.1080   76.3430  222.3420 O   0  0  0  0  0  0  0  0  0  0  0  0
  141.1920   76.8630  220.0400 N   0  0  0  0  0  0  0  0  0  0  0  0
  140.9150   78.2860  219.8840 C   0  0  0  0  0  0  0  0  0  0  0  0
  140.8340   78.5370  218.3740 C   0  0  0  0  0  0  0  0  0  0  0  0
  142.2050   78.3850  217.7460 C   0  0  0  0  0  0  0  0  0  0  0  0
  142.9600   77.3050  218.5210 C   0  0  0  0  0  0  0  0  0  0  0  0
  141.9620   76.2440  218.9680 C   0  0  1  0  0  0  0  0  0  0  0  0
  142.7700   75.0910  219.4400 C   0  0  0  0  0  0  0  0  0  0  0  0
  143.2520   74.0600  218.7260 N   0  0  0  0  0  0  0  0  0  0  0  0
  143.9440   73.2140  219.5310 C   0  0  0  0  0  0  0  0  0  0  0  0
  143.8830   73.7530  220.8060 C   0  0  0  0  0  0  0  0  0  0  0  0
  143.1710   74.8820  220.7200 N   0  0  0  0  0  0  0  0  0  0  0  0
  140.2240   71.8810  223.0350 C   0  0  0  0  0  0  0  0  0  0  0  0
  139.6630   70.6410  222.8100 C   0  0  0  0  0  0  0  0  0  0  0  0
  139.5620   69.6870  223.8180 C   0  0  0  0  0  0  0  0  0  0  0  0
  140.0560   70.0590  225.0520 C   0  0  0  0  0  0  0  0  0  0  0  0
  140.0080   69.1850  226.1380 C   0  0  0  0  0  0  0  0  0  0  0  0
  140.5110   69.5720  227.3820 C   0  0  0  0  0  0  0  0  0  0  0  0
  140.4280   68.4370  228.7140 Cl  0  0  0  0  0  0  0  0  0  0  0  0
  141.0590   70.8320  227.5320 C   0  0  0  0  0  0  0  0  0  0  0  0
  141.1170   71.7160  226.4670 C   0  0  0  0  0  0  0  0  0  0  0  0
  140.6090   71.3100  225.2340 C   0  0  0  0  0  0  0  0  0  0  0  0
  140.6990   72.2240  224.2420 N   0  0  0  0  0  0  0  0  0  0  0  0
  139.1680   74.4090  222.8970 H   0  0  0  0  0  0  0  0  0  0  0  0
  140.1734   74.4141  220.0392 H   0  0  0  0  0  0  0  0  0  0  0  0
  138.8154   75.4258  220.6905 H   0  0  0  0  0  0  0  0  0  0  0  0
  139.9609   78.5449  220.3663 H   0  0  0  0  0  0  0  0  0  0  0  0
  141.6955   78.9025  220.3539 H   0  0  0  0  0  0  0  0  0  0  0  0
  140.1438   77.8101  217.9209 H   0  0  0  0  0  0  0  0  0  0  0  0
  140.4691   79.5597  218.1983 H   0  0  0  0  0  0  0  0  0  0  0  0
  142.1024   78.0861  216.6924 H   0  0  0  0  0  0  0  0  0  0  0  0
  142.7523   79.3383  217.7857 H   0  0  0  0  0  0  0  0  0  0  0  0
  143.7224   76.8478  217.8731 H   0  0  0  0  0  0  0  0  0  0  0  0
  143.4573   77.7475  219.3967 H   0  0  0  0  0  0  0  0  0  0  0  0
  141.2726   75.8900  218.1873 H   0  0  0  0  0  0  0  0  0  0  0  0
  144.4520   72.2856  219.2310 H   0  0  0  0  0  0  0  0  0  0  0  0
  144.3346   73.3321  221.7165 H   0  0  0  0  0  0  0  0  0  0  0  0
  142.9530   75.5180  221.5300 H   0  0  0  0  0  0  0  0  0  0  0  0
  139.2849   70.3996  221.8056 H   0  0  0  0  0  0  0  0  0  0  0  0
  139.1158   68.6970  223.6422 H   0  0  0  0  0  0  0  0  0  0  0  0
  139.5706   68.1834  226.0137 H   0  0  0  0  0  0  0  0  0  0  0  0
  141.4550   71.1374  228.5117 H   0  0  0  0  0  0  0  0  0  0  0  0
  141.5548   72.7174  226.5917 H   0  0  0  0  0  0  0  0  0  0  0  0
  1  2  2  0
  2  3  1  0
  3  4  1  0
  4  5  1  0
  5  6  2  0
  5  7  1  0
  7  8  1  0
  8  9  1  0
  9 10  1  0
 10 11  1  0
 11 12  1  0
 12 13  1  0
 13 14  2  0
 14 15  1  0
 15 16  2  0
 16 17  1  0
  2 18  1  0
 18 19  2  0
 19 20  1  0
 20 21  2  0
 21 22  1  0
 22 23  2  0
 23 24  1  0
 23 25  1  0
 25 26  2  0
 26 27  1  0
 27 28  2  0
 12  7  1  0
 17 13  1  0
 28 18  1  0
 27 21  1  0
  3 29  1  0
  4 30  1  0
  4 31  1  0
  8 32  1  0
  8 33  1  0
  9 34  1  0
  9 35  1  0
 10 36  1  0
 10 37  1  0
 11 38  1  0
 11 39  1  0
 12 40  1  6
 15 41  1  0
 16 42  1  0
 17 43  1  0
 19 44  1  0
 20 45  1  0
 22 46  1  0
 25 47  1  0
 26 48  1  0
M  END
>  <smiles>  (37) 
O=C(NCC(=O)N1CCCC[C@H]1c1ncc[nH]1)c1ccc2cc(Cl)ccc2n1

>  <score_type>  (37) 
oracle

>  <origin>  (37) 
autodockgpu

>  <m_score__min__energy>  (37) 
-7.8799999999999999

>  <m_primary>  (37) 
energy

>  <rmsd>  (37) 
3.281614514202242

>  <m_score__min__rmsd>  (37) 
3.281614514202242

>  <meeko>  (37) 
{"free_energy": -7.55, "intermolecular_energy": -9.04, "internal_energy": -2.25, "cluster_size": 10, "cluster_id": 4, "rank_in_cluster": 1}

>  <energy>  (37) 
-6.74

>  <cluster_rmsd>  (37) 
0.07

>  <cluster>  (37) 
7

$$$$

     RDKit          3D

 48 51  0  0  0  0  0  0  0  0999 V2000
  140.2170   72.2110  220.7670 O   0  0  0  0  0  0  0  0  0  0  0  0
  140.0090   72.5880  221.9640 C   0  0  0  0  0  0  0  0  0  0  0  0
  139.7500   73.9670  222.2150 N   0  0  0  0  0  0  0  0  0  0  0  0
  139.7430   74.8470  221.0630 C   0  0  0  0  0  0  0  0  0  0  0  0
  140.7560   75.9240  221.1850 C   0  0  0  0  0  0  0  0  0  0  0  0
  141.1420   76.2750  222.3290 O   0  0  0  0  0  0  0  0  0  0  0  0
  141.2400   76.5010  219.9800 N   0  0  0  0  0  0  0  0  0  0  0  0
  140.8850   77.8500  219.5540 C   0  0  0  0  0  0  0  0  0  0  0  0
  140.9080   77.8270  218.0200 C   0  0  0  0  0  0  0  0  0  0  0  0
  142.3310   77.6730  217.5220 C   0  0  0  0  0  0  0  0  0  0  0  0
  143.0890   76.8050  218.5260 C   0  0  0  0  0  0  0  0  0  0  0  0
  142.1290   75.7650  219.0890 C   0  0  1  0  0  0  0  0  0  0  0  0
  142.9700   74.7780  219.8120 C   0  0  0  0  0  0  0  0  0  0  0  0
  144.2440   74.9040  220.2200 N   0  0  0  0  0  0  0  0  0  0  0  0
  144.6510   73.7720  220.8480 C   0  0  0  0  0  0  0  0  0  0  0  0
  143.5700   72.9040  220.8240 C   0  0  0  0  0  0  0  0  0  0  0  0
  142.5740   73.5370  220.1960 N   0  0  0  0  0  0  0  0  0  0  0  0
  140.0360   71.6310  223.0630 C   0  0  0  0  0  0  0  0  0  0  0  0
  139.5520   70.3560  222.8500 C   0  0  0  0  0  0  0  0  0  0  0  0
  139.5490   69.3940  223.8550 C   0  0  0  0  0  0  0  0  0  0  0  0
  140.0570   69.7940  225.0750 C   0  0  0  0  0  0  0  0  0  0  0  0
  140.1050   68.9160  226.1570 C   0  0  0  0  0  0  0  0  0  0  0  0
  140.6210   69.3320  227.3850 C   0  0  0  0  0  0  0  0  0  0  0  0
  140.6580   68.1890  228.7130 Cl  0  0  0  0  0  0  0  0  0  0  0  0
  141.0880   70.6240  227.5250 C   0  0  0  0  0  0  0  0  0  0  0  0
  141.0510   71.5140  226.4640 C   0  0  0  0  0  0  0  0  0  0  0  0
  140.5320   71.0800  225.2460 C   0  0  0  0  0  0  0  0  0  0  0  0
  140.5270   72.0000  224.2560 N   0  0  0  0  0  0  0  0  0  0  0  0
  139.5730   74.3320  223.1730 H   0  0  0  0  0  0  0  0  0  0  0  0
  139.9598   74.2550  220.1616 H   0  0  0  0  0  0  0  0  0  0  0  0
  138.7507   75.3173  220.9986 H   0  0  0  0  0  0  0  0  0  0  0  0
  139.8810   78.1142  219.9176 H   0  0  0  0  0  0  0  0  0  0  0  0
  141.5841   78.5976  219.9570 H   0  0  0  0  0  0  0  0  0  0  0  0
  140.3032   76.9818  217.6598 H   0  0  0  0  0  0  0  0  0  0  0  0
  140.4942   78.7727  217.6398 H   0  0  0  0  0  0  0  0  0  0  0  0
  142.3309   77.1886  216.5344 H   0  0  0  0  0  0  0  0  0  0  0  0
  142.8122   78.6576  217.4268 H   0  0  0  0  0  0  0  0  0  0  0  0
  143.9274   76.3016  218.0224 H   0  0  0  0  0  0  0  0  0  0  0  0
  143.4863   77.4299  219.3394 H   0  0  0  0  0  0  0  0  0  0  0  0
  141.5265   75.2284  218.3413 H   0  0  0  0  0  0  0  0  0  0  0  0
  145.6408   73.5811  221.2882 H   0  0  0  0  0  0  0  0  0  0  0  0
  143.5380   71.8872  221.2424 H   0  0  0  0  0  0  0  0  0  0  0  0
  141.6190   73.1310  220.0220 H   0  0  0  0  0  0  0  0  0  0  0  0
  139.1575   70.0931  221.8574 H   0  0  0  0  0  0  0  0  0  0  0  0
  139.1653   68.3767  223.6879 H   0  0  0  0  0  0  0  0  0  0  0  0
  139.7331   67.8872  226.0417 H   0  0  0  0  0  0  0  0  0  0  0  0
  141.4953   70.9512  228.4930 H   0  0  0  0  0  0  0  0  0  0  0  0
  141.4237   72.5423  226.5808 H   0  0  0  0  0  0  0  0  0  0  0  0
  1  2  2  0
  2  3  1  0
  3  4  1  0
  4  5  1  0
  5  6  2  0
  5  7  1  0
  7  8  1  0
  8  9  1  0
  9 10  1  0
 10 11  1  0
 11 12  1  0
 12 13  1  0
 13 14  2  0
 14 15  1  0
 15 16  2  0
 16 17  1  0
  2 18  1  0
 18 19  2  0
 19 20  1  0
 20 21  2  0
 21 22  1  0
 22 23  2  0
 23 24  1  0
 23 25  1  0
 25 26  2  0
 26 27  1  0
 27 28  2  0
 12  7  1  0
 17 13  1  0
 28 18  1  0
 27 21  1  0
  3 29  1  0
  4 30  1  0
  4 31  1  0
  8 32  1  0
  8 33  1  0
  9 34  1  0
  9 35  1  0
 10 36  1  0
 10 37  1  0
 11 38  1  0
 11 39  1  0
 12 40  1  6
 15 41  1  0
 16 42  1  0
 17 43  1  0
 19 44  1  0
 20 45  1  0
 22 46  1  0
 25 47  1  0
 26 48  1  0
M  END
>  <smiles>  (38) 
O=C(NCC(=O)N1CCCC[C@H]1c1ncc[nH]1)c1ccc2cc(Cl)ccc2n1

>  <score_type>  (38) 
oracle

>  <origin>  (38) 
autodockgpu

>  <m_score__min__energy>  (38) 
-7.8799999999999999

>  <m_primary>  (38) 
energy

>  <rmsd>  (38) 
3.213094545354435

>  <m_score__min__rmsd>  (38) 
3.213094545354435

>  <meeko>  (38) 
{"free_energy": -7.28, "intermolecular_energy": -8.77, "internal_energy": -2.57, "cluster_size": 10, "cluster_id": 4, "rank_in_cluster": 8}

>  <energy>  (38) 
-6.73

>  <cluster_rmsd>  (38) 
0.05

>  <cluster>  (38) 
7

$$$$

     RDKit          3D

 48 51  0  0  0  0  0  0  0  0999 V2000
  136.6960   71.2120  221.6180 O   0  0  0  0  0  0  0  0  0  0  0  0
  137.5020   71.7340  222.4530 C   0  0  0  0  0  0  0  0  0  0  0  0
  137.8140   73.1190  222.3310 N   0  0  0  0  0  0  0  0  0  0  0  0
  137.1770   73.8370  221.2440 C   0  0  0  0  0  0  0  0  0  0  0  0
  138.1710   74.4690  220.3420 C   0  0  0  0  0  0  0  0  0  0  0  0
  138.2880   74.0440  219.1650 O   0  0  0  0  0  0  0  0  0  0  0  0
  138.9430   75.5370  220.8740 N   0  0  0  0  0  0  0  0  0  0  0  0
  138.3610   76.8200  221.2510 C   0  0  0  0  0  0  0  0  0  0  0  0
  139.4610   77.8650  221.0260 C   0  0  0  0  0  0  0  0  0  0  0  0
  140.5710   77.6810  222.0420 C   0  0  0  0  0  0  0  0  0  0  0  0
  140.6850   76.1860  222.3470 C   0  0  0  0  0  0  0  0  0  0  0  0
  140.3810   75.4080  221.0730 C   0  0  1  0  0  0  0  0  0  0  0  0
  140.7960   74.0070  221.3380 C   0  0  0  0  0  0  0  0  0  0  0  0
  140.5220   73.2420  222.4090 N   0  0  0  0  0  0  0  0  0  0  0  0
  141.0860   72.0160  222.2680 C   0  0  0  0  0  0  0  0  0  0  0  0
  141.7410   72.0280  221.0460 C   0  0  0  0  0  0  0  0  0  0  0  0
  141.5490   73.2380  220.5100 N   0  0  0  0  0  0  0  0  0  0  0  0
  138.0970   70.9340  223.5160 C   0  0  0  0  0  0  0  0  0  0  0  0
  137.7700   69.5970  223.6090 C   0  0  0  0  0  0  0  0  0  0  0  0
  138.3020   68.7770  224.5990 C   0  0  0  0  0  0  0  0  0  0  0  0
  139.1750   69.3840  225.4800 C   0  0  0  0  0  0  0  0  0  0  0  0
  139.7700   68.6620  226.5130 C   0  0  0  0  0  0  0  0  0  0  0  0
  140.6520   69.2860  227.3980 C   0  0  0  0  0  0  0  0  0  0  0  0
  141.3740   68.3350  228.6800 Cl  0  0  0  0  0  0  0  0  0  0  0  0
  140.9330   70.6300  227.2430 C   0  0  0  0  0  0  0  0  0  0  0  0
  140.3530   71.3670  226.2240 C   0  0  0  0  0  0  0  0  0  0  0  0
  139.4760   70.7250  225.3510 C   0  0  0  0  0  0  0  0  0  0  0  0
  138.9480   71.5050  224.3820 N   0  0  0  0  0  0  0  0  0  0  0  0
  138.4670   73.5990  222.9840 H   0  0  0  0  0  0  0  0  0  0  0  0
  136.5659   73.1317  220.6616 H   0  0  0  0  0  0  0  0  0  0  0  0
  136.5558   74.6338  221.6791 H   0  0  0  0  0  0  0  0  0  0  0  0
  137.4871   77.0432  220.6213 H   0  0  0  0  0  0  0  0  0  0  0  0
  138.0171   76.8152  222.2959 H   0  0  0  0  0  0  0  0  0  0  0  0
  139.8724   77.7476  220.0126 H   0  0  0  0  0  0  0  0  0  0  0  0
  139.0307   78.8708  221.1414 H   0  0  0  0  0  0  0  0  0  0  0  0
  141.5208   78.0519  221.6294 H   0  0  0  0  0  0  0  0  0  0  0  0
  140.3476   78.2439  222.9603 H   0  0  0  0  0  0  0  0  0  0  0  0
  141.7043   75.9538  222.6892 H   0  0  0  0  0  0  0  0  0  0  0  0
  139.9728   75.9074  223.1377 H   0  0  0  0  0  0  0  0  0  0  0  0
  140.9023   75.7615  220.1712 H   0  0  0  0  0  0  0  0  0  0  0  0
  141.0340   71.1797  222.9807 H   0  0  0  0  0  0  0  0  0  0  0  0
  142.3109   71.1988  220.6014 H   0  0  0  0  0  0  0  0  0  0  0  0
  141.9270   73.5500  219.5790 H   0  0  0  0  0  0  0  0  0  0  0  0
  137.0683   69.1668  222.8792 H   0  0  0  0  0  0  0  0  0  0  0  0
  138.0431   67.7106  224.6753 H   0  0  0  0  0  0  0  0  0  0  0  0
  139.5432   67.5923  226.6322 H   0  0  0  0  0  0  0  0  0  0  0  0
  141.6279   71.1220  227.9395 H   0  0  0  0  0  0  0  0  0  0  0  0
  140.5796   72.4369  226.1059 H   0  0  0  0  0  0  0  0  0  0  0  0
  1  2  2  0
  2  3  1  0
  3  4  1  0
  4  5  1  0
  5  6  2  0
  5  7  1  0
  7  8  1  0
  8  9  1  0
  9 10  1  0
 10 11  1  0
 11 12  1  0
 12 13  1  0
 13 14  2  0
 14 15  1  0
 15 16  2  0
 16 17  1  0
  2 18  1  0
 18 19  2  0
 19 20  1  0
 20 21  2  0
 21 22  1  0
 22 23  2  0
 23 24  1  0
 23 25  1  0
 25 26  2  0
 26 27  1  0
 27 28  2  0
 12  7  1  0
 17 13  1  0
 28 18  1  0
 27 21  1  0
  3 29  1  0
  4 30  1  0
  4 31  1  0
  8 32  1  0
  8 33  1  0
  9 34  1  0
  9 35  1  0
 10 36  1  0
 10 37  1  0
 11 38  1  0
 11 39  1  0
 12 40  1  6
 15 41  1  0
 16 42  1  0
 17 43  1  0
 19 44  1  0
 20 45  1  0
 22 46  1  0
 25 47  1  0
 26 48  1  0
M  END
>  <smiles>  (39) 
O=C(NCC(=O)N1CCCC[C@H]1c1ncc[nH]1)c1ccc2cc(Cl)ccc2n1

>  <score_type>  (39) 
oracle

>  <origin>  (39) 
autodockgpu

>  <m_score__min__energy>  (39) 
-7.8799999999999999

>  <m_primary>  (39) 
energy

>  <rmsd>  (39) 
3.676782566115014

>  <m_score__min__rmsd>  (39) 
3.676782566115014

>  <meeko>  (39) 
{"free_energy": -6.54, "intermolecular_energy": -8.03, "internal_energy": -2.8, "cluster_size": 2, "cluster_id": 8, "rank_in_cluster": 2}

>  <energy>  (39) 
-6.71

>  <cluster_rmsd>  (39) 
0.06

>  <cluster>  (39) 
7

$$$$

     RDKit          3D

 48 51  0  0  0  0  0  0  0  0999 V2000
  140.2090   72.4820  220.6750 O   0  0  0  0  0  0  0  0  0  0  0  0
  140.0060   72.8580  221.8730 C   0  0  0  0  0  0  0  0  0  0  0  0
  139.7560   74.2380  222.1260 N   0  0  0  0  0  0  0  0  0  0  0  0
  139.7530   75.1200  220.9760 C   0  0  0  0  0  0  0  0  0  0  0  0
  140.6870   76.2590  221.1510 C   0  0  0  0  0  0  0  0  0  0  0  0
  141.0230   76.6020  222.3130 O   0  0  0  0  0  0  0  0  0  0  0  0
  141.1550   76.9040  219.9750 N   0  0  0  0  0  0  0  0  0  0  0  0
  140.8090   78.2800  219.6380 C   0  0  0  0  0  0  0  0  0  0  0  0
  140.8030   78.3510  218.1060 C   0  0  0  0  0  0  0  0  0  0  0  0
  142.2140   78.2120  217.5720 C   0  0  0  0  0  0  0  0  0  0  0  0
  142.9800   77.2760  218.5070 C   0  0  0  0  0  0  0  0  0  0  0  0
  142.0180   76.2140  219.0240 C   0  0  1  0  0  0  0  0  0  0  0  0
  142.8600   75.1740  219.6690 C   0  0  0  0  0  0  0  0  0  0  0  0
  144.1370   75.2670  220.0760 N   0  0  0  0  0  0  0  0  0  0  0  0
  144.5440   74.0920  220.6190 C   0  0  0  0  0  0  0  0  0  0  0  0
  143.4600   73.2310  220.5410 C   0  0  0  0  0  0  0  0  0  0  0  0
  142.4620   73.9110  219.9660 N   0  0  0  0  0  0  0  0  0  0  0  0
  140.0280   71.8980  222.9700 C   0  0  0  0  0  0  0  0  0  0  0  0
  139.5620   70.6190  222.7480 C   0  0  0  0  0  0  0  0  0  0  0  0
  139.5550   69.6550  223.7510 C   0  0  0  0  0  0  0  0  0  0  0  0
  140.0420   70.0580  224.9780 C   0  0  0  0  0  0  0  0  0  0  0  0
  140.0830   69.1780  226.0590 C   0  0  0  0  0  0  0  0  0  0  0  0
  140.5780   69.5970  227.2960 C   0  0  0  0  0  0  0  0  0  0  0  0
  140.6090   68.4530  228.6220 Cl  0  0  0  0  0  0  0  0  0  0  0  0
  141.0280   70.8950  227.4440 C   0  0  0  0  0  0  0  0  0  0  0  0
  140.9960   71.7860  226.3850 C   0  0  0  0  0  0  0  0  0  0  0  0
  140.4990   71.3480  225.1590 C   0  0  0  0  0  0  0  0  0  0  0  0
  140.4970   72.2710  224.1710 N   0  0  0  0  0  0  0  0  0  0  0  0
  139.5830   74.6030  223.0860 H   0  0  0  0  0  0  0  0  0  0  0  0
  140.0540   74.5464  220.0870 H   0  0  0  0  0  0  0  0  0  0  0  0
  138.7374   75.5262  220.8602 H   0  0  0  0  0  0  0  0  0  0  0  0
  139.8153   78.5328  220.0363 H   0  0  0  0  0  0  0  0  0  0  0  0
  141.5252   78.9934  220.0717 H   0  0  0  0  0  0  0  0  0  0  0  0
  140.1811   77.5363  217.7066 H   0  0  0  0  0  0  0  0  0  0  0  0
  140.3939   79.3228  217.7926 H   0  0  0  0  0  0  0  0  0  0  0  0
  142.1895   77.7886  216.5571 H   0  0  0  0  0  0  0  0  0  0  0  0
  142.7053   79.1951  217.5271 H   0  0  0  0  0  0  0  0  0  0  0  0
  143.8029   76.7952  217.9578 H   0  0  0  0  0  0  0  0  0  0  0  0
  143.3996   77.8458  219.3491 H   0  0  0  0  0  0  0  0  0  0  0  0
  141.3953   75.7309  218.2566 H   0  0  0  0  0  0  0  0  0  0  0  0
  145.5361   73.8673  221.0376 H   0  0  0  0  0  0  0  0  0  0  0  0
  143.4270   72.1871  220.8863 H   0  0  0  0  0  0  0  0  0  0  0  0
  141.5040   73.5210  219.7710 H   0  0  0  0  0  0  0  0  0  0  0  0
  139.1851   70.3536  221.7493 H   0  0  0  0  0  0  0  0  0  0  0  0
  139.1841   68.6342  223.5769 H   0  0  0  0  0  0  0  0  0  0  0  0
  139.7227   68.1459  225.9365 H   0  0  0  0  0  0  0  0  0  0  0  0
  141.4176   71.2254  228.4182 H   0  0  0  0  0  0  0  0  0  0  0  0
  141.3554   72.8182  226.5087 H   0  0  0  0  0  0  0  0  0  0  0  0
  1  2  2  0
  2  3  1  0
  3  4  1  0
  4  5  1  0
  5  6  2  0
  5  7  1  0
  7  8  1  0
  8  9  1  0
  9 10  1  0
 10 11  1  0
 11 12  1  0
 12 13  1  0
 13 14  2  0
 14 15  1  0
 15 16  2  0
 16 17  1  0
  2 18  1  0
 18 19  2  0
 19 20  1  0
 20 21  2  0
 21 22  1  0
 22 23  2  0
 23 24  1  0
 23 25  1  0
 25 26  2  0
 26 27  1  0
 27 28  2  0
 12  7  1  0
 17 13  1  0
 28 18  1  0
 27 21  1  0
  3 29  1  0
  4 30  1  0
  4 31  1  0
  8 32  1  0
  8 33  1  0
  9 34  1  0
  9 35  1  0
 10 36  1  0
 10 37  1  0
 11 38  1  0
 11 39  1  0
 12 40  1  6
 15 41  1  0
 16 42  1  0
 17 43  1  0
 19 44  1  0
 20 45  1  0
 22 46  1  0
 25 47  1  0
 26 48  1  0
M  END
>  <smiles>  (40) 
O=C(NCC(=O)N1CCCC[C@H]1c1ncc[nH]1)c1ccc2cc(Cl)ccc2n1

>  <score_type>  (40) 
oracle

>  <origin>  (40) 
autodockgpu

>  <m_score__min__energy>  (40) 
-7.8799999999999999

>  <m_primary>  (40) 
energy

>  <rmsd>  (40) 
3.2297196759988775

>  <m_score__min__rmsd>  (40) 
3.2297196759988775

>  <meeko>  (40) 
{"free_energy": -7.23, "intermolecular_energy": -8.72, "internal_energy": -2.57, "cluster_size": 10, "cluster_id": 4, "rank_in_cluster": 10}

>  <energy>  (40) 
-6.69

>  <cluster_rmsd>  (40) 
0.08

>  <cluster>  (40) 
7

$$$$

     RDKit          3D

 48 51  0  0  0  0  0  0  0  0999 V2000
  140.1980   73.8330  220.4230 O   0  0  0  0  0  0  0  0  0  0  0  0
  139.7500   73.8810  221.6130 C   0  0  0  0  0  0  0  0  0  0  0  0
  139.3880   75.1470  222.1600 N   0  0  0  0  0  0  0  0  0  0  0  0
  139.5630   76.3010  221.3000 C   0  0  0  0  0  0  0  0  0  0  0  0
  140.9580   76.8050  221.3290 C   0  0  0  0  0  0  0  0  0  0  0  0
  141.8700   76.1130  220.8110 O   0  0  0  0  0  0  0  0  0  0  0  0
  141.1810   78.0630  221.9520 N   0  0  0  0  0  0  0  0  0  0  0  0
  141.4470   78.2010  223.3790 C   0  0  0  0  0  0  0  0  0  0  0  0
  140.8830   79.5690  223.7820 C   0  0  0  0  0  0  0  0  0  0  0  0
  141.7150   80.6780  223.1710 C   0  0  0  0  0  0  0  0  0  0  0  0
  142.2250   80.1890  221.8140 C   0  0  0  0  0  0  0  0  0  0  0  0
  141.1550   79.3030  221.1860 C   0  0  1  0  0  0  0  0  0  0  0  0
  141.5620   79.1080  219.7710 C   0  0  0  0  0  0  0  0  0  0  0  0
  141.0650   79.6960  218.6700 N   0  0  0  0  0  0  0  0  0  0  0  0
  141.7110   79.2450  217.5640 C   0  0  0  0  0  0  0  0  0  0  0  0
  142.6540   78.3330  218.0100 C   0  0  0  0  0  0  0  0  0  0  0  0
  142.5410   78.2720  219.3410 N   0  0  0  0  0  0  0  0  0  0  0  0
  139.6080   72.6670  222.4070 C   0  0  0  0  0  0  0  0  0  0  0  0
  138.6720   71.7270  222.0270 C   0  0  0  0  0  0  0  0  0  0  0  0
  138.4850   70.5470  222.7400 C   0  0  0  0  0  0  0  0  0  0  0  0
  139.2920   70.3770  223.8470 C   0  0  0  0  0  0  0  0  0  0  0  0
  139.1950   69.2330  224.6390 C   0  0  0  0  0  0  0  0  0  0  0  0
  140.0160   69.0720  225.7560 C   0  0  0  0  0  0  0  0  0  0  0  0
  139.8550   67.6170  226.7180 Cl  0  0  0  0  0  0  0  0  0  0  0  0
  140.9310   70.0570  226.0760 C   0  0  0  0  0  0  0  0  0  0  0  0
  141.0460   71.2020  225.3040 C   0  0  0  0  0  0  0  0  0  0  0  0
  140.2160   71.3430  224.1930 C   0  0  0  0  0  0  0  0  0  0  0  0
  140.3830   72.4830  223.4860 N   0  0  0  0  0  0  0  0  0  0  0  0
  139.0170   75.2470  223.1270 H   0  0  0  0  0  0  0  0  0  0  0  0
  139.3085   76.0176  220.2681 H   0  0  0  0  0  0  0  0  0  0  0  0
  138.9031   77.1018  221.6650 H   0  0  0  0  0  0  0  0  0  0  0  0
  140.9449   77.3996  223.9409 H   0  0  0  0  0  0  0  0  0  0  0  0
  142.5225   78.1274  223.5980 H   0  0  0  0  0  0  0  0  0  0  0  0
  139.8459   79.6540  223.4252 H   0  0  0  0  0  0  0  0  0  0  0  0
  140.9116   79.6606  224.8778 H   0  0  0  0  0  0  0  0  0  0  0  0
  141.0971   81.5780  223.0360 H   0  0  0  0  0  0  0  0  0  0  0  0
  142.5590   80.9314  223.8293 H   0  0  0  0  0  0  0  0  0  0  0  0
  142.4241   81.0507  221.1599 H   0  0  0  0  0  0  0  0  0  0  0  0
  143.1571   79.6196  221.9445 H   0  0  0  0  0  0  0  0  0  0  0  0
  140.1349   79.7144  221.2017 H   0  0  0  0  0  0  0  0  0  0  0  0
  141.5232   79.5439  216.5222 H   0  0  0  0  0  0  0  0  0  0  0  0
  143.3617   77.7664  217.3870 H   0  0  0  0  0  0  0  0  0  0  0  0
  143.1280   77.6610  219.9670 H   0  0  0  0  0  0  0  0  0  0  0  0
  138.0563   71.9159  221.1352 H   0  0  0  0  0  0  0  0  0  0  0  0
  137.7398   69.7956  222.4400 H   0  0  0  0  0  0  0  0  0  0  0  0
  138.4654   68.4513  224.3811 H   0  0  0  0  0  0  0  0  0  0  0  0
  141.5777   69.9302  226.9567 H   0  0  0  0  0  0  0  0  0  0  0  0
  141.7765   71.9828  225.5623 H   0  0  0  0  0  0  0  0  0  0  0  0
  1  2  2  0
  2  3  1  0
  3  4  1  0
  4  5  1  0
  5  6  2  0
  5  7  1  0
  7  8  1  0
  8  9  1  0
  9 10  1  0
 10 11  1  0
 11 12  1  0
 12 13  1  0
 13 14  2  0
 14 15  1  0
 15 16  2  0
 16 17  1  0
  2 18  1  0
 18 19  2  0
 19 20  1  0
 20 21  2  0
 21 22  1  0
 22 23  2  0
 23 24  1  0
 23 25  1  0
 25 26  2  0
 26 27  1  0
 27 28  2  0
 12  7  1  0
 17 13  1  0
 28 18  1  0
 27 21  1  0
  3 29  1  0
  4 30  1  0
  4 31  1  0
  8 32  1  0
  8 33  1  0
  9 34  1  0
  9 35  1  0
 10 36  1  0
 10 37  1  0
 11 38  1  0
 11 39  1  0
 12 40  1  6
 15 41  1  0
 16 42  1  0
 17 43  1  0
 19 44  1  0
 20 45  1  0
 22 46  1  0
 25 47  1  0
 26 48  1  0
M  END
>  <smiles>  (41) 
O=C(NCC(=O)N1CCCC[C@H]1c1ncc[nH]1)c1ccc2cc(Cl)ccc2n1

>  <score_type>  (41) 
oracle

>  <origin>  (41) 
autodockgpu

>  <m_score__min__energy>  (41) 
-7.8799999999999999

>  <m_primary>  (41) 
energy

>  <rmsd>  (41) 
4.1216319161115

>  <m_score__min__rmsd>  (41) 
4.1216319161115

>  <meeko>  (41) 
{"free_energy": -7.83, "intermolecular_energy": -9.32, "internal_energy": -1.9, "cluster_size": 8, "cluster_id": 1, "rank_in_cluster": 3}

>  <energy>  (41) 
-6.55

>  <cluster_rmsd>  (41) 
1.36

>  <cluster>  (41) 
7

$$$$

     RDKit          3D

 48 51  0  0  0  0  0  0  0  0999 V2000
  139.9870   74.0820  222.1480 O   0  0  0  0  0  0  0  0  0  0  0  0
  139.9480   72.8300  221.9290 C   0  0  0  0  0  0  0  0  0  0  0  0
  139.8580   72.3710  220.5820 N   0  0  0  0  0  0  0  0  0  0  0  0
  139.8180   73.3880  219.5500 C   0  0  0  0  0  0  0  0  0  0  0  0
  141.1070   73.4860  218.8210 C   0  0  0  0  0  0  0  0  0  0  0  0
  141.1000   73.8040  217.6050 O   0  0  0  0  0  0  0  0  0  0  0  0
  142.2910   73.2090  219.5560 N   0  0  0  0  0  0  0  0  0  0  0  0
  143.0390   71.9660  219.4090 C   0  0  0  0  0  0  0  0  0  0  0  0
  143.6900   71.7010  220.7720 C   0  0  0  0  0  0  0  0  0  0  0  0
  144.7760   72.7240  221.0380 C   0  0  0  0  0  0  0  0  0  0  0  0
  144.3460   74.0440  220.3960 C   0  0  0  0  0  0  0  0  0  0  0  0
  142.8320   74.1680  220.5120 C   0  0  1  0  0  0  0  0  0  0  0  0
  142.5050   75.5720  220.1570 C   0  0  0  0  0  0  0  0  0  0  0  0
  143.1220   76.3760  219.2740 N   0  0  0  0  0  0  0  0  0  0  0  0
  142.5160   77.5900  219.2410 C   0  0  0  0  0  0  0  0  0  0  0  0
  141.4730   77.5290  220.1520 C   0  0  0  0  0  0  0  0  0  0  0  0
  141.4910   76.3030  220.6860 N   0  0  0  0  0  0  0  0  0  0  0  0
  139.9930   71.8770  223.0310 C   0  0  0  0  0  0  0  0  0  0  0  0
  139.5330   70.5930  222.8240 C   0  0  0  0  0  0  0  0  0  0  0  0
  139.5470   69.6350  223.8320 C   0  0  0  0  0  0  0  0  0  0  0  0
  140.0500   70.0490  225.0500 C   0  0  0  0  0  0  0  0  0  0  0  0
  140.1140   69.1760  226.1350 C   0  0  0  0  0  0  0  0  0  0  0  0
  140.6240   69.6060  227.3620 C   0  0  0  0  0  0  0  0  0  0  0  0
  140.6830   68.4700  228.6940 Cl  0  0  0  0  0  0  0  0  0  0  0  0
  141.0670   70.9080  227.4960 C   0  0  0  0  0  0  0  0  0  0  0  0
  141.0130   71.7930  226.4310 C   0  0  0  0  0  0  0  0  0  0  0  0
  140.5000   71.3440  225.2150 C   0  0  0  0  0  0  0  0  0  0  0  0
  140.4780   72.2600  224.2220 N   0  0  0  0  0  0  0  0  0  0  0  0
  139.8220   71.3590  220.3430 H   0  0  0  0  0  0  0  0  0  0  0  0
  139.0221   73.1367  218.8334 H   0  0  0  0  0  0  0  0  0  0  0  0
  139.6244   74.3571  220.0330 H   0  0  0  0  0  0  0  0  0  0  0  0
  142.3615   71.1415  219.1422 H   0  0  0  0  0  0  0  0  0  0  0  0
  143.7919   72.0407  218.6105 H   0  0  0  0  0  0  0  0  0  0  0  0
  142.9253   71.7689  221.5598 H   0  0  0  0  0  0  0  0  0  0  0  0
  144.1356   70.6953  220.7688 H   0  0  0  0  0  0  0  0  0  0  0  0
  144.9040   72.8599  222.1220 H   0  0  0  0  0  0  0  0  0  0  0  0
  145.7331   72.3857  220.6142 H   0  0  0  0  0  0  0  0  0  0  0  0
  144.8280   74.8843  220.9171 H   0  0  0  0  0  0  0  0  0  0  0  0
  144.6455   74.0633  219.3377 H   0  0  0  0  0  0  0  0  0  0  0  0
  142.4186   73.9558  221.5090 H   0  0  0  0  0  0  0  0  0  0  0  0
  142.7966   78.4506  218.6160 H   0  0  0  0  0  0  0  0  0  0  0  0
  140.7647   78.3361  220.3905 H   0  0  0  0  0  0  0  0  0  0  0  0
  140.8160   75.9540  221.4140 H   0  0  0  0  0  0  0  0  0  0  0  0
  139.1437   70.3188  221.8324 H   0  0  0  0  0  0  0  0  0  0  0  0
  139.1801   68.6108  223.6694 H   0  0  0  0  0  0  0  0  0  0  0  0
  139.7601   68.1404  226.0238 H   0  0  0  0  0  0  0  0  0  0  0  0
  141.4685   71.2470  228.4624 H   0  0  0  0  0  0  0  0  0  0  0  0
  141.3676   72.8283  226.5428 H   0  0  0  0  0  0  0  0  0  0  0  0
  1  2  2  0
  2  3  1  0
  3  4  1  0
  4  5  1  0
  5  6  2  0
  5  7  1  0
  7  8  1  0
  8  9  1  0
  9 10  1  0
 10 11  1  0
 11 12  1  0
 12 13  1  0
 13 14  2  0
 14 15  1  0
 15 16  2  0
 16 17  1  0
  2 18  1  0
 18 19  2  0
 19 20  1  0
 20 21  2  0
 21 22  1  0
 22 23  2  0
 23 24  1  0
 23 25  1  0
 25 26  2  0
 26 27  1  0
 27 28  2  0
 12  7  1  0
 17 13  1  0
 28 18  1  0
 27 21  1  0
  3 29  1  0
  4 30  1  0
  4 31  1  0
  8 32  1  0
  8 33  1  0
  9 34  1  0
  9 35  1  0
 10 36  1  0
 10 37  1  0
 11 38  1  0
 11 39  1  0
 12 40  1  1
 15 41  1  0
 16 42  1  0
 17 43  1  0
 19 44  1  0
 20 45  1  0
 22 46  1  0
 25 47  1  0
 26 48  1  0
M  END
>  <smiles>  (42) 
O=C(NCC(=O)N1CCCC[C@H]1c1ncc[nH]1)c1ccc2cc(Cl)ccc2n1

>  <score_type>  (42) 
oracle

>  <origin>  (42) 
autodockgpu

>  <m_score__min__energy>  (42) 
-7.8799999999999999

>  <m_primary>  (42) 
energy

>  <rmsd>  (42) 
3.3927528607361337

>  <m_score__min__rmsd>  (42) 
3.3927528607361337

>  <meeko>  (42) 
{"free_energy": -7.06, "intermolecular_energy": -8.55, "internal_energy": -2.59, "cluster_size": 7, "cluster_id": 3, "rank_in_cluster": 7}

>  <energy>  (42) 
-6.59

>  <cluster_rmsd>  (42) 
0.0

>  <cluster>  (42) 
8

$$$$

     RDKit          3D

 48 51  0  0  0  0  0  0  0  0999 V2000
  134.8970   68.4670  224.9930 O   0  0  0  0  0  0  0  0  0  0  0  0
  135.3130   69.6550  224.8040 C   0  0  0  0  0  0  0  0  0  0  0  0
  136.4480   69.8600  223.9660 N   0  0  0  0  0  0  0  0  0  0  0  0
  137.0500   68.6760  223.3850 C   0  0  0  0  0  0  0  0  0  0  0  0
  138.5310   68.7180  223.4580 C   0  0  0  0  0  0  0  0  0  0  0  0
  139.2040   68.3650  222.4560 O   0  0  0  0  0  0  0  0  0  0  0  0
  139.1090   69.1620  224.6770 N   0  0  0  0  0  0  0  0  0  0  0  0
  139.6230   68.2450  225.6870 C   0  0  0  0  0  0  0  0  0  0  0  0
  139.4300   68.9520  227.0350 C   0  0  0  0  0  0  0  0  0  0  0  0
  140.3680   70.1370  227.1410 C   0  0  0  0  0  0  0  0  0  0  0  0
  140.5400   70.7270  225.7410 C   0  0  0  0  0  0  0  0  0  0  0  0
  139.2230   70.5820  224.9890 C   0  0  1  0  0  0  0  0  0  0  0  0
  139.3480   71.4250  223.7730 C   0  0  0  0  0  0  0  0  0  0  0  0
  138.3720   71.8960  222.9790 N   0  0  0  0  0  0  0  0  0  0  0  0
  138.9020   72.6290  221.9670 C   0  0  0  0  0  0  0  0  0  0  0  0
  140.2760   72.6070  222.1500 C   0  0  0  0  0  0  0  0  0  0  0  0
  140.5140   71.8750  223.2440 N   0  0  0  0  0  0  0  0  0  0  0  0
  134.6440   70.7880  225.4310 C   0  0  0  0  0  0  0  0  0  0  0  0
  133.6880   70.5490  226.3980 C   0  0  0  0  0  0  0  0  0  0  0  0
  133.0130   71.5840  227.0350 C   0  0  0  0  0  0  0  0  0  0  0  0
  133.3580   72.8620  226.6410 C   0  0  0  0  0  0  0  0  0  0  0  0
  132.7470   73.9780  227.2110 C   0  0  0  0  0  0  0  0  0  0  0  0
  133.1030   75.2660  226.8050 C   0  0  0  0  0  0  0  0  0  0  0  0
  132.3060   76.6360  227.5520 Cl  0  0  0  0  0  0  0  0  0  0  0  0
  134.0700   75.4290  225.8310 C   0  0  0  0  0  0  0  0  0  0  0  0
  134.6900   74.3340  225.2510 C   0  0  0  0  0  0  0  0  0  0  0  0
  134.3190   73.0580  225.6710 C   0  0  0  0  0  0  0  0  0  0  0  0
  134.9650   72.0380  225.0630 N   0  0  0  0  0  0  0  0  0  0  0  0
  136.8320   70.8080  223.7770 H   0  0  0  0  0  0  0  0  0  0  0  0
  136.6917   67.7904  223.9303 H   0  0  0  0  0  0  0  0  0  0  0  0
  136.7613   68.6313  222.3245 H   0  0  0  0  0  0  0  0  0  0  0  0
  139.0609   67.2997  225.6669 H   0  0  0  0  0  0  0  0  0  0  0  0
  140.6801   67.9988  225.5081 H   0  0  0  0  0  0  0  0  0  0  0  0
  138.3905   69.3025  227.1163 H   0  0  0  0  0  0  0  0  0  0  0  0
  139.6512   68.2442  227.8474 H   0  0  0  0  0  0  0  0  0  0  0  0
  139.9399   70.8933  227.8153 H   0  0  0  0  0  0  0  0  0  0  0  0
  141.3407   69.8207  227.5456 H   0  0  0  0  0  0  0  0  0  0  0  0
  140.8082   71.7911  225.8174 H   0  0  0  0  0  0  0  0  0  0  0  0
  141.3402   70.1962  225.2045 H   0  0  0  0  0  0  0  0  0  0  0  0
  138.3282   70.9015  225.5433 H   0  0  0  0  0  0  0  0  0  0  0  0
  138.3514   73.1386  221.1625 H   0  0  0  0  0  0  0  0  0  0  0  0
  141.0282   73.0985  221.5155 H   0  0  0  0  0  0  0  0  0  0  0  0
  141.4690   71.6770  223.6380 H   0  0  0  0  0  0  0  0  0  0  0  0
  133.4537   69.5098  226.6723 H   0  0  0  0  0  0  0  0  0  0  0  0
  132.2508   71.3966  227.8057 H   0  0  0  0  0  0  0  0  0  0  0  0
  131.9786   73.8430  227.9865 H   0  0  0  0  0  0  0  0  0  0  0  0
  134.3516   76.4432  225.5115 H   0  0  0  0  0  0  0  0  0  0  0  0
  135.4586   74.4689  224.4757 H   0  0  0  0  0  0  0  0  0  0  0  0
  1  2  2  0
  2  3  1  0
  3  4  1  0
  4  5  1  0
  5  6  2  0
  5  7  1  0
  7  8  1  0
  8  9  1  0
  9 10  1  0
 10 11  1  0
 11 12  1  0
 12 13  1  0
 13 14  2  0
 14 15  1  0
 15 16  2  0
 16 17  1  0
  2 18  1  0
 18 19  2  0
 19 20  1  0
 20 21  2  0
 21 22  1  0
 22 23  2  0
 23 24  1  0
 23 25  1  0
 25 26  2  0
 26 27  1  0
 27 28  2  0
 12  7  1  0
 17 13  1  0
 28 18  1  0
 27 21  1  0
  3 29  1  0
  4 30  1  0
  4 31  1  0
  8 32  1  0
  8 33  1  0
  9 34  1  0
  9 35  1  0
 10 36  1  0
 10 37  1  0
 11 38  1  0
 11 39  1  0
 12 40  1  1
 15 41  1  0
 16 42  1  0
 17 43  1  0
 19 44  1  0
 20 45  1  0
 22 46  1  0
 25 47  1  0
 26 48  1  0
M  END
>  <smiles>  (43) 
O=C(NCC(=O)N1CCCC[C@H]1c1ncc[nH]1)c1ccc2cc(Cl)ccc2n1

>  <score_type>  (43) 
oracle

>  <origin>  (43) 
autodockgpu

>  <m_score__min__energy>  (43) 
-7.8799999999999999

>  <m_primary>  (43) 
energy

>  <rmsd>  (43) 
7.990629505310024

>  <m_score__min__rmsd>  (43) 
7.990629505310024

>  <meeko>  (43) 
{"free_energy": -6.71, "intermolecular_energy": -8.2, "internal_energy": -2.64, "cluster_size": 6, "cluster_id": 7, "rank_in_cluster": 4}

>  <energy>  (43) 
-6.54

>  <cluster_rmsd>  (43) 
0.17

>  <cluster>  (43) 
8

$$$$

     RDKit          3D

 48 51  0  0  0  0  0  0  0  0999 V2000
  140.5850   72.3150  220.8550 O   0  0  0  0  0  0  0  0  0  0  0  0
  140.1390   72.6490  222.0000 C   0  0  0  0  0  0  0  0  0  0  0  0
  139.6740   73.9830  222.1920 N   0  0  0  0  0  0  0  0  0  0  0  0
  139.7460   74.8690  221.0470 C   0  0  0  0  0  0  0  0  0  0  0  0
  140.8990   75.7980  221.1410 C   0  0  0  0  0  0  0  0  0  0  0  0
  141.4130   76.0260  222.2660 O   0  0  0  0  0  0  0  0  0  0  0  0
  141.3610   76.3840  219.9320 N   0  0  0  0  0  0  0  0  0  0  0  0
  140.9500   77.7110  219.4900 C   0  0  0  0  0  0  0  0  0  0  0  0
  140.9800   77.6730  217.9570 C   0  0  0  0  0  0  0  0  0  0  0  0
  142.4110   77.5770  217.4660 C   0  0  0  0  0  0  0  0  0  0  0  0
  143.2020   76.7550  218.4830 C   0  0  0  0  0  0  0  0  0  0  0  0
  142.2860   75.6780  219.0530 C   0  0  1  0  0  0  0  0  0  0  0  0
  143.1670   74.7370  219.7900 C   0  0  0  0  0  0  0  0  0  0  0  0
  144.4280   74.9280  220.2120 N   0  0  0  0  0  0  0  0  0  0  0  0
  144.8840   73.8200  220.8490 C   0  0  0  0  0  0  0  0  0  0  0  0
  143.8480   72.9000  220.8180 C   0  0  0  0  0  0  0  0  0  0  0  0
  142.8290   73.4800  220.1750 N   0  0  0  0  0  0  0  0  0  0  0  0
  140.1040   71.6890  223.0960 C   0  0  0  0  0  0  0  0  0  0  0  0
  139.5530   70.4430  222.8760 C   0  0  0  0  0  0  0  0  0  0  0  0
  139.4880   69.4810  223.8790 C   0  0  0  0  0  0  0  0  0  0  0  0
  140.0080   69.8510  225.1040 C   0  0  0  0  0  0  0  0  0  0  0  0
  139.9980   68.9690  226.1840 C   0  0  0  0  0  0  0  0  0  0  0  0
  140.5260   69.3530  227.4180 C   0  0  0  0  0  0  0  0  0  0  0  0
  140.4890   68.2080  228.7430 Cl  0  0  0  0  0  0  0  0  0  0  0  0
  141.0620   70.6180  227.5640 C   0  0  0  0  0  0  0  0  0  0  0  0
  141.0830   71.5110  226.5050 C   0  0  0  0  0  0  0  0  0  0  0  0
  140.5500   71.1070  225.2820 C   0  0  0  0  0  0  0  0  0  0  0  0
  140.6040   72.0290  224.2940 N   0  0  0  0  0  0  0  0  0  0  0  0
  139.3000   74.3120  223.1060 H   0  0  0  0  0  0  0  0  0  0  0  0
  139.8499   74.2637  220.1344 H   0  0  0  0  0  0  0  0  0  0  0  0
  138.8245   75.4692  221.0205 H   0  0  0  0  0  0  0  0  0  0  0  0
  139.9341   77.9354  219.8471 H   0  0  0  0  0  0  0  0  0  0  0  0
  141.6148   78.4922  219.8872 H   0  0  0  0  0  0  0  0  0  0  0  0
  140.4147   76.7980  217.6037 H   0  0  0  0  0  0  0  0  0  0  0  0
  140.5261   78.5952  217.5651 H   0  0  0  0  0  0  0  0  0  0  0  0
  142.4369   77.0820  216.4840 H   0  0  0  0  0  0  0  0  0  0  0  0
  142.8484   78.5808  217.3611 H   0  0  0  0  0  0  0  0  0  0  0  0
  144.0649   76.2846  217.9890 H   0  0  0  0  0  0  0  0  0  0  0  0
  143.5665   77.4058  219.2914 H   0  0  0  0  0  0  0  0  0  0  0  0
  141.7115   75.1067  218.3090 H   0  0  0  0  0  0  0  0  0  0  0  0
  145.8775   73.6800  221.2999 H   0  0  0  0  0  0  0  0  0  0  0  0
  143.8614   71.8851  221.2419 H   0  0  0  0  0  0  0  0  0  0  0  0
  141.8970   73.0260  219.9930 H   0  0  0  0  0  0  0  0  0  0  0  0
  139.1538   70.2036  221.8793 H   0  0  0  0  0  0  0  0  0  0  0  0
  139.0495   68.4869  223.7070 H   0  0  0  0  0  0  0  0  0  0  0  0
  139.5707   67.9627  226.0627 H   0  0  0  0  0  0  0  0  0  0  0  0
  141.4785   70.9208  228.5360 H   0  0  0  0  0  0  0  0  0  0  0  0
  141.5110   72.5170  226.6267 H   0  0  0  0  0  0  0  0  0  0  0  0
  1  2  2  0
  2  3  1  0
  3  4  1  0
  4  5  1  0
  5  6  2  0
  5  7  1  0
  7  8  1  0
  8  9  1  0
  9 10  1  0
 10 11  1  0
 11 12  1  0
 12 13  1  0
 13 14  2  0
 14 15  1  0
 15 16  2  0
 16 17  1  0
  2 18  1  0
 18 19  2  0
 19 20  1  0
 20 21  2  0
 21 22  1  0
 22 23  2  0
 23 24  1  0
 23 25  1  0
 25 26  2  0
 26 27  1  0
 27 28  2  0
 12  7  1  0
 17 13  1  0
 28 18  1  0
 27 21  1  0
  3 29  1  0
  4 30  1  0
  4 31  1  0
  8 32  1  0
  8 33  1  0
  9 34  1  0
  9 35  1  0
 10 36  1  0
 10 37  1  0
 11 38  1  0
 11 39  1  0
 12 40  1  6
 15 41  1  0
 16 42  1  0
 17 43  1  0
 19 44  1  0
 20 45  1  0
 22 46  1  0
 25 47  1  0
 26 48  1  0
M  END
>  <smiles>  (44) 
O=C(NCC(=O)N1CCCC[C@H]1c1ncc[nH]1)c1ccc2cc(Cl)ccc2n1

>  <score_type>  (44) 
oracle

>  <origin>  (44) 
autodockgpu

>  <m_score__min__energy>  (44) 
-7.8799999999999999

>  <m_primary>  (44) 
energy

>  <rmsd>  (44) 
3.2445780773231476

>  <m_score__min__rmsd>  (44) 
3.2445780773231476

>  <meeko>  (44) 
{"free_energy": -7.33, "intermolecular_energy": -8.82, "internal_energy": -2.42, "cluster_size": 10, "cluster_id": 4, "rank_in_cluster": 5}

>  <energy>  (44) 
-6.46

>  <cluster_rmsd>  (44) 
0.0

>  <cluster>  (44) 
9

$$$$

     RDKit          3D

 48 51  0  0  0  0  0  0  0  0999 V2000
  141.1140   76.6270  222.7240 O   0  0  0  0  0  0  0  0  0  0  0  0
  140.6450   75.8500  221.8320 C   0  0  0  0  0  0  0  0  0  0  0  0
  139.3520   76.1220  221.2960 N   0  0  0  0  0  0  0  0  0  0  0  0
  138.6610   77.2830  221.8220 C   0  0  0  0  0  0  0  0  0  0  0  0
  139.2150   78.5470  221.2770 C   0  0  0  0  0  0  0  0  0  0  0  0
  138.7710   78.9910  220.1870 O   0  0  0  0  0  0  0  0  0  0  0  0
  140.2300   79.1920  222.0340 N   0  0  0  0  0  0  0  0  0  0  0  0
  140.1240   79.4070  223.4730 C   0  0  0  0  0  0  0  0  0  0  0  0
  140.9080   80.6920  223.7660 C   0  0  0  0  0  0  0  0  0  0  0  0
  142.3910   80.4560  223.5630 C   0  0  0  0  0  0  0  0  0  0  0  0
  142.5550   79.4450  222.4270 C   0  0  0  0  0  0  0  0  0  0  0  0
  141.4500   79.6820  221.4050 C   0  0  1  0  0  0  0  0  0  0  0  0
  141.8260   78.8960  220.2030 C   0  0  0  0  0  0  0  0  0  0  0  0
  141.7820   79.2690  218.9130 N   0  0  0  0  0  0  0  0  0  0  0  0
  142.2120   78.2580  218.1160 C   0  0  0  0  0  0  0  0  0  0  0  0
  142.5380   77.2080  218.9610 C   0  0  0  0  0  0  0  0  0  0  0  0
  142.2960   77.6220  220.2100 N   0  0  0  0  0  0  0  0  0  0  0  0
  141.4120   74.7030  221.3620 C   0  0  0  0  0  0  0  0  0  0  0  0
  140.8470   73.4460  221.4380 C   0  0  0  0  0  0  0  0  0  0  0  0
  141.5240   72.3090  221.0080 C   0  0  0  0  0  0  0  0  0  0  0  0
  142.7920   72.5170  220.5040 C   0  0  0  0  0  0  0  0  0  0  0  0
  143.5650   71.4530  220.0430 C   0  0  0  0  0  0  0  0  0  0  0  0
  144.8460   71.6750  219.5340 C   0  0  0  0  0  0  0  0  0  0  0  0
  145.7780   70.3030  218.9680 Cl  0  0  0  0  0  0  0  0  0  0  0  0
  145.3470   72.9620  219.4900 C   0  0  0  0  0  0  0  0  0  0  0  0
  144.5970   74.0350  219.9420 C   0  0  0  0  0  0  0  0  0  0  0  0
  143.3200   73.7920  220.4460 C   0  0  0  0  0  0  0  0  0  0  0  0
  142.6460   74.8840  220.8690 N   0  0  0  0  0  0  0  0  0  0  0  0
  138.9180   75.5220  220.5650 H   0  0  0  0  0  0  0  0  0  0  0  0
  137.5964   77.2158  221.5536 H   0  0  0  0  0  0  0  0  0  0  0  0
  138.7931   77.2942  222.9140 H   0  0  0  0  0  0  0  0  0  0  0  0
  139.0703   79.5269  223.7652 H   0  0  0  0  0  0  0  0  0  0  0  0
  140.5236   78.5527  224.0391 H   0  0  0  0  0  0  0  0  0  0  0  0
  140.5699   81.4874  223.0856 H   0  0  0  0  0  0  0  0  0  0  0  0
  140.7310   80.9912  224.8096 H   0  0  0  0  0  0  0  0  0  0  0  0
  142.8868   81.4011  223.2967 H   0  0  0  0  0  0  0  0  0  0  0  0
  142.8478   80.0717  224.4869 H   0  0  0  0  0  0  0  0  0  0  0  0
  143.5369   79.5794  221.9496 H   0  0  0  0  0  0  0  0  0  0  0  0
  142.4893   78.4205  222.8221 H   0  0  0  0  0  0  0  0  0  0  0  0
  141.3049   80.7302  221.1046 H   0  0  0  0  0  0  0  0  0  0  0  0
  142.2870   78.2693  217.0186 H   0  0  0  0  0  0  0  0  0  0  0  0
  142.9225   76.2219  218.6613 H   0  0  0  0  0  0  0  0  0  0  0  0
  142.4480   77.0420  221.0750 H   0  0  0  0  0  0  0  0  0  0  0  0
  139.8327   73.3401  221.8502 H   0  0  0  0  0  0  0  0  0  0  0  0
  141.0762   71.3060  221.0661 H   0  0  0  0  0  0  0  0  0  0  0  0
  143.1626   70.4299  220.0805 H   0  0  0  0  0  0  0  0  0  0  0  0
  146.3566   73.1369  219.0900 H   0  0  0  0  0  0  0  0  0  0  0  0
  145.0004   75.0576  219.9041 H   0  0  0  0  0  0  0  0  0  0  0  0
  1  2  2  0
  2  3  1  0
  3  4  1  0
  4  5  1  0
  5  6  2  0
  5  7  1  0
  7  8  1  0
  8  9  1  0
  9 10  1  0
 10 11  1  0
 11 12  1  0
 12 13  1  0
 13 14  2  0
 14 15  1  0
 15 16  2  0
 16 17  1  0
  2 18  1  0
 18 19  2  0
 19 20  1  0
 20 21  2  0
 21 22  1  0
 22 23  2  0
 23 24  1  0
 23 25  1  0
 25 26  2  0
 26 27  1  0
 27 28  2  0
 12  7  1  0
 17 13  1  0
 28 18  1  0
 27 21  1  0
  3 29  1  0
  4 30  1  0
  4 31  1  0
  8 32  1  0
  8 33  1  0
  9 34  1  0
  9 35  1  0
 10 36  1  0
 10 37  1  0
 11 38  1  0
 11 39  1  0
 12 40  1  6
 15 41  1  0
 16 42  1  0
 17 43  1  0
 19 44  1  0
 20 45  1  0
 22 46  1  0
 25 47  1  0
 26 48  1  0
M  END
>  <smiles>  (45) 
O=C(NCC(=O)N1CCCC[C@H]1c1ncc[nH]1)c1ccc2cc(Cl)ccc2n1

>  <score_type>  (45) 
oracle

>  <origin>  (45) 
autodockgpu

>  <m_score__min__energy>  (45) 
-7.8799999999999999

>  <m_primary>  (45) 
energy

>  <rmsd>  (45) 
6.15373394085448

>  <m_score__min__rmsd>  (45) 
6.15373394085448

>  <meeko>  (45) 
{"free_energy": -6.44, "intermolecular_energy": -7.94, "internal_energy": -3.28, "cluster_size": 7, "cluster_id": 9, "rank_in_cluster": 5}

>  <energy>  (45) 
-6.46

>  <cluster_rmsd>  (45) 
1.99

>  <cluster>  (45) 
9

$$$$

     RDKit          3D

 48 51  0  0  0  0  0  0  0  0999 V2000
  141.0870   76.6260  222.7320 O   0  0  0  0  0  0  0  0  0  0  0  0
  140.6330   75.8570  221.8250 C   0  0  0  0  0  0  0  0  0  0  0  0
  139.3450   76.1270  221.2780 N   0  0  0  0  0  0  0  0  0  0  0  0
  138.6410   77.2780  221.8070 C   0  0  0  0  0  0  0  0  0  0  0  0
  139.1870   78.5510  221.2750 C   0  0  0  0  0  0  0  0  0  0  0  0
  138.7480   78.9970  220.1850 O   0  0  0  0  0  0  0  0  0  0  0  0
  140.1890   79.2000  222.0450 N   0  0  0  0  0  0  0  0  0  0  0  0
  140.0630   79.4170  223.4820 C   0  0  0  0  0  0  0  0  0  0  0  0
  140.8380   80.7050  223.7830 C   0  0  0  0  0  0  0  0  0  0  0  0
  142.3250   80.4750  223.6010 C   0  0  0  0  0  0  0  0  0  0  0  0
  142.5080   79.4630  222.4690 C   0  0  0  0  0  0  0  0  0  0  0  0
  141.4160   79.6940  221.4320 C   0  0  1  0  0  0  0  0  0  0  0  0
  141.8110   78.9080  220.2360 C   0  0  0  0  0  0  0  0  0  0  0  0
  141.7780   79.2770  218.9440 N   0  0  0  0  0  0  0  0  0  0  0  0
  142.2250   78.2670  218.1550 C   0  0  0  0  0  0  0  0  0  0  0  0
  142.5490   77.2230  219.0070 C   0  0  0  0  0  0  0  0  0  0  0  0
  142.2900   77.6380  220.2520 N   0  0  0  0  0  0  0  0  0  0  0  0
  141.4120   74.7190  221.3530 C   0  0  0  0  0  0  0  0  0  0  0  0
  140.8540   73.4580  221.4080 C   0  0  0  0  0  0  0  0  0  0  0  0
  141.5430   72.3300  220.9740 C   0  0  0  0  0  0  0  0  0  0  0  0
  142.8160   72.5510  220.4860 C   0  0  0  0  0  0  0  0  0  0  0  0
  143.6010   71.4960  220.0230 C   0  0  0  0  0  0  0  0  0  0  0  0
  144.8870   71.7320  219.5320 C   0  0  0  0  0  0  0  0  0  0  0  0
  145.8330   70.3720  218.9620 Cl  0  0  0  0  0  0  0  0  0  0  0  0
  145.3800   73.0220  219.5070 C   0  0  0  0  0  0  0  0  0  0  0  0
  144.6170   74.0860  219.9630 C   0  0  0  0  0  0  0  0  0  0  0  0
  143.3370   73.8290  220.4490 C   0  0  0  0  0  0  0  0  0  0  0  0
  142.6510   74.9130  220.8750 N   0  0  0  0  0  0  0  0  0  0  0  0
  138.9230   75.5320  220.5350 H   0  0  0  0  0  0  0  0  0  0  0  0
  137.5788   77.2033  221.5310 H   0  0  0  0  0  0  0  0  0  0  0  0
  138.7665   77.2827  222.8998 H   0  0  0  0  0  0  0  0  0  0  0  0
  139.0051   79.5334  223.7599 H   0  0  0  0  0  0  0  0  0  0  0  0
  140.4582   78.5651  224.0548 H   0  0  0  0  0  0  0  0  0  0  0  0
  140.5061   81.4978  223.0964 H   0  0  0  0  0  0  0  0  0  0  0  0
  140.6457   81.0051  224.8237 H   0  0  0  0  0  0  0  0  0  0  0  0
  142.8206   81.4217  223.3400 H   0  0  0  0  0  0  0  0  0  0  0  0
  142.7710   80.0943  224.5317 H   0  0  0  0  0  0  0  0  0  0  0  0
  143.4956   79.6005  222.0046 H   0  0  0  0  0  0  0  0  0  0  0  0
  142.4409   78.4389  222.8648 H   0  0  0  0  0  0  0  0  0  0  0  0
  141.2711   80.7413  221.1285 H   0  0  0  0  0  0  0  0  0  0  0  0
  142.3126   78.2754  217.0585 H   0  0  0  0  0  0  0  0  0  0  0  0
  142.9444   76.2390  218.7147 H   0  0  0  0  0  0  0  0  0  0  0  0
  142.4370   77.0610  221.1200 H   0  0  0  0  0  0  0  0  0  0  0  0
  139.8353   73.3414  221.8064 H   0  0  0  0  0  0  0  0  0  0  0  0
  141.1009   71.3237  221.0169 H   0  0  0  0  0  0  0  0  0  0  0  0
  143.2046   70.4701  220.0446 H   0  0  0  0  0  0  0  0  0  0  0  0
  146.3927   73.2079  219.1197 H   0  0  0  0  0  0  0  0  0  0  0  0
  145.0140   75.1116  219.9415 H   0  0  0  0  0  0  0  0  0  0  0  0
  1  2  2  0
  2  3  1  0
  3  4  1  0
  4  5  1  0
  5  6  2  0
  5  7  1  0
  7  8  1  0
  8  9  1  0
  9 10  1  0
 10 11  1  0
 11 12  1  0
 12 13  1  0
 13 14  2  0
 14 15  1  0
 15 16  2  0
 16 17  1  0
  2 18  1  0
 18 19  2  0
 19 20  1  0
 20 21  2  0
 21 22  1  0
 22 23  2  0
 23 24  1  0
 23 25  1  0
 25 26  2  0
 26 27  1  0
 27 28  2  0
 12  7  1  0
 17 13  1  0
 28 18  1  0
 27 21  1  0
  3 29  1  0
  4 30  1  0
  4 31  1  0
  8 32  1  0
  8 33  1  0
  9 34  1  0
  9 35  1  0
 10 36  1  0
 10 37  1  0
 11 38  1  0
 11 39  1  0
 12 40  1  6
 15 41  1  0
 16 42  1  0
 17 43  1  0
 19 44  1  0
 20 45  1  0
 22 46  1  0
 25 47  1  0
 26 48  1  0
M  END
>  <smiles>  (46) 
O=C(NCC(=O)N1CCCC[C@H]1c1ncc[nH]1)c1ccc2cc(Cl)ccc2n1

>  <score_type>  (46) 
oracle

>  <origin>  (46) 
autodockgpu

>  <m_score__min__energy>  (46) 
-7.8799999999999999

>  <m_primary>  (46) 
energy

>  <rmsd>  (46) 
6.16495925430282

>  <m_score__min__rmsd>  (46) 
6.16495925430282

>  <meeko>  (46) 
{"free_energy": -6.44, "intermolecular_energy": -7.94, "internal_energy": -3.27, "cluster_size": 7, "cluster_id": 9, "rank_in_cluster": 4}

>  <energy>  (46) 
-6.45

>  <cluster_rmsd>  (46) 
1.99

>  <cluster>  (46) 
9

$$$$

     RDKit          3D

 48 51  0  0  0  0  0  0  0  0999 V2000
  141.1130   76.6420  222.7220 O   0  0  0  0  0  0  0  0  0  0  0  0
  140.6350   75.8600  221.8390 C   0  0  0  0  0  0  0  0  0  0  0  0
  139.3360   76.1260  221.3170 N   0  0  0  0  0  0  0  0  0  0  0  0
  138.6490   77.2900  221.8430 C   0  0  0  0  0  0  0  0  0  0  0  0
  139.2090   78.5520  221.3010 C   0  0  0  0  0  0  0  0  0  0  0  0
  138.7660   79.0020  220.2140 O   0  0  0  0  0  0  0  0  0  0  0  0
  140.2280   79.1890  222.0580 N   0  0  0  0  0  0  0  0  0  0  0  0
  140.1270   79.4010  223.4970 C   0  0  0  0  0  0  0  0  0  0  0  0
  140.9180   80.6810  223.7920 C   0  0  0  0  0  0  0  0  0  0  0  0
  142.4000   80.4370  223.5860 C   0  0  0  0  0  0  0  0  0  0  0  0
  142.5560   79.4280  222.4480 C   0  0  0  0  0  0  0  0  0  0  0  0
  141.4510   79.6730  221.4280 C   0  0  1  0  0  0  0  0  0  0  0  0
  141.8210   78.8880  220.2240 C   0  0  0  0  0  0  0  0  0  0  0  0
  141.7440   79.2520  218.9320 N   0  0  0  0  0  0  0  0  0  0  0  0
  142.1800   78.2450  218.1340 C   0  0  0  0  0  0  0  0  0  0  0  0
  142.5440   77.2080  218.9780 C   0  0  0  0  0  0  0  0  0  0  0  0
  142.3170   77.6240  220.2290 N   0  0  0  0  0  0  0  0  0  0  0  0
  141.3990   74.7110  221.3680 C   0  0  0  0  0  0  0  0  0  0  0  0
  140.8220   73.4580  221.4220 C   0  0  0  0  0  0  0  0  0  0  0  0
  141.4950   72.3210  220.9890 C   0  0  0  0  0  0  0  0  0  0  0  0
  142.7720   72.5230  220.5040 C   0  0  0  0  0  0  0  0  0  0  0  0
  143.5420   71.4570  220.0410 C   0  0  0  0  0  0  0  0  0  0  0  0
  144.8320   71.6730  219.5530 C   0  0  0  0  0  0  0  0  0  0  0  0
  145.7600   70.3000  218.9840 Cl  0  0  0  0  0  0  0  0  0  0  0  0
  145.3440   72.9570  219.5290 C   0  0  0  0  0  0  0  0  0  0  0  0
  144.5970   74.0310  219.9830 C   0  0  0  0  0  0  0  0  0  0  0  0
  143.3120   73.7930  220.4670 C   0  0  0  0  0  0  0  0  0  0  0  0
  142.6410   74.8870  220.8920 N   0  0  0  0  0  0  0  0  0  0  0  0
  138.8950   75.5210  220.5940 H   0  0  0  0  0  0  0  0  0  0  0  0
  137.5846   77.2277  221.5724 H   0  0  0  0  0  0  0  0  0  0  0  0
  138.7795   77.2994  222.9352 H   0  0  0  0  0  0  0  0  0  0  0  0
  139.0747   79.5254  223.7921 H   0  0  0  0  0  0  0  0  0  0  0  0
  140.5241   78.5432  224.0595 H   0  0  0  0  0  0  0  0  0  0  0  0
  140.5832   81.4799  223.1141 H   0  0  0  0  0  0  0  0  0  0  0  0
  140.7441   80.9789  224.8365 H   0  0  0  0  0  0  0  0  0  0  0  0
  142.9008   81.3798  223.3209 H   0  0  0  0  0  0  0  0  0  0  0  0
  142.8563   80.0482  224.5083 H   0  0  0  0  0  0  0  0  0  0  0  0
  143.5379   79.5578  221.9694 H   0  0  0  0  0  0  0  0  0  0  0  0
  142.4847   78.4032  222.8413 H   0  0  0  0  0  0  0  0  0  0  0  0
  141.3113   80.7226  221.1298 H   0  0  0  0  0  0  0  0  0  0  0  0
  142.2338   78.2507  217.0353 H   0  0  0  0  0  0  0  0  0  0  0  0
  142.9438   76.2286  218.6765 H   0  0  0  0  0  0  0  0  0  0  0  0
  142.4970   77.0530  221.0950 H   0  0  0  0  0  0  0  0  0  0  0  0
  139.8011   73.3563  221.8188 H   0  0  0  0  0  0  0  0  0  0  0  0
  141.0379   71.3213  221.0303 H   0  0  0  0  0  0  0  0  0  0  0  0
  143.1297   70.4374  220.0604 H   0  0  0  0  0  0  0  0  0  0  0  0
  146.3599   73.1280  219.1435 H   0  0  0  0  0  0  0  0  0  0  0  0
  145.0093   75.0506  219.9620 H   0  0  0  0  0  0  0  0  0  0  0  0
  1  2  2  0
  2  3  1  0
  3  4  1  0
  4  5  1  0
  5  6  2  0
  5  7  1  0
  7  8  1  0
  8  9  1  0
  9 10  1  0
 10 11  1  0
 11 12  1  0
 12 13  1  0
 13 14  2  0
 14 15  1  0
 15 16  2  0
 16 17  1  0
  2 18  1  0
 18 19  2  0
 19 20  1  0
 20 21  2  0
 21 22  1  0
 22 23  2  0
 23 24  1  0
 23 25  1  0
 25 26  2  0
 26 27  1  0
 27 28  2  0
 12  7  1  0
 17 13  1  0
 28 18  1  0
 27 21  1  0
  3 29  1  0
  4 30  1  0
  4 31  1  0
  8 32  1  0
  8 33  1  0
  9 34  1  0
  9 35  1  0
 10 36  1  0
 10 37  1  0
 11 38  1  0
 11 39  1  0
 12 40  1  6
 15 41  1  0
 16 42  1  0
 17 43  1  0
 19 44  1  0
 20 45  1  0
 22 46  1  0
 25 47  1  0
 26 48  1  0
M  END
>  <smiles>  (47) 
O=C(NCC(=O)N1CCCC[C@H]1c1ncc[nH]1)c1ccc2cc(Cl)ccc2n1

>  <score_type>  (47) 
oracle

>  <origin>  (47) 
autodockgpu

>  <m_score__min__energy>  (47) 
-7.8799999999999999

>  <m_primary>  (47) 
energy

>  <rmsd>  (47) 
6.150011076583444

>  <m_score__min__rmsd>  (47) 
6.150011076583444

>  <meeko>  (47) 
{"free_energy": -6.44, "intermolecular_energy": -7.93, "internal_energy": -3.28, "cluster_size": 7, "cluster_id": 9, "rank_in_cluster": 6}

>  <energy>  (47) 
-6.44

>  <cluster_rmsd>  (47) 
1.99

>  <cluster>  (47) 
9

$$$$

     RDKit          3D

 48 51  0  0  0  0  0  0  0  0999 V2000
  142.9370   78.9550  218.3430 O   0  0  0  0  0  0  0  0  0  0  0  0
  142.3320   77.9000  218.7160 C   0  0  0  0  0  0  0  0  0  0  0  0
  141.0180   78.0180  219.2570 N   0  0  0  0  0  0  0  0  0  0  0  0
  140.4650   79.3560  219.3380 C   0  0  0  0  0  0  0  0  0  0  0  0
  139.8520   79.6190  220.6630 C   0  0  0  0  0  0  0  0  0  0  0  0
  138.5990   79.6600  220.7610 O   0  0  0  0  0  0  0  0  0  0  0  0
  140.7330   79.8110  221.7610 N   0  0  0  0  0  0  0  0  0  0  0  0
  140.9740   81.1180  222.3600 C   0  0  0  0  0  0  0  0  0  0  0  0
  142.4110   81.0790  222.8950 C   0  0  0  0  0  0  0  0  0  0  0  0
  142.5020   80.1380  224.0790 C   0  0  0  0  0  0  0  0  0  0  0  0
  141.5090   78.9970  223.8500 C   0  0  0  0  0  0  0  0  0  0  0  0
  141.4560   78.6940  222.3570 C   0  0  1  0  0  0  0  0  0  0  0  0
  140.7280   77.4070  222.2240 C   0  0  0  0  0  0  0  0  0  0  0  0
  139.4650   77.1200  222.5850 N   0  0  0  0  0  0  0  0  0  0  0  0
  139.1760   75.8270  222.2940 C   0  0  0  0  0  0  0  0  0  0  0  0
  140.3200   75.2910  221.7240 C   0  0  0  0  0  0  0  0  0  0  0  0
  141.2360   76.2650  221.6950 N   0  0  0  0  0  0  0  0  0  0  0  0
  142.9670   76.5930  218.5970 C   0  0  0  0  0  0  0  0  0  0  0  0
  143.1320   76.0440  217.3420 C   0  0  0  0  0  0  0  0  0  0  0  0
  143.7290   74.8010  217.1570 C   0  0  0  0  0  0  0  0  0  0  0  0
  144.1440   74.1550  218.3050 C   0  0  0  0  0  0  0  0  0  0  0  0
  144.7560   72.9040  218.2430 C   0  0  0  0  0  0  0  0  0  0  0  0
  145.1720   72.2590  219.4100 C   0  0  0  0  0  0  0  0  0  0  0  0
  145.9360   70.6880  219.2790 Cl  0  0  0  0  0  0  0  0  0  0  0  0
  144.9730   72.8720  220.6330 C   0  0  0  0  0  0  0  0  0  0  0  0
  144.3670   74.1150  220.7180 C   0  0  0  0  0  0  0  0  0  0  0  0
  143.9600   74.7400  219.5410 C   0  0  0  0  0  0  0  0  0  0  0  0
  143.3770   75.9500  219.7000 N   0  0  0  0  0  0  0  0  0  0  0  0
  140.4760   77.1900  219.5790 H   0  0  0  0  0  0  0  0  0  0  0  0
  141.2706   80.0853  219.1672 H   0  0  0  0  0  0  0  0  0  0  0  0
  139.6797   79.4485  218.5733 H   0  0  0  0  0  0  0  0  0  0  0  0
  140.8689   81.9102  221.6041 H   0  0  0  0  0  0  0  0  0  0  0  0
  140.2515   81.3337  223.1609 H   0  0  0  0  0  0  0  0  0  0  0  0
  143.0856   80.7290  222.0998 H   0  0  0  0  0  0  0  0  0  0  0  0
  142.7025   82.0899  223.2161 H   0  0  0  0  0  0  0  0  0  0  0  0
  143.5224   79.7351  224.1586 H   0  0  0  0  0  0  0  0  0  0  0  0
  142.2647   80.6712  225.0114 H   0  0  0  0  0  0  0  0  0  0  0  0
  141.8388   78.1024  224.3987 H   0  0  0  0  0  0  0  0  0  0  0  0
  140.5114   79.2875  224.2112 H   0  0  0  0  0  0  0  0  0  0  0  0
  142.4335   78.5933  221.8628 H   0  0  0  0  0  0  0  0  0  0  0  0
  138.2234   75.3074  222.4745 H   0  0  0  0  0  0  0  0  0  0  0  0
  140.4499   74.2598  221.3637 H   0  0  0  0  0  0  0  0  0  0  0  0
  142.2130   76.1610  221.3160 H   0  0  0  0  0  0  0  0  0  0  0  0
  142.7817   76.6049  216.4630 H   0  0  0  0  0  0  0  0  0  0  0  0
  143.8623   74.3600  216.1581 H   0  0  0  0  0  0  0  0  0  0  0  0
  144.9125   72.4210  217.2672 H   0  0  0  0  0  0  0  0  0  0  0  0
  145.3008   72.3652  221.5526 H   0  0  0  0  0  0  0  0  0  0  0  0
  144.2105   74.5981  221.6937 H   0  0  0  0  0  0  0  0  0  0  0  0
  1  2  2  0
  2  3  1  0
  3  4  1  0
  4  5  1  0
  5  6  2  0
  5  7  1  0
  7  8  1  0
  8  9  1  0
  9 10  1  0
 10 11  1  0
 11 12  1  0
 12 13  1  0
 13 14  2  0
 14 15  1  0
 15 16  2  0
 16 17  1  0
  2 18  1  0
 18 19  2  0
 19 20  1  0
 20 21  2  0
 21 22  1  0
 22 23  2  0
 23 24  1  0
 23 25  1  0
 25 26  2  0
 26 27  1  0
 27 28  2  0
 12  7  1  0
 17 13  1  0
 28 18  1  0
 27 21  1  0
  3 29  1  0
  4 30  1  0
  4 31  1  0
  8 32  1  0
  8 33  1  0
  9 34  1  0
  9 35  1  0
 10 36  1  0
 10 37  1  0
 11 38  1  0
 11 39  1  0
 12 40  1  6
 15 41  1  0
 16 42  1  0
 17 43  1  0
 19 44  1  0
 20 45  1  0
 22 46  1  0
 25 47  1  0
 26 48  1  0
M  END
>  <smiles>  (48) 
O=C(NCC(=O)N1CCCC[C@H]1c1ncc[nH]1)c1ccc2cc(Cl)ccc2n1

>  <score_type>  (48) 
oracle

>  <origin>  (48) 
autodockgpu

>  <m_score__min__energy>  (48) 
-7.8799999999999999

>  <m_primary>  (48) 
energy

>  <rmsd>  (48) 
7.541438193272566

>  <m_score__min__rmsd>  (48) 
7.541438193272566

>  <meeko>  (48) 
{"free_energy": -6.46, "intermolecular_energy": -7.95, "internal_energy": -2.71, "cluster_size": 7, "cluster_id": 9, "rank_in_cluster": 1}

>  <energy>  (48) 
-6.44

>  <cluster_rmsd>  (48) 
1.99

>  <cluster>  (48) 
9

$$$$

     RDKit          3D

 48 51  0  0  0  0  0  0  0  0999 V2000
  140.6080   72.5310  220.8040 O   0  0  0  0  0  0  0  0  0  0  0  0
  140.2330   72.8950  221.9640 C   0  0  0  0  0  0  0  0  0  0  0  0
  139.8750   74.2590  222.1730 N   0  0  0  0  0  0  0  0  0  0  0  0
  139.9670   75.1400  221.0250 C   0  0  0  0  0  0  0  0  0  0  0  0
  139.6860   76.5500  221.3880 C   0  0  0  0  0  0  0  0  0  0  0  0
  139.3070   76.8190  222.5560 O   0  0  0  0  0  0  0  0  0  0  0  0
  139.8690   77.5310  220.3750 N   0  0  0  0  0  0  0  0  0  0  0  0
  139.0220   77.6080  219.1910 C   0  0  0  0  0  0  0  0  0  0  0  0
  139.9090   78.1730  218.0750 C   0  0  0  0  0  0  0  0  0  0  0  0
  140.2390   79.6250  218.3550 C   0  0  0  0  0  0  0  0  0  0  0  0
  140.3400   79.8000  219.8710 C   0  0  0  0  0  0  0  0  0  0  0  0
  140.9290   78.5270  220.4660 C   0  0  1  0  0  0  0  0  0  0  0  0
  141.2840   78.8550  221.8710 C   0  0  0  0  0  0  0  0  0  0  0  0
  141.4110   80.0660  222.4390 N   0  0  0  0  0  0  0  0  0  0  0  0
  141.7470   79.9370  223.7480 C   0  0  0  0  0  0  0  0  0  0  0  0
  141.8320   78.5760  223.9960 C   0  0  0  0  0  0  0  0  0  0  0  0
  141.5470   77.9510  222.8480 N   0  0  0  0  0  0  0  0  0  0  0  0
  140.1710   71.9390  223.0620 C   0  0  0  0  0  0  0  0  0  0  0  0
  139.6000   70.7020  222.8390 C   0  0  0  0  0  0  0  0  0  0  0  0
  139.5090   69.7440  223.8430 C   0  0  0  0  0  0  0  0  0  0  0  0
  140.0220   70.1070  225.0720 C   0  0  0  0  0  0  0  0  0  0  0  0
  139.9860   69.2280  226.1540 C   0  0  0  0  0  0  0  0  0  0  0  0
  140.5070   69.6060  227.3930 C   0  0  0  0  0  0  0  0  0  0  0  0
  140.4370   68.4650  228.7200 Cl  0  0  0  0  0  0  0  0  0  0  0  0
  141.0630   70.8620  227.5420 C   0  0  0  0  0  0  0  0  0  0  0  0
  141.1100   71.7520  226.4810 C   0  0  0  0  0  0  0  0  0  0  0  0
  140.5840   71.3550  225.2530 C   0  0  0  0  0  0  0  0  0  0  0  0
  140.6640   72.2730  224.2650 N   0  0  0  0  0  0  0  0  0  0  0  0
  139.5610   74.6130  223.1000 H   0  0  0  0  0  0  0  0  0  0  0  0
  140.9826   75.0756  220.6074 H   0  0  0  0  0  0  0  0  0  0  0  0
  139.2152   74.8206  220.2883 H   0  0  0  0  0  0  0  0  0  0  0  0
  138.6543   76.6079  218.9180 H   0  0  0  0  0  0  0  0  0  0  0  0
  138.1404   78.2422  219.3660 H   0  0  0  0  0  0  0  0  0  0  0  0
  140.8415   77.5919  218.0224 H   0  0  0  0  0  0  0  0  0  0  0  0
  139.3702   78.1049  217.1184 H   0  0  0  0  0  0  0  0  0  0  0  0
  141.1975   79.8881  217.8837 H   0  0  0  0  0  0  0  0  0  0  0  0
  139.4577   80.2816  217.9446 H   0  0  0  0  0  0  0  0  0  0  0  0
  140.9924   80.6546  220.1033 H   0  0  0  0  0  0  0  0  0  0  0  0
  139.3431   79.9887  220.2960 H   0  0  0  0  0  0  0  0  0  0  0  0
  141.8276   78.1441  219.9601 H   0  0  0  0  0  0  0  0  0  0  0  0
  141.9178   80.7506  224.4684 H   0  0  0  0  0  0  0  0  0  0  0  0
  142.0857   78.1001  224.9547 H   0  0  0  0  0  0  0  0  0  0  0  0
  141.5310   76.9060  222.7210 H   0  0  0  0  0  0  0  0  0  0  0  0
  139.2060   70.4675  221.8391 H   0  0  0  0  0  0  0  0  0  0  0  0
  139.0558   68.7570  223.6684 H   0  0  0  0  0  0  0  0  0  0  0  0
  139.5435   68.2286  226.0303 H   0  0  0  0  0  0  0  0  0  0  0  0
  141.4746   71.1600  228.5176 H   0  0  0  0  0  0  0  0  0  0  0  0
  141.5532   72.7510  226.6054 H   0  0  0  0  0  0  0  0  0  0  0  0
  1  2  2  0
  2  3  1  0
  3  4  1  0
  4  5  1  0
  5  6  2  0
  5  7  1  0
  7  8  1  0
  8  9  1  0
  9 10  1  0
 10 11  1  0
 11 12  1  0
 12 13  1  0
 13 14  2  0
 14 15  1  0
 15 16  2  0
 16 17  1  0
  2 18  1  0
 18 19  2  0
 19 20  1  0
 20 21  2  0
 21 22  1  0
 22 23  2  0
 23 24  1  0
 23 25  1  0
 25 26  2  0
 26 27  1  0
 27 28  2  0
 12  7  1  0
 17 13  1  0
 28 18  1  0
 27 21  1  0
  3 29  1  0
  4 30  1  0
  4 31  1  0
  8 32  1  0
  8 33  1  0
  9 34  1  0
  9 35  1  0
 10 36  1  0
 10 37  1  0
 11 38  1  0
 11 39  1  0
 12 40  1  6
 15 41  1  0
 16 42  1  0
 17 43  1  0
 19 44  1  0
 20 45  1  0
 22 46  1  0
 25 47  1  0
 26 48  1  0
M  END
>  <smiles>  (49) 
O=C(NCC(=O)N1CCCC[C@H]1c1ncc[nH]1)c1ccc2cc(Cl)ccc2n1

>  <score_type>  (49) 
oracle

>  <origin>  (49) 
autodockgpu

>  <m_score__min__energy>  (49) 
-7.8799999999999999

>  <m_primary>  (49) 
energy

>  <rmsd>  (49) 
2.1687077404948036

>  <m_score__min__rmsd>  (49) 
2.1687077404948036

>  <meeko>  (49) 
{"free_energy": -7.37, "intermolecular_energy": -8.86, "internal_energy": -2.04, "cluster_size": 2, "cluster_id": 2, "rank_in_cluster": 2}

>  <energy>  (49) 
-6.44

>  <cluster_rmsd>  (49) 
1.99

>  <cluster>  (49) 
9

$$$$

     RDKit          3D

 48 51  0  0  0  0  0  0  0  0999 V2000
  138.8950   70.5730  221.2350 O   0  0  0  0  0  0  0  0  0  0  0  0
  139.0260   71.4070  222.1870 C   0  0  0  0  0  0  0  0  0  0  0  0
  138.6420   72.7620  221.9700 N   0  0  0  0  0  0  0  0  0  0  0  0
  138.1230   73.0890  220.6560 C   0  0  0  0  0  0  0  0  0  0  0  0
  139.1090   73.8450  219.8460 C   0  0  0  0  0  0  0  0  0  0  0  0
  138.6980   74.7100  219.0310 O   0  0  0  0  0  0  0  0  0  0  0  0
  140.4830   73.5420  220.0450 N   0  0  0  0  0  0  0  0  0  0  0  0
  141.2600   72.7470  219.1010 C   0  0  0  0  0  0  0  0  0  0  0  0
  142.3220   72.0210  219.9360 C   0  0  0  0  0  0  0  0  0  0  0  0
  143.3380   73.0140  220.4650 C   0  0  0  0  0  0  0  0  0  0  0  0
  142.6100   74.3310  220.7350 C   0  0  0  0  0  0  0  0  0  0  0  0
  141.2010   74.0150  221.2220 C   0  0  1  0  0  0  0  0  0  0  0  0
  140.6530   75.2900  221.7500 C   0  0  0  0  0  0  0  0  0  0  0  0
  139.4770   75.5030  222.3660 N   0  0  0  0  0  0  0  0  0  0  0  0
  139.3500   76.8130  222.6960 C   0  0  0  0  0  0  0  0  0  0  0  0
  140.5080   77.4380  222.2600 C   0  0  0  0  0  0  0  0  0  0  0  0
  141.2720   76.4970  221.6950 N   0  0  0  0  0  0  0  0  0  0  0  0
  139.5580   70.9880  223.4780 C   0  0  0  0  0  0  0  0  0  0  0  0
  140.3300   71.8750  224.2010 C   0  0  0  0  0  0  0  0  0  0  0  0
  140.8690   71.5400  225.4390 C   0  0  0  0  0  0  0  0  0  0  0  0
  140.5840   70.2690  225.8960 C   0  0  0  0  0  0  0  0  0  0  0  0
  141.0710   69.8210  227.1240 C   0  0  0  0  0  0  0  0  0  0  0  0
  140.7760   68.5340  227.5770 C   0  0  0  0  0  0  0  0  0  0  0  0
  141.4110   68.0200  229.1270 Cl  0  0  0  0  0  0  0  0  0  0  0  0
  139.9960   67.7000  226.7980 C   0  0  0  0  0  0  0  0  0  0  0  0
  139.5030   68.1230  225.5750 C   0  0  0  0  0  0  0  0  0  0  0  0
  139.8080   69.4120  225.1410 C   0  0  0  0  0  0  0  0  0  0  0  0
  139.2930   69.7570  223.9400 N   0  0  0  0  0  0  0  0  0  0  0  0
  138.7270   73.4870  222.7110 H   0  0  0  0  0  0  0  0  0  0  0  0
  137.8712   72.1560  220.1305 H   0  0  0  0  0  0  0  0  0  0  0  0
  137.2327   73.7215  220.7881 H   0  0  0  0  0  0  0  0  0  0  0  0
  140.6124   72.0196  218.5897 H   0  0  0  0  0  0  0  0  0  0  0  0
  141.7184   73.3769  218.3244 H   0  0  0  0  0  0  0  0  0  0  0  0
  141.8352   71.5133  220.7817 H   0  0  0  0  0  0  0  0  0  0  0  0
  142.8360   71.2836  219.3020 H   0  0  0  0  0  0  0  0  0  0  0  0
  143.7818   72.6342  221.3971 H   0  0  0  0  0  0  0  0  0  0  0  0
  144.1445   73.1648  219.7323 H   0  0  0  0  0  0  0  0  0  0  0  0
  143.1493   74.9017  221.5053 H   0  0  0  0  0  0  0  0  0  0  0  0
  142.5643   74.9314  219.8144 H   0  0  0  0  0  0  0  0  0  0  0  0
  141.1364   73.2540  222.0137 H   0  0  0  0  0  0  0  0  0  0  0  0
  138.4981   77.2849  223.2075 H   0  0  0  0  0  0  0  0  0  0  0  0
  140.7522   78.5059  222.3599 H   0  0  0  0  0  0  0  0  0  0  0  0
  142.2200   76.6670  221.2700 H   0  0  0  0  0  0  0  0  0  0  0  0
  140.5245   72.8752  223.7865 H   0  0  0  0  0  0  0  0  0  0  0  0
  141.4843   72.2444  226.0179 H   0  0  0  0  0  0  0  0  0  0  0  0
  141.6925   70.4872  227.7403 H   0  0  0  0  0  0  0  0  0  0  0  0
  139.7636   66.6857  227.1547 H   0  0  0  0  0  0  0  0  0  0  0  0
  138.8833   67.4553  224.9585 H   0  0  0  0  0  0  0  0  0  0  0  0
  1  2  2  0
  2  3  1  0
  3  4  1  0
  4  5  1  0
  5  6  2  0
  5  7  1  0
  7  8  1  0
  8  9  1  0
  9 10  1  0
 10 11  1  0
 11 12  1  0
 12 13  1  0
 13 14  2  0
 14 15  1  0
 15 16  2  0
 16 17  1  0
  2 18  1  0
 18 19  2  0
 19 20  1  0
 20 21  2  0
 21 22  1  0
 22 23  2  0
 23 24  1  0
 23 25  1  0
 25 26  2  0
 26 27  1  0
 27 28  2  0
 12  7  1  0
 17 13  1  0
 28 18  1  0
 27 21  1  0
  3 29  1  0
  4 30  1  0
  4 31  1  0
  8 32  1  0
  8 33  1  0
  9 34  1  0
  9 35  1  0
 10 36  1  0
 10 37  1  0
 11 38  1  0
 11 39  1  0
 12 40  1  1
 15 41  1  0
 16 42  1  0
 17 43  1  0
 19 44  1  0
 20 45  1  0
 22 46  1  0
 25 47  1  0
 26 48  1  0
M  END
>  <smiles>  (50) 
O=C(NCC(=O)N1CCCC[C@H]1c1ncc[nH]1)c1ccc2cc(Cl)ccc2n1

>  <score_type>  (50) 
oracle

>  <origin>  (50) 
autodockgpu

>  <m_score__min__energy>  (50) 
-7.8799999999999999

>  <m_primary>  (50) 
energy

>  <rmsd>  (50) 
3.230575314166506

>  <m_score__min__rmsd>  (50) 
3.230575314166506

>  <meeko>  (50) 
{"free_energy": -7.32, "intermolecular_energy": -8.82, "internal_energy": -2.52, "cluster_size": 7, "cluster_id": 5, "rank_in_cluster": 3}

>  <energy>  (50) 
-6.42

>  <cluster_rmsd>  (50) 
1.98

>  <cluster>  (50) 
9

$$$$
