
     RDKit          3D

 39 41  0  0  0  0  0  0  0  0999 V2000
  140.6910   71.3070  221.4430 O   0  0  0  0  0  0  0  0  0  0  0  0
  140.2610   71.7880  222.5440 C   0  0  0  0  0  0  0  0  0  0  0  0
  139.8700   73.1440  222.5250 N   0  0  0  0  0  0  0  0  0  0  0  0
  139.9710   73.9020  221.3020 C   0  0  0  0  0  0  0  0  0  0  0  0
  140.1580   75.3250  221.6170 C   0  0  0  0  0  0  0  0  0  0  0  0
  139.7360   75.7610  222.7120 O   0  0  0  0  0  0  0  0  0  0  0  0
  140.7950   76.2410  220.7450 N   0  0  0  0  0  0  0  0  0  0  0  0
  142.0610   76.0000  220.0790 C   0  0  0  0  0  0  0  0  0  0  0  0
  142.3980   77.3540  219.4420 C   0  0  0  0  0  0  0  0  0  0  0  0
  141.5440   78.3540  220.2260 C   0  0  2  0  0  0  0  0  0  0  0  0
  142.1680   78.6380  221.4160 O   0  0  0  0  0  0  0  0  0  0  0  0
  140.2740   77.5490  220.3950 C   0  0  0  0  0  0  0  0  0  0  0  0
  140.1830   70.9710  223.7500 C   0  0  0  0  0  0  0  0  0  0  0  0
  139.5710   69.7320  223.6700 C   0  0  0  0  0  0  0  0  0  0  0  0
  139.4560   68.9010  224.7640 C   0  0  0  0  0  0  0  0  0  0  0  0
  139.9680   69.3200  225.9700 C   0  0  0  0  0  0  0  0  0  0  0  0
  139.8610   68.4960  227.0810 C   0  0  0  0  0  0  0  0  0  0  0  0
  140.3750   68.9160  228.2960 C   0  0  0  0  0  0  0  0  0  0  0  0
  140.2870   68.1320  229.4070 F   0  0  0  0  0  0  0  0  0  0  0  0
  140.9710   70.1420  228.3390 C   0  0  0  0  0  0  0  0  0  0  0  0
  141.0840   70.9740  227.2380 C   0  0  0  0  0  0  0  0  0  0  0  0
  140.5680   70.5550  226.0140 C   0  0  0  0  0  0  0  0  0  0  0  0
  140.6690   71.3480  224.9350 N   0  0  0  0  0  0  0  0  0  0  0  0
  139.5170   73.5620  223.4030 H   0  0  0  0  0  0  0  0  0  0  0  0
  140.8299   73.5407  220.7174 H   0  0  0  0  0  0  0  0  0  0  0  0
  139.0478   73.7760  220.7173 H   0  0  0  0  0  0  0  0  0  0  0  0
  142.8348   75.7029  220.8022 H   0  0  0  0  0  0  0  0  0  0  0  0
  142.0082   75.1835  219.3438 H   0  0  0  0  0  0  0  0  0  0  0  0
  143.4683   77.5826  219.5524 H   0  0  0  0  0  0  0  0  0  0  0  0
  142.1925   77.3768  218.3616 H   0  0  0  0  0  0  0  0  0  0  0  0
  141.3708   79.3347  219.7588 H   0  0  0  0  0  0  0  0  0  0  0  0
  142.7390   77.8840  221.7220 H   0  0  0  0  0  0  0  0  0  0  0  0
  139.6450   77.9578  221.1995 H   0  0  0  0  0  0  0  0  0  0  0  0
  139.6267   77.5469  219.5056 H   0  0  0  0  0  0  0  0  0  0  0  0
  139.1638   69.4002  222.7035 H   0  0  0  0  0  0  0  0  0  0  0  0
  138.9640   67.9213  224.6742 H   0  0  0  0  0  0  0  0  0  0  0  0
  139.3707   67.5149  226.9970 H   0  0  0  0  0  0  0  0  0  0  0  0
  141.3834   70.4878  229.2983 H   0  0  0  0  0  0  0  0  0  0  0  0
  141.5753   71.9540  227.3289 H   0  0  0  0  0  0  0  0  0  0  0  0
  1  2  2  0
  2  3  1  0
  3  4  1  0
  4  5  1  0
  5  6  2  0
  5  7  1  0
  7  8  1  0
  8  9  1  0
  9 10  1  0
 10 11  1  0
 10 12  1  0
  2 13  1  0
 13 14  2  0
 14 15  1  0
 15 16  2  0
 16 17  1  0
 17 18  2  0
 18 19  1  0
 18 20  1  0
 20 21  2  0
 21 22  1  0
 22 23  2  0
 12  7  1  0
 23 13  1  0
 22 16  1  0
  3 24  1  0
  4 25  1  0
  4 26  1  0
  8 27  1  0
  8 28  1  0
  9 29  1  0
  9 30  1  0
 10 31  1  6
 11 32  1  0
 12 33  1  0
 12 34  1  0
 14 35  1  0
 15 36  1  0
 17 37  1  0
 20 38  1  0
 21 39  1  0
M  END
>  <smiles>  (1) 
O=C(NCC(=O)N1CC[C@H](O)C1)c1ccc2cc(F)ccc2n1

>  <score_type>  (1) 
oracle

>  <origin>  (1) 
autodockgpu

>  <m_score__min__energy>  (1) 
-7.7000000000000002

>  <m_primary>  (1) 
energy

>  <rmsd>  (1) 
1.9505797546997785

>  <m_score__min__rmsd>  (1) 
1.9505797546997785

>  <meeko>  (1) 
{"free_energy": -6.65, "intermolecular_energy": -8.14, "internal_energy": -1.21, "cluster_size": 10, "cluster_id": 2, "rank_in_cluster": 6}

>  <energy>  (1) 
-7.7

>  <cluster_rmsd>  (1) 
0.0

>  <cluster>  (1) 
1

$$$$

     RDKit          3D

 39 41  0  0  0  0  0  0  0  0999 V2000
  139.3910   70.9250  221.4200 O   0  0  0  0  0  0  0  0  0  0  0  0
  139.6040   71.4850  222.5460 C   0  0  0  0  0  0  0  0  0  0  0  0
  139.7270   72.8910  222.5320 N   0  0  0  0  0  0  0  0  0  0  0  0
  139.6110   73.6080  221.2870 C   0  0  0  0  0  0  0  0  0  0  0  0
  140.5490   74.7390  221.2780 C   0  0  0  0  0  0  0  0  0  0  0  0
  140.7210   75.3890  222.3350 O   0  0  0  0  0  0  0  0  0  0  0  0
  141.2800   75.1400  220.1330 N   0  0  0  0  0  0  0  0  0  0  0  0
  141.9440   74.2290  219.2200 C   0  0  0  0  0  0  0  0  0  0  0  0
  142.7450   75.1600  218.3000 C   0  0  0  0  0  0  0  0  0  0  0  0
  142.8490   76.4640  219.0950 C   0  0  2  0  0  0  0  0  0  0  0  0
  143.8540   76.3420  220.0250 O   0  0  0  0  0  0  0  0  0  0  0  0
  141.4690   76.5150  219.7120 C   0  0  0  0  0  0  0  0  0  0  0  0
  139.7140   70.7050  223.7730 C   0  0  0  0  0  0  0  0  0  0  0  0
  139.1980   69.4210  223.7880 C   0  0  0  0  0  0  0  0  0  0  0  0
  139.2600   68.6200  224.9090 C   0  0  0  0  0  0  0  0  0  0  0  0
  139.8560   69.1160  226.0440 C   0  0  0  0  0  0  0  0  0  0  0  0
  139.9280   68.3240  227.1800 C   0  0  0  0  0  0  0  0  0  0  0  0
  140.5270   68.8220  228.3250 C   0  0  0  0  0  0  0  0  0  0  0  0
  140.6150   68.0700  229.4580 F   0  0  0  0  0  0  0  0  0  0  0  0
  141.0250   70.0900  228.2750 C   0  0  0  0  0  0  0  0  0  0  0  0
  140.9600   70.8920  227.1490 C   0  0  0  0  0  0  0  0  0  0  0  0
  140.3570   70.3950  225.9950 C   0  0  0  0  0  0  0  0  0  0  0  0
  140.2850   71.1570  224.8920 N   0  0  0  0  0  0  0  0  0  0  0  0
  139.9010   73.3730  223.4310 H   0  0  0  0  0  0  0  0  0  0  0  0
  139.8459   72.9314  220.4521 H   0  0  0  0  0  0  0  0  0  0  0  0
  138.5836   73.9857  221.1783 H   0  0  0  0  0  0  0  0  0  0  0  0
  142.6118   73.5450  219.7642 H   0  0  0  0  0  0  0  0  0  0  0  0
  141.2404   73.5867  218.6702 H   0  0  0  0  0  0  0  0  0  0  0  0
  143.7432   74.7451  218.0966 H   0  0  0  0  0  0  0  0  0  0  0  0
  142.2684   75.2988  217.3184 H   0  0  0  0  0  0  0  0  0  0  0  0
  143.0989   77.3732  218.5285 H   0  0  0  0  0  0  0  0  0  0  0  0
  144.1080   77.2220  220.4110 H   0  0  0  0  0  0  0  0  0  0  0  0
  141.4389   77.2038  220.5691 H   0  0  0  0  0  0  0  0  0  0  0  0
  140.6893   76.8823  219.0286 H   0  0  0  0  0  0  0  0  0  0  0  0
  138.7235   69.0269  222.8772 H   0  0  0  0  0  0  0  0  0  0  0  0
  138.8404   67.6033  224.8951 H   0  0  0  0  0  0  0  0  0  0  0  0
  139.5116   67.3059  227.1717 H   0  0  0  0  0  0  0  0  0  0  0  0
  141.5039   70.4974  229.1776 H   0  0  0  0  0  0  0  0  0  0  0  0
  141.3790   71.9089  227.1647 H   0  0  0  0  0  0  0  0  0  0  0  0
  1  2  2  0
  2  3  1  0
  3  4  1  0
  4  5  1  0
  5  6  2  0
  5  7  1  0
  7  8  1  0
  8  9  1  0
  9 10  1  0
 10 11  1  0
 10 12  1  0
  2 13  1  0
 13 14  2  0
 14 15  1  0
 15 16  2  0
 16 17  1  0
 17 18  2  0
 18 19  1  0
 18 20  1  0
 20 21  2  0
 21 22  1  0
 22 23  2  0
 12  7  1  0
 23 13  1  0
 22 16  1  0
  3 24  1  0
  4 25  1  0
  4 26  1  0
  8 27  1  0
  8 28  1  0
  9 29  1  0
  9 30  1  0
 10 31  1  6
 11 32  1  0
 12 33  1  0
 12 34  1  0
 14 35  1  0
 15 36  1  0
 17 37  1  0
 20 38  1  0
 21 39  1  0
M  END
>  <smiles>  (2) 
O=C(NCC(=O)N1CC[C@H](O)C1)c1ccc2cc(F)ccc2n1

>  <score_type>  (2) 
oracle

>  <origin>  (2) 
autodockgpu

>  <m_score__min__energy>  (2) 
-7.7000000000000002

>  <m_primary>  (2) 
energy

>  <rmsd>  (2) 
1.9146999091743682

>  <m_score__min__rmsd>  (2) 
1.9146999091743682

>  <meeko>  (2) 
{"free_energy": -6.47, "intermolecular_energy": -7.96, "internal_energy": -1.17, "cluster_size": 10, "cluster_id": 2, "rank_in_cluster": 8}

>  <energy>  (2) 
-7.69

>  <cluster_rmsd>  (2) 
0.08

>  <cluster>  (2) 
1

$$$$

     RDKit          3D

 39 41  0  0  0  0  0  0  0  0999 V2000
  139.8210   73.6260  222.4080 O   0  0  0  0  0  0  0  0  0  0  0  0
  140.3660   72.4720  222.4210 C   0  0  0  0  0  0  0  0  0  0  0  0
  141.0830   72.1060  221.2620 N   0  0  0  0  0  0  0  0  0  0  0  0
  141.1660   73.0220  220.1510 C   0  0  0  0  0  0  0  0  0  0  0  0
  142.4430   72.8340  219.4500 C   0  0  0  0  0  0  0  0  0  0  0  0
  142.4270   72.4480  218.2590 O   0  0  0  0  0  0  0  0  0  0  0  0
  143.7060   73.0680  220.0480 N   0  0  0  0  0  0  0  0  0  0  0  0
  144.1980   74.3710  220.4510 C   0  0  0  0  0  0  0  0  0  0  0  0
  145.6590   74.1040  220.8340 C   0  0  0  0  0  0  0  0  0  0  0  0
  145.9870   72.7800  220.1370 C   0  0  2  0  0  0  0  0  0  0  0  0
  146.2670   73.0290  218.8160 O   0  0  0  0  0  0  0  0  0  0  0  0
  144.6850   72.0380  220.3430 C   0  0  0  0  0  0  0  0  0  0  0  0
  140.2450   71.5890  223.5750 C   0  0  0  0  0  0  0  0  0  0  0  0
  139.6080   70.3720  223.4120 C   0  0  0  0  0  0  0  0  0  0  0  0
  139.4520   69.4820  224.4540 C   0  0  0  0  0  0  0  0  0  0  0  0
  139.9490   69.8190  225.6920 C   0  0  0  0  0  0  0  0  0  0  0  0
  139.8020   68.9350  226.7510 C   0  0  0  0  0  0  0  0  0  0  0  0
  140.3000   69.2720  227.9980 C   0  0  0  0  0  0  0  0  0  0  0  0
  140.1720   68.4280  229.0590 F   0  0  0  0  0  0  0  0  0  0  0  0
  140.9220   70.4790  228.1220 C   0  0  0  0  0  0  0  0  0  0  0  0
  141.0760   71.3710  227.0750 C   0  0  0  0  0  0  0  0  0  0  0  0
  140.5750   71.0350  225.8180 C   0  0  0  0  0  0  0  0  0  0  0  0
  140.7150   71.8860  224.7900 N   0  0  0  0  0  0  0  0  0  0  0  0
  141.5350   71.1760  221.2430 H   0  0  0  0  0  0  0  0  0  0  0  0
  140.3354   72.8302  219.4558 H   0  0  0  0  0  0  0  0  0  0  0  0
  141.1035   74.0548  220.5244 H   0  0  0  0  0  0  0  0  0  0  0  0
  144.1350   75.0886  219.6197 H   0  0  0  0  0  0  0  0  0  0  0  0
  143.6150   74.8118  221.2731 H   0  0  0  0  0  0  0  0  0  0  0  0
  146.3126   74.9103  220.4698 H   0  0  0  0  0  0  0  0  0  0  0  0
  145.8106   74.0591  221.9226 H   0  0  0  0  0  0  0  0  0  0  0  0
  146.8600   72.2235  220.5087 H   0  0  0  0  0  0  0  0  0  0  0  0
  146.3210   74.0040  218.6270 H   0  0  0  0  0  0  0  0  0  0  0  0
  144.5940   71.1888  219.6498 H   0  0  0  0  0  0  0  0  0  0  0  0
  144.5781   71.5958  221.3445 H   0  0  0  0  0  0  0  0  0  0  0  0
  139.2135   70.1057  222.4203 H   0  0  0  0  0  0  0  0  0  0  0  0
  138.9399   68.5210  224.2983 H   0  0  0  0  0  0  0  0  0  0  0  0
  139.2926   67.9717  226.6007 H   0  0  0  0  0  0  0  0  0  0  0  0
  141.3230   70.7589  229.1073 H   0  0  0  0  0  0  0  0  0  0  0  0
  141.5869   72.3323  227.2325 H   0  0  0  0  0  0  0  0  0  0  0  0
  1  2  2  0
  2  3  1  0
  3  4  1  0
  4  5  1  0
  5  6  2  0
  5  7  1  0
  7  8  1  0
  8  9  1  0
  9 10  1  0
 10 11  1  0
 10 12  1  0
  2 13  1  0
 13 14  2  0
 14 15  1  0
 15 16  2  0
 16 17  1  0
 17 18  2  0
 18 19  1  0
 18 20  1  0
 20 21  2  0
 21 22  1  0
 22 23  2  0
 12  7  1  0
 23 13  1  0
 22 16  1  0
  3 24  1  0
  4 25  1  0
  4 26  1  0
  8 27  1  0
  8 28  1  0
  9 29  1  0
  9 30  1  0
 10 31  1  1
 11 32  1  0
 12 33  1  0
 12 34  1  0
 14 35  1  0
 15 36  1  0
 17 37  1  0
 20 38  1  0
 21 39  1  0
M  END
>  <smiles>  (3) 
O=C(NCC(=O)N1CC[C@H](O)C1)c1ccc2cc(F)ccc2n1

>  <score_type>  (3) 
oracle

>  <origin>  (3) 
autodockgpu

>  <m_score__min__energy>  (3) 
-7.7000000000000002

>  <m_primary>  (3) 
energy

>  <rmsd>  (3) 
3.9285319197235538

>  <m_score__min__rmsd>  (3) 
3.9285319197235538

>  <meeko>  (3) 
{"free_energy": -7.7, "intermolecular_energy": -9.19, "internal_energy": -0.75, "cluster_size": 35, "cluster_id": 1, "rank_in_cluster": 1}

>  <energy>  (3) 
-7.69

>  <cluster_rmsd>  (3) 
0.07

>  <cluster>  (3) 
1

$$$$

     RDKit          3D

 39 41  0  0  0  0  0  0  0  0999 V2000
  140.2000   73.6560  222.3140 O   0  0  0  0  0  0  0  0  0  0  0  0
  140.4880   72.4140  222.2860 C   0  0  0  0  0  0  0  0  0  0  0  0
  140.9800   71.9120  221.0630 N   0  0  0  0  0  0  0  0  0  0  0  0
  141.1310   72.7970  219.9340 C   0  0  0  0  0  0  0  0  0  0  0  0
  142.4560   72.6030  219.3280 C   0  0  0  0  0  0  0  0  0  0  0  0
  142.5270   72.1170  218.1750 O   0  0  0  0  0  0  0  0  0  0  0  0
  143.6690   72.9360  219.9770 N   0  0  0  0  0  0  0  0  0  0  0  0
  144.0600   74.2820  220.3520 C   0  0  0  0  0  0  0  0  0  0  0  0
  145.5140   74.1210  220.8160 C   0  0  0  0  0  0  0  0  0  0  0  0
  145.9560   72.7960  220.1880 C   0  0  2  0  0  0  0  0  0  0  0  0
  146.2880   73.0140  218.8730 O   0  0  0  0  0  0  0  0  0  0  0  0
  144.6930   71.9810  220.3590 C   0  0  0  0  0  0  0  0  0  0  0  0
  140.3120   71.5680  223.4620 C   0  0  0  0  0  0  0  0  0  0  0  0
  139.6390   70.3680  223.3180 C   0  0  0  0  0  0  0  0  0  0  0  0
  139.4310   69.5140  224.3800 C   0  0  0  0  0  0  0  0  0  0  0  0
  139.9090   69.8700  225.6190 C   0  0  0  0  0  0  0  0  0  0  0  0
  139.7080   69.0220  226.6990 C   0  0  0  0  0  0  0  0  0  0  0  0
  140.1880   69.3790  227.9470 C   0  0  0  0  0  0  0  0  0  0  0  0
  140.0080   68.5710  229.0290 F   0  0  0  0  0  0  0  0  0  0  0  0
  140.8450   70.5690  228.0530 C   0  0  0  0  0  0  0  0  0  0  0  0
  141.0530   71.4250  226.9850 C   0  0  0  0  0  0  0  0  0  0  0  0
  140.5710   71.0690  225.7270 C   0  0  0  0  0  0  0  0  0  0  0  0
  140.7630   71.8850  224.6780 N   0  0  0  0  0  0  0  0  0  0  0  0
  141.2220   70.9070  221.0100 H   0  0  0  0  0  0  0  0  0  0  0  0
  140.3521   72.5762  219.1893 H   0  0  0  0  0  0  0  0  0  0  0  0
  141.0333   73.8393  220.2718 H   0  0  0  0  0  0  0  0  0  0  0  0
  143.9959   74.9636  219.4910 H   0  0  0  0  0  0  0  0  0  0  0  0
  143.4102   74.7150  221.1268 H   0  0  0  0  0  0  0  0  0  0  0  0
  146.1352   74.9529  220.4526 H   0  0  0  0  0  0  0  0  0  0  0  0
  145.6128   74.1252  221.9115 H   0  0  0  0  0  0  0  0  0  0  0  0
  146.8409   72.3091  220.6237 H   0  0  0  0  0  0  0  0  0  0  0  0
  146.3180   73.9840  218.6550 H   0  0  0  0  0  0  0  0  0  0  0  0
  144.6897   71.1035  219.6956 H   0  0  0  0  0  0  0  0  0  0  0  0
  144.5625   71.5688  221.3705 H   0  0  0  0  0  0  0  0  0  0  0  0
  139.2580   70.0865  222.3252 H   0  0  0  0  0  0  0  0  0  0  0  0
  138.8925   68.5653  224.2387 H   0  0  0  0  0  0  0  0  0  0  0  0
  139.1704   68.0719  226.5639 H   0  0  0  0  0  0  0  0  0  0  0  0
  141.2304   70.8648  229.0399 H   0  0  0  0  0  0  0  0  0  0  0  0
  141.5915   72.3735  227.1276 H   0  0  0  0  0  0  0  0  0  0  0  0
  1  2  2  0
  2  3  1  0
  3  4  1  0
  4  5  1  0
  5  6  2  0
  5  7  1  0
  7  8  1  0
  8  9  1  0
  9 10  1  0
 10 11  1  0
 10 12  1  0
  2 13  1  0
 13 14  2  0
 14 15  1  0
 15 16  2  0
 16 17  1  0
 17 18  2  0
 18 19  1  0
 18 20  1  0
 20 21  2  0
 21 22  1  0
 22 23  2  0
 12  7  1  0
 23 13  1  0
 22 16  1  0
  3 24  1  0
  4 25  1  0
  4 26  1  0
  8 27  1  0
  8 28  1  0
  9 29  1  0
  9 30  1  0
 10 31  1  1
 11 32  1  0
 12 33  1  0
 12 34  1  0
 14 35  1  0
 15 36  1  0
 17 37  1  0
 20 38  1  0
 21 39  1  0
M  END
>  <smiles>  (4) 
O=C(NCC(=O)N1CC[C@H](O)C1)c1ccc2cc(F)ccc2n1

>  <score_type>  (4) 
oracle

>  <origin>  (4) 
autodockgpu

>  <m_score__min__energy>  (4) 
-7.7000000000000002

>  <m_primary>  (4) 
energy

>  <rmsd>  (4) 
3.9367450316947465

>  <m_score__min__rmsd>  (4) 
3.9367450316947465

>  <meeko>  (4) 
{"free_energy": -7.61, "intermolecular_energy": -9.1, "internal_energy": -0.78, "cluster_size": 35, "cluster_id": 1, "rank_in_cluster": 10}

>  <energy>  (4) 
-7.68

>  <cluster_rmsd>  (4) 
0.06

>  <cluster>  (4) 
1

$$$$

     RDKit          3D

 39 41  0  0  0  0  0  0  0  0999 V2000
  140.4250   73.6340  222.3440 O   0  0  0  0  0  0  0  0  0  0  0  0
  140.4400   72.3600  222.2800 C   0  0  0  0  0  0  0  0  0  0  0  0
  140.6340   71.8000  220.9990 N   0  0  0  0  0  0  0  0  0  0  0  0
  140.8000   72.6640  219.8570 C   0  0  0  0  0  0  0  0  0  0  0  0
  142.1570   72.5120  219.3150 C   0  0  0  0  0  0  0  0  0  0  0  0
  142.3120   71.8800  218.2440 O   0  0  0  0  0  0  0  0  0  0  0  0
  143.3120   73.0440  219.9380 N   0  0  0  0  0  0  0  0  0  0  0  0
  143.6850   74.4460  219.9200 C   0  0  0  0  0  0  0  0  0  0  0  0
  145.0890   74.4540  220.5390 C   0  0  0  0  0  0  0  0  0  0  0  0
  145.5690   73.0080  220.3840 C   0  0  2  0  0  0  0  0  0  0  0  0
  146.0190   72.8220  219.0990 O   0  0  0  0  0  0  0  0  0  0  0  0
  144.2850   72.2650  220.6800 C   0  0  0  0  0  0  0  0  0  0  0  0
  140.2650   71.5380  223.4720 C   0  0  0  0  0  0  0  0  0  0  0  0
  139.6060   70.3270  223.3490 C   0  0  0  0  0  0  0  0  0  0  0  0
  139.4000   69.4940  224.4280 C   0  0  0  0  0  0  0  0  0  0  0  0
  139.8650   69.8820  225.6630 C   0  0  0  0  0  0  0  0  0  0  0  0
  139.6660   69.0550  226.7580 C   0  0  0  0  0  0  0  0  0  0  0  0
  140.1340   69.4440  228.0020 C   0  0  0  0  0  0  0  0  0  0  0  0
  139.9550   68.6560  229.1000 F   0  0  0  0  0  0  0  0  0  0  0  0
  140.7780   70.6430  228.0870 C   0  0  0  0  0  0  0  0  0  0  0  0
  140.9840   71.4770  227.0020 C   0  0  0  0  0  0  0  0  0  0  0  0
  140.5140   71.0900  225.7490 C   0  0  0  0  0  0  0  0  0  0  0  0
  140.7040   71.8860  224.6840 N   0  0  0  0  0  0  0  0  0  0  0  0
  140.6500   70.7690  220.9150 H   0  0  0  0  0  0  0  0  0  0  0  0
  140.0651   72.3941  219.0843 H   0  0  0  0  0  0  0  0  0  0  0  0
  140.6452   73.7087  220.1647 H   0  0  0  0  0  0  0  0  0  0  0  0
  143.7074   74.8332  218.8906 H   0  0  0  0  0  0  0  0  0  0  0  0
  142.9740   75.0844  220.4650 H   0  0  0  0  0  0  0  0  0  0  0  0
  145.7511   75.1461  219.9981 H   0  0  0  0  0  0  0  0  0  0  0  0
  145.0887   74.7906  221.5862 H   0  0  0  0  0  0  0  0  0  0  0  0
  146.4055   72.6897  221.0235 H   0  0  0  0  0  0  0  0  0  0  0  0
  145.2680   72.7420  218.4530 H   0  0  0  0  0  0  0  0  0  0  0  0
  144.3295   71.2281  220.3156 H   0  0  0  0  0  0  0  0  0  0  0  0
  144.0593   72.1766  221.7530 H   0  0  0  0  0  0  0  0  0  0  0  0
  139.2353   70.0198  222.3599 H   0  0  0  0  0  0  0  0  0  0  0  0
  138.8733   68.5364  224.3035 H   0  0  0  0  0  0  0  0  0  0  0  0
  139.1399   68.0963  226.6394 H   0  0  0  0  0  0  0  0  0  0  0  0
  141.1535   70.9642  229.0698 H   0  0  0  0  0  0  0  0  0  0  0  0
  141.5123   72.4336  227.1274 H   0  0  0  0  0  0  0  0  0  0  0  0
  1  2  2  0
  2  3  1  0
  3  4  1  0
  4  5  1  0
  5  6  2  0
  5  7  1  0
  7  8  1  0
  8  9  1  0
  9 10  1  0
 10 11  1  0
 10 12  1  0
  2 13  1  0
 13 14  2  0
 14 15  1  0
 15 16  2  0
 16 17  1  0
 17 18  2  0
 18 19  1  0
 18 20  1  0
 20 21  2  0
 21 22  1  0
 22 23  2  0
 12  7  1  0
 23 13  1  0
 22 16  1  0
  3 24  1  0
  4 25  1  0
  4 26  1  0
  8 27  1  0
  8 28  1  0
  9 29  1  0
  9 30  1  0
 10 31  1  1
 11 32  1  0
 12 33  1  0
 12 34  1  0
 14 35  1  0
 15 36  1  0
 17 37  1  0
 20 38  1  0
 21 39  1  0
M  END
>  <smiles>  (5) 
O=C(NCC(=O)N1CC[C@H](O)C1)c1ccc2cc(F)ccc2n1

>  <score_type>  (5) 
oracle

>  <origin>  (5) 
autodockgpu

>  <m_score__min__energy>  (5) 
-7.7000000000000002

>  <m_primary>  (5) 
energy

>  <rmsd>  (5) 
3.706753399012636

>  <m_score__min__rmsd>  (5) 
3.706753399012636

>  <meeko>  (5) 
{"free_energy": -6.88, "intermolecular_energy": -8.37, "internal_energy": -0.93, "cluster_size": 35, "cluster_id": 1, "rank_in_cluster": 27}

>  <energy>  (5) 
-7.68

>  <cluster_rmsd>  (5) 
0.14

>  <cluster>  (5) 
1

$$$$

     RDKit          3D

 39 41  0  0  0  0  0  0  0  0999 V2000
  141.0440   72.9370  222.1590 O   0  0  0  0  0  0  0  0  0  0  0  0
  139.9710   72.6240  222.7750 C   0  0  0  0  0  0  0  0  0  0  0  0
  138.7900   73.2630  222.3420 N   0  0  0  0  0  0  0  0  0  0  0  0
  138.8460   74.2110  221.2560 C   0  0  0  0  0  0  0  0  0  0  0  0
  137.6800   75.1040  221.3200 C   0  0  0  0  0  0  0  0  0  0  0  0
  137.6200   76.0760  220.5320 O   0  0  0  0  0  0  0  0  0  0  0  0
  136.6090   74.9280  222.2300 N   0  0  0  0  0  0  0  0  0  0  0  0
  136.4580   75.6570  223.4750 C   0  0  0  0  0  0  0  0  0  0  0  0
  135.2810   74.9550  224.1640 C   0  0  0  0  0  0  0  0  0  0  0  0
  135.2080   73.5910  223.4720 C   0  0  2  0  0  0  0  0  0  0  0  0
  136.1600   72.7630  224.0160 O   0  0  0  0  0  0  0  0  0  0  0  0
  135.5130   73.9950  222.0460 C   0  0  0  0  0  0  0  0  0  0  0  0
  139.9790   71.6580  223.8680 C   0  0  0  0  0  0  0  0  0  0  0  0
  139.3900   70.4230  223.6620 C   0  0  0  0  0  0  0  0  0  0  0  0
  139.3550   69.4560  224.6440 C   0  0  0  0  0  0  0  0  0  0  0  0
  139.9260   69.7310  225.8650 C   0  0  0  0  0  0  0  0  0  0  0  0
  139.9000   68.7700  226.8640 C   0  0  0  0  0  0  0  0  0  0  0  0
  140.4730   69.0450  228.0940 C   0  0  0  0  0  0  0  0  0  0  0  0
  140.4650   68.1230  229.0970 F   0  0  0  0  0  0  0  0  0  0  0  0
  141.0440   70.2720  228.2620 C   0  0  0  0  0  0  0  0  0  0  0  0
  141.0770   71.2410  227.2740 C   0  0  0  0  0  0  0  0  0  0  0  0
  140.5010   70.9680  226.0350 C   0  0  0  0  0  0  0  0  0  0  0  0
  140.5230   71.8940  225.0640 N   0  0  0  0  0  0  0  0  0  0  0  0
  137.9050   73.0300  222.8230 H   0  0  0  0  0  0  0  0  0  0  0  0
  139.7676   74.8060  221.3367 H   0  0  0  0  0  0  0  0  0  0  0  0
  138.8395   73.6700  220.2983 H   0  0  0  0  0  0  0  0  0  0  0  0
  137.3702   75.5847  224.0855 H   0  0  0  0  0  0  0  0  0  0  0  0
  136.2839   76.7323  223.3221 H   0  0  0  0  0  0  0  0  0  0  0  0
  135.4717   74.8375  225.2410 H   0  0  0  0  0  0  0  0  0  0  0  0
  134.3423   75.5225  224.0821 H   0  0  0  0  0  0  0  0  0  0  0  0
  134.2638   73.0346  223.5667 H   0  0  0  0  0  0  0  0  0  0  0  0
  136.8910   73.2770  224.4520 H   0  0  0  0  0  0  0  0  0  0  0  0
  135.8212   73.1292  221.4416 H   0  0  0  0  0  0  0  0  0  0  0  0
  134.6518   74.4196  221.5093 H   0  0  0  0  0  0  0  0  0  0  0  0
  138.9355   70.2060  222.6841 H   0  0  0  0  0  0  0  0  0  0  0  0
  138.8792   68.4824  224.4547 H   0  0  0  0  0  0  0  0  0  0  0  0
  139.4266   67.7942  226.6803 H   0  0  0  0  0  0  0  0  0  0  0  0
  141.5028   70.5041  229.2344 H   0  0  0  0  0  0  0  0  0  0  0  0
  141.5521   72.2146  227.4647 H   0  0  0  0  0  0  0  0  0  0  0  0
  1  2  2  0
  2  3  1  0
  3  4  1  0
  4  5  1  0
  5  6  2  0
  5  7  1  0
  7  8  1  0
  8  9  1  0
  9 10  1  0
 10 11  1  0
 10 12  1  0
  2 13  1  0
 13 14  2  0
 14 15  1  0
 15 16  2  0
 16 17  1  0
 17 18  2  0
 18 19  1  0
 18 20  1  0
 20 21  2  0
 21 22  1  0
 22 23  2  0
 12  7  1  0
 23 13  1  0
 22 16  1  0
  3 24  1  0
  4 25  1  0
  4 26  1  0
  8 27  1  0
  8 28  1  0
  9 29  1  0
  9 30  1  0
 10 31  1  6
 11 32  1  0
 12 33  1  0
 12 34  1  0
 14 35  1  0
 15 36  1  0
 17 37  1  0
 20 38  1  0
 21 39  1  0
M  END
>  <smiles>  (6) 
O=C(NCC(=O)N1CC[C@H](O)C1)c1ccc2cc(F)ccc2n1

>  <score_type>  (6) 
oracle

>  <origin>  (6) 
autodockgpu

>  <m_score__min__energy>  (6) 
-7.7000000000000002

>  <m_primary>  (6) 
energy

>  <rmsd>  (6) 
4.09920753411455

>  <m_score__min__rmsd>  (6) 
4.09920753411455

>  <meeko>  (6) 
{"free_energy": -6.06, "intermolecular_energy": -7.55, "internal_energy": -1.63, "cluster_size": 3, "cluster_id": 3, "rank_in_cluster": 2}

>  <energy>  (6) 
-7.66

>  <cluster_rmsd>  (6) 
0.14

>  <cluster>  (6) 
1

$$$$

     RDKit          3D

 39 41  0  0  0  0  0  0  0  0999 V2000
  139.9610   73.5840  222.3630 O   0  0  0  0  0  0  0  0  0  0  0  0
  140.5350   72.4470  222.4220 C   0  0  0  0  0  0  0  0  0  0  0  0
  141.3270   72.0860  221.3110 N   0  0  0  0  0  0  0  0  0  0  0  0
  141.4480   72.9900  220.1940 C   0  0  0  0  0  0  0  0  0  0  0  0
  142.6830   73.7740  220.3230 C   0  0  0  0  0  0  0  0  0  0  0  0
  142.6100   75.0240  220.3010 O   0  0  0  0  0  0  0  0  0  0  0  0
  143.9660   73.1930  220.4740 N   0  0  0  0  0  0  0  0  0  0  0  0
  145.0580   73.7910  221.2180 C   0  0  0  0  0  0  0  0  0  0  0  0
  146.2540   72.8840  220.8970 C   0  0  0  0  0  0  0  0  0  0  0  0
  145.8340   72.1610  219.6150 C   0  0  2  0  0  0  0  0  0  0  0  0
  146.0420   72.9950  218.5430 O   0  0  0  0  0  0  0  0  0  0  0  0
  144.3700   71.9200  219.9070 C   0  0  0  0  0  0  0  0  0  0  0  0
  140.3740   71.5750  223.5810 C   0  0  0  0  0  0  0  0  0  0  0  0
  139.7600   70.3480  223.4040 C   0  0  0  0  0  0  0  0  0  0  0  0
  139.5690   69.4690  224.4490 C   0  0  0  0  0  0  0  0  0  0  0  0
  140.0050   69.8260  225.7030 C   0  0  0  0  0  0  0  0  0  0  0  0
  139.8210   68.9530  226.7650 C   0  0  0  0  0  0  0  0  0  0  0  0
  140.2580   69.3110  228.0290 C   0  0  0  0  0  0  0  0  0  0  0  0
  140.0940   68.4770  229.0940 F   0  0  0  0  0  0  0  0  0  0  0  0
  140.8590   70.5270  228.1670 C   0  0  0  0  0  0  0  0  0  0  0  0
  141.0490   71.4080  227.1160 C   0  0  0  0  0  0  0  0  0  0  0  0
  140.6090   71.0520  225.8430 C   0  0  0  0  0  0  0  0  0  0  0  0
  140.7850   71.8930  224.8110 N   0  0  0  0  0  0  0  0  0  0  0  0
  141.8050   71.1690  221.3310 H   0  0  0  0  0  0  0  0  0  0  0  0
  141.4774   72.4128  219.2581 H   0  0  0  0  0  0  0  0  0  0  0  0
  140.5841   73.6708  220.1812 H   0  0  0  0  0  0  0  0  0  0  0  0
  145.2450   74.8212  220.8809 H   0  0  0  0  0  0  0  0  0  0  0  0
  144.8523   73.8608  222.2963 H   0  0  0  0  0  0  0  0  0  0  0  0
  147.1634   73.4799  220.7302 H   0  0  0  0  0  0  0  0  0  0  0  0
  146.4923   72.1902  221.7167 H   0  0  0  0  0  0  0  0  0  0  0  0
  146.3779   71.2385  219.3638 H   0  0  0  0  0  0  0  0  0  0  0  0
  146.0330   73.9520  218.8130 H   0  0  0  0  0  0  0  0  0  0  0  0
  143.8100   71.6956  218.9872 H   0  0  0  0  0  0  0  0  0  0  0  0
  144.1834   71.0597  220.5666 H   0  0  0  0  0  0  0  0  0  0  0  0
  139.4136   70.0650  222.3990 H   0  0  0  0  0  0  0  0  0  0  0  0
  139.0766   68.4996  224.2823 H   0  0  0  0  0  0  0  0  0  0  0  0
  139.3306   67.9816  226.6039 H   0  0  0  0  0  0  0  0  0  0  0  0
  141.2114   70.8237  229.1659 H   0  0  0  0  0  0  0  0  0  0  0  0
  141.5414   72.3772  227.2840 H   0  0  0  0  0  0  0  0  0  0  0  0
  1  2  2  0
  2  3  1  0
  3  4  1  0
  4  5  1  0
  5  6  2  0
  5  7  1  0
  7  8  1  0
  8  9  1  0
  9 10  1  0
 10 11  1  0
 10 12  1  0
  2 13  1  0
 13 14  2  0
 14 15  1  0
 15 16  2  0
 16 17  1  0
 17 18  2  0
 18 19  1  0
 18 20  1  0
 20 21  2  0
 21 22  1  0
 22 23  2  0
 12  7  1  0
 23 13  1  0
 22 16  1  0
  3 24  1  0
  4 25  1  0
  4 26  1  0
  8 27  1  0
  8 28  1  0
  9 29  1  0
  9 30  1  0
 10 31  1  6
 11 32  1  0
 12 33  1  0
 12 34  1  0
 14 35  1  0
 15 36  1  0
 17 37  1  0
 20 38  1  0
 21 39  1  0
M  END
>  <smiles>  (7) 
O=C(NCC(=O)N1CC[C@H](O)C1)c1ccc2cc(F)ccc2n1

>  <score_type>  (7) 
oracle

>  <origin>  (7) 
autodockgpu

>  <m_score__min__energy>  (7) 
-7.7000000000000002

>  <m_primary>  (7) 
energy

>  <rmsd>  (7) 
4.081234314077609

>  <m_score__min__rmsd>  (7) 
4.081234314077609

>  <meeko>  (7) 
{"free_energy": -7.46, "intermolecular_energy": -8.95, "internal_energy": -0.8, "cluster_size": 35, "cluster_id": 1, "rank_in_cluster": 21}

>  <energy>  (7) 
-7.66

>  <cluster_rmsd>  (7) 
0.11

>  <cluster>  (7) 
1

$$$$

     RDKit          3D

 39 41  0  0  0  0  0  0  0  0999 V2000
  139.7940   73.5640  222.3650 O   0  0  0  0  0  0  0  0  0  0  0  0
  140.4760   72.4900  222.4630 C   0  0  0  0  0  0  0  0  0  0  0  0
  141.3720   72.2190  221.4070 N   0  0  0  0  0  0  0  0  0  0  0  0
  141.4740   73.1370  220.3000 C   0  0  0  0  0  0  0  0  0  0  0  0
  142.7230   73.9040  220.4070 C   0  0  0  0  0  0  0  0  0  0  0  0
  142.6660   75.1550  220.4010 O   0  0  0  0  0  0  0  0  0  0  0  0
  144.0010   73.3040  220.5190 N   0  0  0  0  0  0  0  0  0  0  0  0
  145.1310   73.8980  221.2080 C   0  0  0  0  0  0  0  0  0  0  0  0
  146.2990   72.9650  220.8590 C   0  0  0  0  0  0  0  0  0  0  0  0
  145.8170   72.2250  219.6080 C   0  0  2  0  0  0  0  0  0  0  0  0
  145.9960   73.0350  218.5130 O   0  0  0  0  0  0  0  0  0  0  0  0
  144.3620   72.0140  219.9620 C   0  0  0  0  0  0  0  0  0  0  0  0
  140.3270   71.5990  223.6080 C   0  0  0  0  0  0  0  0  0  0  0  0
  139.7060   70.3770  223.4180 C   0  0  0  0  0  0  0  0  0  0  0  0
  139.5260   69.4800  224.4500 C   0  0  0  0  0  0  0  0  0  0  0  0
  139.9800   69.8140  225.7040 C   0  0  0  0  0  0  0  0  0  0  0  0
  139.8080   68.9230  226.7530 C   0  0  0  0  0  0  0  0  0  0  0  0
  140.2650   69.2560  228.0160 C   0  0  0  0  0  0  0  0  0  0  0  0
  140.1110   68.4050  229.0690 F   0  0  0  0  0  0  0  0  0  0  0  0
  140.8720   70.4680  228.1670 C   0  0  0  0  0  0  0  0  0  0  0  0
  141.0510   71.3670  227.1300 C   0  0  0  0  0  0  0  0  0  0  0  0
  140.5920   71.0350  225.8570 C   0  0  0  0  0  0  0  0  0  0  0  0
  140.7570   71.8930  224.8380 N   0  0  0  0  0  0  0  0  0  0  0  0
  141.9380   71.3540  221.4580 H   0  0  0  0  0  0  0  0  0  0  0  0
  141.4709   72.5730  219.3556 H   0  0  0  0  0  0  0  0  0  0  0  0
  140.6187   73.8284  220.3197 H   0  0  0  0  0  0  0  0  0  0  0  0
  145.3210   74.9182  220.8433 H   0  0  0  0  0  0  0  0  0  0  0  0
  144.9688   73.9921  222.2919 H   0  0  0  0  0  0  0  0  0  0  0  0
  147.2108   73.5421  220.6455 H   0  0  0  0  0  0  0  0  0  0  0  0
  146.5582   72.2830  221.6822 H   0  0  0  0  0  0  0  0  0  0  0  0
  146.3356   71.2889  219.3533 H   0  0  0  0  0  0  0  0  0  0  0  0
  145.9870   73.9980  218.7610 H   0  0  0  0  0  0  0  0  0  0  0  0
  143.7625   71.7813  219.0696 H   0  0  0  0  0  0  0  0  0  0  0  0
  144.1881   71.1697  220.6454 H   0  0  0  0  0  0  0  0  0  0  0  0
  139.3449   70.1130  222.4131 H   0  0  0  0  0  0  0  0  0  0  0  0
  139.0284   68.5151  224.2731 H   0  0  0  0  0  0  0  0  0  0  0  0
  139.3109   67.9568  226.5819 H   0  0  0  0  0  0  0  0  0  0  0  0
  141.2388   70.7458  229.1661 H   0  0  0  0  0  0  0  0  0  0  0  0
  141.5493   72.3313  227.3085 H   0  0  0  0  0  0  0  0  0  0  0  0
  1  2  2  0
  2  3  1  0
  3  4  1  0
  4  5  1  0
  5  6  2  0
  5  7  1  0
  7  8  1  0
  8  9  1  0
  9 10  1  0
 10 11  1  0
 10 12  1  0
  2 13  1  0
 13 14  2  0
 14 15  1  0
 15 16  2  0
 16 17  1  0
 17 18  2  0
 18 19  1  0
 18 20  1  0
 20 21  2  0
 21 22  1  0
 22 23  2  0
 12  7  1  0
 23 13  1  0
 22 16  1  0
  3 24  1  0
  4 25  1  0
  4 26  1  0
  8 27  1  0
  8 28  1  0
  9 29  1  0
  9 30  1  0
 10 31  1  6
 11 32  1  0
 12 33  1  0
 12 34  1  0
 14 35  1  0
 15 36  1  0
 17 37  1  0
 20 38  1  0
 21 39  1  0
M  END
>  <smiles>  (8) 
O=C(NCC(=O)N1CC[C@H](O)C1)c1ccc2cc(F)ccc2n1

>  <score_type>  (8) 
oracle

>  <origin>  (8) 
autodockgpu

>  <m_score__min__energy>  (8) 
-7.7000000000000002

>  <m_primary>  (8) 
energy

>  <rmsd>  (8) 
4.059975617451133

>  <m_score__min__rmsd>  (8) 
4.059975617451133

>  <meeko>  (8) 
{"free_energy": -7.49, "intermolecular_energy": -8.98, "internal_energy": -0.79, "cluster_size": 35, "cluster_id": 1, "rank_in_cluster": 19}

>  <energy>  (8) 
-7.63

>  <cluster_rmsd>  (8) 
0.18

>  <cluster>  (8) 
1

$$$$

     RDKit          3D

 39 41  0  0  0  0  0  0  0  0999 V2000
  140.2120   73.6490  222.3480 O   0  0  0  0  0  0  0  0  0  0  0  0
  140.4520   72.3960  222.3100 C   0  0  0  0  0  0  0  0  0  0  0  0
  140.8920   71.8790  221.0730 N   0  0  0  0  0  0  0  0  0  0  0  0
  141.0480   72.7610  219.9420 C   0  0  0  0  0  0  0  0  0  0  0  0
  142.3810   72.5790  219.3530 C   0  0  0  0  0  0  0  0  0  0  0  0
  142.4720   72.0770  218.2090 O   0  0  0  0  0  0  0  0  0  0  0  0
  143.5820   72.9430  220.0090 N   0  0  0  0  0  0  0  0  0  0  0  0
  143.9560   74.3030  220.3480 C   0  0  0  0  0  0  0  0  0  0  0  0
  145.4040   74.1680  220.8370 C   0  0  0  0  0  0  0  0  0  0  0  0
  145.8670   72.8290  220.2570 C   0  0  2  0  0  0  0  0  0  0  0  0
  146.2150   73.0100  218.9400 O   0  0  0  0  0  0  0  0  0  0  0  0
  144.6080   72.0090  220.4340 C   0  0  0  0  0  0  0  0  0  0  0  0
  140.2740   71.5540  223.4880 C   0  0  0  0  0  0  0  0  0  0  0  0
  139.6260   70.3410  223.3420 C   0  0  0  0  0  0  0  0  0  0  0  0
  139.4180   69.4890  224.4060 C   0  0  0  0  0  0  0  0  0  0  0  0
  139.8720   69.8610  225.6500 C   0  0  0  0  0  0  0  0  0  0  0  0
  139.6720   69.0160  226.7310 C   0  0  0  0  0  0  0  0  0  0  0  0
  140.1280   69.3890  227.9840 C   0  0  0  0  0  0  0  0  0  0  0  0
  139.9470   68.5830  229.0680 F   0  0  0  0  0  0  0  0  0  0  0  0
  140.7620   70.5910  228.0920 C   0  0  0  0  0  0  0  0  0  0  0  0
  140.9690   71.4440  227.0220 C   0  0  0  0  0  0  0  0  0  0  0  0
  140.5110   71.0730  225.7590 C   0  0  0  0  0  0  0  0  0  0  0  0
  140.7020   71.8860  224.7090 N   0  0  0  0  0  0  0  0  0  0  0  0
  141.0940   70.8670  221.0120 H   0  0  0  0  0  0  0  0  0  0  0  0
  140.2806   72.5291  219.1888 H   0  0  0  0  0  0  0  0  0  0  0  0
  140.9358   73.8035  220.2746 H   0  0  0  0  0  0  0  0  0  0  0  0
  143.8988   74.9575  219.4658 H   0  0  0  0  0  0  0  0  0  0  0  0
  143.2915   74.7542  221.0995 H   0  0  0  0  0  0  0  0  0  0  0  0
  146.0236   74.9938  220.4573 H   0  0  0  0  0  0  0  0  0  0  0  0
  145.4861   74.2058  221.9333 H   0  0  0  0  0  0  0  0  0  0  0  0
  146.7497   72.3640  220.7202 H   0  0  0  0  0  0  0  0  0  0  0  0
  146.2900   73.9730  218.7070 H   0  0  0  0  0  0  0  0  0  0  0  0
  144.6215   71.1121  219.7972 H   0  0  0  0  0  0  0  0  0  0  0  0
  144.4660   71.6264  221.4555 H   0  0  0  0  0  0  0  0  0  0  0  0
  139.2651   70.0466  222.3455 H   0  0  0  0  0  0  0  0  0  0  0  0
  138.8988   68.5299  224.2627 H   0  0  0  0  0  0  0  0  0  0  0  0
  139.1542   68.0552  226.5940 H   0  0  0  0  0  0  0  0  0  0  0  0
  141.1285   70.8993  229.0822 H   0  0  0  0  0  0  0  0  0  0  0  0
  141.4885   72.4028  227.1665 H   0  0  0  0  0  0  0  0  0  0  0  0
  1  2  2  0
  2  3  1  0
  3  4  1  0
  4  5  1  0
  5  6  2  0
  5  7  1  0
  7  8  1  0
  8  9  1  0
  9 10  1  0
 10 11  1  0
 10 12  1  0
  2 13  1  0
 13 14  2  0
 14 15  1  0
 15 16  2  0
 16 17  1  0
 17 18  2  0
 18 19  1  0
 18 20  1  0
 20 21  2  0
 21 22  1  0
 22 23  2  0
 12  7  1  0
 23 13  1  0
 22 16  1  0
  3 24  1  0
  4 25  1  0
  4 26  1  0
  8 27  1  0
  8 28  1  0
  9 29  1  0
  9 30  1  0
 10 31  1  1
 11 32  1  0
 12 33  1  0
 12 34  1  0
 14 35  1  0
 15 36  1  0
 17 37  1  0
 20 38  1  0
 21 39  1  0
M  END
>  <smiles>  (9) 
O=C(NCC(=O)N1CC[C@H](O)C1)c1ccc2cc(F)ccc2n1

>  <score_type>  (9) 
oracle

>  <origin>  (9) 
autodockgpu

>  <m_score__min__energy>  (9) 
-7.7000000000000002

>  <m_primary>  (9) 
energy

>  <rmsd>  (9) 
3.8896625583338262

>  <m_score__min__rmsd>  (9) 
3.8896625583338262

>  <meeko>  (9) 
{"free_energy": -7.61, "intermolecular_energy": -9.1, "internal_energy": -0.79, "cluster_size": 35, "cluster_id": 1, "rank_in_cluster": 11}

>  <energy>  (9) 
-7.62

>  <cluster_rmsd>  (9) 
0.21

>  <cluster>  (9) 
1

$$$$

     RDKit          3D

 39 41  0  0  0  0  0  0  0  0999 V2000
  139.1210   73.2790  222.3160 O   0  0  0  0  0  0  0  0  0  0  0  0
  140.0680   72.4480  222.5190 C   0  0  0  0  0  0  0  0  0  0  0  0
  141.1090   72.4400  221.5670 N   0  0  0  0  0  0  0  0  0  0  0  0
  141.0590   73.3420  220.4430 C   0  0  0  0  0  0  0  0  0  0  0  0
  141.5430   74.6680  220.8510 C   0  0  0  0  0  0  0  0  0  0  0  0
  142.7780   74.8750  220.8890 O   0  0  0  0  0  0  0  0  0  0  0  0
  140.6860   75.7380  221.2070 N   0  0  0  0  0  0  0  0  0  0  0  0
  141.0750   76.8650  222.0330 C   0  0  0  0  0  0  0  0  0  0  0  0
  139.7530   77.6030  222.2830 C   0  0  0  0  0  0  0  0  0  0  0  0
  138.6810   76.5490  221.9930 C   0  0  2  0  0  0  0  0  0  0  0  0
  138.5540   75.7290  223.0880 O   0  0  0  0  0  0  0  0  0  0  0  0
  139.2990   75.8580  220.7980 C   0  0  0  0  0  0  0  0  0  0  0  0
  140.0620   71.5600  223.6760 C   0  0  0  0  0  0  0  0  0  0  0  0
  139.4920   70.3060  223.5430 C   0  0  0  0  0  0  0  0  0  0  0  0
  139.4460   69.4090  224.5890 C   0  0  0  0  0  0  0  0  0  0  0  0
  139.9850   69.7750  225.8000 C   0  0  0  0  0  0  0  0  0  0  0  0
  139.9470   68.8850  226.8630 C   0  0  0  0  0  0  0  0  0  0  0  0
  140.4880   69.2520  228.0830 C   0  0  0  0  0  0  0  0  0  0  0  0
  140.4680   68.4020  229.1480 F   0  0  0  0  0  0  0  0  0  0  0  0
  141.0410   70.4950  228.1790 C   0  0  0  0  0  0  0  0  0  0  0  0
  141.0850   71.3940  227.1270 C   0  0  0  0  0  0  0  0  0  0  0  0
  140.5410   71.0280  225.8970 C   0  0  0  0  0  0  0  0  0  0  0  0
  140.5750   71.8860  224.8650 N   0  0  0  0  0  0  0  0  0  0  0  0
  141.8910   71.7770  221.7060 H   0  0  0  0  0  0  0  0  0  0  0  0
  141.6949   72.9536  219.6338 H   0  0  0  0  0  0  0  0  0  0  0  0
  140.0210   73.4259  220.0888 H   0  0  0  0  0  0  0  0  0  0  0  0
  141.5191   76.5233  222.9796 H   0  0  0  0  0  0  0  0  0  0  0  0
  141.8360   77.5010  221.5572 H   0  0  0  0  0  0  0  0  0  0  0  0
  139.6893   77.9493  223.3251 H   0  0  0  0  0  0  0  0  0  0  0  0
  139.6443   78.5013  221.6575 H   0  0  0  0  0  0  0  0  0  0  0  0
  137.6625   76.9151  221.7963 H   0  0  0  0  0  0  0  0  0  0  0  0
  138.6960   74.7730  222.8510 H   0  0  0  0  0  0  0  0  0  0  0  0
  138.8451   74.8706  220.6277 H   0  0  0  0  0  0  0  0  0  0  0  0
  139.1599   76.3989  219.8503 H   0  0  0  0  0  0  0  0  0  0  0  0
  139.0624   70.0159  222.5728 H   0  0  0  0  0  0  0  0  0  0  0  0
  138.9864   68.4183  224.4572 H   0  0  0  0  0  0  0  0  0  0  0  0
  139.4893   67.8927  226.7372 H   0  0  0  0  0  0  0  0  0  0  0  0
  141.4749   70.7993  229.1429 H   0  0  0  0  0  0  0  0  0  0  0  0
  141.5436   72.3849  227.2602 H   0  0  0  0  0  0  0  0  0  0  0  0
  1  2  2  0
  2  3  1  0
  3  4  1  0
  4  5  1  0
  5  6  2  0
  5  7  1  0
  7  8  1  0
  8  9  1  0
  9 10  1  0
 10 11  1  0
 10 12  1  0
  2 13  1  0
 13 14  2  0
 14 15  1  0
 15 16  2  0
 16 17  1  0
 17 18  2  0
 18 19  1  0
 18 20  1  0
 20 21  2  0
 21 22  1  0
 22 23  2  0
 12  7  1  0
 23 13  1  0
 22 16  1  0
  3 24  1  0
  4 25  1  0
  4 26  1  0
  8 27  1  0
  8 28  1  0
  9 29  1  0
  9 30  1  0
 10 31  1  6
 11 32  1  0
 12 33  1  0
 12 34  1  0
 14 35  1  0
 15 36  1  0
 17 37  1  0
 20 38  1  0
 21 39  1  0
M  END
>  <smiles>  (10) 
O=C(NCC(=O)N1CC[C@H](O)C1)c1ccc2cc(F)ccc2n1

>  <score_type>  (10) 
oracle

>  <origin>  (10) 
autodockgpu

>  <m_score__min__energy>  (10) 
-7.7000000000000002

>  <m_primary>  (10) 
energy

>  <rmsd>  (10) 
2.5138607690759343

>  <m_score__min__rmsd>  (10) 
2.5138607690759343

>  <meeko>  (10) 
{"free_energy": -6.07, "intermolecular_energy": -7.56, "internal_energy": -1.69, "cluster_size": 10, "cluster_id": 2, "rank_in_cluster": 9}

>  <energy>  (10) 
-7.61

>  <cluster_rmsd>  (10) 
0.21

>  <cluster>  (10) 
1

$$$$

     RDKit          3D

 39 41  0  0  0  0  0  0  0  0999 V2000
  139.5420   73.5620  222.5350 O   0  0  0  0  0  0  0  0  0  0  0  0
  140.3350   72.5670  222.6220 C   0  0  0  0  0  0  0  0  0  0  0  0
  141.2880   72.4340  221.5900 N   0  0  0  0  0  0  0  0  0  0  0  0
  141.3230   73.3970  220.5180 C   0  0  0  0  0  0  0  0  0  0  0  0
  142.4850   73.1360  219.6570 C   0  0  0  0  0  0  0  0  0  0  0  0
  142.2990   72.9580  218.4310 O   0  0  0  0  0  0  0  0  0  0  0  0
  143.8160   73.0750  220.1360 N   0  0  0  0  0  0  0  0  0  0  0  0
  144.5230   74.1850  220.7470 C   0  0  0  0  0  0  0  0  0  0  0  0
  145.9590   73.6650  220.8870 C   0  0  0  0  0  0  0  0  0  0  0  0
  146.0310   72.5060  219.8890 C   0  0  2  0  0  0  0  0  0  0  0  0
  146.2240   73.0140  218.6270 O   0  0  0  0  0  0  0  0  0  0  0  0
  144.6610   71.8970  220.0840 C   0  0  0  0  0  0  0  0  0  0  0  0
  140.2490   71.6240  223.7310 C   0  0  0  0  0  0  0  0  0  0  0  0
  139.6610   70.3920  223.5080 C   0  0  0  0  0  0  0  0  0  0  0  0
  139.5410   69.4470  224.5050 C   0  0  0  0  0  0  0  0  0  0  0  0
  140.0240   69.7420  225.7590 C   0  0  0  0  0  0  0  0  0  0  0  0
  139.9120   68.8020  226.7730 C   0  0  0  0  0  0  0  0  0  0  0  0
  140.3960   69.0980  228.0360 C   0  0  0  0  0  0  0  0  0  0  0  0
  140.3020   68.1980  229.0540 F   0  0  0  0  0  0  0  0  0  0  0  0
  140.9690   70.3210  228.2200 C   0  0  0  0  0  0  0  0  0  0  0  0
  141.0880   71.2680  227.2180 C   0  0  0  0  0  0  0  0  0  0  0  0
  140.6010   70.9750  225.9450 C   0  0  0  0  0  0  0  0  0  0  0  0
  140.7070   71.8800  224.9600 N   0  0  0  0  0  0  0  0  0  0  0  0
  141.9450   71.6350  221.6340 H   0  0  0  0  0  0  0  0  0  0  0  0
  140.4013   73.3159  219.9231 H   0  0  0  0  0  0  0  0  0  0  0  0
  141.4018   74.4098  220.9399 H   0  0  0  0  0  0  0  0  0  0  0  0
  144.4889   75.0752  220.1018 H   0  0  0  0  0  0  0  0  0  0  0  0
  144.0848   74.4940  221.7075 H   0  0  0  0  0  0  0  0  0  0  0  0
  146.6859   74.4492  220.6289 H   0  0  0  0  0  0  0  0  0  0  0  0
  146.1991   73.3549  221.9147 H   0  0  0  0  0  0  0  0  0  0  0  0
  146.8459   71.7802  220.0271 H   0  0  0  0  0  0  0  0  0  0  0  0
  146.0190   73.9870  218.5860 H   0  0  0  0  0  0  0  0  0  0  0  0
  144.3886   71.2459  219.2403 H   0  0  0  0  0  0  0  0  0  0  0  0
  144.5825   71.2534  220.9726 H   0  0  0  0  0  0  0  0  0  0  0  0
  139.2771   70.1588  222.5039 H   0  0  0  0  0  0  0  0  0  0  0  0
  139.0678   68.4751  224.3015 H   0  0  0  0  0  0  0  0  0  0  0  0
  139.4416   67.8276  226.5749 H   0  0  0  0  0  0  0  0  0  0  0  0
  141.3578   70.5685  229.2188 H   0  0  0  0  0  0  0  0  0  0  0  0
  141.5609   72.2397  227.4234 H   0  0  0  0  0  0  0  0  0  0  0  0
  1  2  2  0
  2  3  1  0
  3  4  1  0
  4  5  1  0
  5  6  2  0
  5  7  1  0
  7  8  1  0
  8  9  1  0
  9 10  1  0
 10 11  1  0
 10 12  1  0
  2 13  1  0
 13 14  2  0
 14 15  1  0
 15 16  2  0
 16 17  1  0
 17 18  2  0
 18 19  1  0
 18 20  1  0
 20 21  2  0
 21 22  1  0
 22 23  2  0
 12  7  1  0
 23 13  1  0
 22 16  1  0
  3 24  1  0
  4 25  1  0
  4 26  1  0
  8 27  1  0
  8 28  1  0
  9 29  1  0
  9 30  1  0
 10 31  1  1
 11 32  1  0
 12 33  1  0
 12 34  1  0
 14 35  1  0
 15 36  1  0
 17 37  1  0
 20 38  1  0
 21 39  1  0
M  END
>  <smiles>  (11) 
O=C(NCC(=O)N1CC[C@H](O)C1)c1ccc2cc(F)ccc2n1

>  <score_type>  (11) 
oracle

>  <origin>  (11) 
autodockgpu

>  <m_score__min__energy>  (11) 
-7.7000000000000002

>  <m_primary>  (11) 
energy

>  <rmsd>  (11) 
4.01579793746424

>  <m_score__min__rmsd>  (11) 
4.01579793746424

>  <meeko>  (11) 
{"free_energy": -7.57, "intermolecular_energy": -9.06, "internal_energy": -0.74, "cluster_size": 35, "cluster_id": 1, "rank_in_cluster": 15}

>  <energy>  (11) 
-7.61

>  <cluster_rmsd>  (11) 
0.24

>  <cluster>  (11) 
1

$$$$

     RDKit          3D

 39 41  0  0  0  0  0  0  0  0999 V2000
  141.0270   73.0000  222.1760 O   0  0  0  0  0  0  0  0  0  0  0  0
  139.9670   72.6150  222.7730 C   0  0  0  0  0  0  0  0  0  0  0  0
  138.7560   73.1920  222.3340 N   0  0  0  0  0  0  0  0  0  0  0  0
  138.7700   74.1590  221.2640 C   0  0  0  0  0  0  0  0  0  0  0  0
  137.7140   75.1560  221.4860 C   0  0  0  0  0  0  0  0  0  0  0  0
  137.8200   76.2790  220.9390 O   0  0  0  0  0  0  0  0  0  0  0  0
  136.5720   74.9210  222.2900 N   0  0  0  0  0  0  0  0  0  0  0  0
  136.2470   75.6600  223.4960 C   0  0  0  0  0  0  0  0  0  0  0  0
  135.0590   74.8880  224.0830 C   0  0  0  0  0  0  0  0  0  0  0  0
  135.1500   73.5100  223.4220 C   0  0  2  0  0  0  0  0  0  0  0  0
  136.0970   72.7620  224.0770 O   0  0  0  0  0  0  0  0  0  0  0  0
  135.5670   73.9100  222.0230 C   0  0  0  0  0  0  0  0  0  0  0  0
  140.0180   71.6340  223.8510 C   0  0  0  0  0  0  0  0  0  0  0  0
  139.5210   70.3650  223.6130 C   0  0  0  0  0  0  0  0  0  0  0  0
  139.5310   69.3820  224.5790 C   0  0  0  0  0  0  0  0  0  0  0  0
  140.0540   69.6760  225.8170 C   0  0  0  0  0  0  0  0  0  0  0  0
  140.0720   68.6980  226.8010 C   0  0  0  0  0  0  0  0  0  0  0  0
  140.5970   68.9920  228.0480 C   0  0  0  0  0  0  0  0  0  0  0  0
  140.6310   68.0550  229.0370 F   0  0  0  0  0  0  0  0  0  0  0  0
  141.0780   70.2520  228.2480 C   0  0  0  0  0  0  0  0  0  0  0  0
  141.0660   71.2380  227.2760 C   0  0  0  0  0  0  0  0  0  0  0  0
  140.5380   70.9460  226.0190 C   0  0  0  0  0  0  0  0  0  0  0  0
  140.5170   71.8880  225.0640 N   0  0  0  0  0  0  0  0  0  0  0  0
  137.8800   72.9000  222.8000 H   0  0  0  0  0  0  0  0  0  0  0  0
  139.7481   74.6616  221.2377 H   0  0  0  0  0  0  0  0  0  0  0  0
  138.5930   73.6468  220.3068 H   0  0  0  0  0  0  0  0  0  0  0  0
  137.0965   75.6643  224.1949 H   0  0  0  0  0  0  0  0  0  0  0  0
  136.0148   76.7172  223.2999 H   0  0  0  0  0  0  0  0  0  0  0  0
  135.1489   74.8041  225.1761 H   0  0  0  0  0  0  0  0  0  0  0  0
  134.0961   75.3853  223.8945 H   0  0  0  0  0  0  0  0  0  0  0  0
  134.2422   72.8890  223.4375 H   0  0  0  0  0  0  0  0  0  0  0  0
  136.9270   73.2840  224.2470 H   0  0  0  0  0  0  0  0  0  0  0  0
  135.9926   73.0578  221.4730 H   0  0  0  0  0  0  0  0  0  0  0  0
  134.7361   74.2632  221.3946 H   0  0  0  0  0  0  0  0  0  0  0  0
  139.1047   70.1333  222.6215 H   0  0  0  0  0  0  0  0  0  0  0  0
  139.1284   68.3811  224.3641 H   0  0  0  0  0  0  0  0  0  0  0  0
  139.6716   67.6951  226.5917 H   0  0  0  0  0  0  0  0  0  0  0  0
  141.4981   70.4984  229.2343 H   0  0  0  0  0  0  0  0  0  0  0  0
  141.4678   72.2388  227.4927 H   0  0  0  0  0  0  0  0  0  0  0  0
  1  2  2  0
  2  3  1  0
  3  4  1  0
  4  5  1  0
  5  6  2  0
  5  7  1  0
  7  8  1  0
  8  9  1  0
  9 10  1  0
 10 11  1  0
 10 12  1  0
  2 13  1  0
 13 14  2  0
 14 15  1  0
 15 16  2  0
 16 17  1  0
 17 18  2  0
 18 19  1  0
 18 20  1  0
 20 21  2  0
 21 22  1  0
 22 23  2  0
 12  7  1  0
 23 13  1  0
 22 16  1  0
  3 24  1  0
  4 25  1  0
  4 26  1  0
  8 27  1  0
  8 28  1  0
  9 29  1  0
  9 30  1  0
 10 31  1  6
 11 32  1  0
 12 33  1  0
 12 34  1  0
 14 35  1  0
 15 36  1  0
 17 37  1  0
 20 38  1  0
 21 39  1  0
M  END
>  <smiles>  (12) 
O=C(NCC(=O)N1CC[C@H](O)C1)c1ccc2cc(F)ccc2n1

>  <score_type>  (12) 
oracle

>  <origin>  (12) 
autodockgpu

>  <m_score__min__energy>  (12) 
-7.7000000000000002

>  <m_primary>  (12) 
energy

>  <rmsd>  (12) 
4.1196151311601055

>  <m_score__min__rmsd>  (12) 
4.1196151311601055

>  <meeko>  (12) 
{"free_energy": -6.12, "intermolecular_energy": -7.61, "internal_energy": -1.57, "cluster_size": 3, "cluster_id": 3, "rank_in_cluster": 1}

>  <energy>  (12) 
-7.58

>  <cluster_rmsd>  (12) 
0.22

>  <cluster>  (12) 
1

$$$$

     RDKit          3D

 39 41  0  0  0  0  0  0  0  0999 V2000
  138.2260   76.0080  222.9960 O   0  0  0  0  0  0  0  0  0  0  0  0
  139.2480   76.4120  222.3480 C   0  0  0  0  0  0  0  0  0  0  0  0
  139.3710   77.8080  222.1790 N   0  0  0  0  0  0  0  0  0  0  0  0
  138.3690   78.6870  222.7290 C   0  0  0  0  0  0  0  0  0  0  0  0
  139.0190   79.8080  223.4210 C   0  0  0  0  0  0  0  0  0  0  0  0
  138.3140   80.5900  224.0980 O   0  0  0  0  0  0  0  0  0  0  0  0
  140.4120   80.0570  223.3680 N   0  0  0  0  0  0  0  0  0  0  0  0
  141.0200   81.1990  222.7120 C   0  0  0  0  0  0  0  0  0  0  0  0
  142.5220   80.8870  222.7610 C   0  0  0  0  0  0  0  0  0  0  0  0
  142.5770   79.3750  222.9900 C   0  0  2  0  0  0  0  0  0  0  0  0
  142.3740   78.7330  221.7930 O   0  0  0  0  0  0  0  0  0  0  0  0
  141.4280   79.2070  223.9600 C   0  0  0  0  0  0  0  0  0  0  0  0
  140.2290   75.4730  221.8150 C   0  0  0  0  0  0  0  0  0  0  0  0
  139.9770   74.1180  221.9310 C   0  0  0  0  0  0  0  0  0  0  0  0
  140.8540   73.1670  221.4540 C   0  0  0  0  0  0  0  0  0  0  0  0
  142.0140   73.5830  220.8430 C   0  0  0  0  0  0  0  0  0  0  0  0
  142.9070   72.6400  220.3570 C   0  0  0  0  0  0  0  0  0  0  0  0
  144.0750   73.0570  219.7420 C   0  0  0  0  0  0  0  0  0  0  0  0
  144.9740   72.1570  219.2540 F   0  0  0  0  0  0  0  0  0  0  0  0
  144.2910   74.3990  219.6440 C   0  0  0  0  0  0  0  0  0  0  0  0
  143.4090   75.3520  220.1250 C   0  0  0  0  0  0  0  0  0  0  0  0
  142.2320   74.9360  220.7450 C   0  0  0  0  0  0  0  0  0  0  0  0
  141.3640   75.8450  221.2170 N   0  0  0  0  0  0  0  0  0  0  0  0
  140.1900   78.1660  221.6570 H   0  0  0  0  0  0  0  0  0  0  0  0
  137.7378   79.0757  221.9163 H   0  0  0  0  0  0  0  0  0  0  0  0
  137.7478   78.1284  223.4446 H   0  0  0  0  0  0  0  0  0  0  0  0
  140.6709   81.2865  221.6725 H   0  0  0  0  0  0  0  0  0  0  0  0
  140.7662   82.1541  223.1951 H   0  0  0  0  0  0  0  0  0  0  0  0
  143.0089   81.1570  221.8123 H   0  0  0  0  0  0  0  0  0  0  0  0
  143.0475   81.4538  223.5437 H   0  0  0  0  0  0  0  0  0  0  0  0
  143.5234   78.9640  223.3714 H   0  0  0  0  0  0  0  0  0  0  0  0
  142.2390   77.7560  221.9160 H   0  0  0  0  0  0  0  0  0  0  0  0
  141.0951   78.1597  224.0089 H   0  0  0  0  0  0  0  0  0  0  0  0
  141.6795   79.4707  224.9979 H   0  0  0  0  0  0  0  0  0  0  0  0
  139.0478   73.7888  222.4191 H   0  0  0  0  0  0  0  0  0  0  0  0
  140.6301   72.0953  221.5601 H   0  0  0  0  0  0  0  0  0  0  0  0
  142.6885   71.5668  220.4596 H   0  0  0  0  0  0  0  0  0  0  0  0
  145.2151   74.7435  219.1569 H   0  0  0  0  0  0  0  0  0  0  0  0
  143.6343   76.4235  220.0192 H   0  0  0  0  0  0  0  0  0  0  0  0
  1  2  2  0
  2  3  1  0
  3  4  1  0
  4  5  1  0
  5  6  2  0
  5  7  1  0
  7  8  1  0
  8  9  1  0
  9 10  1  0
 10 11  1  0
 10 12  1  0
  2 13  1  0
 13 14  2  0
 14 15  1  0
 15 16  2  0
 16 17  1  0
 17 18  2  0
 18 19  1  0
 18 20  1  0
 20 21  2  0
 21 22  1  0
 22 23  2  0
 12  7  1  0
 23 13  1  0
 22 16  1  0
  3 24  1  0
  4 25  1  0
  4 26  1  0
  8 27  1  0
  8 28  1  0
  9 29  1  0
  9 30  1  0
 10 31  1  1
 11 32  1  0
 12 33  1  0
 12 34  1  0
 14 35  1  0
 15 36  1  0
 17 37  1  0
 20 38  1  0
 21 39  1  0
M  END
>  <smiles>  (13) 
O=C(NCC(=O)N1CC[C@H](O)C1)c1ccc2cc(F)ccc2n1

>  <score_type>  (13) 
oracle

>  <origin>  (13) 
autodockgpu

>  <m_score__min__energy>  (13) 
-7.7000000000000002

>  <m_primary>  (13) 
energy

>  <rmsd>  (13) 
6.938249332774068

>  <m_score__min__rmsd>  (13) 
6.938249332774068

>  <meeko>  (13) 
{"free_energy": -5.18, "intermolecular_energy": -6.67, "internal_energy": -2.45, "cluster_size": 2, "cluster_id": 4, "rank_in_cluster": 2}

>  <energy>  (13) 
-7.58

>  <cluster_rmsd>  (13) 
0.24

>  <cluster>  (13) 
1

$$$$

     RDKit          3D

 39 41  0  0  0  0  0  0  0  0999 V2000
  140.3780   73.6600  222.3150 O   0  0  0  0  0  0  0  0  0  0  0  0
  140.4330   72.3870  222.2490 C   0  0  0  0  0  0  0  0  0  0  0  0
  140.6570   71.8350  220.9700 N   0  0  0  0  0  0  0  0  0  0  0  0
  140.8070   72.7060  219.8300 C   0  0  0  0  0  0  0  0  0  0  0  0
  142.1500   72.5430  219.2570 C   0  0  0  0  0  0  0  0  0  0  0  0
  142.2610   72.0570  218.1080 O   0  0  0  0  0  0  0  0  0  0  0  0
  143.3390   72.9080  219.9350 N   0  0  0  0  0  0  0  0  0  0  0  0
  143.7580   74.2740  220.1840 C   0  0  0  0  0  0  0  0  0  0  0  0
  145.1780   74.1190  220.7450 C   0  0  0  0  0  0  0  0  0  0  0  0
  145.6040   72.7210  220.2900 C   0  0  2  0  0  0  0  0  0  0  0  0
  146.0130   72.7830  218.9800 O   0  0  0  0  0  0  0  0  0  0  0  0
  144.3040   71.9690  220.4750 C   0  0  0  0  0  0  0  0  0  0  0  0
  140.2730   71.5580  223.4390 C   0  0  0  0  0  0  0  0  0  0  0  0
  139.6060   70.3520  223.3190 C   0  0  0  0  0  0  0  0  0  0  0  0
  139.4120   69.5130  224.3960 C   0  0  0  0  0  0  0  0  0  0  0  0
  139.8990   69.8900  225.6250 C   0  0  0  0  0  0  0  0  0  0  0  0
  139.7130   69.0580  226.7190 C   0  0  0  0  0  0  0  0  0  0  0  0
  140.2020   69.4360  227.9580 C   0  0  0  0  0  0  0  0  0  0  0  0
  140.0370   68.6420  229.0530 F   0  0  0  0  0  0  0  0  0  0  0  0
  140.8540   70.6310  228.0400 C   0  0  0  0  0  0  0  0  0  0  0  0
  141.0470   71.4710  226.9570 C   0  0  0  0  0  0  0  0  0  0  0  0
  140.5560   71.0950  225.7090 C   0  0  0  0  0  0  0  0  0  0  0  0
  140.7330   71.8960  224.6470 N   0  0  0  0  0  0  0  0  0  0  0  0
  140.7060   70.8050  220.8860 H   0  0  0  0  0  0  0  0  0  0  0  0
  140.0522   72.4497  219.0719 H   0  0  0  0  0  0  0  0  0  0  0  0
  140.6705   73.7501  220.1482 H   0  0  0  0  0  0  0  0  0  0  0  0
  143.7654   74.8586  219.2523 H   0  0  0  0  0  0  0  0  0  0  0  0
  143.0840   74.8099  220.8685 H   0  0  0  0  0  0  0  0  0  0  0  0
  145.8483   74.8865  220.3306 H   0  0  0  0  0  0  0  0  0  0  0  0
  145.2175   74.2395  221.8377 H   0  0  0  0  0  0  0  0  0  0  0  0
  146.4460   72.2582  220.8255 H   0  0  0  0  0  0  0  0  0  0  0  0
  145.2450   72.8950  218.3580 H   0  0  0  0  0  0  0  0  0  0  0  0
  144.3035   71.0249  219.9105 H   0  0  0  0  0  0  0  0  0  0  0  0
  144.1042   71.6737  221.5156 H   0  0  0  0  0  0  0  0  0  0  0  0
  139.2184   70.0531  222.3339 H   0  0  0  0  0  0  0  0  0  0  0  0
  138.8773   68.5595  224.2739 H   0  0  0  0  0  0  0  0  0  0  0  0
  139.1798   68.1029  226.6029 H   0  0  0  0  0  0  0  0  0  0  0  0
  141.2473   70.9438  229.0185 H   0  0  0  0  0  0  0  0  0  0  0  0
  141.5818   72.4243  227.0805 H   0  0  0  0  0  0  0  0  0  0  0  0
  1  2  2  0
  2  3  1  0
  3  4  1  0
  4  5  1  0
  5  6  2  0
  5  7  1  0
  7  8  1  0
  8  9  1  0
  9 10  1  0
 10 11  1  0
 10 12  1  0
  2 13  1  0
 13 14  2  0
 14 15  1  0
 15 16  2  0
 16 17  1  0
 17 18  2  0
 18 19  1  0
 18 20  1  0
 20 21  2  0
 21 22  1  0
 22 23  2  0
 12  7  1  0
 23 13  1  0
 22 16  1  0
  3 24  1  0
  4 25  1  0
  4 26  1  0
  8 27  1  0
  8 28  1  0
  9 29  1  0
  9 30  1  0
 10 31  1  1
 11 32  1  0
 12 33  1  0
 12 34  1  0
 14 35  1  0
 15 36  1  0
 17 37  1  0
 20 38  1  0
 21 39  1  0
M  END
>  <smiles>  (14) 
O=C(NCC(=O)N1CC[C@H](O)C1)c1ccc2cc(F)ccc2n1

>  <score_type>  (14) 
oracle

>  <origin>  (14) 
autodockgpu

>  <m_score__min__energy>  (14) 
-7.7000000000000002

>  <m_primary>  (14) 
energy

>  <rmsd>  (14) 
3.7858995935386233

>  <m_score__min__rmsd>  (14) 
3.7858995935386233

>  <meeko>  (14) 
{"free_energy": -6.92, "intermolecular_energy": -8.41, "internal_energy": -0.93, "cluster_size": 35, "cluster_id": 1, "rank_in_cluster": 25}

>  <energy>  (14) 
-7.57

>  <cluster_rmsd>  (14) 
0.32

>  <cluster>  (14) 
1

$$$$

     RDKit          3D

 39 41  0  0  0  0  0  0  0  0999 V2000
  139.7930   72.9510  222.8740 O   0  0  0  0  0  0  0  0  0  0  0  0
  140.1520   71.7320  222.9800 C   0  0  0  0  0  0  0  0  0  0  0  0
  140.3150   71.0190  221.7730 N   0  0  0  0  0  0  0  0  0  0  0  0
  140.0750   71.6800  220.5130 C   0  0  0  0  0  0  0  0  0  0  0  0
  141.0830   72.7300  220.3070 C   0  0  0  0  0  0  0  0  0  0  0  0
  142.2370   72.3970  219.9530 O   0  0  0  0  0  0  0  0  0  0  0  0
  140.8220   74.1100  220.4850 N   0  0  0  0  0  0  0  0  0  0  0  0
  141.8280   75.1030  220.8080 C   0  0  0  0  0  0  0  0  0  0  0  0
  141.0090   76.3690  221.0940 C   0  0  0  0  0  0  0  0  0  0  0  0
  139.6040   75.8390  221.3920 C   0  0  2  0  0  0  0  0  0  0  0  0
  139.5620   75.3880  222.6900 O   0  0  0  0  0  0  0  0  0  0  0  0
  139.5130   74.7260  220.3710 C   0  0  0  0  0  0  0  0  0  0  0  0
  140.3780   71.1180  224.2840 C   0  0  0  0  0  0  0  0  0  0  0  0
  140.7390   71.9320  225.3440 C   0  0  0  0  0  0  0  0  0  0  0  0
  140.9710   71.4290  226.6060 C   0  0  0  0  0  0  0  0  0  0  0  0
  140.8380   70.0760  226.8150 C   0  0  0  0  0  0  0  0  0  0  0  0
  141.0680   69.5530  228.0790 C   0  0  0  0  0  0  0  0  0  0  0  0
  140.9350   68.1920  228.2910 C   0  0  0  0  0  0  0  0  0  0  0  0
  141.1540   67.6460  229.5190 F   0  0  0  0  0  0  0  0  0  0  0  0
  140.5790   67.4200  227.2240 C   0  0  0  0  0  0  0  0  0  0  0  0
  140.3470   67.9270  225.9580 C   0  0  0  0  0  0  0  0  0  0  0  0
  140.4800   69.2970  225.7400 C   0  0  0  0  0  0  0  0  0  0  0  0
  140.2590   69.8090  224.5190 N   0  0  0  0  0  0  0  0  0  0  0  0
  140.6050   70.0280  221.8270 H   0  0  0  0  0  0  0  0  0  0  0  0
  140.1391   70.9458  219.6964 H   0  0  0  0  0  0  0  0  0  0  0  0
  139.0726   72.1329  220.5232 H   0  0  0  0  0  0  0  0  0  0  0  0
  142.4068   74.8016  221.6935 H   0  0  0  0  0  0  0  0  0  0  0  0
  142.5633   75.2434  220.0020 H   0  0  0  0  0  0  0  0  0  0  0  0
  141.4152   76.9103  221.9612 H   0  0  0  0  0  0  0  0  0  0  0  0
  141.0246   77.0825  220.2569 H   0  0  0  0  0  0  0  0  0  0  0  0
  138.7750   76.5581  221.3171 H   0  0  0  0  0  0  0  0  0  0  0  0
  139.0690   74.5280  222.7660 H   0  0  0  0  0  0  0  0  0  0  0  0
  138.7125   74.0151  220.6239 H   0  0  0  0  0  0  0  0  0  0  0  0
  139.2708   75.0722  219.3554 H   0  0  0  0  0  0  0  0  0  0  0  0
  140.8439   73.0137  225.1737 H   0  0  0  0  0  0  0  0  0  0  0  0
  141.2574   72.0975  227.4313 H   0  0  0  0  0  0  0  0  0  0  0  0
  141.3545   70.2165  228.9083 H   0  0  0  0  0  0  0  0  0  0  0  0
  140.4706   66.3363  227.3787 H   0  0  0  0  0  0  0  0  0  0  0  0
  140.0611   67.2571  225.1336 H   0  0  0  0  0  0  0  0  0  0  0  0
  1  2  2  0
  2  3  1  0
  3  4  1  0
  4  5  1  0
  5  6  2  0
  5  7  1  0
  7  8  1  0
  8  9  1  0
  9 10  1  0
 10 11  1  0
 10 12  1  0
  2 13  1  0
 13 14  2  0
 14 15  1  0
 15 16  2  0
 16 17  1  0
 17 18  2  0
 18 19  1  0
 18 20  1  0
 20 21  2  0
 21 22  1  0
 22 23  2  0
 12  7  1  0
 23 13  1  0
 22 16  1  0
  3 24  1  0
  4 25  1  0
  4 26  1  0
  8 27  1  0
  8 28  1  0
  9 29  1  0
  9 30  1  0
 10 31  1  6
 11 32  1  0
 12 33  1  0
 12 34  1  0
 14 35  1  0
 15 36  1  0
 17 37  1  0
 20 38  1  0
 21 39  1  0
M  END
>  <smiles>  (15) 
O=C(NCC(=O)N1CC[C@H](O)C1)c1ccc2cc(F)ccc2n1

>  <score_type>  (15) 
oracle

>  <origin>  (15) 
autodockgpu

>  <m_score__min__energy>  (15) 
-7.7000000000000002

>  <m_primary>  (15) 
energy

>  <rmsd>  (15) 
3.1910135859780775

>  <m_score__min__rmsd>  (15) 
3.1910135859780775

>  <meeko>  (15) 
{"free_energy": -6.26, "intermolecular_energy": -7.75, "internal_energy": -1.69, "cluster_size": 35, "cluster_id": 1, "rank_in_cluster": 33}

>  <energy>  (15) 
-7.57

>  <cluster_rmsd>  (15) 
0.34

>  <cluster>  (15) 
1

$$$$

     RDKit          3D

 39 41  0  0  0  0  0  0  0  0999 V2000
  139.5880   73.6090  222.3710 O   0  0  0  0  0  0  0  0  0  0  0  0
  140.4290   72.6600  222.5110 C   0  0  0  0  0  0  0  0  0  0  0  0
  141.4770   72.6080  221.5670 N   0  0  0  0  0  0  0  0  0  0  0  0
  141.5480   73.5980  220.5210 C   0  0  0  0  0  0  0  0  0  0  0  0
  142.9520   73.9550  220.2730 C   0  0  0  0  0  0  0  0  0  0  0  0
  143.3050   75.1490  220.4150 O   0  0  0  0  0  0  0  0  0  0  0  0
  143.9400   73.0190  219.8810 N   0  0  0  0  0  0  0  0  0  0  0  0
  145.0970   72.6600  220.6800 C   0  0  0  0  0  0  0  0  0  0  0  0
  145.9360   71.7930  219.7310 C   0  0  0  0  0  0  0  0  0  0  0  0
  145.4160   72.1610  218.3390 C   0  0  2  0  0  0  0  0  0  0  0  0
  145.9950   73.3430  217.9440 O   0  0  0  0  0  0  0  0  0  0  0  0
  143.9370   72.2890  218.6280 C   0  0  0  0  0  0  0  0  0  0  0  0
  140.3030   71.6870  223.5900 C   0  0  0  0  0  0  0  0  0  0  0  0
  139.6650   70.4880  223.3280 C   0  0  0  0  0  0  0  0  0  0  0  0
  139.5050   69.5180  224.2950 C   0  0  0  0  0  0  0  0  0  0  0  0
  139.9960   69.7540  225.5570 C   0  0  0  0  0  0  0  0  0  0  0  0
  139.8440   68.7880  226.5420 C   0  0  0  0  0  0  0  0  0  0  0  0
  140.3380   69.0240  227.8130 C   0  0  0  0  0  0  0  0  0  0  0  0
  140.2050   68.0970  228.8030 F   0  0  0  0  0  0  0  0  0  0  0  0
  140.9600   70.2160  228.0370 C   0  0  0  0  0  0  0  0  0  0  0  0
  141.1190   71.1880  227.0640 C   0  0  0  0  0  0  0  0  0  0  0  0
  140.6230   70.9550  225.7830 C   0  0  0  0  0  0  0  0  0  0  0  0
  140.7690   71.8860  224.8270 N   0  0  0  0  0  0  0  0  0  0  0  0
  142.1740   71.8490  221.6550 H   0  0  0  0  0  0  0  0  0  0  0  0
  141.1062   73.1896  219.6001 H   0  0  0  0  0  0  0  0  0  0  0  0
  140.9924   74.4957  220.8300 H   0  0  0  0  0  0  0  0  0  0  0  0
  145.6544   73.5566  220.9890 H   0  0  0  0  0  0  0  0  0  0  0  0
  144.8287   72.1385  221.6106 H   0  0  0  0  0  0  0  0  0  0  0  0
  147.0055   72.0323  219.8251 H   0  0  0  0  0  0  0  0  0  0  0  0
  145.8456   70.7182  219.9470 H   0  0  0  0  0  0  0  0  0  0  0  0
  145.6334   71.4549  217.5241 H   0  0  0  0  0  0  0  0  0  0  0  0
  145.4890   74.1320  218.2780 H   0  0  0  0  0  0  0  0  0  0  0  0
  143.4220   72.8538  217.8370 H   0  0  0  0  0  0  0  0  0  0  0  0
  143.4081   71.3257  218.6757 H   0  0  0  0  0  0  0  0  0  0  0  0
  139.2731   70.3025  222.3170 H   0  0  0  0  0  0  0  0  0  0  0  0
  138.9938   68.5726  224.0607 H   0  0  0  0  0  0  0  0  0  0  0  0
  139.3339   67.8405  226.3137 H   0  0  0  0  0  0  0  0  0  0  0  0
  141.3563   70.4161  229.0434 H   0  0  0  0  0  0  0  0  0  0  0  0
  141.6307   72.1328  227.2994 H   0  0  0  0  0  0  0  0  0  0  0  0
  1  2  2  0
  2  3  1  0
  3  4  1  0
  4  5  1  0
  5  6  2  0
  5  7  1  0
  7  8  1  0
  8  9  1  0
  9 10  1  0
 10 11  1  0
 10 12  1  0
  2 13  1  0
 13 14  2  0
 14 15  1  0
 15 16  2  0
 16 17  1  0
 17 18  2  0
 18 19  1  0
 18 20  1  0
 20 21  2  0
 21 22  1  0
 22 23  2  0
 12  7  1  0
 23 13  1  0
 22 16  1  0
  3 24  1  0
  4 25  1  0
  4 26  1  0
  8 27  1  0
  8 28  1  0
  9 29  1  0
  9 30  1  0
 10 31  1  6
 11 32  1  0
 12 33  1  0
 12 34  1  0
 14 35  1  0
 15 36  1  0
 17 37  1  0
 20 38  1  0
 21 39  1  0
M  END
>  <smiles>  (16) 
O=C(NCC(=O)N1CC[C@H](O)C1)c1ccc2cc(F)ccc2n1

>  <score_type>  (16) 
oracle

>  <origin>  (16) 
autodockgpu

>  <m_score__min__energy>  (16) 
-7.7000000000000002

>  <m_primary>  (16) 
energy

>  <rmsd>  (16) 
3.9992307350123824

>  <m_score__min__rmsd>  (16) 
3.9992307350123824

>  <meeko>  (16) 
{"free_energy": -6.8, "intermolecular_energy": -8.29, "internal_energy": -0.8, "cluster_size": 35, "cluster_id": 1, "rank_in_cluster": 29}

>  <energy>  (16) 
-7.53

>  <cluster_rmsd>  (16) 
0.81

>  <cluster>  (16) 
1

$$$$

     RDKit          3D

 39 41  0  0  0  0  0  0  0  0999 V2000
  139.8680   73.6710  222.4290 O   0  0  0  0  0  0  0  0  0  0  0  0
  140.3620   72.4940  222.4190 C   0  0  0  0  0  0  0  0  0  0  0  0
  141.0380   72.1090  221.2420 N   0  0  0  0  0  0  0  0  0  0  0  0
  141.1370   73.0310  220.1370 C   0  0  0  0  0  0  0  0  0  0  0  0
  142.4120   72.8280  219.4370 C   0  0  0  0  0  0  0  0  0  0  0  0
  142.3920   72.4250  218.2510 O   0  0  0  0  0  0  0  0  0  0  0  0
  143.6760   73.0650  220.0290 N   0  0  0  0  0  0  0  0  0  0  0  0
  144.1710   74.3720  220.4190 C   0  0  0  0  0  0  0  0  0  0  0  0
  145.6330   74.1060  220.8010 C   0  0  0  0  0  0  0  0  0  0  0  0
  145.9580   72.7770  220.1140 C   0  0  2  0  0  0  0  0  0  0  0  0
  146.2340   73.0140  218.7900 O   0  0  0  0  0  0  0  0  0  0  0  0
  144.6550   72.0370  220.3290 C   0  0  0  0  0  0  0  0  0  0  0  0
  140.2280   71.6060  223.5680 C   0  0  0  0  0  0  0  0  0  0  0  0
  139.5880   70.3920  223.3940 C   0  0  0  0  0  0  0  0  0  0  0  0
  139.4200   69.4980  224.4300 C   0  0  0  0  0  0  0  0  0  0  0  0
  139.9070   69.8270  225.6730 C   0  0  0  0  0  0  0  0  0  0  0  0
  139.7470   68.9380  226.7270 C   0  0  0  0  0  0  0  0  0  0  0  0
  140.2360   69.2680  227.9790 C   0  0  0  0  0  0  0  0  0  0  0  0
  140.0960   68.4190  229.0360 F   0  0  0  0  0  0  0  0  0  0  0  0
  140.8610   70.4720  228.1150 C   0  0  0  0  0  0  0  0  0  0  0  0
  141.0280   71.3680  227.0730 C   0  0  0  0  0  0  0  0  0  0  0  0
  140.5370   71.0400  225.8110 C   0  0  0  0  0  0  0  0  0  0  0  0
  140.6890   71.8960  224.7880 N   0  0  0  0  0  0  0  0  0  0  0  0
  141.4490   71.1600  221.2040 H   0  0  0  0  0  0  0  0  0  0  0  0
  140.3047   72.8565  219.4392 H   0  0  0  0  0  0  0  0  0  0  0  0
  141.0897   74.0622  220.5170 H   0  0  0  0  0  0  0  0  0  0  0  0
  144.1071   75.0820  219.5813 H   0  0  0  0  0  0  0  0  0  0  0  0
  143.5906   74.8214  221.2382 H   0  0  0  0  0  0  0  0  0  0  0  0
  146.2868   74.9087  220.4292 H   0  0  0  0  0  0  0  0  0  0  0  0
  145.7867   74.0692  221.8896 H   0  0  0  0  0  0  0  0  0  0  0  0
  146.8320   72.2239  220.4884 H   0  0  0  0  0  0  0  0  0  0  0  0
  146.1840   73.9830  218.5700 H   0  0  0  0  0  0  0  0  0  0  0  0
  144.5617   71.1827  219.6424 H   0  0  0  0  0  0  0  0  0  0  0  0
  144.5505   71.6024  221.3341 H   0  0  0  0  0  0  0  0  0  0  0  0
  139.2010   70.1318  222.3978 H   0  0  0  0  0  0  0  0  0  0  0  0
  138.9060   68.5395  224.2652 H   0  0  0  0  0  0  0  0  0  0  0  0
  139.2349   67.9775  226.5682 H   0  0  0  0  0  0  0  0  0  0  0  0
  141.2534   70.7461  229.1054 H   0  0  0  0  0  0  0  0  0  0  0  0
  141.5416   72.3264  227.2392 H   0  0  0  0  0  0  0  0  0  0  0  0
  1  2  2  0
  2  3  1  0
  3  4  1  0
  4  5  1  0
  5  6  2  0
  5  7  1  0
  7  8  1  0
  8  9  1  0
  9 10  1  0
 10 11  1  0
 10 12  1  0
  2 13  1  0
 13 14  2  0
 14 15  1  0
 15 16  2  0
 16 17  1  0
 17 18  2  0
 18 19  1  0
 18 20  1  0
 20 21  2  0
 21 22  1  0
 22 23  2  0
 12  7  1  0
 23 13  1  0
 22 16  1  0
  3 24  1  0
  4 25  1  0
  4 26  1  0
  8 27  1  0
  8 28  1  0
  9 29  1  0
  9 30  1  0
 10 31  1  1
 11 32  1  0
 12 33  1  0
 12 34  1  0
 14 35  1  0
 15 36  1  0
 17 37  1  0
 20 38  1  0
 21 39  1  0
M  END
>  <smiles>  (17) 
O=C(NCC(=O)N1CC[C@H](O)C1)c1ccc2cc(F)ccc2n1

>  <score_type>  (17) 
oracle

>  <origin>  (17) 
autodockgpu

>  <m_score__min__energy>  (17) 
-7.7000000000000002

>  <m_primary>  (17) 
energy

>  <rmsd>  (17) 
3.912931480919993

>  <m_score__min__rmsd>  (17) 
3.912931480919993

>  <meeko>  (17) 
{"free_energy": -7.68, "intermolecular_energy": -9.18, "internal_energy": -0.75, "cluster_size": 35, "cluster_id": 1, "rank_in_cluster": 4}

>  <energy>  (17) 
-7.52

>  <cluster_rmsd>  (17) 
0.81

>  <cluster>  (17) 
1

$$$$

     RDKit          3D

 39 41  0  0  0  0  0  0  0  0999 V2000
  139.9350   73.0000  222.9320 O   0  0  0  0  0  0  0  0  0  0  0  0
  140.0940   71.7390  223.0400 C   0  0  0  0  0  0  0  0  0  0  0  0
  139.9910   70.9900  221.8480 N   0  0  0  0  0  0  0  0  0  0  0  0
  139.7190   71.6620  220.6020 C   0  0  0  0  0  0  0  0  0  0  0  0
  140.8120   72.5950  220.2940 C   0  0  0  0  0  0  0  0  0  0  0  0
  141.8830   72.1380  219.8320 O   0  0  0  0  0  0  0  0  0  0  0  0
  140.7230   73.9950  220.4900 N   0  0  0  0  0  0  0  0  0  0  0  0
  141.8420   74.8490  220.8410 C   0  0  0  0  0  0  0  0  0  0  0  0
  141.1840   76.2030  221.1350 C   0  0  0  0  0  0  0  0  0  0  0  0
  139.7190   75.8500  221.4070 C   0  0  2  0  0  0  0  0  0  0  0  0
  139.6020   75.3920  222.6970 O   0  0  0  0  0  0  0  0  0  0  0  0
  139.5040   74.7720  220.3680 C   0  0  0  0  0  0  0  0  0  0  0  0
  140.3670   71.1170  224.3310 C   0  0  0  0  0  0  0  0  0  0  0  0
  140.7580   71.9240  225.3840 C   0  0  0  0  0  0  0  0  0  0  0  0
  141.0350   71.4130  226.6340 C   0  0  0  0  0  0  0  0  0  0  0  0
  140.9160   70.0570  226.8370 C   0  0  0  0  0  0  0  0  0  0  0  0
  141.1910   69.5270  228.0880 C   0  0  0  0  0  0  0  0  0  0  0  0
  141.0720   68.1620  228.2940 C   0  0  0  0  0  0  0  0  0  0  0  0
  141.3340   67.6080  229.5100 F   0  0  0  0  0  0  0  0  0  0  0  0
  140.6850   67.3970  227.2340 C   0  0  0  0  0  0  0  0  0  0  0  0
  140.4080   67.9130  225.9800 C   0  0  0  0  0  0  0  0  0  0  0  0
  140.5260   69.2850  225.7690 C   0  0  0  0  0  0  0  0  0  0  0  0
  140.2620   69.8050  224.5600 N   0  0  0  0  0  0  0  0  0  0  0  0
  140.1160   69.9650  221.9050 H   0  0  0  0  0  0  0  0  0  0  0  0
  139.6351   70.9181  219.7960 H   0  0  0  0  0  0  0  0  0  0  0  0
  138.7757   72.2213  220.6879 H   0  0  0  0  0  0  0  0  0  0  0  0
  142.3652   74.4655  221.7293 H   0  0  0  0  0  0  0  0  0  0  0  0
  142.6015   74.9062  220.0473 H   0  0  0  0  0  0  0  0  0  0  0  0
  141.6420   76.6777  222.0153 H   0  0  0  0  0  0  0  0  0  0  0  0
  141.3010   76.9196  220.3086 H   0  0  0  0  0  0  0  0  0  0  0  0
  138.9874   76.6680  221.3324 H   0  0  0  0  0  0  0  0  0  0  0  0
  139.1630   74.5000  222.7330 H   0  0  0  0  0  0  0  0  0  0  0  0
  138.6168   74.1642  220.5991 H   0  0  0  0  0  0  0  0  0  0  0  0
  139.3224   75.1597  219.3547 H   0  0  0  0  0  0  0  0  0  0  0  0
  140.8508   73.0076  225.2189 H   0  0  0  0  0  0  0  0  0  0  0  0
  141.3455   72.0769  227.4542 H   0  0  0  0  0  0  0  0  0  0  0  0
  141.5018   70.1860  228.9121 H   0  0  0  0  0  0  0  0  0  0  0  0
  140.5877   66.3115  227.3834 H   0  0  0  0  0  0  0  0  0  0  0  0
  140.0985   67.2481  225.1602 H   0  0  0  0  0  0  0  0  0  0  0  0
  1  2  2  0
  2  3  1  0
  3  4  1  0
  4  5  1  0
  5  6  2  0
  5  7  1  0
  7  8  1  0
  8  9  1  0
  9 10  1  0
 10 11  1  0
 10 12  1  0
  2 13  1  0
 13 14  2  0
 14 15  1  0
 15 16  2  0
 16 17  1  0
 17 18  2  0
 18 19  1  0
 18 20  1  0
 20 21  2  0
 21 22  1  0
 22 23  2  0
 12  7  1  0
 23 13  1  0
 22 16  1  0
  3 24  1  0
  4 25  1  0
  4 26  1  0
  8 27  1  0
  8 28  1  0
  9 29  1  0
  9 30  1  0
 10 31  1  6
 11 32  1  0
 12 33  1  0
 12 34  1  0
 14 35  1  0
 15 36  1  0
 17 37  1  0
 20 38  1  0
 21 39  1  0
M  END
>  <smiles>  (18) 
O=C(NCC(=O)N1CC[C@H](O)C1)c1ccc2cc(F)ccc2n1

>  <score_type>  (18) 
oracle

>  <origin>  (18) 
autodockgpu

>  <m_score__min__energy>  (18) 
-7.7000000000000002

>  <m_primary>  (18) 
energy

>  <rmsd>  (18) 
3.1977744824239576

>  <m_score__min__rmsd>  (18) 
3.1977744824239576

>  <meeko>  (18) 
{"free_energy": -6.27, "intermolecular_energy": -7.76, "internal_energy": -1.68, "cluster_size": 35, "cluster_id": 1, "rank_in_cluster": 32}

>  <energy>  (18) 
-7.5

>  <cluster_rmsd>  (18) 
0.82

>  <cluster>  (18) 
1

$$$$

     RDKit          3D

 39 41  0  0  0  0  0  0  0  0999 V2000
  139.1050   72.0170  221.0250 O   0  0  0  0  0  0  0  0  0  0  0  0
  140.0610   72.1000  221.8650 C   0  0  0  0  0  0  0  0  0  0  0  0
  141.1640   72.8930  221.4830 N   0  0  0  0  0  0  0  0  0  0  0  0
  141.1610   73.5530  220.2010 C   0  0  0  0  0  0  0  0  0  0  0  0
  142.3970   73.2290  219.4750 C   0  0  0  0  0  0  0  0  0  0  0  0
  142.3170   72.8630  218.2800 O   0  0  0  0  0  0  0  0  0  0  0  0
  143.6870   73.3080  220.0540 N   0  0  0  0  0  0  0  0  0  0  0  0
  144.3270   74.5400  220.4750 C   0  0  0  0  0  0  0  0  0  0  0  0
  145.7560   74.1040  220.8250 C   0  0  0  0  0  0  0  0  0  0  0  0
  145.9240   72.7690  220.0940 C   0  0  2  0  0  0  0  0  0  0  0  0
  146.2080   73.0160  218.7730 O   0  0  0  0  0  0  0  0  0  0  0  0
  144.5510   72.1700  220.3080 C   0  0  0  0  0  0  0  0  0  0  0  0
  140.0060   71.4070  223.1470 C   0  0  0  0  0  0  0  0  0  0  0  0
  139.3300   70.2020  223.2190 C   0  0  0  0  0  0  0  0  0  0  0  0
  139.2310   69.4870  224.3940 C   0  0  0  0  0  0  0  0  0  0  0  0
  139.8270   69.9900  225.5270 C   0  0  0  0  0  0  0  0  0  0  0  0
  139.7380   69.2830  226.7170 C   0  0  0  0  0  0  0  0  0  0  0  0
  140.3370   69.7880  227.8590 C   0  0  0  0  0  0  0  0  0  0  0  0
  140.2690   69.1190  229.0440 F   0  0  0  0  0  0  0  0  0  0  0  0
  140.9950   70.9770  227.7520 C   0  0  0  0  0  0  0  0  0  0  0  0
  141.0920   71.6930  226.5710 C   0  0  0  0  0  0  0  0  0  0  0  0
  140.4900   71.1890  225.4200 C   0  0  0  0  0  0  0  0  0  0  0  0
  140.5730   71.8680  224.2660 N   0  0  0  0  0  0  0  0  0  0  0  0
  141.9550   72.9790  222.1430 H   0  0  0  0  0  0  0  0  0  0  0  0
  140.2935   73.2127  219.6164 H   0  0  0  0  0  0  0  0  0  0  0  0
  141.1009   74.6410  220.3512 H   0  0  0  0  0  0  0  0  0  0  0  0
  144.3305   75.2790  219.6602 H   0  0  0  0  0  0  0  0  0  0  0  0
  143.8099   75.0239  221.3167 H   0  0  0  0  0  0  0  0  0  0  0  0
  146.4890   74.8415  220.4661 H   0  0  0  0  0  0  0  0  0  0  0  0
  145.9191   74.0170  221.9094 H   0  0  0  0  0  0  0  0  0  0  0  0
  146.7362   72.1116  220.4377 H   0  0  0  0  0  0  0  0  0  0  0  0
  146.1870   73.9890  218.5660 H   0  0  0  0  0  0  0  0  0  0  0  0
  144.3557   71.3527  219.5982 H   0  0  0  0  0  0  0  0  0  0  0  0
  144.4121   71.7186  221.3015 H   0  0  0  0  0  0  0  0  0  0  0  0
  138.8566   69.8017  222.3103 H   0  0  0  0  0  0  0  0  0  0  0  0
  138.6856   68.5322  224.4246 H   0  0  0  0  0  0  0  0  0  0  0  0
  139.1950   68.3271  226.7535 H   0  0  0  0  0  0  0  0  0  0  0  0
  141.4745   71.3896  228.6519 H   0  0  0  0  0  0  0  0  0  0  0  0
  141.6375   72.6478  226.5418 H   0  0  0  0  0  0  0  0  0  0  0  0
  1  2  2  0
  2  3  1  0
  3  4  1  0
  4  5  1  0
  5  6  2  0
  5  7  1  0
  7  8  1  0
  8  9  1  0
  9 10  1  0
 10 11  1  0
 10 12  1  0
  2 13  1  0
 13 14  2  0
 14 15  1  0
 15 16  2  0
 16 17  1  0
 17 18  2  0
 18 19  1  0
 18 20  1  0
 20 21  2  0
 21 22  1  0
 22 23  2  0
 12  7  1  0
 23 13  1  0
 22 16  1  0
  3 24  1  0
  4 25  1  0
  4 26  1  0
  8 27  1  0
  8 28  1  0
  9 29  1  0
  9 30  1  0
 10 31  1  1
 11 32  1  0
 12 33  1  0
 12 34  1  0
 14 35  1  0
 15 36  1  0
 17 37  1  0
 20 38  1  0
 21 39  1  0
M  END
>  <smiles>  (19) 
O=C(NCC(=O)N1CC[C@H](O)C1)c1ccc2cc(F)ccc2n1

>  <score_type>  (19) 
oracle

>  <origin>  (19) 
autodockgpu

>  <m_score__min__energy>  (19) 
-7.7000000000000002

>  <m_primary>  (19) 
energy

>  <rmsd>  (19) 
3.829489409646255

>  <m_score__min__rmsd>  (19) 
3.829489409646255

>  <meeko>  (19) 
{"free_energy": -6.84, "intermolecular_energy": -8.33, "internal_energy": -0.89, "cluster_size": 35, "cluster_id": 1, "rank_in_cluster": 28}

>  <energy>  (19) 
-7.49

>  <cluster_rmsd>  (19) 
0.83

>  <cluster>  (19) 
1

$$$$

     RDKit          3D

 39 41  0  0  0  0  0  0  0  0999 V2000
  139.9230   72.9980  222.9270 O   0  0  0  0  0  0  0  0  0  0  0  0
  140.1330   71.7440  223.0280 C   0  0  0  0  0  0  0  0  0  0  0  0
  140.1180   71.0080  221.8240 N   0  0  0  0  0  0  0  0  0  0  0  0
  139.8750   71.6830  220.5740 C   0  0  0  0  0  0  0  0  0  0  0  0
  140.9340   72.6730  220.3320 C   0  0  0  0  0  0  0  0  0  0  0  0
  142.0570   72.2740  219.9470 O   0  0  0  0  0  0  0  0  0  0  0  0
  140.7570   74.0670  220.5120 N   0  0  0  0  0  0  0  0  0  0  0  0
  141.8180   74.9940  220.8530 C   0  0  0  0  0  0  0  0  0  0  0  0
  141.0760   76.3080  221.1320 C   0  0  0  0  0  0  0  0  0  0  0  0
  139.6360   75.8660  221.4060 C   0  0  2  0  0  0  0  0  0  0  0  0
  139.5460   75.4160  222.7010 O   0  0  0  0  0  0  0  0  0  0  0  0
  139.4910   74.7640  220.3800 C   0  0  0  0  0  0  0  0  0  0  0  0
  140.3720   71.1160  224.3230 C   0  0  0  0  0  0  0  0  0  0  0  0
  140.7420   71.9190  225.3870 C   0  0  0  0  0  0  0  0  0  0  0  0
  140.9870   71.4030  226.6420 C   0  0  0  0  0  0  0  0  0  0  0  0
  140.8590   70.0470  226.8370 C   0  0  0  0  0  0  0  0  0  0  0  0
  141.1010   69.5120  228.0930 C   0  0  0  0  0  0  0  0  0  0  0  0
  140.9730   68.1470  228.2920 C   0  0  0  0  0  0  0  0  0  0  0  0
  141.2040   67.5880  229.5120 F   0  0  0  0  0  0  0  0  0  0  0  0
  140.6070   67.3860  227.2210 C   0  0  0  0  0  0  0  0  0  0  0  0
  140.3620   67.9080  225.9620 C   0  0  0  0  0  0  0  0  0  0  0  0
  140.4910   69.2800  225.7580 C   0  0  0  0  0  0  0  0  0  0  0  0
  140.2570   69.8040  224.5450 N   0  0  0  0  0  0  0  0  0  0  0  0
  140.2850   69.9880  221.8740 H   0  0  0  0  0  0  0  0  0  0  0  0
  139.8684   70.9472  219.7563 H   0  0  0  0  0  0  0  0  0  0  0  0
  138.9019   72.1939  220.6189 H   0  0  0  0  0  0  0  0  0  0  0  0
  142.3639   74.6545  221.7456 H   0  0  0  0  0  0  0  0  0  0  0  0
  142.5722   75.0904  220.0581 H   0  0  0  0  0  0  0  0  0  0  0  0
  141.5018   76.8197  222.0077 H   0  0  0  0  0  0  0  0  0  0  0  0
  141.1495   77.0222  220.2986 H   0  0  0  0  0  0  0  0  0  0  0  0
  138.8546   76.6355  221.3204 H   0  0  0  0  0  0  0  0  0  0  0  0
  139.1280   74.5150  222.7500 H   0  0  0  0  0  0  0  0  0  0  0  0
  138.6438   74.1041  220.6181 H   0  0  0  0  0  0  0  0  0  0  0  0
  139.2865   75.1272  219.3620 H   0  0  0  0  0  0  0  0  0  0  0  0
  140.8439   73.0025  225.2269 H   0  0  0  0  0  0  0  0  0  0  0  0
  141.2794   72.0632  227.4719 H   0  0  0  0  0  0  0  0  0  0  0  0
  141.3929   70.1676  228.9266 H   0  0  0  0  0  0  0  0  0  0  0  0
  140.5008   66.3006  227.3648 H   0  0  0  0  0  0  0  0  0  0  0  0
  140.0690   67.2472  225.1329 H   0  0  0  0  0  0  0  0  0  0  0  0
  1  2  2  0
  2  3  1  0
  3  4  1  0
  4  5  1  0
  5  6  2  0
  5  7  1  0
  7  8  1  0
  8  9  1  0
  9 10  1  0
 10 11  1  0
 10 12  1  0
  2 13  1  0
 13 14  2  0
 14 15  1  0
 15 16  2  0
 16 17  1  0
 17 18  2  0
 18 19  1  0
 18 20  1  0
 20 21  2  0
 21 22  1  0
 22 23  2  0
 12  7  1  0
 23 13  1  0
 22 16  1  0
  3 24  1  0
  4 25  1  0
  4 26  1  0
  8 27  1  0
  8 28  1  0
  9 29  1  0
  9 30  1  0
 10 31  1  6
 11 32  1  0
 12 33  1  0
 12 34  1  0
 14 35  1  0
 15 36  1  0
 17 37  1  0
 20 38  1  0
 21 39  1  0
M  END
>  <smiles>  (20) 
O=C(NCC(=O)N1CC[C@H](O)C1)c1ccc2cc(F)ccc2n1

>  <score_type>  (20) 
oracle

>  <origin>  (20) 
autodockgpu

>  <m_score__min__energy>  (20) 
-7.7000000000000002

>  <m_primary>  (20) 
energy

>  <rmsd>  (20) 
3.1912523022746053

>  <m_score__min__rmsd>  (20) 
3.1912523022746053

>  <meeko>  (20) 
{"free_energy": -6.32, "intermolecular_energy": -7.81, "internal_energy": -1.68, "cluster_size": 35, "cluster_id": 1, "rank_in_cluster": 31}

>  <energy>  (20) 
-7.49

>  <cluster_rmsd>  (20) 
0.32

>  <cluster>  (20) 
1

$$$$

     RDKit          3D

 39 41  0  0  0  0  0  0  0  0999 V2000
  139.5760   72.8840  222.8290 O   0  0  0  0  0  0  0  0  0  0  0  0
  140.0120   71.6890  222.9300 C   0  0  0  0  0  0  0  0  0  0  0  0
  140.2330   70.9990  221.7190 N   0  0  0  0  0  0  0  0  0  0  0  0
  139.9650   71.6530  220.4620 C   0  0  0  0  0  0  0  0  0  0  0  0
  140.9940   72.6700  220.2050 C   0  0  0  0  0  0  0  0  0  0  0  0
  142.1010   72.3070  219.7460 O   0  0  0  0  0  0  0  0  0  0  0  0
  140.8040   74.0530  220.4490 N   0  0  0  0  0  0  0  0  0  0  0  0
  141.8570   74.9730  220.8340 C   0  0  0  0  0  0  0  0  0  0  0  0
  141.1030   76.2650  221.1730 C   0  0  0  0  0  0  0  0  0  0  0  0
  139.6670   75.7980  221.4260 C   0  0  2  0  0  0  0  0  0  0  0  0
  139.5810   75.2870  222.6980 O   0  0  0  0  0  0  0  0  0  0  0  0
  139.5320   74.7440  220.3490 C   0  0  0  0  0  0  0  0  0  0  0  0
  140.2630   71.0810  224.2320 C   0  0  0  0  0  0  0  0  0  0  0  0
  140.7200   71.8860  225.2600 C   0  0  0  0  0  0  0  0  0  0  0  0
  140.9820   71.3870  226.5180 C   0  0  0  0  0  0  0  0  0  0  0  0
  140.7800   70.0470  226.7550 C   0  0  0  0  0  0  0  0  0  0  0  0
  141.0390   69.5290  228.0150 C   0  0  0  0  0  0  0  0  0  0  0  0
  140.8370   68.1810  228.2550 C   0  0  0  0  0  0  0  0  0  0  0  0
  141.0800   67.6390  229.4810 F   0  0  0  0  0  0  0  0  0  0  0  0
  140.3860   67.4170  227.2190 C   0  0  0  0  0  0  0  0  0  0  0  0
  140.1240   67.9210  225.9570 C   0  0  0  0  0  0  0  0  0  0  0  0
  140.3270   69.2770  225.7110 C   0  0  0  0  0  0  0  0  0  0  0  0
  140.0780   69.7840  224.4930 N   0  0  0  0  0  0  0  0  0  0  0  0
  140.5860   70.0280  221.7700 H   0  0  0  0  0  0  0  0  0  0  0  0
  139.9763   70.9084  219.6524 H   0  0  0  0  0  0  0  0  0  0  0  0
  138.9776   72.1359  220.5052 H   0  0  0  0  0  0  0  0  0  0  0  0
  142.4055   74.5972  221.7103 H   0  0  0  0  0  0  0  0  0  0  0  0
  142.6108   75.1131  220.0453 H   0  0  0  0  0  0  0  0  0  0  0  0
  141.5242   76.7396  222.0715 H   0  0  0  0  0  0  0  0  0  0  0  0
  141.1697   77.0173  220.3732 H   0  0  0  0  0  0  0  0  0  0  0  0
  138.8788   76.5637  221.3768 H   0  0  0  0  0  0  0  0  0  0  0  0
  138.9910   74.4880  222.7360 H   0  0  0  0  0  0  0  0  0  0  0  0
  138.6906   74.0661  220.5552 H   0  0  0  0  0  0  0  0  0  0  0  0
  139.3245   75.1528  219.3491 H   0  0  0  0  0  0  0  0  0  0  0  0
  140.8792   72.9573  225.0676 H   0  0  0  0  0  0  0  0  0  0  0  0
  141.3460   72.0484  227.3180 H   0  0  0  0  0  0  0  0  0  0  0  0
  141.4029   70.1856  228.8190 H   0  0  0  0  0  0  0  0  0  0  0  0
  140.2219   66.3438  227.3959 H   0  0  0  0  0  0  0  0  0  0  0  0
  139.7598   67.2587  225.1578 H   0  0  0  0  0  0  0  0  0  0  0  0
  1  2  2  0
  2  3  1  0
  3  4  1  0
  4  5  1  0
  5  6  2  0
  5  7  1  0
  7  8  1  0
  8  9  1  0
  9 10  1  0
 10 11  1  0
 10 12  1  0
  2 13  1  0
 13 14  2  0
 14 15  1  0
 15 16  2  0
 16 17  1  0
 17 18  2  0
 18 19  1  0
 18 20  1  0
 20 21  2  0
 21 22  1  0
 22 23  2  0
 12  7  1  0
 23 13  1  0
 22 16  1  0
  3 24  1  0
  4 25  1  0
  4 26  1  0
  8 27  1  0
  8 28  1  0
  9 29  1  0
  9 30  1  0
 10 31  1  6
 11 32  1  0
 12 33  1  0
 12 34  1  0
 14 35  1  0
 15 36  1  0
 17 37  1  0
 20 38  1  0
 21 39  1  0
M  END
>  <smiles>  (21) 
O=C(NCC(=O)N1CC[C@H](O)C1)c1ccc2cc(F)ccc2n1

>  <score_type>  (21) 
oracle

>  <origin>  (21) 
autodockgpu

>  <m_score__min__energy>  (21) 
-7.7000000000000002

>  <m_primary>  (21) 
energy

>  <rmsd>  (21) 
3.1896382218754415

>  <m_score__min__rmsd>  (21) 
3.1896382218754415

>  <meeko>  (21) 
{"free_energy": -6.23, "intermolecular_energy": -7.72, "internal_energy": -1.67, "cluster_size": 35, "cluster_id": 1, "rank_in_cluster": 34}

>  <energy>  (21) 
-7.46

>  <cluster_rmsd>  (21) 
0.79

>  <cluster>  (21) 
1

$$$$

     RDKit          3D

 39 41  0  0  0  0  0  0  0  0999 V2000
  140.1330   73.6560  222.3510 O   0  0  0  0  0  0  0  0  0  0  0  0
  140.4310   72.4170  222.3000 C   0  0  0  0  0  0  0  0  0  0  0  0
  140.8910   71.9350  221.0560 N   0  0  0  0  0  0  0  0  0  0  0  0
  140.9990   72.8340  219.9340 C   0  0  0  0  0  0  0  0  0  0  0  0
  142.3290   72.7040  219.3230 C   0  0  0  0  0  0  0  0  0  0  0  0
  142.4130   72.2830  218.1460 O   0  0  0  0  0  0  0  0  0  0  0  0
  143.5330   73.0300  219.9920 N   0  0  0  0  0  0  0  0  0  0  0  0
  143.9400   74.3760  220.3460 C   0  0  0  0  0  0  0  0  0  0  0  0
  145.3790   74.1990  220.8470 C   0  0  0  0  0  0  0  0  0  0  0  0
  145.8120   72.8530  220.2600 C   0  0  2  0  0  0  0  0  0  0  0  0
  146.1770   73.0350  218.9480 O   0  0  0  0  0  0  0  0  0  0  0  0
  144.5300   72.0650  220.4190 C   0  0  0  0  0  0  0  0  0  0  0  0
  140.2990   71.5560  223.4700 C   0  0  0  0  0  0  0  0  0  0  0  0
  139.6920   70.3220  223.3170 C   0  0  0  0  0  0  0  0  0  0  0  0
  139.5280   69.4520  224.3740 C   0  0  0  0  0  0  0  0  0  0  0  0
  139.9850   69.8250  225.6160 C   0  0  0  0  0  0  0  0  0  0  0  0
  139.8290   68.9610  226.6900 C   0  0  0  0  0  0  0  0  0  0  0  0
  140.2880   69.3340  227.9410 C   0  0  0  0  0  0  0  0  0  0  0  0
  140.1510   68.5100  229.0170 F   0  0  0  0  0  0  0  0  0  0  0  0
  140.8820   70.5570  228.0560 C   0  0  0  0  0  0  0  0  0  0  0  0
  141.0440   71.4290  226.9930 C   0  0  0  0  0  0  0  0  0  0  0  0
  140.5830   71.0570  225.7320 C   0  0  0  0  0  0  0  0  0  0  0  0
  140.7320   71.8880  224.6890 N   0  0  0  0  0  0  0  0  0  0  0  0
  141.1400   70.9330  220.9840 H   0  0  0  0  0  0  0  0  0  0  0  0
  140.2284   72.5844  219.1897 H   0  0  0  0  0  0  0  0  0  0  0  0
  140.8561   73.8683  220.2802 H   0  0  0  0  0  0  0  0  0  0  0  0
  143.9085   75.0391  219.4689 H   0  0  0  0  0  0  0  0  0  0  0  0
  143.2808   74.8382  221.0955 H   0  0  0  0  0  0  0  0  0  0  0  0
  146.0236   75.0113  220.4800 H   0  0  0  0  0  0  0  0  0  0  0  0
  145.4518   74.2257  221.9443 H   0  0  0  0  0  0  0  0  0  0  0  0
  146.6779   72.3612  220.7272 H   0  0  0  0  0  0  0  0  0  0  0  0
  146.1970   73.9980  218.7010 H   0  0  0  0  0  0  0  0  0  0  0  0
  144.5256   71.1731  219.7751 H   0  0  0  0  0  0  0  0  0  0  0  0
  144.3684   71.6780  221.4359 H   0  0  0  0  0  0  0  0  0  0  0  0
  139.3292   70.0260  222.3216 H   0  0  0  0  0  0  0  0  0  0  0  0
  139.0404   68.4771  224.2263 H   0  0  0  0  0  0  0  0  0  0  0  0
  139.3430   67.9845  226.5479 H   0  0  0  0  0  0  0  0  0  0  0  0
  141.2514   70.8662  229.0449 H   0  0  0  0  0  0  0  0  0  0  0  0
  141.5309   72.4040  227.1422 H   0  0  0  0  0  0  0  0  0  0  0  0
  1  2  2  0
  2  3  1  0
  3  4  1  0
  4  5  1  0
  5  6  2  0
  5  7  1  0
  7  8  1  0
  8  9  1  0
  9 10  1  0
 10 11  1  0
 10 12  1  0
  2 13  1  0
 13 14  2  0
 14 15  1  0
 15 16  2  0
 16 17  1  0
 17 18  2  0
 18 19  1  0
 18 20  1  0
 20 21  2  0
 21 22  1  0
 22 23  2  0
 12  7  1  0
 23 13  1  0
 22 16  1  0
  3 24  1  0
  4 25  1  0
  4 26  1  0
  8 27  1  0
  8 28  1  0
  9 29  1  0
  9 30  1  0
 10 31  1  1
 11 32  1  0
 12 33  1  0
 12 34  1  0
 14 35  1  0
 15 36  1  0
 17 37  1  0
 20 38  1  0
 21 39  1  0
M  END
>  <smiles>  (22) 
O=C(NCC(=O)N1CC[C@H](O)C1)c1ccc2cc(F)ccc2n1

>  <score_type>  (22) 
oracle

>  <origin>  (22) 
autodockgpu

>  <m_score__min__energy>  (22) 
-7.7000000000000002

>  <m_primary>  (22) 
energy

>  <rmsd>  (22) 
3.848074003027499

>  <m_score__min__rmsd>  (22) 
3.848074003027499

>  <meeko>  (22) 
{"free_energy": -7.58, "intermolecular_energy": -9.07, "internal_energy": -0.8, "cluster_size": 35, "cluster_id": 1, "rank_in_cluster": 12}

>  <energy>  (22) 
-7.27

>  <cluster_rmsd>  (22) 
0.96

>  <cluster>  (22) 
1

$$$$

     RDKit          3D

 39 41  0  0  0  0  0  0  0  0999 V2000
  139.8640   73.6810  222.3730 O   0  0  0  0  0  0  0  0  0  0  0  0
  140.3660   72.5080  222.3540 C   0  0  0  0  0  0  0  0  0  0  0  0
  141.0270   72.1290  221.1660 N   0  0  0  0  0  0  0  0  0  0  0  0
  141.1030   73.0540  220.0620 C   0  0  0  0  0  0  0  0  0  0  0  0
  142.3800   72.8770  219.3570 C   0  0  0  0  0  0  0  0  0  0  0  0
  142.3610   72.5680  218.1430 O   0  0  0  0  0  0  0  0  0  0  0  0
  143.6430   73.0380  219.9760 N   0  0  0  0  0  0  0  0  0  0  0  0
  144.1530   74.2940  220.4920 C   0  0  0  0  0  0  0  0  0  0  0  0
  145.6090   73.9730  220.8530 C   0  0  0  0  0  0  0  0  0  0  0  0
  145.9200   72.7110  220.0430 C   0  0  2  0  0  0  0  0  0  0  0  0
  146.2070   73.0710  218.7490 O   0  0  0  0  0  0  0  0  0  0  0  0
  144.6060   71.9730  220.1800 C   0  0  0  0  0  0  0  0  0  0  0  0
  140.2550   71.6170  223.5040 C   0  0  0  0  0  0  0  0  0  0  0  0
  139.6520   70.3840  223.3280 C   0  0  0  0  0  0  0  0  0  0  0  0
  139.5080   69.4860  224.3640 C   0  0  0  0  0  0  0  0  0  0  0  0
  139.9800   69.8310  225.6100 C   0  0  0  0  0  0  0  0  0  0  0  0
  139.8440   68.9390  226.6630 C   0  0  0  0  0  0  0  0  0  0  0  0
  140.3180   69.2840  227.9170 C   0  0  0  0  0  0  0  0  0  0  0  0
  140.2000   68.4320  228.9740 F   0  0  0  0  0  0  0  0  0  0  0  0
  140.9060   70.5070  228.0550 C   0  0  0  0  0  0  0  0  0  0  0  0
  141.0490   71.4060  227.0120 C   0  0  0  0  0  0  0  0  0  0  0  0
  140.5720   71.0630  225.7480 C   0  0  0  0  0  0  0  0  0  0  0  0
  140.7020   71.9220  224.7250 N   0  0  0  0  0  0  0  0  0  0  0  0
  141.4430   71.1830  221.1210 H   0  0  0  0  0  0  0  0  0  0  0  0
  140.2718   72.8636  219.3671 H   0  0  0  0  0  0  0  0  0  0  0  0
  141.0361   74.0837  220.4432 H   0  0  0  0  0  0  0  0  0  0  0  0
  144.1031   75.0821  219.7262 H   0  0  0  0  0  0  0  0  0  0  0  0
  143.5740   74.6702  221.3483 H   0  0  0  0  0  0  0  0  0  0  0  0
  146.2753   74.7986  220.5624 H   0  0  0  0  0  0  0  0  0  0  0  0
  145.7564   73.8304  221.9337 H   0  0  0  0  0  0  0  0  0  0  0  0
  146.7838   72.1116  220.3662 H   0  0  0  0  0  0  0  0  0  0  0  0
  146.1390   74.0540  218.6150 H   0  0  0  0  0  0  0  0  0  0  0  0
  144.5050   71.1900  219.4141 H   0  0  0  0  0  0  0  0  0  0  0  0
  144.4898   71.4458  221.1384 H   0  0  0  0  0  0  0  0  0  0  0  0
  139.2760   70.1120  222.3307 H   0  0  0  0  0  0  0  0  0  0  0  0
  139.0249   68.5118  224.1979 H   0  0  0  0  0  0  0  0  0  0  0  0
  139.3623   67.9631  226.5028 H   0  0  0  0  0  0  0  0  0  0  0  0
  141.2863   70.7939  229.0465 H   0  0  0  0  0  0  0  0  0  0  0  0
  141.5333   72.3795  227.1788 H   0  0  0  0  0  0  0  0  0  0  0  0
  1  2  2  0
  2  3  1  0
  3  4  1  0
  4  5  1  0
  5  6  2  0
  5  7  1  0
  7  8  1  0
  8  9  1  0
  9 10  1  0
 10 11  1  0
 10 12  1  0
  2 13  1  0
 13 14  2  0
 14 15  1  0
 15 16  2  0
 16 17  1  0
 17 18  2  0
 18 19  1  0
 18 20  1  0
 20 21  2  0
 21 22  1  0
 22 23  2  0
 12  7  1  0
 23 13  1  0
 22 16  1  0
  3 24  1  0
  4 25  1  0
  4 26  1  0
  8 27  1  0
  8 28  1  0
  9 29  1  0
  9 30  1  0
 10 31  1  1
 11 32  1  0
 12 33  1  0
 12 34  1  0
 14 35  1  0
 15 36  1  0
 17 37  1  0
 20 38  1  0
 21 39  1  0
M  END
>  <smiles>  (23) 
O=C(NCC(=O)N1CC[C@H](O)C1)c1ccc2cc(F)ccc2n1

>  <score_type>  (23) 
oracle

>  <origin>  (23) 
autodockgpu

>  <m_score__min__energy>  (23) 
-7.7000000000000002

>  <m_primary>  (23) 
energy

>  <rmsd>  (23) 
3.911027392975845

>  <m_score__min__rmsd>  (23) 
3.911027392975845

>  <meeko>  (23) 
{"free_energy": -7.66, "intermolecular_energy": -9.15, "internal_energy": -0.77, "cluster_size": 35, "cluster_id": 1, "rank_in_cluster": 7}

>  <energy>  (23) 
-7.17

>  <cluster_rmsd>  (23) 
0.76

>  <cluster>  (23) 
1

$$$$

     RDKit          3D

 39 41  0  0  0  0  0  0  0  0999 V2000
  140.2800   74.1580  222.3360 O   0  0  0  0  0  0  0  0  0  0  0  0
  140.4780   72.9350  222.0340 C   0  0  0  0  0  0  0  0  0  0  0  0
  140.9380   72.6800  220.7240 N   0  0  0  0  0  0  0  0  0  0  0  0
  141.1560   73.7780  219.8150 C   0  0  0  0  0  0  0  0  0  0  0  0
  142.4460   73.6060  219.1320 C   0  0  0  0  0  0  0  0  0  0  0  0
  142.4700   73.6030  217.8800 O   0  0  0  0  0  0  0  0  0  0  0  0
  143.6760   73.4410  219.8140 N   0  0  0  0  0  0  0  0  0  0  0  0
  144.4120   74.5140  220.4560 C   0  0  0  0  0  0  0  0  0  0  0  0
  145.7410   73.8560  220.8480 C   0  0  0  0  0  0  0  0  0  0  0  0
  145.8220   72.6200  219.9480 C   0  0  2  0  0  0  0  0  0  0  0  0
  146.2550   73.0030  218.7020 O   0  0  0  0  0  0  0  0  0  0  0  0
  144.3750   72.1790  219.9670 C   0  0  0  0  0  0  0  0  0  0  0  0
  140.2380   71.8660  222.9970 C   0  0  0  0  0  0  0  0  0  0  0  0
  139.5130   70.7600  222.5900 C   0  0  0  0  0  0  0  0  0  0  0  0
  139.2420   69.7100  223.4410 C   0  0  0  0  0  0  0  0  0  0  0  0
  139.7100   69.7670  224.7340 C   0  0  0  0  0  0  0  0  0  0  0  0
  139.4470   68.7180  225.6030 C   0  0  0  0  0  0  0  0  0  0  0  0
  139.9170   68.7740  226.9040 C   0  0  0  0  0  0  0  0  0  0  0  0
  139.6760   67.7620  227.7830 F   0  0  0  0  0  0  0  0  0  0  0  0
  140.6270   69.8790  227.2710 C   0  0  0  0  0  0  0  0  0  0  0  0
  140.8970   70.9320  226.4140 C   0  0  0  0  0  0  0  0  0  0  0  0
  140.4250   70.8800  225.1040 C   0  0  0  0  0  0  0  0  0  0  0  0
  140.6770   71.8920  224.2580 N   0  0  0  0  0  0  0  0  0  0  0  0
  141.1080   71.6970  220.4500 H   0  0  0  0  0  0  0  0  0  0  0  0
  140.3476   73.8016  219.0694 H   0  0  0  0  0  0  0  0  0  0  0  0
  141.1652   74.7222  220.3793 H   0  0  0  0  0  0  0  0  0  0  0  0
  144.5776   75.3486  219.7588 H   0  0  0  0  0  0  0  0  0  0  0  0
  143.8777   74.9435  221.3163 H   0  0  0  0  0  0  0  0  0  0  0  0
  146.5849   74.5351  220.6566 H   0  0  0  0  0  0  0  0  0  0  0  0
  145.7897   73.6047  221.9178 H   0  0  0  0  0  0  0  0  0  0  0  0
  146.5169   71.8245  220.2551 H   0  0  0  0  0  0  0  0  0  0  0  0
  146.1870   73.9870  218.5730 H   0  0  0  0  0  0  0  0  0  0  0  0
  144.1540   71.4956  219.1339 H   0  0  0  0  0  0  0  0  0  0  0  0
  144.0921   71.6208  220.8717 H   0  0  0  0  0  0  0  0  0  0  0  0
  139.1414   70.7173  221.5555 H   0  0  0  0  0  0  0  0  0  0  0  0
  138.6623   68.8424  223.0930 H   0  0  0  0  0  0  0  0  0  0  0  0
  138.8687   67.8473  225.2605 H   0  0  0  0  0  0  0  0  0  0  0  0
  141.0050   69.9366  228.3024 H   0  0  0  0  0  0  0  0  0  0  0  0
  141.4770   71.7991  226.7628 H   0  0  0  0  0  0  0  0  0  0  0  0
  1  2  2  0
  2  3  1  0
  3  4  1  0
  4  5  1  0
  5  6  2  0
  5  7  1  0
  7  8  1  0
  8  9  1  0
  9 10  1  0
 10 11  1  0
 10 12  1  0
  2 13  1  0
 13 14  2  0
 14 15  1  0
 15 16  2  0
 16 17  1  0
 17 18  2  0
 18 19  1  0
 18 20  1  0
 20 21  2  0
 21 22  1  0
 22 23  2  0
 12  7  1  0
 23 13  1  0
 22 16  1  0
  3 24  1  0
  4 25  1  0
  4 26  1  0
  8 27  1  0
  8 28  1  0
  9 29  1  0
  9 30  1  0
 10 31  1  1
 11 32  1  0
 12 33  1  0
 12 34  1  0
 14 35  1  0
 15 36  1  0
 17 37  1  0
 20 38  1  0
 21 39  1  0
M  END
>  <smiles>  (24) 
O=C(NCC(=O)N1CC[C@H](O)C1)c1ccc2cc(F)ccc2n1

>  <score_type>  (24) 
oracle

>  <origin>  (24) 
autodockgpu

>  <m_score__min__energy>  (24) 
-7.7000000000000002

>  <m_primary>  (24) 
energy

>  <rmsd>  (24) 
3.9582923345830254

>  <m_score__min__rmsd>  (24) 
3.9582923345830254

>  <meeko>  (24) 
{"free_energy": -7.17, "intermolecular_energy": -8.67, "internal_energy": -0.81, "cluster_size": 35, "cluster_id": 1, "rank_in_cluster": 23}

>  <energy>  (24) 
-7.11

>  <cluster_rmsd>  (24) 
0.76

>  <cluster>  (24) 
1

$$$$

     RDKit          3D

 39 41  0  0  0  0  0  0  0  0999 V2000
  140.3340   73.7070  222.3220 O   0  0  0  0  0  0  0  0  0  0  0  0
  140.4660   72.4410  222.2310 C   0  0  0  0  0  0  0  0  0  0  0  0
  140.7770   71.9350  220.9500 N   0  0  0  0  0  0  0  0  0  0  0  0
  140.9250   72.8410  219.8380 C   0  0  0  0  0  0  0  0  0  0  0  0
  142.2630   72.6880  219.2510 C   0  0  0  0  0  0  0  0  0  0  0  0
  142.3620   72.2590  218.0780 O   0  0  0  0  0  0  0  0  0  0  0  0
  143.4600   73.0010  219.9410 N   0  0  0  0  0  0  0  0  0  0  0  0
  143.8780   74.3430  220.2960 C   0  0  0  0  0  0  0  0  0  0  0  0
  145.3060   74.1490  220.8230 C   0  0  0  0  0  0  0  0  0  0  0  0
  145.7310   72.7950  220.2490 C   0  0  2  0  0  0  0  0  0  0  0  0
  146.1210   72.9660  218.9430 O   0  0  0  0  0  0  0  0  0  0  0  0
  144.4360   72.0250  220.3890 C   0  0  0  0  0  0  0  0  0  0  0  0
  140.3030   71.5760  223.3930 C   0  0  0  0  0  0  0  0  0  0  0  0
  139.6910   70.3470  223.2210 C   0  0  0  0  0  0  0  0  0  0  0  0
  139.4980   69.4720  224.2700 C   0  0  0  0  0  0  0  0  0  0  0  0
  139.9300   69.8370  225.5240 C   0  0  0  0  0  0  0  0  0  0  0  0
  139.7440   68.9690  226.5890 C   0  0  0  0  0  0  0  0  0  0  0  0
  140.1780   69.3340  227.8530 C   0  0  0  0  0  0  0  0  0  0  0  0
  140.0110   68.5060  228.9210 F   0  0  0  0  0  0  0  0  0  0  0  0
  140.7760   70.5520  227.9860 C   0  0  0  0  0  0  0  0  0  0  0  0
  140.9680   71.4280  226.9310 C   0  0  0  0  0  0  0  0  0  0  0  0
  140.5330   71.0640  225.6590 C   0  0  0  0  0  0  0  0  0  0  0  0
  140.7100   71.9000  224.6230 N   0  0  0  0  0  0  0  0  0  0  0  0
  140.8900   70.9120  220.8460 H   0  0  0  0  0  0  0  0  0  0  0  0
  140.1636   72.6140  219.0773 H   0  0  0  0  0  0  0  0  0  0  0  0
  140.7973   73.8751  220.1905 H   0  0  0  0  0  0  0  0  0  0  0  0
  143.8705   75.0024  219.4156 H   0  0  0  0  0  0  0  0  0  0  0  0
  143.2119   74.8175  221.0316 H   0  0  0  0  0  0  0  0  0  0  0  0
  145.9677   74.9511  220.4641 H   0  0  0  0  0  0  0  0  0  0  0  0
  145.3601   74.1794  221.9212 H   0  0  0  0  0  0  0  0  0  0  0  0
  146.5822   72.2939  220.7332 H   0  0  0  0  0  0  0  0  0  0  0  0
  146.0880   73.9220  218.6700 H   0  0  0  0  0  0  0  0  0  0  0  0
  144.4308   71.1305  219.7488 H   0  0  0  0  0  0  0  0  0  0  0  0
  144.2516   71.6447  221.4046 H   0  0  0  0  0  0  0  0  0  0  0  0
  139.3476   70.0586  222.2165 H   0  0  0  0  0  0  0  0  0  0  0  0
  139.0079   68.5008  224.1068 H   0  0  0  0  0  0  0  0  0  0  0  0
  139.2548   67.9965  226.4313 H   0  0  0  0  0  0  0  0  0  0  0  0
  141.1245   70.8549  228.9844 H   0  0  0  0  0  0  0  0  0  0  0  0
  141.4579   72.3991  227.0954 H   0  0  0  0  0  0  0  0  0  0  0  0
  1  2  2  0
  2  3  1  0
  3  4  1  0
  4  5  1  0
  5  6  2  0
  5  7  1  0
  7  8  1  0
  8  9  1  0
  9 10  1  0
 10 11  1  0
 10 12  1  0
  2 13  1  0
 13 14  2  0
 14 15  1  0
 15 16  2  0
 16 17  1  0
 17 18  2  0
 18 19  1  0
 18 20  1  0
 20 21  2  0
 21 22  1  0
 22 23  2  0
 12  7  1  0
 23 13  1  0
 22 16  1  0
  3 24  1  0
  4 25  1  0
  4 26  1  0
  8 27  1  0
  8 28  1  0
  9 29  1  0
  9 30  1  0
 10 31  1  1
 11 32  1  0
 12 33  1  0
 12 34  1  0
 14 35  1  0
 15 36  1  0
 17 37  1  0
 20 38  1  0
 21 39  1  0
M  END
>  <smiles>  (25) 
O=C(NCC(=O)N1CC[C@H](O)C1)c1ccc2cc(F)ccc2n1

>  <score_type>  (25) 
oracle

>  <origin>  (25) 
autodockgpu

>  <m_score__min__energy>  (25) 
-7.7000000000000002

>  <m_primary>  (25) 
energy

>  <rmsd>  (25) 
3.825503418132979

>  <m_score__min__rmsd>  (25) 
3.825503418132979

>  <meeko>  (25) 
{"free_energy": -7.49, "intermolecular_energy": -8.98, "internal_energy": -0.83, "cluster_size": 35, "cluster_id": 1, "rank_in_cluster": 20}

>  <energy>  (25) 
-6.92

>  <cluster_rmsd>  (25) 
0.5

>  <cluster>  (25) 
1

$$$$

     RDKit          3D

 39 41  0  0  0  0  0  0  0  0999 V2000
  137.9830   71.7440  222.4980 O   0  0  0  0  0  0  0  0  0  0  0  0
  139.1600   71.6350  222.9810 C   0  0  0  0  0  0  0  0  0  0  0  0
  140.1680   72.3970  222.3520 N   0  0  0  0  0  0  0  0  0  0  0  0
  139.8350   73.2370  221.2290 C   0  0  0  0  0  0  0  0  0  0  0  0
  139.4700   74.5780  221.7060 C   0  0  0  0  0  0  0  0  0  0  0  0
  140.3830   75.3960  221.9660 O   0  0  0  0  0  0  0  0  0  0  0  0
  138.1330   75.0050  221.8920 N   0  0  0  0  0  0  0  0  0  0  0  0
  137.7350   76.1340  222.7110 C   0  0  0  0  0  0  0  0  0  0  0  0
  136.2040   76.0370  222.7430 C   0  0  0  0  0  0  0  0  0  0  0  0
  135.9190   74.5830  222.3560 C   0  0  2  0  0  0  0  0  0  0  0  0
  136.1000   73.7840  223.4590 O   0  0  0  0  0  0  0  0  0  0  0  0
  136.9720   74.3760  221.2900 C   0  0  0  0  0  0  0  0  0  0  0  0
  139.4340   70.7650  224.1190 C   0  0  0  0  0  0  0  0  0  0  0  0
  138.9530   69.4680  224.0920 C   0  0  0  0  0  0  0  0  0  0  0  0
  139.1690   68.5860  225.1290 C   0  0  0  0  0  0  0  0  0  0  0  0
  139.8870   69.0120  226.2220 C   0  0  0  0  0  0  0  0  0  0  0  0
  140.1140   68.1370  227.2740 C   0  0  0  0  0  0  0  0  0  0  0  0
  140.8350   68.5630  228.3760 C   0  0  0  0  0  0  0  0  0  0  0  0
  141.0760   67.7300  229.4260 F   0  0  0  0  0  0  0  0  0  0  0  0
  141.2940   69.8480  228.3700 C   0  0  0  0  0  0  0  0  0  0  0  0
  141.0750   70.7320  227.3270 C   0  0  0  0  0  0  0  0  0  0  0  0
  140.3490   70.3060  226.2170 C   0  0  0  0  0  0  0  0  0  0  0  0
  140.1270   71.1480  225.1960 N   0  0  0  0  0  0  0  0  0  0  0  0
  141.1310   72.3280  222.7210 H   0  0  0  0  0  0  0  0  0  0  0  0
  140.7031   73.3113  220.5576 H   0  0  0  0  0  0  0  0  0  0  0  0
  138.9847   72.7992  220.6855 H   0  0  0  0  0  0  0  0  0  0  0  0
  138.1547   76.0510  223.7244 H   0  0  0  0  0  0  0  0  0  0  0  0
  138.0934   77.0957  222.3152 H   0  0  0  0  0  0  0  0  0  0  0  0
  135.8189   76.2568  223.7497 H   0  0  0  0  0  0  0  0  0  0  0  0
  135.7190   76.7583  222.0688 H   0  0  0  0  0  0  0  0  0  0  0  0
  134.9028   74.3514  222.0045 H   0  0  0  0  0  0  0  0  0  0  0  0
  137.0090   73.3810  223.4780 H   0  0  0  0  0  0  0  0  0  0  0  0
  137.1479   73.3063  221.1034 H   0  0  0  0  0  0  0  0  0  0  0  0
  136.6995   74.7915  220.3086 H   0  0  0  0  0  0  0  0  0  0  0  0
  138.3804   69.1302  223.2157 H   0  0  0  0  0  0  0  0  0  0  0  0
  138.7744   67.5602  225.0832 H   0  0  0  0  0  0  0  0  0  0  0  0
  139.7230   67.1097  227.2327 H   0  0  0  0  0  0  0  0  0  0  0  0
  141.8683   70.2002  229.2396 H   0  0  0  0  0  0  0  0  0  0  0  0
  141.4693   71.7578  227.3743 H   0  0  0  0  0  0  0  0  0  0  0  0
  1  2  2  0
  2  3  1  0
  3  4  1  0
  4  5  1  0
  5  6  2  0
  5  7  1  0
  7  8  1  0
  8  9  1  0
  9 10  1  0
 10 11  1  0
 10 12  1  0
  2 13  1  0
 13 14  2  0
 14 15  1  0
 15 16  2  0
 16 17  1  0
 17 18  2  0
 18 19  1  0
 18 20  1  0
 20 21  2  0
 21 22  1  0
 22 23  2  0
 12  7  1  0
 23 13  1  0
 22 16  1  0
  3 24  1  0
  4 25  1  0
  4 26  1  0
  8 27  1  0
  8 28  1  0
  9 29  1  0
  9 30  1  0
 10 31  1  6
 11 32  1  0
 12 33  1  0
 12 34  1  0
 14 35  1  0
 15 36  1  0
 17 37  1  0
 20 38  1  0
 21 39  1  0
M  END
>  <smiles>  (26) 
O=C(NCC(=O)N1CC[C@H](O)C1)c1ccc2cc(F)ccc2n1

>  <score_type>  (26) 
oracle

>  <origin>  (26) 
autodockgpu

>  <m_score__min__energy>  (26) 
-7.7000000000000002

>  <m_primary>  (26) 
energy

>  <rmsd>  (26) 
3.1932657526882524

>  <m_score__min__rmsd>  (26) 
3.1932657526882524

>  <meeko>  (26) 
{"free_energy": -5.99, "intermolecular_energy": -7.48, "internal_energy": -1.72, "cluster_size": 3, "cluster_id": 3, "rank_in_cluster": 3}

>  <energy>  (26) 
-6.91

>  <cluster_rmsd>  (26) 
0.52

>  <cluster>  (26) 
1

$$$$

     RDKit          3D

 39 41  0  0  0  0  0  0  0  0999 V2000
  139.9600   73.0240  222.9300 O   0  0  0  0  0  0  0  0  0  0  0  0
  140.2970   71.7960  223.0220 C   0  0  0  0  0  0  0  0  0  0  0  0
  140.4780   71.1040  221.8050 N   0  0  0  0  0  0  0  0  0  0  0  0
  140.2800   71.7920  220.5530 C   0  0  0  0  0  0  0  0  0  0  0  0
  141.2130   72.9240  220.4580 C   0  0  0  0  0  0  0  0  0  0  0  0
  142.4320   72.6880  220.2900 O   0  0  0  0  0  0  0  0  0  0  0  0
  140.8110   74.2780  220.5460 N   0  0  0  0  0  0  0  0  0  0  0  0
  141.7190   75.3990  220.7030 C   0  0  0  0  0  0  0  0  0  0  0  0
  140.7850   76.5890  220.9530 C   0  0  0  0  0  0  0  0  0  0  0  0
  139.4750   75.9410  221.4090 C   0  0  2  0  0  0  0  0  0  0  0  0
  139.5800   75.6060  222.7380 O   0  0  0  0  0  0  0  0  0  0  0  0
  139.4360   74.7380  220.4920 C   0  0  0  0  0  0  0  0  0  0  0  0
  140.4810   71.1550  224.3190 C   0  0  0  0  0  0  0  0  0  0  0  0
  140.8300   71.9420  225.4010 C   0  0  0  0  0  0  0  0  0  0  0  0
  141.0240   71.4120  226.6590 C   0  0  0  0  0  0  0  0  0  0  0  0
  140.8620   70.0580  226.8390 C   0  0  0  0  0  0  0  0  0  0  0  0
  141.0520   69.5080  228.0980 C   0  0  0  0  0  0  0  0  0  0  0  0
  140.8900   68.1450  228.2810 C   0  0  0  0  0  0  0  0  0  0  0  0
  141.0700   67.5730  229.5040 F   0  0  0  0  0  0  0  0  0  0  0  0
  140.5460   67.4000  227.1930 C   0  0  0  0  0  0  0  0  0  0  0  0
  140.3530   67.9350  225.9310 C   0  0  0  0  0  0  0  0  0  0  0  0
  140.5160   69.3060  225.7420 C   0  0  0  0  0  0  0  0  0  0  0  0
  140.3320   69.8440  224.5260 N   0  0  0  0  0  0  0  0  0  0  0  0
  140.7510   70.1080  221.8480 H   0  0  0  0  0  0  0  0  0  0  0  0
  140.4626   71.0966  219.7205 H   0  0  0  0  0  0  0  0  0  0  0  0
  139.2467   72.1657  220.5016 H   0  0  0  0  0  0  0  0  0  0  0  0
  142.3923   75.2419  221.5586 H   0  0  0  0  0  0  0  0  0  0  0  0
  142.3720   75.5449  219.8299 H   0  0  0  0  0  0  0  0  0  0  0  0
  141.1899   77.2461  221.7367 H   0  0  0  0  0  0  0  0  0  0  0  0
  140.6572   77.2218  220.0624 H   0  0  0  0  0  0  0  0  0  0  0  0
  138.5665   76.5580  221.3459 H   0  0  0  0  0  0  0  0  0  0  0  0
  139.1280   74.7440  222.9380 H   0  0  0  0  0  0  0  0  0  0  0  0
  138.7422   73.9711  220.8669 H   0  0  0  0  0  0  0  0  0  0  0  0
  139.0819   74.9644  219.4755 H   0  0  0  0  0  0  0  0  0  0  0  0
  140.9568   73.0247  225.2536 H   0  0  0  0  0  0  0  0  0  0  0  0
  141.3031   72.0599  227.5030 H   0  0  0  0  0  0  0  0  0  0  0  0
  141.3298   70.1509  228.9463 H   0  0  0  0  0  0  0  0  0  0  0  0
  140.4147   66.3158  227.3246 H   0  0  0  0  0  0  0  0  0  0  0  0
  140.0744   67.2859  225.0877 H   0  0  0  0  0  0  0  0  0  0  0  0
  1  2  2  0
  2  3  1  0
  3  4  1  0
  4  5  1  0
  5  6  2  0
  5  7  1  0
  7  8  1  0
  8  9  1  0
  9 10  1  0
 10 11  1  0
 10 12  1  0
  2 13  1  0
 13 14  2  0
 14 15  1  0
 15 16  2  0
 16 17  1  0
 17 18  2  0
 18 19  1  0
 18 20  1  0
 20 21  2  0
 21 22  1  0
 22 23  2  0
 12  7  1  0
 23 13  1  0
 22 16  1  0
  3 24  1  0
  4 25  1  0
  4 26  1  0
  8 27  1  0
  8 28  1  0
  9 29  1  0
  9 30  1  0
 10 31  1  1
 11 32  1  0
 12 33  1  0
 12 34  1  0
 14 35  1  0
 15 36  1  0
 17 37  1  0
 20 38  1  0
 21 39  1  0
M  END
>  <smiles>  (27) 
O=C(NCC(=O)N1CC[C@H](O)C1)c1ccc2cc(F)ccc2n1

>  <score_type>  (27) 
oracle

>  <origin>  (27) 
autodockgpu

>  <m_score__min__energy>  (27) 
-7.7000000000000002

>  <m_primary>  (27) 
energy

>  <rmsd>  (27) 
3.187416243115111

>  <m_score__min__rmsd>  (27) 
3.187416243115111

>  <meeko>  (27) 
{"free_energy": -6.2, "intermolecular_energy": -7.69, "internal_energy": -1.67, "cluster_size": 35, "cluster_id": 1, "rank_in_cluster": 35}

>  <energy>  (27) 
-6.88

>  <cluster_rmsd>  (27) 
0.56

>  <cluster>  (27) 
1

$$$$

     RDKit          3D

 39 41  0  0  0  0  0  0  0  0999 V2000
  140.3140   71.0810  221.4050 O   0  0  0  0  0  0  0  0  0  0  0  0
  140.1060   71.6110  222.5470 C   0  0  0  0  0  0  0  0  0  0  0  0
  139.9080   73.0080  222.5620 N   0  0  0  0  0  0  0  0  0  0  0  0
  139.9490   73.7510  221.3270 C   0  0  0  0  0  0  0  0  0  0  0  0
  140.0950   75.1840  221.6170 C   0  0  0  0  0  0  0  0  0  0  0  0
  139.5980   75.6390  222.6730 O   0  0  0  0  0  0  0  0  0  0  0  0
  140.7710   76.0900  220.7640 N   0  0  0  0  0  0  0  0  0  0  0  0
  142.0490   75.8260  220.1300 C   0  0  0  0  0  0  0  0  0  0  0  0
  142.4270   77.1750  219.5040 C   0  0  0  0  0  0  0  0  0  0  0  0
  141.5720   78.1890  220.2690 C   0  0  2  0  0  0  0  0  0  0  0  0
  142.1720   78.4590  221.4750 O   0  0  0  0  0  0  0  0  0  0  0  0
  140.2840   77.4080  220.4040 C   0  0  0  0  0  0  0  0  0  0  0  0
  140.0770   70.8050  223.7630 C   0  0  0  0  0  0  0  0  0  0  0  0
  139.4960   69.5510  223.7110 C   0  0  0  0  0  0  0  0  0  0  0  0
  139.4280   68.7300  224.8160 C   0  0  0  0  0  0  0  0  0  0  0  0
  139.9570   69.1750  226.0050 C   0  0  0  0  0  0  0  0  0  0  0  0
  139.8970   68.3620  227.1270 C   0  0  0  0  0  0  0  0  0  0  0  0
  140.4280   68.8080  228.3250 C   0  0  0  0  0  0  0  0  0  0  0  0
  140.3860   68.0350  229.4460 F   0  0  0  0  0  0  0  0  0  0  0  0
  140.9930   70.0490  228.3400 C   0  0  0  0  0  0  0  0  0  0  0  0
  141.0600   70.8710  227.2290 C   0  0  0  0  0  0  0  0  0  0  0  0
  140.5260   70.4260  226.0210 C   0  0  0  0  0  0  0  0  0  0  0  0
  140.5810   71.2090  224.9320 N   0  0  0  0  0  0  0  0  0  0  0  0
  139.7370   73.4660  223.4740 H   0  0  0  0  0  0  0  0  0  0  0  0
  140.8036   73.4109  220.7237 H   0  0  0  0  0  0  0  0  0  0  0  0
  139.0150   73.5849  220.7702 H   0  0  0  0  0  0  0  0  0  0  0  0
  142.7985   75.5137  220.8721 H   0  0  0  0  0  0  0  0  0  0  0  0
  141.9999   75.0114  219.3924 H   0  0  0  0  0  0  0  0  0  0  0  0
  143.4982   77.3837  219.6415 H   0  0  0  0  0  0  0  0  0  0  0  0
  142.2493   77.2036  218.4188 H   0  0  0  0  0  0  0  0  0  0  0  0
  141.4282   79.1737  219.8003 H   0  0  0  0  0  0  0  0  0  0  0  0
  143.0350   77.9750  221.5750 H   0  0  0  0  0  0  0  0  0  0  0  0
  139.6426   77.8271  221.1933 H   0  0  0  0  0  0  0  0  0  0  0  0
  139.6596   77.4196  219.4985 H   0  0  0  0  0  0  0  0  0  0  0  0
  139.0751   69.1979  222.7581 H   0  0  0  0  0  0  0  0  0  0  0  0
  138.9593   67.7372  224.7482 H   0  0  0  0  0  0  0  0  0  0  0  0
  139.4299   67.3680  227.0652 H   0  0  0  0  0  0  0  0  0  0  0  0
  141.4182   70.4161  229.2857 H   0  0  0  0  0  0  0  0  0  0  0  0
  141.5290   71.8636  227.2983 H   0  0  0  0  0  0  0  0  0  0  0  0
  1  2  2  0
  2  3  1  0
  3  4  1  0
  4  5  1  0
  5  6  2  0
  5  7  1  0
  7  8  1  0
  8  9  1  0
  9 10  1  0
 10 11  1  0
 10 12  1  0
  2 13  1  0
 13 14  2  0
 14 15  1  0
 15 16  2  0
 16 17  1  0
 17 18  2  0
 18 19  1  0
 18 20  1  0
 20 21  2  0
 21 22  1  0
 22 23  2  0
 12  7  1  0
 23 13  1  0
 22 16  1  0
  3 24  1  0
  4 25  1  0
  4 26  1  0
  8 27  1  0
  8 28  1  0
  9 29  1  0
  9 30  1  0
 10 31  1  6
 11 32  1  0
 12 33  1  0
 12 34  1  0
 14 35  1  0
 15 36  1  0
 17 37  1  0
 20 38  1  0
 21 39  1  0
M  END
>  <smiles>  (28) 
O=C(NCC(=O)N1CC[C@H](O)C1)c1ccc2cc(F)ccc2n1

>  <score_type>  (28) 
oracle

>  <origin>  (28) 
autodockgpu

>  <m_score__min__energy>  (28) 
-7.7000000000000002

>  <m_primary>  (28) 
energy

>  <rmsd>  (28) 
1.9150270548662065

>  <m_score__min__rmsd>  (28) 
1.9150270548662065

>  <meeko>  (28) 
{"free_energy": -6.65, "intermolecular_energy": -8.14, "internal_energy": -1.22, "cluster_size": 10, "cluster_id": 2, "rank_in_cluster": 5}

>  <energy>  (28) 
-6.84

>  <cluster_rmsd>  (28) 
0.75

>  <cluster>  (28) 
1

$$$$

     RDKit          3D

 39 41  0  0  0  0  0  0  0  0999 V2000
  140.5060   71.3200  221.3970 O   0  0  0  0  0  0  0  0  0  0  0  0
  140.1830   71.8190  222.5260 C   0  0  0  0  0  0  0  0  0  0  0  0
  139.8800   73.1970  222.5380 N   0  0  0  0  0  0  0  0  0  0  0  0
  139.9470   73.9560  221.3130 C   0  0  0  0  0  0  0  0  0  0  0  0
  140.0610   75.3880  221.6250 C   0  0  0  0  0  0  0  0  0  0  0  0
  139.5730   75.8130  222.6970 O   0  0  0  0  0  0  0  0  0  0  0  0
  140.6970   76.3250  220.7750 N   0  0  0  0  0  0  0  0  0  0  0  0
  141.9250   76.0730  220.0450 C   0  0  0  0  0  0  0  0  0  0  0  0
  142.2880   77.4450  219.4630 C   0  0  0  0  0  0  0  0  0  0  0  0
  141.5050   78.4330  220.3320 C   0  0  2  0  0  0  0  0  0  0  0  0
  142.1880   78.6310  221.5080 O   0  0  0  0  0  0  0  0  0  0  0  0
  140.2130   77.6670  220.5140 C   0  0  0  0  0  0  0  0  0  0  0  0
  140.1340   71.0000  223.7310 C   0  0  0  0  0  0  0  0  0  0  0  0
  139.5650   69.7410  223.6520 C   0  0  0  0  0  0  0  0  0  0  0  0
  139.4800   68.9060  224.7460 C   0  0  0  0  0  0  0  0  0  0  0  0
  139.9780   69.3420  225.9520 C   0  0  0  0  0  0  0  0  0  0  0  0
  139.9010   68.5150  227.0620 C   0  0  0  0  0  0  0  0  0  0  0  0
  140.4010   68.9520  228.2770 C   0  0  0  0  0  0  0  0  0  0  0  0
  140.3410   68.1650  229.3880 F   0  0  0  0  0  0  0  0  0  0  0  0
  140.9540   70.1970  228.3190 C   0  0  0  0  0  0  0  0  0  0  0  0
  141.0380   71.0330  227.2190 C   0  0  0  0  0  0  0  0  0  0  0  0
  140.5350   70.5970  225.9950 C   0  0  0  0  0  0  0  0  0  0  0  0
  140.6080   71.3930  224.9170 N   0  0  0  0  0  0  0  0  0  0  0  0
  139.6140   73.6300  223.4390 H   0  0  0  0  0  0  0  0  0  0  0  0
  140.8251   73.6369  220.7324 H   0  0  0  0  0  0  0  0  0  0  0  0
  139.0335   73.7820  220.7254 H   0  0  0  0  0  0  0  0  0  0  0  0
  142.7152   75.7110  220.7192 H   0  0  0  0  0  0  0  0  0  0  0  0
  141.8112   75.2981  219.2726 H   0  0  0  0  0  0  0  0  0  0  0  0
  143.3698   77.6287  219.5395 H   0  0  0  0  0  0  0  0  0  0  0  0
  142.0405   77.5314  218.3947 H   0  0  0  0  0  0  0  0  0  0  0  0
  141.3503   79.4423  219.9228 H   0  0  0  0  0  0  0  0  0  0  0  0
  142.9880   78.0450  221.5740 H   0  0  0  0  0  0  0  0  0  0  0  0
  139.6333   78.0559  221.3641 H   0  0  0  0  0  0  0  0  0  0  0  0
  139.5305   77.7346  219.6540 H   0  0  0  0  0  0  0  0  0  0  0  0
  139.1680   69.3955  222.6860 H   0  0  0  0  0  0  0  0  0  0  0  0
  139.0225   67.9097  224.6561 H   0  0  0  0  0  0  0  0  0  0  0  0
  139.4453   67.5174  226.9780 H   0  0  0  0  0  0  0  0  0  0  0  0
  141.3549   70.5566  229.2781 H   0  0  0  0  0  0  0  0  0  0  0  0
  141.4960   72.0289  227.3100 H   0  0  0  0  0  0  0  0  0  0  0  0
  1  2  2  0
  2  3  1  0
  3  4  1  0
  4  5  1  0
  5  6  2  0
  5  7  1  0
  7  8  1  0
  8  9  1  0
  9 10  1  0
 10 11  1  0
 10 12  1  0
  2 13  1  0
 13 14  2  0
 14 15  1  0
 15 16  2  0
 16 17  1  0
 17 18  2  0
 18 19  1  0
 18 20  1  0
 20 21  2  0
 21 22  1  0
 22 23  2  0
 12  7  1  0
 23 13  1  0
 22 16  1  0
  3 24  1  0
  4 25  1  0
  4 26  1  0
  8 27  1  0
  8 28  1  0
  9 29  1  0
  9 30  1  0
 10 31  1  6
 11 32  1  0
 12 33  1  0
 12 34  1  0
 14 35  1  0
 15 36  1  0
 17 37  1  0
 20 38  1  0
 21 39  1  0
M  END
>  <smiles>  (29) 
O=C(NCC(=O)N1CC[C@H](O)C1)c1ccc2cc(F)ccc2n1

>  <score_type>  (29) 
oracle

>  <origin>  (29) 
autodockgpu

>  <m_score__min__energy>  (29) 
-7.7000000000000002

>  <m_primary>  (29) 
energy

>  <rmsd>  (29) 
1.9748838548708978

>  <m_score__min__rmsd>  (29) 
1.9748838548708978

>  <meeko>  (29) 
{"free_energy": -6.67, "intermolecular_energy": -8.16, "internal_energy": -1.22, "cluster_size": 10, "cluster_id": 2, "rank_in_cluster": 4}

>  <energy>  (29) 
-6.8

>  <cluster_rmsd>  (29) 
1.06

>  <cluster>  (29) 
1

$$$$

     RDKit          3D

 39 41  0  0  0  0  0  0  0  0999 V2000
  140.0770   73.6500  222.3480 O   0  0  0  0  0  0  0  0  0  0  0  0
  140.4110   72.4190  222.3140 C   0  0  0  0  0  0  0  0  0  0  0  0
  140.9340   71.9460  221.0920 N   0  0  0  0  0  0  0  0  0  0  0  0
  141.0650   72.8460  219.9720 C   0  0  0  0  0  0  0  0  0  0  0  0
  142.3850   72.6740  219.3520 C   0  0  0  0  0  0  0  0  0  0  0  0
  142.4490   72.2290  218.1820 O   0  0  0  0  0  0  0  0  0  0  0  0
  143.6030   72.9850  220.0040 N   0  0  0  0  0  0  0  0  0  0  0  0
  144.0150   74.3230  220.3830 C   0  0  0  0  0  0  0  0  0  0  0  0
  145.4650   74.1370  220.8500 C   0  0  0  0  0  0  0  0  0  0  0  0
  145.8870   72.8070  220.2200 C   0  0  2  0  0  0  0  0  0  0  0  0
  146.2250   73.0220  218.9060 O   0  0  0  0  0  0  0  0  0  0  0  0
  144.6100   72.0130  220.3860 C   0  0  0  0  0  0  0  0  0  0  0  0
  140.2530   71.5570  223.4800 C   0  0  0  0  0  0  0  0  0  0  0  0
  139.6260   70.3340  223.3190 C   0  0  0  0  0  0  0  0  0  0  0  0
  139.4380   69.4640  224.3720 C   0  0  0  0  0  0  0  0  0  0  0  0
  139.8900   69.8270  225.6190 C   0  0  0  0  0  0  0  0  0  0  0  0
  139.7090   68.9630  226.6890 C   0  0  0  0  0  0  0  0  0  0  0  0
  140.1630   69.3260  227.9460 C   0  0  0  0  0  0  0  0  0  0  0  0
  140.0020   68.5020  229.0190 F   0  0  0  0  0  0  0  0  0  0  0  0
  140.7760   70.5380  228.0690 C   0  0  0  0  0  0  0  0  0  0  0  0
  140.9630   71.4100  227.0100 C   0  0  0  0  0  0  0  0  0  0  0  0
  140.5070   71.0480  225.7440 C   0  0  0  0  0  0  0  0  0  0  0  0
  140.6800   71.8800  224.7040 N   0  0  0  0  0  0  0  0  0  0  0  0
  141.2130   70.9520  221.0340 H   0  0  0  0  0  0  0  0  0  0  0  0
  140.2817   72.6255  219.2319 H   0  0  0  0  0  0  0  0  0  0  0  0
  140.9593   73.8831  220.3231 H   0  0  0  0  0  0  0  0  0  0  0  0
  143.9642   75.0076  219.5235 H   0  0  0  0  0  0  0  0  0  0  0  0
  143.3705   74.7648  221.1572 H   0  0  0  0  0  0  0  0  0  0  0  0
  146.1006   74.9596  220.4903 H   0  0  0  0  0  0  0  0  0  0  0  0
  145.5610   74.1367  221.9458 H   0  0  0  0  0  0  0  0  0  0  0  0
  146.7631   72.3052  220.6565 H   0  0  0  0  0  0  0  0  0  0  0  0
  146.2040   73.9890  218.6730 H   0  0  0  0  0  0  0  0  0  0  0  0
  144.5938   71.1372  219.7206 H   0  0  0  0  0  0  0  0  0  0  0  0
  144.4703   71.6011  221.3964 H   0  0  0  0  0  0  0  0  0  0  0  0
  139.2664   70.0470  222.3199 H   0  0  0  0  0  0  0  0  0  0  0  0
  138.9358   68.4976  224.2175 H   0  0  0  0  0  0  0  0  0  0  0  0
  139.2078   67.9952  226.5400 H   0  0  0  0  0  0  0  0  0  0  0  0
  141.1412   70.8387  229.0621 H   0  0  0  0  0  0  0  0  0  0  0  0
  141.4651   72.3762  227.1660 H   0  0  0  0  0  0  0  0  0  0  0  0
  1  2  2  0
  2  3  1  0
  3  4  1  0
  4  5  1  0
  5  6  2  0
  5  7  1  0
  7  8  1  0
  8  9  1  0
  9 10  1  0
 10 11  1  0
 10 12  1  0
  2 13  1  0
 13 14  2  0
 14 15  1  0
 15 16  2  0
 16 17  1  0
 17 18  2  0
 18 19  1  0
 18 20  1  0
 20 21  2  0
 21 22  1  0
 22 23  2  0
 12  7  1  0
 23 13  1  0
 22 16  1  0
  3 24  1  0
  4 25  1  0
  4 26  1  0
  8 27  1  0
  8 28  1  0
  9 29  1  0
  9 30  1  0
 10 31  1  1
 11 32  1  0
 12 33  1  0
 12 34  1  0
 14 35  1  0
 15 36  1  0
 17 37  1  0
 20 38  1  0
 21 39  1  0
M  END
>  <smiles>  (30) 
O=C(NCC(=O)N1CC[C@H](O)C1)c1ccc2cc(F)ccc2n1

>  <score_type>  (30) 
oracle

>  <origin>  (30) 
autodockgpu

>  <m_score__min__energy>  (30) 
-7.7000000000000002

>  <m_primary>  (30) 
energy

>  <rmsd>  (30) 
3.892026938882951

>  <m_score__min__rmsd>  (30) 
3.892026938882951

>  <meeko>  (30) 
{"free_energy": -7.63, "intermolecular_energy": -9.12, "internal_energy": -0.78, "cluster_size": 35, "cluster_id": 1, "rank_in_cluster": 8}

>  <energy>  (30) 
-6.64

>  <cluster_rmsd>  (30) 
1.32

>  <cluster>  (30) 
1

$$$$

     RDKit          3D

 39 41  0  0  0  0  0  0  0  0999 V2000
  139.4800   73.7430  222.3320 O   0  0  0  0  0  0  0  0  0  0  0  0
  140.3580   72.8250  222.4540 C   0  0  0  0  0  0  0  0  0  0  0  0
  141.4120   72.8380  221.5160 N   0  0  0  0  0  0  0  0  0  0  0  0
  141.4500   73.8550  220.4950 C   0  0  0  0  0  0  0  0  0  0  0  0
  142.8300   74.3270  220.3180 C   0  0  0  0  0  0  0  0  0  0  0  0
  143.0260   75.5400  220.0760 O   0  0  0  0  0  0  0  0  0  0  0  0
  143.9630   73.4820  220.4070 N   0  0  0  0  0  0  0  0  0  0  0  0
  145.1420   73.7670  221.2020 C   0  0  0  0  0  0  0  0  0  0  0  0
  146.1300   72.6690  220.7900 C   0  0  0  0  0  0  0  0  0  0  0  0
  145.5930   72.1750  219.4440 C   0  0  2  0  0  0  0  0  0  0  0  0
  145.9870   73.0480  218.4590 O   0  0  0  0  0  0  0  0  0  0  0  0
  144.1060   72.2140  219.7170 C   0  0  0  0  0  0  0  0  0  0  0  0
  140.2640   71.8220  223.5090 C   0  0  0  0  0  0  0  0  0  0  0  0
  139.7060   70.5930  223.2050 C   0  0  0  0  0  0  0  0  0  0  0  0
  139.5810   69.5930  224.1460 C   0  0  0  0  0  0  0  0  0  0  0  0
  140.0270   69.8290  225.4260 C   0  0  0  0  0  0  0  0  0  0  0  0
  139.9100   68.8330  226.3840 C   0  0  0  0  0  0  0  0  0  0  0  0
  140.3580   69.0680  227.6730 C   0  0  0  0  0  0  0  0  0  0  0  0
  140.2570   68.1130  228.6390 F   0  0  0  0  0  0  0  0  0  0  0  0
  140.9030   70.2900  227.9380 C   0  0  0  0  0  0  0  0  0  0  0  0
  141.0270   71.2920  226.9910 C   0  0  0  0  0  0  0  0  0  0  0  0
  140.5760   71.0600  225.6930 C   0  0  0  0  0  0  0  0  0  0  0  0
  140.6880   72.0190  224.7610 N   0  0  0  0  0  0  0  0  0  0  0  0
  142.1380   72.1050  221.5900 H   0  0  0  0  0  0  0  0  0  0  0  0
  141.0826   73.4353  219.5469 H   0  0  0  0  0  0  0  0  0  0  0  0
  140.8121   74.6987  220.7970 H   0  0  0  0  0  0  0  0  0  0  0  0
  145.5426   74.7641  220.9666 H   0  0  0  0  0  0  0  0  0  0  0  0
  144.9370   73.7734  222.2827 H   0  0  0  0  0  0  0  0  0  0  0  0
  147.1453   73.0776  220.6799 H   0  0  0  0  0  0  0  0  0  0  0  0
  146.2057   71.8650  221.5369 H   0  0  0  0  0  0  0  0  0  0  0  0
  145.9394   71.1891  219.1006 H   0  0  0  0  0  0  0  0  0  0  0  0
  145.8770   73.9950  218.7400 H   0  0  0  0  0  0  0  0  0  0  0  0
  143.5268   72.1995  218.7819 H   0  0  0  0  0  0  0  0  0  0  0  0
  143.7360   71.3512  220.2903 H   0  0  0  0  0  0  0  0  0  0  0  0
  139.3509   70.4079  222.1805 H   0  0  0  0  0  0  0  0  0  0  0  0
  139.1331   68.6246  223.8784 H   0  0  0  0  0  0  0  0  0  0  0  0
  139.4641   67.8623  226.1215 H   0  0  0  0  0  0  0  0  0  0  0  0
  141.2630   70.4898  228.9581 H   0  0  0  0  0  0  0  0  0  0  0  0
  141.4760   72.2595  227.2598 H   0  0  0  0  0  0  0  0  0  0  0  0
  1  2  2  0
  2  3  1  0
  3  4  1  0
  4  5  1  0
  5  6  2  0
  5  7  1  0
  7  8  1  0
  8  9  1  0
  9 10  1  0
 10 11  1  0
 10 12  1  0
  2 13  1  0
 13 14  2  0
 14 15  1  0
 15 16  2  0
 16 17  1  0
 17 18  2  0
 18 19  1  0
 18 20  1  0
 20 21  2  0
 21 22  1  0
 22 23  2  0
 12  7  1  0
 23 13  1  0
 22 16  1  0
  3 24  1  0
  4 25  1  0
  4 26  1  0
  8 27  1  0
  8 28  1  0
  9 29  1  0
  9 30  1  0
 10 31  1  6
 11 32  1  0
 12 33  1  0
 12 34  1  0
 14 35  1  0
 15 36  1  0
 17 37  1  0
 20 38  1  0
 21 39  1  0
M  END
>  <smiles>  (31) 
O=C(NCC(=O)N1CC[C@H](O)C1)c1ccc2cc(F)ccc2n1

>  <score_type>  (31) 
oracle

>  <origin>  (31) 
autodockgpu

>  <m_score__min__energy>  (31) 
-7.7000000000000002

>  <m_primary>  (31) 
energy

>  <rmsd>  (31) 
4.007672202891876

>  <m_score__min__rmsd>  (31) 
4.007672202891876

>  <meeko>  (31) 
{"free_energy": -7.27, "intermolecular_energy": -8.76, "internal_energy": -0.8, "cluster_size": 35, "cluster_id": 1, "rank_in_cluster": 22}

>  <energy>  (31) 
-6.32

>  <cluster_rmsd>  (31) 
1.95

>  <cluster>  (31) 
1

$$$$

     RDKit          3D

 39 41  0  0  0  0  0  0  0  0999 V2000
  139.9690   73.6450  222.3600 O   0  0  0  0  0  0  0  0  0  0  0  0
  140.3730   72.4350  222.3450 C   0  0  0  0  0  0  0  0  0  0  0  0
  140.9680   71.9880  221.1460 N   0  0  0  0  0  0  0  0  0  0  0  0
  141.0880   72.8890  220.0260 C   0  0  0  0  0  0  0  0  0  0  0  0
  142.4010   72.7150  219.3910 C   0  0  0  0  0  0  0  0  0  0  0  0
  142.4500   72.2750  218.2190 O   0  0  0  0  0  0  0  0  0  0  0  0
  143.6260   73.0190  220.0310 N   0  0  0  0  0  0  0  0  0  0  0  0
  144.0500   74.3550  220.4070 C   0  0  0  0  0  0  0  0  0  0  0  0
  145.5030   74.1600  220.8590 C   0  0  0  0  0  0  0  0  0  0  0  0
  145.9110   72.8270  220.2250 C   0  0  2  0  0  0  0  0  0  0  0  0
  146.2370   73.0410  218.9080 O   0  0  0  0  0  0  0  0  0  0  0  0
  144.6310   72.0400  220.4030 C   0  0  0  0  0  0  0  0  0  0  0  0
  140.2230   71.5710  223.5110 C   0  0  0  0  0  0  0  0  0  0  0  0
  139.5840   70.3540  223.3530 C   0  0  0  0  0  0  0  0  0  0  0  0
  139.4010   69.4830  224.4050 C   0  0  0  0  0  0  0  0  0  0  0  0
  139.8710   69.8370  225.6480 C   0  0  0  0  0  0  0  0  0  0  0  0
  139.6950   68.9710  226.7170 C   0  0  0  0  0  0  0  0  0  0  0  0
  140.1670   69.3260  227.9700 C   0  0  0  0  0  0  0  0  0  0  0  0
  140.0110   68.5000  229.0420 F   0  0  0  0  0  0  0  0  0  0  0  0
  140.7920   70.5330  228.0890 C   0  0  0  0  0  0  0  0  0  0  0  0
  140.9730   71.4060  227.0310 C   0  0  0  0  0  0  0  0  0  0  0  0
  140.4990   71.0530  225.7690 C   0  0  0  0  0  0  0  0  0  0  0  0
  140.6670   71.8860  224.7310 N   0  0  0  0  0  0  0  0  0  0  0  0
  141.3040   71.0110  221.1040 H   0  0  0  0  0  0  0  0  0  0  0  0
  140.2960   72.6710  219.2945 H   0  0  0  0  0  0  0  0  0  0  0  0
  140.9881   73.9259  220.3794 H   0  0  0  0  0  0  0  0  0  0  0  0
  143.9946   75.0405  219.5485 H   0  0  0  0  0  0  0  0  0  0  0  0
  143.4161   74.8001  221.1880 H   0  0  0  0  0  0  0  0  0  0  0  0
  146.1399   74.9786  220.4927 H   0  0  0  0  0  0  0  0  0  0  0  0
  145.6099   74.1591  221.9538 H   0  0  0  0  0  0  0  0  0  0  0  0
  146.7881   72.3197  220.6532 H   0  0  0  0  0  0  0  0  0  0  0  0
  146.2870   74.0110  218.6930 H   0  0  0  0  0  0  0  0  0  0  0  0
  144.6032   71.1647  219.7373 H   0  0  0  0  0  0  0  0  0  0  0  0
  144.4985   71.6280  221.4143 H   0  0  0  0  0  0  0  0  0  0  0  0
  139.2106   70.0732  222.3571 H   0  0  0  0  0  0  0  0  0  0  0  0
  138.8882   68.5218  224.2533 H   0  0  0  0  0  0  0  0  0  0  0  0
  139.1837   68.0081  226.5707 H   0  0  0  0  0  0  0  0  0  0  0  0
  141.1720   70.8276  229.0783 H   0  0  0  0  0  0  0  0  0  0  0  0
  141.4851   72.3674  227.1842 H   0  0  0  0  0  0  0  0  0  0  0  0
  1  2  2  0
  2  3  1  0
  3  4  1  0
  4  5  1  0
  5  6  2  0
  5  7  1  0
  7  8  1  0
  8  9  1  0
  9 10  1  0
 10 11  1  0
 10 12  1  0
  2 13  1  0
 13 14  2  0
 14 15  1  0
 15 16  2  0
 16 17  1  0
 17 18  2  0
 18 19  1  0
 18 20  1  0
 20 21  2  0
 21 22  1  0
 22 23  2  0
 12  7  1  0
 23 13  1  0
 22 16  1  0
  3 24  1  0
  4 25  1  0
  4 26  1  0
  8 27  1  0
  8 28  1  0
  9 29  1  0
  9 30  1  0
 10 31  1  1
 11 32  1  0
 12 33  1  0
 12 34  1  0
 14 35  1  0
 15 36  1  0
 17 37  1  0
 20 38  1  0
 21 39  1  0
M  END
>  <smiles>  (32) 
O=C(NCC(=O)N1CC[C@H](O)C1)c1ccc2cc(F)ccc2n1

>  <score_type>  (32) 
oracle

>  <origin>  (32) 
autodockgpu

>  <m_score__min__energy>  (32) 
-7.7000000000000002

>  <m_primary>  (32) 
energy

>  <rmsd>  (32) 
3.8954196445330376

>  <m_score__min__rmsd>  (32) 
3.8954196445330376

>  <meeko>  (32) 
{"free_energy": -7.66, "intermolecular_energy": -9.16, "internal_energy": -0.77, "cluster_size": 35, "cluster_id": 1, "rank_in_cluster": 6}

>  <energy>  (32) 
-6.27

>  <cluster_rmsd>  (32) 
1.94

>  <cluster>  (32) 
1

$$$$

     RDKit          3D

 39 41  0  0  0  0  0  0  0  0999 V2000
  140.1330   73.6550  222.3460 O   0  0  0  0  0  0  0  0  0  0  0  0
  140.4290   72.4140  222.3060 C   0  0  0  0  0  0  0  0  0  0  0  0
  140.9230   71.9270  221.0770 N   0  0  0  0  0  0  0  0  0  0  0  0
  141.0670   72.8230  219.9570 C   0  0  0  0  0  0  0  0  0  0  0  0
  142.3900   72.6410  219.3450 C   0  0  0  0  0  0  0  0  0  0  0  0
  142.4590   72.1750  218.1840 O   0  0  0  0  0  0  0  0  0  0  0  0
  143.6050   72.9640  219.9970 N   0  0  0  0  0  0  0  0  0  0  0  0
  144.0020   74.3060  220.3800 C   0  0  0  0  0  0  0  0  0  0  0  0
  145.4540   74.1340  220.8440 C   0  0  0  0  0  0  0  0  0  0  0  0
  145.8910   72.8110  220.2090 C   0  0  2  0  0  0  0  0  0  0  0  0
  146.2240   73.0350  218.8950 O   0  0  0  0  0  0  0  0  0  0  0  0
  144.6240   72.0020  220.3740 C   0  0  0  0  0  0  0  0  0  0  0  0
  140.2600   71.5570  223.4740 C   0  0  0  0  0  0  0  0  0  0  0  0
  139.6150   70.3430  223.3140 C   0  0  0  0  0  0  0  0  0  0  0  0
  139.4150   69.4770  224.3680 C   0  0  0  0  0  0  0  0  0  0  0  0
  139.8720   69.8340  225.6150 C   0  0  0  0  0  0  0  0  0  0  0  0
  139.6800   68.9750  226.6860 C   0  0  0  0  0  0  0  0  0  0  0  0
  140.1390   69.3330  227.9420 C   0  0  0  0  0  0  0  0  0  0  0  0
  139.9660   68.5130  229.0160 F   0  0  0  0  0  0  0  0  0  0  0  0
  140.7690   70.5360  228.0630 C   0  0  0  0  0  0  0  0  0  0  0  0
  140.9690   71.4040  227.0030 C   0  0  0  0  0  0  0  0  0  0  0  0
  140.5070   71.0470  225.7380 C   0  0  0  0  0  0  0  0  0  0  0  0
  140.6910   71.8750  224.6970 N   0  0  0  0  0  0  0  0  0  0  0  0
  141.1700   70.9250  221.0150 H   0  0  0  0  0  0  0  0  0  0  0  0
  140.2867   72.6063  219.2126 H   0  0  0  0  0  0  0  0  0  0  0  0
  140.9663   73.8614  220.3056 H   0  0  0  0  0  0  0  0  0  0  0  0
  143.9423   74.9929  219.5229 H   0  0  0  0  0  0  0  0  0  0  0  0
  143.3536   74.7384  221.1563 H   0  0  0  0  0  0  0  0  0  0  0  0
  146.0798   74.9650  220.4865 H   0  0  0  0  0  0  0  0  0  0  0  0
  145.5509   74.1303  221.9397 H   0  0  0  0  0  0  0  0  0  0  0  0
  146.7736   72.3179  220.6424 H   0  0  0  0  0  0  0  0  0  0  0  0
  146.0960   73.9880  218.6390 H   0  0  0  0  0  0  0  0  0  0  0  0
  144.6168   71.1285  219.7054 H   0  0  0  0  0  0  0  0  0  0  0  0
  144.4906   71.5848  221.3830 H   0  0  0  0  0  0  0  0  0  0  0  0
  139.2508   70.0604  222.3153 H   0  0  0  0  0  0  0  0  0  0  0  0
  138.8991   68.5177  224.2143 H   0  0  0  0  0  0  0  0  0  0  0  0
  139.1656   68.0139  226.5386 H   0  0  0  0  0  0  0  0  0  0  0  0
  141.1381   70.8329  229.0558 H   0  0  0  0  0  0  0  0  0  0  0  0
  141.4858   72.3627  227.1576 H   0  0  0  0  0  0  0  0  0  0  0  0
  1  2  2  0
  2  3  1  0
  3  4  1  0
  4  5  1  0
  5  6  2  0
  5  7  1  0
  7  8  1  0
  8  9  1  0
  9 10  1  0
 10 11  1  0
 10 12  1  0
  2 13  1  0
 13 14  2  0
 14 15  1  0
 15 16  2  0
 16 17  1  0
 17 18  2  0
 18 19  1  0
 18 20  1  0
 20 21  2  0
 21 22  1  0
 22 23  2  0
 12  7  1  0
 23 13  1  0
 22 16  1  0
  3 24  1  0
  4 25  1  0
  4 26  1  0
  8 27  1  0
  8 28  1  0
  9 29  1  0
  9 30  1  0
 10 31  1  1
 11 32  1  0
 12 33  1  0
 12 34  1  0
 14 35  1  0
 15 36  1  0
 17 37  1  0
 20 38  1  0
 21 39  1  0
M  END
>  <smiles>  (33) 
O=C(NCC(=O)N1CC[C@H](O)C1)c1ccc2cc(F)ccc2n1

>  <score_type>  (33) 
oracle

>  <origin>  (33) 
autodockgpu

>  <m_score__min__energy>  (33) 
-7.7000000000000002

>  <m_primary>  (33) 
energy

>  <rmsd>  (33) 
3.8966525509263787

>  <m_score__min__rmsd>  (33) 
3.8966525509263787

>  <meeko>  (33) 
{"free_energy": -7.62, "intermolecular_energy": -9.11, "internal_energy": -0.79, "cluster_size": 35, "cluster_id": 1, "rank_in_cluster": 9}

>  <energy>  (33) 
-6.26

>  <cluster_rmsd>  (33) 
1.93

>  <cluster>  (33) 
1

$$$$

     RDKit          3D

 39 41  0  0  0  0  0  0  0  0999 V2000
  139.8370   73.6480  222.4600 O   0  0  0  0  0  0  0  0  0  0  0  0
  140.3880   72.4970  222.4450 C   0  0  0  0  0  0  0  0  0  0  0  0
  141.0960   72.1570  221.2730 N   0  0  0  0  0  0  0  0  0  0  0  0
  141.1640   73.0940  220.1790 C   0  0  0  0  0  0  0  0  0  0  0  0
  142.4380   72.9290  219.4660 C   0  0  0  0  0  0  0  0  0  0  0  0
  142.4150   72.5880  218.2610 O   0  0  0  0  0  0  0  0  0  0  0  0
  143.7030   73.1370  220.0670 N   0  0  0  0  0  0  0  0  0  0  0  0
  144.2280   74.4320  220.4560 C   0  0  0  0  0  0  0  0  0  0  0  0
  145.6800   74.1310  220.8500 C   0  0  0  0  0  0  0  0  0  0  0  0
  145.9760   72.7910  220.1710 C   0  0  2  0  0  0  0  0  0  0  0  0
  146.2680   73.0150  218.8480 O   0  0  0  0  0  0  0  0  0  0  0  0
  144.6540   72.0860  220.3790 C   0  0  0  0  0  0  0  0  0  0  0  0
  140.2820   71.5920  223.5840 C   0  0  0  0  0  0  0  0  0  0  0  0
  139.6830   70.3590  223.3950 C   0  0  0  0  0  0  0  0  0  0  0  0
  139.5440   69.4480  224.4200 C   0  0  0  0  0  0  0  0  0  0  0  0
  140.0180   69.7790  225.6680 C   0  0  0  0  0  0  0  0  0  0  0  0
  139.8870   68.8740  226.7110 C   0  0  0  0  0  0  0  0  0  0  0  0
  140.3640   69.2050  227.9680 C   0  0  0  0  0  0  0  0  0  0  0  0
  140.2510   68.3390  229.0140 F   0  0  0  0  0  0  0  0  0  0  0  0
  140.9480   70.4270  228.1190 C   0  0  0  0  0  0  0  0  0  0  0  0
  141.0860   71.3400  227.0870 C   0  0  0  0  0  0  0  0  0  0  0  0
  140.6070   71.0110  225.8210 C   0  0  0  0  0  0  0  0  0  0  0  0
  140.7320   71.8830  224.8080 N   0  0  0  0  0  0  0  0  0  0  0  0
  141.5530   71.2290  221.2320 H   0  0  0  0  0  0  0  0  0  0  0  0
  140.3301   72.9085  219.4860 H   0  0  0  0  0  0  0  0  0  0  0  0
  141.0958   74.1192  220.5719 H   0  0  0  0  0  0  0  0  0  0  0  0
  144.1882   75.1402  219.6153 H   0  0  0  0  0  0  0  0  0  0  0  0
  143.6531   74.8988  221.2694 H   0  0  0  0  0  0  0  0  0  0  0  0
  146.3566   74.9152  220.4796 H   0  0  0  0  0  0  0  0  0  0  0  0
  145.8250   74.0953  221.9398 H   0  0  0  0  0  0  0  0  0  0  0  0
  146.8327   72.2174  220.5544 H   0  0  0  0  0  0  0  0  0  0  0  0
  146.2190   73.9810  218.6180 H   0  0  0  0  0  0  0  0  0  0  0  0
  144.5444   71.2312  219.6954 H   0  0  0  0  0  0  0  0  0  0  0  0
  144.5310   71.6591  221.3853 H   0  0  0  0  0  0  0  0  0  0  0  0
  139.3059   70.0976  222.3953 H   0  0  0  0  0  0  0  0  0  0  0  0
  139.0631   68.4746  224.2432 H   0  0  0  0  0  0  0  0  0  0  0  0
  139.4070   67.8991  226.5405 H   0  0  0  0  0  0  0  0  0  0  0  0
  141.3299   70.7027  229.1131 H   0  0  0  0  0  0  0  0  0  0  0  0
  141.5678   72.3128  227.2647 H   0  0  0  0  0  0  0  0  0  0  0  0
  1  2  2  0
  2  3  1  0
  3  4  1  0
  4  5  1  0
  5  6  2  0
  5  7  1  0
  7  8  1  0
  8  9  1  0
  9 10  1  0
 10 11  1  0
 10 12  1  0
  2 13  1  0
 13 14  2  0
 14 15  1  0
 15 16  2  0
 16 17  1  0
 17 18  2  0
 18 19  1  0
 18 20  1  0
 20 21  2  0
 21 22  1  0
 22 23  2  0
 12  7  1  0
 23 13  1  0
 22 16  1  0
  3 24  1  0
  4 25  1  0
  4 26  1  0
  8 27  1  0
  8 28  1  0
  9 29  1  0
  9 30  1  0
 10 31  1  1
 11 32  1  0
 12 33  1  0
 12 34  1  0
 14 35  1  0
 15 36  1  0
 17 37  1  0
 20 38  1  0
 21 39  1  0
M  END
>  <smiles>  (34) 
O=C(NCC(=O)N1CC[C@H](O)C1)c1ccc2cc(F)ccc2n1

>  <score_type>  (34) 
oracle

>  <origin>  (34) 
autodockgpu

>  <m_score__min__energy>  (34) 
-7.7000000000000002

>  <m_primary>  (34) 
energy

>  <rmsd>  (34) 
3.919385150187079

>  <m_score__min__rmsd>  (34) 
3.919385150187079

>  <meeko>  (34) 
{"free_energy": -7.69, "intermolecular_energy": -9.19, "internal_energy": -0.76, "cluster_size": 35, "cluster_id": 1, "rank_in_cluster": 2}

>  <energy>  (34) 
-6.23

>  <cluster_rmsd>  (34) 
1.9

>  <cluster>  (34) 
1

$$$$

     RDKit          3D

 39 41  0  0  0  0  0  0  0  0999 V2000
  140.0010   73.8070  222.3300 O   0  0  0  0  0  0  0  0  0  0  0  0
  140.4160   72.6050  222.2230 C   0  0  0  0  0  0  0  0  0  0  0  0
  141.0160   72.2560  220.9950 N   0  0  0  0  0  0  0  0  0  0  0  0
  141.1310   73.2410  219.9480 C   0  0  0  0  0  0  0  0  0  0  0  0
  142.4240   73.0900  219.2670 C   0  0  0  0  0  0  0  0  0  0  0  0
  142.4340   72.8610  218.0350 O   0  0  0  0  0  0  0  0  0  0  0  0
  143.6720   73.1890  219.9280 N   0  0  0  0  0  0  0  0  0  0  0  0
  144.2450   74.4250  220.4250 C   0  0  0  0  0  0  0  0  0  0  0  0
  145.6630   74.0220  220.8510 C   0  0  0  0  0  0  0  0  0  0  0  0
  145.9180   72.7160  220.0930 C   0  0  2  0  0  0  0  0  0  0  0  0
  146.2750   73.0130  218.8000 O   0  0  0  0  0  0  0  0  0  0  0  0
  144.5550   72.0700  220.2020 C   0  0  0  0  0  0  0  0  0  0  0  0
  140.2700   71.6530  223.3190 C   0  0  0  0  0  0  0  0  0  0  0  0
  139.6250   70.4540  223.0710 C   0  0  0  0  0  0  0  0  0  0  0  0
  139.4460   69.5040  224.0530 C   0  0  0  0  0  0  0  0  0  0  0  0
  139.9260   69.7580  225.3170 C   0  0  0  0  0  0  0  0  0  0  0  0
  139.7550   68.8120  226.3160 C   0  0  0  0  0  0  0  0  0  0  0  0
  140.2370   69.0660  227.5890 C   0  0  0  0  0  0  0  0  0  0  0  0
  140.0850   68.1590  228.5940 F   0  0  0  0  0  0  0  0  0  0  0  0
  140.8670   70.2570  227.7980 C   0  0  0  0  0  0  0  0  0  0  0  0
  141.0450   71.2100  226.8100 C   0  0  0  0  0  0  0  0  0  0  0  0
  140.5600   70.9580  225.5280 C   0  0  0  0  0  0  0  0  0  0  0  0
  140.7240   71.8700  224.5560 N   0  0  0  0  0  0  0  0  0  0  0  0
  141.3610   71.2880  220.8790 H   0  0  0  0  0  0  0  0  0  0  0  0
  140.3166   73.1001  219.2221 H   0  0  0  0  0  0  0  0  0  0  0  0
  141.0649   74.2479  220.3858 H   0  0  0  0  0  0  0  0  0  0  0  0
  144.2751   75.1893  219.6345 H   0  0  0  0  0  0  0  0  0  0  0  0
  143.6616   74.8655  221.2469 H   0  0  0  0  0  0  0  0  0  0  0  0
  146.3927   74.7921  220.5604 H   0  0  0  0  0  0  0  0  0  0  0  0
  145.7620   73.9065  221.9404 H   0  0  0  0  0  0  0  0  0  0  0  0
  146.7277   72.0728  220.4679 H   0  0  0  0  0  0  0  0  0  0  0  0
  146.1860   73.9840  218.6060 H   0  0  0  0  0  0  0  0  0  0  0  0
  144.4304   71.2701  219.4573 H   0  0  0  0  0  0  0  0  0  0  0  0
  144.3693   71.5835  221.1709 H   0  0  0  0  0  0  0  0  0  0  0  0
  139.2435   70.2532  222.0590 H   0  0  0  0  0  0  0  0  0  0  0  0
  138.9285   68.5593  223.8302 H   0  0  0  0  0  0  0  0  0  0  0  0
  139.2394   67.8650  226.0986 H   0  0  0  0  0  0  0  0  0  0  0  0
  141.2543   70.4719  228.8049 H   0  0  0  0  0  0  0  0  0  0  0  0
  141.5627   72.1544  227.0339 H   0  0  0  0  0  0  0  0  0  0  0  0
  1  2  2  0
  2  3  1  0
  3  4  1  0
  4  5  1  0
  5  6  2  0
  5  7  1  0
  7  8  1  0
  8  9  1  0
  9 10  1  0
 10 11  1  0
 10 12  1  0
  2 13  1  0
 13 14  2  0
 14 15  1  0
 15 16  2  0
 16 17  1  0
 17 18  2  0
 18 19  1  0
 18 20  1  0
 20 21  2  0
 21 22  1  0
 22 23  2  0
 12  7  1  0
 23 13  1  0
 22 16  1  0
  3 24  1  0
  4 25  1  0
  4 26  1  0
  8 27  1  0
  8 28  1  0
  9 29  1  0
  9 30  1  0
 10 31  1  1
 11 32  1  0
 12 33  1  0
 12 34  1  0
 14 35  1  0
 15 36  1  0
 17 37  1  0
 20 38  1  0
 21 39  1  0
M  END
>  <smiles>  (35) 
O=C(NCC(=O)N1CC[C@H](O)C1)c1ccc2cc(F)ccc2n1

>  <score_type>  (35) 
oracle

>  <origin>  (35) 
autodockgpu

>  <m_score__min__energy>  (35) 
-7.7000000000000002

>  <m_primary>  (35) 
energy

>  <rmsd>  (35) 
3.9133684202965084

>  <m_score__min__rmsd>  (35) 
3.9133684202965084

>  <meeko>  (35) 
{"free_energy": -7.57, "intermolecular_energy": -9.06, "internal_energy": -0.78, "cluster_size": 35, "cluster_id": 1, "rank_in_cluster": 14}

>  <energy>  (35) 
-6.2

>  <cluster_rmsd>  (35) 
2.0

>  <cluster>  (35) 
1

$$$$

     RDKit          3D

 39 41  0  0  0  0  0  0  0  0999 V2000
  141.1680   72.1090  221.8270 O   0  0  0  0  0  0  0  0  0  0  0  0
  140.1860   72.1400  222.6410 C   0  0  0  0  0  0  0  0  0  0  0  0
  139.1600   73.0650  222.3500 N   0  0  0  0  0  0  0  0  0  0  0  0
  139.2650   73.9080  221.1850 C   0  0  0  0  0  0  0  0  0  0  0  0
  140.0460   75.1080  221.5120 C   0  0  0  0  0  0  0  0  0  0  0  0
  139.9040   75.6310  222.6410 O   0  0  0  0  0  0  0  0  0  0  0  0
  140.9600   75.7150  220.6160 N   0  0  0  0  0  0  0  0  0  0  0  0
  142.3500   75.3280  220.4710 C   0  0  0  0  0  0  0  0  0  0  0  0
  142.9330   76.4100  219.5530 C   0  0  0  0  0  0  0  0  0  0  0  0
  141.9420   77.5710  219.6750 C   0  0  2  0  0  0  0  0  0  0  0  0
  142.2040   78.2610  220.8330 O   0  0  0  0  0  0  0  0  0  0  0  0
  140.6360   76.8070  219.7180 C   0  0  0  0  0  0  0  0  0  0  0  0
  140.1370   71.2620  223.8050 C   0  0  0  0  0  0  0  0  0  0  0  0
  139.5600   70.0120  223.6660 C   0  0  0  0  0  0  0  0  0  0  0  0
  139.4750   69.1250  224.7180 C   0  0  0  0  0  0  0  0  0  0  0  0
  139.9810   69.4970  225.9410 C   0  0  0  0  0  0  0  0  0  0  0  0
  139.9040   68.6170  227.0100 C   0  0  0  0  0  0  0  0  0  0  0  0
  140.4130   68.9900  228.2420 C   0  0  0  0  0  0  0  0  0  0  0  0
  140.3540   68.1490  229.3130 F   0  0  0  0  0  0  0  0  0  0  0  0
  140.9750   70.2280  228.3430 C   0  0  0  0  0  0  0  0  0  0  0  0
  141.0590   71.1170  227.2850 C   0  0  0  0  0  0  0  0  0  0  0  0
  140.5470   70.7450  226.0430 C   0  0  0  0  0  0  0  0  0  0  0  0
  140.6190   71.5930  225.0050 N   0  0  0  0  0  0  0  0  0  0  0  0
  138.3510   73.1120  222.9930 H   0  0  0  0  0  0  0  0  0  0  0  0
  139.7658   73.3546  220.3770 H   0  0  0  0  0  0  0  0  0  0  0  0
  138.2577   74.2062  220.8588 H   0  0  0  0  0  0  0  0  0  0  0  0
  142.8600   75.3236  221.4456 H   0  0  0  0  0  0  0  0  0  0  0  0
  142.4705   74.3129  220.0646 H   0  0  0  0  0  0  0  0  0  0  0  0
  143.9344   76.7131  219.8925 H   0  0  0  0  0  0  0  0  0  0  0  0
  143.0558   76.0648  218.5158 H   0  0  0  0  0  0  0  0  0  0  0  0
  141.9669   78.3326  218.8817 H   0  0  0  0  0  0  0  0  0  0  0  0
  142.5910   77.6720  221.5350 H   0  0  0  0  0  0  0  0  0  0  0  0
  139.8219   77.4279  220.1200 H   0  0  0  0  0  0  0  0  0  0  0  0
  140.2785   76.4802  218.7304 H   0  0  0  0  0  0  0  0  0  0  0  0
  139.1567   69.7170  222.6860 H   0  0  0  0  0  0  0  0  0  0  0  0
  139.0106   68.1372  224.5813 H   0  0  0  0  0  0  0  0  0  0  0  0
  139.4409   67.6278  226.8796 H   0  0  0  0  0  0  0  0  0  0  0  0
  141.3833   70.5369  229.3166 H   0  0  0  0  0  0  0  0  0  0  0  0
  141.5239   72.1044  227.4227 H   0  0  0  0  0  0  0  0  0  0  0  0
  1  2  2  0
  2  3  1  0
  3  4  1  0
  4  5  1  0
  5  6  2  0
  5  7  1  0
  7  8  1  0
  8  9  1  0
  9 10  1  0
 10 11  1  0
 10 12  1  0
  2 13  1  0
 13 14  2  0
 14 15  1  0
 15 16  2  0
 16 17  1  0
 17 18  2  0
 18 19  1  0
 18 20  1  0
 20 21  2  0
 21 22  1  0
 22 23  2  0
 12  7  1  0
 23 13  1  0
 22 16  1  0
  3 24  1  0
  4 25  1  0
  4 26  1  0
  8 27  1  0
  8 28  1  0
  9 29  1  0
  9 30  1  0
 10 31  1  6
 11 32  1  0
 12 33  1  0
 12 34  1  0
 14 35  1  0
 15 36  1  0
 17 37  1  0
 20 38  1  0
 21 39  1  0
M  END
>  <smiles>  (36) 
O=C(NCC(=O)N1CC[C@H](O)C1)c1ccc2cc(F)ccc2n1

>  <score_type>  (36) 
oracle

>  <origin>  (36) 
autodockgpu

>  <m_score__min__energy>  (36) 
-7.7000000000000002

>  <m_primary>  (36) 
energy

>  <rmsd>  (36) 
1.8024986463444372

>  <m_score__min__rmsd>  (36) 
1.8024986463444372

>  <meeko>  (36) 
{"free_energy": -6.81, "intermolecular_energy": -8.31, "internal_energy": -0.87, "cluster_size": 10, "cluster_id": 2, "rank_in_cluster": 2}

>  <energy>  (36) 
-6.82

>  <cluster_rmsd>  (36) 
0.0

>  <cluster>  (36) 
2

$$$$

     RDKit          3D

 39 41  0  0  0  0  0  0  0  0999 V2000
  140.9900   71.6870  221.5170 O   0  0  0  0  0  0  0  0  0  0  0  0
  140.2170   71.9790  222.4890 C   0  0  0  0  0  0  0  0  0  0  0  0
  139.4370   73.1460  222.3420 N   0  0  0  0  0  0  0  0  0  0  0  0
  139.5450   73.9320  221.1380 C   0  0  0  0  0  0  0  0  0  0  0  0
  140.7480   74.7740  221.2030 C   0  0  0  0  0  0  0  0  0  0  0  0
  140.9500   75.4580  222.2330 O   0  0  0  0  0  0  0  0  0  0  0  0
  141.7020   74.8570  220.1610 N   0  0  0  0  0  0  0  0  0  0  0  0
  142.6490   73.8100  219.8250 C   0  0  0  0  0  0  0  0  0  0  0  0
  143.5690   74.4720  218.7920 C   0  0  0  0  0  0  0  0  0  0  0  0
  143.3590   75.9720  219.0170 C   0  0  2  0  0  0  0  0  0  0  0  0
  144.1070   76.3700  220.0980 O   0  0  0  0  0  0  0  0  0  0  0  0
  141.8690   75.9980  219.2810 C   0  0  0  0  0  0  0  0  0  0  0  0
  140.1520   71.1430  223.6830 C   0  0  0  0  0  0  0  0  0  0  0  0
  139.5520   69.9000  223.5890 C   0  0  0  0  0  0  0  0  0  0  0  0
  139.4500   69.0530  224.6710 C   0  0  0  0  0  0  0  0  0  0  0  0
  139.9640   69.4590  225.8810 C   0  0  0  0  0  0  0  0  0  0  0  0
  139.8700   68.6180  226.9800 C   0  0  0  0  0  0  0  0  0  0  0  0
  140.3860   69.0250  228.1990 C   0  0  0  0  0  0  0  0  0  0  0  0
  140.3100   68.2250  229.2980 F   0  0  0  0  0  0  0  0  0  0  0  0
  140.9700   70.2560  228.2560 C   0  0  0  0  0  0  0  0  0  0  0  0
  141.0700   71.1050  227.1680 C   0  0  0  0  0  0  0  0  0  0  0  0
  140.5520   70.6990  225.9390 C   0  0  0  0  0  0  0  0  0  0  0  0
  140.6400   71.5090  224.8720 N   0  0  0  0  0  0  0  0  0  0  0  0
  138.8010   73.4080  223.1140 H   0  0  0  0  0  0  0  0  0  0  0  0
  139.6143   73.2617  220.2686 H   0  0  0  0  0  0  0  0  0  0  0  0
  138.6563   74.5729  221.0401 H   0  0  0  0  0  0  0  0  0  0  0  0
  143.2176   73.4954  220.7125 H   0  0  0  0  0  0  0  0  0  0  0  0
  142.1622   72.9007  219.4425 H   0  0  0  0  0  0  0  0  0  0  0  0
  144.6185   74.1934  218.9676 H   0  0  0  0  0  0  0  0  0  0  0  0
  143.3408   74.1623  217.7615 H   0  0  0  0  0  0  0  0  0  0  0  0
  143.6621   76.6453  218.2016 H   0  0  0  0  0  0  0  0  0  0  0  0
  143.7020   77.1520  220.5600 H   0  0  0  0  0  0  0  0  0  0  0  0
  141.5664   76.9327  219.7758 H   0  0  0  0  0  0  0  0  0  0  0  0
  141.2549   75.9505  218.3696 H   0  0  0  0  0  0  0  0  0  0  0  0
  139.1435   69.5777  222.6199 H   0  0  0  0  0  0  0  0  0  0  0  0
  138.9665   68.0702  224.5693 H   0  0  0  0  0  0  0  0  0  0  0  0
  139.3885   67.6337  226.8839 H   0  0  0  0  0  0  0  0  0  0  0  0
  141.3837   70.5920  229.2183 H   0  0  0  0  0  0  0  0  0  0  0  0
  141.5523   72.0882  227.2715 H   0  0  0  0  0  0  0  0  0  0  0  0
  1  2  2  0
  2  3  1  0
  3  4  1  0
  4  5  1  0
  5  6  2  0
  5  7  1  0
  7  8  1  0
  8  9  1  0
  9 10  1  0
 10 11  1  0
 10 12  1  0
  2 13  1  0
 13 14  2  0
 14 15  1  0
 15 16  2  0
 16 17  1  0
 17 18  2  0
 18 19  1  0
 18 20  1  0
 20 21  2  0
 21 22  1  0
 22 23  2  0
 12  7  1  0
 23 13  1  0
 22 16  1  0
  3 24  1  0
  4 25  1  0
  4 26  1  0
  8 27  1  0
  8 28  1  0
  9 29  1  0
  9 30  1  0
 10 31  1  6
 11 32  1  0
 12 33  1  0
 12 34  1  0
 14 35  1  0
 15 36  1  0
 17 37  1  0
 20 38  1  0
 21 39  1  0
M  END
>  <smiles>  (37) 
O=C(NCC(=O)N1CC[C@H](O)C1)c1ccc2cc(F)ccc2n1

>  <score_type>  (37) 
oracle

>  <origin>  (37) 
autodockgpu

>  <m_score__min__energy>  (37) 
-7.7000000000000002

>  <m_primary>  (37) 
energy

>  <rmsd>  (37) 
2.18319179113843

>  <m_score__min__rmsd>  (37) 
2.18319179113843

>  <meeko>  (37) 
{"free_energy": -6.82, "intermolecular_energy": -8.31, "internal_energy": -0.9, "cluster_size": 10, "cluster_id": 2, "rank_in_cluster": 1}

>  <energy>  (37) 
-6.81

>  <cluster_rmsd>  (37) 
0.95

>  <cluster>  (37) 
2

$$$$

     RDKit          3D

 39 41  0  0  0  0  0  0  0  0999 V2000
  139.8620   73.5680  222.3470 O   0  0  0  0  0  0  0  0  0  0  0  0
  140.5160   72.4770  222.4420 C   0  0  0  0  0  0  0  0  0  0  0  0
  141.3880   72.1740  221.3750 N   0  0  0  0  0  0  0  0  0  0  0  0
  141.4970   73.0820  220.2600 C   0  0  0  0  0  0  0  0  0  0  0  0
  142.7330   73.8670  220.3810 C   0  0  0  0  0  0  0  0  0  0  0  0
  142.6580   75.1170  220.3690 O   0  0  0  0  0  0  0  0  0  0  0  0
  144.0180   73.2870  220.5130 N   0  0  0  0  0  0  0  0  0  0  0  0
  145.1380   73.9100  221.1930 C   0  0  0  0  0  0  0  0  0  0  0  0
  146.3180   72.9850  220.8710 C   0  0  0  0  0  0  0  0  0  0  0  0
  145.8530   72.2100  219.6360 C   0  0  2  0  0  0  0  0  0  0  0  0
  146.0270   72.9970  218.5230 O   0  0  0  0  0  0  0  0  0  0  0  0
  144.3980   71.9880  219.9880 C   0  0  0  0  0  0  0  0  0  0  0  0
  140.3610   71.5980  223.5960 C   0  0  0  0  0  0  0  0  0  0  0  0
  139.7420   70.3730  223.4160 C   0  0  0  0  0  0  0  0  0  0  0  0
  139.5570   69.4880  224.4560 C   0  0  0  0  0  0  0  0  0  0  0  0
  140.0040   69.8350  225.7100 C   0  0  0  0  0  0  0  0  0  0  0  0
  139.8260   68.9550  226.7670 C   0  0  0  0  0  0  0  0  0  0  0  0
  140.2740   69.3040  228.0300 C   0  0  0  0  0  0  0  0  0  0  0  0
  140.1150   68.4630  229.0900 F   0  0  0  0  0  0  0  0  0  0  0  0
  140.8780   70.5180  228.1710 C   0  0  0  0  0  0  0  0  0  0  0  0
  141.0630   71.4050  227.1250 C   0  0  0  0  0  0  0  0  0  0  0  0
  140.6120   71.0590  225.8530 C   0  0  0  0  0  0  0  0  0  0  0  0
  140.7830   71.9060  224.8260 N   0  0  0  0  0  0  0  0  0  0  0  0
  141.9310   71.2950  221.4240 H   0  0  0  0  0  0  0  0  0  0  0  0
  141.5184   72.5083  219.3217 H   0  0  0  0  0  0  0  0  0  0  0  0
  140.6321   73.7616  220.2572 H   0  0  0  0  0  0  0  0  0  0  0  0
  145.3173   74.9239  220.8059 H   0  0  0  0  0  0  0  0  0  0  0  0
  144.9697   74.0263  222.2738 H   0  0  0  0  0  0  0  0  0  0  0  0
  147.2234   73.5688  220.6485 H   0  0  0  0  0  0  0  0  0  0  0  0
  146.5810   72.3254  221.7111 H   0  0  0  0  0  0  0  0  0  0  0  0
  146.3853   71.2753  219.4058 H   0  0  0  0  0  0  0  0  0  0  0  0
  146.0070   73.9650  218.7490 H   0  0  0  0  0  0  0  0  0  0  0  0
  143.8061   71.7268  219.0984 H   0  0  0  0  0  0  0  0  0  0  0  0
  144.2311   71.1577  220.6899 H   0  0  0  0  0  0  0  0  0  0  0  0
  139.3869   70.0975  222.4120 H   0  0  0  0  0  0  0  0  0  0  0  0
  139.0607   68.5211  224.2865 H   0  0  0  0  0  0  0  0  0  0  0  0
  139.3321   67.9859  226.6032 H   0  0  0  0  0  0  0  0  0  0  0  0
  141.2375   70.8079  229.1694 H   0  0  0  0  0  0  0  0  0  0  0  0
  141.5600   72.3713  227.2957 H   0  0  0  0  0  0  0  0  0  0  0  0
  1  2  2  0
  2  3  1  0
  3  4  1  0
  4  5  1  0
  5  6  2  0
  5  7  1  0
  7  8  1  0
  8  9  1  0
  9 10  1  0
 10 11  1  0
 10 12  1  0
  2 13  1  0
 13 14  2  0
 14 15  1  0
 15 16  2  0
 16 17  1  0
 17 18  2  0
 18 19  1  0
 18 20  1  0
 20 21  2  0
 21 22  1  0
 22 23  2  0
 12  7  1  0
 23 13  1  0
 22 16  1  0
  3 24  1  0
  4 25  1  0
  4 26  1  0
  8 27  1  0
  8 28  1  0
  9 29  1  0
  9 30  1  0
 10 31  1  6
 11 32  1  0
 12 33  1  0
 12 34  1  0
 14 35  1  0
 15 36  1  0
 17 37  1  0
 20 38  1  0
 21 39  1  0
M  END
>  <smiles>  (38) 
O=C(NCC(=O)N1CC[C@H](O)C1)c1ccc2cc(F)ccc2n1

>  <score_type>  (38) 
oracle

>  <origin>  (38) 
autodockgpu

>  <m_score__min__energy>  (38) 
-7.7000000000000002

>  <m_primary>  (38) 
energy

>  <rmsd>  (38) 
4.080348028195801

>  <m_score__min__rmsd>  (38) 
4.080348028195801

>  <meeko>  (38) 
{"free_energy": -7.5, "intermolecular_energy": -8.99, "internal_energy": -0.79, "cluster_size": 35, "cluster_id": 1, "rank_in_cluster": 18}

>  <energy>  (38) 
-6.68

>  <cluster_rmsd>  (38) 
1.32

>  <cluster>  (38) 
2

$$$$

     RDKit          3D

 39 41  0  0  0  0  0  0  0  0999 V2000
  140.8540   71.5100  221.4240 O   0  0  0  0  0  0  0  0  0  0  0  0
  140.3590   71.9660  222.5080 C   0  0  0  0  0  0  0  0  0  0  0  0
  139.9400   73.3130  222.4870 N   0  0  0  0  0  0  0  0  0  0  0  0
  140.0870   74.0910  221.2810 C   0  0  0  0  0  0  0  0  0  0  0  0
  140.0970   75.5220  221.6140 C   0  0  0  0  0  0  0  0  0  0  0  0
  139.5620   75.8970  222.6840 O   0  0  0  0  0  0  0  0  0  0  0  0
  140.6840   76.5120  220.7900 N   0  0  0  0  0  0  0  0  0  0  0  0
  141.8700   76.3120  219.9790 C   0  0  0  0  0  0  0  0  0  0  0  0
  142.1980   77.7200  219.4640 C   0  0  0  0  0  0  0  0  0  0  0  0
  141.4620   78.6480  220.4340 C   0  0  2  0  0  0  0  0  0  0  0  0
  142.2080   78.7780  221.5800 O   0  0  0  0  0  0  0  0  0  0  0  0
  140.1840   77.8660  220.6390 C   0  0  0  0  0  0  0  0  0  0  0  0
  140.2380   71.1290  223.6960 C   0  0  0  0  0  0  0  0  0  0  0  0
  139.5990   69.9070  223.5820 C   0  0  0  0  0  0  0  0  0  0  0  0
  139.4430   69.0600  224.6590 C   0  0  0  0  0  0  0  0  0  0  0  0
  139.9400   69.4450  225.8820 C   0  0  0  0  0  0  0  0  0  0  0  0
  139.7920   68.6050  226.9750 C   0  0  0  0  0  0  0  0  0  0  0  0
  140.2910   68.9910  228.2080 C   0  0  0  0  0  0  0  0  0  0  0  0
  140.1630   68.1900  229.3020 F   0  0  0  0  0  0  0  0  0  0  0  0
  140.9140   70.2010  228.2840 C   0  0  0  0  0  0  0  0  0  0  0  0
  141.0690   71.0500  227.2020 C   0  0  0  0  0  0  0  0  0  0  0  0
  140.5680   70.6650  225.9600 C   0  0  0  0  0  0  0  0  0  0  0  0
  140.7080   71.4740  224.8980 N   0  0  0  0  0  0  0  0  0  0  0  0
  139.5350   73.7110  223.3520 H   0  0  0  0  0  0  0  0  0  0  0  0
  141.0325   73.8239  220.7864 H   0  0  0  0  0  0  0  0  0  0  0  0
  139.2448   73.8796  220.6058 H   0  0  0  0  0  0  0  0  0  0  0  0
  142.6970   75.9130  220.5847 H   0  0  0  0  0  0  0  0  0  0  0  0
  141.7148   75.5859  219.1674 H   0  0  0  0  0  0  0  0  0  0  0  0
  143.2821   77.9044  219.4925 H   0  0  0  0  0  0  0  0  0  0  0  0
  141.8921   77.8710  218.4182 H   0  0  0  0  0  0  0  0  0  0  0  0
  141.2828   79.6796  220.0968 H   0  0  0  0  0  0  0  0  0  0  0  0
  142.9900   78.1630  221.5830 H   0  0  0  0  0  0  0  0  0  0  0  0
  139.6514   78.1991  221.5420 H   0  0  0  0  0  0  0  0  0  0  0  0
  139.4552   77.9828  219.8234 H   0  0  0  0  0  0  0  0  0  0  0  0
  139.2033   69.6018  222.6021 H   0  0  0  0  0  0  0  0  0  0  0  0
  138.9303   68.0939  224.5419 H   0  0  0  0  0  0  0  0  0  0  0  0
  139.2811   67.6373  226.8636 H   0  0  0  0  0  0  0  0  0  0  0  0
  141.3151   70.5198  229.2574 H   0  0  0  0  0  0  0  0  0  0  0  0
  141.5811   72.0162  227.3209 H   0  0  0  0  0  0  0  0  0  0  0  0
  1  2  2  0
  2  3  1  0
  3  4  1  0
  4  5  1  0
  5  6  2  0
  5  7  1  0
  7  8  1  0
  8  9  1  0
  9 10  1  0
 10 11  1  0
 10 12  1  0
  2 13  1  0
 13 14  2  0
 14 15  1  0
 15 16  2  0
 16 17  1  0
 17 18  2  0
 18 19  1  0
 18 20  1  0
 20 21  2  0
 21 22  1  0
 22 23  2  0
 12  7  1  0
 23 13  1  0
 22 16  1  0
  3 24  1  0
  4 25  1  0
  4 26  1  0
  8 27  1  0
  8 28  1  0
  9 29  1  0
  9 30  1  0
 10 31  1  6
 11 32  1  0
 12 33  1  0
 12 34  1  0
 14 35  1  0
 15 36  1  0
 17 37  1  0
 20 38  1  0
 21 39  1  0
M  END
>  <smiles>  (39) 
O=C(NCC(=O)N1CC[C@H](O)C1)c1ccc2cc(F)ccc2n1

>  <score_type>  (39) 
oracle

>  <origin>  (39) 
autodockgpu

>  <m_score__min__energy>  (39) 
-7.7000000000000002

>  <m_primary>  (39) 
energy

>  <rmsd>  (39) 
2.07989435039028

>  <m_score__min__rmsd>  (39) 
2.07989435039028

>  <meeko>  (39) 
{"free_energy": -6.68, "intermolecular_energy": -8.17, "internal_energy": -1.22, "cluster_size": 10, "cluster_id": 2, "rank_in_cluster": 3}

>  <energy>  (39) 
-6.67

>  <cluster_rmsd>  (39) 
1.25

>  <cluster>  (39) 
2

$$$$

     RDKit          3D

 39 41  0  0  0  0  0  0  0  0999 V2000
  140.3650   71.3740  220.6790 O   0  0  0  0  0  0  0  0  0  0  0  0
  140.6370   71.9860  221.7640 C   0  0  0  0  0  0  0  0  0  0  0  0
  141.2260   73.2620  221.6330 N   0  0  0  0  0  0  0  0  0  0  0  0
  141.4850   73.8000  220.3210 C   0  0  0  0  0  0  0  0  0  0  0  0
  142.8310   74.3870  220.2850 C   0  0  0  0  0  0  0  0  0  0  0  0
  142.9470   75.6210  220.0980 O   0  0  0  0  0  0  0  0  0  0  0  0
  144.0180   73.6330  220.4510 N   0  0  0  0  0  0  0  0  0  0  0  0
  145.2280   74.1310  221.0780 C   0  0  0  0  0  0  0  0  0  0  0  0
  146.2540   73.0190  220.8180 C   0  0  0  0  0  0  0  0  0  0  0  0
  145.6590   72.2360  219.6440 C   0  0  2  0  0  0  0  0  0  0  0  0
  145.9290   72.9070  218.4760 O   0  0  0  0  0  0  0  0  0  0  0  0
  144.1930   72.2590  220.0200 C   0  0  0  0  0  0  0  0  0  0  0  0
  140.3520   71.3890  223.0640 C   0  0  0  0  0  0  0  0  0  0  0  0
  139.5810   70.2410  223.1090 C   0  0  0  0  0  0  0  0  0  0  0  0
  139.2660   69.6170  224.2970 C   0  0  0  0  0  0  0  0  0  0  0  0
  139.7360   70.1550  225.4720 C   0  0  0  0  0  0  0  0  0  0  0  0
  139.4290   69.5390  226.6770 C   0  0  0  0  0  0  0  0  0  0  0  0
  139.9000   70.0790  227.8610 C   0  0  0  0  0  0  0  0  0  0  0  0
  139.6170   69.5010  229.0610 F   0  0  0  0  0  0  0  0  0  0  0  0
  140.6570   71.2110  227.7800 C   0  0  0  0  0  0  0  0  0  0  0  0
  140.9710   71.8360  226.5850 C   0  0  0  0  0  0  0  0  0  0  0  0
  140.4980   71.2950  225.3910 C   0  0  0  0  0  0  0  0  0  0  0  0
  140.7920   71.8860  224.2230 N   0  0  0  0  0  0  0  0  0  0  0  0
  141.4580   73.7820  222.4970 H   0  0  0  0  0  0  0  0  0  0  0  0
  141.4171   72.9943  219.5752 H   0  0  0  0  0  0  0  0  0  0  0  0
  140.7415   74.5778  220.0923 H   0  0  0  0  0  0  0  0  0  0  0  0
  145.5486   75.0767  220.6167 H   0  0  0  0  0  0  0  0  0  0  0  0
  145.0961   74.3488  222.1481 H   0  0  0  0  0  0  0  0  0  0  0  0
  147.2323   73.4441  220.5492 H   0  0  0  0  0  0  0  0  0  0  0  0
  146.4300   72.3890  221.7024 H   0  0  0  0  0  0  0  0  0  0  0  0
  146.0434   71.2187  219.4788 H   0  0  0  0  0  0  0  0  0  0  0  0
  145.9770   73.8900  218.6180 H   0  0  0  0  0  0  0  0  0  0  0  0
  143.5542   72.0262  219.1553 H   0  0  0  0  0  0  0  0  0  0  0  0
  143.9170   71.5149  220.7817 H   0  0  0  0  0  0  0  0  0  0  0  0
  139.2076   69.8128  222.1670 H   0  0  0  0  0  0  0  0  0  0  0  0
  138.6501   68.7056  224.3050 H   0  0  0  0  0  0  0  0  0  0  0  0
  138.8147   68.6266  226.6910 H   0  0  0  0  0  0  0  0  0  0  0  0
  141.0382   71.6506  228.7135 H   0  0  0  0  0  0  0  0  0  0  0  0
  141.5860   72.7480  226.5782 H   0  0  0  0  0  0  0  0  0  0  0  0
  1  2  2  0
  2  3  1  0
  3  4  1  0
  4  5  1  0
  5  6  2  0
  5  7  1  0
  7  8  1  0
  8  9  1  0
  9 10  1  0
 10 11  1  0
 10 12  1  0
  2 13  1  0
 13 14  2  0
 14 15  1  0
 15 16  2  0
 16 17  1  0
 17 18  2  0
 18 19  1  0
 18 20  1  0
 20 21  2  0
 21 22  1  0
 22 23  2  0
 12  7  1  0
 23 13  1  0
 22 16  1  0
  3 24  1  0
  4 25  1  0
  4 26  1  0
  8 27  1  0
  8 28  1  0
  9 29  1  0
  9 30  1  0
 10 31  1  6
 11 32  1  0
 12 33  1  0
 12 34  1  0
 14 35  1  0
 15 36  1  0
 17 37  1  0
 20 38  1  0
 21 39  1  0
M  END
>  <smiles>  (40) 
O=C(NCC(=O)N1CC[C@H](O)C1)c1ccc2cc(F)ccc2n1

>  <score_type>  (40) 
oracle

>  <origin>  (40) 
autodockgpu

>  <m_score__min__energy>  (40) 
-7.7000000000000002

>  <m_primary>  (40) 
energy

>  <rmsd>  (40) 
3.968194011975318

>  <m_score__min__rmsd>  (40) 
3.968194011975318

>  <meeko>  (40) 
{"free_energy": -6.64, "intermolecular_energy": -8.13, "internal_energy": -1.02, "cluster_size": 35, "cluster_id": 1, "rank_in_cluster": 30}

>  <energy>  (40) 
-6.65

>  <cluster_rmsd>  (40) 
1.19

>  <cluster>  (40) 
2

$$$$

     RDKit          3D

 39 41  0  0  0  0  0  0  0  0999 V2000
  139.7410   73.6190  222.4230 O   0  0  0  0  0  0  0  0  0  0  0  0
  140.3470   72.4970  222.4610 C   0  0  0  0  0  0  0  0  0  0  0  0
  141.1250   72.1670  221.3300 N   0  0  0  0  0  0  0  0  0  0  0  0
  141.1980   73.0830  220.2190 C   0  0  0  0  0  0  0  0  0  0  0  0
  142.4680   72.8940  219.5050 C   0  0  0  0  0  0  0  0  0  0  0  0
  142.4390   72.5150  218.3110 O   0  0  0  0  0  0  0  0  0  0  0  0
  143.7360   73.1180  220.0930 N   0  0  0  0  0  0  0  0  0  0  0  0
  144.2490   74.4200  220.4730 C   0  0  0  0  0  0  0  0  0  0  0  0
  145.7090   74.1370  220.8540 C   0  0  0  0  0  0  0  0  0  0  0  0
  146.0140   72.7990  220.1760 C   0  0  2  0  0  0  0  0  0  0  0  0
  146.2900   73.0220  218.8490 O   0  0  0  0  0  0  0  0  0  0  0  0
  144.7020   72.0790  220.3990 C   0  0  0  0  0  0  0  0  0  0  0  0
  140.2340   71.6120  223.6150 C   0  0  0  0  0  0  0  0  0  0  0  0
  139.5800   70.4030  223.4590 C   0  0  0  0  0  0  0  0  0  0  0  0
  139.4300   69.5130  224.5010 C   0  0  0  0  0  0  0  0  0  0  0  0
  139.9490   69.8400  225.7310 C   0  0  0  0  0  0  0  0  0  0  0  0
  139.8070   68.9550  226.7900 C   0  0  0  0  0  0  0  0  0  0  0  0
  140.3290   69.2830  228.0300 C   0  0  0  0  0  0  0  0  0  0  0  0
  140.2070   68.4370  229.0910 F   0  0  0  0  0  0  0  0  0  0  0  0
  140.9670   70.4820  228.1480 C   0  0  0  0  0  0  0  0  0  0  0  0
  141.1160   71.3740  227.1010 C   0  0  0  0  0  0  0  0  0  0  0  0
  140.5920   71.0490  225.8510 C   0  0  0  0  0  0  0  0  0  0  0  0
  140.7260   71.9010  224.8230 N   0  0  0  0  0  0  0  0  0  0  0  0
  141.6280   71.2630  221.3320 H   0  0  0  0  0  0  0  0  0  0  0  0
  140.3603   72.8923  219.5321 H   0  0  0  0  0  0  0  0  0  0  0  0
  141.1404   74.1157  220.5935 H   0  0  0  0  0  0  0  0  0  0  0  0
  144.1927   75.1252  219.6307 H   0  0  0  0  0  0  0  0  0  0  0  0
  143.6764   74.8825  221.2905 H   0  0  0  0  0  0  0  0  0  0  0  0
  146.3727   74.9281  220.4749 H   0  0  0  0  0  0  0  0  0  0  0  0
  145.8649   74.1062  221.9425 H   0  0  0  0  0  0  0  0  0  0  0  0
  146.8814   72.2371  220.5526 H   0  0  0  0  0  0  0  0  0  0  0  0
  146.3370   73.9930  218.6410 H   0  0  0  0  0  0  0  0  0  0  0  0
  144.5957   71.2208  219.7191 H   0  0  0  0  0  0  0  0  0  0  0  0
  144.5936   71.6538  221.4077 H   0  0  0  0  0  0  0  0  0  0  0  0
  139.1669   70.1438  222.4730 H   0  0  0  0  0  0  0  0  0  0  0  0
  138.9044   68.5584  224.3508 H   0  0  0  0  0  0  0  0  0  0  0  0
  139.2830   67.9987  226.6455 H   0  0  0  0  0  0  0  0  0  0  0  0
  141.3857   70.7548  229.1280 H   0  0  0  0  0  0  0  0  0  0  0  0
  141.6417   72.3282  227.2532 H   0  0  0  0  0  0  0  0  0  0  0  0
  1  2  2  0
  2  3  1  0
  3  4  1  0
  4  5  1  0
  5  6  2  0
  5  7  1  0
  7  8  1  0
  8  9  1  0
  9 10  1  0
 10 11  1  0
 10 12  1  0
  2 13  1  0
 13 14  2  0
 14 15  1  0
 15 16  2  0
 16 17  1  0
 17 18  2  0
 18 19  1  0
 18 20  1  0
 20 21  2  0
 21 22  1  0
 22 23  2  0
 12  7  1  0
 23 13  1  0
 22 16  1  0
  3 24  1  0
  4 25  1  0
  4 26  1  0
  8 27  1  0
  8 28  1  0
  9 29  1  0
  9 30  1  0
 10 31  1  1
 11 32  1  0
 12 33  1  0
 12 34  1  0
 14 35  1  0
 15 36  1  0
 17 37  1  0
 20 38  1  0
 21 39  1  0
M  END
>  <smiles>  (41) 
O=C(NCC(=O)N1CC[C@H](O)C1)c1ccc2cc(F)ccc2n1

>  <score_type>  (41) 
oracle

>  <origin>  (41) 
autodockgpu

>  <m_score__min__energy>  (41) 
-7.7000000000000002

>  <m_primary>  (41) 
energy

>  <rmsd>  (41) 
3.938336292454135

>  <m_score__min__rmsd>  (41) 
3.938336292454135

>  <meeko>  (41) 
{"free_energy": -7.69, "intermolecular_energy": -9.18, "internal_energy": -0.74, "cluster_size": 35, "cluster_id": 1, "rank_in_cluster": 3}

>  <energy>  (41) 
-6.65

>  <cluster_rmsd>  (41) 
1.21

>  <cluster>  (41) 
2

$$$$

     RDKit          3D

 39 41  0  0  0  0  0  0  0  0999 V2000
  139.9310   73.6740  222.4050 O   0  0  0  0  0  0  0  0  0  0  0  0
  140.3550   72.4710  222.4110 C   0  0  0  0  0  0  0  0  0  0  0  0
  140.9870   72.0230  221.2310 N   0  0  0  0  0  0  0  0  0  0  0  0
  141.1210   72.9170  220.1070 C   0  0  0  0  0  0  0  0  0  0  0  0
  142.4200   72.7000  219.4560 C   0  0  0  0  0  0  0  0  0  0  0  0
  142.4420   72.2100  218.3030 O   0  0  0  0  0  0  0  0  0  0  0  0
  143.6610   73.0150  220.0610 N   0  0  0  0  0  0  0  0  0  0  0  0
  144.0810   74.3550  220.4270 C   0  0  0  0  0  0  0  0  0  0  0  0
  145.5490   74.1740  220.8350 C   0  0  0  0  0  0  0  0  0  0  0  0
  145.9520   72.8480  220.1850 C   0  0  2  0  0  0  0  0  0  0  0  0
  146.2370   73.0680  218.8600 O   0  0  0  0  0  0  0  0  0  0  0  0
  144.6870   72.0470  220.3990 C   0  0  0  0  0  0  0  0  0  0  0  0
  140.1890   71.6140  223.5800 C   0  0  0  0  0  0  0  0  0  0  0  0
  139.4710   70.4390  223.4410 C   0  0  0  0  0  0  0  0  0  0  0  0
  139.2680   69.5770  224.4980 C   0  0  0  0  0  0  0  0  0  0  0  0
  139.7980   69.8970  225.7260 C   0  0  0  0  0  0  0  0  0  0  0  0
  139.6040   69.0410  226.7990 C   0  0  0  0  0  0  0  0  0  0  0  0
  140.1370   69.3620  228.0360 C   0  0  0  0  0  0  0  0  0  0  0  0
  139.9640   68.5430  229.1110 F   0  0  0  0  0  0  0  0  0  0  0  0
  140.8380   70.5270  228.1370 C   0  0  0  0  0  0  0  0  0  0  0  0
  141.0390   71.3910  227.0740 C   0  0  0  0  0  0  0  0  0  0  0  0
  140.5050   71.0720  225.8280 C   0  0  0  0  0  0  0  0  0  0  0  0
  140.6900   71.8970  224.7850 N   0  0  0  0  0  0  0  0  0  0  0  0
  141.3400   71.0510  221.2070 H   0  0  0  0  0  0  0  0  0  0  0  0
  140.3133   72.7222  219.3861 H   0  0  0  0  0  0  0  0  0  0  0  0
  141.0582   73.9574  220.4586 H   0  0  0  0  0  0  0  0  0  0  0  0
  143.9927   75.0415  219.5721 H   0  0  0  0  0  0  0  0  0  0  0  0
  143.4657   74.7923  221.2271 H   0  0  0  0  0  0  0  0  0  0  0  0
  146.1660   75.0005  220.4527 H   0  0  0  0  0  0  0  0  0  0  0  0
  145.6883   74.1707  221.9261 H   0  0  0  0  0  0  0  0  0  0  0  0
  146.8471   72.3494  220.5852 H   0  0  0  0  0  0  0  0  0  0  0  0
  146.2180   74.0370  218.6340 H   0  0  0  0  0  0  0  0  0  0  0  0
  144.6486   71.1734  219.7317 H   0  0  0  0  0  0  0  0  0  0  0  0
  144.5898   71.6309  221.4126 H   0  0  0  0  0  0  0  0  0  0  0  0
  139.0494   70.1850  222.4573 H   0  0  0  0  0  0  0  0  0  0  0  0
  138.6923   68.6497  224.3614 H   0  0  0  0  0  0  0  0  0  0  0  0
  139.0298   68.1119  226.6685 H   0  0  0  0  0  0  0  0  0  0  0  0
  141.2663   70.7945  229.1142 H   0  0  0  0  0  0  0  0  0  0  0  0
  141.6138   72.3187  227.2120 H   0  0  0  0  0  0  0  0  0  0  0  0
  1  2  2  0
  2  3  1  0
  3  4  1  0
  4  5  1  0
  5  6  2  0
  5  7  1  0
  7  8  1  0
  8  9  1  0
  9 10  1  0
 10 11  1  0
 10 12  1  0
  2 13  1  0
 13 14  2  0
 14 15  1  0
 15 16  2  0
 16 17  1  0
 17 18  2  0
 18 19  1  0
 18 20  1  0
 20 21  2  0
 21 22  1  0
 22 23  2  0
 12  7  1  0
 23 13  1  0
 22 16  1  0
  3 24  1  0
  4 25  1  0
  4 26  1  0
  8 27  1  0
  8 28  1  0
  9 29  1  0
  9 30  1  0
 10 31  1  1
 11 32  1  0
 12 33  1  0
 12 34  1  0
 14 35  1  0
 15 36  1  0
 17 37  1  0
 20 38  1  0
 21 39  1  0
M  END
>  <smiles>  (42) 
O=C(NCC(=O)N1CC[C@H](O)C1)c1ccc2cc(F)ccc2n1

>  <score_type>  (42) 
oracle

>  <origin>  (42) 
autodockgpu

>  <m_score__min__energy>  (42) 
-7.7000000000000002

>  <m_primary>  (42) 
energy

>  <rmsd>  (42) 
3.91293805796104

>  <m_score__min__rmsd>  (42) 
3.91293805796104

>  <meeko>  (42) 
{"free_energy": -7.68, "intermolecular_energy": -9.17, "internal_energy": -0.76, "cluster_size": 35, "cluster_id": 1, "rank_in_cluster": 5}

>  <energy>  (42) 
-6.5

>  <cluster_rmsd>  (42) 
0.64

>  <cluster>  (42) 
2

$$$$

     RDKit          3D

 39 41  0  0  0  0  0  0  0  0999 V2000
  140.7030   73.3610  222.2480 O   0  0  0  0  0  0  0  0  0  0  0  0
  140.6160   72.0910  222.3310 C   0  0  0  0  0  0  0  0  0  0  0  0
  140.8370   71.3700  221.1380 N   0  0  0  0  0  0  0  0  0  0  0  0
  141.1420   72.0770  219.9190 C   0  0  0  0  0  0  0  0  0  0  0  0
  142.5790   71.9700  219.6320 C   0  0  0  0  0  0  0  0  0  0  0  0
  142.9820   71.0310  218.9070 O   0  0  0  0  0  0  0  0  0  0  0  0
  143.5460   72.8760  220.1310 N   0  0  0  0  0  0  0  0  0  0  0  0
  143.5070   74.3130  219.9350 C   0  0  0  0  0  0  0  0  0  0  0  0
  144.8610   74.7890  220.4770 C   0  0  0  0  0  0  0  0  0  0  0  0
  145.7280   73.5270  220.4640 C   0  0  2  0  0  0  0  0  0  0  0  0
  146.1920   73.3170  219.1880 O   0  0  0  0  0  0  0  0  0  0  0  0
  144.7120   72.4980  220.9080 C   0  0  0  0  0  0  0  0  0  0  0  0
  140.3020   71.4320  223.5940 C   0  0  0  0  0  0  0  0  0  0  0  0
  139.5460   70.2740  223.5650 C   0  0  0  0  0  0  0  0  0  0  0  0
  139.2060   69.5940  224.7150 C   0  0  0  0  0  0  0  0  0  0  0  0
  139.6360   70.0840  225.9260 C   0  0  0  0  0  0  0  0  0  0  0  0
  139.3040   69.4120  227.0930 C   0  0  0  0  0  0  0  0  0  0  0  0
  139.7360   69.9040  228.3130 C   0  0  0  0  0  0  0  0  0  0  0  0
  139.4270   69.2680  229.4780 F   0  0  0  0  0  0  0  0  0  0  0  0
  140.4790   71.0470  228.3040 C   0  0  0  0  0  0  0  0  0  0  0  0
  140.8180   71.7280  227.1480 C   0  0  0  0  0  0  0  0  0  0  0  0
  140.3850   71.2370  225.9180 C   0  0  0  0  0  0  0  0  0  0  0  0
  140.7040   71.8830  224.7850 N   0  0  0  0  0  0  0  0  0  0  0  0
  140.7730   70.3380  221.1740 H   0  0  0  0  0  0  0  0  0  0  0  0
  140.5694   71.6383  219.0886 H   0  0  0  0  0  0  0  0  0  0  0  0
  140.8710   73.1368  220.0345 H   0  0  0  0  0  0  0  0  0  0  0  0
  143.4019   74.5610  218.8685 H   0  0  0  0  0  0  0  0  0  0  0  0
  142.6536   74.7898  220.4395 H   0  0  0  0  0  0  0  0  0  0  0  0
  145.2911   75.5658  219.8277 H   0  0  0  0  0  0  0  0  0  0  0  0
  144.7825   75.2391  221.4776 H   0  0  0  0  0  0  0  0  0  0  0  0
  146.6307   73.5359  221.0925 H   0  0  0  0  0  0  0  0  0  0  0  0
  146.0870   74.1260  218.6190 H   0  0  0  0  0  0  0  0  0  0  0  0
  145.0425   71.4777  220.6635 H   0  0  0  0  0  0  0  0  0  0  0  0
  144.5378   72.4844  221.9940 H   0  0  0  0  0  0  0  0  0  0  0  0
  139.2057   69.8837  222.5945 H   0  0  0  0  0  0  0  0  0  0  0  0
  138.6017   68.6762  224.6649 H   0  0  0  0  0  0  0  0  0  0  0  0
  138.7008   68.4932  227.0495 H   0  0  0  0  0  0  0  0  0  0  0  0
  140.8275   71.4492  229.2667 H   0  0  0  0  0  0  0  0  0  0  0  0
  141.4220   72.6459  227.1995 H   0  0  0  0  0  0  0  0  0  0  0  0
  1  2  2  0
  2  3  1  0
  3  4  1  0
  4  5  1  0
  5  6  2  0
  5  7  1  0
  7  8  1  0
  8  9  1  0
  9 10  1  0
 10 11  1  0
 10 12  1  0
  2 13  1  0
 13 14  2  0
 14 15  1  0
 15 16  2  0
 16 17  1  0
 17 18  2  0
 18 19  1  0
 18 20  1  0
 20 21  2  0
 21 22  1  0
 22 23  2  0
 12  7  1  0
 23 13  1  0
 22 16  1  0
  3 24  1  0
  4 25  1  0
  4 26  1  0
  8 27  1  0
  8 28  1  0
  9 29  1  0
  9 30  1  0
 10 31  1  1
 11 32  1  0
 12 33  1  0
 12 34  1  0
 14 35  1  0
 15 36  1  0
 17 37  1  0
 20 38  1  0
 21 39  1  0
M  END
>  <smiles>  (43) 
O=C(NCC(=O)N1CC[C@H](O)C1)c1ccc2cc(F)ccc2n1

>  <score_type>  (43) 
oracle

>  <origin>  (43) 
autodockgpu

>  <m_score__min__energy>  (43) 
-7.7000000000000002

>  <m_primary>  (43) 
energy

>  <rmsd>  (43) 
3.8154288311325475

>  <m_score__min__rmsd>  (43) 
3.8154288311325475

>  <meeko>  (43) 
{"free_energy": -7.11, "intermolecular_energy": -8.61, "internal_energy": -0.84, "cluster_size": 35, "cluster_id": 1, "rank_in_cluster": 24}

>  <energy>  (43) 
-6.47

>  <cluster_rmsd>  (43) 
0.68

>  <cluster>  (43) 
2

$$$$

     RDKit          3D

 39 41  0  0  0  0  0  0  0  0999 V2000
  139.6370   70.9510  221.3540 O   0  0  0  0  0  0  0  0  0  0  0  0
  139.7140   71.5250  222.4910 C   0  0  0  0  0  0  0  0  0  0  0  0
  139.7390   72.9360  222.4800 N   0  0  0  0  0  0  0  0  0  0  0  0
  139.6780   73.6440  221.2250 C   0  0  0  0  0  0  0  0  0  0  0  0
  140.5860   74.7990  221.2650 C   0  0  0  0  0  0  0  0  0  0  0  0
  140.7290   75.4170  222.3450 O   0  0  0  0  0  0  0  0  0  0  0  0
  141.3160   75.2580  220.1420 N   0  0  0  0  0  0  0  0  0  0  0  0
  141.9680   74.3960  219.1750 C   0  0  0  0  0  0  0  0  0  0  0  0
  142.7750   75.3700  218.3070 C   0  0  0  0  0  0  0  0  0  0  0  0
  142.8940   76.6260  219.1760 C   0  0  2  0  0  0  0  0  0  0  0  0
  143.9010   76.4400  220.0920 O   0  0  0  0  0  0  0  0  0  0  0  0
  141.5160   76.6540  219.8000 C   0  0  0  0  0  0  0  0  0  0  0  0
  139.7740   70.7540  223.7280 C   0  0  0  0  0  0  0  0  0  0  0  0
  139.2240   69.4840  223.7420 C   0  0  0  0  0  0  0  0  0  0  0  0
  139.2390   68.6930  224.8710 C   0  0  0  0  0  0  0  0  0  0  0  0
  139.8210   69.1840  226.0160 C   0  0  0  0  0  0  0  0  0  0  0  0
  139.8460   68.4010  227.1600 C   0  0  0  0  0  0  0  0  0  0  0  0
  140.4310   68.8930  228.3140 C   0  0  0  0  0  0  0  0  0  0  0  0
  140.4720   68.1510  229.4560 F   0  0  0  0  0  0  0  0  0  0  0  0
  140.9630   70.1480  228.2650 C   0  0  0  0  0  0  0  0  0  0  0  0
  140.9460   70.9400  227.1300 C   0  0  0  0  0  0  0  0  0  0  0  0
  140.3570   70.4480  225.9670 C   0  0  0  0  0  0  0  0  0  0  0  0
  140.3320   71.2010  224.8560 N   0  0  0  0  0  0  0  0  0  0  0  0
  139.8010   73.4290  223.3870 H   0  0  0  0  0  0  0  0  0  0  0  0
  139.9790   72.9699  220.4096 H   0  0  0  0  0  0  0  0  0  0  0  0
  138.6495   73.9941  221.0531 H   0  0  0  0  0  0  0  0  0  0  0  0
  142.6309   73.6752  219.6760 H   0  0  0  0  0  0  0  0  0  0  0  0
  141.2558   73.7941  218.5915 H   0  0  0  0  0  0  0  0  0  0  0  0
  143.7685   74.9579  218.0766 H   0  0  0  0  0  0  0  0  0  0  0  0
  142.2971   75.5693  217.3365 H   0  0  0  0  0  0  0  0  0  0  0  0
  143.1501   77.5648  218.6630 H   0  0  0  0  0  0  0  0  0  0  0  0
  143.9170   77.1650  220.7740 H   0  0  0  0  0  0  0  0  0  0  0  0
  141.4948   77.2926  220.6954 H   0  0  0  0  0  0  0  0  0  0  0  0
  140.7375   77.0671  219.1418 H   0  0  0  0  0  0  0  0  0  0  0  0
  138.7606   69.0937  222.8239 H   0  0  0  0  0  0  0  0  0  0  0  0
  138.7935   67.6874  224.8562 H   0  0  0  0  0  0  0  0  0  0  0  0
  139.4032   67.3941  227.1506 H   0  0  0  0  0  0  0  0  0  0  0  0
  141.4301   70.5519  229.1753 H   0  0  0  0  0  0  0  0  0  0  0  0
  141.3920   71.9454  227.1459 H   0  0  0  0  0  0  0  0  0  0  0  0
  1  2  2  0
  2  3  1  0
  3  4  1  0
  4  5  1  0
  5  6  2  0
  5  7  1  0
  7  8  1  0
  8  9  1  0
  9 10  1  0
 10 11  1  0
 10 12  1  0
  2 13  1  0
 13 14  2  0
 14 15  1  0
 15 16  2  0
 16 17  1  0
 17 18  2  0
 18 19  1  0
 18 20  1  0
 20 21  2  0
 21 22  1  0
 22 23  2  0
 12  7  1  0
 23 13  1  0
 22 16  1  0
  3 24  1  0
  4 25  1  0
  4 26  1  0
  8 27  1  0
  8 28  1  0
  9 29  1  0
  9 30  1  0
 10 31  1  6
 11 32  1  0
 12 33  1  0
 12 34  1  0
 14 35  1  0
 15 36  1  0
 17 37  1  0
 20 38  1  0
 21 39  1  0
M  END
>  <smiles>  (44) 
O=C(NCC(=O)N1CC[C@H](O)C1)c1ccc2cc(F)ccc2n1

>  <score_type>  (44) 
oracle

>  <origin>  (44) 
autodockgpu

>  <m_score__min__energy>  (44) 
-7.7000000000000002

>  <m_primary>  (44) 
energy

>  <rmsd>  (44) 
1.928197134987563

>  <m_score__min__rmsd>  (44) 
1.928197134987563

>  <meeko>  (44) 
{"free_energy": -6.5, "intermolecular_energy": -7.99, "internal_energy": -1.17, "cluster_size": 10, "cluster_id": 2, "rank_in_cluster": 7}

>  <energy>  (44) 
-6.07

>  <cluster_rmsd>  (44) 
1.7

>  <cluster>  (44) 
2

$$$$

     RDKit          3D

 39 41  0  0  0  0  0  0  0  0999 V2000
  140.2310   73.6520  222.3300 O   0  0  0  0  0  0  0  0  0  0  0  0
  140.4690   72.3990  222.2890 C   0  0  0  0  0  0  0  0  0  0  0  0
  140.9120   71.8860  221.0510 N   0  0  0  0  0  0  0  0  0  0  0  0
  141.0720   72.7710  219.9240 C   0  0  0  0  0  0  0  0  0  0  0  0
  142.4040   72.5850  219.3340 C   0  0  0  0  0  0  0  0  0  0  0  0
  142.4920   72.1030  218.1810 O   0  0  0  0  0  0  0  0  0  0  0  0
  143.6080   72.9240  219.9990 N   0  0  0  0  0  0  0  0  0  0  0  0
  143.9920   74.2720  220.3700 C   0  0  0  0  0  0  0  0  0  0  0  0
  145.4390   74.1160  220.8570 C   0  0  0  0  0  0  0  0  0  0  0  0
  145.8920   72.7870  220.2450 C   0  0  2  0  0  0  0  0  0  0  0  0
  146.2420   72.9960  218.9330 O   0  0  0  0  0  0  0  0  0  0  0  0
  144.6270   71.9730  220.4020 C   0  0  0  0  0  0  0  0  0  0  0  0
  140.2870   71.5540  223.4640 C   0  0  0  0  0  0  0  0  0  0  0  0
  139.6410   70.3400  223.3110 C   0  0  0  0  0  0  0  0  0  0  0  0
  139.4290   69.4850  224.3720 C   0  0  0  0  0  0  0  0  0  0  0  0
  139.8770   69.8540  225.6190 C   0  0  0  0  0  0  0  0  0  0  0  0
  139.6730   69.0060  226.6970 C   0  0  0  0  0  0  0  0  0  0  0  0
  140.1230   69.3760  227.9530 C   0  0  0  0  0  0  0  0  0  0  0  0
  139.9390   68.5660  229.0340 F   0  0  0  0  0  0  0  0  0  0  0  0
  140.7560   70.5780  228.0670 C   0  0  0  0  0  0  0  0  0  0  0  0
  140.9660   71.4340  227.0000 C   0  0  0  0  0  0  0  0  0  0  0  0
  140.5150   71.0660  225.7350 C   0  0  0  0  0  0  0  0  0  0  0  0
  140.7100   71.8830  224.6870 N   0  0  0  0  0  0  0  0  0  0  0  0
  141.1120   70.8730  220.9880 H   0  0  0  0  0  0  0  0  0  0  0  0
  140.3034   72.5456  219.1701 H   0  0  0  0  0  0  0  0  0  0  0  0
  140.9648   73.8127  220.2607 H   0  0  0  0  0  0  0  0  0  0  0  0
  143.9403   74.9474  219.5033 H   0  0  0  0  0  0  0  0  0  0  0  0
  143.3303   74.7097  221.1319 H   0  0  0  0  0  0  0  0  0  0  0  0
  146.0647   74.9461  220.4972 H   0  0  0  0  0  0  0  0  0  0  0  0
  145.5212   74.1280  221.9539 H   0  0  0  0  0  0  0  0  0  0  0  0
  146.7710   72.3045  220.6974 H   0  0  0  0  0  0  0  0  0  0  0  0
  146.2580   73.9640  218.7050 H   0  0  0  0  0  0  0  0  0  0  0  0
  144.6342   71.0914  219.7442 H   0  0  0  0  0  0  0  0  0  0  0  0
  144.4817   71.5677  221.4142 H   0  0  0  0  0  0  0  0  0  0  0  0
  139.2855   70.0478  222.3119 H   0  0  0  0  0  0  0  0  0  0  0  0
  138.9113   68.5258  224.2238 H   0  0  0  0  0  0  0  0  0  0  0  0
  139.1568   68.0451  226.5551 H   0  0  0  0  0  0  0  0  0  0  0  0
  141.1190   70.8836  229.0594 H   0  0  0  0  0  0  0  0  0  0  0  0
  141.4829   72.3934  227.1494 H   0  0  0  0  0  0  0  0  0  0  0  0
  1  2  2  0
  2  3  1  0
  3  4  1  0
  4  5  1  0
  5  6  2  0
  5  7  1  0
  7  8  1  0
  8  9  1  0
  9 10  1  0
 10 11  1  0
 10 12  1  0
  2 13  1  0
 13 14  2  0
 14 15  1  0
 15 16  2  0
 16 17  1  0
 17 18  2  0
 18 19  1  0
 18 20  1  0
 20 21  2  0
 21 22  1  0
 22 23  2  0
 12  7  1  0
 23 13  1  0
 22 16  1  0
  3 24  1  0
  4 25  1  0
  4 26  1  0
  8 27  1  0
  8 28  1  0
  9 29  1  0
  9 30  1  0
 10 31  1  1
 11 32  1  0
 12 33  1  0
 12 34  1  0
 14 35  1  0
 15 36  1  0
 17 37  1  0
 20 38  1  0
 21 39  1  0
M  END
>  <smiles>  (45) 
O=C(NCC(=O)N1CC[C@H](O)C1)c1ccc2cc(F)ccc2n1

>  <score_type>  (45) 
oracle

>  <origin>  (45) 
autodockgpu

>  <m_score__min__energy>  (45) 
-7.7000000000000002

>  <m_primary>  (45) 
energy

>  <rmsd>  (45) 
3.91194377062816

>  <m_score__min__rmsd>  (45) 
3.91194377062816

>  <meeko>  (45) 
{"free_energy": -7.58, "intermolecular_energy": -9.07, "internal_energy": -0.8, "cluster_size": 35, "cluster_id": 1, "rank_in_cluster": 13}

>  <energy>  (45) 
-5.83

>  <cluster_rmsd>  (45) 
1.86

>  <cluster>  (45) 
2

$$$$

     RDKit          3D

 39 41  0  0  0  0  0  0  0  0999 V2000
  140.0100   73.6040  222.3480 O   0  0  0  0  0  0  0  0  0  0  0  0
  140.5600   72.4550  222.4140 C   0  0  0  0  0  0  0  0  0  0  0  0
  141.3540   72.0760  221.3110 N   0  0  0  0  0  0  0  0  0  0  0  0
  141.5050   72.9750  220.1940 C   0  0  0  0  0  0  0  0  0  0  0  0
  142.6860   73.8250  220.4000 C   0  0  0  0  0  0  0  0  0  0  0  0
  142.5330   75.0670  220.4560 O   0  0  0  0  0  0  0  0  0  0  0  0
  144.0000   73.3170  220.5420 N   0  0  0  0  0  0  0  0  0  0  0  0
  145.1200   74.0690  221.0750 C   0  0  0  0  0  0  0  0  0  0  0  0
  146.3250   73.1540  220.8180 C   0  0  0  0  0  0  0  0  0  0  0  0
  145.8380   72.2020  219.7220 C   0  0  2  0  0  0  0  0  0  0  0  0
  145.9270   72.8380  218.5070 O   0  0  0  0  0  0  0  0  0  0  0  0
  144.4130   71.9750  220.1740 C   0  0  0  0  0  0  0  0  0  0  0  0
  140.3680   71.5880  223.5720 C   0  0  0  0  0  0  0  0  0  0  0  0
  139.6930   70.3930  223.3980 C   0  0  0  0  0  0  0  0  0  0  0  0
  139.4700   69.5200  224.4420 C   0  0  0  0  0  0  0  0  0  0  0  0
  139.9360   69.8510  225.6930 C   0  0  0  0  0  0  0  0  0  0  0  0
  139.7210   68.9840  226.7540 C   0  0  0  0  0  0  0  0  0  0  0  0
  140.1880   69.3160  228.0140 C   0  0  0  0  0  0  0  0  0  0  0  0
  139.9940   68.4880  229.0780 F   0  0  0  0  0  0  0  0  0  0  0  0
  140.8490   70.5020  228.1490 C   0  0  0  0  0  0  0  0  0  0  0  0
  141.0700   71.3760  227.0990 C   0  0  0  0  0  0  0  0  0  0  0  0
  140.6010   71.0460  225.8290 C   0  0  0  0  0  0  0  0  0  0  0  0
  140.8070   71.8810  224.7990 N   0  0  0  0  0  0  0  0  0  0  0  0
  141.8120   71.1480  221.3360 H   0  0  0  0  0  0  0  0  0  0  0  0
  141.6305   72.3921  219.2696 H   0  0  0  0  0  0  0  0  0  0  0  0
  140.6095   73.6084  220.1119 H   0  0  0  0  0  0  0  0  0  0  0  0
  145.2355   75.0277  220.5481 H   0  0  0  0  0  0  0  0  0  0  0  0
  144.9962   74.3239  222.1379 H   0  0  0  0  0  0  0  0  0  0  0  0
  147.1921   73.7365  220.4734 H   0  0  0  0  0  0  0  0  0  0  0  0
  146.6559   72.6243  221.7235 H   0  0  0  0  0  0  0  0  0  0  0  0
  146.3992   71.2650  219.5911 H   0  0  0  0  0  0  0  0  0  0  0  0
  146.0320   73.8220  218.6120 H   0  0  0  0  0  0  0  0  0  0  0  0
  143.7931   71.5749  219.3581 H   0  0  0  0  0  0  0  0  0  0  0  0
  144.3155   71.2406  220.9871 H   0  0  0  0  0  0  0  0  0  0  0  0
  139.3227   70.1311  222.3959 H   0  0  0  0  0  0  0  0  0  0  0  0
  138.9294   68.5763  224.2773 H   0  0  0  0  0  0  0  0  0  0  0  0
  139.1825   68.0381  226.5951 H   0  0  0  0  0  0  0  0  0  0  0  0
  141.2261   70.7780  229.1448 H   0  0  0  0  0  0  0  0  0  0  0  0
  141.6096   72.3201  227.2650 H   0  0  0  0  0  0  0  0  0  0  0  0
  1  2  2  0
  2  3  1  0
  3  4  1  0
  4  5  1  0
  5  6  2  0
  5  7  1  0
  7  8  1  0
  8  9  1  0
  9 10  1  0
 10 11  1  0
 10 12  1  0
  2 13  1  0
 13 14  2  0
 14 15  1  0
 15 16  2  0
 16 17  1  0
 17 18  2  0
 18 19  1  0
 18 20  1  0
 20 21  2  0
 21 22  1  0
 22 23  2  0
 12  7  1  0
 23 13  1  0
 22 16  1  0
  3 24  1  0
  4 25  1  0
  4 26  1  0
  8 27  1  0
  8 28  1  0
  9 29  1  0
  9 30  1  0
 10 31  1  6
 11 32  1  0
 12 33  1  0
 12 34  1  0
 14 35  1  0
 15 36  1  0
 17 37  1  0
 20 38  1  0
 21 39  1  0
M  END
>  <smiles>  (46) 
O=C(NCC(=O)N1CC[C@H](O)C1)c1ccc2cc(F)ccc2n1

>  <score_type>  (46) 
oracle

>  <origin>  (46) 
autodockgpu

>  <m_score__min__energy>  (46) 
-7.7000000000000002

>  <m_primary>  (46) 
energy

>  <rmsd>  (46) 
4.0720616504250104

>  <m_score__min__rmsd>  (46) 
4.0720616504250104

>  <meeko>  (46) 
{"free_energy": -7.53, "intermolecular_energy": -9.02, "internal_energy": -0.79, "cluster_size": 35, "cluster_id": 1, "rank_in_cluster": 16}

>  <energy>  (46) 
-6.12

>  <cluster_rmsd>  (46) 
0.0

>  <cluster>  (46) 
3

$$$$

     RDKit          3D

 39 41  0  0  0  0  0  0  0  0999 V2000
  140.3620   73.6330  222.3070 O   0  0  0  0  0  0  0  0  0  0  0  0
  140.4170   72.3600  222.2410 C   0  0  0  0  0  0  0  0  0  0  0  0
  140.6380   71.8070  220.9620 N   0  0  0  0  0  0  0  0  0  0  0  0
  140.7870   72.6780  219.8220 C   0  0  0  0  0  0  0  0  0  0  0  0
  142.1320   72.5180  219.2510 C   0  0  0  0  0  0  0  0  0  0  0  0
  142.2460   72.0280  218.1040 O   0  0  0  0  0  0  0  0  0  0  0  0
  143.3180   72.8920  219.9280 N   0  0  0  0  0  0  0  0  0  0  0  0
  143.7280   74.2610  220.1780 C   0  0  0  0  0  0  0  0  0  0  0  0
  145.1490   74.1170  220.7380 C   0  0  0  0  0  0  0  0  0  0  0  0
  145.5850   72.7220  220.2820 C   0  0  2  0  0  0  0  0  0  0  0  0
  145.9930   72.7870  218.9710 O   0  0  0  0  0  0  0  0  0  0  0  0
  144.2910   71.9600  220.4670 C   0  0  0  0  0  0  0  0  0  0  0  0
  140.2580   71.5320  223.4320 C   0  0  0  0  0  0  0  0  0  0  0  0
  139.6050   70.3180  223.3090 C   0  0  0  0  0  0  0  0  0  0  0  0
  139.4130   69.4790  224.3860 C   0  0  0  0  0  0  0  0  0  0  0  0
  139.8870   69.8640  225.6190 C   0  0  0  0  0  0  0  0  0  0  0  0
  139.7030   69.0320  226.7130 C   0  0  0  0  0  0  0  0  0  0  0  0
  140.1790   69.4180  227.9540 C   0  0  0  0  0  0  0  0  0  0  0  0
  140.0150   68.6250  229.0490 F   0  0  0  0  0  0  0  0  0  0  0  0
  140.8160   70.6210  228.0380 C   0  0  0  0  0  0  0  0  0  0  0  0
  141.0070   71.4610  226.9550 C   0  0  0  0  0  0  0  0  0  0  0  0
  140.5290   71.0760  225.7040 C   0  0  0  0  0  0  0  0  0  0  0  0
  140.7050   71.8770  224.6420 N   0  0  0  0  0  0  0  0  0  0  0  0
  140.6870   70.7780  220.8780 H   0  0  0  0  0  0  0  0  0  0  0  0
  140.0340   72.4194  219.0630 H   0  0  0  0  0  0  0  0  0  0  0  0
  140.6469   73.7219  220.1393 H   0  0  0  0  0  0  0  0  0  0  0  0
  143.7306   74.8462  219.2466 H   0  0  0  0  0  0  0  0  0  0  0  0
  143.0506   74.7910  220.8637 H   0  0  0  0  0  0  0  0  0  0  0  0
  145.8132   74.8896  220.3234 H   0  0  0  0  0  0  0  0  0  0  0  0
  145.1886   74.2377  221.8306 H   0  0  0  0  0  0  0  0  0  0  0  0
  146.4308   72.2658  220.8173 H   0  0  0  0  0  0  0  0  0  0  0  0
  145.2230   72.8940  218.3500 H   0  0  0  0  0  0  0  0  0  0  0  0
  144.2976   71.0163  219.9018 H   0  0  0  0  0  0  0  0  0  0  0  0
  144.0941   71.6626  221.5075 H   0  0  0  0  0  0  0  0  0  0  0  0
  139.2276   70.0132  222.3217 H   0  0  0  0  0  0  0  0  0  0  0  0
  138.8903   68.5191  224.2618 H   0  0  0  0  0  0  0  0  0  0  0  0
  139.1817   68.0706  226.5952 H   0  0  0  0  0  0  0  0  0  0  0  0
  141.1982   70.9405  229.0187 H   0  0  0  0  0  0  0  0  0  0  0  0
  141.5297   72.4208  227.0801 H   0  0  0  0  0  0  0  0  0  0  0  0
  1  2  2  0
  2  3  1  0
  3  4  1  0
  4  5  1  0
  5  6  2  0
  5  7  1  0
  7  8  1  0
  8  9  1  0
  9 10  1  0
 10 11  1  0
 10 12  1  0
  2 13  1  0
 13 14  2  0
 14 15  1  0
 15 16  2  0
 16 17  1  0
 17 18  2  0
 18 19  1  0
 18 20  1  0
 20 21  2  0
 21 22  1  0
 22 23  2  0
 12  7  1  0
 23 13  1  0
 22 16  1  0
  3 24  1  0
  4 25  1  0
  4 26  1  0
  8 27  1  0
  8 28  1  0
  9 29  1  0
  9 30  1  0
 10 31  1  1
 11 32  1  0
 12 33  1  0
 12 34  1  0
 14 35  1  0
 15 36  1  0
 17 37  1  0
 20 38  1  0
 21 39  1  0
M  END
>  <smiles>  (47) 
O=C(NCC(=O)N1CC[C@H](O)C1)c1ccc2cc(F)ccc2n1

>  <score_type>  (47) 
oracle

>  <origin>  (47) 
autodockgpu

>  <m_score__min__energy>  (47) 
-7.7000000000000002

>  <m_primary>  (47) 
energy

>  <rmsd>  (47) 
3.775028958984546

>  <m_score__min__rmsd>  (47) 
3.775028958984546

>  <meeko>  (47) 
{"free_energy": -6.91, "intermolecular_energy": -8.41, "internal_energy": -0.93, "cluster_size": 35, "cluster_id": 1, "rank_in_cluster": 26}

>  <energy>  (47) 
-6.06

>  <cluster_rmsd>  (47) 
0.17

>  <cluster>  (47) 
3

$$$$

     RDKit          3D

 39 41  0  0  0  0  0  0  0  0999 V2000
  140.1540   72.9610  222.6760 O   0  0  0  0  0  0  0  0  0  0  0  0
  140.0080   71.7070  222.8650 C   0  0  0  0  0  0  0  0  0  0  0  0
  139.5900   70.9510  221.7500 N   0  0  0  0  0  0  0  0  0  0  0  0
  139.3540   71.6060  220.4870 C   0  0  0  0  0  0  0  0  0  0  0  0
  138.2230   72.5350  220.6160 C   0  0  0  0  0  0  0  0  0  0  0  0
  137.0630   72.0680  220.6870 O   0  0  0  0  0  0  0  0  0  0  0  0
  138.3690   73.9430  220.6670 N   0  0  0  0  0  0  0  0  0  0  0  0
  139.3250   74.7010  219.8820 C   0  0  0  0  0  0  0  0  0  0  0  0
  139.2210   76.1200  220.4560 C   0  0  0  0  0  0  0  0  0  0  0  0
  138.5860   75.9150  221.8340 C   0  0  2  0  0  0  0  0  0  0  0  0
  139.5570   75.5120  222.7180 O   0  0  0  0  0  0  0  0  0  0  0  0
  137.5850   74.8270  221.5100 C   0  0  0  0  0  0  0  0  0  0  0  0
  140.2620   71.1020  224.1680 C   0  0  0  0  0  0  0  0  0  0  0  0
  140.7900   71.8930  225.1720 C   0  0  0  0  0  0  0  0  0  0  0  0
  141.0590   71.3950  226.4300 C   0  0  0  0  0  0  0  0  0  0  0  0
  140.7910   70.0710  226.6890 C   0  0  0  0  0  0  0  0  0  0  0  0
  141.0560   69.5550  227.9490 C   0  0  0  0  0  0  0  0  0  0  0  0
  140.7870   68.2220  228.2120 C   0  0  0  0  0  0  0  0  0  0  0  0
  141.0350   67.6830  229.4380 F   0  0  0  0  0  0  0  0  0  0  0  0
  140.2670   67.4720  227.1990 C   0  0  0  0  0  0  0  0  0  0  0  0
  139.9980   67.9750  225.9380 C   0  0  0  0  0  0  0  0  0  0  0  0
  140.2670   69.3150  225.6690 C   0  0  0  0  0  0  0  0  0  0  0  0
  140.0130   69.8200  224.4510 N   0  0  0  0  0  0  0  0  0  0  0  0
  139.4620   69.9320  221.8730 H   0  0  0  0  0  0  0  0  0  0  0  0
  140.2542   72.1644  220.1906 H   0  0  0  0  0  0  0  0  0  0  0  0
  139.1202   70.8506  219.7224 H   0  0  0  0  0  0  0  0  0  0  0  0
  140.3417   74.3003  220.0078 H   0  0  0  0  0  0  0  0  0  0  0  0
  139.1179   74.6610  218.8024 H   0  0  0  0  0  0  0  0  0  0  0  0
  140.2165   76.5786  220.5483 H   0  0  0  0  0  0  0  0  0  0  0  0
  138.6344   76.7946  219.8150 H   0  0  0  0  0  0  0  0  0  0  0  0
  138.1247   76.7953  222.3056 H   0  0  0  0  0  0  0  0  0  0  0  0
  139.3520   74.6220  223.1120 H   0  0  0  0  0  0  0  0  0  0  0  0
  137.2434   74.3131  222.4206 H   0  0  0  0  0  0  0  0  0  0  0  0
  136.6647   75.1961  221.0337 H   0  0  0  0  0  0  0  0  0  0  0  0
  141.0019   72.9516  224.9610 H   0  0  0  0  0  0  0  0  0  0  0  0
  141.4800   72.0446  227.2115 H   0  0  0  0  0  0  0  0  0  0  0  0
  141.4770   70.2002  228.7342 H   0  0  0  0  0  0  0  0  0  0  0  0
  140.0499   66.4115  227.3942 H   0  0  0  0  0  0  0  0  0  0  0  0
  139.5768   67.3243  225.1575 H   0  0  0  0  0  0  0  0  0  0  0  0
  1  2  2  0
  2  3  1  0
  3  4  1  0
  4  5  1  0
  5  6  2  0
  5  7  1  0
  7  8  1  0
  8  9  1  0
  9 10  1  0
 10 11  1  0
 10 12  1  0
  2 13  1  0
 13 14  2  0
 14 15  1  0
 15 16  2  0
 16 17  1  0
 17 18  2  0
 18 19  1  0
 18 20  1  0
 20 21  2  0
 21 22  1  0
 22 23  2  0
 12  7  1  0
 23 13  1  0
 22 16  1  0
  3 24  1  0
  4 25  1  0
  4 26  1  0
  8 27  1  0
  8 28  1  0
  9 29  1  0
  9 30  1  0
 10 31  1  1
 11 32  1  0
 12 33  1  0
 12 34  1  0
 14 35  1  0
 15 36  1  0
 17 37  1  0
 20 38  1  0
 21 39  1  0
M  END
>  <smiles>  (48) 
O=C(NCC(=O)N1CC[C@H](O)C1)c1ccc2cc(F)ccc2n1

>  <score_type>  (48) 
oracle

>  <origin>  (48) 
autodockgpu

>  <m_score__min__energy>  (48) 
-7.7000000000000002

>  <m_primary>  (48) 
energy

>  <rmsd>  (48) 
3.4103478577870776

>  <m_score__min__rmsd>  (48) 
3.4103478577870776

>  <meeko>  (48) 
{"free_energy": -5.83, "intermolecular_energy": -7.33, "internal_energy": -1.8, "cluster_size": 10, "cluster_id": 2, "rank_in_cluster": 10}

>  <energy>  (48) 
-5.99

>  <cluster_rmsd>  (48) 
1.36

>  <cluster>  (48) 
3

$$$$

     RDKit          3D

 39 41  0  0  0  0  0  0  0  0999 V2000
  138.2160   75.7270  222.7350 O   0  0  0  0  0  0  0  0  0  0  0  0
  139.3050   76.1710  222.2400 C   0  0  0  0  0  0  0  0  0  0  0  0
  139.4560   77.5740  222.2180 N   0  0  0  0  0  0  0  0  0  0  0  0
  138.4070   78.4160  222.7380 C   0  0  0  0  0  0  0  0  0  0  0  0
  138.9950   79.5960  223.3850 C   0  0  0  0  0  0  0  0  0  0  0  0
  138.2480   80.3640  224.0340 O   0  0  0  0  0  0  0  0  0  0  0  0
  140.3720   79.9200  223.3170 N   0  0  0  0  0  0  0  0  0  0  0  0
  140.9120   81.0850  222.6420 C   0  0  0  0  0  0  0  0  0  0  0  0
  142.4290   80.8570  222.6830 C   0  0  0  0  0  0  0  0  0  0  0  0
  142.5680   79.3530  222.9320 C   0  0  2  0  0  0  0  0  0  0  0  0
  142.3920   78.6850  221.7440 O   0  0  0  0  0  0  0  0  0  0  0  0
  141.4370   79.1350  223.9130 C   0  0  0  0  0  0  0  0  0  0  0  0
  140.3300   75.2680  221.7290 C   0  0  0  0  0  0  0  0  0  0  0  0
  140.1290   73.9040  221.8480 C   0  0  0  0  0  0  0  0  0  0  0  0
  141.0500   72.9860  221.3910 C   0  0  0  0  0  0  0  0  0  0  0  0
  142.2040   73.4440  220.7980 C   0  0  0  0  0  0  0  0  0  0  0  0
  143.1410   72.5340  220.3320 C   0  0  0  0  0  0  0  0  0  0  0  0
  144.3020   72.9930  219.7350 C   0  0  0  0  0  0  0  0  0  0  0  0
  145.2440   72.1270  219.2670 F   0  0  0  0  0  0  0  0  0  0  0  0
  144.4690   74.3430  219.6340 C   0  0  0  0  0  0  0  0  0  0  0  0
  143.5420   75.2620  220.0950 C   0  0  0  0  0  0  0  0  0  0  0  0
  142.3710   74.8040  220.6970 C   0  0  0  0  0  0  0  0  0  0  0  0
  141.4610   75.6810  221.1490 N   0  0  0  0  0  0  0  0  0  0  0  0
  140.3290   77.9640  221.8230 H   0  0  0  0  0  0  0  0  0  0  0  0
  137.7541   78.7383  221.9134 H   0  0  0  0  0  0  0  0  0  0  0  0
  137.8183   77.8512  223.4759 H   0  0  0  0  0  0  0  0  0  0  0  0
  140.5513   81.1397  221.6043 H   0  0  0  0  0  0  0  0  0  0  0  0
  140.6096   82.0308  223.1153 H   0  0  0  0  0  0  0  0  0  0  0  0
  142.8934   81.1401  221.7269 H   0  0  0  0  0  0  0  0  0  0  0  0
  142.9286   81.4628  223.4534 H   0  0  0  0  0  0  0  0  0  0  0  0
  143.5378   78.9994  223.3121 H   0  0  0  0  0  0  0  0  0  0  0  0
  142.2590   77.7100  221.8850 H   0  0  0  0  0  0  0  0  0  0  0  0
  141.1626   78.0718  223.9782 H   0  0  0  0  0  0  0  0  0  0  0  0
  141.6805   79.4257  224.9456 H   0  0  0  0  0  0  0  0  0  0  0  0
  139.2052   73.5410  222.3222 H   0  0  0  0  0  0  0  0  0  0  0  0
  140.8658   71.9069  221.4984 H   0  0  0  0  0  0  0  0  0  0  0  0
  142.9624   71.4536  220.4363 H   0  0  0  0  0  0  0  0  0  0  0  0
  145.3878   74.7210  219.1618 H   0  0  0  0  0  0  0  0  0  0  0  0
  143.7272   76.3410  219.9876 H   0  0  0  0  0  0  0  0  0  0  0  0
  1  2  2  0
  2  3  1  0
  3  4  1  0
  4  5  1  0
  5  6  2  0
  5  7  1  0
  7  8  1  0
  8  9  1  0
  9 10  1  0
 10 11  1  0
 10 12  1  0
  2 13  1  0
 13 14  2  0
 14 15  1  0
 15 16  2  0
 16 17  1  0
 17 18  2  0
 18 19  1  0
 18 20  1  0
 20 21  2  0
 21 22  1  0
 22 23  2  0
 12  7  1  0
 23 13  1  0
 22 16  1  0
  3 24  1  0
  4 25  1  0
  4 26  1  0
  8 27  1  0
  8 28  1  0
  9 29  1  0
  9 30  1  0
 10 31  1  1
 11 32  1  0
 12 33  1  0
 12 34  1  0
 14 35  1  0
 15 36  1  0
 17 37  1  0
 20 38  1  0
 21 39  1  0
M  END
>  <smiles>  (49) 
O=C(NCC(=O)N1CC[C@H](O)C1)c1ccc2cc(F)ccc2n1

>  <score_type>  (49) 
oracle

>  <origin>  (49) 
autodockgpu

>  <m_score__min__energy>  (49) 
-7.7000000000000002

>  <m_primary>  (49) 
energy

>  <rmsd>  (49) 
6.866990476493622

>  <m_score__min__rmsd>  (49) 
6.866990476493622

>  <meeko>  (49) 
{"free_energy": -5.23, "intermolecular_energy": -6.72, "internal_energy": -2.38, "cluster_size": 2, "cluster_id": 4, "rank_in_cluster": 1}

>  <energy>  (49) 
-5.23

>  <cluster_rmsd>  (49) 
0.0

>  <cluster>  (49) 
4

$$$$

     RDKit          3D

 39 41  0  0  0  0  0  0  0  0999 V2000
  140.0140   73.6180  222.3420 O   0  0  0  0  0  0  0  0  0  0  0  0
  140.5530   72.4630  222.4010 C   0  0  0  0  0  0  0  0  0  0  0  0
  141.3320   72.0780  221.2880 N   0  0  0  0  0  0  0  0  0  0  0  0
  141.4790   72.9780  220.1710 C   0  0  0  0  0  0  0  0  0  0  0  0
  142.6550   73.8350  220.3790 C   0  0  0  0  0  0  0  0  0  0  0  0
  142.4950   75.0760  220.4330 O   0  0  0  0  0  0  0  0  0  0  0  0
  143.9710   73.3340  220.5230 N   0  0  0  0  0  0  0  0  0  0  0  0
  145.0880   74.0940  221.0530 C   0  0  0  0  0  0  0  0  0  0  0  0
  146.2970   73.1840  220.8010 C   0  0  0  0  0  0  0  0  0  0  0  0
  145.8150   72.2250  219.7090 C   0  0  2  0  0  0  0  0  0  0  0  0
  145.9010   72.8560  218.4910 O   0  0  0  0  0  0  0  0  0  0  0  0
  144.3910   71.9930  220.1620 C   0  0  0  0  0  0  0  0  0  0  0  0
  140.3660   71.5960  223.5590 C   0  0  0  0  0  0  0  0  0  0  0  0
  139.7080   70.3920  223.3830 C   0  0  0  0  0  0  0  0  0  0  0  0
  139.4900   69.5180  224.4280 C   0  0  0  0  0  0  0  0  0  0  0  0
  139.9430   69.8590  225.6810 C   0  0  0  0  0  0  0  0  0  0  0  0
  139.7330   68.9910  226.7420 C   0  0  0  0  0  0  0  0  0  0  0  0
  140.1880   69.3320  228.0050 C   0  0  0  0  0  0  0  0  0  0  0  0
  139.9980   68.5030  229.0700 F   0  0  0  0  0  0  0  0  0  0  0  0
  140.8310   70.5260  228.1420 C   0  0  0  0  0  0  0  0  0  0  0  0
  141.0480   71.4020  227.0910 C   0  0  0  0  0  0  0  0  0  0  0  0
  140.5910   71.0630  225.8190 C   0  0  0  0  0  0  0  0  0  0  0  0
  140.7930   71.8980  224.7880 N   0  0  0  0  0  0  0  0  0  0  0  0
  141.7800   71.1470  221.3070 H   0  0  0  0  0  0  0  0  0  0  0  0
  141.6092   72.3960  219.2467 H   0  0  0  0  0  0  0  0  0  0  0  0
  140.5798   73.6060  220.0874 H   0  0  0  0  0  0  0  0  0  0  0  0
  145.1992   75.0507  220.5216 H   0  0  0  0  0  0  0  0  0  0  0  0
  144.9626   74.3532  222.1147 H   0  0  0  0  0  0  0  0  0  0  0  0
  147.1616   73.7690  220.4543 H   0  0  0  0  0  0  0  0  0  0  0  0
  146.6300   72.6599  221.7090 H   0  0  0  0  0  0  0  0  0  0  0  0
  146.3809   71.2903  219.5821 H   0  0  0  0  0  0  0  0  0  0  0  0
  145.9830   73.8420  218.5910 H   0  0  0  0  0  0  0  0  0  0  0  0
  143.7733   71.5855  219.3481 H   0  0  0  0  0  0  0  0  0  0  0  0
  144.2973   71.2623  220.9789 H   0  0  0  0  0  0  0  0  0  0  0  0
  139.3475   70.1232  222.3791 H   0  0  0  0  0  0  0  0  0  0  0  0
  138.9638   68.5664  224.2621 H   0  0  0  0  0  0  0  0  0  0  0  0
  139.2083   68.0376  226.5815 H   0  0  0  0  0  0  0  0  0  0  0  0
  141.1970   70.8090  229.1400 H   0  0  0  0  0  0  0  0  0  0  0  0
  141.5744   72.3532  227.2585 H   0  0  0  0  0  0  0  0  0  0  0  0
  1  2  2  0
  2  3  1  0
  3  4  1  0
  4  5  1  0
  5  6  2  0
  5  7  1  0
  7  8  1  0
  8  9  1  0
  9 10  1  0
 10 11  1  0
 10 12  1  0
  2 13  1  0
 13 14  2  0
 14 15  1  0
 15 16  2  0
 16 17  1  0
 17 18  2  0
 18 19  1  0
 18 20  1  0
 20 21  2  0
 21 22  1  0
 22 23  2  0
 12  7  1  0
 23 13  1  0
 22 16  1  0
  3 24  1  0
  4 25  1  0
  4 26  1  0
  8 27  1  0
  8 28  1  0
  9 29  1  0
  9 30  1  0
 10 31  1  6
 11 32  1  0
 12 33  1  0
 12 34  1  0
 14 35  1  0
 15 36  1  0
 17 37  1  0
 20 38  1  0
 21 39  1  0
M  END
>  <smiles>  (50) 
O=C(NCC(=O)N1CC[C@H](O)C1)c1ccc2cc(F)ccc2n1

>  <score_type>  (50) 
oracle

>  <origin>  (50) 
autodockgpu

>  <m_score__min__energy>  (50) 
-7.7000000000000002

>  <m_primary>  (50) 
energy

>  <rmsd>  (50) 
4.051157479221195

>  <m_score__min__rmsd>  (50) 
4.051157479221195

>  <meeko>  (50) 
{"free_energy": -7.52, "intermolecular_energy": -9.01, "internal_energy": -0.79, "cluster_size": 35, "cluster_id": 1, "rank_in_cluster": 17}

>  <energy>  (50) 
-5.18

>  <cluster_rmsd>  (50) 
0.22

>  <cluster>  (50) 
4

$$$$
