
     RDKit          3D

 51 54  0  0  0  0  0  0  0  0999 V2000
  137.6450   71.9730  221.8730 O   0  0  0  0  0  0  0  0  0  0  0  0
  138.7180   72.0820  222.4830 C   0  0  0  0  0  0  0  0  0  0  0  0
  139.6150   73.1420  222.1700 N   0  0  0  0  0  0  0  0  0  0  0  0
  139.2720   74.0950  221.1370 C   0  0  0  0  0  0  0  0  0  0  0  0
  140.5400   74.5330  220.4980 C   0  0  0  0  0  0  0  0  0  0  0  0
  141.1650   73.6680  219.8220 O   0  0  0  0  0  0  0  0  0  0  0  0
  141.0080   75.8670  220.6540 N   0  0  0  0  0  0  0  0  0  0  0  0
  142.1800   76.5140  220.1220 C   0  0  0  0  0  0  0  0  0  0  0  0
  141.8350   77.9950  220.0310 C   0  0  0  0  0  0  0  0  0  0  0  0
  140.3760   78.0550  220.4810 C   0  0  0  0  0  0  0  0  0  0  0  0
  140.3240   76.8850  221.4410 C   0  0  2  0  0  0  0  0  0  0  0  0
  141.0650   77.1690  222.7230 C   0  0  0  0  0  0  0  0  0  0  0  0
  141.1650   78.6130  223.0220 C   0  0  0  0  0  0  0  0  0  0  0  0
  140.0530   79.3940  223.2960 C   0  0  0  0  0  0  0  0  0  0  0  0
  140.1450   80.7460  223.5760 C   0  0  0  0  0  0  0  0  0  0  0  0
  141.4340   81.2840  223.5670 C   0  0  0  0  0  0  0  0  0  0  0  0
  142.5420   80.5340  223.3010 C   0  0  0  0  0  0  0  0  0  0  0  0
  142.4220   79.1850  223.0240 C   0  0  0  0  0  0  0  0  0  0  0  0
  139.0930   71.1350  223.5320 C   0  0  0  0  0  0  0  0  0  0  0  0
  138.8250   69.7870  223.3950 C   0  0  0  0  0  0  0  0  0  0  0  0
  139.1920   68.8960  224.4100 C   0  0  0  0  0  0  0  0  0  0  0  0
  139.8230   69.3790  225.5500 C   0  0  0  0  0  0  0  0  0  0  0  0
  140.2110   68.5590  226.5890 C   0  0  0  0  0  0  0  0  0  0  0  0
  140.8410   69.1090  227.7040 C   0  0  0  0  0  0  0  0  0  0  0  0
  141.3550   68.1200  229.0530 Cl  0  0  0  0  0  0  0  0  0  0  0  0
  141.0820   70.4680  227.7860 C   0  0  0  0  0  0  0  0  0  0  0  0
  140.6960   71.3040  226.7460 C   0  0  0  0  0  0  0  0  0  0  0  0
  140.0720   70.7320  225.6480 C   0  0  0  0  0  0  0  0  0  0  0  0
  139.7090   71.5520  224.6620 N   0  0  0  0  0  0  0  0  0  0  0  0
  140.5240   73.1960  222.7190 H   0  0  0  0  0  0  0  0  0  0  0  0
  138.6186   73.6208  220.3898 H   0  0  0  0  0  0  0  0  0  0  0  0
  138.7352   74.9547  221.5644 H   0  0  0  0  0  0  0  0  0  0  0  0
  143.0386   76.3617  220.7925 H   0  0  0  0  0  0  0  0  0  0  0  0
  142.4572   76.1031  219.1400 H   0  0  0  0  0  0  0  0  0  0  0  0
  142.4763   78.5889  220.6988 H   0  0  0  0  0  0  0  0  0  0  0  0
  141.9875   78.4072  219.0226 H   0  0  0  0  0  0  0  0  0  0  0  0
  140.1478   79.0043  220.9877 H   0  0  0  0  0  0  0  0  0  0  0  0
  139.6450   78.0026  219.6607 H   0  0  0  0  0  0  0  0  0  0  0  0
  139.3094   76.6175  221.7710 H   0  0  0  0  0  0  0  0  0  0  0  0
  140.5357   76.6750  223.5511 H   0  0  0  0  0  0  0  0  0  0  0  0
  142.0889   76.7849  222.6044 H   0  0  0  0  0  0  0  0  0  0  0  0
  139.0599   78.9211  223.2907 H   0  0  0  0  0  0  0  0  0  0  0  0
  139.2578   81.3592  223.7923 H   0  0  0  0  0  0  0  0  0  0  0  0
  141.5607   82.3551  223.7830 H   0  0  0  0  0  0  0  0  0  0  0  0
  143.5360   81.0051  223.3069 H   0  0  0  0  0  0  0  0  0  0  0  0
  143.3131   78.5771  222.8087 H   0  0  0  0  0  0  0  0  0  0  0  0
  138.3239   69.4143  222.4895 H   0  0  0  0  0  0  0  0  0  0  0  0
  138.9825   67.8212  224.3061 H   0  0  0  0  0  0  0  0  0  0  0  0
  140.0241   67.4762  226.5379 H   0  0  0  0  0  0  0  0  0  0  0  0
  141.5788   70.8866  228.6737 H   0  0  0  0  0  0  0  0  0  0  0  0
  140.8799   72.3875  226.7922 H   0  0  0  0  0  0  0  0  0  0  0  0
  1  2  2  0
  2  3  1  0
  3  4  1  0
  4  5  1  0
  5  6  2  0
  5  7  1  0
  7  8  1  0
  8  9  1  0
  9 10  1  0
 10 11  1  0
 11 12  1  0
 12 13  1  0
 13 14  2  0
 14 15  1  0
 15 16  2  0
 16 17  1  0
 17 18  2  0
  2 19  1  0
 19 20  2  0
 20 21  1  0
 21 22  2  0
 22 23  1  0
 23 24  2  0
 24 25  1  0
 24 26  1  0
 26 27  2  0
 27 28  1  0
 28 29  2  0
 11  7  1  0
 18 13  1  0
 29 19  1  0
 28 22  1  0
  3 30  1  0
  4 31  1  0
  4 32  1  0
  8 33  1  0
  8 34  1  0
  9 35  1  0
  9 36  1  0
 10 37  1  0
 10 38  1  0
 11 39  1  1
 12 40  1  0
 12 41  1  0
 14 42  1  0
 15 43  1  0
 16 44  1  0
 17 45  1  0
 18 46  1  0
 20 47  1  0
 21 48  1  0
 23 49  1  0
 26 50  1  0
 27 51  1  0
M  END
>  <smiles>  (1) 
O=C(NCC(=O)N1CCCC1Cc1ccccc1)c1ccc2cc(Cl)ccc2n1

>  <score_type>  (1) 
oracle

>  <origin>  (1) 
autodockgpu

>  <m_score__min__energy>  (1) 
-8.8599999999999994

>  <m_primary>  (1) 
energy

>  <rmsd>  (1) 
2.115325320493917

>  <m_score__min__rmsd>  (1) 
2.115325320493917

>  <meeko>  (1) 
{"free_energy": -8.34, "intermolecular_energy": -10.13, "internal_energy": -1.35, "cluster_size": 24, "cluster_id": 1, "rank_in_cluster": 15}

>  <energy>  (1) 
-8.86

>  <cluster_rmsd>  (1) 
0.0

>  <cluster>  (1) 
1

$$$$

     RDKit          3D

 51 54  0  0  0  0  0  0  0  0999 V2000
  136.3790   75.1840  221.5400 O   0  0  0  0  0  0  0  0  0  0  0  0
  137.5110   75.2630  222.0380 C   0  0  0  0  0  0  0  0  0  0  0  0
  138.2540   74.0820  222.3160 N   0  0  0  0  0  0  0  0  0  0  0  0
  137.6860   72.7850  222.0160 C   0  0  0  0  0  0  0  0  0  0  0  0
  138.6990   71.7610  222.3800 C   0  0  0  0  0  0  0  0  0  0  0  0
  139.9100   72.1120  222.3170 O   0  0  0  0  0  0  0  0  0  0  0  0
  138.3010   70.4550  222.7760 N   0  0  0  0  0  0  0  0  0  0  0  0
  137.0700   69.7430  222.5440 C   0  0  0  0  0  0  0  0  0  0  0  0
  137.4310   68.2630  222.5720 C   0  0  0  0  0  0  0  0  0  0  0  0
  138.9470   68.2640  222.7590 C   0  0  0  0  0  0  0  0  0  0  0  0
  139.1390   69.5430  223.5460 C   0  0  2  0  0  0  0  0  0  0  0  0
  138.6420   69.4170  224.9640 C   0  0  0  0  0  0  0  0  0  0  0  0
  139.5100   70.1080  225.9410 C   0  0  0  0  0  0  0  0  0  0  0  0
  140.2720   71.2160  225.6050 C   0  0  0  0  0  0  0  0  0  0  0  0
  141.0850   71.8640  226.5190 C   0  0  0  0  0  0  0  0  0  0  0  0
  141.0940   71.3310  227.8110 C   0  0  0  0  0  0  0  0  0  0  0  0
  140.3520   70.2420  228.1620 C   0  0  0  0  0  0  0  0  0  0  0  0
  139.5480   69.6140  227.2290 C   0  0  0  0  0  0  0  0  0  0  0  0
  138.1120   76.5580  222.3520 C   0  0  0  0  0  0  0  0  0  0  0  0
  137.3350   77.6980  222.4210 C   0  0  0  0  0  0  0  0  0  0  0  0
  137.9290   78.9290  222.7240 C   0  0  0  0  0  0  0  0  0  0  0  0
  139.2990   78.9910  222.9510 C   0  0  0  0  0  0  0  0  0  0  0  0
  139.9500   80.1690  223.2540 C   0  0  0  0  0  0  0  0  0  0  0  0
  141.3270   80.1600  223.4710 C   0  0  0  0  0  0  0  0  0  0  0  0
  142.2070   81.6230  223.8580 Cl  0  0  0  0  0  0  0  0  0  0  0  0
  142.0520   78.9870  223.3880 C   0  0  0  0  0  0  0  0  0  0  0  0
  141.4080   77.7940  223.0840 C   0  0  0  0  0  0  0  0  0  0  0  0
  140.0380   77.8300  222.8730 C   0  0  0  0  0  0  0  0  0  0  0  0
  139.4400   76.6740  222.5820 N   0  0  0  0  0  0  0  0  0  0  0  0
  139.2200   74.1970  222.7440 H   0  0  0  0  0  0  0  0  0  0  0  0
  136.7685   72.6315  222.6031 H   0  0  0  0  0  0  0  0  0  0  0  0
  137.4262   72.7122  220.9496 H   0  0  0  0  0  0  0  0  0  0  0  0
  136.3400   69.9736  223.3339 H   0  0  0  0  0  0  0  0  0  0  0  0
  136.6131   70.0288  221.5851 H   0  0  0  0  0  0  0  0  0  0  0  0
  136.9327   67.7534  223.4099 H   0  0  0  0  0  0  0  0  0  0  0  0
  137.1137   67.7294  221.6640 H   0  0  0  0  0  0  0  0  0  0  0  0
  139.2847   67.3850  223.3277 H   0  0  0  0  0  0  0  0  0  0  0  0
  139.5200   68.2178  221.8212 H   0  0  0  0  0  0  0  0  0  0  0  0
  140.1891   69.8516  223.6554 H   0  0  0  0  0  0  0  0  0  0  0  0
  137.6330   69.8511  225.0222 H   0  0  0  0  0  0  0  0  0  0  0  0
  138.6426   68.3473  225.2203 H   0  0  0  0  0  0  0  0  0  0  0  0
  140.2291   71.5947  224.5731 H   0  0  0  0  0  0  0  0  0  0  0  0
  141.6864   72.7435  226.2455 H   0  0  0  0  0  0  0  0  0  0  0  0
  141.7246   71.8089  228.5751 H   0  0  0  0  0  0  0  0  0  0  0  0
  140.3934   69.8612  229.1931 H   0  0  0  0  0  0  0  0  0  0  0  0
  138.9485   68.7351  227.5087 H   0  0  0  0  0  0  0  0  0  0  0  0
  136.2519   77.6387  222.2383 H   0  0  0  0  0  0  0  0  0  0  0  0
  137.3160   79.8405  222.7820 H   0  0  0  0  0  0  0  0  0  0  0  0
  139.3854   81.1105  223.3240 H   0  0  0  0  0  0  0  0  0  0  0  0
  143.1380   78.9975  223.5624 H   0  0  0  0  0  0  0  0  0  0  0  0
  141.9678   76.8498  223.0129 H   0  0  0  0  0  0  0  0  0  0  0  0
  1  2  2  0
  2  3  1  0
  3  4  1  0
  4  5  1  0
  5  6  2  0
  5  7  1  0
  7  8  1  0
  8  9  1  0
  9 10  1  0
 10 11  1  0
 11 12  1  0
 12 13  1  0
 13 14  2  0
 14 15  1  0
 15 16  2  0
 16 17  1  0
 17 18  2  0
  2 19  1  0
 19 20  2  0
 20 21  1  0
 21 22  2  0
 22 23  1  0
 23 24  2  0
 24 25  1  0
 24 26  1  0
 26 27  2  0
 27 28  1  0
 28 29  2  0
 11  7  1  0
 18 13  1  0
 29 19  1  0
 28 22  1  0
  3 30  1  0
  4 31  1  0
  4 32  1  0
  8 33  1  0
  8 34  1  0
  9 35  1  0
  9 36  1  0
 10 37  1  0
 10 38  1  0
 11 39  1  1
 12 40  1  0
 12 41  1  0
 14 42  1  0
 15 43  1  0
 16 44  1  0
 17 45  1  0
 18 46  1  0
 20 47  1  0
 21 48  1  0
 23 49  1  0
 26 50  1  0
 27 51  1  0
M  END
>  <smiles>  (2) 
O=C(NCC(=O)N1CCCC1Cc1ccccc1)c1ccc2cc(Cl)ccc2n1

>  <score_type>  (2) 
oracle

>  <origin>  (2) 
autodockgpu

>  <m_score__min__energy>  (2) 
-8.8599999999999994

>  <m_primary>  (2) 
energy

>  <rmsd>  (2) 
8.223573699918534

>  <m_score__min__rmsd>  (2) 
8.223573699918534

>  <meeko>  (2) 
{"free_energy": -8.05, "intermolecular_energy": -9.84, "internal_energy": -2.17, "cluster_size": 10, "cluster_id": 4, "rank_in_cluster": 8}

>  <energy>  (2) 
-8.83

>  <cluster_rmsd>  (2) 
0.17

>  <cluster>  (2) 
1

$$$$

     RDKit          3D

 51 54  0  0  0  0  0  0  0  0999 V2000
  133.4900   70.2010  226.6540 O   0  0  0  0  0  0  0  0  0  0  0  0
  133.7900   71.3170  226.2060 C   0  0  0  0  0  0  0  0  0  0  0  0
  134.7900   71.4400  225.2020 N   0  0  0  0  0  0  0  0  0  0  0  0
  135.4600   70.2590  224.7010 C   0  0  0  0  0  0  0  0  0  0  0  0
  136.6570   70.7120  223.9480 C   0  0  0  0  0  0  0  0  0  0  0  0
  136.7250   71.9430  223.6740 O   0  0  0  0  0  0  0  0  0  0  0  0
  137.6660   69.7860  223.5650 N   0  0  0  0  0  0  0  0  0  0  0  0
  137.5560   68.4600  223.0140 C   0  0  0  0  0  0  0  0  0  0  0  0
  138.8280   68.2350  222.2060 C   0  0  0  0  0  0  0  0  0  0  0  0
  139.5660   69.5680  222.3150 C   0  0  0  0  0  0  0  0  0  0  0  0
  139.0970   70.0450  223.6730 C   0  0  2  0  0  0  0  0  0  0  0  0
  139.7090   69.2480  224.7970 C   0  0  0  0  0  0  0  0  0  0  0  0
  140.0590   70.0800  225.9680 C   0  0  0  0  0  0  0  0  0  0  0  0
  140.7950   71.2490  225.8560 C   0  0  0  0  0  0  0  0  0  0  0  0
  141.1240   72.0280  226.9520 C   0  0  0  0  0  0  0  0  0  0  0  0
  140.6680   71.5640  228.1880 C   0  0  0  0  0  0  0  0  0  0  0  0
  139.9430   70.4170  228.3200 C   0  0  0  0  0  0  0  0  0  0  0  0
  139.6280   69.6570  227.2090 C   0  0  0  0  0  0  0  0  0  0  0  0
  133.1320   72.5290  226.6920 C   0  0  0  0  0  0  0  0  0  0  0  0
  131.9440   72.4550  227.3920 C   0  0  0  0  0  0  0  0  0  0  0  0
  131.3290   73.6270  227.8490 C   0  0  0  0  0  0  0  0  0  0  0  0
  131.9230   74.8570  227.5910 C   0  0  0  0  0  0  0  0  0  0  0  0
  131.3730   76.0500  228.0110 C   0  0  0  0  0  0  0  0  0  0  0  0
  132.0220   77.2490  227.7190 C   0  0  0  0  0  0  0  0  0  0  0  0
  131.3730   78.7940  228.2250 Cl  0  0  0  0  0  0  0  0  0  0  0  0
  133.2110   77.2600  227.0130 C   0  0  0  0  0  0  0  0  0  0  0  0
  133.7750   76.0650  226.5850 C   0  0  0  0  0  0  0  0  0  0  0  0
  133.1100   74.8870  226.8890 C   0  0  0  0  0  0  0  0  0  0  0  0
  133.6670   73.7510  226.4690 N   0  0  0  0  0  0  0  0  0  0  0  0
  135.0150   72.4170  224.8480 H   0  0  0  0  0  0  0  0  0  0  0  0
  135.7648   69.6157  225.5396 H   0  0  0  0  0  0  0  0  0  0  0  0
  134.7890   69.6789  224.0504 H   0  0  0  0  0  0  0  0  0  0  0  0
  137.4788   67.7160  223.8206 H   0  0  0  0  0  0  0  0  0  0  0  0
  136.6572   68.3566  222.3883 H   0  0  0  0  0  0  0  0  0  0  0  0
  139.4268   67.4187  222.6361 H   0  0  0  0  0  0  0  0  0  0  0  0
  138.6259   67.9432  221.1648 H   0  0  0  0  0  0  0  0  0  0  0  0
  140.6569   69.4294  222.2897 H   0  0  0  0  0  0  0  0  0  0  0  0
  139.3621   70.2688  221.4920 H   0  0  0  0  0  0  0  0  0  0  0  0
  139.3677   71.0861  223.9030 H   0  0  0  0  0  0  0  0  0  0  0  0
  138.9890   68.4796  225.1150 H   0  0  0  0  0  0  0  0  0  0  0  0
  140.6409   68.8036  224.4173 H   0  0  0  0  0  0  0  0  0  0  0  0
  141.1303   71.5699  224.8587 H   0  0  0  0  0  0  0  0  0  0  0  0
  141.7083   72.9550  226.8555 H   0  0  0  0  0  0  0  0  0  0  0  0
  140.9032   72.1471  229.0906 H   0  0  0  0  0  0  0  0  0  0  0  0
  139.6067   70.0944  229.3164 H   0  0  0  0  0  0  0  0  0  0  0  0
  139.0437   68.7308  227.3123 H   0  0  0  0  0  0  0  0  0  0  0  0
  131.4815   71.4769  227.5903 H   0  0  0  0  0  0  0  0  0  0  0  0
  130.3830   73.5748  228.4079 H   0  0  0  0  0  0  0  0  0  0  0  0
  130.4276   76.0556  228.5732 H   0  0  0  0  0  0  0  0  0  0  0  0
  133.7099   78.2147  226.7904 H   0  0  0  0  0  0  0  0  0  0  0  0
  134.7201   76.0536  226.0222 H   0  0  0  0  0  0  0  0  0  0  0  0
  1  2  2  0
  2  3  1  0
  3  4  1  0
  4  5  1  0
  5  6  2  0
  5  7  1  0
  7  8  1  0
  8  9  1  0
  9 10  1  0
 10 11  1  0
 11 12  1  0
 12 13  1  0
 13 14  2  0
 14 15  1  0
 15 16  2  0
 16 17  1  0
 17 18  2  0
  2 19  1  0
 19 20  2  0
 20 21  1  0
 21 22  2  0
 22 23  1  0
 23 24  2  0
 24 25  1  0
 24 26  1  0
 26 27  2  0
 27 28  1  0
 28 29  2  0
 11  7  1  0
 18 13  1  0
 29 19  1  0
 28 22  1  0
  3 30  1  0
  4 31  1  0
  4 32  1  0
  8 33  1  0
  8 34  1  0
  9 35  1  0
  9 36  1  0
 10 37  1  0
 10 38  1  0
 11 39  1  1
 12 40  1  0
 12 41  1  0
 14 42  1  0
 15 43  1  0
 16 44  1  0
 17 45  1  0
 18 46  1  0
 20 47  1  0
 21 48  1  0
 23 49  1  0
 26 50  1  0
 27 51  1  0
M  END
>  <smiles>  (3) 
O=C(NCC(=O)N1CCCC1Cc1ccccc1)c1ccc2cc(Cl)ccc2n1

>  <score_type>  (3) 
oracle

>  <origin>  (3) 
autodockgpu

>  <m_score__min__energy>  (3) 
-8.8599999999999994

>  <m_primary>  (3) 
energy

>  <rmsd>  (3) 
8.53078724086024

>  <m_score__min__rmsd>  (3) 
8.53078724086024

>  <meeko>  (3) 
{"free_energy": -8.49, "intermolecular_energy": -10.28, "internal_energy": -2.21, "cluster_size": 7, "cluster_id": 3, "rank_in_cluster": 1}

>  <energy>  (3) 
-8.8

>  <cluster_rmsd>  (3) 
1.25

>  <cluster>  (3) 
1

$$$$

     RDKit          3D

 51 54  0  0  0  0  0  0  0  0999 V2000
  138.9790   72.0830  220.8170 O   0  0  0  0  0  0  0  0  0  0  0  0
  139.2410   72.4500  221.9710 C   0  0  0  0  0  0  0  0  0  0  0  0
  139.3420   73.8360  222.2760 N   0  0  0  0  0  0  0  0  0  0  0  0
  139.1390   74.8200  221.2350 C   0  0  0  0  0  0  0  0  0  0  0  0
  139.3240   76.1610  221.8480 C   0  0  0  0  0  0  0  0  0  0  0  0
  140.2470   76.2730  222.7020 O   0  0  0  0  0  0  0  0  0  0  0  0
  138.4900   77.2500  221.4750 N   0  0  0  0  0  0  0  0  0  0  0  0
  137.7950   77.5150  220.2420 C   0  0  0  0  0  0  0  0  0  0  0  0
  136.5940   78.3760  220.6150 C   0  0  0  0  0  0  0  0  0  0  0  0
  136.6760   78.4710  222.1370 C   0  0  0  0  0  0  0  0  0  0  0  0
  138.1720   78.3730  222.3500 C   0  0  2  0  0  0  0  0  0  0  0  0
  138.8920   79.6230  221.9120 C   0  0  0  0  0  0  0  0  0  0  0  0
  140.2550   79.7290  222.4730 C   0  0  0  0  0  0  0  0  0  0  0  0
  140.6240   79.1030  223.6540 C   0  0  0  0  0  0  0  0  0  0  0  0
  141.9000   79.2020  224.1810 C   0  0  0  0  0  0  0  0  0  0  0  0
  142.8020   79.9770  223.4490 C   0  0  0  0  0  0  0  0  0  0  0  0
  142.4610   80.6010  222.2850 C   0  0  0  0  0  0  0  0  0  0  0  0
  141.1790   80.4860  221.7810 C   0  0  0  0  0  0  0  0  0  0  0  0
  139.4510   71.4800  223.0440 C   0  0  0  0  0  0  0  0  0  0  0  0
  139.0660   70.1620  222.8900 C   0  0  0  0  0  0  0  0  0  0  0  0
  139.2770   69.2480  223.9300 C   0  0  0  0  0  0  0  0  0  0  0  0
  139.8710   69.6780  225.1100 C   0  0  0  0  0  0  0  0  0  0  0  0
  140.1080   68.8330  226.1740 C   0  0  0  0  0  0  0  0  0  0  0  0
  140.7100   69.3300  227.3290 C   0  0  0  0  0  0  0  0  0  0  0  0
  141.0350   68.3060  228.7110 Cl  0  0  0  0  0  0  0  0  0  0  0  0
  141.0730   70.6600  227.4250 C   0  0  0  0  0  0  0  0  0  0  0  0
  140.8400   71.5210  226.3600 C   0  0  0  0  0  0  0  0  0  0  0  0
  140.2410   71.0020  225.2230 C   0  0  0  0  0  0  0  0  0  0  0  0
  140.0260   71.8460  224.2130 N   0  0  0  0  0  0  0  0  0  0  0  0
  139.5690   74.1040  223.2790 H   0  0  0  0  0  0  0  0  0  0  0  0
  139.8723   74.6709  220.4287 H   0  0  0  0  0  0  0  0  0  0  0  0
  138.1316   74.7262  220.8034 H   0  0  0  0  0  0  0  0  0  0  0  0
  138.4499   78.0548  219.5422 H   0  0  0  0  0  0  0  0  0  0  0  0
  137.4851   76.5837  219.7454 H   0  0  0  0  0  0  0  0  0  0  0  0
  136.6677   79.3725  220.1552 H   0  0  0  0  0  0  0  0  0  0  0  0
  135.6408   77.9531  220.2648 H   0  0  0  0  0  0  0  0  0  0  0  0
  136.2771   79.4280  222.5045 H   0  0  0  0  0  0  0  0  0  0  0  0
  136.0900   77.7092  222.6720 H   0  0  0  0  0  0  0  0  0  0  0  0
  138.4701   78.2465  223.4013 H   0  0  0  0  0  0  0  0  0  0  0  0
  138.9636   79.6202  220.8143 H   0  0  0  0  0  0  0  0  0  0  0  0
  138.3150   80.4830  222.2828 H   0  0  0  0  0  0  0  0  0  0  0  0
  139.8741   78.5050  224.1925 H   0  0  0  0  0  0  0  0  0  0  0  0
  142.1857   78.7015  225.1179 H   0  0  0  0  0  0  0  0  0  0  0  0
  143.8292   80.0888  223.8264 H   0  0  0  0  0  0  0  0  0  0  0  0
  143.2099   81.1987  221.7447 H   0  0  0  0  0  0  0  0  0  0  0  0
  140.8996   80.9895  220.8438 H   0  0  0  0  0  0  0  0  0  0  0  0
  138.5948   69.8313  221.9526 H   0  0  0  0  0  0  0  0  0  0  0  0
  138.9745   68.1969  223.8133 H   0  0  0  0  0  0  0  0  0  0  0  0
  139.8234   67.7723  226.1115 H   0  0  0  0  0  0  0  0  0  0  0  0
  141.5460   71.0365  228.3440 H   0  0  0  0  0  0  0  0  0  0  0  0
  141.1224   72.5826  226.4174 H   0  0  0  0  0  0  0  0  0  0  0  0
  1  2  2  0
  2  3  1  0
  3  4  1  0
  4  5  1  0
  5  6  2  0
  5  7  1  0
  7  8  1  0
  8  9  1  0
  9 10  1  0
 10 11  1  0
 11 12  1  0
 12 13  1  0
 13 14  2  0
 14 15  1  0
 15 16  2  0
 16 17  1  0
 17 18  2  0
  2 19  1  0
 19 20  2  0
 20 21  1  0
 21 22  2  0
 22 23  1  0
 23 24  2  0
 24 25  1  0
 24 26  1  0
 26 27  2  0
 27 28  1  0
 28 29  2  0
 11  7  1  0
 18 13  1  0
 29 19  1  0
 28 22  1  0
  3 30  1  0
  4 31  1  0
  4 32  1  0
  8 33  1  0
  8 34  1  0
  9 35  1  0
  9 36  1  0
 10 37  1  0
 10 38  1  0
 11 39  1  1
 12 40  1  0
 12 41  1  0
 14 42  1  0
 15 43  1  0
 16 44  1  0
 17 45  1  0
 18 46  1  0
 20 47  1  0
 21 48  1  0
 23 49  1  0
 26 50  1  0
 27 51  1  0
M  END
>  <smiles>  (4) 
O=C(NCC(=O)N1CCCC1Cc1ccccc1)c1ccc2cc(Cl)ccc2n1

>  <score_type>  (4) 
oracle

>  <origin>  (4) 
autodockgpu

>  <m_score__min__energy>  (4) 
-8.8599999999999994

>  <m_primary>  (4) 
energy

>  <rmsd>  (4) 
2.8957035400680216

>  <m_score__min__rmsd>  (4) 
2.8957035400680216

>  <meeko>  (4) 
{"free_energy": -8.25, "intermolecular_energy": -10.04, "internal_energy": -2.06, "cluster_size": 24, "cluster_id": 1, "rank_in_cluster": 19}

>  <energy>  (4) 
-8.78

>  <cluster_rmsd>  (4) 
1.16

>  <cluster>  (4) 
1

$$$$

     RDKit          3D

 51 54  0  0  0  0  0  0  0  0999 V2000
  141.9710   72.9840  221.1220 O   0  0  0  0  0  0  0  0  0  0  0  0
  141.1400   73.7910  221.5610 C   0  0  0  0  0  0  0  0  0  0  0  0
  140.0460   73.3360  222.3470 N   0  0  0  0  0  0  0  0  0  0  0  0
  139.9010   71.9250  222.6340 C   0  0  0  0  0  0  0  0  0  0  0  0
  138.4460   71.6270  222.6820 C   0  0  0  0  0  0  0  0  0  0  0  0
  137.6610   72.5890  222.4530 O   0  0  0  0  0  0  0  0  0  0  0  0
  137.9840   70.3150  222.9740 N   0  0  0  0  0  0  0  0  0  0  0  0
  136.6840   69.7210  222.7960 C   0  0  0  0  0  0  0  0  0  0  0  0
  136.9270   68.2260  222.6260 C   0  0  0  0  0  0  0  0  0  0  0  0
  138.4490   68.1020  222.6530 C   0  0  0  0  0  0  0  0  0  0  0  0
  138.8160   69.2650  223.5500 C   0  0  2  0  0  0  0  0  0  0  0  0
  138.4490   69.0100  224.9900 C   0  0  0  0  0  0  0  0  0  0  0  0
  139.3770   69.6540  225.9430 C   0  0  0  0  0  0  0  0  0  0  0  0
  139.9850   70.8730  225.6810 C   0  0  0  0  0  0  0  0  0  0  0  0
  140.8540   71.4770  226.5720 C   0  0  0  0  0  0  0  0  0  0  0  0
  141.0860   70.7820  227.7620 C   0  0  0  0  0  0  0  0  0  0  0  0
  140.4990   69.5840  228.0400 C   0  0  0  0  0  0  0  0  0  0  0  0
  139.6340   69.0020  227.1320 C   0  0  0  0  0  0  0  0  0  0  0  0
  141.2590   75.2230  221.2890 C   0  0  0  0  0  0  0  0  0  0  0  0
  141.6750   75.6740  220.0510 C   0  0  0  0  0  0  0  0  0  0  0  0
  141.7810   77.0490  219.8090 C   0  0  0  0  0  0  0  0  0  0  0  0
  141.4670   77.9480  220.8210 C   0  0  0  0  0  0  0  0  0  0  0  0
  141.5490   79.3150  220.6520 C   0  0  0  0  0  0  0  0  0  0  0  0
  141.2180   80.1610  221.7090 C   0  0  0  0  0  0  0  0  0  0  0  0
  141.3040   81.9030  221.5550 Cl  0  0  0  0  0  0  0  0  0  0  0  0
  140.8080   79.6510  222.9260 C   0  0  0  0  0  0  0  0  0  0  0  0
  140.7210   78.2770  223.1090 C   0  0  0  0  0  0  0  0  0  0  0  0
  141.0550   77.4570  222.0420 C   0  0  0  0  0  0  0  0  0  0  0  0
  140.9650   76.1410  222.2380 N   0  0  0  0  0  0  0  0  0  0  0  0
  139.3580   74.0650  222.7030 H   0  0  0  0  0  0  0  0  0  0  0  0
  140.3806   71.3295  221.8432 H   0  0  0  0  0  0  0  0  0  0  0  0
  140.3803   71.6728  223.5914 H   0  0  0  0  0  0  0  0  0  0  0  0
  136.0539   69.9083  223.6780 H   0  0  0  0  0  0  0  0  0  0  0  0
  136.1614   70.1464  221.9266 H   0  0  0  0  0  0  0  0  0  0  0  0
  136.4724   67.6582  223.4512 H   0  0  0  0  0  0  0  0  0  0  0  0
  136.4825   67.8237  221.7037 H   0  0  0  0  0  0  0  0  0  0  0  0
  138.7688   67.1420  223.0845 H   0  0  0  0  0  0  0  0  0  0  0  0
  138.9242   68.1259  221.6612 H   0  0  0  0  0  0  0  0  0  0  0  0
  139.8929   69.4865  223.5831 H   0  0  0  0  0  0  0  0  0  0  0  0
  137.4361   69.4002  225.1684 H   0  0  0  0  0  0  0  0  0  0  0  0
  138.5050   67.9243  225.1575 H   0  0  0  0  0  0  0  0  0  0  0  0
  139.7679   71.3786  224.7285 H   0  0  0  0  0  0  0  0  0  0  0  0
  141.3325   72.4439  226.3572 H   0  0  0  0  0  0  0  0  0  0  0  0
  141.7699   71.2196  228.5041 H   0  0  0  0  0  0  0  0  0  0  0  0
  140.7146   69.0772  228.9922 H   0  0  0  0  0  0  0  0  0  0  0  0
  139.1584   68.0352  227.3536 H   0  0  0  0  0  0  0  0  0  0  0  0
  141.9225   74.9541  219.2569 H   0  0  0  0  0  0  0  0  0  0  0  0
  142.1104   77.4148  218.8253 H   0  0  0  0  0  0  0  0  0  0  0  0
  141.8738   79.7347  219.6885 H   0  0  0  0  0  0  0  0  0  0  0  0
  140.5506   80.3331  223.7497 H   0  0  0  0  0  0  0  0  0  0  0  0
  140.3971   77.8525  224.0707 H   0  0  0  0  0  0  0  0  0  0  0  0
  1  2  2  0
  2  3  1  0
  3  4  1  0
  4  5  1  0
  5  6  2  0
  5  7  1  0
  7  8  1  0
  8  9  1  0
  9 10  1  0
 10 11  1  0
 11 12  1  0
 12 13  1  0
 13 14  2  0
 14 15  1  0
 15 16  2  0
 16 17  1  0
 17 18  2  0
  2 19  1  0
 19 20  2  0
 20 21  1  0
 21 22  2  0
 22 23  1  0
 23 24  2  0
 24 25  1  0
 24 26  1  0
 26 27  2  0
 27 28  1  0
 28 29  2  0
 11  7  1  0
 18 13  1  0
 29 19  1  0
 28 22  1  0
  3 30  1  0
  4 31  1  0
  4 32  1  0
  8 33  1  0
  8 34  1  0
  9 35  1  0
  9 36  1  0
 10 37  1  0
 10 38  1  0
 11 39  1  1
 12 40  1  0
 12 41  1  0
 14 42  1  0
 15 43  1  0
 16 44  1  0
 17 45  1  0
 18 46  1  0
 20 47  1  0
 21 48  1  0
 23 49  1  0
 26 50  1  0
 27 51  1  0
M  END
>  <smiles>  (5) 
O=C(NCC(=O)N1CCCC1Cc1ccccc1)c1ccc2cc(Cl)ccc2n1

>  <score_type>  (5) 
oracle

>  <origin>  (5) 
autodockgpu

>  <m_score__min__energy>  (5) 
-8.8599999999999994

>  <m_primary>  (5) 
energy

>  <rmsd>  (5) 
8.326923711573214

>  <m_score__min__rmsd>  (5) 
8.326923711573214

>  <meeko>  (5) 
{"free_energy": -8.03, "intermolecular_energy": -9.82, "internal_energy": -2.03, "cluster_size": 10, "cluster_id": 4, "rank_in_cluster": 9}

>  <energy>  (5) 
-8.7

>  <cluster_rmsd>  (5) 
0.36

>  <cluster>  (5) 
1

$$$$

     RDKit          3D

 51 54  0  0  0  0  0  0  0  0999 V2000
  141.0360   72.7280  220.9020 O   0  0  0  0  0  0  0  0  0  0  0  0
  140.2840   72.9030  221.8700 C   0  0  0  0  0  0  0  0  0  0  0  0
  139.4950   74.0840  221.9600 N   0  0  0  0  0  0  0  0  0  0  0  0
  139.5710   75.0830  220.9160 C   0  0  0  0  0  0  0  0  0  0  0  0
  140.7300   75.9600  221.2240 C   0  0  0  0  0  0  0  0  0  0  0  0
  141.0300   76.0990  222.4420 O   0  0  0  0  0  0  0  0  0  0  0  0
  141.4520   76.6010  220.1800 N   0  0  0  0  0  0  0  0  0  0  0  0
  142.7050   76.2530  219.5600 C   0  0  0  0  0  0  0  0  0  0  0  0
  142.6480   76.8300  218.1510 C   0  0  0  0  0  0  0  0  0  0  0  0
  141.2470   77.4330  218.0620 C   0  0  0  0  0  0  0  0  0  0  0  0
  141.0080   77.8170  219.5080 C   0  0  2  0  0  0  0  0  0  0  0  0
  141.8410   79.0020  219.9250 C   0  0  0  0  0  0  0  0  0  0  0  0
  141.5460   79.4570  221.3000 C   0  0  0  0  0  0  0  0  0  0  0  0
  142.4970   80.0710  222.1000 C   0  0  0  0  0  0  0  0  0  0  0  0
  142.2220   80.4970  223.3880 C   0  0  0  0  0  0  0  0  0  0  0  0
  140.9200   80.2690  223.8400 C   0  0  0  0  0  0  0  0  0  0  0  0
  139.9690   79.6680  223.0690 C   0  0  0  0  0  0  0  0  0  0  0  0
  140.2700   79.2520  221.7860 C   0  0  0  0  0  0  0  0  0  0  0  0
  140.1850   71.9130  222.9410 C   0  0  0  0  0  0  0  0  0  0  0  0
  139.6050   70.6800  222.7110 C   0  0  0  0  0  0  0  0  0  0  0  0
  139.5200   69.7440  223.7480 C   0  0  0  0  0  0  0  0  0  0  0  0
  140.0210   70.0670  225.0040 C   0  0  0  0  0  0  0  0  0  0  0  0
  139.9700   69.1940  226.0710 C   0  0  0  0  0  0  0  0  0  0  0  0
  140.4920   69.5820  227.3040 C   0  0  0  0  0  0  0  0  0  0  0  0
  140.4550   68.5190  228.6940 Cl  0  0  0  0  0  0  0  0  0  0  0  0
  141.0600   70.8300  227.4750 C   0  0  0  0  0  0  0  0  0  0  0  0
  141.1180   71.7170  226.4080 C   0  0  0  0  0  0  0  0  0  0  0  0
  140.5920   71.3080  225.1920 C   0  0  0  0  0  0  0  0  0  0  0  0
  140.6570   72.1750  224.1810 N   0  0  0  0  0  0  0  0  0  0  0  0
  138.8640   74.1910  222.8090 H   0  0  0  0  0  0  0  0  0  0  0  0
  139.7163   74.5967  219.9401 H   0  0  0  0  0  0  0  0  0  0  0  0
  138.6414   75.6693  220.8710 H   0  0  0  0  0  0  0  0  0  0  0  0
  143.5439   76.6923  220.1197 H   0  0  0  0  0  0  0  0  0  0  0  0
  142.8594   75.1640  219.5446 H   0  0  0  0  0  0  0  0  0  0  0  0
  143.4174   77.6038  218.0128 H   0  0  0  0  0  0  0  0  0  0  0  0
  142.8369   76.0750  217.3736 H   0  0  0  0  0  0  0  0  0  0  0  0
  141.2264   78.3123  217.4014 H   0  0  0  0  0  0  0  0  0  0  0  0
  140.4878   76.7583  217.6395 H   0  0  0  0  0  0  0  0  0  0  0  0
  139.9749   78.1234  219.7289 H   0  0  0  0  0  0  0  0  0  0  0  0
  142.9032   78.7217  219.8683 H   0  0  0  0  0  0  0  0  0  0  0  0
  141.5996   79.8313  219.2439 H   0  0  0  0  0  0  0  0  0  0  0  0
  143.5084   80.2256  221.6961 H   0  0  0  0  0  0  0  0  0  0  0  0
  142.9815   80.9848  224.0166 H   0  0  0  0  0  0  0  0  0  0  0  0
  140.6511   80.5868  224.8582 H   0  0  0  0  0  0  0  0  0  0  0  0
  138.9567   79.5135  223.4707 H   0  0  0  0  0  0  0  0  0  0  0  0
  139.5056   78.7656  221.1622 H   0  0  0  0  0  0  0  0  0  0  0  0
  139.2105   70.4345  221.7139 H   0  0  0  0  0  0  0  0  0  0  0  0
  139.0604   68.7605  223.5707 H   0  0  0  0  0  0  0  0  0  0  0  0
  139.5201   68.1976  225.9495 H   0  0  0  0  0  0  0  0  0  0  0  0
  141.4658   71.1206  228.4553 H   0  0  0  0  0  0  0  0  0  0  0  0
  141.5677   72.7141  226.5240 H   0  0  0  0  0  0  0  0  0  0  0  0
  1  2  2  0
  2  3  1  0
  3  4  1  0
  4  5  1  0
  5  6  2  0
  5  7  1  0
  7  8  1  0
  8  9  1  0
  9 10  1  0
 10 11  1  0
 11 12  1  0
 12 13  1  0
 13 14  2  0
 14 15  1  0
 15 16  2  0
 16 17  1  0
 17 18  2  0
  2 19  1  0
 19 20  2  0
 20 21  1  0
 21 22  2  0
 22 23  1  0
 23 24  2  0
 24 25  1  0
 24 26  1  0
 26 27  2  0
 27 28  1  0
 28 29  2  0
 11  7  1  0
 18 13  1  0
 29 19  1  0
 28 22  1  0
  3 30  1  0
  4 31  1  0
  4 32  1  0
  8 33  1  0
  8 34  1  0
  9 35  1  0
  9 36  1  0
 10 37  1  0
 10 38  1  0
 11 39  1  6
 12 40  1  0
 12 41  1  0
 14 42  1  0
 15 43  1  0
 16 44  1  0
 17 45  1  0
 18 46  1  0
 20 47  1  0
 21 48  1  0
 23 49  1  0
 26 50  1  0
 27 51  1  0
M  END
>  <smiles>  (6) 
O=C(NCC(=O)N1CCCC1Cc1ccccc1)c1ccc2cc(Cl)ccc2n1

>  <score_type>  (6) 
oracle

>  <origin>  (6) 
autodockgpu

>  <m_score__min__energy>  (6) 
-8.8599999999999994

>  <m_primary>  (6) 
energy

>  <rmsd>  (6) 
2.117166494603597

>  <m_score__min__rmsd>  (6) 
2.117166494603597

>  <meeko>  (6) 
{"free_energy": -8.8, "intermolecular_energy": -10.59, "internal_energy": -1.67, "cluster_size": 24, "cluster_id": 1, "rank_in_cluster": 3}

>  <energy>  (6) 
-8.64

>  <cluster_rmsd>  (6) 
1.16

>  <cluster>  (6) 
1

$$$$

     RDKit          3D

 51 54  0  0  0  0  0  0  0  0999 V2000
  137.9960   71.5990  221.3480 O   0  0  0  0  0  0  0  0  0  0  0  0
  138.7000   71.9580  222.3020 C   0  0  0  0  0  0  0  0  0  0  0  0
  139.2180   73.2820  222.3510 N   0  0  0  0  0  0  0  0  0  0  0  0
  138.9230   74.2120  221.2830 C   0  0  0  0  0  0  0  0  0  0  0  0
  139.9900   75.2470  221.2860 C   0  0  0  0  0  0  0  0  0  0  0  0
  141.0020   75.0170  222.0040 O   0  0  0  0  0  0  0  0  0  0  0  0
  139.8550   76.4300  220.5090 N   0  0  0  0  0  0  0  0  0  0  0  0
  139.7120   76.6020  219.0860 C   0  0  0  0  0  0  0  0  0  0  0  0
  138.9590   77.9130  218.8970 C   0  0  0  0  0  0  0  0  0  0  0  0
  138.6570   78.3660  220.3240 C   0  0  0  0  0  0  0  0  0  0  0  0
  139.8360   77.7760  221.0680 C   0  0  2  0  0  0  0  0  0  0  0  0
  141.1200   78.5070  220.7670 C   0  0  0  0  0  0  0  0  0  0  0  0
  141.4890   79.4800  221.8170 C   0  0  0  0  0  0  0  0  0  0  0  0
  141.4290   80.8500  221.6150 C   0  0  0  0  0  0  0  0  0  0  0  0
  141.7740   81.7620  222.5970 C   0  0  0  0  0  0  0  0  0  0  0  0
  142.1910   81.2170  223.8140 C   0  0  0  0  0  0  0  0  0  0  0  0
  142.2580   79.8730  224.0340 C   0  0  0  0  0  0  0  0  0  0  0  0
  141.9070   78.9840  223.0350 C   0  0  0  0  0  0  0  0  0  0  0  0
  139.0160   71.0420  223.3970 C   0  0  0  0  0  0  0  0  0  0  0  0
  138.6220   69.7190  223.3460 C   0  0  0  0  0  0  0  0  0  0  0  0
  138.9350   68.8570  224.4040 C   0  0  0  0  0  0  0  0  0  0  0  0
  139.6390   69.3440  225.4990 C   0  0  0  0  0  0  0  0  0  0  0  0
  139.9800   68.5520  226.5750 C   0  0  0  0  0  0  0  0  0  0  0  0
  140.6880   69.1040  227.6410 C   0  0  0  0  0  0  0  0  0  0  0  0
  141.1480   68.1500  229.0340 Cl  0  0  0  0  0  0  0  0  0  0  0  0
  141.0540   70.4370  227.6360 C   0  0  0  0  0  0  0  0  0  0  0  0
  140.7170   71.2450  226.5580 C   0  0  0  0  0  0  0  0  0  0  0  0
  140.0130   70.6710  225.5110 C   0  0  0  0  0  0  0  0  0  0  0  0
  139.6990   71.4640  224.4850 N   0  0  0  0  0  0  0  0  0  0  0  0
  139.8170   73.5460  223.1890 H   0  0  0  0  0  0  0  0  0  0  0  0
  138.9135   73.6848  220.3176 H   0  0  0  0  0  0  0  0  0  0  0  0
  137.9352   74.6727  221.4316 H   0  0  0  0  0  0  0  0  0  0  0  0
  140.7003   76.6558  218.6060 H   0  0  0  0  0  0  0  0  0  0  0  0
  139.1742   75.7581  218.6294 H   0  0  0  0  0  0  0  0  0  0  0  0
  139.5838   78.6524  218.3747 H   0  0  0  0  0  0  0  0  0  0  0  0
  138.0521   77.7993  218.2849 H   0  0  0  0  0  0  0  0  0  0  0  0
  138.6363   79.4629  220.4041 H   0  0  0  0  0  0  0  0  0  0  0  0
  137.6749   78.0473  220.7034 H   0  0  0  0  0  0  0  0  0  0  0  0
  139.7486   77.8259  222.1634 H   0  0  0  0  0  0  0  0  0  0  0  0
  141.9300   77.7688  220.6725 H   0  0  0  0  0  0  0  0  0  0  0  0
  140.9678   79.0702  219.8345 H   0  0  0  0  0  0  0  0  0  0  0  0
  141.0945   81.2266  220.6371 H   0  0  0  0  0  0  0  0  0  0  0  0
  141.7231   82.8480  222.4299 H   0  0  0  0  0  0  0  0  0  0  0  0
  142.4768   81.8998  224.6277 H   0  0  0  0  0  0  0  0  0  0  0  0
  142.5929   79.4943  225.0109 H   0  0  0  0  0  0  0  0  0  0  0  0
  141.9601   77.8990  223.2083 H   0  0  0  0  0  0  0  0  0  0  0  0
  138.0635   69.3435  222.4759 H   0  0  0  0  0  0  0  0  0  0  0  0
  138.6259   67.8019  224.3689 H   0  0  0  0  0  0  0  0  0  0  0  0
  139.6946   67.4898  226.5919 H   0  0  0  0  0  0  0  0  0  0  0  0
  141.6120   70.8576  228.4856 H   0  0  0  0  0  0  0  0  0  0  0  0
  141.0000   72.3077  226.5357 H   0  0  0  0  0  0  0  0  0  0  0  0
  1  2  2  0
  2  3  1  0
  3  4  1  0
  4  5  1  0
  5  6  2  0
  5  7  1  0
  7  8  1  0
  8  9  1  0
  9 10  1  0
 10 11  1  0
 11 12  1  0
 12 13  1  0
 13 14  2  0
 14 15  1  0
 15 16  2  0
 16 17  1  0
 17 18  2  0
  2 19  1  0
 19 20  2  0
 20 21  1  0
 21 22  2  0
 22 23  1  0
 23 24  2  0
 24 25  1  0
 24 26  1  0
 26 27  2  0
 27 28  1  0
 28 29  2  0
 11  7  1  0
 18 13  1  0
 29 19  1  0
 28 22  1  0
  3 30  1  0
  4 31  1  0
  4 32  1  0
  8 33  1  0
  8 34  1  0
  9 35  1  0
  9 36  1  0
 10 37  1  0
 10 38  1  0
 11 39  1  1
 12 40  1  0
 12 41  1  0
 14 42  1  0
 15 43  1  0
 16 44  1  0
 17 45  1  0
 18 46  1  0
 20 47  1  0
 21 48  1  0
 23 49  1  0
 26 50  1  0
 27 51  1  0
M  END
>  <smiles>  (7) 
O=C(NCC(=O)N1CCCC1Cc1ccccc1)c1ccc2cc(Cl)ccc2n1

>  <score_type>  (7) 
oracle

>  <origin>  (7) 
autodockgpu

>  <m_score__min__energy>  (7) 
-8.8599999999999994

>  <m_primary>  (7) 
energy

>  <rmsd>  (7) 
1.6676042886367217

>  <m_score__min__rmsd>  (7) 
1.6676042886367217

>  <meeko>  (7) 
{"free_energy": -8.33, "intermolecular_energy": -10.12, "internal_energy": -2.09, "cluster_size": 24, "cluster_id": 1, "rank_in_cluster": 16}

>  <energy>  (7) 
-8.63

>  <cluster_rmsd>  (7) 
1.21

>  <cluster>  (7) 
1

$$$$

     RDKit          3D

 51 54  0  0  0  0  0  0  0  0999 V2000
  138.9630   71.8360  220.6710 O   0  0  0  0  0  0  0  0  0  0  0  0
  139.1130   72.2580  221.8270 C   0  0  0  0  0  0  0  0  0  0  0  0
  139.0550   73.6540  222.0930 N   0  0  0  0  0  0  0  0  0  0  0  0
  138.8210   74.5850  221.0100 C   0  0  0  0  0  0  0  0  0  0  0  0
  140.1180   74.7960  220.3170 C   0  0  0  0  0  0  0  0  0  0  0  0
  140.5090   73.8740  219.5480 O   0  0  0  0  0  0  0  0  0  0  0  0
  140.8660   75.9880  220.5250 N   0  0  0  0  0  0  0  0  0  0  0  0
  142.1890   76.3490  220.0850 C   0  0  0  0  0  0  0  0  0  0  0  0
  142.1990   77.8700  219.9930 C   0  0  0  0  0  0  0  0  0  0  0  0
  140.7650   78.2630  220.3420 C   0  0  0  0  0  0  0  0  0  0  0  0
  140.3790   77.1370  221.2780 C   0  0  2  0  0  0  0  0  0  0  0  0
  141.0730   77.2450  222.6120 C   0  0  0  0  0  0  0  0  0  0  0  0
  141.3390   78.6430  223.0110 C   0  0  0  0  0  0  0  0  0  0  0  0
  142.6200   79.1730  223.0550 C   0  0  0  0  0  0  0  0  0  0  0  0
  142.8700   80.4820  223.4280 C   0  0  0  0  0  0  0  0  0  0  0  0
  141.7490   81.2450  223.7610 C   0  0  0  0  0  0  0  0  0  0  0  0
  140.4810   80.7450  223.7240 C   0  0  0  0  0  0  0  0  0  0  0  0
  140.2590   79.4330  223.3480 C   0  0  0  0  0  0  0  0  0  0  0  0
  139.3510   71.3420  222.9410 C   0  0  0  0  0  0  0  0  0  0  0  0
  138.9610   70.0190  222.8640 C   0  0  0  0  0  0  0  0  0  0  0  0
  139.1990   69.1570  223.9420 C   0  0  0  0  0  0  0  0  0  0  0  0
  139.8240   69.6450  225.0830 C   0  0  0  0  0  0  0  0  0  0  0  0
  140.0890   68.8540  226.1810 C   0  0  0  0  0  0  0  0  0  0  0  0
  140.7210   69.4060  227.2940 C   0  0  0  0  0  0  0  0  0  0  0  0
  141.0810   68.4530  228.7160 Cl  0  0  0  0  0  0  0  0  0  0  0  0
  141.0870   70.7390  227.3140 C   0  0  0  0  0  0  0  0  0  0  0  0
  140.8270   71.5460  226.2140 C   0  0  0  0  0  0  0  0  0  0  0  0
  140.1980   70.9720  225.1200 C   0  0  0  0  0  0  0  0  0  0  0  0
  139.9560   71.7650  224.0750 N   0  0  0  0  0  0  0  0  0  0  0  0
  139.1890   73.9690  223.0990 H   0  0  0  0  0  0  0  0  0  0  0  0
  138.0835   74.1679  220.3085 H   0  0  0  0  0  0  0  0  0  0  0  0
  138.4271   75.5372  221.3949 H   0  0  0  0  0  0  0  0  0  0  0  0
  142.9406   76.0048  220.8107 H   0  0  0  0  0  0  0  0  0  0  0  0
  142.4334   75.8847  219.1182 H   0  0  0  0  0  0  0  0  0  0  0  0
  142.9103   78.3019  220.7124 H   0  0  0  0  0  0  0  0  0  0  0  0
  142.5125   78.2353  219.0039 H   0  0  0  0  0  0  0  0  0  0  0  0
  140.7248   79.2398  220.8463 H   0  0  0  0  0  0  0  0  0  0  0  0
  140.1012   78.3788  219.4725 H   0  0  0  0  0  0  0  0  0  0  0  0
  139.3093   77.1096  221.5328 H   0  0  0  0  0  0  0  0  0  0  0  0
  140.4368   76.7766  223.3774 H   0  0  0  0  0  0  0  0  0  0  0  0
  142.0446   76.7375  222.5204 H   0  0  0  0  0  0  0  0  0  0  0  0
  143.4691   78.5287  222.7832 H   0  0  0  0  0  0  0  0  0  0  0  0
  143.8887   80.8958  223.4601 H   0  0  0  0  0  0  0  0  0  0  0  0
  141.8947   82.2919  224.0655 H   0  0  0  0  0  0  0  0  0  0  0  0
  139.6307   81.3883  223.9945 H   0  0  0  0  0  0  0  0  0  0  0  0
  139.2377   79.0255  223.3180 H   0  0  0  0  0  0  0  0  0  0  0  0
  138.4643   69.6431  221.9574 H   0  0  0  0  0  0  0  0  0  0  0  0
  138.8935   68.1018  223.8858 H   0  0  0  0  0  0  0  0  0  0  0  0
  139.8029   67.7919  226.1785 H   0  0  0  0  0  0  0  0  0  0  0  0
  141.5838   71.1601  228.2005 H   0  0  0  0  0  0  0  0  0  0  0  0
  141.1116   72.6086  226.2109 H   0  0  0  0  0  0  0  0  0  0  0  0
  1  2  2  0
  2  3  1  0
  3  4  1  0
  4  5  1  0
  5  6  2  0
  5  7  1  0
  7  8  1  0
  8  9  1  0
  9 10  1  0
 10 11  1  0
 11 12  1  0
 12 13  1  0
 13 14  2  0
 14 15  1  0
 15 16  2  0
 16 17  1  0
 17 18  2  0
  2 19  1  0
 19 20  2  0
 20 21  1  0
 21 22  2  0
 22 23  1  0
 23 24  2  0
 24 25  1  0
 24 26  1  0
 26 27  2  0
 27 28  1  0
 28 29  2  0
 11  7  1  0
 18 13  1  0
 29 19  1  0
 28 22  1  0
  3 30  1  0
  4 31  1  0
  4 32  1  0
  8 33  1  0
  8 34  1  0
  9 35  1  0
  9 36  1  0
 10 37  1  0
 10 38  1  0
 11 39  1  1
 12 40  1  0
 12 41  1  0
 14 42  1  0
 15 43  1  0
 16 44  1  0
 17 45  1  0
 18 46  1  0
 20 47  1  0
 21 48  1  0
 23 49  1  0
 26 50  1  0
 27 51  1  0
M  END
>  <smiles>  (8) 
O=C(NCC(=O)N1CCCC1Cc1ccccc1)c1ccc2cc(Cl)ccc2n1

>  <score_type>  (8) 
oracle

>  <origin>  (8) 
autodockgpu

>  <m_score__min__energy>  (8) 
-8.8599999999999994

>  <m_primary>  (8) 
energy

>  <rmsd>  (8) 
2.0824621985177614

>  <m_score__min__rmsd>  (8) 
2.0824621985177614

>  <meeko>  (8) 
{"free_energy": -8.83, "intermolecular_energy": -10.62, "internal_energy": -1.53, "cluster_size": 24, "cluster_id": 1, "rank_in_cluster": 2}

>  <energy>  (8) 
-8.62

>  <cluster_rmsd>  (8) 
0.47

>  <cluster>  (8) 
1

$$$$

     RDKit          3D

 51 54  0  0  0  0  0  0  0  0999 V2000
  138.3740   71.6630  220.9330 O   0  0  0  0  0  0  0  0  0  0  0  0
  138.8060   72.0610  222.0240 C   0  0  0  0  0  0  0  0  0  0  0  0
  139.0190   73.4500  222.2460 N   0  0  0  0  0  0  0  0  0  0  0  0
  138.7300   74.4010  221.1940 C   0  0  0  0  0  0  0  0  0  0  0  0
  139.9430   74.5040  220.3420 C   0  0  0  0  0  0  0  0  0  0  0  0
  140.1010   73.6080  219.4670 O   0  0  0  0  0  0  0  0  0  0  0  0
  140.8670   75.5700  220.5220 N   0  0  0  0  0  0  0  0  0  0  0  0
  142.2740   75.6480  220.2220 C   0  0  0  0  0  0  0  0  0  0  0  0
  142.5690   77.1230  219.9780 C   0  0  0  0  0  0  0  0  0  0  0  0
  141.2000   77.7900  220.0970 C   0  0  0  0  0  0  0  0  0  0  0  0
  140.5160   76.8690  221.0850 C   0  0  2  0  0  0  0  0  0  0  0  0
  141.0690   77.0220  222.4790 C   0  0  0  0  0  0  0  0  0  0  0  0
  141.2540   78.4350  222.8730 C   0  0  0  0  0  0  0  0  0  0  0  0
  142.5070   79.0130  223.0010 C   0  0  0  0  0  0  0  0  0  0  0  0
  142.6820   80.3360  223.3700 C   0  0  0  0  0  0  0  0  0  0  0  0
  141.5120   81.0610  223.6080 C   0  0  0  0  0  0  0  0  0  0  0  0
  140.2690   80.5120  223.4870 C   0  0  0  0  0  0  0  0  0  0  0  0
  140.1230   79.1880  223.1180 C   0  0  0  0  0  0  0  0  0  0  0  0
  139.1070   71.1250  223.1060 C   0  0  0  0  0  0  0  0  0  0  0  0
  138.7400   69.7970  223.0130 C   0  0  0  0  0  0  0  0  0  0  0  0
  139.0380   68.9160  224.0600 C   0  0  0  0  0  0  0  0  0  0  0  0
  139.7010   69.3890  225.1850 C   0  0  0  0  0  0  0  0  0  0  0  0
  140.0260   68.5790  226.2530 C   0  0  0  0  0  0  0  0  0  0  0  0
  140.6930   69.1180  227.3510 C   0  0  0  0  0  0  0  0  0  0  0  0
  141.1300   68.1400  228.7350 Cl  0  0  0  0  0  0  0  0  0  0  0  0
  141.0340   70.4570  227.3880 C   0  0  0  0  0  0  0  0  0  0  0  0
  140.7130   71.2840  226.3190 C   0  0  0  0  0  0  0  0  0  0  0  0
  140.0500   70.7230  225.2390 C   0  0  0  0  0  0  0  0  0  0  0  0
  139.7510   71.5340  224.2230 N   0  0  0  0  0  0  0  0  0  0  0  0
  139.3910   73.7450  223.1970 H   0  0  0  0  0  0  0  0  0  0  0  0
  137.8777   74.0500  220.5937 H   0  0  0  0  0  0  0  0  0  0  0  0
  138.4691   75.3818  221.6182 H   0  0  0  0  0  0  0  0  0  0  0  0
  142.8671   75.2745  221.0698 H   0  0  0  0  0  0  0  0  0  0  0  0
  142.5346   75.0344  219.3470 H   0  0  0  0  0  0  0  0  0  0  0  0
  143.2635   77.5148  220.7357 H   0  0  0  0  0  0  0  0  0  0  0  0
  143.0498   77.3066  219.0059 H   0  0  0  0  0  0  0  0  0  0  0  0
  141.2822   78.8143  220.4895 H   0  0  0  0  0  0  0  0  0  0  0  0
  140.6674   77.9067  219.1416 H   0  0  0  0  0  0  0  0  0  0  0  0
  139.4377   77.0530  221.2009 H   0  0  0  0  0  0  0  0  0  0  0  0
  140.3726   76.5486  223.1867 H   0  0  0  0  0  0  0  0  0  0  0  0
  142.0588   76.5424  222.4958 H   0  0  0  0  0  0  0  0  0  0  0  0
  143.3965   78.3972  222.8019 H   0  0  0  0  0  0  0  0  0  0  0  0
  143.6800   80.7879  223.4695 H   0  0  0  0  0  0  0  0  0  0  0  0
  141.5963   82.1168  223.9049 H   0  0  0  0  0  0  0  0  0  0  0  0
  139.3781   81.1263  223.6842 H   0  0  0  0  0  0  0  0  0  0  0  0
  139.1223   78.7417  223.0211 H   0  0  0  0  0  0  0  0  0  0  0  0
  138.2146   69.4318  222.1182 H   0  0  0  0  0  0  0  0  0  0  0  0
  138.7490   67.8568  223.9919 H   0  0  0  0  0  0  0  0  0  0  0  0
  139.7597   67.5118  226.2379 H   0  0  0  0  0  0  0  0  0  0  0  0
  141.5591   70.8674  228.2632 H   0  0  0  0  0  0  0  0  0  0  0  0
  140.9770   72.3518  226.3294 H   0  0  0  0  0  0  0  0  0  0  0  0
  1  2  2  0
  2  3  1  0
  3  4  1  0
  4  5  1  0
  5  6  2  0
  5  7  1  0
  7  8  1  0
  8  9  1  0
  9 10  1  0
 10 11  1  0
 11 12  1  0
 12 13  1  0
 13 14  2  0
 14 15  1  0
 15 16  2  0
 16 17  1  0
 17 18  2  0
  2 19  1  0
 19 20  2  0
 20 21  1  0
 21 22  2  0
 22 23  1  0
 23 24  2  0
 24 25  1  0
 24 26  1  0
 26 27  2  0
 27 28  1  0
 28 29  2  0
 11  7  1  0
 18 13  1  0
 29 19  1  0
 28 22  1  0
  3 30  1  0
  4 31  1  0
  4 32  1  0
  8 33  1  0
  8 34  1  0
  9 35  1  0
  9 36  1  0
 10 37  1  0
 10 38  1  0
 11 39  1  1
 12 40  1  0
 12 41  1  0
 14 42  1  0
 15 43  1  0
 16 44  1  0
 17 45  1  0
 18 46  1  0
 20 47  1  0
 21 48  1  0
 23 49  1  0
 26 50  1  0
 27 51  1  0
M  END
>  <smiles>  (9) 
O=C(NCC(=O)N1CCCC1Cc1ccccc1)c1ccc2cc(Cl)ccc2n1

>  <score_type>  (9) 
oracle

>  <origin>  (9) 
autodockgpu

>  <m_score__min__energy>  (9) 
-8.8599999999999994

>  <m_primary>  (9) 
energy

>  <rmsd>  (9) 
1.9749649667158669

>  <m_score__min__rmsd>  (9) 
1.9749649667158669

>  <meeko>  (9) 
{"free_energy": -8.62, "intermolecular_energy": -10.41, "internal_energy": -1.66, "cluster_size": 24, "cluster_id": 1, "rank_in_cluster": 8}

>  <energy>  (9) 
-8.6

>  <cluster_rmsd>  (9) 
1.18

>  <cluster>  (9) 
1

$$$$

     RDKit          3D

 51 54  0  0  0  0  0  0  0  0999 V2000
  137.7980   71.2990  221.4470 O   0  0  0  0  0  0  0  0  0  0  0  0
  138.5300   71.7070  222.3590 C   0  0  0  0  0  0  0  0  0  0  0  0
  138.9960   73.0510  222.3570 N   0  0  0  0  0  0  0  0  0  0  0  0
  138.6150   73.9450  221.2840 C   0  0  0  0  0  0  0  0  0  0  0  0
  139.5410   75.1060  221.3230 C   0  0  0  0  0  0  0  0  0  0  0  0
  140.5690   74.9900  222.0460 O   0  0  0  0  0  0  0  0  0  0  0  0
  139.2620   76.2810  220.5720 N   0  0  0  0  0  0  0  0  0  0  0  0
  138.9440   76.4450  219.1770 C   0  0  0  0  0  0  0  0  0  0  0  0
  138.1160   77.7200  219.0840 C   0  0  0  0  0  0  0  0  0  0  0  0
  137.9640   78.1610  220.5380 C   0  0  0  0  0  0  0  0  0  0  0  0
  139.2490   77.6260  221.1350 C   0  0  2  0  0  0  0  0  0  0  0  0
  140.4540   78.4130  220.6870 C   0  0  0  0  0  0  0  0  0  0  0  0
  141.1880   79.0320  221.8110 C   0  0  0  0  0  0  0  0  0  0  0  0
  141.1440   78.5210  223.0990 C   0  0  0  0  0  0  0  0  0  0  0  0
  141.8310   79.1000  224.1520 C   0  0  0  0  0  0  0  0  0  0  0  0
  142.5760   80.2390  223.8400 C   0  0  0  0  0  0  0  0  0  0  0  0
  142.6330   80.7590  222.5800 C   0  0  0  0  0  0  0  0  0  0  0  0
  141.9380   80.1610  221.5460 C   0  0  0  0  0  0  0  0  0  0  0  0
  138.9320   70.8280  223.4560 C   0  0  0  0  0  0  0  0  0  0  0  0
  138.6500   69.4770  223.4190 C   0  0  0  0  0  0  0  0  0  0  0  0
  139.0450   68.6510  224.4790 C   0  0  0  0  0  0  0  0  0  0  0  0
  139.7170   69.2040  225.5620 C   0  0  0  0  0  0  0  0  0  0  0  0
  140.1340   68.4510  226.6400 C   0  0  0  0  0  0  0  0  0  0  0  0
  140.8060   69.0680  227.6940 C   0  0  0  0  0  0  0  0  0  0  0  0
  141.3580   68.1660  229.0880 Cl  0  0  0  0  0  0  0  0  0  0  0  0
  141.0600   70.4270  227.6760 C   0  0  0  0  0  0  0  0  0  0  0  0
  140.6460   71.1960  226.5960 C   0  0  0  0  0  0  0  0  0  0  0  0
  139.9800   70.5580  225.5610 C   0  0  0  0  0  0  0  0  0  0  0  0
  139.5900   71.3140  224.5340 N   0  0  0  0  0  0  0  0  0  0  0  0
  139.6220   73.3560  223.1600 H   0  0  0  0  0  0  0  0  0  0  0  0
  138.7000   73.4287  220.3164 H   0  0  0  0  0  0  0  0  0  0  0  0
  137.5728   74.2753  221.4053 H   0  0  0  0  0  0  0  0  0  0  0  0
  139.8651   76.5429  218.5837 H   0  0  0  0  0  0  0  0  0  0  0  0
  138.3943   75.5772  218.7836 H   0  0  0  0  0  0  0  0  0  0  0  0
  138.6409   78.4863  218.4947 H   0  0  0  0  0  0  0  0  0  0  0  0
  137.1492   77.5644  218.5829 H   0  0  0  0  0  0  0  0  0  0  0  0
  137.9031   79.2559  220.6243 H   0  0  0  0  0  0  0  0  0  0  0  0
  137.0490   77.7988  221.0296 H   0  0  0  0  0  0  0  0  0  0  0  0
  139.2899   77.6740  222.2332 H   0  0  0  0  0  0  0  0  0  0  0  0
  141.1366   77.7358  220.1528 H   0  0  0  0  0  0  0  0  0  0  0  0
  140.0946   79.2267  220.0399 H   0  0  0  0  0  0  0  0  0  0  0  0
  140.5405   77.6217  223.2914 H   0  0  0  0  0  0  0  0  0  0  0  0
  141.7924   78.6884  225.1713 H   0  0  0  0  0  0  0  0  0  0  0  0
  143.1397   80.7371  224.6425 H   0  0  0  0  0  0  0  0  0  0  0  0
  143.2352   81.6589  222.3861 H   0  0  0  0  0  0  0  0  0  0  0  0
  141.9814   80.5773  220.5288 H   0  0  0  0  0  0  0  0  0  0  0  0
  138.1155   69.0496  222.5578 H   0  0  0  0  0  0  0  0  0  0  0  0
  138.8250   67.5735  224.4542 H   0  0  0  0  0  0  0  0  0  0  0  0
  139.9372   67.3691  226.6677 H   0  0  0  0  0  0  0  0  0  0  0  0
  141.5897   70.8990  228.5166 H   0  0  0  0  0  0  0  0  0  0  0  0
  140.8406   72.2781  226.5629 H   0  0  0  0  0  0  0  0  0  0  0  0
  1  2  2  0
  2  3  1  0
  3  4  1  0
  4  5  1  0
  5  6  2  0
  5  7  1  0
  7  8  1  0
  8  9  1  0
  9 10  1  0
 10 11  1  0
 11 12  1  0
 12 13  1  0
 13 14  2  0
 14 15  1  0
 15 16  2  0
 16 17  1  0
 17 18  2  0
  2 19  1  0
 19 20  2  0
 20 21  1  0
 21 22  2  0
 22 23  1  0
 23 24  2  0
 24 25  1  0
 24 26  1  0
 26 27  2  0
 27 28  1  0
 28 29  2  0
 11  7  1  0
 18 13  1  0
 29 19  1  0
 28 22  1  0
  3 30  1  0
  4 31  1  0
  4 32  1  0
  8 33  1  0
  8 34  1  0
  9 35  1  0
  9 36  1  0
 10 37  1  0
 10 38  1  0
 11 39  1  1
 12 40  1  0
 12 41  1  0
 14 42  1  0
 15 43  1  0
 16 44  1  0
 17 45  1  0
 18 46  1  0
 20 47  1  0
 21 48  1  0
 23 49  1  0
 26 50  1  0
 27 51  1  0
M  END
>  <smiles>  (10) 
O=C(NCC(=O)N1CCCC1Cc1ccccc1)c1ccc2cc(Cl)ccc2n1

>  <score_type>  (10) 
oracle

>  <origin>  (10) 
autodockgpu

>  <m_score__min__energy>  (10) 
-8.8599999999999994

>  <m_primary>  (10) 
energy

>  <rmsd>  (10) 
1.77677831457184

>  <m_score__min__rmsd>  (10) 
1.77677831457184

>  <meeko>  (10) 
{"free_energy": -8.36, "intermolecular_energy": -10.15, "internal_energy": -2.15, "cluster_size": 24, "cluster_id": 1, "rank_in_cluster": 14}

>  <energy>  (10) 
-8.57

>  <cluster_rmsd>  (10) 
1.12

>  <cluster>  (10) 
1

$$$$

     RDKit          3D

 51 54  0  0  0  0  0  0  0  0999 V2000
  134.7320   68.3460  225.0260 O   0  0  0  0  0  0  0  0  0  0  0  0
  135.0990   69.4990  224.7610 C   0  0  0  0  0  0  0  0  0  0  0  0
  136.1400   69.7200  223.8170 N   0  0  0  0  0  0  0  0  0  0  0  0
  136.7740   68.5940  223.1650 C   0  0  0  0  0  0  0  0  0  0  0  0
  138.2390   68.7250  223.3760 C   0  0  0  0  0  0  0  0  0  0  0  0
  138.8150   67.7730  223.9720 O   0  0  0  0  0  0  0  0  0  0  0  0
  138.9370   69.8770  222.9190 N   0  0  0  0  0  0  0  0  0  0  0  0
  139.6980   70.0920  221.7150 C   0  0  0  0  0  0  0  0  0  0  0  0
  139.6260   71.5880  221.4370 C   0  0  0  0  0  0  0  0  0  0  0  0
  138.7120   72.1180  222.5400 C   0  0  0  0  0  0  0  0  0  0  0  0
  139.0060   71.1350  223.6530 C   0  0  2  0  0  0  0  0  0  0  0  0
  140.3750   71.3430  224.2470 C   0  0  0  0  0  0  0  0  0  0  0  0
  140.4380   71.0020  225.6840 C   0  0  0  0  0  0  0  0  0  0  0  0
  140.9950   71.8530  226.6260 C   0  0  0  0  0  0  0  0  0  0  0  0
  141.0550   71.5350  227.9720 C   0  0  0  0  0  0  0  0  0  0  0  0
  140.5160   70.2960  228.3290 C   0  0  0  0  0  0  0  0  0  0  0  0
  139.9620   69.4450  227.4190 C   0  0  0  0  0  0  0  0  0  0  0  0
  139.9160   69.7870  226.0800 C   0  0  0  0  0  0  0  0  0  0  0  0
  134.4780   70.6570  225.4020 C   0  0  0  0  0  0  0  0  0  0  0  0
  133.5280   70.4910  226.3910 C   0  0  0  0  0  0  0  0  0  0  0  0
  132.9460   71.6120  226.9940 C   0  0  0  0  0  0  0  0  0  0  0  0
  133.3310   72.8850  226.5890 C   0  0  0  0  0  0  0  0  0  0  0  0
  132.7990   74.0330  227.1390 C   0  0  0  0  0  0  0  0  0  0  0  0
  133.2310   75.2780  226.6870 C   0  0  0  0  0  0  0  0  0  0  0  0
  132.5920   76.7690  227.3460 Cl  0  0  0  0  0  0  0  0  0  0  0  0
  134.1860   75.3820  225.6930 C   0  0  0  0  0  0  0  0  0  0  0  0
  134.7300   74.2340  225.1320 C   0  0  0  0  0  0  0  0  0  0  0  0
  134.2830   73.0070  225.5990 C   0  0  0  0  0  0  0  0  0  0  0  0
  134.8170   71.9170  225.0460 N   0  0  0  0  0  0  0  0  0  0  0  0
  136.4220   70.7260  223.6210 H   0  0  0  0  0  0  0  0  0  0  0  0
  136.4135   67.6527  223.6055 H   0  0  0  0  0  0  0  0  0  0  0  0
  136.5359   68.5827  222.0911 H   0  0  0  0  0  0  0  0  0  0  0  0
  140.7426   69.7800  221.8618 H   0  0  0  0  0  0  0  0  0  0  0  0
  139.2985   69.5054  220.8746 H   0  0  0  0  0  0  0  0  0  0  0  0
  140.6236   72.0471  221.5000 H   0  0  0  0  0  0  0  0  0  0  0  0
  139.2527   71.8164  220.4278 H   0  0  0  0  0  0  0  0  0  0  0  0
  138.9790   73.1457  222.8273 H   0  0  0  0  0  0  0  0  0  0  0  0
  137.6505   72.1816  222.2588 H   0  0  0  0  0  0  0  0  0  0  0  0
  138.3258   71.2118  224.5141 H   0  0  0  0  0  0  0  0  0  0  0  0
  141.0926   70.7099  223.7045 H   0  0  0  0  0  0  0  0  0  0  0  0
  140.6168   72.4118  224.1511 H   0  0  0  0  0  0  0  0  0  0  0  0
  141.4048   72.8174  226.2913 H   0  0  0  0  0  0  0  0  0  0  0  0
  141.4991   72.2149  228.7140 H   0  0  0  0  0  0  0  0  0  0  0  0
  140.5397   69.9952  229.3868 H   0  0  0  0  0  0  0  0  0  0  0  0
  139.5494   68.4812  227.7519 H   0  0  0  0  0  0  0  0  0  0  0  0
  139.4710   69.1025  225.3429 H   0  0  0  0  0  0  0  0  0  0  0  0
  133.2295   69.4796  226.7041 H   0  0  0  0  0  0  0  0  0  0  0  0
  132.1895   71.4867  227.7826 H   0  0  0  0  0  0  0  0  0  0  0  0
  132.0378   73.9657  227.9302 H   0  0  0  0  0  0  0  0  0  0  0  0
  134.5147   76.3730  225.3468 H   0  0  0  0  0  0  0  0  0  0  0  0
  135.4922   74.2960  224.3413 H   0  0  0  0  0  0  0  0  0  0  0  0
  1  2  2  0
  2  3  1  0
  3  4  1  0
  4  5  1  0
  5  6  2  0
  5  7  1  0
  7  8  1  0
  8  9  1  0
  9 10  1  0
 10 11  1  0
 11 12  1  0
 12 13  1  0
 13 14  2  0
 14 15  1  0
 15 16  2  0
 16 17  1  0
 17 18  2  0
  2 19  1  0
 19 20  2  0
 20 21  1  0
 21 22  2  0
 22 23  1  0
 23 24  2  0
 24 25  1  0
 24 26  1  0
 26 27  2  0
 27 28  1  0
 28 29  2  0
 11  7  1  0
 18 13  1  0
 29 19  1  0
 28 22  1  0
  3 30  1  0
  4 31  1  0
  4 32  1  0
  8 33  1  0
  8 34  1  0
  9 35  1  0
  9 36  1  0
 10 37  1  0
 10 38  1  0
 11 39  1  1
 12 40  1  0
 12 41  1  0
 14 42  1  0
 15 43  1  0
 16 44  1  0
 17 45  1  0
 18 46  1  0
 20 47  1  0
 21 48  1  0
 23 49  1  0
 26 50  1  0
 27 51  1  0
M  END
>  <smiles>  (11) 
O=C(NCC(=O)N1CCCC1Cc1ccccc1)c1ccc2cc(Cl)ccc2n1

>  <score_type>  (11) 
oracle

>  <origin>  (11) 
autodockgpu

>  <m_score__min__energy>  (11) 
-8.8599999999999994

>  <m_primary>  (11) 
energy

>  <rmsd>  (11) 
6.8950896807013375

>  <m_score__min__rmsd>  (11) 
6.8950896807013375

>  <meeko>  (11) 
{"free_energy": -8.3, "intermolecular_energy": -10.09, "internal_energy": -2.08, "cluster_size": 7, "cluster_id": 3, "rank_in_cluster": 5}

>  <energy>  (11) 
-8.47

>  <cluster_rmsd>  (11) 
1.18

>  <cluster>  (11) 
1

$$$$

     RDKit          3D

 51 54  0  0  0  0  0  0  0  0999 V2000
  142.0570   73.0440  220.6770 O   0  0  0  0  0  0  0  0  0  0  0  0
  141.3260   73.8160  221.3130 C   0  0  0  0  0  0  0  0  0  0  0  0
  140.3210   73.3010  222.1790 N   0  0  0  0  0  0  0  0  0  0  0  0
  140.1520   71.8700  222.3170 C   0  0  0  0  0  0  0  0  0  0  0  0
  138.7450   71.6260  222.7270 C   0  0  0  0  0  0  0  0  0  0  0  0
  137.9680   72.6210  222.7120 O   0  0  0  0  0  0  0  0  0  0  0  0
  138.3170   70.3260  223.1120 N   0  0  0  0  0  0  0  0  0  0  0  0
  137.0280   69.6930  222.9940 C   0  0  0  0  0  0  0  0  0  0  0  0
  137.3030   68.1960  222.9200 C   0  0  0  0  0  0  0  0  0  0  0  0
  138.8270   68.1070  222.9310 C   0  0  0  0  0  0  0  0  0  0  0  0
  139.1810   69.3350  223.7430 C   0  0  2  0  0  0  0  0  0  0  0  0
  138.8410   69.1690  225.2020 C   0  0  0  0  0  0  0  0  0  0  0  0
  139.6250   70.0620  226.0810 C   0  0  0  0  0  0  0  0  0  0  0  0
  139.5850   69.9660  227.4630 C   0  0  0  0  0  0  0  0  0  0  0  0
  140.3180   70.8020  228.2870 C   0  0  0  0  0  0  0  0  0  0  0  0
  141.1060   71.7570  227.6410 C   0  0  0  0  0  0  0  0  0  0  0  0
  141.1600   71.8680  226.2820 C   0  0  0  0  0  0  0  0  0  0  0  0
  140.4180   71.0200  225.4820 C   0  0  0  0  0  0  0  0  0  0  0  0
  141.4720   75.2660  221.1960 C   0  0  0  0  0  0  0  0  0  0  0  0
  142.1520   75.8230  220.1300 C   0  0  0  0  0  0  0  0  0  0  0  0
  142.2800   77.2140  220.0340 C   0  0  0  0  0  0  0  0  0  0  0  0
  141.7220   78.0220  221.0170 C   0  0  0  0  0  0  0  0  0  0  0  0
  141.8100   79.3980  220.9870 C   0  0  0  0  0  0  0  0  0  0  0  0
  141.2260   80.1500  222.0050 C   0  0  0  0  0  0  0  0  0  0  0  0
  141.3060   81.8980  222.0210 Cl  0  0  0  0  0  0  0  0  0  0  0  0
  140.5580   79.5360  223.0480 C   0  0  0  0  0  0  0  0  0  0  0  0
  140.4610   78.1510  223.0900 C   0  0  0  0  0  0  0  0  0  0  0  0
  141.0500   77.4270  222.0650 C   0  0  0  0  0  0  0  0  0  0  0  0
  140.9470   76.0980  222.1240 N   0  0  0  0  0  0  0  0  0  0  0  0
  139.7180   74.0010  222.7040 H   0  0  0  0  0  0  0  0  0  0  0  0
  140.3553   71.3731  221.3569 H   0  0  0  0  0  0  0  0  0  0  0  0
  140.8500   71.4670  223.0656 H   0  0  0  0  0  0  0  0  0  0  0  0
  136.4061   69.9249  223.8712 H   0  0  0  0  0  0  0  0  0  0  0  0
  136.4835   70.0479  222.1066 H   0  0  0  0  0  0  0  0  0  0  0  0
  136.8734   67.6749  223.7882 H   0  0  0  0  0  0  0  0  0  0  0  0
  136.8548   67.7236  222.0335 H   0  0  0  0  0  0  0  0  0  0  0  0
  139.1745   67.1850  223.4201 H   0  0  0  0  0  0  0  0  0  0  0  0
  139.2870   68.0750  221.9323 H   0  0  0  0  0  0  0  0  0  0  0  0
  140.2531   69.5813  223.7440 H   0  0  0  0  0  0  0  0  0  0  0  0
  137.7724   69.3900  225.3406 H   0  0  0  0  0  0  0  0  0  0  0  0
  139.0848   68.1335  225.4818 H   0  0  0  0  0  0  0  0  0  0  0  0
  138.9468   69.1966  227.9221 H   0  0  0  0  0  0  0  0  0  0  0  0
  140.2821   70.7194  229.3833 H   0  0  0  0  0  0  0  0  0  0  0  0
  141.7068   72.4469  228.2517 H   0  0  0  0  0  0  0  0  0  0  0  0
  141.7976   72.6366  225.8208 H   0  0  0  0  0  0  0  0  0  0  0  0
  140.4586   71.1070  224.3862 H   0  0  0  0  0  0  0  0  0  0  0  0
  142.5921   75.1747  219.3580 H   0  0  0  0  0  0  0  0  0  0  0  0
  142.8183   77.6637  219.1867 H   0  0  0  0  0  0  0  0  0  0  0  0
  142.3388   79.8999  220.1633 H   0  0  0  0  0  0  0  0  0  0  0  0
  140.1035   80.1439  223.8442 H   0  0  0  0  0  0  0  0  0  0  0  0
  139.9331   77.6443  223.9113 H   0  0  0  0  0  0  0  0  0  0  0  0
  1  2  2  0
  2  3  1  0
  3  4  1  0
  4  5  1  0
  5  6  2  0
  5  7  1  0
  7  8  1  0
  8  9  1  0
  9 10  1  0
 10 11  1  0
 11 12  1  0
 12 13  1  0
 13 14  2  0
 14 15  1  0
 15 16  2  0
 16 17  1  0
 17 18  2  0
  2 19  1  0
 19 20  2  0
 20 21  1  0
 21 22  2  0
 22 23  1  0
 23 24  2  0
 24 25  1  0
 24 26  1  0
 26 27  2  0
 27 28  1  0
 28 29  2  0
 11  7  1  0
 18 13  1  0
 29 19  1  0
 28 22  1  0
  3 30  1  0
  4 31  1  0
  4 32  1  0
  8 33  1  0
  8 34  1  0
  9 35  1  0
  9 36  1  0
 10 37  1  0
 10 38  1  0
 11 39  1  1
 12 40  1  0
 12 41  1  0
 14 42  1  0
 15 43  1  0
 16 44  1  0
 17 45  1  0
 18 46  1  0
 20 47  1  0
 21 48  1  0
 23 49  1  0
 26 50  1  0
 27 51  1  0
M  END
>  <smiles>  (12) 
O=C(NCC(=O)N1CCCC1Cc1ccccc1)c1ccc2cc(Cl)ccc2n1

>  <score_type>  (12) 
oracle

>  <origin>  (12) 
autodockgpu

>  <m_score__min__energy>  (12) 
-8.8599999999999994

>  <m_primary>  (12) 
energy

>  <rmsd>  (12) 
8.34745909442221

>  <m_score__min__rmsd>  (12) 
8.34745909442221

>  <meeko>  (12) 
{"free_energy": -8.08, "intermolecular_energy": -9.87, "internal_energy": -2.23, "cluster_size": 10, "cluster_id": 4, "rank_in_cluster": 6}

>  <energy>  (12) 
-8.47

>  <cluster_rmsd>  (12) 
1.19

>  <cluster>  (12) 
1

$$$$

     RDKit          3D

 51 54  0  0  0  0  0  0  0  0999 V2000
  133.5770   70.1260  226.5140 O   0  0  0  0  0  0  0  0  0  0  0  0
  133.8870   71.2600  226.1220 C   0  0  0  0  0  0  0  0  0  0  0  0
  134.9240   71.4270  225.1630 N   0  0  0  0  0  0  0  0  0  0  0  0
  135.6200   70.2690  224.6440 C   0  0  0  0  0  0  0  0  0  0  0  0
  136.5970   70.7530  223.6340 C   0  0  0  0  0  0  0  0  0  0  0  0
  136.3630   71.8780  223.1100 O   0  0  0  0  0  0  0  0  0  0  0  0
  137.7330   69.9700  223.2910 N   0  0  0  0  0  0  0  0  0  0  0  0
  137.8270   68.7300  222.5630 C   0  0  0  0  0  0  0  0  0  0  0  0
  139.2150   68.7200  221.9330 C   0  0  0  0  0  0  0  0  0  0  0  0
  139.7990   70.0760  222.3240 C   0  0  0  0  0  0  0  0  0  0  0  0
  139.1030   70.3180  223.6470 C   0  0  2  0  0  0  0  0  0  0  0  0
  139.6260   69.4180  224.7370 C   0  0  0  0  0  0  0  0  0  0  0  0
  140.0080   70.1570  225.9590 C   0  0  0  0  0  0  0  0  0  0  0  0
  140.7780   71.3090  225.9210 C   0  0  0  0  0  0  0  0  0  0  0  0
  141.1370   72.0010  227.0640 C   0  0  0  0  0  0  0  0  0  0  0  0
  140.6760   71.4670  228.2700 C   0  0  0  0  0  0  0  0  0  0  0  0
  139.9170   70.3350  228.3300 C   0  0  0  0  0  0  0  0  0  0  0  0
  139.5730   69.6630  227.1720 C   0  0  0  0  0  0  0  0  0  0  0  0
  133.2030   72.4490  226.6280 C   0  0  0  0  0  0  0  0  0  0  0  0
  131.9840   72.3440  227.2680 C   0  0  0  0  0  0  0  0  0  0  0  0
  131.3440   73.4940  227.7460 C   0  0  0  0  0  0  0  0  0  0  0  0
  131.9460   74.7340  227.5700 C   0  0  0  0  0  0  0  0  0  0  0  0
  131.3730   75.9080  228.0140 C   0  0  0  0  0  0  0  0  0  0  0  0
  132.0310   77.1190  227.8050 C   0  0  0  0  0  0  0  0  0  0  0  0
  131.3540   78.6400  228.3460 Cl  0  0  0  0  0  0  0  0  0  0  0  0
  133.2510   77.1620  227.1570 C   0  0  0  0  0  0  0  0  0  0  0  0
  133.8380   75.9880  226.7050 C   0  0  0  0  0  0  0  0  0  0  0  0
  133.1640   74.7970  226.9260 C   0  0  0  0  0  0  0  0  0  0  0  0
  133.7440   73.6800  226.4830 N   0  0  0  0  0  0  0  0  0  0  0  0
  135.1560   72.4180  224.8560 H   0  0  0  0  0  0  0  0  0  0  0  0
  136.1470   69.7508  225.4587 H   0  0  0  0  0  0  0  0  0  0  0  0
  134.9110   69.5610  224.1902 H   0  0  0  0  0  0  0  0  0  0  0  0
  137.7105   67.8756  223.2459 H   0  0  0  0  0  0  0  0  0  0  0  0
  137.0372   68.6476  221.8018 H   0  0  0  0  0  0  0  0  0  0  0  0
  139.8241   67.8988  222.3386 H   0  0  0  0  0  0  0  0  0  0  0  0
  139.1882   68.5650  220.8443 H   0  0  0  0  0  0  0  0  0  0  0  0
  140.8912   70.0260  222.4450 H   0  0  0  0  0  0  0  0  0  0  0  0
  139.6442   70.8692  221.5778 H   0  0  0  0  0  0  0  0  0  0  0  0
  139.2388   71.3328  224.0492 H   0  0  0  0  0  0  0  0  0  0  0  0
  138.8432   68.6903  224.9971 H   0  0  0  0  0  0  0  0  0  0  0  0
  140.5313   68.9254  224.3525 H   0  0  0  0  0  0  0  0  0  0  0  0
  141.1164   71.6873  224.9451 H   0  0  0  0  0  0  0  0  0  0  0  0
  141.7476   72.9151  227.0256 H   0  0  0  0  0  0  0  0  0  0  0  0
  140.9353   71.9796  229.2081 H   0  0  0  0  0  0  0  0  0  0  0  0
  139.5771   69.9551  229.3047 H   0  0  0  0  0  0  0  0  0  0  0  0
  138.9623   68.7492  227.2166 H   0  0  0  0  0  0  0  0  0  0  0  0
  131.5160   71.3576  227.4022 H   0  0  0  0  0  0  0  0  0  0  0  0
  130.3728   73.4165  228.2566 H   0  0  0  0  0  0  0  0  0  0  0  0
  130.4019   75.8884  228.5303 H   0  0  0  0  0  0  0  0  0  0  0  0
  133.7567   78.1261  226.9995 H   0  0  0  0  0  0  0  0  0  0  0  0
  134.8084   76.0024  226.1872 H   0  0  0  0  0  0  0  0  0  0  0  0
  1  2  2  0
  2  3  1  0
  3  4  1  0
  4  5  1  0
  5  6  2  0
  5  7  1  0
  7  8  1  0
  8  9  1  0
  9 10  1  0
 10 11  1  0
 11 12  1  0
 12 13  1  0
 13 14  2  0
 14 15  1  0
 15 16  2  0
 16 17  1  0
 17 18  2  0
  2 19  1  0
 19 20  2  0
 20 21  1  0
 21 22  2  0
 22 23  1  0
 23 24  2  0
 24 25  1  0
 24 26  1  0
 26 27  2  0
 27 28  1  0
 28 29  2  0
 11  7  1  0
 18 13  1  0
 29 19  1  0
 28 22  1  0
  3 30  1  0
  4 31  1  0
  4 32  1  0
  8 33  1  0
  8 34  1  0
  9 35  1  0
  9 36  1  0
 10 37  1  0
 10 38  1  0
 11 39  1  1
 12 40  1  0
 12 41  1  0
 14 42  1  0
 15 43  1  0
 16 44  1  0
 17 45  1  0
 18 46  1  0
 20 47  1  0
 21 48  1  0
 23 49  1  0
 26 50  1  0
 27 51  1  0
M  END
>  <smiles>  (13) 
O=C(NCC(=O)N1CCCC1Cc1ccccc1)c1ccc2cc(Cl)ccc2n1

>  <score_type>  (13) 
oracle

>  <origin>  (13) 
autodockgpu

>  <m_score__min__energy>  (13) 
-8.8599999999999994

>  <m_primary>  (13) 
energy

>  <rmsd>  (13) 
8.322439979832616

>  <m_score__min__rmsd>  (13) 
8.322439979832616

>  <meeko>  (13) 
{"free_energy": -8.43, "intermolecular_energy": -10.22, "internal_energy": -2.15, "cluster_size": 7, "cluster_id": 3, "rank_in_cluster": 3}

>  <energy>  (13) 
-8.36

>  <cluster_rmsd>  (13) 
1.21

>  <cluster>  (13) 
1

$$$$

     RDKit          3D

 51 54  0  0  0  0  0  0  0  0999 V2000
  140.1320   72.2440  220.5600 O   0  0  0  0  0  0  0  0  0  0  0  0
  139.9300   72.6350  221.7180 C   0  0  0  0  0  0  0  0  0  0  0  0
  139.7480   74.0210  221.9840 N   0  0  0  0  0  0  0  0  0  0  0  0
  139.7990   74.9760  220.8990 C   0  0  0  0  0  0  0  0  0  0  0  0
  140.7920   76.0180  221.2700 C   0  0  0  0  0  0  0  0  0  0  0  0
  141.0200   76.1730  222.5020 O   0  0  0  0  0  0  0  0  0  0  0  0
  141.4420   76.7890  220.2680 N   0  0  0  0  0  0  0  0  0  0  0  0
  142.7820   76.7040  219.7460 C   0  0  0  0  0  0  0  0  0  0  0  0
  142.7130   77.2510  218.3250 C   0  0  0  0  0  0  0  0  0  0  0  0
  141.2290   77.5530  218.1260 C   0  0  0  0  0  0  0  0  0  0  0  0
  140.8100   77.8850  219.5420 C   0  0  2  0  0  0  0  0  0  0  0  0
  141.3490   79.2180  219.9960 C   0  0  0  0  0  0  0  0  0  0  0  0
  141.3780   79.3570  221.4670 C   0  0  0  0  0  0  0  0  0  0  0  0
  140.2530   79.1670  222.2540 C   0  0  0  0  0  0  0  0  0  0  0  0
  140.2780   79.2970  223.6310 C   0  0  0  0  0  0  0  0  0  0  0  0
  141.5140   79.6340  224.1880 C   0  0  0  0  0  0  0  0  0  0  0  0
  142.6330   79.8250  223.4330 C   0  0  0  0  0  0  0  0  0  0  0  0
  142.5800   79.6890  222.0580 C   0  0  0  0  0  0  0  0  0  0  0  0
  139.8720   71.6940  222.8350 C   0  0  0  0  0  0  0  0  0  0  0  0
  139.2320   70.4780  222.7020 C   0  0  0  0  0  0  0  0  0  0  0  0
  139.1880   69.5900  223.7840 C   0  0  0  0  0  0  0  0  0  0  0  0
  139.7900   69.9440  224.9850 C   0  0  0  0  0  0  0  0  0  0  0  0
  139.7840   69.1200  226.0910 C   0  0  0  0  0  0  0  0  0  0  0  0
  140.4080   69.5370  227.2650 C   0  0  0  0  0  0  0  0  0  0  0  0
  140.4340   68.5350  228.7000 Cl  0  0  0  0  0  0  0  0  0  0  0  0
  141.0330   70.7670  227.3400 C   0  0  0  0  0  0  0  0  0  0  0  0
  141.0460   71.6070  226.2330 C   0  0  0  0  0  0  0  0  0  0  0  0
  140.4190   71.1680  225.0770 C   0  0  0  0  0  0  0  0  0  0  0  0
  140.4420   71.9890  224.0270 N   0  0  0  0  0  0  0  0  0  0  0  0
  139.5770   74.3100  222.9920 H   0  0  0  0  0  0  0  0  0  0  0  0
  140.1097   74.4742  219.9708 H   0  0  0  0  0  0  0  0  0  0  0  0
  138.8092   75.4254  220.7304 H   0  0  0  0  0  0  0  0  0  0  0  0
  143.4691   77.3090  220.3558 H   0  0  0  0  0  0  0  0  0  0  0  0
  143.1568   75.6699  219.7626 H   0  0  0  0  0  0  0  0  0  0  0  0
  143.3162   78.1656  218.2269 H   0  0  0  0  0  0  0  0  0  0  0  0
  143.1093   76.5480  217.5775 H   0  0  0  0  0  0  0  0  0  0  0  0
  141.0776   78.4068  217.4491 H   0  0  0  0  0  0  0  0  0  0  0  0
  140.6575   76.7346  217.6639 H   0  0  0  0  0  0  0  0  0  0  0  0
  139.7224   77.9733  219.6813 H   0  0  0  0  0  0  0  0  0  0  0  0
  142.3739   79.3309  219.6127 H   0  0  0  0  0  0  0  0  0  0  0  0
  140.6769   79.9959  219.6046 H   0  0  0  0  0  0  0  0  0  0  0  0
  139.3039   78.9027  221.7649 H   0  0  0  0  0  0  0  0  0  0  0  0
  139.3807   79.1445  224.2487 H   0  0  0  0  0  0  0  0  0  0  0  0
  141.5873   79.7499  225.2794 H   0  0  0  0  0  0  0  0  0  0  0  0
  143.5832   80.0887  223.9203 H   0  0  0  0  0  0  0  0  0  0  0  0
  143.4807   79.8429  221.4456 H   0  0  0  0  0  0  0  0  0  0  0  0
  138.7573   70.2070  221.7474 H   0  0  0  0  0  0  0  0  0  0  0  0
  138.6805   68.6192  223.6837 H   0  0  0  0  0  0  0  0  0  0  0  0
  139.2891   68.1386  226.0465 H   0  0  0  0  0  0  0  0  0  0  0  0
  141.5198   71.0810  228.2751 H   0  0  0  0  0  0  0  0  0  0  0  0
  141.5385   72.5898  226.2727 H   0  0  0  0  0  0  0  0  0  0  0  0
  1  2  2  0
  2  3  1  0
  3  4  1  0
  4  5  1  0
  5  6  2  0
  5  7  1  0
  7  8  1  0
  8  9  1  0
  9 10  1  0
 10 11  1  0
 11 12  1  0
 12 13  1  0
 13 14  2  0
 14 15  1  0
 15 16  2  0
 16 17  1  0
 17 18  2  0
  2 19  1  0
 19 20  2  0
 20 21  1  0
 21 22  2  0
 22 23  1  0
 23 24  2  0
 24 25  1  0
 24 26  1  0
 26 27  2  0
 27 28  1  0
 28 29  2  0
 11  7  1  0
 18 13  1  0
 29 19  1  0
 28 22  1  0
  3 30  1  0
  4 31  1  0
  4 32  1  0
  8 33  1  0
  8 34  1  0
  9 35  1  0
  9 36  1  0
 10 37  1  0
 10 38  1  0
 11 39  1  6
 12 40  1  0
 12 41  1  0
 14 42  1  0
 15 43  1  0
 16 44  1  0
 17 45  1  0
 18 46  1  0
 20 47  1  0
 21 48  1  0
 23 49  1  0
 26 50  1  0
 27 51  1  0
M  END
>  <smiles>  (14) 
O=C(NCC(=O)N1CCCC1Cc1ccccc1)c1ccc2cc(Cl)ccc2n1

>  <score_type>  (14) 
oracle

>  <origin>  (14) 
autodockgpu

>  <m_score__min__energy>  (14) 
-8.8599999999999994

>  <m_primary>  (14) 
energy

>  <rmsd>  (14) 
2.1493062003617673

>  <m_score__min__rmsd>  (14) 
2.1493062003617673

>  <meeko>  (14) 
{"free_energy": -8.6, "intermolecular_energy": -10.39, "internal_energy": -2.05, "cluster_size": 24, "cluster_id": 1, "rank_in_cluster": 9}

>  <energy>  (14) 
-8.36

>  <cluster_rmsd>  (14) 
1.27

>  <cluster>  (14) 
1

$$$$

     RDKit          3D

 51 54  0  0  0  0  0  0  0  0999 V2000
  139.6190   72.1470  220.6780 O   0  0  0  0  0  0  0  0  0  0  0  0
  139.6280   72.5100  221.8630 C   0  0  0  0  0  0  0  0  0  0  0  0
  139.5390   73.8920  222.1890 N   0  0  0  0  0  0  0  0  0  0  0  0
  139.4370   74.8770  221.1330 C   0  0  0  0  0  0  0  0  0  0  0  0
  140.6640   75.7120  221.1840 C   0  0  0  0  0  0  0  0  0  0  0  0
  141.1980   75.8700  222.3170 O   0  0  0  0  0  0  0  0  0  0  0  0
  141.1940   76.2950  220.0010 N   0  0  0  0  0  0  0  0  0  0  0  0
  140.6090   76.4520  218.6940 C   0  0  0  0  0  0  0  0  0  0  0  0
  141.2860   77.6690  218.0750 C   0  0  0  0  0  0  0  0  0  0  0  0
  142.2050   78.1740  219.1850 C   0  0  0  0  0  0  0  0  0  0  0  0
  142.5260   76.8800  219.9040 C   0  0  2  0  0  0  0  0  0  0  0  0
  143.4490   75.9990  219.1010 C   0  0  0  0  0  0  0  0  0  0  0  0
  143.7030   74.6940  219.7460 C   0  0  0  0  0  0  0  0  0  0  0  0
  142.8170   73.6320  219.6490 C   0  0  0  0  0  0  0  0  0  0  0  0
  143.0540   72.4090  220.2530 C   0  0  0  0  0  0  0  0  0  0  0  0
  144.2470   72.3060  220.9730 C   0  0  0  0  0  0  0  0  0  0  0  0
  145.1330   73.3380  221.0800 C   0  0  0  0  0  0  0  0  0  0  0  0
  144.8710   74.5490  220.4670 C   0  0  0  0  0  0  0  0  0  0  0  0
  139.7300   71.5400  222.9510 C   0  0  0  0  0  0  0  0  0  0  0  0
  139.2860   70.2420  222.7850 C   0  0  0  0  0  0  0  0  0  0  0  0
  139.3940   69.3270  223.8390 C   0  0  0  0  0  0  0  0  0  0  0  0
  139.9460   69.7360  225.0470 C   0  0  0  0  0  0  0  0  0  0  0  0
  140.0820   68.8880  226.1260 C   0  0  0  0  0  0  0  0  0  0  0  0
  140.6460   69.3630  227.3090 C   0  0  0  0  0  0  0  0  0  0  0  0
  140.8430   68.3360  228.7120 Cl  0  0  0  0  0  0  0  0  0  0  0  0
  141.0720   70.6740  227.4170 C   0  0  0  0  0  0  0  0  0  0  0  0
  140.9410   71.5370  226.3370 C   0  0  0  0  0  0  0  0  0  0  0  0
  140.3770   71.0400  225.1720 C   0  0  0  0  0  0  0  0  0  0  0  0
  140.2600   71.8850  224.1470 N   0  0  0  0  0  0  0  0  0  0  0  0
  139.5510   74.1570  223.2180 H   0  0  0  0  0  0  0  0  0  0  0  0
  139.3640   74.3753  220.1568 H   0  0  0  0  0  0  0  0  0  0  0  0
  138.5390   75.4980  221.2668 H   0  0  0  0  0  0  0  0  0  0  0  0
  140.7960   75.5577  218.0815 H   0  0  0  0  0  0  0  0  0  0  0  0
  139.5186   76.5840  218.7535 H   0  0  0  0  0  0  0  0  0  0  0  0
  141.8657   77.3850  217.1843 H   0  0  0  0  0  0  0  0  0  0  0  0
  140.5681   78.4303  217.7359 H   0  0  0  0  0  0  0  0  0  0  0  0
  143.1113   78.6449  218.7764 H   0  0  0  0  0  0  0  0  0  0  0  0
  141.7599   78.9503  219.8247 H   0  0  0  0  0  0  0  0  0  0  0  0
  143.0489   77.0138  220.8625 H   0  0  0  0  0  0  0  0  0  0  0  0
  142.9947   75.8209  218.1151 H   0  0  0  0  0  0  0  0  0  0  0  0
  144.4142   76.5201  219.0185 H   0  0  0  0  0  0  0  0  0  0  0  0
  141.8911   73.7662  219.0705 H   0  0  0  0  0  0  0  0  0  0  0  0
  142.3469   71.5703  220.1711 H   0  0  0  0  0  0  0  0  0  0  0  0
  144.4812   71.3549  221.4736 H   0  0  0  0  0  0  0  0  0  0  0  0
  146.0602   73.2058  221.6568 H   0  0  0  0  0  0  0  0  0  0  0  0
  145.5821   75.3839  220.5525 H   0  0  0  0  0  0  0  0  0  0  0  0
  138.8483   69.9281  221.8259 H   0  0  0  0  0  0  0  0  0  0  0  0
  139.0445   68.2918  223.7119 H   0  0  0  0  0  0  0  0  0  0  0  0
  139.7473   67.8427  226.0536 H   0  0  0  0  0  0  0  0  0  0  0  0
  141.5144   71.0331  228.3579 H   0  0  0  0  0  0  0  0  0  0  0  0
  141.2745   72.5831  226.4037 H   0  0  0  0  0  0  0  0  0  0  0  0
  1  2  2  0
  2  3  1  0
  3  4  1  0
  4  5  1  0
  5  6  2  0
  5  7  1  0
  7  8  1  0
  8  9  1  0
  9 10  1  0
 10 11  1  0
 11 12  1  0
 12 13  1  0
 13 14  2  0
 14 15  1  0
 15 16  2  0
 16 17  1  0
 17 18  2  0
  2 19  1  0
 19 20  2  0
 20 21  1  0
 21 22  2  0
 22 23  1  0
 23 24  2  0
 24 25  1  0
 24 26  1  0
 26 27  2  0
 27 28  1  0
 28 29  2  0
 11  7  1  0
 18 13  1  0
 29 19  1  0
 28 22  1  0
  3 30  1  0
  4 31  1  0
  4 32  1  0
  8 33  1  0
  8 34  1  0
  9 35  1  0
  9 36  1  0
 10 37  1  0
 10 38  1  0
 11 39  1  1
 12 40  1  0
 12 41  1  0
 14 42  1  0
 15 43  1  0
 16 44  1  0
 17 45  1  0
 18 46  1  0
 20 47  1  0
 21 48  1  0
 23 49  1  0
 26 50  1  0
 27 51  1  0
M  END
>  <smiles>  (15) 
O=C(NCC(=O)N1CCCC1Cc1ccccc1)c1ccc2cc(Cl)ccc2n1

>  <score_type>  (15) 
oracle

>  <origin>  (15) 
autodockgpu

>  <m_score__min__energy>  (15) 
-8.8599999999999994

>  <m_primary>  (15) 
energy

>  <rmsd>  (15) 
1.6304492368383159

>  <m_score__min__rmsd>  (15) 
1.6304492368383159

>  <meeko>  (15) 
{"free_energy": -8.13, "intermolecular_energy": -9.92, "internal_energy": -2.38, "cluster_size": 8, "cluster_id": 2, "rank_in_cluster": 5}

>  <energy>  (15) 
-8.34

>  <cluster_rmsd>  (15) 
0.62

>  <cluster>  (15) 
1

$$$$

     RDKit          3D

 51 54  0  0  0  0  0  0  0  0999 V2000
  140.9200   74.1600  221.9910 O   0  0  0  0  0  0  0  0  0  0  0  0
  140.2060   73.1670  221.7950 C   0  0  0  0  0  0  0  0  0  0  0  0
  139.5970   72.9620  220.5260 N   0  0  0  0  0  0  0  0  0  0  0  0
  139.8120   73.9170  219.4600 C   0  0  0  0  0  0  0  0  0  0  0  0
  139.4340   75.2570  219.9800 C   0  0  0  0  0  0  0  0  0  0  0  0
  138.2060   75.4620  220.1840 O   0  0  0  0  0  0  0  0  0  0  0  0
  140.4270   76.2440  220.2300 N   0  0  0  0  0  0  0  0  0  0  0  0
  141.8120   76.2960  219.8360 C   0  0  0  0  0  0  0  0  0  0  0  0
  142.1720   77.7750  219.7680 C   0  0  0  0  0  0  0  0  0  0  0  0
  140.8550   78.4830  220.0800 C   0  0  0  0  0  0  0  0  0  0  0  0
  140.1910   77.4680  220.9860 C   0  0  2  0  0  0  0  0  0  0  0  0
  140.8470   77.4020  222.3420 C   0  0  0  0  0  0  0  0  0  0  0  0
  141.2460   78.7310  222.8520 C   0  0  0  0  0  0  0  0  0  0  0  0
  142.5720   79.1230  222.9470 C   0  0  0  0  0  0  0  0  0  0  0  0
  142.9470   80.3670  223.4250 C   0  0  0  0  0  0  0  0  0  0  0  0
  141.9030   81.2110  223.8110 C   0  0  0  0  0  0  0  0  0  0  0  0
  140.5920   80.8450  223.7260 C   0  0  0  0  0  0  0  0  0  0  0  0
  140.2450   79.5970  223.2450 C   0  0  0  0  0  0  0  0  0  0  0  0
  139.9690   72.1850  222.8520 C   0  0  0  0  0  0  0  0  0  0  0  0
  139.0250   71.1890  222.6920 C   0  0  0  0  0  0  0  0  0  0  0  0
  138.8130   70.2570  223.7150 C   0  0  0  0  0  0  0  0  0  0  0  0
  139.5570   70.3450  224.8860 C   0  0  0  0  0  0  0  0  0  0  0  0
  139.4010   69.4620  225.9330 C   0  0  0  0  0  0  0  0  0  0  0  0
  140.1810   69.6060  227.0790 C   0  0  0  0  0  0  0  0  0  0  0  0
  140.0280   68.5170  228.4410 Cl  0  0  0  0  0  0  0  0  0  0  0  0
  141.1110   70.6230  227.1820 C   0  0  0  0  0  0  0  0  0  0  0  0
  141.2780   71.5190  226.1340 C   0  0  0  0  0  0  0  0  0  0  0  0
  140.4900   71.3530  225.0060 C   0  0  0  0  0  0  0  0  0  0  0  0
  140.6660   72.2240  224.0110 N   0  0  0  0  0  0  0  0  0  0  0  0
  138.9920   72.0960  220.4040 H   0  0  0  0  0  0  0  0  0  0  0  0
  140.8706   73.9147  219.1612 H   0  0  0  0  0  0  0  0  0  0  0  0
  139.2068   73.6578  218.5788 H   0  0  0  0  0  0  0  0  0  0  0  0
  142.4406   75.7830  220.5788 H   0  0  0  0  0  0  0  0  0  0  0  0
  141.9760   75.7958  218.8701 H   0  0  0  0  0  0  0  0  0  0  0  0
  142.9392   78.0267  220.5150 H   0  0  0  0  0  0  0  0  0  0  0  0
  142.5927   78.0670  218.7945 H   0  0  0  0  0  0  0  0  0  0  0  0
  141.0227   79.4387  220.5981 H   0  0  0  0  0  0  0  0  0  0  0  0
  140.2643   78.7549  219.1928 H   0  0  0  0  0  0  0  0  0  0  0  0
  139.1357   77.6850  221.2078 H   0  0  0  0  0  0  0  0  0  0  0  0
  140.1392   76.9510  223.0530 H   0  0  0  0  0  0  0  0  0  0  0  0
  141.7615   76.7996  222.2379 H   0  0  0  0  0  0  0  0  0  0  0  0
  143.3560   78.4192  222.6307 H   0  0  0  0  0  0  0  0  0  0  0  0
  144.0015   80.6718  223.4964 H   0  0  0  0  0  0  0  0  0  0  0  0
  142.1481   82.2107  224.1990 H   0  0  0  0  0  0  0  0  0  0  0  0
  139.8065   81.5472  224.0421 H   0  0  0  0  0  0  0  0  0  0  0  0
  139.1886   79.2983  223.1763 H   0  0  0  0  0  0  0  0  0  0  0  0
  138.4407   71.1283  221.7620 H   0  0  0  0  0  0  0  0  0  0  0  0
  138.0635   69.4612  223.5931 H   0  0  0  0  0  0  0  0  0  0  0  0
  138.6646   68.6478  225.8643 H   0  0  0  0  0  0  0  0  0  0  0  0
  141.7186   70.7228  228.0935 H   0  0  0  0  0  0  0  0  0  0  0  0
  142.0129   72.3351  226.1973 H   0  0  0  0  0  0  0  0  0  0  0  0
  1  2  2  0
  2  3  1  0
  3  4  1  0
  4  5  1  0
  5  6  2  0
  5  7  1  0
  7  8  1  0
  8  9  1  0
  9 10  1  0
 10 11  1  0
 11 12  1  0
 12 13  1  0
 13 14  2  0
 14 15  1  0
 15 16  2  0
 16 17  1  0
 17 18  2  0
  2 19  1  0
 19 20  2  0
 20 21  1  0
 21 22  2  0
 22 23  1  0
 23 24  2  0
 24 25  1  0
 24 26  1  0
 26 27  2  0
 27 28  1  0
 28 29  2  0
 11  7  1  0
 18 13  1  0
 29 19  1  0
 28 22  1  0
  3 30  1  0
  4 31  1  0
  4 32  1  0
  8 33  1  0
  8 34  1  0
  9 35  1  0
  9 36  1  0
 10 37  1  0
 10 38  1  0
 11 39  1  1
 12 40  1  0
 12 41  1  0
 14 42  1  0
 15 43  1  0
 16 44  1  0
 17 45  1  0
 18 46  1  0
 20 47  1  0
 21 48  1  0
 23 49  1  0
 26 50  1  0
 27 51  1  0
M  END
>  <smiles>  (16) 
O=C(NCC(=O)N1CCCC1Cc1ccccc1)c1ccc2cc(Cl)ccc2n1

>  <score_type>  (16) 
oracle

>  <origin>  (16) 
autodockgpu

>  <m_score__min__energy>  (16) 
-8.8599999999999994

>  <m_primary>  (16) 
energy

>  <rmsd>  (16) 
2.4408654797967206

>  <m_score__min__rmsd>  (16) 
2.4408654797967206

>  <meeko>  (16) 
{"free_energy": -8.47, "intermolecular_energy": -10.26, "internal_energy": -1.41, "cluster_size": 24, "cluster_id": 1, "rank_in_cluster": 11}

>  <energy>  (16) 
-8.33

>  <cluster_rmsd>  (16) 
1.15

>  <cluster>  (16) 
1

$$$$

     RDKit          3D

 51 54  0  0  0  0  0  0  0  0999 V2000
  138.5620   73.7200  220.3250 O   0  0  0  0  0  0  0  0  0  0  0  0
  138.4750   74.4050  221.3540 C   0  0  0  0  0  0  0  0  0  0  0  0
  137.5050   74.0880  222.3450 N   0  0  0  0  0  0  0  0  0  0  0  0
  136.6150   72.9640  222.1500 C   0  0  0  0  0  0  0  0  0  0  0  0
  137.2190   71.7940  222.8400 C   0  0  0  0  0  0  0  0  0  0  0  0
  136.4770   71.1620  223.6420 O   0  0  0  0  0  0  0  0  0  0  0  0
  138.5690   71.4240  222.5930 N   0  0  0  0  0  0  0  0  0  0  0  0
  139.1480   70.6700  221.5100 C   0  0  0  0  0  0  0  0  0  0  0  0
  140.5910   71.1470  221.3930 C   0  0  0  0  0  0  0  0  0  0  0  0
  140.6920   72.2540  222.4400 C   0  0  0  0  0  0  0  0  0  0  0  0
  139.6850   71.7740  223.4640 C   0  0  2  0  0  0  0  0  0  0  0  0
  140.1790   70.5690  224.2240 C   0  0  0  0  0  0  0  0  0  0  0  0
  140.3770   70.8390  225.6630 C   0  0  0  0  0  0  0  0  0  0  0  0
  141.1160   71.9180  226.1230 C   0  0  0  0  0  0  0  0  0  0  0  0
  141.3030   72.1710  227.4710 C   0  0  0  0  0  0  0  0  0  0  0  0
  140.7000   71.2680  228.3490 C   0  0  0  0  0  0  0  0  0  0  0  0
  139.9690   70.2000  227.9190 C   0  0  0  0  0  0  0  0  0  0  0  0
  139.7980   69.9700  226.5660 C   0  0  0  0  0  0  0  0  0  0  0  0
  139.3590   75.5470  221.5800 C   0  0  0  0  0  0  0  0  0  0  0  0
  140.6180   75.5890  221.0120 C   0  0  0  0  0  0  0  0  0  0  0  0
  141.4500   76.6920  221.2390 C   0  0  0  0  0  0  0  0  0  0  0  0
  140.9990   77.7360  222.0390 C   0  0  0  0  0  0  0  0  0  0  0  0
  141.7650   78.8520  222.3050 C   0  0  0  0  0  0  0  0  0  0  0  0
  141.2510   79.8630  223.1150 C   0  0  0  0  0  0  0  0  0  0  0  0
  142.1750   81.3020  223.4890 Cl  0  0  0  0  0  0  0  0  0  0  0  0
  139.9830   79.7650  223.6570 C   0  0  0  0  0  0  0  0  0  0  0  0
  139.2020   78.6470  223.3960 C   0  0  0  0  0  0  0  0  0  0  0  0
  139.7360   77.6550  222.5870 C   0  0  0  0  0  0  0  0  0  0  0  0
  138.9710   76.5900  222.3490 N   0  0  0  0  0  0  0  0  0  0  0  0
  137.4670   74.7030  223.2110 H   0  0  0  0  0  0  0  0  0  0  0  0
  135.6280   73.1867  222.5815 H   0  0  0  0  0  0  0  0  0  0  0  0
  136.4808   72.7562  221.0782 H   0  0  0  0  0  0  0  0  0  0  0  0
  139.1179   69.5935  221.7343 H   0  0  0  0  0  0  0  0  0  0  0  0
  138.5951   70.8222  220.5713 H   0  0  0  0  0  0  0  0  0  0  0  0
  141.2934   70.3305  221.6164 H   0  0  0  0  0  0  0  0  0  0  0  0
  140.8448   71.4935  220.3803 H   0  0  0  0  0  0  0  0  0  0  0  0
  141.7041   72.3158  222.8665 H   0  0  0  0  0  0  0  0  0  0  0  0
  140.4983   73.2649  222.0520 H   0  0  0  0  0  0  0  0  0  0  0  0
  139.4533   72.5099  224.2481 H   0  0  0  0  0  0  0  0  0  0  0  0
  139.4417   69.7598  224.1168 H   0  0  0  0  0  0  0  0  0  0  0  0
  141.1562   70.2905  223.8026 H   0  0  0  0  0  0  0  0  0  0  0  0
  141.5711   72.5990  225.3888 H   0  0  0  0  0  0  0  0  0  0  0  0
  141.8900   73.0299  227.8283 H   0  0  0  0  0  0  0  0  0  0  0  0
  140.8194   71.4244  229.4312 H   0  0  0  0  0  0  0  0  0  0  0  0
  139.5131   69.5181  228.6519 H   0  0  0  0  0  0  0  0  0  0  0  0
  139.2103   69.1088  226.2152 H   0  0  0  0  0  0  0  0  0  0  0  0
  140.9661   74.7569  220.3823 H   0  0  0  0  0  0  0  0  0  0  0  0
  142.4525   76.7323  220.7880 H   0  0  0  0  0  0  0  0  0  0  0  0
  142.7756   78.9434  221.8803 H   0  0  0  0  0  0  0  0  0  0  0  0
  139.5931   80.5721  224.2946 H   0  0  0  0  0  0  0  0  0  0  0  0
  138.1907   78.5510  223.8179 H   0  0  0  0  0  0  0  0  0  0  0  0
  1  2  2  0
  2  3  1  0
  3  4  1  0
  4  5  1  0
  5  6  2  0
  5  7  1  0
  7  8  1  0
  8  9  1  0
  9 10  1  0
 10 11  1  0
 11 12  1  0
 12 13  1  0
 13 14  2  0
 14 15  1  0
 15 16  2  0
 16 17  1  0
 17 18  2  0
  2 19  1  0
 19 20  2  0
 20 21  1  0
 21 22  2  0
 22 23  1  0
 23 24  2  0
 24 25  1  0
 24 26  1  0
 26 27  2  0
 27 28  1  0
 28 29  2  0
 11  7  1  0
 18 13  1  0
 29 19  1  0
 28 22  1  0
  3 30  1  0
  4 31  1  0
  4 32  1  0
  8 33  1  0
  8 34  1  0
  9 35  1  0
  9 36  1  0
 10 37  1  0
 10 38  1  0
 11 39  1  1
 12 40  1  0
 12 41  1  0
 14 42  1  0
 15 43  1  0
 16 44  1  0
 17 45  1  0
 18 46  1  0
 20 47  1  0
 21 48  1  0
 23 49  1  0
 26 50  1  0
 27 51  1  0
M  END
>  <smiles>  (17) 
O=C(NCC(=O)N1CCCC1Cc1ccccc1)c1ccc2cc(Cl)ccc2n1

>  <score_type>  (17) 
oracle

>  <origin>  (17) 
autodockgpu

>  <m_score__min__energy>  (17) 
-8.8599999999999994

>  <m_primary>  (17) 
energy

>  <rmsd>  (17) 
7.112989926588482

>  <m_score__min__rmsd>  (17) 
7.112989926588482

>  <meeko>  (17) 
{"free_energy": -8.29, "intermolecular_energy": -10.08, "internal_energy": -2.07, "cluster_size": 10, "cluster_id": 4, "rank_in_cluster": 2}

>  <energy>  (17) 
-8.31

>  <cluster_rmsd>  (17) 
1.47

>  <cluster>  (17) 
1

$$$$

     RDKit          3D

 51 54  0  0  0  0  0  0  0  0999 V2000
  138.9670   72.1950  220.6940 O   0  0  0  0  0  0  0  0  0  0  0  0
  139.6470   72.4420  221.7000 C   0  0  0  0  0  0  0  0  0  0  0  0
  140.4030   73.6450  221.7750 N   0  0  0  0  0  0  0  0  0  0  0  0
  140.3790   74.5820  220.6730 C   0  0  0  0  0  0  0  0  0  0  0  0
  141.1800   75.7660  221.0780 C   0  0  0  0  0  0  0  0  0  0  0  0
  141.2850   75.9850  222.3170 O   0  0  0  0  0  0  0  0  0  0  0  0
  141.7900   76.5980  220.1000 N   0  0  0  0  0  0  0  0  0  0  0  0
  143.0880   76.5160  219.4820 C   0  0  0  0  0  0  0  0  0  0  0  0
  142.9450   77.1810  218.1180 C   0  0  0  0  0  0  0  0  0  0  0  0
  141.4630   77.5420  218.0450 C   0  0  0  0  0  0  0  0  0  0  0  0
  141.1500   77.7690  219.5100 C   0  0  2  0  0  0  0  0  0  0  0  0
  141.7650   79.0430  220.0310 C   0  0  0  0  0  0  0  0  0  0  0  0
  141.5930   79.2100  221.4890 C   0  0  0  0  0  0  0  0  0  0  0  0
  142.6080   79.6810  222.3080 C   0  0  0  0  0  0  0  0  0  0  0  0
  142.4480   79.8370  223.6740 C   0  0  0  0  0  0  0  0  0  0  0  0
  141.1950   79.4900  224.1840 C   0  0  0  0  0  0  0  0  0  0  0  0
  140.1830   79.0260  223.3970 C   0  0  0  0  0  0  0  0  0  0  0  0
  140.3690   78.8790  222.0350 C   0  0  0  0  0  0  0  0  0  0  0  0
  139.6920   71.5160  222.8300 C   0  0  0  0  0  0  0  0  0  0  0  0
  139.1410   70.2530  222.7300 C   0  0  0  0  0  0  0  0  0  0  0  0
  139.1950   69.3790  223.8220 C   0  0  0  0  0  0  0  0  0  0  0  0
  139.8040   69.7940  225.0010 C   0  0  0  0  0  0  0  0  0  0  0  0
  139.8920   68.9870  226.1160 C   0  0  0  0  0  0  0  0  0  0  0  0
  140.5170   69.4650  227.2660 C   0  0  0  0  0  0  0  0  0  0  0  0
  140.6590   68.4880  228.7110 Cl  0  0  0  0  0  0  0  0  0  0  0  0
  141.0500   70.7400  227.3080 C   0  0  0  0  0  0  0  0  0  0  0  0
  140.9680   71.5630  226.1920 C   0  0  0  0  0  0  0  0  0  0  0  0
  140.3420   71.0630  225.0600 C   0  0  0  0  0  0  0  0  0  0  0  0
  140.2730   71.8680  224.0000 N   0  0  0  0  0  0  0  0  0  0  0  0
  140.9720   73.8150  222.6570 H   0  0  0  0  0  0  0  0  0  0  0  0
  140.8185   74.1196  219.7769 H   0  0  0  0  0  0  0  0  0  0  0  0
  139.3458   74.8753  220.4354 H   0  0  0  0  0  0  0  0  0  0  0  0
  143.8353   77.0470  220.0899 H   0  0  0  0  0  0  0  0  0  0  0  0
  143.4255   75.4732  219.3891 H   0  0  0  0  0  0  0  0  0  0  0  0
  143.5720   78.0825  218.0534 H   0  0  0  0  0  0  0  0  0  0  0  0
  143.2667   76.5310  217.2910 H   0  0  0  0  0  0  0  0  0  0  0  0
  141.2975   78.4526  217.4505 H   0  0  0  0  0  0  0  0  0  0  0  0
  140.8339   76.7819  217.5587 H   0  0  0  0  0  0  0  0  0  0  0  0
  140.0779   77.8782  219.7308 H   0  0  0  0  0  0  0  0  0  0  0  0
  142.8412   79.0319  219.8035 H   0  0  0  0  0  0  0  0  0  0  0  0
  141.2514   79.8825  219.5397 H   0  0  0  0  0  0  0  0  0  0  0  0
  143.5764   79.9403  221.8553 H   0  0  0  0  0  0  0  0  0  0  0  0
  143.2575   80.2111  224.3180 H   0  0  0  0  0  0  0  0  0  0  0  0
  141.0174   79.5953  225.2645 H   0  0  0  0  0  0  0  0  0  0  0  0
  139.2136   78.7673  223.8480 H   0  0  0  0  0  0  0  0  0  0  0  0
  139.5551   78.5044  221.3968 H   0  0  0  0  0  0  0  0  0  0  0  0
  138.6604   69.9346  221.7932 H   0  0  0  0  0  0  0  0  0  0  0  0
  138.7591   68.3718  223.7480 H   0  0  0  0  0  0  0  0  0  0  0  0
  139.4708   67.9710  226.0975 H   0  0  0  0  0  0  0  0  0  0  0  0
  141.5386   71.1024  228.2245 H   0  0  0  0  0  0  0  0  0  0  0  0
  141.3867   72.5801  226.2057 H   0  0  0  0  0  0  0  0  0  0  0  0
  1  2  2  0
  2  3  1  0
  3  4  1  0
  4  5  1  0
  5  6  2  0
  5  7  1  0
  7  8  1  0
  8  9  1  0
  9 10  1  0
 10 11  1  0
 11 12  1  0
 12 13  1  0
 13 14  2  0
 14 15  1  0
 15 16  2  0
 16 17  1  0
 17 18  2  0
  2 19  1  0
 19 20  2  0
 20 21  1  0
 21 22  2  0
 22 23  1  0
 23 24  2  0
 24 25  1  0
 24 26  1  0
 26 27  2  0
 27 28  1  0
 28 29  2  0
 11  7  1  0
 18 13  1  0
 29 19  1  0
 28 22  1  0
  3 30  1  0
  4 31  1  0
  4 32  1  0
  8 33  1  0
  8 34  1  0
  9 35  1  0
  9 36  1  0
 10 37  1  0
 10 38  1  0
 11 39  1  6
 12 40  1  0
 12 41  1  0
 14 42  1  0
 15 43  1  0
 16 44  1  0
 17 45  1  0
 18 46  1  0
 20 47  1  0
 21 48  1  0
 23 49  1  0
 26 50  1  0
 27 51  1  0
M  END
>  <smiles>  (18) 
O=C(NCC(=O)N1CCCC1Cc1ccccc1)c1ccc2cc(Cl)ccc2n1

>  <score_type>  (18) 
oracle

>  <origin>  (18) 
autodockgpu

>  <m_score__min__energy>  (18) 
-8.8599999999999994

>  <m_primary>  (18) 
energy

>  <rmsd>  (18) 
2.1973996077479834

>  <m_score__min__rmsd>  (18) 
2.1973996077479834

>  <meeko>  (18) 
{"free_energy": -8.14, "intermolecular_energy": -9.93, "internal_energy": -2.34, "cluster_size": 24, "cluster_id": 1, "rank_in_cluster": 20}

>  <energy>  (18) 
-8.3

>  <cluster_rmsd>  (18) 
1.41

>  <cluster>  (18) 
1

$$$$

     RDKit          3D

 51 54  0  0  0  0  0  0  0  0999 V2000
  139.4900   71.9710  220.6150 O   0  0  0  0  0  0  0  0  0  0  0  0
  139.5530   72.3630  221.7880 C   0  0  0  0  0  0  0  0  0  0  0  0
  139.5270   73.7560  222.0800 N   0  0  0  0  0  0  0  0  0  0  0  0
  139.4270   74.7160  221.0030 C   0  0  0  0  0  0  0  0  0  0  0  0
  140.5300   75.6960  221.1770 C   0  0  0  0  0  0  0  0  0  0  0  0
  140.9300   75.8980  222.3570 O   0  0  0  0  0  0  0  0  0  0  0  0
  141.0920   76.3620  220.0530 N   0  0  0  0  0  0  0  0  0  0  0  0
  140.5170   76.6770  218.7700 C   0  0  0  0  0  0  0  0  0  0  0  0
  141.2610   77.9100  218.2700 C   0  0  0  0  0  0  0  0  0  0  0  0
  142.2050   78.2540  219.4200 C   0  0  0  0  0  0  0  0  0  0  0  0
  142.4540   76.8810  220.0080 C   0  0  2  0  0  0  0  0  0  0  0  0
  143.3280   76.0330  219.1190 C   0  0  0  0  0  0  0  0  0  0  0  0
  143.6930   74.7400  219.7360 C   0  0  0  0  0  0  0  0  0  0  0  0
  142.9110   73.6040  219.5990 C   0  0  0  0  0  0  0  0  0  0  0  0
  143.2520   72.3930  220.1770 C   0  0  0  0  0  0  0  0  0  0  0  0
  144.4400   72.3820  220.9110 C   0  0  0  0  0  0  0  0  0  0  0  0
  145.2250   73.4880  221.0580 C   0  0  0  0  0  0  0  0  0  0  0  0
  144.8600   74.6850  220.4710 C   0  0  0  0  0  0  0  0  0  0  0  0
  139.6550   71.4180  222.8980 C   0  0  0  0  0  0  0  0  0  0  0  0
  139.1650   70.1320  222.7780 C   0  0  0  0  0  0  0  0  0  0  0  0
  139.2730   69.2400  223.8520 C   0  0  0  0  0  0  0  0  0  0  0  0
  139.8720   69.6610  225.0330 C   0  0  0  0  0  0  0  0  0  0  0  0
  140.0110   68.8370  226.1300 C   0  0  0  0  0  0  0  0  0  0  0  0
  140.6240   69.3220  227.2840 C   0  0  0  0  0  0  0  0  0  0  0  0
  140.8280   68.3240  228.7080 Cl  0  0  0  0  0  0  0  0  0  0  0  0
  141.0950   70.6200  227.3460 C   0  0  0  0  0  0  0  0  0  0  0  0
  140.9610   71.4600  226.2480 C   0  0  0  0  0  0  0  0  0  0  0  0
  140.3490   70.9530  225.1130 C   0  0  0  0  0  0  0  0  0  0  0  0
  140.2290   71.7750  224.0700 N   0  0  0  0  0  0  0  0  0  0  0  0
  139.5840   74.0460  223.1010 H   0  0  0  0  0  0  0  0  0  0  0  0
  139.5272   74.2054  220.0338 H   0  0  0  0  0  0  0  0  0  0  0  0
  138.4508   75.2225  221.0238 H   0  0  0  0  0  0  0  0  0  0  0  0
  140.6551   75.8378  218.0724 H   0  0  0  0  0  0  0  0  0  0  0  0
  139.4353   76.8615  218.8466 H   0  0  0  0  0  0  0  0  0  0  0  0
  141.8255   77.6828  217.3537 H   0  0  0  0  0  0  0  0  0  0  0  0
  140.5862   78.7388  218.0098 H   0  0  0  0  0  0  0  0  0  0  0  0
  143.1360   78.7125  219.0553 H   0  0  0  0  0  0  0  0  0  0  0  0
  141.8023   78.9875  220.1340 H   0  0  0  0  0  0  0  0  0  0  0  0
  142.9824   76.8928  220.9727 H   0  0  0  0  0  0  0  0  0  0  0  0
  142.7876   75.8346  218.1816 H   0  0  0  0  0  0  0  0  0  0  0  0
  144.2602   76.5902  218.9439 H   0  0  0  0  0  0  0  0  0  0  0  0
  141.9848   73.6668  219.0090 H   0  0  0  0  0  0  0  0  0  0  0  0
  142.6261   71.4954  220.0650 H   0  0  0  0  0  0  0  0  0  0  0  0
  144.7556   71.4434  221.3901 H   0  0  0  0  0  0  0  0  0  0  0  0
  146.1525   73.4270  221.6462 H   0  0  0  0  0  0  0  0  0  0  0  0
  145.4895   75.5795  220.5877 H   0  0  0  0  0  0  0  0  0  0  0  0
  138.6904   69.8090  221.8397 H   0  0  0  0  0  0  0  0  0  0  0  0
  138.8867   68.2141  223.7615 H   0  0  0  0  0  0  0  0  0  0  0  0
  139.6399   67.8021  226.0945 H   0  0  0  0  0  0  0  0  0  0  0  0
  141.5758   70.9876  228.2645 H   0  0  0  0  0  0  0  0  0  0  0  0
  141.3294   72.4960  226.2786 H   0  0  0  0  0  0  0  0  0  0  0  0
  1  2  2  0
  2  3  1  0
  3  4  1  0
  4  5  1  0
  5  6  2  0
  5  7  1  0
  7  8  1  0
  8  9  1  0
  9 10  1  0
 10 11  1  0
 11 12  1  0
 12 13  1  0
 13 14  2  0
 14 15  1  0
 15 16  2  0
 16 17  1  0
 17 18  2  0
  2 19  1  0
 19 20  2  0
 20 21  1  0
 21 22  2  0
 22 23  1  0
 23 24  2  0
 24 25  1  0
 24 26  1  0
 26 27  2  0
 27 28  1  0
 28 29  2  0
 11  7  1  0
 18 13  1  0
 29 19  1  0
 28 22  1  0
  3 30  1  0
  4 31  1  0
  4 32  1  0
  8 33  1  0
  8 34  1  0
  9 35  1  0
  9 36  1  0
 10 37  1  0
 10 38  1  0
 11 39  1  1
 12 40  1  0
 12 41  1  0
 14 42  1  0
 15 43  1  0
 16 44  1  0
 17 45  1  0
 18 46  1  0
 20 47  1  0
 21 48  1  0
 23 49  1  0
 26 50  1  0
 27 51  1  0
M  END
>  <smiles>  (19) 
O=C(NCC(=O)N1CCCC1Cc1ccccc1)c1ccc2cc(Cl)ccc2n1

>  <score_type>  (19) 
oracle

>  <origin>  (19) 
autodockgpu

>  <m_score__min__energy>  (19) 
-8.8599999999999994

>  <m_primary>  (19) 
energy

>  <rmsd>  (19) 
1.6316943839758964

>  <m_score__min__rmsd>  (19) 
1.6316943839758964

>  <meeko>  (19) 
{"free_energy": -8.16, "intermolecular_energy": -9.95, "internal_energy": -2.42, "cluster_size": 8, "cluster_id": 2, "rank_in_cluster": 4}

>  <energy>  (19) 
-8.25

>  <cluster_rmsd>  (19) 
1.68

>  <cluster>  (19) 
1

$$$$

     RDKit          3D

 51 54  0  0  0  0  0  0  0  0999 V2000
  141.9860   73.0970  220.6320 O   0  0  0  0  0  0  0  0  0  0  0  0
  141.2530   73.8660  221.2700 C   0  0  0  0  0  0  0  0  0  0  0  0
  140.2400   73.3470  222.1230 N   0  0  0  0  0  0  0  0  0  0  0  0
  140.0630   71.9160  222.2450 C   0  0  0  0  0  0  0  0  0  0  0  0
  138.6660   71.6760  222.6900 C   0  0  0  0  0  0  0  0  0  0  0  0
  137.8960   72.6760  222.7080 O   0  0  0  0  0  0  0  0  0  0  0  0
  138.2400   70.3750  223.0730 N   0  0  0  0  0  0  0  0  0  0  0  0
  136.9590   69.7320  222.9300 C   0  0  0  0  0  0  0  0  0  0  0  0
  137.2470   68.2360  222.8690 C   0  0  0  0  0  0  0  0  0  0  0  0
  138.7710   68.1590  222.9140 C   0  0  0  0  0  0  0  0  0  0  0  0
  139.0980   69.3940  223.7270 C   0  0  2  0  0  0  0  0  0  0  0  0
  138.7270   69.2320  225.1790 C   0  0  0  0  0  0  0  0  0  0  0  0
  139.5630   70.0520  226.0810 C   0  0  0  0  0  0  0  0  0  0  0  0
  140.3220   71.1190  225.6260 C   0  0  0  0  0  0  0  0  0  0  0  0
  141.1050   71.8870  226.4700 C   0  0  0  0  0  0  0  0  0  0  0  0
  141.0870   71.5220  227.8180 C   0  0  0  0  0  0  0  0  0  0  0  0
  140.3470   70.4770  228.2870 C   0  0  0  0  0  0  0  0  0  0  0  0
  139.5730   69.7250  227.4230 C   0  0  0  0  0  0  0  0  0  0  0  0
  141.4070   75.3160  221.1690 C   0  0  0  0  0  0  0  0  0  0  0  0
  142.1030   75.8810  220.1170 C   0  0  0  0  0  0  0  0  0  0  0  0
  142.2390   77.2720  220.0370 C   0  0  0  0  0  0  0  0  0  0  0  0
  141.6710   78.0730  221.0210 C   0  0  0  0  0  0  0  0  0  0  0  0
  141.7660   79.4490  221.0050 C   0  0  0  0  0  0  0  0  0  0  0  0
  141.1720   80.1930  222.0230 C   0  0  0  0  0  0  0  0  0  0  0  0
  141.2590   81.9410  222.0570 Cl  0  0  0  0  0  0  0  0  0  0  0  0
  140.4880   79.5720  223.0510 C   0  0  0  0  0  0  0  0  0  0  0  0
  140.3850   78.1870  223.0780 C   0  0  0  0  0  0  0  0  0  0  0  0
  140.9840   77.4700  222.0540 C   0  0  0  0  0  0  0  0  0  0  0  0
  140.8740   76.1420  222.0990 N   0  0  0  0  0  0  0  0  0  0  0  0
  139.6360   74.0440  222.6510 H   0  0  0  0  0  0  0  0  0  0  0  0
  140.2360   71.4318  221.2726 H   0  0  0  0  0  0  0  0  0  0  0  0
  140.7778   71.4971  222.9686 H   0  0  0  0  0  0  0  0  0  0  0  0
  136.3164   69.9631  223.7924 H   0  0  0  0  0  0  0  0  0  0  0  0
  136.4313   70.0788  222.0293 H   0  0  0  0  0  0  0  0  0  0  0  0
  136.8023   67.7155  223.7300 H   0  0  0  0  0  0  0  0  0  0  0  0
  136.8220   67.7561  221.9751 H   0  0  0  0  0  0  0  0  0  0  0  0
  139.1147   67.2423  223.4156 H   0  0  0  0  0  0  0  0  0  0  0  0
  139.2530   68.1255  221.9258 H   0  0  0  0  0  0  0  0  0  0  0  0
  140.1678   69.6489  223.7495 H   0  0  0  0  0  0  0  0  0  0  0  0
  137.6758   69.5291  225.3080 H   0  0  0  0  0  0  0  0  0  0  0  0
  138.8899   68.1773  225.4457 H   0  0  0  0  0  0  0  0  0  0  0  0
  140.3012   71.3645  224.5539 H   0  0  0  0  0  0  0  0  0  0  0  0
  141.7045   72.7327  226.1019 H   0  0  0  0  0  0  0  0  0  0  0  0
  141.6940   72.1006  228.5298 H   0  0  0  0  0  0  0  0  0  0  0  0
  140.3661   70.2310  229.3590 H   0  0  0  0  0  0  0  0  0  0  0  0
  138.9755   68.8809  227.7977 H   0  0  0  0  0  0  0  0  0  0  0  0
  142.5494   75.2386  219.3437 H   0  0  0  0  0  0  0  0  0  0  0  0
  142.7911   77.7277  219.2018 H   0  0  0  0  0  0  0  0  0  0  0  0
  142.3077   79.9564  220.1932 H   0  0  0  0  0  0  0  0  0  0  0  0
  140.0256   80.1740  223.8471 H   0  0  0  0  0  0  0  0  0  0  0  0
  139.8444   77.6747  223.8875 H   0  0  0  0  0  0  0  0  0  0  0  0
  1  2  2  0
  2  3  1  0
  3  4  1  0
  4  5  1  0
  5  6  2  0
  5  7  1  0
  7  8  1  0
  8  9  1  0
  9 10  1  0
 10 11  1  0
 11 12  1  0
 12 13  1  0
 13 14  2  0
 14 15  1  0
 15 16  2  0
 16 17  1  0
 17 18  2  0
  2 19  1  0
 19 20  2  0
 20 21  1  0
 21 22  2  0
 22 23  1  0
 23 24  2  0
 24 25  1  0
 24 26  1  0
 26 27  2  0
 27 28  1  0
 28 29  2  0
 11  7  1  0
 18 13  1  0
 29 19  1  0
 28 22  1  0
  3 30  1  0
  4 31  1  0
  4 32  1  0
  8 33  1  0
  8 34  1  0
  9 35  1  0
  9 36  1  0
 10 37  1  0
 10 38  1  0
 11 39  1  1
 12 40  1  0
 12 41  1  0
 14 42  1  0
 15 43  1  0
 16 44  1  0
 17 45  1  0
 18 46  1  0
 20 47  1  0
 21 48  1  0
 23 49  1  0
 26 50  1  0
 27 51  1  0
M  END
>  <smiles>  (20) 
O=C(NCC(=O)N1CCCC1Cc1ccccc1)c1ccc2cc(Cl)ccc2n1

>  <score_type>  (20) 
oracle

>  <origin>  (20) 
autodockgpu

>  <m_score__min__energy>  (20) 
-8.8599999999999994

>  <m_primary>  (20) 
energy

>  <rmsd>  (20) 
8.342605739657003

>  <m_score__min__rmsd>  (20) 
8.342605739657003

>  <meeko>  (20) 
{"free_energy": -8.09, "intermolecular_energy": -9.88, "internal_energy": -2.26, "cluster_size": 10, "cluster_id": 4, "rank_in_cluster": 5}

>  <energy>  (20) 
-8.14

>  <cluster_rmsd>  (20) 
1.18

>  <cluster>  (20) 
1

$$$$

     RDKit          3D

 51 54  0  0  0  0  0  0  0  0999 V2000
  139.8880   72.1700  220.6630 O   0  0  0  0  0  0  0  0  0  0  0  0
  139.4900   72.4660  221.7990 C   0  0  0  0  0  0  0  0  0  0  0  0
  138.9140   73.7430  222.0450 N   0  0  0  0  0  0  0  0  0  0  0  0
  138.7930   74.7000  220.9660 C   0  0  0  0  0  0  0  0  0  0  0  0
  139.2130   76.0230  221.4960 C   0  0  0  0  0  0  0  0  0  0  0  0
  138.7570   76.3540  222.6260 O   0  0  0  0  0  0  0  0  0  0  0  0
  140.0860   76.8600  220.7490 N   0  0  0  0  0  0  0  0  0  0  0  0
  139.7990   77.8370  219.7300 C   0  0  0  0  0  0  0  0  0  0  0  0
  140.9410   78.8440  219.7830 C   0  0  0  0  0  0  0  0  0  0  0  0
  141.7960   78.3610  220.9530 C   0  0  0  0  0  0  0  0  0  0  0  0
  141.5360   76.8700  220.9010 C   0  0  2  0  0  0  0  0  0  0  0  0
  142.2100   76.2170  219.7210 C   0  0  0  0  0  0  0  0  0  0  0  0
  142.9960   75.0220  220.0950 C   0  0  0  0  0  0  0  0  0  0  0  0
  142.4030   73.8030  220.3860 C   0  0  0  0  0  0  0  0  0  0  0  0
  143.1380   72.6840  220.7380 C   0  0  0  0  0  0  0  0  0  0  0  0
  144.5230   72.8550  220.7830 C   0  0  0  0  0  0  0  0  0  0  0  0
  145.1270   74.0450  220.5000 C   0  0  0  0  0  0  0  0  0  0  0  0
  144.3700   75.1470  220.1520 C   0  0  0  0  0  0  0  0  0  0  0  0
  139.5990   71.5210  222.9090 C   0  0  0  0  0  0  0  0  0  0  0  0
  139.1120   70.2340  222.7910 C   0  0  0  0  0  0  0  0  0  0  0  0
  139.2260   69.3430  223.8650 C   0  0  0  0  0  0  0  0  0  0  0  0
  139.8280   69.7670  225.0440 C   0  0  0  0  0  0  0  0  0  0  0  0
  139.9740   68.9440  226.1420 C   0  0  0  0  0  0  0  0  0  0  0  0
  140.5890   69.4320  227.2930 C   0  0  0  0  0  0  0  0  0  0  0  0
  140.8010   68.4360  228.7160 Cl  0  0  0  0  0  0  0  0  0  0  0  0
  141.0570   70.7310  227.3530 C   0  0  0  0  0  0  0  0  0  0  0  0
  140.9160   71.5700  226.2540 C   0  0  0  0  0  0  0  0  0  0  0  0
  140.3010   71.0600  225.1210 C   0  0  0  0  0  0  0  0  0  0  0  0
  140.1760   71.8810  224.0780 N   0  0  0  0  0  0  0  0  0  0  0  0
  138.5870   73.9530  223.0340 H   0  0  0  0  0  0  0  0  0  0  0  0
  139.4434   74.4068  220.1287 H   0  0  0  0  0  0  0  0  0  0  0  0
  137.7575   74.7404  220.5972 H   0  0  0  0  0  0  0  0  0  0  0  0
  139.7575   77.3573  218.7410 H   0  0  0  0  0  0  0  0  0  0  0  0
  138.8257   78.3212  219.8977 H   0  0  0  0  0  0  0  0  0  0  0  0
  141.5169   78.8336  218.8458 H   0  0  0  0  0  0  0  0  0  0  0  0
  140.5909   79.8791  219.9097 H   0  0  0  0  0  0  0  0  0  0  0  0
  142.8604   78.5916  220.7984 H   0  0  0  0  0  0  0  0  0  0  0  0
  141.5539   78.8313  221.9175 H   0  0  0  0  0  0  0  0  0  0  0  0
  141.9190   76.3149  221.7700 H   0  0  0  0  0  0  0  0  0  0  0  0
  141.4375   75.9166  218.9978 H   0  0  0  0  0  0  0  0  0  0  0  0
  142.9090   76.9507  219.2930 H   0  0  0  0  0  0  0  0  0  0  0  0
  141.3072   73.7220  220.3353 H   0  0  0  0  0  0  0  0  0  0  0  0
  142.6606   71.7200  220.9680 H   0  0  0  0  0  0  0  0  0  0  0  0
  145.1524   71.9957  221.0577 H   0  0  0  0  0  0  0  0  0  0  0  0
  146.2228   74.1275  220.5492 H   0  0  0  0  0  0  0  0  0  0  0  0
  144.8538   76.1082  219.9240 H   0  0  0  0  0  0  0  0  0  0  0  0
  138.6352   69.9094  221.8544 H   0  0  0  0  0  0  0  0  0  0  0  0
  138.8423   68.3159  223.7765 H   0  0  0  0  0  0  0  0  0  0  0  0
  139.6066   67.9077  226.1087 H   0  0  0  0  0  0  0  0  0  0  0  0
  141.5405   71.1004  228.2694 H   0  0  0  0  0  0  0  0  0  0  0  0
  141.2813   72.6072  226.2823 H   0  0  0  0  0  0  0  0  0  0  0  0
  1  2  2  0
  2  3  1  0
  3  4  1  0
  4  5  1  0
  5  6  2  0
  5  7  1  0
  7  8  1  0
  8  9  1  0
  9 10  1  0
 10 11  1  0
 11 12  1  0
 12 13  1  0
 13 14  2  0
 14 15  1  0
 15 16  2  0
 16 17  1  0
 17 18  2  0
  2 19  1  0
 19 20  2  0
 20 21  1  0
 21 22  2  0
 22 23  1  0
 23 24  2  0
 24 25  1  0
 24 26  1  0
 26 27  2  0
 27 28  1  0
 28 29  2  0
 11  7  1  0
 18 13  1  0
 29 19  1  0
 28 22  1  0
  3 30  1  0
  4 31  1  0
  4 32  1  0
  8 33  1  0
  8 34  1  0
  9 35  1  0
  9 36  1  0
 10 37  1  0
 10 38  1  0
 11 39  1  1
 12 40  1  0
 12 41  1  0
 14 42  1  0
 15 43  1  0
 16 44  1  0
 17 45  1  0
 18 46  1  0
 20 47  1  0
 21 48  1  0
 23 49  1  0
 26 50  1  0
 27 51  1  0
M  END
>  <smiles>  (21) 
O=C(NCC(=O)N1CCCC1Cc1ccccc1)c1ccc2cc(Cl)ccc2n1

>  <score_type>  (21) 
oracle

>  <origin>  (21) 
autodockgpu

>  <m_score__min__energy>  (21) 
-8.8599999999999994

>  <m_primary>  (21) 
energy

>  <rmsd>  (21) 
2.007316248439789

>  <m_score__min__rmsd>  (21) 
2.007316248439789

>  <meeko>  (21) 
{"free_energy": -8.1, "intermolecular_energy": -9.89, "internal_energy": -2.16, "cluster_size": 8, "cluster_id": 2, "rank_in_cluster": 6}

>  <energy>  (21) 
-8.09

>  <cluster_rmsd>  (21) 
1.19

>  <cluster>  (21) 
1

$$$$

     RDKit          3D

 51 54  0  0  0  0  0  0  0  0999 V2000
  133.5610   70.1780  226.5150 O   0  0  0  0  0  0  0  0  0  0  0  0
  133.8340   71.2980  226.0590 C   0  0  0  0  0  0  0  0  0  0  0  0
  134.7940   71.4330  225.0180 N   0  0  0  0  0  0  0  0  0  0  0  0
  135.4550   70.2590  224.4900 C   0  0  0  0  0  0  0  0  0  0  0  0
  136.7930   70.6830  224.0020 C   0  0  0  0  0  0  0  0  0  0  0  0
  137.0160   71.9250  223.9630 O   0  0  0  0  0  0  0  0  0  0  0  0
  137.7590   69.7190  223.6040 N   0  0  0  0  0  0  0  0  0  0  0  0
  137.5910   68.3660  223.1370 C   0  0  0  0  0  0  0  0  0  0  0  0
  138.8020   68.0740  222.2590 C   0  0  0  0  0  0  0  0  0  0  0  0
  139.5650   69.3970  222.2430 C   0  0  0  0  0  0  0  0  0  0  0  0
  139.1980   69.9560  223.6020 C   0  0  2  0  0  0  0  0  0  0  0  0
  139.8730   69.2100  224.7240 C   0  0  0  0  0  0  0  0  0  0  0  0
  140.1650   70.0690  225.8910 C   0  0  0  0  0  0  0  0  0  0  0  0
  140.8760   71.2540  225.7840 C   0  0  0  0  0  0  0  0  0  0  0  0
  141.1500   72.0580  226.8760 C   0  0  0  0  0  0  0  0  0  0  0  0
  140.6660   71.6030  228.1040 C   0  0  0  0  0  0  0  0  0  0  0  0
  139.9650   70.4400  228.2330 C   0  0  0  0  0  0  0  0  0  0  0  0
  139.7050   69.6550  227.1260 C   0  0  0  0  0  0  0  0  0  0  0  0
  133.1840   72.5030  226.5720 C   0  0  0  0  0  0  0  0  0  0  0  0
  131.9770   72.4240  227.2400 C   0  0  0  0  0  0  0  0  0  0  0  0
  131.3700   73.5890  227.7250 C   0  0  0  0  0  0  0  0  0  0  0  0
  131.9900   74.8170  227.5250 C   0  0  0  0  0  0  0  0  0  0  0  0
  131.4490   76.0040  227.9740 C   0  0  0  0  0  0  0  0  0  0  0  0
  132.1240   77.2010  227.7410 C   0  0  0  0  0  0  0  0  0  0  0  0
  131.4870   78.7380  228.2860 Cl  0  0  0  0  0  0  0  0  0  0  0  0
  133.3290   77.2180  227.0650 C   0  0  0  0  0  0  0  0  0  0  0  0
  133.8840   76.0290  226.6080 C   0  0  0  0  0  0  0  0  0  0  0  0
  133.1940   74.8530  226.8530 C   0  0  0  0  0  0  0  0  0  0  0  0
  133.7430   73.7230  226.4060 N   0  0  0  0  0  0  0  0  0  0  0  0
  134.9960   72.4120  224.6590 H   0  0  0  0  0  0  0  0  0  0  0  0
  135.5658   69.5025  225.2808 H   0  0  0  0  0  0  0  0  0  0  0  0
  134.8662   69.8167  223.6729 H   0  0  0  0  0  0  0  0  0  0  0  0
  137.5579   67.6690  223.9874 H   0  0  0  0  0  0  0  0  0  0  0  0
  136.6499   68.2447  222.5805 H   0  0  0  0  0  0  0  0  0  0  0  0
  139.4169   67.2718  222.6930 H   0  0  0  0  0  0  0  0  0  0  0  0
  138.5251   67.7294  221.2517 H   0  0  0  0  0  0  0  0  0  0  0  0
  140.6494   69.2373  222.1509 H   0  0  0  0  0  0  0  0  0  0  0  0
  139.3149   70.0556  221.3982 H   0  0  0  0  0  0  0  0  0  0  0  0
  139.5002   71.0024  223.7563 H   0  0  0  0  0  0  0  0  0  0  0  0
  139.2141   68.3906  225.0472 H   0  0  0  0  0  0  0  0  0  0  0  0
  140.8336   68.8354  224.3408 H   0  0  0  0  0  0  0  0  0  0  0  0
  141.2362   71.5671  224.7929 H   0  0  0  0  0  0  0  0  0  0  0  0
  141.7143   72.9976  226.7825 H   0  0  0  0  0  0  0  0  0  0  0  0
  140.8576   72.2065  229.0035 H   0  0  0  0  0  0  0  0  0  0  0  0
  139.6047   70.1254  229.2236 H   0  0  0  0  0  0  0  0  0  0  0  0
  139.1411   68.7159  227.2265 H   0  0  0  0  0  0  0  0  0  0  0  0
  131.4937   71.4474  227.3906 H   0  0  0  0  0  0  0  0  0  0  0  0
  130.4104   73.5329  228.2599 H   0  0  0  0  0  0  0  0  0  0  0  0
  130.4901   76.0058  228.5130 H   0  0  0  0  0  0  0  0  0  0  0  0
  133.8482   78.1716  226.8889 H   0  0  0  0  0  0  0  0  0  0  0  0
  134.8423   76.0217  226.0680 H   0  0  0  0  0  0  0  0  0  0  0  0
  1  2  2  0
  2  3  1  0
  3  4  1  0
  4  5  1  0
  5  6  2  0
  5  7  1  0
  7  8  1  0
  8  9  1  0
  9 10  1  0
 10 11  1  0
 11 12  1  0
 12 13  1  0
 13 14  2  0
 14 15  1  0
 15 16  2  0
 16 17  1  0
 17 18  2  0
  2 19  1  0
 19 20  2  0
 20 21  1  0
 21 22  2  0
 22 23  1  0
 23 24  2  0
 24 25  1  0
 24 26  1  0
 26 27  2  0
 27 28  1  0
 28 29  2  0
 11  7  1  0
 18 13  1  0
 29 19  1  0
 28 22  1  0
  3 30  1  0
  4 31  1  0
  4 32  1  0
  8 33  1  0
  8 34  1  0
  9 35  1  0
  9 36  1  0
 10 37  1  0
 10 38  1  0
 11 39  1  6
 12 40  1  0
 12 41  1  0
 14 42  1  0
 15 43  1  0
 16 44  1  0
 17 45  1  0
 18 46  1  0
 20 47  1  0
 21 48  1  0
 23 49  1  0
 26 50  1  0
 27 51  1  0
M  END
>  <smiles>  (22) 
O=C(NCC(=O)N1CCCC1Cc1ccccc1)c1ccc2cc(Cl)ccc2n1

>  <score_type>  (22) 
oracle

>  <origin>  (22) 
autodockgpu

>  <m_score__min__energy>  (22) 
-8.8599999999999994

>  <m_primary>  (22) 
energy

>  <rmsd>  (22) 
8.493879291372506

>  <m_score__min__rmsd>  (22) 
8.493879291372506

>  <meeko>  (22) 
{"free_energy": -8.4, "intermolecular_energy": -10.19, "internal_energy": -2.21, "cluster_size": 7, "cluster_id": 3, "rank_in_cluster": 4}

>  <energy>  (22) 
-8.07

>  <cluster_rmsd>  (22) 
0.96

>  <cluster>  (22) 
1

$$$$

     RDKit          3D

 51 54  0  0  0  0  0  0  0  0999 V2000
  139.9230   72.2830  220.6100 O   0  0  0  0  0  0  0  0  0  0  0  0
  139.8210   72.6620  221.7850 C   0  0  0  0  0  0  0  0  0  0  0  0
  139.6950   74.0480  222.0820 N   0  0  0  0  0  0  0  0  0  0  0  0
  139.6850   75.0180  221.0090 C   0  0  0  0  0  0  0  0  0  0  0  0
  140.6900   76.0600  221.3410 C   0  0  0  0  0  0  0  0  0  0  0  0
  140.9060   76.2710  222.5670 O   0  0  0  0  0  0  0  0  0  0  0  0
  141.3640   76.7720  220.3120 N   0  0  0  0  0  0  0  0  0  0  0  0
  142.6840   76.5930  219.7620 C   0  0  0  0  0  0  0  0  0  0  0  0
  142.6160   77.1200  218.3340 C   0  0  0  0  0  0  0  0  0  0  0  0
  141.1500   77.5120  218.1620 C   0  0  0  0  0  0  0  0  0  0  0  0
  140.7860   77.8940  219.5810 C   0  0  2  0  0  0  0  0  0  0  0  0
  141.4190   79.1970  219.9990 C   0  0  0  0  0  0  0  0  0  0  0  0
  141.4230   79.3910  221.4640 C   0  0  0  0  0  0  0  0  0  0  0  0
  142.5670   79.7420  222.1640 C   0  0  0  0  0  0  0  0  0  0  0  0
  142.5720   79.9240  223.5360 C   0  0  0  0  0  0  0  0  0  0  0  0
  141.3480   79.7310  224.1800 C   0  0  0  0  0  0  0  0  0  0  0  0
  140.2100   79.3870  223.5110 C   0  0  0  0  0  0  0  0  0  0  0  0
  140.2330   79.2110  222.1400 C   0  0  0  0  0  0  0  0  0  0  0  0
  139.8280   71.7070  222.8920 C   0  0  0  0  0  0  0  0  0  0  0  0
  139.2610   70.4550  222.7480 C   0  0  0  0  0  0  0  0  0  0  0  0
  139.2780   69.5540  223.8190 C   0  0  0  0  0  0  0  0  0  0  0  0
  139.8660   69.9300  225.0210 C   0  0  0  0  0  0  0  0  0  0  0  0
  139.9180   69.0940  226.1160 C   0  0  0  0  0  0  0  0  0  0  0  0
  140.5240   69.5340  227.2920 C   0  0  0  0  0  0  0  0  0  0  0  0
  140.6200   68.5190  228.7140 Cl  0  0  0  0  0  0  0  0  0  0  0  0
  141.0750   70.7990  227.3770 C   0  0  0  0  0  0  0  0  0  0  0  0
  141.0290   71.6500  226.2810 C   0  0  0  0  0  0  0  0  0  0  0  0
  140.4210   71.1890  225.1230 C   0  0  0  0  0  0  0  0  0  0  0  0
  140.3870   72.0210  224.0830 N   0  0  0  0  0  0  0  0  0  0  0  0
  139.6100   74.3260  223.1050 H   0  0  0  0  0  0  0  0  0  0  0  0
  139.9492   74.5303  220.0591 H   0  0  0  0  0  0  0  0  0  0  0  0
  138.6856   75.4642  220.8989 H   0  0  0  0  0  0  0  0  0  0  0  0
  143.4222   77.1628  220.3454 H   0  0  0  0  0  0  0  0  0  0  0  0
  142.9932   75.5377  219.7889 H   0  0  0  0  0  0  0  0  0  0  0  0
  143.2730   77.9930  218.2064 H   0  0  0  0  0  0  0  0  0  0  0  0
  142.9496   76.3810  217.5906 H   0  0  0  0  0  0  0  0  0  0  0  0
  141.0371   78.3620  217.4730 H   0  0  0  0  0  0  0  0  0  0  0  0
  140.5174   76.7239  217.7276 H   0  0  0  0  0  0  0  0  0  0  0  0
  139.7098   78.0543  219.7428 H   0  0  0  0  0  0  0  0  0  0  0  0
  142.4587   79.2131  219.6401 H   0  0  0  0  0  0  0  0  0  0  0  0
  140.8216   80.0097  219.5602 H   0  0  0  0  0  0  0  0  0  0  0  0
  143.5060   79.8811  221.6081 H   0  0  0  0  0  0  0  0  0  0  0  0
  143.4834   80.2033  224.0850 H   0  0  0  0  0  0  0  0  0  0  0  0
  141.2995   79.8617  225.2711 H   0  0  0  0  0  0  0  0  0  0  0  0
  139.2698   79.2490  224.0650 H   0  0  0  0  0  0  0  0  0  0  0  0
  139.3181   78.9321  221.5967 H   0  0  0  0  0  0  0  0  0  0  0  0
  138.7970   70.1669  221.7931 H   0  0  0  0  0  0  0  0  0  0  0  0
  138.8293   68.5556  223.7102 H   0  0  0  0  0  0  0  0  0  0  0  0
  139.4835   68.0849  226.0621 H   0  0  0  0  0  0  0  0  0  0  0  0
  141.5495   71.1311  228.3122 H   0  0  0  0  0  0  0  0  0  0  0  0
  141.4620   72.6600  226.3297 H   0  0  0  0  0  0  0  0  0  0  0  0
  1  2  2  0
  2  3  1  0
  3  4  1  0
  4  5  1  0
  5  6  2  0
  5  7  1  0
  7  8  1  0
  8  9  1  0
  9 10  1  0
 10 11  1  0
 11 12  1  0
 12 13  1  0
 13 14  2  0
 14 15  1  0
 15 16  2  0
 16 17  1  0
 17 18  2  0
  2 19  1  0
 19 20  2  0
 20 21  1  0
 21 22  2  0
 22 23  1  0
 23 24  2  0
 24 25  1  0
 24 26  1  0
 26 27  2  0
 27 28  1  0
 28 29  2  0
 11  7  1  0
 18 13  1  0
 29 19  1  0
 28 22  1  0
  3 30  1  0
  4 31  1  0
  4 32  1  0
  8 33  1  0
  8 34  1  0
  9 35  1  0
  9 36  1  0
 10 37  1  0
 10 38  1  0
 11 39  1  6
 12 40  1  0
 12 41  1  0
 14 42  1  0
 15 43  1  0
 16 44  1  0
 17 45  1  0
 18 46  1  0
 20 47  1  0
 21 48  1  0
 23 49  1  0
 26 50  1  0
 27 51  1  0
M  END
>  <smiles>  (23) 
O=C(NCC(=O)N1CCCC1Cc1ccccc1)c1ccc2cc(Cl)ccc2n1

>  <score_type>  (23) 
oracle

>  <origin>  (23) 
autodockgpu

>  <m_score__min__energy>  (23) 
-8.8599999999999994

>  <m_primary>  (23) 
energy

>  <rmsd>  (23) 
2.096479155526632

>  <m_score__min__rmsd>  (23) 
2.096479155526632

>  <meeko>  (23) 
{"free_energy": -8.64, "intermolecular_energy": -10.42, "internal_energy": -2.07, "cluster_size": 24, "cluster_id": 1, "rank_in_cluster": 6}

>  <energy>  (23) 
-8.05

>  <cluster_rmsd>  (23) 
1.18

>  <cluster>  (23) 
1

$$$$

     RDKit          3D

 51 54  0  0  0  0  0  0  0  0999 V2000
  137.3260   71.2130  221.6070 O   0  0  0  0  0  0  0  0  0  0  0  0
  138.1350   71.6330  222.4460 C   0  0  0  0  0  0  0  0  0  0  0  0
  138.6150   72.9700  222.3720 N   0  0  0  0  0  0  0  0  0  0  0  0
  138.1570   73.8430  221.3120 C   0  0  0  0  0  0  0  0  0  0  0  0
  138.5480   75.2290  221.6780 C   0  0  0  0  0  0  0  0  0  0  0  0
  137.6440   75.9660  222.1620 O   0  0  0  0  0  0  0  0  0  0  0  0
  139.8810   75.6820  221.4820 N   0  0  0  0  0  0  0  0  0  0  0  0
  141.0840   74.9460  221.1890 C   0  0  0  0  0  0  0  0  0  0  0  0
  141.9970   75.9150  220.4460 C   0  0  0  0  0  0  0  0  0  0  0  0
  141.1490   77.1780  220.3100 C   0  0  0  0  0  0  0  0  0  0  0  0
  140.2870   77.0810  221.5510 C   0  0  2  0  0  0  0  0  0  0  0  0
  141.0710   77.3570  222.8090 C   0  0  0  0  0  0  0  0  0  0  0  0
  141.2990   78.7990  223.0410 C   0  0  0  0  0  0  0  0  0  0  0  0
  140.2600   79.6900  223.2610 C   0  0  0  0  0  0  0  0  0  0  0  0
  140.4720   81.0400  223.4770 C   0  0  0  0  0  0  0  0  0  0  0  0
  141.8050   81.4570  223.4610 C   0  0  0  0  0  0  0  0  0  0  0  0
  142.8420   80.5980  223.2470 C   0  0  0  0  0  0  0  0  0  0  0  0
  142.6020   79.2540  223.0330 C   0  0  0  0  0  0  0  0  0  0  0  0
  138.6170   70.7760  223.5280 C   0  0  0  0  0  0  0  0  0  0  0  0
  138.3470   69.4210  223.5290 C   0  0  0  0  0  0  0  0  0  0  0  0
  138.8180   68.6170  224.5740 C   0  0  0  0  0  0  0  0  0  0  0  0
  139.5520   69.1920  225.6040 C   0  0  0  0  0  0  0  0  0  0  0  0
  140.0460   68.4610  226.6640 C   0  0  0  0  0  0  0  0  0  0  0  0
  140.7760   69.1010  227.6630 C   0  0  0  0  0  0  0  0  0  0  0  0
  141.4270   68.2260  229.0320 Cl  0  0  0  0  0  0  0  0  0  0  0  0
  141.0140   70.4620  227.6090 C   0  0  0  0  0  0  0  0  0  0  0  0
  140.5230   71.2100  226.5460 C   0  0  0  0  0  0  0  0  0  0  0  0
  139.8000   70.5490  225.5650 C   0  0  0  0  0  0  0  0  0  0  0  0
  139.3370   71.2850  224.5540 N   0  0  0  0  0  0  0  0  0  0  0  0
  139.3080   73.2870  223.1130 H   0  0  0  0  0  0  0  0  0  0  0  0
  138.6288   73.5582  220.3600 H   0  0  0  0  0  0  0  0  0  0  0  0
  137.0665   73.7665  221.1896 H   0  0  0  0  0  0  0  0  0  0  0  0
  141.5619   74.6079  222.1203 H   0  0  0  0  0  0  0  0  0  0  0  0
  140.8723   74.0495  220.5878 H   0  0  0  0  0  0  0  0  0  0  0  0
  142.9103   76.1160  221.0252 H   0  0  0  0  0  0  0  0  0  0  0  0
  142.3365   75.5226  219.4761 H   0  0  0  0  0  0  0  0  0  0  0  0
  141.7709   78.0853  220.3198 H   0  0  0  0  0  0  0  0  0  0  0  0
  140.5836   77.2459  219.3689 H   0  0  0  0  0  0  0  0  0  0  0  0
  139.4609   77.8066  221.5842 H   0  0  0  0  0  0  0  0  0  0  0  0
  140.5155   76.9474  223.6655 H   0  0  0  0  0  0  0  0  0  0  0  0
  142.0563   76.8816  222.6944 H   0  0  0  0  0  0  0  0  0  0  0  0
  139.2280   79.3092  223.2639 H   0  0  0  0  0  0  0  0  0  0  0  0
  139.6425   81.7413  223.6505 H   0  0  0  0  0  0  0  0  0  0  0  0
  142.0271   82.5214  223.6278 H   0  0  0  0  0  0  0  0  0  0  0  0
  143.8748   80.9767  223.2447 H   0  0  0  0  0  0  0  0  0  0  0  0
  143.4360   78.5581  222.8591 H   0  0  0  0  0  0  0  0  0  0  0  0
  137.7632   68.9748  222.7104 H   0  0  0  0  0  0  0  0  0  0  0  0
  138.6083   67.5372  224.5795 H   0  0  0  0  0  0  0  0  0  0  0  0
  139.8644   67.3776  226.7203 H   0  0  0  0  0  0  0  0  0  0  0  0
  141.5915   70.9520  228.4067 H   0  0  0  0  0  0  0  0  0  0  0  0
  140.7024   72.2935  226.4847 H   0  0  0  0  0  0  0  0  0  0  0  0
  1  2  2  0
  2  3  1  0
  3  4  1  0
  4  5  1  0
  5  6  2  0
  5  7  1  0
  7  8  1  0
  8  9  1  0
  9 10  1  0
 10 11  1  0
 11 12  1  0
 12 13  1  0
 13 14  2  0
 14 15  1  0
 15 16  2  0
 16 17  1  0
 17 18  2  0
  2 19  1  0
 19 20  2  0
 20 21  1  0
 21 22  2  0
 22 23  1  0
 23 24  2  0
 24 25  1  0
 24 26  1  0
 26 27  2  0
 27 28  1  0
 28 29  2  0
 11  7  1  0
 18 13  1  0
 29 19  1  0
 28 22  1  0
  3 30  1  0
  4 31  1  0
  4 32  1  0
  8 33  1  0
  8 34  1  0
  9 35  1  0
  9 36  1  0
 10 37  1  0
 10 38  1  0
 11 39  1  6
 12 40  1  0
 12 41  1  0
 14 42  1  0
 15 43  1  0
 16 44  1  0
 17 45  1  0
 18 46  1  0
 20 47  1  0
 21 48  1  0
 23 49  1  0
 26 50  1  0
 27 51  1  0
M  END
>  <smiles>  (24) 
O=C(NCC(=O)N1CCCC1Cc1ccccc1)c1ccc2cc(Cl)ccc2n1

>  <score_type>  (24) 
oracle

>  <origin>  (24) 
autodockgpu

>  <m_score__min__energy>  (24) 
-8.8599999999999994

>  <m_primary>  (24) 
energy

>  <rmsd>  (24) 
1.9236463697339052

>  <m_score__min__rmsd>  (24) 
1.9236463697339052

>  <meeko>  (24) 
{"free_energy": -8.78, "intermolecular_energy": -10.57, "internal_energy": -1.59, "cluster_size": 24, "cluster_id": 1, "rank_in_cluster": 4}

>  <energy>  (24) 
-7.95

>  <cluster_rmsd>  (24) 
1.58

>  <cluster>  (24) 
1

$$$$

     RDKit          3D

 51 54  0  0  0  0  0  0  0  0999 V2000
  139.7350   72.2180  220.7720 O   0  0  0  0  0  0  0  0  0  0  0  0
  139.7000   72.5500  221.9650 C   0  0  0  0  0  0  0  0  0  0  0  0
  139.5540   73.9190  222.3230 N   0  0  0  0  0  0  0  0  0  0  0  0
  139.4470   74.9280  221.2910 C   0  0  0  0  0  0  0  0  0  0  0  0
  140.7640   75.6080  221.1950 C   0  0  0  0  0  0  0  0  0  0  0  0
  141.4440   75.6830  222.2560 O   0  0  0  0  0  0  0  0  0  0  0  0
  141.2160   76.1420  219.9570 N   0  0  0  0  0  0  0  0  0  0  0  0
  140.5790   76.1740  218.6650 C   0  0  0  0  0  0  0  0  0  0  0  0
  141.1550   77.3860  217.9450 C   0  0  0  0  0  0  0  0  0  0  0  0
  142.0760   78.0220  218.9850 C   0  0  0  0  0  0  0  0  0  0  0  0
  142.5030   76.8010  219.7730 C   0  0  2  0  0  0  0  0  0  0  0  0
  143.4540   75.9270  218.9960 C   0  0  0  0  0  0  0  0  0  0  0  0
  143.7390   74.6440  219.6720 C   0  0  0  0  0  0  0  0  0  0  0  0
  142.9190   73.5340  219.5360 C   0  0  0  0  0  0  0  0  0  0  0  0
  143.1850   72.3320  220.1690 C   0  0  0  0  0  0  0  0  0  0  0  0
  144.3360   72.3020  220.9590 C   0  0  0  0  0  0  0  0  0  0  0  0
  145.1570   73.3810  221.1060 C   0  0  0  0  0  0  0  0  0  0  0  0
  144.8680   74.5700  220.4630 C   0  0  0  0  0  0  0  0  0  0  0  0
  139.8060   71.5560  223.0310 C   0  0  0  0  0  0  0  0  0  0  0  0
  139.4090   70.2500  222.8200 C   0  0  0  0  0  0  0  0  0  0  0  0
  139.5190   69.3110  223.8530 C   0  0  0  0  0  0  0  0  0  0  0  0
  140.0280   69.7050  225.0850 C   0  0  0  0  0  0  0  0  0  0  0  0
  140.1640   68.8350  226.1460 C   0  0  0  0  0  0  0  0  0  0  0  0
  140.6820   69.2960  227.3550 C   0  0  0  0  0  0  0  0  0  0  0  0
  140.8770   68.2400  228.7360 Cl  0  0  0  0  0  0  0  0  0  0  0  0
  141.0630   70.6160  227.5070 C   0  0  0  0  0  0  0  0  0  0  0  0
  140.9310   71.5030  226.4460 C   0  0  0  0  0  0  0  0  0  0  0  0
  140.4130   71.0190  225.2550 C   0  0  0  0  0  0  0  0  0  0  0  0
  140.2950   71.8860  224.2490 N   0  0  0  0  0  0  0  0  0  0  0  0
  139.5290   74.1570  223.3590 H   0  0  0  0  0  0  0  0  0  0  0  0
  139.1964   74.4567  220.3292 H   0  0  0  0  0  0  0  0  0  0  0  0
  138.6543   75.6504  221.5354 H   0  0  0  0  0  0  0  0  0  0  0  0
  140.8033   75.2541  218.1050 H   0  0  0  0  0  0  0  0  0  0  0  0
  139.4848   76.2409  218.7560 H   0  0  0  0  0  0  0  0  0  0  0  0
  141.7224   77.0797  217.0538 H   0  0  0  0  0  0  0  0  0  0  0  0
  140.3782   78.0765  217.5848 H   0  0  0  0  0  0  0  0  0  0  0  0
  142.9359   78.5201  218.5132 H   0  0  0  0  0  0  0  0  0  0  0  0
  141.6037   78.8108  219.5890 H   0  0  0  0  0  0  0  0  0  0  0  0
  143.0476   77.0313  220.7006 H   0  0  0  0  0  0  0  0  0  0  0  0
  143.0108   75.7143  218.0119 H   0  0  0  0  0  0  0  0  0  0  0  0
  144.4055   76.4719  218.9074 H   0  0  0  0  0  0  0  0  0  0  0  0
  142.0238   73.6115  218.9015 H   0  0  0  0  0  0  0  0  0  0  0  0
  142.5304   71.4551  220.0567 H   0  0  0  0  0  0  0  0  0  0  0  0
  144.5910   71.3698  221.4843 H   0  0  0  0  0  0  0  0  0  0  0  0
  146.0533   73.3048  221.7392 H   0  0  0  0  0  0  0  0  0  0  0  0
  145.5269   75.4431  220.5797 H   0  0  0  0  0  0  0  0  0  0  0  0
  139.0069   69.9479  221.8417 H   0  0  0  0  0  0  0  0  0  0  0  0
  139.2049   68.2693  223.6907 H   0  0  0  0  0  0  0  0  0  0  0  0
  139.8650   67.7819  226.0387 H   0  0  0  0  0  0  0  0  0  0  0  0
  141.4705   70.9639  228.4677 H   0  0  0  0  0  0  0  0  0  0  0  0
  141.2285   72.5571  226.5480 H   0  0  0  0  0  0  0  0  0  0  0  0
  1  2  2  0
  2  3  1  0
  3  4  1  0
  4  5  1  0
  5  6  2  0
  5  7  1  0
  7  8  1  0
  8  9  1  0
  9 10  1  0
 10 11  1  0
 11 12  1  0
 12 13  1  0
 13 14  2  0
 14 15  1  0
 15 16  2  0
 16 17  1  0
 17 18  2  0
  2 19  1  0
 19 20  2  0
 20 21  1  0
 21 22  2  0
 22 23  1  0
 23 24  2  0
 24 25  1  0
 24 26  1  0
 26 27  2  0
 27 28  1  0
 28 29  2  0
 11  7  1  0
 18 13  1  0
 29 19  1  0
 28 22  1  0
  3 30  1  0
  4 31  1  0
  4 32  1  0
  8 33  1  0
  8 34  1  0
  9 35  1  0
  9 36  1  0
 10 37  1  0
 10 38  1  0
 11 39  1  1
 12 40  1  0
 12 41  1  0
 14 42  1  0
 15 43  1  0
 16 44  1  0
 17 45  1  0
 18 46  1  0
 20 47  1  0
 21 48  1  0
 23 49  1  0
 26 50  1  0
 27 51  1  0
M  END
>  <smiles>  (25) 
O=C(NCC(=O)N1CCCC1Cc1ccccc1)c1ccc2cc(Cl)ccc2n1

>  <score_type>  (25) 
oracle

>  <origin>  (25) 
autodockgpu

>  <m_score__min__energy>  (25) 
-8.8599999999999994

>  <m_primary>  (25) 
energy

>  <rmsd>  (25) 
1.570790502990028

>  <m_score__min__rmsd>  (25) 
1.570790502990028

>  <meeko>  (25) 
{"free_energy": -8.02, "intermolecular_energy": -9.81, "internal_energy": -2.32, "cluster_size": 8, "cluster_id": 2, "rank_in_cluster": 8}

>  <energy>  (25) 
-8.63

>  <cluster_rmsd>  (25) 
0.0

>  <cluster>  (25) 
2

$$$$

     RDKit          3D

 51 54  0  0  0  0  0  0  0  0999 V2000
  141.6890   73.0350  220.0200 O   0  0  0  0  0  0  0  0  0  0  0  0
  141.2260   73.7330  220.9340 C   0  0  0  0  0  0  0  0  0  0  0  0
  140.4920   73.1310  221.9940 N   0  0  0  0  0  0  0  0  0  0  0  0
  140.2840   71.6990  222.0040 C   0  0  0  0  0  0  0  0  0  0  0  0
  139.8330   71.3250  223.3700 C   0  0  0  0  0  0  0  0  0  0  0  0
  140.3200   71.9840  224.3300 O   0  0  0  0  0  0  0  0  0  0  0  0
  138.8960   70.2730  223.5610 N   0  0  0  0  0  0  0  0  0  0  0  0
  137.5020   70.1880  223.2110 C   0  0  0  0  0  0  0  0  0  0  0  0
  137.2070   68.7050  223.0210 C   0  0  0  0  0  0  0  0  0  0  0  0
  138.5660   68.0380  223.2220 C   0  0  0  0  0  0  0  0  0  0  0  0
  139.2170   68.9990  224.1940 C   0  0  2  0  0  0  0  0  0  0  0  0
  138.6110   68.9100  225.5710 C   0  0  0  0  0  0  0  0  0  0  0  0
  139.6070   69.0780  226.6500 C   0  0  0  0  0  0  0  0  0  0  0  0
  140.1450   68.0030  227.3410 C   0  0  0  0  0  0  0  0  0  0  0  0
  141.0770   68.1590  228.3510 C   0  0  0  0  0  0  0  0  0  0  0  0
  141.4480   69.4750  228.6390 C   0  0  0  0  0  0  0  0  0  0  0  0
  140.9320   70.5470  227.9730 C   0  0  0  0  0  0  0  0  0  0  0  0
  140.0020   70.3620  226.9670 C   0  0  0  0  0  0  0  0  0  0  0  0
  141.4190   75.1820  220.9510 C   0  0  0  0  0  0  0  0  0  0  0  0
  142.1340   75.8110  219.9510 C   0  0  0  0  0  0  0  0  0  0  0  0
  142.3080   77.2000  219.9840 C   0  0  0  0  0  0  0  0  0  0  0  0
  141.7580   77.9330  221.0290 C   0  0  0  0  0  0  0  0  0  0  0  0
  141.8890   79.3030  221.1260 C   0  0  0  0  0  0  0  0  0  0  0  0
  141.3110   79.9770  222.2000 C   0  0  0  0  0  0  0  0  0  0  0  0
  141.4450   81.7130  222.3760 Cl  0  0  0  0  0  0  0  0  0  0  0  0
  140.6060   79.2930  223.1720 C   0  0  0  0  0  0  0  0  0  0  0  0
  140.4660   77.9140  223.0860 C   0  0  0  0  0  0  0  0  0  0  0  0
  141.0500   77.2670  222.0080 C   0  0  0  0  0  0  0  0  0  0  0  0
  140.9050   75.9430  221.9440 N   0  0  0  0  0  0  0  0  0  0  0  0
  140.1140   73.7690  222.7550 H   0  0  0  0  0  0  0  0  0  0  0  0
  139.5153   71.4256  221.2662 H   0  0  0  0  0  0  0  0  0  0  0  0
  141.2123   71.1698  221.7430 H   0  0  0  0  0  0  0  0  0  0  0  0
  136.8793   70.6014  224.0181 H   0  0  0  0  0  0  0  0  0  0  0  0
  137.2792   70.7633  222.3003 H   0  0  0  0  0  0  0  0  0  0  0  0
  136.4815   68.3504  223.7679 H   0  0  0  0  0  0  0  0  0  0  0  0
  136.7625   68.4806  222.0402 H   0  0  0  0  0  0  0  0  0  0  0  0
  138.4625   67.0325  223.6559 H   0  0  0  0  0  0  0  0  0  0  0  0
  139.1341   67.8766  222.2940 H   0  0  0  0  0  0  0  0  0  0  0  0
  140.2890   68.8158  224.3594 H   0  0  0  0  0  0  0  0  0  0  0  0
  137.8493   69.6974  225.6708 H   0  0  0  0  0  0  0  0  0  0  0  0
  138.1770   67.9047  225.6762 H   0  0  0  0  0  0  0  0  0  0  0  0
  139.8180   66.9868  227.0757 H   0  0  0  0  0  0  0  0  0  0  0  0
  141.4998   67.3006  228.8937 H   0  0  0  0  0  0  0  0  0  0  0  0
  142.1860   69.6533  229.4350 H   0  0  0  0  0  0  0  0  0  0  0  0
  141.2573   71.5640  228.2374 H   0  0  0  0  0  0  0  0  0  0  0  0
  139.5834   71.2245  226.4277 H   0  0  0  0  0  0  0  0  0  0  0  0
  142.5665   75.2214  219.1292 H   0  0  0  0  0  0  0  0  0  0  0  0
  142.8753   77.7069  219.1894 H   0  0  0  0  0  0  0  0  0  0  0  0
  142.4470   79.8605  220.3593 H   0  0  0  0  0  0  0  0  0  0  0  0
  140.1560   79.8405  224.0133 H   0  0  0  0  0  0  0  0  0  0  0  0
  139.9087   77.3522  223.8500 H   0  0  0  0  0  0  0  0  0  0  0  0
  1  2  2  0
  2  3  1  0
  3  4  1  0
  4  5  1  0
  5  6  2  0
  5  7  1  0
  7  8  1  0
  8  9  1  0
  9 10  1  0
 10 11  1  0
 11 12  1  0
 12 13  1  0
 13 14  2  0
 14 15  1  0
 15 16  2  0
 16 17  1  0
 17 18  2  0
  2 19  1  0
 19 20  2  0
 20 21  1  0
 21 22  2  0
 22 23  1  0
 23 24  2  0
 24 25  1  0
 24 26  1  0
 26 27  2  0
 27 28  1  0
 28 29  2  0
 11  7  1  0
 18 13  1  0
 29 19  1  0
 28 22  1  0
  3 30  1  0
  4 31  1  0
  4 32  1  0
  8 33  1  0
  8 34  1  0
  9 35  1  0
  9 36  1  0
 10 37  1  0
 10 38  1  0
 11 39  1  1
 12 40  1  0
 12 41  1  0
 14 42  1  0
 15 43  1  0
 16 44  1  0
 17 45  1  0
 18 46  1  0
 20 47  1  0
 21 48  1  0
 23 49  1  0
 26 50  1  0
 27 51  1  0
M  END
>  <smiles>  (26) 
O=C(NCC(=O)N1CCCC1Cc1ccccc1)c1ccc2cc(Cl)ccc2n1

>  <score_type>  (26) 
oracle

>  <origin>  (26) 
autodockgpu

>  <m_score__min__energy>  (26) 
-8.8599999999999994

>  <m_primary>  (26) 
energy

>  <rmsd>  (26) 
8.338659074388763

>  <m_score__min__rmsd>  (26) 
8.338659074388763

>  <meeko>  (26) 
{"free_energy": -8.11, "intermolecular_energy": -9.9, "internal_energy": -2.0, "cluster_size": 1, "cluster_id": 5, "rank_in_cluster": 1}

>  <energy>  (26) 
-8.62

>  <cluster_rmsd>  (26) 
0.29

>  <cluster>  (26) 
2

$$$$

     RDKit          3D

 51 54  0  0  0  0  0  0  0  0999 V2000
  138.5900   71.6820  220.8630 O   0  0  0  0  0  0  0  0  0  0  0  0
  139.0000   72.0830  221.9610 C   0  0  0  0  0  0  0  0  0  0  0  0
  139.2280   73.4700  222.1770 N   0  0  0  0  0  0  0  0  0  0  0  0
  138.9810   74.4160  221.1110 C   0  0  0  0  0  0  0  0  0  0  0  0
  139.3710   75.7610  221.6100 C   0  0  0  0  0  0  0  0  0  0  0  0
  140.3520   75.8100  222.4020 O   0  0  0  0  0  0  0  0  0  0  0  0
  138.6580   76.9210  221.1990 N   0  0  0  0  0  0  0  0  0  0  0  0
  137.8960   77.1750  220.0040 C   0  0  0  0  0  0  0  0  0  0  0  0
  136.8590   78.2240  220.3840 C   0  0  0  0  0  0  0  0  0  0  0  0
  137.0900   78.4360  221.8790 C   0  0  0  0  0  0  0  0  0  0  0  0
  138.5720   78.1470  221.9840 C   0  0  2  0  0  0  0  0  0  0  0  0
  139.4090   79.2420  221.3730 C   0  0  0  0  0  0  0  0  0  0  0  0
  140.5350   79.6560  222.2370 C   0  0  0  0  0  0  0  0  0  0  0  0
  140.9980   80.9620  222.2790 C   0  0  0  0  0  0  0  0  0  0  0  0
  142.0520   81.3510  223.0870 C   0  0  0  0  0  0  0  0  0  0  0  0
  142.6280   80.3430  223.8650 C   0  0  0  0  0  0  0  0  0  0  0  0
  142.1870   79.0520  223.8390 C   0  0  0  0  0  0  0  0  0  0  0  0
  141.1320   78.6900  223.0220 C   0  0  0  0  0  0  0  0  0  0  0  0
  139.2590   71.1520  223.0580 C   0  0  0  0  0  0  0  0  0  0  0  0
  138.8620   69.8310  222.9730 C   0  0  0  0  0  0  0  0  0  0  0  0
  139.1190   68.9550  224.0340 C   0  0  0  0  0  0  0  0  0  0  0  0
  139.7730   69.4250  225.1670 C   0  0  0  0  0  0  0  0  0  0  0  0
  140.0580   68.6180  226.2480 C   0  0  0  0  0  0  0  0  0  0  0  0
  140.7180   69.1540  227.3530 C   0  0  0  0  0  0  0  0  0  0  0  0
  141.1060   68.1800  228.7550 Cl  0  0  0  0  0  0  0  0  0  0  0  0
  141.0910   70.4840  227.3820 C   0  0  0  0  0  0  0  0  0  0  0  0
  140.8090   71.3070  226.2990 C   0  0  0  0  0  0  0  0  0  0  0  0
  140.1530   70.7500  225.2130 C   0  0  0  0  0  0  0  0  0  0  0  0
  139.8920   71.5570  224.1830 N   0  0  0  0  0  0  0  0  0  0  0  0
  139.5800   73.7680  223.1350 H   0  0  0  0  0  0  0  0  0  0  0  0
  139.5829   74.1534  220.2285 H   0  0  0  0  0  0  0  0  0  0  0  0
  137.9207   74.4030  220.8185 H   0  0  0  0  0  0  0  0  0  0  0  0
  138.5509   77.5560  219.2066 H   0  0  0  0  0  0  0  0  0  0  0  0
  137.4218   76.2576  219.6253 H   0  0  0  0  0  0  0  0  0  0  0  0
  137.0224   79.1575  219.8255 H   0  0  0  0  0  0  0  0  0  0  0  0
  135.8305   77.9106  220.1516 H   0  0  0  0  0  0  0  0  0  0  0  0
  136.8568   79.4674  222.1819 H   0  0  0  0  0  0  0  0  0  0  0  0
  136.4585   77.8126  222.5291 H   0  0  0  0  0  0  0  0  0  0  0  0
  138.9440   78.0690  223.0163 H   0  0  0  0  0  0  0  0  0  0  0  0
  139.8149   78.8811  220.4164 H   0  0  0  0  0  0  0  0  0  0  0  0
  138.7579   80.1181  221.2371 H   0  0  0  0  0  0  0  0  0  0  0  0
  140.5092   81.7175  221.6463 H   0  0  0  0  0  0  0  0  0  0  0  0
  142.4140   82.3893  223.1152 H   0  0  0  0  0  0  0  0  0  0  0  0
  143.4701   80.6005  224.5243 H   0  0  0  0  0  0  0  0  0  0  0  0
  142.6736   78.2950  224.4716 H   0  0  0  0  0  0  0  0  0  0  0  0
  140.7744   77.6500  222.9979 H   0  0  0  0  0  0  0  0  0  0  0  0
  138.3446   69.4684  222.0726 H   0  0  0  0  0  0  0  0  0  0  0  0
  138.8058   67.9024  223.9717 H   0  0  0  0  0  0  0  0  0  0  0  0
  139.7663   67.5574  226.2387 H   0  0  0  0  0  0  0  0  0  0  0  0
  141.6108   70.8909  228.2619 H   0  0  0  0  0  0  0  0  0  0  0  0
  141.0977   72.3684  226.3034 H   0  0  0  0  0  0  0  0  0  0  0  0
  1  2  2  0
  2  3  1  0
  3  4  1  0
  4  5  1  0
  5  6  2  0
  5  7  1  0
  7  8  1  0
  8  9  1  0
  9 10  1  0
 10 11  1  0
 11 12  1  0
 12 13  1  0
 13 14  2  0
 14 15  1  0
 15 16  2  0
 16 17  1  0
 17 18  2  0
  2 19  1  0
 19 20  2  0
 20 21  1  0
 21 22  2  0
 22 23  1  0
 23 24  2  0
 24 25  1  0
 24 26  1  0
 26 27  2  0
 27 28  1  0
 28 29  2  0
 11  7  1  0
 18 13  1  0
 29 19  1  0
 28 22  1  0
  3 30  1  0
  4 31  1  0
  4 32  1  0
  8 33  1  0
  8 34  1  0
  9 35  1  0
  9 36  1  0
 10 37  1  0
 10 38  1  0
 11 39  1  1
 12 40  1  0
 12 41  1  0
 14 42  1  0
 15 43  1  0
 16 44  1  0
 17 45  1  0
 18 46  1  0
 20 47  1  0
 21 48  1  0
 23 49  1  0
 26 50  1  0
 27 51  1  0
M  END
>  <smiles>  (27) 
O=C(NCC(=O)N1CCCC1Cc1ccccc1)c1ccc2cc(Cl)ccc2n1

>  <score_type>  (27) 
oracle

>  <origin>  (27) 
autodockgpu

>  <m_score__min__energy>  (27) 
-8.8599999999999994

>  <m_primary>  (27) 
energy

>  <rmsd>  (27) 
2.56855821091549

>  <m_score__min__rmsd>  (27) 
2.56855821091549

>  <meeko>  (27) 
{"free_energy": -8.31, "intermolecular_energy": -10.1, "internal_energy": -2.06, "cluster_size": 24, "cluster_id": 1, "rank_in_cluster": 17}

>  <energy>  (27) 
-8.16

>  <cluster_rmsd>  (27) 
0.84

>  <cluster>  (27) 
2

$$$$

     RDKit          3D

 51 54  0  0  0  0  0  0  0  0999 V2000
  137.9890   71.3780  221.3050 O   0  0  0  0  0  0  0  0  0  0  0  0
  138.6400   71.7870  222.2770 C   0  0  0  0  0  0  0  0  0  0  0  0
  139.0530   73.1460  222.3420 N   0  0  0  0  0  0  0  0  0  0  0  0
  138.7130   74.0560  221.2690 C   0  0  0  0  0  0  0  0  0  0  0  0
  139.3650   75.3580  221.5660 C   0  0  0  0  0  0  0  0  0  0  0  0
  140.3880   75.3260  222.3040 O   0  0  0  0  0  0  0  0  0  0  0  0
  138.8430   76.5680  221.0330 N   0  0  0  0  0  0  0  0  0  0  0  0
  138.1670   76.8250  219.7870 C   0  0  0  0  0  0  0  0  0  0  0  0
  137.2800   78.0390  220.0350 C   0  0  0  0  0  0  0  0  0  0  0  0
  137.4890   78.3430  221.5170 C   0  0  0  0  0  0  0  0  0  0  0  0
  138.9090   77.8560  221.7130 C   0  0  2  0  0  0  0  0  0  0  0  0
  139.9160   78.7650  221.0560 C   0  0  0  0  0  0  0  0  0  0  0  0
  140.8050   79.4360  222.0280 C   0  0  0  0  0  0  0  0  0  0  0  0
  141.3690   78.7690  223.1040 C   0  0  0  0  0  0  0  0  0  0  0  0
  142.2010   79.3960  224.0150 C   0  0  0  0  0  0  0  0  0  0  0  0
  142.4420   80.7530  223.7850 C   0  0  0  0  0  0  0  0  0  0  0  0
  141.8980   81.4290  222.7330 C   0  0  0  0  0  0  0  0  0  0  0  0
  141.0700   80.7780  221.8380 C   0  0  0  0  0  0  0  0  0  0  0  0
  138.9990   70.8930  223.3770 C   0  0  0  0  0  0  0  0  0  0  0  0
  138.6760   69.5500  223.3300 C   0  0  0  0  0  0  0  0  0  0  0  0
  139.0300   68.7100  224.3920 C   0  0  0  0  0  0  0  0  0  0  0  0
  139.7020   69.2380  225.4880 C   0  0  0  0  0  0  0  0  0  0  0  0
  140.0800   68.4690  226.5690 C   0  0  0  0  0  0  0  0  0  0  0  0
  140.7540   69.0620  227.6350 C   0  0  0  0  0  0  0  0  0  0  0  0
  141.2580   68.1390  229.0340 Cl  0  0  0  0  0  0  0  0  0  0  0  0
  141.0500   70.4120  227.6270 C   0  0  0  0  0  0  0  0  0  0  0  0
  140.6750   71.1970  226.5440 C   0  0  0  0  0  0  0  0  0  0  0  0
  140.0060   70.5830  225.4960 C   0  0  0  0  0  0  0  0  0  0  0  0
  139.6550   71.3540  224.4660 N   0  0  0  0  0  0  0  0  0  0  0  0
  139.6090   73.4520  223.1950 H   0  0  0  0  0  0  0  0  0  0  0  0
  139.0812   73.6613  220.3106 H   0  0  0  0  0  0  0  0  0  0  0  0
  137.6222   74.1766  221.1934 H   0  0  0  0  0  0  0  0  0  0  0  0
  138.8972   77.0406  218.9930 H   0  0  0  0  0  0  0  0  0  0  0  0
  137.5784   75.9551  219.4602 H   0  0  0  0  0  0  0  0  0  0  0  0
  137.5951   78.8890  219.4119 H   0  0  0  0  0  0  0  0  0  0  0  0
  136.2254   77.8553  219.7820 H   0  0  0  0  0  0  0  0  0  0  0  0
  137.3984   79.4193  221.7255 H   0  0  0  0  0  0  0  0  0  0  0  0
  136.7518   77.8736  222.1850 H   0  0  0  0  0  0  0  0  0  0  0  0
  139.2301   77.8139  222.7642 H   0  0  0  0  0  0  0  0  0  0  0  0
  140.5338   78.1669  220.3700 H   0  0  0  0  0  0  0  0  0  0  0  0
  139.3562   79.5488  220.5247 H   0  0  0  0  0  0  0  0  0  0  0  0
  141.1468   77.7002  223.2391 H   0  0  0  0  0  0  0  0  0  0  0  0
  142.6448   78.8597  224.8667 H   0  0  0  0  0  0  0  0  0  0  0  0
  143.0970   81.2980  224.4806 H   0  0  0  0  0  0  0  0  0  0  0  0
  142.1192   82.4978  222.5960 H   0  0  0  0  0  0  0  0  0  0  0  0
  140.6293   81.3200  220.9882 H   0  0  0  0  0  0  0  0  0  0  0  0
  138.1416   69.1420  222.4594 H   0  0  0  0  0  0  0  0  0  0  0  0
  138.7782   67.6397  224.3595 H   0  0  0  0  0  0  0  0  0  0  0  0
  139.8507   67.3934  226.5895 H   0  0  0  0  0  0  0  0  0  0  0  0
  141.5818   70.8643  228.4771 H   0  0  0  0  0  0  0  0  0  0  0  0
  140.9019   72.2730  226.5185 H   0  0  0  0  0  0  0  0  0  0  0  0
  1  2  2  0
  2  3  1  0
  3  4  1  0
  4  5  1  0
  5  6  2  0
  5  7  1  0
  7  8  1  0
  8  9  1  0
  9 10  1  0
 10 11  1  0
 11 12  1  0
 12 13  1  0
 13 14  2  0
 14 15  1  0
 15 16  2  0
 16 17  1  0
 17 18  2  0
  2 19  1  0
 19 20  2  0
 20 21  1  0
 21 22  2  0
 22 23  1  0
 23 24  2  0
 24 25  1  0
 24 26  1  0
 26 27  2  0
 27 28  1  0
 28 29  2  0
 11  7  1  0
 18 13  1  0
 29 19  1  0
 28 22  1  0
  3 30  1  0
  4 31  1  0
  4 32  1  0
  8 33  1  0
  8 34  1  0
  9 35  1  0
  9 36  1  0
 10 37  1  0
 10 38  1  0
 11 39  1  1
 12 40  1  0
 12 41  1  0
 14 42  1  0
 15 43  1  0
 16 44  1  0
 17 45  1  0
 18 46  1  0
 20 47  1  0
 21 48  1  0
 23 49  1  0
 26 50  1  0
 27 51  1  0
M  END
>  <smiles>  (28) 
O=C(NCC(=O)N1CCCC1Cc1ccccc1)c1ccc2cc(Cl)ccc2n1

>  <score_type>  (28) 
oracle

>  <origin>  (28) 
autodockgpu

>  <m_score__min__energy>  (28) 
-8.8599999999999994

>  <m_primary>  (28) 
energy

>  <rmsd>  (28) 
2.2428504908731135

>  <m_score__min__rmsd>  (28) 
2.2428504908731135

>  <meeko>  (28) 
{"free_energy": -8.3, "intermolecular_energy": -10.09, "internal_energy": -2.13, "cluster_size": 24, "cluster_id": 1, "rank_in_cluster": 18}

>  <energy>  (28) 
-8.16

>  <cluster_rmsd>  (28) 
0.81

>  <cluster>  (28) 
2

$$$$

     RDKit          3D

 51 54  0  0  0  0  0  0  0  0999 V2000
  140.7820   72.6530  221.0840 O   0  0  0  0  0  0  0  0  0  0  0  0
  139.9260   72.6380  221.9800 C   0  0  0  0  0  0  0  0  0  0  0  0
  138.8920   73.6150  221.9990 N   0  0  0  0  0  0  0  0  0  0  0  0
  138.8400   74.6300  220.9690 C   0  0  0  0  0  0  0  0  0  0  0  0
  140.0070   75.5270  221.1680 C   0  0  0  0  0  0  0  0  0  0  0  0
  140.2230   75.9260  222.3460 O   0  0  0  0  0  0  0  0  0  0  0  0
  140.8280   75.9040  220.0700 N   0  0  0  0  0  0  0  0  0  0  0  0
  140.4760   76.4630  218.7900 C   0  0  0  0  0  0  0  0  0  0  0  0
  141.6930   77.2590  218.3320 C   0  0  0  0  0  0  0  0  0  0  0  0
  142.6670   77.1330  219.5020 C   0  0  0  0  0  0  0  0  0  0  0  0
  142.2800   75.7770  220.0540 C   0  0  2  0  0  0  0  0  0  0  0  0
  142.7170   74.6510  219.1510 C   0  0  0  0  0  0  0  0  0  0  0  0
  143.9330   73.9650  219.6350 C   0  0  0  0  0  0  0  0  0  0  0  0
  144.8550   74.5830  220.4650 C   0  0  0  0  0  0  0  0  0  0  0  0
  145.9950   73.9420  220.9180 C   0  0  0  0  0  0  0  0  0  0  0  0
  146.1650   72.6250  220.4860 C   0  0  0  0  0  0  0  0  0  0  0  0
  145.2710   71.9970  219.6700 C   0  0  0  0  0  0  0  0  0  0  0  0
  144.1400   72.6610  219.2320 C   0  0  0  0  0  0  0  0  0  0  0  0
  139.9520   71.6260  223.0350 C   0  0  0  0  0  0  0  0  0  0  0  0
  139.4800   70.3490  222.8000 C   0  0  0  0  0  0  0  0  0  0  0  0
  139.5140   69.3940  223.8230 C   0  0  0  0  0  0  0  0  0  0  0  0
  140.0230   69.7420  225.0690 C   0  0  0  0  0  0  0  0  0  0  0  0
  140.0860   68.8520  226.1210 C   0  0  0  0  0  0  0  0  0  0  0  0
  140.6090   69.2670  227.3440 C   0  0  0  0  0  0  0  0  0  0  0  0
  140.7140   68.1840  228.7150 Cl  0  0  0  0  0  0  0  0  0  0  0  0
  141.0660   70.5590  227.5200 C   0  0  0  0  0  0  0  0  0  0  0  0
  141.0090   71.4650  226.4690 C   0  0  0  0  0  0  0  0  0  0  0  0
  140.4840   71.0270  225.2620 C   0  0  0  0  0  0  0  0  0  0  0  0
  140.4370   71.9120  224.2650 N   0  0  0  0  0  0  0  0  0  0  0  0
  138.1800   73.5630  222.7870 H   0  0  0  0  0  0  0  0  0  0  0  0
  138.8922   74.1603  219.9757 H   0  0  0  0  0  0  0  0  0  0  0  0
  137.8997   75.1975  221.0309 H   0  0  0  0  0  0  0  0  0  0  0  0
  140.2508   75.6612  218.0713 H   0  0  0  0  0  0  0  0  0  0  0  0
  139.5809   77.0985  218.8595 H   0  0  0  0  0  0  0  0  0  0  0  0
  142.1222   76.8275  217.4157 H   0  0  0  0  0  0  0  0  0  0  0  0
  141.4523   78.3041  218.0874 H   0  0  0  0  0  0  0  0  0  0  0  0
  143.7126   77.1470  219.1607 H   0  0  0  0  0  0  0  0  0  0  0  0
  142.6082   77.9538  220.2319 H   0  0  0  0  0  0  0  0  0  0  0  0
  142.7393   75.5367  221.0242 H   0  0  0  0  0  0  0  0  0  0  0  0
  141.9013   73.9158  219.0867 H   0  0  0  0  0  0  0  0  0  0  0  0
  142.9528   75.0876  218.1693 H   0  0  0  0  0  0  0  0  0  0  0  0
  144.6738   75.6226  220.7756 H   0  0  0  0  0  0  0  0  0  0  0  0
  146.7218   74.4390  221.5773 H   0  0  0  0  0  0  0  0  0  0  0  0
  147.0561   72.0718  220.8173 H   0  0  0  0  0  0  0  0  0  0  0  0
  145.4504   70.9573  219.3588 H   0  0  0  0  0  0  0  0  0  0  0  0
  143.4168   72.1583  218.5730 H   0  0  0  0  0  0  0  0  0  0  0  0
  139.0783   70.0832  221.8111 H   0  0  0  0  0  0  0  0  0  0  0  0
  139.1406   68.3752  223.6422 H   0  0  0  0  0  0  0  0  0  0  0  0
  139.7254   67.8204  225.9951 H   0  0  0  0  0  0  0  0  0  0  0  0
  141.4750   70.8700  228.4926 H   0  0  0  0  0  0  0  0  0  0  0  0
  141.3688   72.4974  226.5898 H   0  0  0  0  0  0  0  0  0  0  0  0
  1  2  2  0
  2  3  1  0
  3  4  1  0
  4  5  1  0
  5  6  2  0
  5  7  1  0
  7  8  1  0
  8  9  1  0
  9 10  1  0
 10 11  1  0
 11 12  1  0
 12 13  1  0
 13 14  2  0
 14 15  1  0
 15 16  2  0
 16 17  1  0
 17 18  2  0
  2 19  1  0
 19 20  2  0
 20 21  1  0
 21 22  2  0
 22 23  1  0
 23 24  2  0
 24 25  1  0
 24 26  1  0
 26 27  2  0
 27 28  1  0
 28 29  2  0
 11  7  1  0
 18 13  1  0
 29 19  1  0
 28 22  1  0
  3 30  1  0
  4 31  1  0
  4 32  1  0
  8 33  1  0
  8 34  1  0
  9 35  1  0
  9 36  1  0
 10 37  1  0
 10 38  1  0
 11 39  1  1
 12 40  1  0
 12 41  1  0
 14 42  1  0
 15 43  1  0
 16 44  1  0
 17 45  1  0
 18 46  1  0
 20 47  1  0
 21 48  1  0
 23 49  1  0
 26 50  1  0
 27 51  1  0
M  END
>  <smiles>  (29) 
O=C(NCC(=O)N1CCCC1Cc1ccccc1)c1ccc2cc(Cl)ccc2n1

>  <score_type>  (29) 
oracle

>  <origin>  (29) 
autodockgpu

>  <m_score__min__energy>  (29) 
-8.8599999999999994

>  <m_primary>  (29) 
energy

>  <rmsd>  (29) 
1.6648589498832616

>  <m_score__min__rmsd>  (29) 
1.6648589498832616

>  <meeko>  (29) 
{"free_energy": -8.62, "intermolecular_energy": -10.41, "internal_energy": -1.66, "cluster_size": 8, "cluster_id": 2, "rank_in_cluster": 2}

>  <energy>  (29) 
-8.13

>  <cluster_rmsd>  (29) 
0.8

>  <cluster>  (29) 
2

$$$$

     RDKit          3D

 51 54  0  0  0  0  0  0  0  0999 V2000
  137.8730   73.6290  220.2730 O   0  0  0  0  0  0  0  0  0  0  0  0
  137.9610   74.1200  221.4070 C   0  0  0  0  0  0  0  0  0  0  0  0
  137.1470   73.6290  222.4650 N   0  0  0  0  0  0  0  0  0  0  0  0
  136.2110   72.5540  222.2160 C   0  0  0  0  0  0  0  0  0  0  0  0
  136.8050   71.3100  222.7700 C   0  0  0  0  0  0  0  0  0  0  0  0
  136.0130   70.5040  223.3330 O   0  0  0  0  0  0  0  0  0  0  0  0
  138.2010   71.0610  222.6600 N   0  0  0  0  0  0  0  0  0  0  0  0
  138.9480   70.3650  221.6450 C   0  0  0  0  0  0  0  0  0  0  0  0
  140.3470   70.9670  221.6680 C   0  0  0  0  0  0  0  0  0  0  0  0
  140.2460   72.0760  222.7140 C   0  0  0  0  0  0  0  0  0  0  0  0
  139.1890   71.5050  223.6360 C   0  0  2  0  0  0  0  0  0  0  0  0
  139.7090   70.3460  224.4470 C   0  0  0  0  0  0  0  0  0  0  0  0
  140.1910   70.7510  225.7850 C   0  0  0  0  0  0  0  0  0  0  0  0
  140.9580   71.8870  225.9870 C   0  0  0  0  0  0  0  0  0  0  0  0
  141.4100   72.2660  227.2390 C   0  0  0  0  0  0  0  0  0  0  0  0
  141.0450   71.4300  228.2970 C   0  0  0  0  0  0  0  0  0  0  0  0
  140.2900   70.3080  228.1210 C   0  0  0  0  0  0  0  0  0  0  0  0
  139.8520   69.9520  226.8590 C   0  0  0  0  0  0  0  0  0  0  0  0
  138.8970   75.2070  221.6900 C   0  0  0  0  0  0  0  0  0  0  0  0
  140.2400   75.0780  221.3960 C   0  0  0  0  0  0  0  0  0  0  0  0
  141.1200   76.1300  221.6730 C   0  0  0  0  0  0  0  0  0  0  0  0
  140.6320   77.2980  222.2470 C   0  0  0  0  0  0  0  0  0  0  0  0
  141.4410   78.3740  222.5480 C   0  0  0  0  0  0  0  0  0  0  0  0
  140.8850   79.5160  223.1210 C   0  0  0  0  0  0  0  0  0  0  0  0
  141.8610   80.9120  223.5250 Cl  0  0  0  0  0  0  0  0  0  0  0  0
  139.5320   79.5880  223.3940 C   0  0  0  0  0  0  0  0  0  0  0  0
  138.7060   78.5120  223.0950 C   0  0  0  0  0  0  0  0  0  0  0  0
  139.2840   77.3880  222.5250 C   0  0  0  0  0  0  0  0  0  0  0  0
  138.4740   76.3650  222.2470 N   0  0  0  0  0  0  0  0  0  0  0  0
  137.2580   74.0810  223.4210 H   0  0  0  0  0  0  0  0  0  0  0  0
  135.2531   72.7669  222.7131 H   0  0  0  0  0  0  0  0  0  0  0  0
  136.0208   72.4467  221.1379 H   0  0  0  0  0  0  0  0  0  0  0  0
  138.9907   69.2894  221.8716 H   0  0  0  0  0  0  0  0  0  0  0  0
  138.4795   70.4709  220.6554 H   0  0  0  0  0  0  0  0  0  0  0  0
  141.0930   70.2149  221.9643 H   0  0  0  0  0  0  0  0  0  0  0  0
  140.6683   71.3373  220.6833 H   0  0  0  0  0  0  0  0  0  0  0  0
  141.2015   72.2258  223.2380 H   0  0  0  0  0  0  0  0  0  0  0  0
  140.0033   73.0672  222.3033 H   0  0  0  0  0  0  0  0  0  0  0  0
  138.8168   72.2144  224.3898 H   0  0  0  0  0  0  0  0  0  0  0  0
  138.8980   69.6136  224.5728 H   0  0  0  0  0  0  0  0  0  0  0  0
  140.5645   69.9195  223.9028 H   0  0  0  0  0  0  0  0  0  0  0  0
  141.2175   72.5114  225.1194 H   0  0  0  0  0  0  0  0  0  0  0  0
  142.0188   73.1694  227.3915 H   0  0  0  0  0  0  0  0  0  0  0  0
  141.3800   71.6870  229.3127 H   0  0  0  0  0  0  0  0  0  0  0  0
  140.0282   69.6831  228.9876 H   0  0  0  0  0  0  0  0  0  0  0  0
  139.2436   69.0473  226.7128 H   0  0  0  0  0  0  0  0  0  0  0  0
  140.6178   74.1489  220.9443 H   0  0  0  0  0  0  0  0  0  0  0  0
  142.1903   76.0333  221.4382 H   0  0  0  0  0  0  0  0  0  0  0  0
  142.5197   78.3307  222.3368 H   0  0  0  0  0  0  0  0  0  0  0  0
  139.1096   80.4967  223.8477 H   0  0  0  0  0  0  0  0  0  0  0  0
  137.6267   78.5505  223.3040 H   0  0  0  0  0  0  0  0  0  0  0  0
  1  2  2  0
  2  3  1  0
  3  4  1  0
  4  5  1  0
  5  6  2  0
  5  7  1  0
  7  8  1  0
  8  9  1  0
  9 10  1  0
 10 11  1  0
 11 12  1  0
 12 13  1  0
 13 14  2  0
 14 15  1  0
 15 16  2  0
 16 17  1  0
 17 18  2  0
  2 19  1  0
 19 20  2  0
 20 21  1  0
 21 22  2  0
 22 23  1  0
 23 24  2  0
 24 25  1  0
 24 26  1  0
 26 27  2  0
 27 28  1  0
 28 29  2  0
 11  7  1  0
 18 13  1  0
 29 19  1  0
 28 22  1  0
  3 30  1  0
  4 31  1  0
  4 32  1  0
  8 33  1  0
  8 34  1  0
  9 35  1  0
  9 36  1  0
 10 37  1  0
 10 38  1  0
 11 39  1  1
 12 40  1  0
 12 41  1  0
 14 42  1  0
 15 43  1  0
 16 44  1  0
 17 45  1  0
 18 46  1  0
 20 47  1  0
 21 48  1  0
 23 49  1  0
 26 50  1  0
 27 51  1  0
M  END
>  <smiles>  (30) 
O=C(NCC(=O)N1CCCC1Cc1ccccc1)c1ccc2cc(Cl)ccc2n1

>  <score_type>  (30) 
oracle

>  <origin>  (30) 
autodockgpu

>  <m_score__min__energy>  (30) 
-8.8599999999999994

>  <m_primary>  (30) 
energy

>  <rmsd>  (30) 
7.06904278389855

>  <m_score__min__rmsd>  (30) 
7.06904278389855

>  <meeko>  (30) 
{"free_energy": -8.32, "intermolecular_energy": -10.11, "internal_energy": -1.91, "cluster_size": 10, "cluster_id": 4, "rank_in_cluster": 1}

>  <energy>  (30) 
-8.1

>  <cluster_rmsd>  (30) 
1.17

>  <cluster>  (30) 
2

$$$$

     RDKit          3D

 51 54  0  0  0  0  0  0  0  0999 V2000
  139.8230   72.2360  220.6040 O   0  0  0  0  0  0  0  0  0  0  0  0
  139.7510   72.6120  221.7820 C   0  0  0  0  0  0  0  0  0  0  0  0
  139.6360   73.9970  222.0860 N   0  0  0  0  0  0  0  0  0  0  0  0
  139.6040   74.9700  221.0160 C   0  0  0  0  0  0  0  0  0  0  0  0
  140.6480   75.9870  221.3080 C   0  0  0  0  0  0  0  0  0  0  0  0
  140.9710   76.1390  222.5190 O   0  0  0  0  0  0  0  0  0  0  0  0
  141.2390   76.7410  220.2580 N   0  0  0  0  0  0  0  0  0  0  0  0
  142.5970   76.7670  219.7770 C   0  0  0  0  0  0  0  0  0  0  0  0
  142.5150   77.1800  218.3130 C   0  0  0  0  0  0  0  0  0  0  0  0
  141.0140   77.2880  218.0510 C   0  0  0  0  0  0  0  0  0  0  0  0
  140.5120   77.6890  219.4220 C   0  0  2  0  0  0  0  0  0  0  0  0
  140.8800   79.1100  219.7680 C   0  0  0  0  0  0  0  0  0  0  0  0
  141.0060   79.3330  221.2240 C   0  0  0  0  0  0  0  0  0  0  0  0
  139.9550   79.1210  222.1020 C   0  0  0  0  0  0  0  0  0  0  0  0
  140.0720   79.3310  223.4660 C   0  0  0  0  0  0  0  0  0  0  0  0
  141.3200   79.7730  223.9090 C   0  0  0  0  0  0  0  0  0  0  0  0
  142.3680   79.9870  223.0620 C   0  0  0  0  0  0  0  0  0  0  0  0
  142.2240   79.7700  221.7050 C   0  0  0  0  0  0  0  0  0  0  0  0
  139.7810   71.6530  222.8850 C   0  0  0  0  0  0  0  0  0  0  0  0
  139.2300   70.3950  222.7430 C   0  0  0  0  0  0  0  0  0  0  0  0
  139.2690   69.4900  223.8100 C   0  0  0  0  0  0  0  0  0  0  0  0
  139.8630   69.8700  225.0080 C   0  0  0  0  0  0  0  0  0  0  0  0
  139.9360   69.0320  226.1010 C   0  0  0  0  0  0  0  0  0  0  0  0
  140.5470   69.4760  227.2720 C   0  0  0  0  0  0  0  0  0  0  0  0
  140.6700   68.4580  228.6900 Cl  0  0  0  0  0  0  0  0  0  0  0  0
  141.0810   70.7480  227.3560 C   0  0  0  0  0  0  0  0  0  0  0  0
  141.0140   71.6030  226.2630 C   0  0  0  0  0  0  0  0  0  0  0  0
  140.4020   71.1360  225.1100 C   0  0  0  0  0  0  0  0  0  0  0  0
  140.3470   71.9720  224.0720 N   0  0  0  0  0  0  0  0  0  0  0  0
  139.5780   74.2730  223.1110 H   0  0  0  0  0  0  0  0  0  0  0  0
  139.8161   74.4789  220.0549 H   0  0  0  0  0  0  0  0  0  0  0  0
  138.6119   75.4404  220.9486 H   0  0  0  0  0  0  0  0  0  0  0  0
  143.1908   77.4964  220.3474 H   0  0  0  0  0  0  0  0  0  0  0  0
  143.0848   75.7879  219.8931 H   0  0  0  0  0  0  0  0  0  0  0  0
  143.0123   78.1475  218.1499 H   0  0  0  0  0  0  0  0  0  0  0  0
  143.0151   76.4676  217.6404 H   0  0  0  0  0  0  0  0  0  0  0  0
  140.7894   78.0570  217.2973 H   0  0  0  0  0  0  0  0  0  0  0  0
  140.5558   76.3722  217.6493 H   0  0  0  0  0  0  0  0  0  0  0  0
  139.4173   77.6612  219.5267 H   0  0  0  0  0  0  0  0  0  0  0  0
  141.8422   79.3494  219.2916 H   0  0  0  0  0  0  0  0  0  0  0  0
  140.0702   79.7590  219.4033 H   0  0  0  0  0  0  0  0  0  0  0  0
  138.9918   78.7729  221.7006 H   0  0  0  0  0  0  0  0  0  0  0  0
  139.2337   79.1601  224.1574 H   0  0  0  0  0  0  0  0  0  0  0  0
  141.4642   79.9561  224.9840 H   0  0  0  0  0  0  0  0  0  0  0  0
  143.3324   80.3340  223.4614 H   0  0  0  0  0  0  0  0  0  0  0  0
  143.0664   79.9427  221.0190 H   0  0  0  0  0  0  0  0  0  0  0  0
  138.7605   70.1041  221.7917 H   0  0  0  0  0  0  0  0  0  0  0  0
  138.8330   68.4859  223.7014 H   0  0  0  0  0  0  0  0  0  0  0  0
  139.5138   68.0176  226.0486 H   0  0  0  0  0  0  0  0  0  0  0  0
  141.5590   71.0834  228.2882 H   0  0  0  0  0  0  0  0  0  0  0  0
  141.4335   72.6188  226.3109 H   0  0  0  0  0  0  0  0  0  0  0  0
  1  2  2  0
  2  3  1  0
  3  4  1  0
  4  5  1  0
  5  6  2  0
  5  7  1  0
  7  8  1  0
  8  9  1  0
  9 10  1  0
 10 11  1  0
 11 12  1  0
 12 13  1  0
 13 14  2  0
 14 15  1  0
 15 16  2  0
 16 17  1  0
 17 18  2  0
  2 19  1  0
 19 20  2  0
 20 21  1  0
 21 22  2  0
 22 23  1  0
 23 24  2  0
 24 25  1  0
 24 26  1  0
 26 27  2  0
 27 28  1  0
 28 29  2  0
 11  7  1  0
 18 13  1  0
 29 19  1  0
 28 22  1  0
  3 30  1  0
  4 31  1  0
  4 32  1  0
  8 33  1  0
  8 34  1  0
  9 35  1  0
  9 36  1  0
 10 37  1  0
 10 38  1  0
 11 39  1  6
 12 40  1  0
 12 41  1  0
 14 42  1  0
 15 43  1  0
 16 44  1  0
 17 45  1  0
 18 46  1  0
 20 47  1  0
 21 48  1  0
 23 49  1  0
 26 50  1  0
 27 51  1  0
M  END
>  <smiles>  (31) 
O=C(NCC(=O)N1CCCC1Cc1ccccc1)c1ccc2cc(Cl)ccc2n1

>  <score_type>  (31) 
oracle

>  <origin>  (31) 
autodockgpu

>  <m_score__min__energy>  (31) 
-8.8599999999999994

>  <m_primary>  (31) 
energy

>  <rmsd>  (31) 
2.0639222741427115

>  <m_score__min__rmsd>  (31) 
2.0639222741427115

>  <meeko>  (31) 
{"free_energy": -8.47, "intermolecular_energy": -10.26, "internal_energy": -2.11, "cluster_size": 24, "cluster_id": 1, "rank_in_cluster": 12}

>  <energy>  (31) 
-8.08

>  <cluster_rmsd>  (31) 
0.87

>  <cluster>  (31) 
2

$$$$

     RDKit          3D

 51 54  0  0  0  0  0  0  0  0999 V2000
  139.2360   72.0720  220.5550 O   0  0  0  0  0  0  0  0  0  0  0  0
  139.7510   72.4050  221.6320 C   0  0  0  0  0  0  0  0  0  0  0  0
  140.3350   73.6940  221.7780 N   0  0  0  0  0  0  0  0  0  0  0  0
  140.3300   74.6190  220.6650 C   0  0  0  0  0  0  0  0  0  0  0  0
  141.0360   75.8490  221.1060 C   0  0  0  0  0  0  0  0  0  0  0  0
  141.0490   76.0840  222.3470 O   0  0  0  0  0  0  0  0  0  0  0  0
  141.6600   76.7070  220.1590 N   0  0  0  0  0  0  0  0  0  0  0  0
  143.0220   76.7490  219.6920 C   0  0  0  0  0  0  0  0  0  0  0  0
  142.9640   77.3390  218.2880 C   0  0  0  0  0  0  0  0  0  0  0  0
  141.4700   77.5260  218.0350 C   0  0  0  0  0  0  0  0  0  0  0  0
  140.9690   77.7730  219.4430 C   0  0  2  0  0  0  0  0  0  0  0  0
  141.3770   79.1280  219.9620 C   0  0  0  0  0  0  0  0  0  0  0  0
  141.3660   79.2060  221.4380 C   0  0  0  0  0  0  0  0  0  0  0  0
  142.5020   79.5030  222.1750 C   0  0  0  0  0  0  0  0  0  0  0  0
  142.4930   79.5760  223.5570 C   0  0  0  0  0  0  0  0  0  0  0  0
  141.2620   79.3310  224.1720 C   0  0  0  0  0  0  0  0  0  0  0  0
  140.1330   79.0380  223.4660 C   0  0  0  0  0  0  0  0  0  0  0  0
  140.1700   78.9710  222.0850 C   0  0  0  0  0  0  0  0  0  0  0  0
  139.7720   71.4930  222.7740 C   0  0  0  0  0  0  0  0  0  0  0  0
  139.1970   70.2400  222.6880 C   0  0  0  0  0  0  0  0  0  0  0  0
  139.2280   69.3800  223.7930 C   0  0  0  0  0  0  0  0  0  0  0  0
  139.8390   69.7990  224.9690 C   0  0  0  0  0  0  0  0  0  0  0  0
  139.9060   69.0050  226.0950 C   0  0  0  0  0  0  0  0  0  0  0  0
  140.5340   69.4870  227.2420 C   0  0  0  0  0  0  0  0  0  0  0  0
  140.6500   68.5270  228.7010 Cl  0  0  0  0  0  0  0  0  0  0  0  0
  141.0920   70.7520  227.2690 C   0  0  0  0  0  0  0  0  0  0  0  0
  141.0320   71.5600  226.1410 C   0  0  0  0  0  0  0  0  0  0  0  0
  140.4020   71.0580  225.0140 C   0  0  0  0  0  0  0  0  0  0  0  0
  140.3540   71.8500  223.9420 N   0  0  0  0  0  0  0  0  0  0  0  0
  140.7650   73.9350  222.7200 H   0  0  0  0  0  0  0  0  0  0  0  0
  140.8513   74.1744  219.8044 H   0  0  0  0  0  0  0  0  0  0  0  0
  139.2996   74.8517  220.3582 H   0  0  0  0  0  0  0  0  0  0  0  0
  143.6325   77.3853  220.3495 H   0  0  0  0  0  0  0  0  0  0  0  0
  143.4798   75.7488  219.6912 H   0  0  0  0  0  0  0  0  0  0  0  0
  143.4926   78.3027  218.2454 H   0  0  0  0  0  0  0  0  0  0  0  0
  143.4465   76.6975  217.5359 H   0  0  0  0  0  0  0  0  0  0  0  0
  141.2757   78.3879  217.3797 H   0  0  0  0  0  0  0  0  0  0  0  0
  140.9869   76.6809  217.5228 H   0  0  0  0  0  0  0  0  0  0  0  0
  139.8732   77.7680  219.5390 H   0  0  0  0  0  0  0  0  0  0  0  0
  142.3944   79.3482  219.6065 H   0  0  0  0  0  0  0  0  0  0  0  0
  140.6452   79.8589  219.5874 H   0  0  0  0  0  0  0  0  0  0  0  0
  143.4460   79.6876  221.6413 H   0  0  0  0  0  0  0  0  0  0  0  0
  143.3983   79.8121  224.1355 H   0  0  0  0  0  0  0  0  0  0  0  0
  141.2017   79.3764  225.2694 H   0  0  0  0  0  0  0  0  0  0  0  0
  139.1877   78.8539  223.9975 H   0  0  0  0  0  0  0  0  0  0  0  0
  139.2613   78.7344  221.5121 H   0  0  0  0  0  0  0  0  0  0  0  0
  138.7154   69.9181  221.7529 H   0  0  0  0  0  0  0  0  0  0  0  0
  138.7723   68.3808  223.7306 H   0  0  0  0  0  0  0  0  0  0  0  0
  139.4661   67.9968  226.0876 H   0  0  0  0  0  0  0  0  0  0  0  0
  141.5828   71.1179  228.1829 H   0  0  0  0  0  0  0  0  0  0  0  0
  141.4716   72.5684  226.1425 H   0  0  0  0  0  0  0  0  0  0  0  0
  1  2  2  0
  2  3  1  0
  3  4  1  0
  4  5  1  0
  5  6  2  0
  5  7  1  0
  7  8  1  0
  8  9  1  0
  9 10  1  0
 10 11  1  0
 11 12  1  0
 12 13  1  0
 13 14  2  0
 14 15  1  0
 15 16  2  0
 16 17  1  0
 17 18  2  0
  2 19  1  0
 19 20  2  0
 20 21  1  0
 21 22  2  0
 22 23  1  0
 23 24  2  0
 24 25  1  0
 24 26  1  0
 26 27  2  0
 27 28  1  0
 28 29  2  0
 11  7  1  0
 18 13  1  0
 29 19  1  0
 28 22  1  0
  3 30  1  0
  4 31  1  0
  4 32  1  0
  8 33  1  0
  8 34  1  0
  9 35  1  0
  9 36  1  0
 10 37  1  0
 10 38  1  0
 11 39  1  6
 12 40  1  0
 12 41  1  0
 14 42  1  0
 15 43  1  0
 16 44  1  0
 17 45  1  0
 18 46  1  0
 20 47  1  0
 21 48  1  0
 23 49  1  0
 26 50  1  0
 27 51  1  0
M  END
>  <smiles>  (32) 
O=C(NCC(=O)N1CCCC1Cc1ccccc1)c1ccc2cc(Cl)ccc2n1

>  <score_type>  (32) 
oracle

>  <origin>  (32) 
autodockgpu

>  <m_score__min__energy>  (32) 
-8.8599999999999994

>  <m_primary>  (32) 
energy

>  <rmsd>  (32) 
2.225236178340231

>  <m_score__min__rmsd>  (32) 
2.225236178340231

>  <meeko>  (32) 
{"free_energy": -8.05, "intermolecular_energy": -9.84, "internal_energy": -2.42, "cluster_size": 24, "cluster_id": 1, "rank_in_cluster": 23}

>  <energy>  (32) 
-8.02

>  <cluster_rmsd>  (32) 
0.78

>  <cluster>  (32) 
2

$$$$

     RDKit          3D

 51 54  0  0  0  0  0  0  0  0999 V2000
  139.0700   72.1660  220.6170 O   0  0  0  0  0  0  0  0  0  0  0  0
  139.6560   72.4640  221.6670 C   0  0  0  0  0  0  0  0  0  0  0  0
  140.3060   73.7230  221.7920 N   0  0  0  0  0  0  0  0  0  0  0  0
  140.2840   74.6590  220.6880 C   0  0  0  0  0  0  0  0  0  0  0  0
  141.0590   75.8560  221.1040 C   0  0  0  0  0  0  0  0  0  0  0  0
  141.1400   76.0790  222.3440 O   0  0  0  0  0  0  0  0  0  0  0  0
  141.6720   76.6960  220.1350 N   0  0  0  0  0  0  0  0  0  0  0  0
  143.0110   76.6870  219.6040 C   0  0  0  0  0  0  0  0  0  0  0  0
  142.9110   77.2930  218.2090 C   0  0  0  0  0  0  0  0  0  0  0  0
  141.4160   77.5430  218.0290 C   0  0  0  0  0  0  0  0  0  0  0  0
  140.9920   77.7960  219.4600 C   0  0  2  0  0  0  0  0  0  0  0  0
  141.4800   79.1290  219.9690 C   0  0  0  0  0  0  0  0  0  0  0  0
  141.3930   79.2500  221.4390 C   0  0  0  0  0  0  0  0  0  0  0  0
  140.2300   78.9750  222.1410 C   0  0  0  0  0  0  0  0  0  0  0  0
  140.1470   79.0880  223.5180 C   0  0  0  0  0  0  0  0  0  0  0  0
  141.3140   79.5010  224.1660 C   0  0  0  0  0  0  0  0  0  0  0  0
  142.4690   79.7760  223.4960 C   0  0  0  0  0  0  0  0  0  0  0  0
  142.5240   79.6540  222.1200 C   0  0  0  0  0  0  0  0  0  0  0  0
  139.6970   71.5400  222.7990 C   0  0  0  0  0  0  0  0  0  0  0  0
  139.1370   70.2810  222.7030 C   0  0  0  0  0  0  0  0  0  0  0  0
  139.1870   69.4100  223.7980 C   0  0  0  0  0  0  0  0  0  0  0  0
  139.8000   69.8230  224.9750 C   0  0  0  0  0  0  0  0  0  0  0  0
  139.8850   69.0190  226.0920 C   0  0  0  0  0  0  0  0  0  0  0  0
  140.5160   69.4960  227.2400 C   0  0  0  0  0  0  0  0  0  0  0  0
  140.6540   68.5220  228.6870 Cl  0  0  0  0  0  0  0  0  0  0  0  0
  141.0580   70.7670  227.2760 C   0  0  0  0  0  0  0  0  0  0  0  0
  140.9800   71.5870  226.1580 C   0  0  0  0  0  0  0  0  0  0  0  0
  140.3480   71.0880  225.0290 C   0  0  0  0  0  0  0  0  0  0  0  0
  140.2820   71.8920  223.9670 N   0  0  0  0  0  0  0  0  0  0  0  0
  140.7970   73.9350  222.7110 H   0  0  0  0  0  0  0  0  0  0  0  0
  140.7449   74.2030  219.7994 H   0  0  0  0  0  0  0  0  0  0  0  0
  139.2500   74.9352  220.4339 H   0  0  0  0  0  0  0  0  0  0  0  0
  143.6777   77.2912  220.2368 H   0  0  0  0  0  0  0  0  0  0  0  0
  143.4266   75.6690  219.5734 H   0  0  0  0  0  0  0  0  0  0  0  0
  143.4761   78.2348  218.1491 H   0  0  0  0  0  0  0  0  0  0  0  0
  143.3307   76.6400  217.4296 H   0  0  0  0  0  0  0  0  0  0  0  0
  141.2267   78.4186  217.3906 H   0  0  0  0  0  0  0  0  0  0  0  0
  140.8752   76.7231  217.5337 H   0  0  0  0  0  0  0  0  0  0  0  0
  139.9026   77.8339  219.6077 H   0  0  0  0  0  0  0  0  0  0  0  0
  142.5303   79.2566  219.6679 H   0  0  0  0  0  0  0  0  0  0  0  0
  140.8325   79.9052  219.5350 H   0  0  0  0  0  0  0  0  0  0  0  0
  139.3384   78.6545  221.5822 H   0  0  0  0  0  0  0  0  0  0  0  0
  139.2203   78.8665  224.0678 H   0  0  0  0  0  0  0  0  0  0  0  0
  141.3002   79.6086  225.2606 H   0  0  0  0  0  0  0  0  0  0  0  0
  143.3617   80.0966  224.0531 H   0  0  0  0  0  0  0  0  0  0  0  0
  143.4543   79.8753  221.5763 H   0  0  0  0  0  0  0  0  0  0  0  0
  138.6526   69.9633  221.7679 H   0  0  0  0  0  0  0  0  0  0  0  0
  138.7441   68.4056  223.7273 H   0  0  0  0  0  0  0  0  0  0  0  0
  139.4569   68.0058  226.0773 H   0  0  0  0  0  0  0  0  0  0  0  0
  141.5511   71.1290  228.1902 H   0  0  0  0  0  0  0  0  0  0  0  0
  141.4063   72.6010  226.1677 H   0  0  0  0  0  0  0  0  0  0  0  0
  1  2  2  0
  2  3  1  0
  3  4  1  0
  4  5  1  0
  5  6  2  0
  5  7  1  0
  7  8  1  0
  8  9  1  0
  9 10  1  0
 10 11  1  0
 11 12  1  0
 12 13  1  0
 13 14  2  0
 14 15  1  0
 15 16  2  0
 16 17  1  0
 17 18  2  0
  2 19  1  0
 19 20  2  0
 20 21  1  0
 21 22  2  0
 22 23  1  0
 23 24  2  0
 24 25  1  0
 24 26  1  0
 26 27  2  0
 27 28  1  0
 28 29  2  0
 11  7  1  0
 18 13  1  0
 29 19  1  0
 28 22  1  0
  3 30  1  0
  4 31  1  0
  4 32  1  0
  8 33  1  0
  8 34  1  0
  9 35  1  0
  9 36  1  0
 10 37  1  0
 10 38  1  0
 11 39  1  6
 12 40  1  0
 12 41  1  0
 14 42  1  0
 15 43  1  0
 16 44  1  0
 17 45  1  0
 18 46  1  0
 20 47  1  0
 21 48  1  0
 23 49  1  0
 26 50  1  0
 27 51  1  0
M  END
>  <smiles>  (33) 
O=C(NCC(=O)N1CCCC1Cc1ccccc1)c1ccc2cc(Cl)ccc2n1

>  <score_type>  (33) 
oracle

>  <origin>  (33) 
autodockgpu

>  <m_score__min__energy>  (33) 
-8.8599999999999994

>  <m_primary>  (33) 
energy

>  <rmsd>  (33) 
2.2047781283164944

>  <m_score__min__rmsd>  (33) 
2.2047781283164944

>  <meeko>  (33) 
{"free_energy": -8.09, "intermolecular_energy": -9.88, "internal_energy": -2.41, "cluster_size": 24, "cluster_id": 1, "rank_in_cluster": 21}

>  <energy>  (33) 
-8.49

>  <cluster_rmsd>  (33) 
0.0

>  <cluster>  (33) 
3

$$$$

     RDKit          3D

 51 54  0  0  0  0  0  0  0  0999 V2000
  138.4890   71.6950  220.9790 O   0  0  0  0  0  0  0  0  0  0  0  0
  138.8930   72.0910  222.0810 C   0  0  0  0  0  0  0  0  0  0  0  0
  139.0660   73.4820  222.3230 N   0  0  0  0  0  0  0  0  0  0  0  0
  138.7700   74.4380  221.2790 C   0  0  0  0  0  0  0  0  0  0  0  0
  140.0020   74.6050  220.4660 C   0  0  0  0  0  0  0  0  0  0  0  0
  140.2830   73.6740  219.6610 O   0  0  0  0  0  0  0  0  0  0  0  0
  140.8110   75.7660  220.6050 N   0  0  0  0  0  0  0  0  0  0  0  0
  142.1540   76.0290  220.1540 C   0  0  0  0  0  0  0  0  0  0  0  0
  142.2440   77.5390  219.9670 C   0  0  0  0  0  0  0  0  0  0  0  0
  140.8310   78.0270  220.2780 C   0  0  0  0  0  0  0  0  0  0  0  0
  140.3810   76.9850  221.2810 C   0  0  2  0  0  0  0  0  0  0  0  0
  141.0740   77.1400  222.6110 C   0  0  0  0  0  0  0  0  0  0  0  0
  141.3120   78.5530  222.9740 C   0  0  0  0  0  0  0  0  0  0  0  0
  142.5850   79.0940  223.0620 C   0  0  0  0  0  0  0  0  0  0  0  0
  142.8090   80.4160  223.4030 C   0  0  0  0  0  0  0  0  0  0  0  0
  141.6680   81.1810  223.6560 C   0  0  0  0  0  0  0  0  0  0  0  0
  140.4060   80.6700  223.5750 C   0  0  0  0  0  0  0  0  0  0  0  0
  140.2110   79.3450  223.2320 C   0  0  0  0  0  0  0  0  0  0  0  0
  139.2010   71.1490  223.1560 C   0  0  0  0  0  0  0  0  0  0  0  0
  138.8730   69.8130  223.0400 C   0  0  0  0  0  0  0  0  0  0  0  0
  139.1770   68.9260  224.0800 C   0  0  0  0  0  0  0  0  0  0  0  0
  139.8050   69.4030  225.2240 C   0  0  0  0  0  0  0  0  0  0  0  0
  140.1330   68.5870  226.2870 C   0  0  0  0  0  0  0  0  0  0  0  0
  140.7650   69.1310  227.4050 C   0  0  0  0  0  0  0  0  0  0  0  0
  141.2050   68.1470  228.7830 Cl  0  0  0  0  0  0  0  0  0  0  0  0
  141.0680   70.4780  227.4640 C   0  0  0  0  0  0  0  0  0  0  0  0
  140.7430   71.3100  226.4010 C   0  0  0  0  0  0  0  0  0  0  0  0
  140.1160   70.7450  225.3010 C   0  0  0  0  0  0  0  0  0  0  0  0
  139.8120   71.5610  224.2910 N   0  0  0  0  0  0  0  0  0  0  0  0
  139.4150   73.7740  223.2840 H   0  0  0  0  0  0  0  0  0  0  0  0
  137.9509   74.0633  220.6475 H   0  0  0  0  0  0  0  0  0  0  0  0
  138.4569   75.3999  221.7111 H   0  0  0  0  0  0  0  0  0  0  0  0
  142.8829   75.6925  220.9060 H   0  0  0  0  0  0  0  0  0  0  0  0
  142.3788   75.4924  219.2204 H   0  0  0  0  0  0  0  0  0  0  0  0
  142.9729   77.9779  220.6642 H   0  0  0  0  0  0  0  0  0  0  0  0
  142.5816   77.8245  218.9597 H   0  0  0  0  0  0  0  0  0  0  0  0
  140.8393   79.0349  220.7185 H   0  0  0  0  0  0  0  0  0  0  0  0
  140.1789   78.1206  219.3971 H   0  0  0  0  0  0  0  0  0  0  0  0
  139.3103   77.0308  221.5289 H   0  0  0  0  0  0  0  0  0  0  0  0
  140.4481   76.6783  223.3889 H   0  0  0  0  0  0  0  0  0  0  0  0
  142.0555   76.6497  222.5311 H   0  0  0  0  0  0  0  0  0  0  0  0
  143.4502   78.4477  222.8528 H   0  0  0  0  0  0  0  0  0  0  0  0
  143.8225   80.8383  223.4707 H   0  0  0  0  0  0  0  0  0  0  0  0
  141.7923   82.2386  223.9318 H   0  0  0  0  0  0  0  0  0  0  0  0
  139.5396   81.3149  223.7835 H   0  0  0  0  0  0  0  0  0  0  0  0
  139.1950   78.9285  223.1657 H   0  0  0  0  0  0  0  0  0  0  0  0
  138.3733   69.4457  222.1315 H   0  0  0  0  0  0  0  0  0  0  0  0
  138.9207   67.8599  223.9920 H   0  0  0  0  0  0  0  0  0  0  0  0
  139.8973   67.5131  226.2530 H   0  0  0  0  0  0  0  0  0  0  0  0
  141.5667   70.8911  228.3532 H   0  0  0  0  0  0  0  0  0  0  0  0
  140.9759   72.3847  226.4307 H   0  0  0  0  0  0  0  0  0  0  0  0
  1  2  2  0
  2  3  1  0
  3  4  1  0
  4  5  1  0
  5  6  2  0
  5  7  1  0
  7  8  1  0
  8  9  1  0
  9 10  1  0
 10 11  1  0
 11 12  1  0
 12 13  1  0
 13 14  2  0
 14 15  1  0
 15 16  2  0
 16 17  1  0
 17 18  2  0
  2 19  1  0
 19 20  2  0
 20 21  1  0
 21 22  2  0
 22 23  1  0
 23 24  2  0
 24 25  1  0
 24 26  1  0
 26 27  2  0
 27 28  1  0
 28 29  2  0
 11  7  1  0
 18 13  1  0
 29 19  1  0
 28 22  1  0
  3 30  1  0
  4 31  1  0
  4 32  1  0
  8 33  1  0
  8 34  1  0
  9 35  1  0
  9 36  1  0
 10 37  1  0
 10 38  1  0
 11 39  1  1
 12 40  1  0
 12 41  1  0
 14 42  1  0
 15 43  1  0
 16 44  1  0
 17 45  1  0
 18 46  1  0
 20 47  1  0
 21 48  1  0
 23 49  1  0
 26 50  1  0
 27 51  1  0
M  END
>  <smiles>  (34) 
O=C(NCC(=O)N1CCCC1Cc1ccccc1)c1ccc2cc(Cl)ccc2n1

>  <score_type>  (34) 
oracle

>  <origin>  (34) 
autodockgpu

>  <m_score__min__energy>  (34) 
-8.8599999999999994

>  <m_primary>  (34) 
energy

>  <rmsd>  (34) 
1.9943791090497667

>  <m_score__min__rmsd>  (34) 
1.9943791090497667

>  <meeko>  (34) 
{"free_energy": -8.7, "intermolecular_energy": -10.49, "internal_energy": -1.62, "cluster_size": 24, "cluster_id": 1, "rank_in_cluster": 5}

>  <energy>  (34) 
-8.49

>  <cluster_rmsd>  (34) 
1.72

>  <cluster>  (34) 
3

$$$$

     RDKit          3D

 51 54  0  0  0  0  0  0  0  0999 V2000
  142.0780   73.1480  220.7040 O   0  0  0  0  0  0  0  0  0  0  0  0
  141.3230   73.9180  221.3140 C   0  0  0  0  0  0  0  0  0  0  0  0
  140.2960   73.4000  222.1520 N   0  0  0  0  0  0  0  0  0  0  0  0
  140.1330   71.9690  222.2930 C   0  0  0  0  0  0  0  0  0  0  0  0
  138.7190   71.7180  222.6730 C   0  0  0  0  0  0  0  0  0  0  0  0
  137.9400   72.7110  222.6530 O   0  0  0  0  0  0  0  0  0  0  0  0
  138.2870   70.4130  223.0380 N   0  0  0  0  0  0  0  0  0  0  0  0
  137.0120   69.7670  222.8600 C   0  0  0  0  0  0  0  0  0  0  0  0
  137.3060   68.2730  222.7990 C   0  0  0  0  0  0  0  0  0  0  0  0
  138.8290   68.2000  222.8810 C   0  0  0  0  0  0  0  0  0  0  0  0
  139.1310   69.4310  223.7090 C   0  0  2  0  0  0  0  0  0  0  0  0
  138.7250   69.2610  225.1500 C   0  0  0  0  0  0  0  0  0  0  0  0
  139.5610   70.0470  226.0810 C   0  0  0  0  0  0  0  0  0  0  0  0
  140.2840   71.1580  225.6740 C   0  0  0  0  0  0  0  0  0  0  0  0
  141.0680   71.8950  226.5450 C   0  0  0  0  0  0  0  0  0  0  0  0
  141.0890   71.4510  227.8690 C   0  0  0  0  0  0  0  0  0  0  0  0
  140.3850   70.3620  228.2910 C   0  0  0  0  0  0  0  0  0  0  0  0
  139.6100   69.6430  227.4000 C   0  0  0  0  0  0  0  0  0  0  0  0
  141.4620   75.3680  221.1920 C   0  0  0  0  0  0  0  0  0  0  0  0
  142.1280   75.9260  220.1190 C   0  0  0  0  0  0  0  0  0  0  0  0
  142.2500   77.3170  220.0190 C   0  0  0  0  0  0  0  0  0  0  0  0
  141.6990   78.1250  221.0070 C   0  0  0  0  0  0  0  0  0  0  0  0
  141.7820   79.5010  220.9730 C   0  0  0  0  0  0  0  0  0  0  0  0
  141.2060   80.2520  221.9960 C   0  0  0  0  0  0  0  0  0  0  0  0
  141.2790   82.0010  222.0090 Cl  0  0  0  0  0  0  0  0  0  0  0  0
  140.5510   79.6370  223.0470 C   0  0  0  0  0  0  0  0  0  0  0  0
  140.4600   78.2520  223.0920 C   0  0  0  0  0  0  0  0  0  0  0  0
  141.0420   77.5290  222.0620 C   0  0  0  0  0  0  0  0  0  0  0  0
  140.9440   76.2000  222.1250 N   0  0  0  0  0  0  0  0  0  0  0  0
  139.6720   74.0990  222.6550 H   0  0  0  0  0  0  0  0  0  0  0  0
  140.3606   71.4690  221.3400 H   0  0  0  0  0  0  0  0  0  0  0  0
  140.8168   71.5739  223.0587 H   0  0  0  0  0  0  0  0  0  0  0  0
  136.3474   69.9919  223.7072 H   0  0  0  0  0  0  0  0  0  0  0  0
  136.5057   70.1167  221.9482 H   0  0  0  0  0  0  0  0  0  0  0  0
  136.8419   67.7470  223.6463 H   0  0  0  0  0  0  0  0  0  0  0  0
  136.9046   67.7963  221.8925 H   0  0  0  0  0  0  0  0  0  0  0  0
  139.1631   67.2814  223.3855 H   0  0  0  0  0  0  0  0  0  0  0  0
  139.3357   68.1735  221.9050 H   0  0  0  0  0  0  0  0  0  0  0  0
  140.1992   69.6885  223.7606 H   0  0  0  0  0  0  0  0  0  0  0  0
  137.6792   69.5836  225.2601 H   0  0  0  0  0  0  0  0  0  0  0  0
  138.8558   68.1992  225.4061 H   0  0  0  0  0  0  0  0  0  0  0  0
  140.2326   71.4654  224.6191 H   0  0  0  0  0  0  0  0  0  0  0  0
  141.6388   72.7754  226.2149 H   0  0  0  0  0  0  0  0  0  0  0  0
  141.6980   72.0019  228.6009 H   0  0  0  0  0  0  0  0  0  0  0  0
  140.4340   70.0540  229.3459 H   0  0  0  0  0  0  0  0  0  0  0  0
  139.0417   68.7634  227.7367 H   0  0  0  0  0  0  0  0  0  0  0  0
  142.5624   75.2781  219.3434 H   0  0  0  0  0  0  0  0  0  0  0  0
  142.7777   77.7672  219.1653 H   0  0  0  0  0  0  0  0  0  0  0  0
  142.3001   80.0033  220.1428 H   0  0  0  0  0  0  0  0  0  0  0  0
  140.1023   80.2443  223.8469 H   0  0  0  0  0  0  0  0  0  0  0  0
  139.9423   77.7443  223.9191 H   0  0  0  0  0  0  0  0  0  0  0  0
  1  2  2  0
  2  3  1  0
  3  4  1  0
  4  5  1  0
  5  6  2  0
  5  7  1  0
  7  8  1  0
  8  9  1  0
  9 10  1  0
 10 11  1  0
 11 12  1  0
 12 13  1  0
 13 14  2  0
 14 15  1  0
 15 16  2  0
 16 17  1  0
 17 18  2  0
  2 19  1  0
 19 20  2  0
 20 21  1  0
 21 22  2  0
 22 23  1  0
 23 24  2  0
 24 25  1  0
 24 26  1  0
 26 27  2  0
 27 28  1  0
 28 29  2  0
 11  7  1  0
 18 13  1  0
 29 19  1  0
 28 22  1  0
  3 30  1  0
  4 31  1  0
  4 32  1  0
  8 33  1  0
  8 34  1  0
  9 35  1  0
  9 36  1  0
 10 37  1  0
 10 38  1  0
 11 39  1  1
 12 40  1  0
 12 41  1  0
 14 42  1  0
 15 43  1  0
 16 44  1  0
 17 45  1  0
 18 46  1  0
 20 47  1  0
 21 48  1  0
 23 49  1  0
 26 50  1  0
 27 51  1  0
M  END
>  <smiles>  (35) 
O=C(NCC(=O)N1CCCC1Cc1ccccc1)c1ccc2cc(Cl)ccc2n1

>  <score_type>  (35) 
oracle

>  <origin>  (35) 
autodockgpu

>  <m_score__min__energy>  (35) 
-8.8599999999999994

>  <m_primary>  (35) 
energy

>  <rmsd>  (35) 
8.34751244545505

>  <m_score__min__rmsd>  (35) 
8.34751244545505

>  <meeko>  (35) 
{"free_energy": -8.1, "intermolecular_energy": -9.89, "internal_energy": -2.23, "cluster_size": 10, "cluster_id": 4, "rank_in_cluster": 4}

>  <energy>  (35) 
-8.43

>  <cluster_rmsd>  (35) 
0.28

>  <cluster>  (35) 
3

$$$$

     RDKit          3D

 51 54  0  0  0  0  0  0  0  0999 V2000
  140.6500   72.8110  220.9950 O   0  0  0  0  0  0  0  0  0  0  0  0
  139.9410   72.9020  222.0070 C   0  0  0  0  0  0  0  0  0  0  0  0
  139.0650   74.0100  222.1720 N   0  0  0  0  0  0  0  0  0  0  0  0
  139.0000   75.0360  221.1530 C   0  0  0  0  0  0  0  0  0  0  0  0
  140.2550   75.8270  221.2380 C   0  0  0  0  0  0  0  0  0  0  0  0
  140.5670   76.2780  222.3740 O   0  0  0  0  0  0  0  0  0  0  0  0
  141.0500   76.0510  220.0800 N   0  0  0  0  0  0  0  0  0  0  0  0
  140.6830   76.5340  218.7740 C   0  0  0  0  0  0  0  0  0  0  0  0
  141.9330   77.1940  218.2050 C   0  0  0  0  0  0  0  0  0  0  0  0
  142.9480   77.0850  219.3410 C   0  0  0  0  0  0  0  0  0  0  0  0
  142.4870   75.8110  220.0170 C   0  0  2  0  0  0  0  0  0  0  0  0
  142.7970   74.5870  219.1940 C   0  0  0  0  0  0  0  0  0  0  0  0
  144.0200   73.8880  219.6410 C   0  0  0  0  0  0  0  0  0  0  0  0
  144.3450   72.6100  219.2120 C   0  0  0  0  0  0  0  0  0  0  0  0
  145.4890   71.9530  219.6300 C   0  0  0  0  0  0  0  0  0  0  0  0
  146.3060   72.6590  220.5170 C   0  0  0  0  0  0  0  0  0  0  0  0
  146.0060   73.9160  220.9510 C   0  0  0  0  0  0  0  0  0  0  0  0
  144.8560   74.5490  220.5180 C   0  0  0  0  0  0  0  0  0  0  0  0
  139.9840   71.8820  223.0540 C   0  0  0  0  0  0  0  0  0  0  0  0
  139.5520   70.5940  222.8040 C   0  0  0  0  0  0  0  0  0  0  0  0
  139.6010   69.6320  223.8190 C   0  0  0  0  0  0  0  0  0  0  0  0
  140.0850   69.9840  225.0730 C   0  0  0  0  0  0  0  0  0  0  0  0
  140.1610   69.0880  226.1190 C   0  0  0  0  0  0  0  0  0  0  0  0
  140.6570   69.5070  227.3520 C   0  0  0  0  0  0  0  0  0  0  0  0
  140.7780   68.4160  228.7160 Cl  0  0  0  0  0  0  0  0  0  0  0  0
  141.0750   70.8110  227.5440 C   0  0  0  0  0  0  0  0  0  0  0  0
  141.0030   71.7230  226.4990 C   0  0  0  0  0  0  0  0  0  0  0  0
  140.5060   71.2800  225.2830 C   0  0  0  0  0  0  0  0  0  0  0  0
  140.4460   72.1720  224.2930 N   0  0  0  0  0  0  0  0  0  0  0  0
  138.4760   74.0460  223.0560 H   0  0  0  0  0  0  0  0  0  0  0  0
  138.9138   74.5734  220.1587 H   0  0  0  0  0  0  0  0  0  0  0  0
  138.1229   75.6816  221.3073 H   0  0  0  0  0  0  0  0  0  0  0  0
  140.3659   75.6986  218.1325 H   0  0  0  0  0  0  0  0  0  0  0  0
  139.8421   77.2411  218.8271 H   0  0  0  0  0  0  0  0  0  0  0  0
  142.2862   76.6599  217.3106 H   0  0  0  0  0  0  0  0  0  0  0  0
  141.7596   78.2324  217.8860 H   0  0  0  0  0  0  0  0  0  0  0  0
  143.9748   76.9906  218.9579 H   0  0  0  0  0  0  0  0  0  0  0  0
  142.9845   77.9627  220.0031 H   0  0  0  0  0  0  0  0  0  0  0  0
  142.9714   75.6134  220.9846 H   0  0  0  0  0  0  0  0  0  0  0  0
  141.9484   73.8909  219.2669 H   0  0  0  0  0  0  0  0  0  0  0  0
  142.9662   74.9192  218.1591 H   0  0  0  0  0  0  0  0  0  0  0  0
  143.6673   72.0987  218.5125 H   0  0  0  0  0  0  0  0  0  0  0  0
  145.7395   70.9388  219.2857 H   0  0  0  0  0  0  0  0  0  0  0  0
  147.2282   72.1813  220.8796 H   0  0  0  0  0  0  0  0  0  0  0  0
  146.6829   74.4294  221.6497 H   0  0  0  0  0  0  0  0  0  0  0  0
  144.6111   75.5631  220.8667 H   0  0  0  0  0  0  0  0  0  0  0  0
  139.1699   70.3249  221.8082 H   0  0  0  0  0  0  0  0  0  0  0  0
  139.2588   68.6046  223.6256 H   0  0  0  0  0  0  0  0  0  0  0  0
  139.8316   68.0476  225.9805 H   0  0  0  0  0  0  0  0  0  0  0  0
  141.4642   71.1258  228.5235 H   0  0  0  0  0  0  0  0  0  0  0  0
  141.3303   72.7647  226.6321 H   0  0  0  0  0  0  0  0  0  0  0  0
  1  2  2  0
  2  3  1  0
  3  4  1  0
  4  5  1  0
  5  6  2  0
  5  7  1  0
  7  8  1  0
  8  9  1  0
  9 10  1  0
 10 11  1  0
 11 12  1  0
 12 13  1  0
 13 14  2  0
 14 15  1  0
 15 16  2  0
 16 17  1  0
 17 18  2  0
  2 19  1  0
 19 20  2  0
 20 21  1  0
 21 22  2  0
 22 23  1  0
 23 24  2  0
 24 25  1  0
 24 26  1  0
 26 27  2  0
 27 28  1  0
 28 29  2  0
 11  7  1  0
 18 13  1  0
 29 19  1  0
 28 22  1  0
  3 30  1  0
  4 31  1  0
  4 32  1  0
  8 33  1  0
  8 34  1  0
  9 35  1  0
  9 36  1  0
 10 37  1  0
 10 38  1  0
 11 39  1  1
 12 40  1  0
 12 41  1  0
 14 42  1  0
 15 43  1  0
 16 44  1  0
 17 45  1  0
 18 46  1  0
 20 47  1  0
 21 48  1  0
 23 49  1  0
 26 50  1  0
 27 51  1  0
M  END
>  <smiles>  (36) 
O=C(NCC(=O)N1CCCC1Cc1ccccc1)c1ccc2cc(Cl)ccc2n1

>  <score_type>  (36) 
oracle

>  <origin>  (36) 
autodockgpu

>  <m_score__min__energy>  (36) 
-8.8599999999999994

>  <m_primary>  (36) 
energy

>  <rmsd>  (36) 
1.8325336173287867

>  <m_score__min__rmsd>  (36) 
1.8325336173287867

>  <meeko>  (36) 
{"free_energy": -8.63, "intermolecular_energy": -10.42, "internal_energy": -1.7, "cluster_size": 8, "cluster_id": 2, "rank_in_cluster": 1}

>  <energy>  (36) 
-8.4

>  <cluster_rmsd>  (36) 
0.16

>  <cluster>  (36) 
3

$$$$

     RDKit          3D

 51 54  0  0  0  0  0  0  0  0999 V2000
  134.9780   68.3200  225.1500 O   0  0  0  0  0  0  0  0  0  0  0  0
  135.2200   69.4730  224.7650 C   0  0  0  0  0  0  0  0  0  0  0  0
  136.1410   69.6950  223.7030 N   0  0  0  0  0  0  0  0  0  0  0  0
  136.7980   68.5710  223.0710 C   0  0  0  0  0  0  0  0  0  0  0  0
  138.2570   68.7160  223.3110 C   0  0  0  0  0  0  0  0  0  0  0  0
  138.8340   67.7590  223.8980 O   0  0  0  0  0  0  0  0  0  0  0  0
  138.9480   69.8850  222.8920 N   0  0  0  0  0  0  0  0  0  0  0  0
  139.6730   70.1570  221.6770 C   0  0  0  0  0  0  0  0  0  0  0  0
  139.6030   71.6660  221.4770 C   0  0  0  0  0  0  0  0  0  0  0  0
  138.7250   72.1440  222.6310 C   0  0  0  0  0  0  0  0  0  0  0  0
  139.0460   71.1050  223.6850 C   0  0  2  0  0  0  0  0  0  0  0  0
  140.4350   71.2760  224.2470 C   0  0  0  0  0  0  0  0  0  0  0  0
  140.5180   70.9470  225.6850 C   0  0  0  0  0  0  0  0  0  0  0  0
  141.0500   71.8220  226.6190 C   0  0  0  0  0  0  0  0  0  0  0  0
  141.1300   71.5140  227.9660 C   0  0  0  0  0  0  0  0  0  0  0  0
  140.6390   70.2590  228.3330 C   0  0  0  0  0  0  0  0  0  0  0  0
  140.1120   69.3830  227.4320 C   0  0  0  0  0  0  0  0  0  0  0  0
  140.0450   69.7150  226.0920 C   0  0  0  0  0  0  0  0  0  0  0  0
  134.5730   70.6280  225.3830 C   0  0  0  0  0  0  0  0  0  0  0  0
  133.5680   70.4600  226.3150 C   0  0  0  0  0  0  0  0  0  0  0  0
  132.9600   71.5790  226.8970 C   0  0  0  0  0  0  0  0  0  0  0  0
  133.3760   72.8530  226.5270 C   0  0  0  0  0  0  0  0  0  0  0  0
  132.8220   73.9990  227.0590 C   0  0  0  0  0  0  0  0  0  0  0  0
  133.2860   75.2460  226.6440 C   0  0  0  0  0  0  0  0  0  0  0  0
  132.6220   76.7350  227.2820 Cl  0  0  0  0  0  0  0  0  0  0  0  0
  134.2960   75.3520  225.7060 C   0  0  0  0  0  0  0  0  0  0  0  0
  134.8620   74.2060  225.1630 C   0  0  0  0  0  0  0  0  0  0  0  0
  134.3820   72.9780  225.5930 C   0  0  0  0  0  0  0  0  0  0  0  0
  134.9390   71.8900  225.0590 N   0  0  0  0  0  0  0  0  0  0  0  0
  136.3170   70.7000  223.4060 H   0  0  0  0  0  0  0  0  0  0  0  0
  136.4367   67.6292  223.5097 H   0  0  0  0  0  0  0  0  0  0  0  0
  136.5821   68.5515  221.9926 H   0  0  0  0  0  0  0  0  0  0  0  0
  140.7194   69.8323  221.7751 H   0  0  0  0  0  0  0  0  0  0  0  0
  139.2434   69.6161  220.8210 H   0  0  0  0  0  0  0  0  0  0  0  0
  140.6051   72.1161  221.5341 H   0  0  0  0  0  0  0  0  0  0  0  0
  139.2024   71.9472  220.4919 H   0  0  0  0  0  0  0  0  0  0  0  0
  139.0061   73.1550  222.9610 H   0  0  0  0  0  0  0  0  0  0  0  0
  137.6561   72.2261  222.3847 H   0  0  0  0  0  0  0  0  0  0  0  0
  138.3919   71.1428  224.5686 H   0  0  0  0  0  0  0  0  0  0  0  0
  141.1204   70.6155  223.6957 H   0  0  0  0  0  0  0  0  0  0  0  0
  140.7085   72.3355  224.1345 H   0  0  0  0  0  0  0  0  0  0  0  0
  141.4229   72.7986  226.2766 H   0  0  0  0  0  0  0  0  0  0  0  0
  141.5537   72.2137  228.7014 H   0  0  0  0  0  0  0  0  0  0  0  0
  140.6794   69.9658  229.3924 H   0  0  0  0  0  0  0  0  0  0  0  0
  139.7379   68.4064  227.7730 H   0  0  0  0  0  0  0  0  0  0  0  0
  139.6219   69.0095  225.3617 H   0  0  0  0  0  0  0  0  0  0  0  0
  133.2453   69.4478  226.6000 H   0  0  0  0  0  0  0  0  0  0  0  0
  132.1598   71.4512  227.6409 H   0  0  0  0  0  0  0  0  0  0  0  0
  132.0183   73.9289  227.8068 H   0  0  0  0  0  0  0  0  0  0  0  0
  134.6513   76.3439  225.3898 H   0  0  0  0  0  0  0  0  0  0  0  0
  135.6660   74.2703  224.4151 H   0  0  0  0  0  0  0  0  0  0  0  0
  1  2  2  0
  2  3  1  0
  3  4  1  0
  4  5  1  0
  5  6  2  0
  5  7  1  0
  7  8  1  0
  8  9  1  0
  9 10  1  0
 10 11  1  0
 11 12  1  0
 12 13  1  0
 13 14  2  0
 14 15  1  0
 15 16  2  0
 16 17  1  0
 17 18  2  0
  2 19  1  0
 19 20  2  0
 20 21  1  0
 21 22  2  0
 22 23  1  0
 23 24  2  0
 24 25  1  0
 24 26  1  0
 26 27  2  0
 27 28  1  0
 28 29  2  0
 11  7  1  0
 18 13  1  0
 29 19  1  0
 28 22  1  0
  3 30  1  0
  4 31  1  0
  4 32  1  0
  8 33  1  0
  8 34  1  0
  9 35  1  0
  9 36  1  0
 10 37  1  0
 10 38  1  0
 11 39  1  1
 12 40  1  0
 12 41  1  0
 14 42  1  0
 15 43  1  0
 16 44  1  0
 17 45  1  0
 18 46  1  0
 20 47  1  0
 21 48  1  0
 23 49  1  0
 26 50  1  0
 27 51  1  0
M  END
>  <smiles>  (37) 
O=C(NCC(=O)N1CCCC1Cc1ccccc1)c1ccc2cc(Cl)ccc2n1

>  <score_type>  (37) 
oracle

>  <origin>  (37) 
autodockgpu

>  <m_score__min__energy>  (37) 
-8.8599999999999994

>  <m_primary>  (37) 
energy

>  <rmsd>  (37) 
6.851371674860694

>  <m_score__min__rmsd>  (37) 
6.851371674860694

>  <meeko>  (37) 
{"free_energy": -8.16, "intermolecular_energy": -9.95, "internal_energy": -2.11, "cluster_size": 7, "cluster_id": 3, "rank_in_cluster": 7}

>  <energy>  (37) 
-8.3

>  <cluster_rmsd>  (37) 
1.79

>  <cluster>  (37) 
3

$$$$

     RDKit          3D

 51 54  0  0  0  0  0  0  0  0999 V2000
  142.1380   73.0910  221.0140 O   0  0  0  0  0  0  0  0  0  0  0  0
  141.3240   73.8770  221.5200 C   0  0  0  0  0  0  0  0  0  0  0  0
  140.2520   73.3850  222.3140 N   0  0  0  0  0  0  0  0  0  0  0  0
  140.1100   71.9620  222.5320 C   0  0  0  0  0  0  0  0  0  0  0  0
  138.6630   71.6830  222.7250 C   0  0  0  0  0  0  0  0  0  0  0  0
  137.8700   72.6500  222.5530 O   0  0  0  0  0  0  0  0  0  0  0  0
  138.2170   70.3820  223.0870 N   0  0  0  0  0  0  0  0  0  0  0  0
  136.9320   69.7550  222.9180 C   0  0  0  0  0  0  0  0  0  0  0  0
  137.2030   68.2570  222.8440 C   0  0  0  0  0  0  0  0  0  0  0  0
  138.7260   68.1620  222.9090 C   0  0  0  0  0  0  0  0  0  0  0  0
  139.0550   69.3840  223.7410 C   0  0  2  0  0  0  0  0  0  0  0  0
  138.6620   69.2090  225.1860 C   0  0  0  0  0  0  0  0  0  0  0  0
  139.4980   70.0040  226.1100 C   0  0  0  0  0  0  0  0  0  0  0  0
  139.5850   69.7200  227.4640 C   0  0  0  0  0  0  0  0  0  0  0  0
  140.3670   70.4640  228.3300 C   0  0  0  0  0  0  0  0  0  0  0  0
  141.0690   71.5270  227.7570 C   0  0  0  0  0  0  0  0  0  0  0  0
  140.9980   71.8240  226.4270 C   0  0  0  0  0  0  0  0  0  0  0  0
  140.2080   71.0640  225.5840 C   0  0  0  0  0  0  0  0  0  0  0  0
  141.4400   75.3200  221.3180 C   0  0  0  0  0  0  0  0  0  0  0  0
  142.0620   75.8290  220.1930 C   0  0  0  0  0  0  0  0  0  0  0  0
  142.1620   77.2140  220.0170 C   0  0  0  0  0  0  0  0  0  0  0  0
  141.6360   78.0660  220.9800 C   0  0  0  0  0  0  0  0  0  0  0  0
  141.7000   79.4400  220.8720 C   0  0  0  0  0  0  0  0  0  0  0  0
  141.1500   80.2370  221.8750 C   0  0  0  0  0  0  0  0  0  0  0  0
  141.2010   81.9850  221.7930 Cl  0  0  0  0  0  0  0  0  0  0  0  0
  140.5400   79.6710  222.9790 C   0  0  0  0  0  0  0  0  0  0  0  0
  140.4690   78.2890  223.0990 C   0  0  0  0  0  0  0  0  0  0  0  0
  141.0230   77.5190  222.0890 C   0  0  0  0  0  0  0  0  0  0  0  0
  140.9450   76.1950  222.2240 N   0  0  0  0  0  0  0  0  0  0  0  0
  139.5780   74.0960  222.7270 H   0  0  0  0  0  0  0  0  0  0  0  0
  140.4862   71.4087  221.6589 H   0  0  0  0  0  0  0  0  0  0  0  0
  140.6871   71.6451  223.4132 H   0  0  0  0  0  0  0  0  0  0  0  0
  136.2795   69.9837  223.7735 H   0  0  0  0  0  0  0  0  0  0  0  0
  136.4222   70.1178  222.0133 H   0  0  0  0  0  0  0  0  0  0  0  0
  136.7405   67.7321  223.6929 H   0  0  0  0  0  0  0  0  0  0  0  0
  136.7847   67.7919  221.9392 H   0  0  0  0  0  0  0  0  0  0  0  0
  139.0524   67.2358  223.4045 H   0  0  0  0  0  0  0  0  0  0  0  0
  139.2215   68.1343  221.9273 H   0  0  0  0  0  0  0  0  0  0  0  0
  140.1271   69.6269  223.7812 H   0  0  0  0  0  0  0  0  0  0  0  0
  137.6138   69.5207  225.3048 H   0  0  0  0  0  0  0  0  0  0  0  0
  138.8053   68.1486  225.4409 H   0  0  0  0  0  0  0  0  0  0  0  0
  139.0111   68.8716  227.8650 H   0  0  0  0  0  0  0  0  0  0  0  0
  140.4318   70.2325  229.4034 H   0  0  0  0  0  0  0  0  0  0  0  0
  141.7045   72.1497  228.4038 H   0  0  0  0  0  0  0  0  0  0  0  0
  141.5716   72.6715  226.0237 H   0  0  0  0  0  0  0  0  0  0  0  0
  140.1465   71.3006  224.5115 H   0  0  0  0  0  0  0  0  0  0  0  0
  142.4777   75.1464  219.4372 H   0  0  0  0  0  0  0  0  0  0  0  0
  142.6535   77.6248  219.1227 H   0  0  0  0  0  0  0  0  0  0  0  0
  142.1824   79.9041  219.9992 H   0  0  0  0  0  0  0  0  0  0  0  0
  140.1113   80.3144  223.7615 H   0  0  0  0  0  0  0  0  0  0  0  0
  139.9874   77.8199  223.9697 H   0  0  0  0  0  0  0  0  0  0  0  0
  1  2  2  0
  2  3  1  0
  3  4  1  0
  4  5  1  0
  5  6  2  0
  5  7  1  0
  7  8  1  0
  8  9  1  0
  9 10  1  0
 10 11  1  0
 11 12  1  0
 12 13  1  0
 13 14  2  0
 14 15  1  0
 15 16  2  0
 16 17  1  0
 17 18  2  0
  2 19  1  0
 19 20  2  0
 20 21  1  0
 21 22  2  0
 22 23  1  0
 23 24  2  0
 24 25  1  0
 24 26  1  0
 26 27  2  0
 27 28  1  0
 28 29  2  0
 11  7  1  0
 18 13  1  0
 29 19  1  0
 28 22  1  0
  3 30  1  0
  4 31  1  0
  4 32  1  0
  8 33  1  0
  8 34  1  0
  9 35  1  0
  9 36  1  0
 10 37  1  0
 10 38  1  0
 11 39  1  1
 12 40  1  0
 12 41  1  0
 14 42  1  0
 15 43  1  0
 16 44  1  0
 17 45  1  0
 18 46  1  0
 20 47  1  0
 21 48  1  0
 23 49  1  0
 26 50  1  0
 27 51  1  0
M  END
>  <smiles>  (38) 
O=C(NCC(=O)N1CCCC1Cc1ccccc1)c1ccc2cc(Cl)ccc2n1

>  <score_type>  (38) 
oracle

>  <origin>  (38) 
autodockgpu

>  <m_score__min__energy>  (38) 
-8.8599999999999994

>  <m_primary>  (38) 
energy

>  <rmsd>  (38) 
8.359656947363154

>  <m_score__min__rmsd>  (38) 
8.359656947363154

>  <meeko>  (38) 
{"free_energy": -8.08, "intermolecular_energy": -9.87, "internal_energy": -2.13, "cluster_size": 10, "cluster_id": 4, "rank_in_cluster": 7}

>  <energy>  (38) 
-8.28

>  <cluster_rmsd>  (38) 
0.69

>  <cluster>  (38) 
3

$$$$

     RDKit          3D

 51 54  0  0  0  0  0  0  0  0999 V2000
  139.2940   72.0240  220.6540 O   0  0  0  0  0  0  0  0  0  0  0  0
  139.4220   72.4160  221.8230 C   0  0  0  0  0  0  0  0  0  0  0  0
  139.4530   73.8090  222.1110 N   0  0  0  0  0  0  0  0  0  0  0  0
  139.3360   74.7710  221.0370 C   0  0  0  0  0  0  0  0  0  0  0  0
  140.4510   75.7410  221.1850 C   0  0  0  0  0  0  0  0  0  0  0  0
  140.8470   75.9780  222.3600 O   0  0  0  0  0  0  0  0  0  0  0  0
  141.0300   76.3600  220.0430 N   0  0  0  0  0  0  0  0  0  0  0  0
  140.4730   76.6270  218.7420 C   0  0  0  0  0  0  0  0  0  0  0  0
  141.2280   77.8360  218.2030 C   0  0  0  0  0  0  0  0  0  0  0  0
  142.1610   78.2200  219.3500 C   0  0  0  0  0  0  0  0  0  0  0  0
  142.3960   76.8690  219.9940 C   0  0  2  0  0  0  0  0  0  0  0  0
  143.2760   75.9830  219.1500 C   0  0  0  0  0  0  0  0  0  0  0  0
  143.5680   74.6840  219.7910 C   0  0  0  0  0  0  0  0  0  0  0  0
  142.6670   73.6310  219.7820 C   0  0  0  0  0  0  0  0  0  0  0  0
  142.9400   72.4140  220.3820 C   0  0  0  0  0  0  0  0  0  0  0  0
  144.1860   72.3070  221.0040 C   0  0  0  0  0  0  0  0  0  0  0  0
  145.0880   73.3300  221.0240 C   0  0  0  0  0  0  0  0  0  0  0  0
  144.7900   74.5360  220.4170 C   0  0  0  0  0  0  0  0  0  0  0  0
  139.5420   71.4690  222.9300 C   0  0  0  0  0  0  0  0  0  0  0  0
  139.0880   70.1710  222.8010 C   0  0  0  0  0  0  0  0  0  0  0  0
  139.2130   69.2780  223.8730 C   0  0  0  0  0  0  0  0  0  0  0  0
  139.7940   69.7100  225.0590 C   0  0  0  0  0  0  0  0  0  0  0  0
  139.9490   68.8860  226.1540 C   0  0  0  0  0  0  0  0  0  0  0  0
  140.5410   69.3830  227.3140 C   0  0  0  0  0  0  0  0  0  0  0  0
  140.7640   68.3860  228.7350 Cl  0  0  0  0  0  0  0  0  0  0  0  0
  140.9770   70.6930  227.3840 C   0  0  0  0  0  0  0  0  0  0  0  0
  140.8270   71.5330  226.2880 C   0  0  0  0  0  0  0  0  0  0  0  0
  140.2350   71.0140  225.1470 C   0  0  0  0  0  0  0  0  0  0  0  0
  140.1000   71.8370  224.1060 N   0  0  0  0  0  0  0  0  0  0  0  0
  139.5640   74.0980  223.1280 H   0  0  0  0  0  0  0  0  0  0  0  0
  139.4086   74.2603  220.0654 H   0  0  0  0  0  0  0  0  0  0  0  0
  138.3651   75.2861  221.0815 H   0  0  0  0  0  0  0  0  0  0  0  0
  140.6160   75.7605  218.0797 H   0  0  0  0  0  0  0  0  0  0  0  0
  139.3914   76.8191  218.7981 H   0  0  0  0  0  0  0  0  0  0  0  0
  141.8016   77.5710  217.3026 H   0  0  0  0  0  0  0  0  0  0  0  0
  140.5602   78.6571  217.9031 H   0  0  0  0  0  0  0  0  0  0  0  0
  143.0986   78.6594  218.9786 H   0  0  0  0  0  0  0  0  0  0  0  0
  141.7542   78.9827  220.0303 H   0  0  0  0  0  0  0  0  0  0  0  0
  142.9135   76.9149  220.9636 H   0  0  0  0  0  0  0  0  0  0  0  0
  142.7694   75.7955  218.1918 H   0  0  0  0  0  0  0  0  0  0  0  0
  144.2341   76.5053  219.0112 H   0  0  0  0  0  0  0  0  0  0  0  0
  141.6983   73.7676  219.2790 H   0  0  0  0  0  0  0  0  0  0  0  0
  142.2201   71.5824  220.3698 H   0  0  0  0  0  0  0  0  0  0  0  0
  144.4504   71.3601  221.4973 H   0  0  0  0  0  0  0  0  0  0  0  0
  146.0576   73.1948  221.5257 H   0  0  0  0  0  0  0  0  0  0  0  0
  145.5142   75.3638  220.4325 H   0  0  0  0  0  0  0  0  0  0  0  0
  138.6290   69.8390  221.8581 H   0  0  0  0  0  0  0  0  0  0  0  0
  138.8540   68.2427  223.7767 H   0  0  0  0  0  0  0  0  0  0  0  0
  139.6070   67.8413  226.1122 H   0  0  0  0  0  0  0  0  0  0  0  0
  141.4423   71.0698  228.3068 H   0  0  0  0  0  0  0  0  0  0  0  0
  141.1676   72.5783  226.3243 H   0  0  0  0  0  0  0  0  0  0  0  0
  1  2  2  0
  2  3  1  0
  3  4  1  0
  4  5  1  0
  5  6  2  0
  5  7  1  0
  7  8  1  0
  8  9  1  0
  9 10  1  0
 10 11  1  0
 11 12  1  0
 12 13  1  0
 13 14  2  0
 14 15  1  0
 15 16  2  0
 16 17  1  0
 17 18  2  0
  2 19  1  0
 19 20  2  0
 20 21  1  0
 21 22  2  0
 22 23  1  0
 23 24  2  0
 24 25  1  0
 24 26  1  0
 26 27  2  0
 27 28  1  0
 28 29  2  0
 11  7  1  0
 18 13  1  0
 29 19  1  0
 28 22  1  0
  3 30  1  0
  4 31  1  0
  4 32  1  0
  8 33  1  0
  8 34  1  0
  9 35  1  0
  9 36  1  0
 10 37  1  0
 10 38  1  0
 11 39  1  1
 12 40  1  0
 12 41  1  0
 14 42  1  0
 15 43  1  0
 16 44  1  0
 17 45  1  0
 18 46  1  0
 20 47  1  0
 21 48  1  0
 23 49  1  0
 26 50  1  0
 27 51  1  0
M  END
>  <smiles>  (39) 
O=C(NCC(=O)N1CCCC1Cc1ccccc1)c1ccc2cc(Cl)ccc2n1

>  <score_type>  (39) 
oracle

>  <origin>  (39) 
autodockgpu

>  <m_score__min__energy>  (39) 
-8.8599999999999994

>  <m_primary>  (39) 
energy

>  <rmsd>  (39) 
1.5953206828959599

>  <m_score__min__rmsd>  (39) 
1.5953206828959599

>  <meeko>  (39) 
{"free_energy": -8.08, "intermolecular_energy": -9.87, "internal_energy": -2.5, "cluster_size": 8, "cluster_id": 2, "rank_in_cluster": 7}

>  <energy>  (39) 
-8.16

>  <cluster_rmsd>  (39) 
1.83

>  <cluster>  (39) 
3

$$$$

     RDKit          3D

 51 54  0  0  0  0  0  0  0  0999 V2000
  138.9530   71.7960  220.6940 O   0  0  0  0  0  0  0  0  0  0  0  0
  139.1420   72.2190  221.8440 C   0  0  0  0  0  0  0  0  0  0  0  0
  139.1370   73.6180  222.1020 N   0  0  0  0  0  0  0  0  0  0  0  0
  138.9110   74.5510  221.0200 C   0  0  0  0  0  0  0  0  0  0  0  0
  140.2330   74.8580  220.4140 C   0  0  0  0  0  0  0  0  0  0  0  0
  140.7680   73.9470  219.7240 O   0  0  0  0  0  0  0  0  0  0  0  0
  140.8450   76.1250  220.6170 N   0  0  0  0  0  0  0  0  0  0  0  0
  142.0730   76.6640  220.0890 C   0  0  0  0  0  0  0  0  0  0  0  0
  141.8910   78.1760  220.0670 C   0  0  0  0  0  0  0  0  0  0  0  0
  140.4540   78.3750  220.5480 C   0  0  0  0  0  0  0  0  0  0  0  0
  140.2890   77.1770  221.4590 C   0  0  2  0  0  0  0  0  0  0  0  0
  141.0760   77.3220  222.7360 C   0  0  0  0  0  0  0  0  0  0  0  0
  141.3020   78.7330  223.1150 C   0  0  0  0  0  0  0  0  0  0  0  0
  140.2670   79.5810  223.4770 C   0  0  0  0  0  0  0  0  0  0  0  0
  140.4780   80.9020  223.8320 C   0  0  0  0  0  0  0  0  0  0  0  0
  141.8060   81.3360  223.8030 C   0  0  0  0  0  0  0  0  0  0  0  0
  142.8390   80.5180  223.4510 C   0  0  0  0  0  0  0  0  0  0  0  0
  142.6000   79.2020  223.1010 C   0  0  0  0  0  0  0  0  0  0  0  0
  139.3730   71.3020  222.9590 C   0  0  0  0  0  0  0  0  0  0  0  0
  138.9850   69.9790  222.8770 C   0  0  0  0  0  0  0  0  0  0  0  0
  139.2160   69.1160  223.9550 C   0  0  0  0  0  0  0  0  0  0  0  0
  139.8340   69.6020  225.1010 C   0  0  0  0  0  0  0  0  0  0  0  0
  140.0910   68.8090  226.2000 C   0  0  0  0  0  0  0  0  0  0  0  0
  140.7150   69.3610  227.3170 C   0  0  0  0  0  0  0  0  0  0  0  0
  141.0670   68.4050  228.7410 Cl  0  0  0  0  0  0  0  0  0  0  0  0
  141.0810   70.6940  227.3420 C   0  0  0  0  0  0  0  0  0  0  0  0
  140.8270   71.5030  226.2410 C   0  0  0  0  0  0  0  0  0  0  0  0
  140.2060   70.9290  225.1430 C   0  0  0  0  0  0  0  0  0  0  0  0
  139.9710   71.7230  224.0970 N   0  0  0  0  0  0  0  0  0  0  0  0
  139.3030   73.9340  223.1040 H   0  0  0  0  0  0  0  0  0  0  0  0
  138.2479   74.1000  220.2671 H   0  0  0  0  0  0  0  0  0  0  0  0
  138.4320   75.4686  221.3922 H   0  0  0  0  0  0  0  0  0  0  0  0
  142.9200   76.3901  220.7353 H   0  0  0  0  0  0  0  0  0  0  0  0
  142.2884   76.2689  219.0852 H   0  0  0  0  0  0  0  0  0  0  0  0
  142.6035   78.6668  220.7463 H   0  0  0  0  0  0  0  0  0  0  0  0
  142.0725   78.6128  219.0739 H   0  0  0  0  0  0  0  0  0  0  0  0
  140.3389   79.3205  221.0983 H   0  0  0  0  0  0  0  0  0  0  0  0
  139.7092   78.4385  219.7410 H   0  0  0  0  0  0  0  0  0  0  0  0
  139.2562   77.0079  221.7976 H   0  0  0  0  0  0  0  0  0  0  0  0
  140.5238   76.8248  223.5471 H   0  0  0  0  0  0  0  0  0  0  0  0
  142.0617   76.8626  222.5705 H   0  0  0  0  0  0  0  0  0  0  0  0
  139.2391   79.1893  223.4823 H   0  0  0  0  0  0  0  0  0  0  0  0
  139.6516   81.5689  224.1191 H   0  0  0  0  0  0  0  0  0  0  0  0
  142.0270   82.3787  224.0748 H   0  0  0  0  0  0  0  0  0  0  0  0
  143.8678   80.9074  223.4456 H   0  0  0  0  0  0  0  0  0  0  0  0
  143.4307   78.5396  222.8160 H   0  0  0  0  0  0  0  0  0  0  0  0
  138.4953   69.6040  221.9662 H   0  0  0  0  0  0  0  0  0  0  0  0
  138.9106   68.0609  223.8953 H   0  0  0  0  0  0  0  0  0  0  0  0
  139.8050   67.7468  226.1947 H   0  0  0  0  0  0  0  0  0  0  0  0
  141.5725   71.1136  228.2321 H   0  0  0  0  0  0  0  0  0  0  0  0
  141.1101   72.5660  226.2410 H   0  0  0  0  0  0  0  0  0  0  0  0
  1  2  2  0
  2  3  1  0
  3  4  1  0
  4  5  1  0
  5  6  2  0
  5  7  1  0
  7  8  1  0
  8  9  1  0
  9 10  1  0
 10 11  1  0
 11 12  1  0
 12 13  1  0
 13 14  2  0
 14 15  1  0
 15 16  2  0
 16 17  1  0
 17 18  2  0
  2 19  1  0
 19 20  2  0
 20 21  1  0
 21 22  2  0
 22 23  1  0
 23 24  2  0
 24 25  1  0
 24 26  1  0
 26 27  2  0
 27 28  1  0
 28 29  2  0
 11  7  1  0
 18 13  1  0
 29 19  1  0
 28 22  1  0
  3 30  1  0
  4 31  1  0
  4 32  1  0
  8 33  1  0
  8 34  1  0
  9 35  1  0
  9 36  1  0
 10 37  1  0
 10 38  1  0
 11 39  1  1
 12 40  1  0
 12 41  1  0
 14 42  1  0
 15 43  1  0
 16 44  1  0
 17 45  1  0
 18 46  1  0
 20 47  1  0
 21 48  1  0
 23 49  1  0
 26 50  1  0
 27 51  1  0
M  END
>  <smiles>  (40) 
O=C(NCC(=O)N1CCCC1Cc1ccccc1)c1ccc2cc(Cl)ccc2n1

>  <score_type>  (40) 
oracle

>  <origin>  (40) 
autodockgpu

>  <m_score__min__energy>  (40) 
-8.8599999999999994

>  <m_primary>  (40) 
energy

>  <rmsd>  (40) 
2.1279520364429647

>  <m_score__min__rmsd>  (40) 
2.1279520364429647

>  <meeko>  (40) 
{"free_energy": -8.86, "intermolecular_energy": -10.65, "internal_energy": -1.5, "cluster_size": 24, "cluster_id": 1, "rank_in_cluster": 1}

>  <energy>  (40) 
-8.32

>  <cluster_rmsd>  (40) 
0.0

>  <cluster>  (40) 
4

$$$$

     RDKit          3D

 51 54  0  0  0  0  0  0  0  0999 V2000
  138.9490   71.8490  220.7690 O   0  0  0  0  0  0  0  0  0  0  0  0
  139.2180   72.2320  221.9160 C   0  0  0  0  0  0  0  0  0  0  0  0
  139.3270   73.6210  222.2000 N   0  0  0  0  0  0  0  0  0  0  0  0
  139.1220   74.5910  221.1460 C   0  0  0  0  0  0  0  0  0  0  0  0
  138.9600   75.9210  221.7890 C   0  0  0  0  0  0  0  0  0  0  0  0
  139.2410   75.9950  223.0180 O   0  0  0  0  0  0  0  0  0  0  0  0
  138.5100   77.0400  221.0380 N   0  0  0  0  0  0  0  0  0  0  0  0
  138.0950   77.1350  219.6610 C   0  0  0  0  0  0  0  0  0  0  0  0
  137.1270   78.3100  219.5960 C   0  0  0  0  0  0  0  0  0  0  0  0
  137.0120   78.7650  221.0500 C   0  0  0  0  0  0  0  0  0  0  0  0
  138.3800   78.3880  221.5780 C   0  0  2  0  0  0  0  0  0  0  0  0
  139.4630   79.2920  221.0450 C   0  0  0  0  0  0  0  0  0  0  0  0
  140.5200   79.5710  222.0390 C   0  0  0  0  0  0  0  0  0  0  0  0
  140.8410   78.6830  223.0530 C   0  0  0  0  0  0  0  0  0  0  0  0
  141.8310   78.9430  223.9850 C   0  0  0  0  0  0  0  0  0  0  0  0
  142.4940   80.1640  223.8430 C   0  0  0  0  0  0  0  0  0  0  0  0
  142.1960   81.0520  222.8520 C   0  0  0  0  0  0  0  0  0  0  0  0
  141.2020   80.7670  221.9340 C   0  0  0  0  0  0  0  0  0  0  0  0
  139.4310   71.2770  223.0020 C   0  0  0  0  0  0  0  0  0  0  0  0
  139.0390   69.9590  222.8700 C   0  0  0  0  0  0  0  0  0  0  0  0
  139.2520   69.0590  223.9210 C   0  0  0  0  0  0  0  0  0  0  0  0
  139.8560   69.5030  225.0910 C   0  0  0  0  0  0  0  0  0  0  0  0
  140.0960   68.6730  226.1660 C   0  0  0  0  0  0  0  0  0  0  0  0
  140.7070   69.1840  227.3100 C   0  0  0  0  0  0  0  0  0  0  0  0
  141.0360   68.1790  228.7050 Cl  0  0  0  0  0  0  0  0  0  0  0  0
  141.0770   70.5140  227.3840 C   0  0  0  0  0  0  0  0  0  0  0  0
  140.8420   71.3600  226.3090 C   0  0  0  0  0  0  0  0  0  0  0  0
  140.2330   70.8270  225.1830 C   0  0  0  0  0  0  0  0  0  0  0  0
  140.0150   71.6570  224.1620 N   0  0  0  0  0  0  0  0  0  0  0  0
  139.5600   73.9030  223.1980 H   0  0  0  0  0  0  0  0  0  0  0  0
  139.9913   74.6029  220.4721 H   0  0  0  0  0  0  0  0  0  0  0  0
  138.2315   74.3363  220.5526 H   0  0  0  0  0  0  0  0  0  0  0  0
  138.9636   77.3186  219.0115 H   0  0  0  0  0  0  0  0  0  0  0  0
  137.6225   76.2033  219.3167 H   0  0  0  0  0  0  0  0  0  0  0  0
  137.5293   79.1152  218.9636 H   0  0  0  0  0  0  0  0  0  0  0  0
  136.1560   78.0387  219.1560 H   0  0  0  0  0  0  0  0  0  0  0  0
  136.8354   79.8484  221.1218 H   0  0  0  0  0  0  0  0  0  0  0  0
  136.1728   78.3158  221.6014 H   0  0  0  0  0  0  0  0  0  0  0  0
  138.4781   78.4656  222.6709 H   0  0  0  0  0  0  0  0  0  0  0  0
  139.9229   78.8104  220.1695 H   0  0  0  0  0  0  0  0  0  0  0  0
  138.9932   80.2519  220.7845 H   0  0  0  0  0  0  0  0  0  0  0  0
  140.2877   77.7346  223.1200 H   0  0  0  0  0  0  0  0  0  0  0  0
  142.0798   78.2325  224.7871 H   0  0  0  0  0  0  0  0  0  0  0  0
  143.2886   80.4196  224.5594 H   0  0  0  0  0  0  0  0  0  0  0  0
  142.7493   82.0002  222.7825 H   0  0  0  0  0  0  0  0  0  0  0  0
  140.9586   81.4811  221.1335 H   0  0  0  0  0  0  0  0  0  0  0  0
  138.5602   69.6171  221.9405 H   0  0  0  0  0  0  0  0  0  0  0  0
  138.9434   68.0079  223.8213 H   0  0  0  0  0  0  0  0  0  0  0  0
  139.8066   67.6127  226.1209 H   0  0  0  0  0  0  0  0  0  0  0  0
  141.5574   70.9016  228.2945 H   0  0  0  0  0  0  0  0  0  0  0  0
  141.1301   72.4209  226.3491 H   0  0  0  0  0  0  0  0  0  0  0  0
  1  2  2  0
  2  3  1  0
  3  4  1  0
  4  5  1  0
  5  6  2  0
  5  7  1  0
  7  8  1  0
  8  9  1  0
  9 10  1  0
 10 11  1  0
 11 12  1  0
 12 13  1  0
 13 14  2  0
 14 15  1  0
 15 16  2  0
 16 17  1  0
 17 18  2  0
  2 19  1  0
 19 20  2  0
 20 21  1  0
 21 22  2  0
 22 23  1  0
 23 24  2  0
 24 25  1  0
 24 26  1  0
 26 27  2  0
 27 28  1  0
 28 29  2  0
 11  7  1  0
 18 13  1  0
 29 19  1  0
 28 22  1  0
  3 30  1  0
  4 31  1  0
  4 32  1  0
  8 33  1  0
  8 34  1  0
  9 35  1  0
  9 36  1  0
 10 37  1  0
 10 38  1  0
 11 39  1  1
 12 40  1  0
 12 41  1  0
 14 42  1  0
 15 43  1  0
 16 44  1  0
 17 45  1  0
 18 46  1  0
 20 47  1  0
 21 48  1  0
 23 49  1  0
 26 50  1  0
 27 51  1  0
M  END
>  <smiles>  (41) 
O=C(NCC(=O)N1CCCC1Cc1ccccc1)c1ccc2cc(Cl)ccc2n1

>  <score_type>  (41) 
oracle

>  <origin>  (41) 
autodockgpu

>  <m_score__min__energy>  (41) 
-8.8599999999999994

>  <m_primary>  (41) 
energy

>  <rmsd>  (41) 
2.469562313026434

>  <m_score__min__rmsd>  (41) 
2.469562313026434

>  <meeko>  (41) 
{"free_energy": -7.95, "intermolecular_energy": -9.74, "internal_energy": -2.2, "cluster_size": 24, "cluster_id": 1, "rank_in_cluster": 24}

>  <energy>  (41) 
-8.29

>  <cluster_rmsd>  (41) 
0.56

>  <cluster>  (41) 
4

$$$$

     RDKit          3D

 51 54  0  0  0  0  0  0  0  0999 V2000
  139.5740   72.1370  220.6550 O   0  0  0  0  0  0  0  0  0  0  0  0
  139.5990   72.5170  221.8340 C   0  0  0  0  0  0  0  0  0  0  0  0
  139.5410   73.9050  222.1410 N   0  0  0  0  0  0  0  0  0  0  0  0
  139.4530   74.8770  221.0720 C   0  0  0  0  0  0  0  0  0  0  0  0
  140.3930   75.9810  221.3960 C   0  0  0  0  0  0  0  0  0  0  0  0
  140.3610   76.4260  222.5770 O   0  0  0  0  0  0  0  0  0  0  0  0
  141.2760   76.4950  220.4080 N   0  0  0  0  0  0  0  0  0  0  0  0
  142.5860   76.0520  220.0040 C   0  0  0  0  0  0  0  0  0  0  0  0
  142.7460   76.4890  218.5520 C   0  0  0  0  0  0  0  0  0  0  0  0
  141.3970   77.1190  218.2130 C   0  0  0  0  0  0  0  0  0  0  0  0
  140.9790   77.6510  219.5690 C   0  0  2  0  0  0  0  0  0  0  0  0
  141.7960   78.8470  219.9850 C   0  0  0  0  0  0  0  0  0  0  0  0
  141.4920   79.3010  221.3580 C   0  0  0  0  0  0  0  0  0  0  0  0
  142.4680   79.4190  222.3360 C   0  0  0  0  0  0  0  0  0  0  0  0
  142.1850   79.8440  223.6220 C   0  0  0  0  0  0  0  0  0  0  0  0
  140.8470   80.1500  223.8810 C   0  0  0  0  0  0  0  0  0  0  0  0
  139.8710   80.0410  222.9350 C   0  0  0  0  0  0  0  0  0  0  0  0
  140.1810   79.6140  221.6570 C   0  0  0  0  0  0  0  0  0  0  0  0
  139.6870   71.5600  222.9360 C   0  0  0  0  0  0  0  0  0  0  0  0
  139.1980   70.2760  222.7970 C   0  0  0  0  0  0  0  0  0  0  0  0
  139.2930   69.3740  223.8640 C   0  0  0  0  0  0  0  0  0  0  0  0
  139.8790   69.7820  225.0560 C   0  0  0  0  0  0  0  0  0  0  0  0
  140.0040   68.9470  226.1470 C   0  0  0  0  0  0  0  0  0  0  0  0
  140.6040   69.4210  227.3130 C   0  0  0  0  0  0  0  0  0  0  0  0
  140.7910   68.4100  228.7280 Cl  0  0  0  0  0  0  0  0  0  0  0  0
  141.0740   70.7180  227.3930 C   0  0  0  0  0  0  0  0  0  0  0  0
  140.9540   71.5690  226.3020 C   0  0  0  0  0  0  0  0  0  0  0  0
  140.3550   71.0730  225.1540 C   0  0  0  0  0  0  0  0  0  0  0  0
  140.2480   71.9060  224.1180 N   0  0  0  0  0  0  0  0  0  0  0  0
  139.5650   74.1840  223.1660 H   0  0  0  0  0  0  0  0  0  0  0  0
  139.7353   74.4112  220.1163 H   0  0  0  0  0  0  0  0  0  0  0  0
  138.4253   75.2576  220.9771 H   0  0  0  0  0  0  0  0  0  0  0  0
  143.3586   76.5201  220.6317 H   0  0  0  0  0  0  0  0  0  0  0  0
  142.6950   74.9628  220.1121 H   0  0  0  0  0  0  0  0  0  0  0  0
  143.5585   77.2235  218.4507 H   0  0  0  0  0  0  0  0  0  0  0  0
  143.0080   75.6564  217.8826 H   0  0  0  0  0  0  0  0  0  0  0  0
  141.5029   77.9289  217.4762 H   0  0  0  0  0  0  0  0  0  0  0  0
  140.6752   76.4270  217.7546 H   0  0  0  0  0  0  0  0  0  0  0  0
  139.9392   78.0070  219.6135 H   0  0  0  0  0  0  0  0  0  0  0  0
  142.8618   78.5800  219.9314 H   0  0  0  0  0  0  0  0  0  0  0  0
  141.5460   79.6718  219.3014 H   0  0  0  0  0  0  0  0  0  0  0  0
  143.5071   79.1650  222.0796 H   0  0  0  0  0  0  0  0  0  0  0  0
  142.9650   79.9352  224.3923 H   0  0  0  0  0  0  0  0  0  0  0  0
  140.5694   80.4927  224.8887 H   0  0  0  0  0  0  0  0  0  0  0  0
  138.8313   80.2942  223.1900 H   0  0  0  0  0  0  0  0  0  0  0  0
  139.3962   79.5252  220.8913 H   0  0  0  0  0  0  0  0  0  0  0  0
  138.7347   69.9623  221.8499 H   0  0  0  0  0  0  0  0  0  0  0  0
  138.9064   68.3495  223.7592 H   0  0  0  0  0  0  0  0  0  0  0  0
  139.6323   67.9129  226.0974 H   0  0  0  0  0  0  0  0  0  0  0  0
  141.5433   71.0765  228.3210 H   0  0  0  0  0  0  0  0  0  0  0  0
  141.3227   72.6044  226.3472 H   0  0  0  0  0  0  0  0  0  0  0  0
  1  2  2  0
  2  3  1  0
  3  4  1  0
  4  5  1  0
  5  6  2  0
  5  7  1  0
  7  8  1  0
  8  9  1  0
  9 10  1  0
 10 11  1  0
 11 12  1  0
 12 13  1  0
 13 14  2  0
 14 15  1  0
 15 16  2  0
 16 17  1  0
 17 18  2  0
  2 19  1  0
 19 20  2  0
 20 21  1  0
 21 22  2  0
 22 23  1  0
 23 24  2  0
 24 25  1  0
 24 26  1  0
 26 27  2  0
 27 28  1  0
 28 29  2  0
 11  7  1  0
 18 13  1  0
 29 19  1  0
 28 22  1  0
  3 30  1  0
  4 31  1  0
  4 32  1  0
  8 33  1  0
  8 34  1  0
  9 35  1  0
  9 36  1  0
 10 37  1  0
 10 38  1  0
 11 39  1  6
 12 40  1  0
 12 41  1  0
 14 42  1  0
 15 43  1  0
 16 44  1  0
 17 45  1  0
 18 46  1  0
 20 47  1  0
 21 48  1  0
 23 49  1  0
 26 50  1  0
 27 51  1  0
M  END
>  <smiles>  (42) 
O=C(NCC(=O)N1CCCC1Cc1ccccc1)c1ccc2cc(Cl)ccc2n1

>  <score_type>  (42) 
oracle

>  <origin>  (42) 
autodockgpu

>  <m_score__min__energy>  (42) 
-8.8599999999999994

>  <m_primary>  (42) 
energy

>  <rmsd>  (42) 
1.9752429757934653

>  <m_score__min__rmsd>  (42) 
1.9752429757934653

>  <meeko>  (42) 
{"free_energy": -8.57, "intermolecular_energy": -10.36, "internal_energy": -2.07, "cluster_size": 24, "cluster_id": 1, "rank_in_cluster": 10}

>  <energy>  (42) 
-8.28

>  <cluster_rmsd>  (42) 
0.57

>  <cluster>  (42) 
4

$$$$

     RDKit          3D

 51 54  0  0  0  0  0  0  0  0999 V2000
  139.3580   72.0470  220.6510 O   0  0  0  0  0  0  0  0  0  0  0  0
  139.4720   72.4340  221.8230 C   0  0  0  0  0  0  0  0  0  0  0  0
  139.4930   73.8250  222.1190 N   0  0  0  0  0  0  0  0  0  0  0  0
  139.3820   74.7920  221.0490 C   0  0  0  0  0  0  0  0  0  0  0  0
  140.5270   75.7300  221.1760 C   0  0  0  0  0  0  0  0  0  0  0  0
  140.9770   75.9240  222.3390 O   0  0  0  0  0  0  0  0  0  0  0  0
  141.0740   76.3660  220.0280 N   0  0  0  0  0  0  0  0  0  0  0  0
  140.5020   76.5980  218.7270 C   0  0  0  0  0  0  0  0  0  0  0  0
  141.2000   77.8360  218.1770 C   0  0  0  0  0  0  0  0  0  0  0  0
  142.1180   78.2700  219.3180 C   0  0  0  0  0  0  0  0  0  0  0  0
  142.4150   76.9370  219.9710 C   0  0  2  0  0  0  0  0  0  0  0  0
  143.3320   76.0850  219.1310 C   0  0  0  0  0  0  0  0  0  0  0  0
  143.6620   74.7930  219.7680 C   0  0  0  0  0  0  0  0  0  0  0  0
  144.8400   74.5900  220.4700 C   0  0  0  0  0  0  0  0  0  0  0  0
  145.1510   73.3810  221.0670 C   0  0  0  0  0  0  0  0  0  0  0  0
  144.2010   72.3670  220.9190 C   0  0  0  0  0  0  0  0  0  0  0  0
  143.0360   72.5450  220.2330 C   0  0  0  0  0  0  0  0  0  0  0  0
  142.7510   73.7640  219.6460 C   0  0  0  0  0  0  0  0  0  0  0  0
  139.5860   71.4810  222.9260 C   0  0  0  0  0  0  0  0  0  0  0  0
  139.1240   70.1870  222.7920 C   0  0  0  0  0  0  0  0  0  0  0  0
  139.2430   69.2890  223.8600 C   0  0  0  0  0  0  0  0  0  0  0  0
  139.8260   69.7120  225.0490 C   0  0  0  0  0  0  0  0  0  0  0  0
  139.9760   68.8820  226.1400 C   0  0  0  0  0  0  0  0  0  0  0  0
  140.5710   69.3710  227.3020 C   0  0  0  0  0  0  0  0  0  0  0  0
  140.7870   68.3670  228.7190 Cl  0  0  0  0  0  0  0  0  0  0  0  0
  141.0140   70.6780  227.3770 C   0  0  0  0  0  0  0  0  0  0  0  0
  140.8700   71.5240  226.2850 C   0  0  0  0  0  0  0  0  0  0  0  0
  140.2750   71.0130  225.1420 C   0  0  0  0  0  0  0  0  0  0  0  0
  140.1460   71.8410  224.1040 N   0  0  0  0  0  0  0  0  0  0  0  0
  139.5920   74.1100  223.1390 H   0  0  0  0  0  0  0  0  0  0  0  0
  139.4207   74.2814  220.0755 H   0  0  0  0  0  0  0  0  0  0  0  0
  138.4272   75.3343  221.1137 H   0  0  0  0  0  0  0  0  0  0  0  0
  140.6822   75.7340  218.0705 H   0  0  0  0  0  0  0  0  0  0  0  0
  139.4129   76.7414  218.7850 H   0  0  0  0  0  0  0  0  0  0  0  0
  141.7823   77.5907  217.2766 H   0  0  0  0  0  0  0  0  0  0  0  0
  140.4949   78.6239  217.8735 H   0  0  0  0  0  0  0  0  0  0  0  0
  143.0339   78.7480  218.9403 H   0  0  0  0  0  0  0  0  0  0  0  0
  141.6793   79.0188  219.9938 H   0  0  0  0  0  0  0  0  0  0  0  0
  142.9320   77.0145  220.9388 H   0  0  0  0  0  0  0  0  0  0  0  0
  142.8406   75.8856  218.1673 H   0  0  0  0  0  0  0  0  0  0  0  0
  144.2733   76.6399  219.0041 H   0  0  0  0  0  0  0  0  0  0  0  0
  145.5548   75.4217  220.5557 H   0  0  0  0  0  0  0  0  0  0  0  0
  146.0875   73.2277  221.6233 H   0  0  0  0  0  0  0  0  0  0  0  0
  144.4010   71.3858  221.3742 H   0  0  0  0  0  0  0  0  0  0  0  0
  142.3195   71.7148  220.1462 H   0  0  0  0  0  0  0  0  0  0  0  0
  141.8130   73.9111  219.0906 H   0  0  0  0  0  0  0  0  0  0  0  0
  138.6630   69.8618  221.8477 H   0  0  0  0  0  0  0  0  0  0  0  0
  138.8778   68.2564  223.7588 H   0  0  0  0  0  0  0  0  0  0  0  0
  139.6280   67.8395  226.0936 H   0  0  0  0  0  0  0  0  0  0  0  0
  141.4807   71.0483  228.3017 H   0  0  0  0  0  0  0  0  0  0  0  0
  141.2172   72.5670  226.3258 H   0  0  0  0  0  0  0  0  0  0  0  0
  1  2  2  0
  2  3  1  0
  3  4  1  0
  4  5  1  0
  5  6  2  0
  5  7  1  0
  7  8  1  0
  8  9  1  0
  9 10  1  0
 10 11  1  0
 11 12  1  0
 12 13  1  0
 13 14  2  0
 14 15  1  0
 15 16  2  0
 16 17  1  0
 17 18  2  0
  2 19  1  0
 19 20  2  0
 20 21  1  0
 21 22  2  0
 22 23  1  0
 23 24  2  0
 24 25  1  0
 24 26  1  0
 26 27  2  0
 27 28  1  0
 28 29  2  0
 11  7  1  0
 18 13  1  0
 29 19  1  0
 28 22  1  0
  3 30  1  0
  4 31  1  0
  4 32  1  0
  8 33  1  0
  8 34  1  0
  9 35  1  0
  9 36  1  0
 10 37  1  0
 10 38  1  0
 11 39  1  1
 12 40  1  0
 12 41  1  0
 14 42  1  0
 15 43  1  0
 16 44  1  0
 17 45  1  0
 18 46  1  0
 20 47  1  0
 21 48  1  0
 23 49  1  0
 26 50  1  0
 27 51  1  0
M  END
>  <smiles>  (43) 
O=C(NCC(=O)N1CCCC1Cc1ccccc1)c1ccc2cc(Cl)ccc2n1

>  <score_type>  (43) 
oracle

>  <origin>  (43) 
autodockgpu

>  <m_score__min__energy>  (43) 
-8.8599999999999994

>  <m_primary>  (43) 
energy

>  <rmsd>  (43) 
1.6046976097398202

>  <m_score__min__rmsd>  (43) 
1.6046976097398202

>  <meeko>  (43) 
{"free_energy": -8.16, "intermolecular_energy": -9.95, "internal_energy": -2.44, "cluster_size": 8, "cluster_id": 2, "rank_in_cluster": 3}

>  <energy>  (43) 
-8.1

>  <cluster_rmsd>  (43) 
1.85

>  <cluster>  (43) 
4

$$$$

     RDKit          3D

 51 54  0  0  0  0  0  0  0  0999 V2000
  140.0200   72.3500  220.6110 O   0  0  0  0  0  0  0  0  0  0  0  0
  139.8660   72.7220  221.7830 C   0  0  0  0  0  0  0  0  0  0  0  0
  139.6970   74.1030  222.0800 N   0  0  0  0  0  0  0  0  0  0  0  0
  139.7060   75.0770  221.0090 C   0  0  0  0  0  0  0  0  0  0  0  0
  140.7780   76.0600  221.3120 C   0  0  0  0  0  0  0  0  0  0  0  0
  141.0170   76.2840  222.5310 O   0  0  0  0  0  0  0  0  0  0  0  0
  141.4860   76.7060  220.2620 N   0  0  0  0  0  0  0  0  0  0  0  0
  142.8200   76.4900  219.7640 C   0  0  0  0  0  0  0  0  0  0  0  0
  142.7990   76.9290  218.3050 C   0  0  0  0  0  0  0  0  0  0  0  0
  141.3400   77.3140  218.0640 C   0  0  0  0  0  0  0  0  0  0  0  0
  140.9360   77.7830  219.4460 C   0  0  2  0  0  0  0  0  0  0  0  0
  141.5620   79.1070  219.8020 C   0  0  0  0  0  0  0  0  0  0  0  0
  141.4600   79.4230  221.2430 C   0  0  0  0  0  0  0  0  0  0  0  0
  142.5480   79.8480  221.9890 C   0  0  0  0  0  0  0  0  0  0  0  0
  142.4550   80.1430  223.3380 C   0  0  0  0  0  0  0  0  0  0  0  0
  141.1890   79.9870  223.9090 C   0  0  0  0  0  0  0  0  0  0  0  0
  140.1060   79.5710  223.1930 C   0  0  0  0  0  0  0  0  0  0  0  0
  140.2270   79.2820  221.8470 C   0  0  0  0  0  0  0  0  0  0  0  0
  139.8530   71.7620  222.8860 C   0  0  0  0  0  0  0  0  0  0  0  0
  139.2810   70.5150  222.7300 C   0  0  0  0  0  0  0  0  0  0  0  0
  139.2790   69.6090  223.7980 C   0  0  0  0  0  0  0  0  0  0  0  0
  139.8530   69.9770  225.0080 C   0  0  0  0  0  0  0  0  0  0  0  0
  139.8860   69.1370  226.1010 C   0  0  0  0  0  0  0  0  0  0  0  0
  140.4790   69.5690  227.2870 C   0  0  0  0  0  0  0  0  0  0  0  0
  140.5510   68.5480  228.7060 Cl  0  0  0  0  0  0  0  0  0  0  0  0
  141.0360   70.8310  227.3840 C   0  0  0  0  0  0  0  0  0  0  0  0
  141.0090   71.6860  226.2900 C   0  0  0  0  0  0  0  0  0  0  0  0
  140.4140   71.2320  225.1230 C   0  0  0  0  0  0  0  0  0  0  0  0
  140.3990   72.0690  224.0850 N   0  0  0  0  0  0  0  0  0  0  0  0
  139.5690   74.3750  223.0990 H   0  0  0  0  0  0  0  0  0  0  0  0
  139.9122   74.5794  220.0499 H   0  0  0  0  0  0  0  0  0  0  0  0
  138.7299   75.5782  220.9314 H   0  0  0  0  0  0  0  0  0  0  0  0
  143.5430   77.0919  220.3340 H   0  0  0  0  0  0  0  0  0  0  0  0
  143.1222   75.4370  219.8640 H   0  0  0  0  0  0  0  0  0  0  0  0
  143.4637   77.7907  218.1450 H   0  0  0  0  0  0  0  0  0  0  0  0
  143.1522   76.1452  217.6187 H   0  0  0  0  0  0  0  0  0  0  0  0
  141.2519   78.1207  217.3213 H   0  0  0  0  0  0  0  0  0  0  0  0
  140.7168   76.5031  217.6589 H   0  0  0  0  0  0  0  0  0  0  0  0
  139.8562   77.9558  219.5654 H   0  0  0  0  0  0  0  0  0  0  0  0
  142.6257   79.0785  219.5234 H   0  0  0  0  0  0  0  0  0  0  0  0
  141.0158   79.8884  219.2533 H   0  0  0  0  0  0  0  0  0  0  0  0
  143.5224   79.9549  221.4900 H   0  0  0  0  0  0  0  0  0  0  0  0
  143.3231   80.4792  223.9240 H   0  0  0  0  0  0  0  0  0  0  0  0
  141.0613   80.2087  224.9788 H   0  0  0  0  0  0  0  0  0  0  0  0
  139.1302   79.4648  223.6895 H   0  0  0  0  0  0  0  0  0  0  0  0
  139.3553   78.9452  221.2668 H   0  0  0  0  0  0  0  0  0  0  0  0
  138.8275   70.2335  221.7682 H   0  0  0  0  0  0  0  0  0  0  0  0
  138.8263   68.6135  223.6794 H   0  0  0  0  0  0  0  0  0  0  0  0
  139.4465   68.1306  226.0377 H   0  0  0  0  0  0  0  0  0  0  0  0
  141.4999   71.1572  228.3265 H   0  0  0  0  0  0  0  0  0  0  0  0
  141.4467   72.6935  226.3477 H   0  0  0  0  0  0  0  0  0  0  0  0
  1  2  2  0
  2  3  1  0
  3  4  1  0
  4  5  1  0
  5  6  2  0
  5  7  1  0
  7  8  1  0
  8  9  1  0
  9 10  1  0
 10 11  1  0
 11 12  1  0
 12 13  1  0
 13 14  2  0
 14 15  1  0
 15 16  2  0
 16 17  1  0
 17 18  2  0
  2 19  1  0
 19 20  2  0
 20 21  1  0
 21 22  2  0
 22 23  1  0
 23 24  2  0
 24 25  1  0
 24 26  1  0
 26 27  2  0
 27 28  1  0
 28 29  2  0
 11  7  1  0
 18 13  1  0
 29 19  1  0
 28 22  1  0
  3 30  1  0
  4 31  1  0
  4 32  1  0
  8 33  1  0
  8 34  1  0
  9 35  1  0
  9 36  1  0
 10 37  1  0
 10 38  1  0
 11 39  1  6
 12 40  1  0
 12 41  1  0
 14 42  1  0
 15 43  1  0
 16 44  1  0
 17 45  1  0
 18 46  1  0
 20 47  1  0
 21 48  1  0
 23 49  1  0
 26 50  1  0
 27 51  1  0
M  END
>  <smiles>  (44) 
O=C(NCC(=O)N1CCCC1Cc1ccccc1)c1ccc2cc(Cl)ccc2n1

>  <score_type>  (44) 
oracle

>  <origin>  (44) 
autodockgpu

>  <m_score__min__energy>  (44) 
-8.8599999999999994

>  <m_primary>  (44) 
energy

>  <rmsd>  (44) 
2.139547820196216

>  <m_score__min__rmsd>  (44) 
2.139547820196216

>  <meeko>  (44) 
{"free_energy": -8.63, "intermolecular_energy": -10.42, "internal_energy": -2.02, "cluster_size": 24, "cluster_id": 1, "rank_in_cluster": 7}

>  <energy>  (44) 
-8.09

>  <cluster_rmsd>  (44) 
1.84

>  <cluster>  (44) 
4

$$$$

     RDKit          3D

 51 54  0  0  0  0  0  0  0  0999 V2000
  134.7500   68.5230  225.2360 O   0  0  0  0  0  0  0  0  0  0  0  0
  135.0630   69.6950  224.9830 C   0  0  0  0  0  0  0  0  0  0  0  0
  136.1140   69.9730  224.0660 N   0  0  0  0  0  0  0  0  0  0  0  0
  136.8200   68.8840  223.4260 C   0  0  0  0  0  0  0  0  0  0  0  0
  138.2560   69.0140  223.7850 C   0  0  0  0  0  0  0  0  0  0  0  0
  138.7140   68.1780  224.6120 O   0  0  0  0  0  0  0  0  0  0  0  0
  139.0570   70.0390  223.2110 N   0  0  0  0  0  0  0  0  0  0  0  0
  139.7880   70.0690  221.9700 C   0  0  0  0  0  0  0  0  0  0  0  0
  139.8690   71.5360  221.5670 C   0  0  0  0  0  0  0  0  0  0  0  0
  139.0610   72.2530  222.6470 C   0  0  0  0  0  0  0  0  0  0  0  0
  139.2900   71.3380  223.8320 C   0  0  2  0  0  0  0  0  0  0  0  0
  140.6970   71.4400  224.3640 C   0  0  0  0  0  0  0  0  0  0  0  0
  140.8230   70.9540  225.7540 C   0  0  0  0  0  0  0  0  0  0  0  0
  140.8600   69.6050  226.0700 C   0  0  0  0  0  0  0  0  0  0  0  0
  140.9770   69.1490  227.3720 C   0  0  0  0  0  0  0  0  0  0  0  0
  141.0560   70.1350  228.3570 C   0  0  0  0  0  0  0  0  0  0  0  0
  141.0220   71.4680  228.0690 C   0  0  0  0  0  0  0  0  0  0  0  0
  140.9040   71.8960  226.7600 C   0  0  0  0  0  0  0  0  0  0  0  0
  134.3680   70.8160  225.6130 C   0  0  0  0  0  0  0  0  0  0  0  0
  133.3540   70.5970  226.5250 C   0  0  0  0  0  0  0  0  0  0  0  0
  132.7010   71.6840  227.1180 C   0  0  0  0  0  0  0  0  0  0  0  0
  133.0810   72.9780  226.7810 C   0  0  0  0  0  0  0  0  0  0  0  0
  132.4820   74.0940  227.3250 C   0  0  0  0  0  0  0  0  0  0  0  0
  132.9120   75.3640  226.9430 C   0  0  0  0  0  0  0  0  0  0  0  0
  132.1900   76.8170  227.5990 Cl  0  0  0  0  0  0  0  0  0  0  0  0
  133.9330   75.5220  226.0240 C   0  0  0  0  0  0  0  0  0  0  0  0
  134.5450   74.4050  225.4690 C   0  0  0  0  0  0  0  0  0  0  0  0
  134.0980   73.1540  225.8660 C   0  0  0  0  0  0  0  0  0  0  0  0
  134.6980   72.0950  225.3210 N   0  0  0  0  0  0  0  0  0  0  0  0
  136.3480   70.9930  223.8800 H   0  0  0  0  0  0  0  0  0  0  0  0
  136.4287   67.9203  223.7839 H   0  0  0  0  0  0  0  0  0  0  0  0
  136.6873   68.9230  222.3347 H   0  0  0  0  0  0  0  0  0  0  0  0
  140.7973   69.6548  222.1106 H   0  0  0  0  0  0  0  0  0  0  0  0
  139.2929   69.4647  221.1956 H   0  0  0  0  0  0  0  0  0  0  0  0
  140.9124   71.8843  221.5615 H   0  0  0  0  0  0  0  0  0  0  0  0
  139.4847   71.7216  220.5532 H   0  0  0  0  0  0  0  0  0  0  0  0
  139.4484   73.2649  222.8368 H   0  0  0  0  0  0  0  0  0  0  0  0
  138.0024   72.4105  222.3928 H   0  0  0  0  0  0  0  0  0  0  0  0
  138.6563   71.5608  224.7030 H   0  0  0  0  0  0  0  0  0  0  0  0
  141.3594   70.8414  223.7215 H   0  0  0  0  0  0  0  0  0  0  0  0
  140.9751   72.5043  224.3600 H   0  0  0  0  0  0  0  0  0  0  0  0
  140.7939   68.8687  225.2554 H   0  0  0  0  0  0  0  0  0  0  0  0
  141.0059   68.0766  227.6151 H   0  0  0  0  0  0  0  0  0  0  0  0
  141.1495   69.8245  229.4081 H   0  0  0  0  0  0  0  0  0  0  0  0
  141.0888   72.2057  228.8823 H   0  0  0  0  0  0  0  0  0  0  0  0
  140.8751   72.9699  226.5236 H   0  0  0  0  0  0  0  0  0  0  0  0
  133.0599   69.5694  226.7851 H   0  0  0  0  0  0  0  0  0  0  0  0
  131.8931   71.5154  227.8453 H   0  0  0  0  0  0  0  0  0  0  0  0
  131.6685   73.9830  228.0571 H   0  0  0  0  0  0  0  0  0  0  0  0
  134.2603   76.5310  225.7327 H   0  0  0  0  0  0  0  0  0  0  0  0
  135.3593   74.5099  224.7370 H   0  0  0  0  0  0  0  0  0  0  0  0
  1  2  2  0
  2  3  1  0
  3  4  1  0
  4  5  1  0
  5  6  2  0
  5  7  1  0
  7  8  1  0
  8  9  1  0
  9 10  1  0
 10 11  1  0
 11 12  1  0
 12 13  1  0
 13 14  2  0
 14 15  1  0
 15 16  2  0
 16 17  1  0
 17 18  2  0
  2 19  1  0
 19 20  2  0
 20 21  1  0
 21 22  2  0
 22 23  1  0
 23 24  2  0
 24 25  1  0
 24 26  1  0
 26 27  2  0
 27 28  1  0
 28 29  2  0
 11  7  1  0
 18 13  1  0
 29 19  1  0
 28 22  1  0
  3 30  1  0
  4 31  1  0
  4 32  1  0
  8 33  1  0
  8 34  1  0
  9 35  1  0
  9 36  1  0
 10 37  1  0
 10 38  1  0
 11 39  1  1
 12 40  1  0
 12 41  1  0
 14 42  1  0
 15 43  1  0
 16 44  1  0
 17 45  1  0
 18 46  1  0
 20 47  1  0
 21 48  1  0
 23 49  1  0
 26 50  1  0
 27 51  1  0
M  END
>  <smiles>  (45) 
O=C(NCC(=O)N1CCCC1Cc1ccccc1)c1ccc2cc(Cl)ccc2n1

>  <score_type>  (45) 
oracle

>  <origin>  (45) 
autodockgpu

>  <m_score__min__energy>  (45) 
-8.8599999999999994

>  <m_primary>  (45) 
energy

>  <rmsd>  (45) 
6.976225609332688

>  <m_score__min__rmsd>  (45) 
6.976225609332688

>  <meeko>  (45) 
{"free_energy": -8.49, "intermolecular_energy": -10.28, "internal_energy": -1.93, "cluster_size": 7, "cluster_id": 3, "rank_in_cluster": 2}

>  <energy>  (45) 
-8.08

>  <cluster_rmsd>  (45) 
1.86

>  <cluster>  (45) 
4

$$$$

     RDKit          3D

 51 54  0  0  0  0  0  0  0  0999 V2000
  138.8510   72.1130  220.8550 O   0  0  0  0  0  0  0  0  0  0  0  0
  139.1580   72.4740  222.0000 C   0  0  0  0  0  0  0  0  0  0  0  0
  139.3130   73.8560  222.2980 N   0  0  0  0  0  0  0  0  0  0  0  0
  139.1110   74.8450  221.2610 C   0  0  0  0  0  0  0  0  0  0  0  0
  140.3130   74.8260  220.3890 C   0  0  0  0  0  0  0  0  0  0  0  0
  140.9830   73.7560  220.3660 O   0  0  0  0  0  0  0  0  0  0  0  0
  140.6730   75.9700  219.6250 N   0  0  0  0  0  0  0  0  0  0  0  0
  141.2270   76.0720  218.2990 C   0  0  0  0  0  0  0  0  0  0  0  0
  140.7830   77.4270  217.7630 C   0  0  0  0  0  0  0  0  0  0  0  0
  139.8960   77.9830  218.8750 C   0  0  0  0  0  0  0  0  0  0  0  0
  140.5290   77.3440  220.0930 C   0  0  2  0  0  0  0  0  0  0  0  0
  141.8700   77.9490  220.4210 C   0  0  0  0  0  0  0  0  0  0  0  0
  141.8410   78.7870  221.6380 C   0  0  0  0  0  0  0  0  0  0  0  0
  141.4700   78.2870  222.8760 C   0  0  0  0  0  0  0  0  0  0  0  0
  141.4420   79.0710  224.0170 C   0  0  0  0  0  0  0  0  0  0  0  0
  141.8130   80.4060  223.8460 C   0  0  0  0  0  0  0  0  0  0  0  0
  142.1830   80.9190  222.6380 C   0  0  0  0  0  0  0  0  0  0  0  0
  142.2020   80.1140  221.5140 C   0  0  0  0  0  0  0  0  0  0  0  0
  139.3690   71.4990  223.0690 C   0  0  0  0  0  0  0  0  0  0  0  0
  138.9480   70.1920  222.9260 C   0  0  0  0  0  0  0  0  0  0  0  0
  139.1600   69.2730  223.9610 C   0  0  0  0  0  0  0  0  0  0  0  0
  139.7920   69.6880  225.1270 C   0  0  0  0  0  0  0  0  0  0  0  0
  140.0320   68.8380  226.1860 C   0  0  0  0  0  0  0  0  0  0  0  0
  140.6730   69.3200  227.3260 C   0  0  0  0  0  0  0  0  0  0  0  0
  141.0040   68.2900  228.7010 Cl  0  0  0  0  0  0  0  0  0  0  0  0
  141.0710   70.6410  227.4120 C   0  0  0  0  0  0  0  0  0  0  0  0
  140.8350   71.5070  226.3520 C   0  0  0  0  0  0  0  0  0  0  0  0
  140.1970   71.0030  225.2300 C   0  0  0  0  0  0  0  0  0  0  0  0
  139.9800   71.8510  224.2240 N   0  0  0  0  0  0  0  0  0  0  0  0
  139.5770   74.1180  223.2940 H   0  0  0  0  0  0  0  0  0  0  0  0
  138.2157   74.5954  220.6727 H   0  0  0  0  0  0  0  0  0  0  0  0
  138.9649   75.8432  221.6994 H   0  0  0  0  0  0  0  0  0  0  0  0
  142.3249   76.0172  218.3380 H   0  0  0  0  0  0  0  0  0  0  0  0
  140.8828   75.2504  217.6536 H   0  0  0  0  0  0  0  0  0  0  0  0
  141.6489   78.0822  217.5873 H   0  0  0  0  0  0  0  0  0  0  0  0
  140.2608   77.3533  216.7977 H   0  0  0  0  0  0  0  0  0  0  0  0
  139.9468   79.0808  218.9219 H   0  0  0  0  0  0  0  0  0  0  0  0
  138.8246   77.7657  218.7530 H   0  0  0  0  0  0  0  0  0  0  0  0
  139.9473   77.4649  221.0188 H   0  0  0  0  0  0  0  0  0  0  0  0
  142.5945   77.1353  220.5724 H   0  0  0  0  0  0  0  0  0  0  0  0
  142.1536   78.5986  219.5798 H   0  0  0  0  0  0  0  0  0  0  0  0
  141.1870   77.2270  222.9553 H   0  0  0  0  0  0  0  0  0  0  0  0
  141.1461   78.6674  224.9965 H   0  0  0  0  0  0  0  0  0  0  0  0
  141.8066   81.0714  224.7219 H   0  0  0  0  0  0  0  0  0  0  0  0
  142.4678   81.9784  222.5573 H   0  0  0  0  0  0  0  0  0  0  0  0
  142.4997   80.5238  220.5375 H   0  0  0  0  0  0  0  0  0  0  0  0
  138.4467   69.8730  222.0003 H   0  0  0  0  0  0  0  0  0  0  0  0
  138.8286   68.2298  223.8519 H   0  0  0  0  0  0  0  0  0  0  0  0
  139.7191   67.7848  226.1314 H   0  0  0  0  0  0  0  0  0  0  0  0
  141.5743   71.0062  228.3194 H   0  0  0  0  0  0  0  0  0  0  0  0
  141.1452   72.5612  226.4018 H   0  0  0  0  0  0  0  0  0  0  0  0
  1  2  2  0
  2  3  1  0
  3  4  1  0
  4  5  1  0
  5  6  2  0
  5  7  1  0
  7  8  1  0
  8  9  1  0
  9 10  1  0
 10 11  1  0
 11 12  1  0
 12 13  1  0
 13 14  2  0
 14 15  1  0
 15 16  2  0
 16 17  1  0
 17 18  2  0
  2 19  1  0
 19 20  2  0
 20 21  1  0
 21 22  2  0
 22 23  1  0
 23 24  2  0
 24 25  1  0
 24 26  1  0
 26 27  2  0
 27 28  1  0
 28 29  2  0
 11  7  1  0
 18 13  1  0
 29 19  1  0
 28 22  1  0
  3 30  1  0
  4 31  1  0
  4 32  1  0
  8 33  1  0
  8 34  1  0
  9 35  1  0
  9 36  1  0
 10 37  1  0
 10 38  1  0
 11 39  1  1
 12 40  1  0
 12 41  1  0
 14 42  1  0
 15 43  1  0
 16 44  1  0
 17 45  1  0
 18 46  1  0
 20 47  1  0
 21 48  1  0
 23 49  1  0
 26 50  1  0
 27 51  1  0
M  END
>  <smiles>  (46) 
O=C(NCC(=O)N1CCCC1Cc1ccccc1)c1ccc2cc(Cl)ccc2n1

>  <score_type>  (46) 
oracle

>  <origin>  (46) 
autodockgpu

>  <m_score__min__energy>  (46) 
-8.8599999999999994

>  <m_primary>  (46) 
energy

>  <rmsd>  (46) 
1.5593777269640523

>  <m_score__min__rmsd>  (46) 
1.5593777269640523

>  <meeko>  (46) 
{"free_energy": -8.07, "intermolecular_energy": -9.86, "internal_energy": -1.51, "cluster_size": 24, "cluster_id": 1, "rank_in_cluster": 22}

>  <energy>  (46) 
-8.08

>  <cluster_rmsd>  (46) 
1.85

>  <cluster>  (46) 
4

$$$$

     RDKit          3D

 51 54  0  0  0  0  0  0  0  0999 V2000
  137.9410   71.3410  221.3420 O   0  0  0  0  0  0  0  0  0  0  0  0
  138.6070   71.7490  222.3040 C   0  0  0  0  0  0  0  0  0  0  0  0
  139.0460   73.1020  222.3480 N   0  0  0  0  0  0  0  0  0  0  0  0
  138.7140   74.0040  221.2660 C   0  0  0  0  0  0  0  0  0  0  0  0
  139.6920   75.1210  221.3020 C   0  0  0  0  0  0  0  0  0  0  0  0
  140.6200   75.0370  222.1540 O   0  0  0  0  0  0  0  0  0  0  0  0
  139.5690   76.2220  220.4100 N   0  0  0  0  0  0  0  0  0  0  0  0
  139.5080   76.2560  218.9710 C   0  0  0  0  0  0  0  0  0  0  0  0
  138.7290   77.5160  218.6150 C   0  0  0  0  0  0  0  0  0  0  0  0
  138.3270   78.0880  219.9730 C   0  0  0  0  0  0  0  0  0  0  0  0
  139.4760   77.6130  220.8370 C   0  0  2  0  0  0  0  0  0  0  0  0
  140.7530   78.3570  220.5420 C   0  0  0  0  0  0  0  0  0  0  0  0
  141.3220   79.0190  221.7350 C   0  0  0  0  0  0  0  0  0  0  0  0
  141.2430   78.4630  223.0020 C   0  0  0  0  0  0  0  0  0  0  0  0
  141.7750   79.0820  224.1200 C   0  0  0  0  0  0  0  0  0  0  0  0
  142.4020   80.3100  223.8960 C   0  0  0  0  0  0  0  0  0  0  0  0
  142.4910   80.8750  222.6580 C   0  0  0  0  0  0  0  0  0  0  0  0
  141.9510   80.2350  221.5580 C   0  0  0  0  0  0  0  0  0  0  0  0
  138.9590   70.8630  223.4110 C   0  0  0  0  0  0  0  0  0  0  0  0
  138.6080   69.5270  223.3860 C   0  0  0  0  0  0  0  0  0  0  0  0
  138.9550   68.6940  224.4560 C   0  0  0  0  0  0  0  0  0  0  0  0
  139.6500   69.2220  225.5380 C   0  0  0  0  0  0  0  0  0  0  0  0
  140.0230   68.4600  226.6250 C   0  0  0  0  0  0  0  0  0  0  0  0
  140.7200   69.0530  227.6770 C   0  0  0  0  0  0  0  0  0  0  0  0
  141.2190   68.1380  229.0830 Cl  0  0  0  0  0  0  0  0  0  0  0  0
  141.0430   70.3970  227.6470 C   0  0  0  0  0  0  0  0  0  0  0  0
  140.6740   71.1750  226.5570 C   0  0  0  0  0  0  0  0  0  0  0  0
  139.9820   70.5610  225.5240 C   0  0  0  0  0  0  0  0  0  0  0  0
  139.6360   71.3250  224.4880 N   0  0  0  0  0  0  0  0  0  0  0  0
  139.6150   73.4070  223.1920 H   0  0  0  0  0  0  0  0  0  0  0  0
  138.7811   73.4766  220.3030 H   0  0  0  0  0  0  0  0  0  0  0  0
  137.6875   74.3832  221.3780 H   0  0  0  0  0  0  0  0  0  0  0  0
  140.5217   76.3002  218.5461 H   0  0  0  0  0  0  0  0  0  0  0  0
  139.0245   75.3547  218.5662 H   0  0  0  0  0  0  0  0  0  0  0  0
  139.3621   78.2256  218.0622 H   0  0  0  0  0  0  0  0  0  0  0  0
  137.8652   77.3140  217.9646 H   0  0  0  0  0  0  0  0  0  0  0  0
  138.2676   79.1861  219.9475 H   0  0  0  0  0  0  0  0  0  0  0  0
  137.3340   77.7700  220.3234 H   0  0  0  0  0  0  0  0  0  0  0  0
  139.3210   77.7623  221.9157 H   0  0  0  0  0  0  0  0  0  0  0  0
  141.4927   77.6431  220.1505 H   0  0  0  0  0  0  0  0  0  0  0  0
  140.5154   79.1431  219.8102 H   0  0  0  0  0  0  0  0  0  0  0  0
  140.7385   77.4931  223.1238 H   0  0  0  0  0  0  0  0  0  0  0  0
  141.7082   78.6346  225.1227 H   0  0  0  0  0  0  0  0  0  0  0  0
  142.8415   80.8425  224.7523 H   0  0  0  0  0  0  0  0  0  0  0  0
  142.9950   81.8449  222.5341 H   0  0  0  0  0  0  0  0  0  0  0  0
  142.0214   80.6874  220.5578 H   0  0  0  0  0  0  0  0  0  0  0  0
  138.0566   69.1185  222.5263 H   0  0  0  0  0  0  0  0  0  0  0  0
  138.6797   67.6291  224.4408 H   0  0  0  0  0  0  0  0  0  0  0  0
  139.7719   67.3897  226.6620 H   0  0  0  0  0  0  0  0  0  0  0  0
  141.5919   70.8499  228.4858 H   0  0  0  0  0  0  0  0  0  0  0  0
  140.9231   72.2456  226.5146 H   0  0  0  0  0  0  0  0  0  0  0  0
  1  2  2  0
  2  3  1  0
  3  4  1  0
  4  5  1  0
  5  6  2  0
  5  7  1  0
  7  8  1  0
  8  9  1  0
  9 10  1  0
 10 11  1  0
 11 12  1  0
 12 13  1  0
 13 14  2  0
 14 15  1  0
 15 16  2  0
 16 17  1  0
 17 18  2  0
  2 19  1  0
 19 20  2  0
 20 21  1  0
 21 22  2  0
 22 23  1  0
 23 24  2  0
 24 25  1  0
 24 26  1  0
 26 27  2  0
 27 28  1  0
 28 29  2  0
 11  7  1  0
 18 13  1  0
 29 19  1  0
 28 22  1  0
  3 30  1  0
  4 31  1  0
  4 32  1  0
  8 33  1  0
  8 34  1  0
  9 35  1  0
  9 36  1  0
 10 37  1  0
 10 38  1  0
 11 39  1  1
 12 40  1  0
 12 41  1  0
 14 42  1  0
 15 43  1  0
 16 44  1  0
 17 45  1  0
 18 46  1  0
 20 47  1  0
 21 48  1  0
 23 49  1  0
 26 50  1  0
 27 51  1  0
M  END
>  <smiles>  (47) 
O=C(NCC(=O)N1CCCC1Cc1ccccc1)c1ccc2cc(Cl)ccc2n1

>  <score_type>  (47) 
oracle

>  <origin>  (47) 
autodockgpu

>  <m_score__min__energy>  (47) 
-8.8599999999999994

>  <m_primary>  (47) 
energy

>  <rmsd>  (47) 
1.554778440075519

>  <m_score__min__rmsd>  (47) 
1.554778440075519

>  <meeko>  (47) 
{"free_energy": -8.36, "intermolecular_energy": -10.15, "internal_energy": -2.17, "cluster_size": 24, "cluster_id": 1, "rank_in_cluster": 13}

>  <energy>  (47) 
-8.05

>  <cluster_rmsd>  (47) 
1.46

>  <cluster>  (47) 
4

$$$$

     RDKit          3D

 51 54  0  0  0  0  0  0  0  0999 V2000
  137.6340   72.2120  220.9270 O   0  0  0  0  0  0  0  0  0  0  0  0
  137.6550   72.9860  221.8940 C   0  0  0  0  0  0  0  0  0  0  0  0
  136.7770   72.7820  222.9940 N   0  0  0  0  0  0  0  0  0  0  0  0
  135.8550   71.6670  222.9840 C   0  0  0  0  0  0  0  0  0  0  0  0
  136.4160   70.6180  223.8740 C   0  0  0  0  0  0  0  0  0  0  0  0
  135.8090   70.4100  224.9610 O   0  0  0  0  0  0  0  0  0  0  0  0
  137.5820   69.8960  223.4980 N   0  0  0  0  0  0  0  0  0  0  0  0
  137.7200   68.6360  222.8130 C   0  0  0  0  0  0  0  0  0  0  0  0
  139.0690   68.6890  222.1080 C   0  0  0  0  0  0  0  0  0  0  0  0
  139.5830   70.0940  222.4140 C   0  0  0  0  0  0  0  0  0  0  0  0
  138.9430   70.3460  223.7630 C   0  0  2  0  0  0  0  0  0  0  0  0
  139.5820   69.5280  224.8560 C   0  0  0  0  0  0  0  0  0  0  0  0
  140.0800   70.3520  225.9770 C   0  0  0  0  0  0  0  0  0  0  0  0
  140.8930   71.4590  225.7820 C   0  0  0  0  0  0  0  0  0  0  0  0
  141.3600   72.2320  226.8300 C   0  0  0  0  0  0  0  0  0  0  0  0
  140.9630   71.8290  228.1080 C   0  0  0  0  0  0  0  0  0  0  0  0
  140.1640   70.7450  228.3220 C   0  0  0  0  0  0  0  0  0  0  0  0
  139.7110   69.9900  227.2570 C   0  0  0  0  0  0  0  0  0  0  0  0
  138.5740   74.1220  221.9330 C   0  0  0  0  0  0  0  0  0  0  0  0
  139.8990   73.9710  221.5720 C   0  0  0  0  0  0  0  0  0  0  0  0
  140.7640   75.0710  221.6160 C   0  0  0  0  0  0  0  0  0  0  0  0
  140.2790   76.3080  222.0260 C   0  0  0  0  0  0  0  0  0  0  0  0
  141.0750   77.4330  222.0930 C   0  0  0  0  0  0  0  0  0  0  0  0
  140.5230   78.6430  222.5120 C   0  0  0  0  0  0  0  0  0  0  0  0
  141.4820   80.1030  222.6180 Cl  0  0  0  0  0  0  0  0  0  0  0  0
  139.1890   78.7330  222.8620 C   0  0  0  0  0  0  0  0  0  0  0  0
  138.3780   77.6070  222.7980 C   0  0  0  0  0  0  0  0  0  0  0  0
  138.9500   76.4160  222.3780 C   0  0  0  0  0  0  0  0  0  0  0  0
  138.1540   75.3480  222.3240 N   0  0  0  0  0  0  0  0  0  0  0  0
  136.8300   73.4720  223.8010 H   0  0  0  0  0  0  0  0  0  0  0  0
  134.8714   71.9892  223.3563 H   0  0  0  0  0  0  0  0  0  0  0  0
  135.7245   71.2803  221.9625 H   0  0  0  0  0  0  0  0  0  0  0  0
  137.6971   67.8047  223.5330 H   0  0  0  0  0  0  0  0  0  0  0  0
  136.8983   68.4719  222.1003 H   0  0  0  0  0  0  0  0  0  0  0  0
  139.7516   67.9256  222.5096 H   0  0  0  0  0  0  0  0  0  0  0  0
  138.9941   68.4883  221.0291 H   0  0  0  0  0  0  0  0  0  0  0  0
  140.6809   70.1182  222.4765 H   0  0  0  0  0  0  0  0  0  0  0  0
  139.3381   70.8442  221.6477 H   0  0  0  0  0  0  0  0  0  0  0  0
  139.0317   71.3836  224.1173 H   0  0  0  0  0  0  0  0  0  0  0  0
  138.8359   68.8198  225.2458 H   0  0  0  0  0  0  0  0  0  0  0  0
  140.4482   69.0112  224.4170 H   0  0  0  0  0  0  0  0  0  0  0  0
  141.1771   71.7325  224.7551 H   0  0  0  0  0  0  0  0  0  0  0  0
  142.0036   73.1091  226.6676 H   0  0  0  0  0  0  0  0  0  0  0  0
  141.3089   72.4095  228.9759 H   0  0  0  0  0  0  0  0  0  0  0  0
  139.8785   70.4700  229.3481 H   0  0  0  0  0  0  0  0  0  0  0  0
  139.0667   69.1147  227.4264 H   0  0  0  0  0  0  0  0  0  0  0  0
  140.2738   72.9880  221.2505 H   0  0  0  0  0  0  0  0  0  0  0  0
  141.8196   74.9575  221.3283 H   0  0  0  0  0  0  0  0  0  0  0  0
  142.1384   77.3757  221.8176 H   0  0  0  0  0  0  0  0  0  0  0  0
  138.7699   79.6954  223.1909 H   0  0  0  0  0  0  0  0  0  0  0  0
  137.3140   77.6588  223.0723 H   0  0  0  0  0  0  0  0  0  0  0  0
  1  2  2  0
  2  3  1  0
  3  4  1  0
  4  5  1  0
  5  6  2  0
  5  7  1  0
  7  8  1  0
  8  9  1  0
  9 10  1  0
 10 11  1  0
 11 12  1  0
 12 13  1  0
 13 14  2  0
 14 15  1  0
 15 16  2  0
 16 17  1  0
 17 18  2  0
  2 19  1  0
 19 20  2  0
 20 21  1  0
 21 22  2  0
 22 23  1  0
 23 24  2  0
 24 25  1  0
 24 26  1  0
 26 27  2  0
 27 28  1  0
 28 29  2  0
 11  7  1  0
 18 13  1  0
 29 19  1  0
 28 22  1  0
  3 30  1  0
  4 31  1  0
  4 32  1  0
  8 33  1  0
  8 34  1  0
  9 35  1  0
  9 36  1  0
 10 37  1  0
 10 38  1  0
 11 39  1  1
 12 40  1  0
 12 41  1  0
 14 42  1  0
 15 43  1  0
 16 44  1  0
 17 45  1  0
 18 46  1  0
 20 47  1  0
 21 48  1  0
 23 49  1  0
 26 50  1  0
 27 51  1  0
M  END
>  <smiles>  (48) 
O=C(NCC(=O)N1CCCC1Cc1ccccc1)c1ccc2cc(Cl)ccc2n1

>  <score_type>  (48) 
oracle

>  <origin>  (48) 
autodockgpu

>  <m_score__min__energy>  (48) 
-8.8599999999999994

>  <m_primary>  (48) 
energy

>  <rmsd>  (48) 
7.340034171988544

>  <m_score__min__rmsd>  (48) 
7.340034171988544

>  <meeko>  (48) 
{"free_energy": -7.95, "intermolecular_energy": -9.74, "internal_energy": -2.01, "cluster_size": 10, "cluster_id": 4, "rank_in_cluster": 10}

>  <energy>  (48) 
-8.03

>  <cluster_rmsd>  (48) 
1.87

>  <cluster>  (48) 
4

$$$$

     RDKit          3D

 51 54  0  0  0  0  0  0  0  0999 V2000
  138.6930   73.5280  220.5150 O   0  0  0  0  0  0  0  0  0  0  0  0
  138.5030   74.3360  221.4350 C   0  0  0  0  0  0  0  0  0  0  0  0
  137.4180   74.1520  222.3370 N   0  0  0  0  0  0  0  0  0  0  0  0
  136.5320   73.0180  222.1780 C   0  0  0  0  0  0  0  0  0  0  0  0
  137.0240   71.9410  223.0750 C   0  0  0  0  0  0  0  0  0  0  0  0
  136.2970   71.6480  224.0640 O   0  0  0  0  0  0  0  0  0  0  0  0
  138.2580   71.2850  222.8120 N   0  0  0  0  0  0  0  0  0  0  0  0
  138.6020   70.3090  221.8100 C   0  0  0  0  0  0  0  0  0  0  0  0
  140.0960   70.4750  221.5600 C   0  0  0  0  0  0  0  0  0  0  0  0
  140.4820   71.6570  222.4470 C   0  0  0  0  0  0  0  0  0  0  0  0
  139.4810   71.5090  223.5740 C   0  0  2  0  0  0  0  0  0  0  0  0
  139.7930   70.3290  224.4590 C   0  0  0  0  0  0  0  0  0  0  0  0
  140.2240   70.7260  225.8160 C   0  0  0  0  0  0  0  0  0  0  0  0
  139.8950   69.9930  226.9450 C   0  0  0  0  0  0  0  0  0  0  0  0
  140.2980   70.3630  228.2160 C   0  0  0  0  0  0  0  0  0  0  0  0
  141.0620   71.5300  228.2960 C   0  0  0  0  0  0  0  0  0  0  0  0
  141.3980   72.2660  227.1990 C   0  0  0  0  0  0  0  0  0  0  0  0
  140.9810   71.8740  225.9400 C   0  0  0  0  0  0  0  0  0  0  0  0
  139.3790   75.4910  221.6210 C   0  0  0  0  0  0  0  0  0  0  0  0
  140.6260   75.5340  221.0270 C   0  0  0  0  0  0  0  0  0  0  0  0
  141.4500   76.6500  221.2170 C   0  0  0  0  0  0  0  0  0  0  0  0
  141.0050   77.7040  222.0050 C   0  0  0  0  0  0  0  0  0  0  0  0
  141.7650   78.8330  222.2350 C   0  0  0  0  0  0  0  0  0  0  0  0
  141.2570   79.8550  223.0350 C   0  0  0  0  0  0  0  0  0  0  0  0
  142.1730   81.3090  223.3630 Cl  0  0  0  0  0  0  0  0  0  0  0  0
  140.0010   79.7540  223.6040 C   0  0  0  0  0  0  0  0  0  0  0  0
  139.2260   78.6230  223.3800 C   0  0  0  0  0  0  0  0  0  0  0  0
  139.7540   77.6220  222.5800 C   0  0  0  0  0  0  0  0  0  0  0  0
  138.9950   76.5440  222.3780 N   0  0  0  0  0  0  0  0  0  0  0  0
  137.2930   74.8700  223.1100 H   0  0  0  0  0  0  0  0  0  0  0  0
  135.5061   73.3003  222.4570 H   0  0  0  0  0  0  0  0  0  0  0  0
  136.5206   72.6775  221.1321 H   0  0  0  0  0  0  0  0  0  0  0  0
  138.3856   69.2940  222.1745 H   0  0  0  0  0  0  0  0  0  0  0  0
  138.0199   70.4546  220.8881 H   0  0  0  0  0  0  0  0  0  0  0  0
  140.6459   69.5685  221.8531 H   0  0  0  0  0  0  0  0  0  0  0  0
  140.3349   70.6419  220.4993 H   0  0  0  0  0  0  0  0  0  0  0  0
  141.5163   71.5687  222.8108 H   0  0  0  0  0  0  0  0  0  0  0  0
  140.4546   72.6330  221.9404 H   0  0  0  0  0  0  0  0  0  0  0  0
  139.4513   72.3633  224.2663 H   0  0  0  0  0  0  0  0  0  0  0  0
  138.8901   69.7067  224.5455 H   0  0  0  0  0  0  0  0  0  0  0  0
  140.6258   69.7798  223.9955 H   0  0  0  0  0  0  0  0  0  0  0  0
  139.2902   69.0819  226.8263 H   0  0  0  0  0  0  0  0  0  0  0  0
  140.0335   69.7752  229.1074 H   0  0  0  0  0  0  0  0  0  0  0  0
  141.4063   71.8686  229.2843 H   0  0  0  0  0  0  0  0  0  0  0  0
  142.0040   73.1766  227.3157 H   0  0  0  0  0  0  0  0  0  0  0  0
  141.2479   72.4667  225.0526 H   0  0  0  0  0  0  0  0  0  0  0  0
  140.9704   74.6936  220.4064 H   0  0  0  0  0  0  0  0  0  0  0  0
  142.4429   76.6919  220.7455 H   0  0  0  0  0  0  0  0  0  0  0  0
  142.7664   78.9257  221.7892 H   0  0  0  0  0  0  0  0  0  0  0  0
  139.6154   80.5691  224.2340 H   0  0  0  0  0  0  0  0  0  0  0  0
  138.2243   78.5250  223.8239 H   0  0  0  0  0  0  0  0  0  0  0  0
  1  2  2  0
  2  3  1  0
  3  4  1  0
  4  5  1  0
  5  6  2  0
  5  7  1  0
  7  8  1  0
  8  9  1  0
  9 10  1  0
 10 11  1  0
 11 12  1  0
 12 13  1  0
 13 14  2  0
 14 15  1  0
 15 16  2  0
 16 17  1  0
 17 18  2  0
  2 19  1  0
 19 20  2  0
 20 21  1  0
 21 22  2  0
 22 23  1  0
 23 24  2  0
 24 25  1  0
 24 26  1  0
 26 27  2  0
 27 28  1  0
 28 29  2  0
 11  7  1  0
 18 13  1  0
 29 19  1  0
 28 22  1  0
  3 30  1  0
  4 31  1  0
  4 32  1  0
  8 33  1  0
  8 34  1  0
  9 35  1  0
  9 36  1  0
 10 37  1  0
 10 38  1  0
 11 39  1  1
 12 40  1  0
 12 41  1  0
 14 42  1  0
 15 43  1  0
 16 44  1  0
 17 45  1  0
 18 46  1  0
 20 47  1  0
 21 48  1  0
 23 49  1  0
 26 50  1  0
 27 51  1  0
M  END
>  <smiles>  (49) 
O=C(NCC(=O)N1CCCC1Cc1ccccc1)c1ccc2cc(Cl)ccc2n1

>  <score_type>  (49) 
oracle

>  <origin>  (49) 
autodockgpu

>  <m_score__min__energy>  (49) 
-8.8599999999999994

>  <m_primary>  (49) 
energy

>  <rmsd>  (49) 
7.239067055399862

>  <m_score__min__rmsd>  (49) 
7.239067055399862

>  <meeko>  (49) 
{"free_energy": -8.28, "intermolecular_energy": -10.07, "internal_energy": -2.06, "cluster_size": 10, "cluster_id": 4, "rank_in_cluster": 3}

>  <energy>  (49) 
-7.95

>  <cluster_rmsd>  (49) 
1.11

>  <cluster>  (49) 
4

$$$$

     RDKit          3D

 51 54  0  0  0  0  0  0  0  0999 V2000
  133.8640   70.5300  226.2760 O   0  0  0  0  0  0  0  0  0  0  0  0
  134.0910   71.6980  225.9320 C   0  0  0  0  0  0  0  0  0  0  0  0
  135.0850   71.9760  224.9530 N   0  0  0  0  0  0  0  0  0  0  0  0
  135.8360   70.8910  224.3590 C   0  0  0  0  0  0  0  0  0  0  0  0
  136.8040   71.4900  223.4040 C   0  0  0  0  0  0  0  0  0  0  0  0
  136.5100   72.6230  222.9320 O   0  0  0  0  0  0  0  0  0  0  0  0
  137.9980   70.8020  223.0560 N   0  0  0  0  0  0  0  0  0  0  0  0
  138.2190   69.7290  222.1200 C   0  0  0  0  0  0  0  0  0  0  0  0
  139.6690   69.8580  221.6700 C   0  0  0  0  0  0  0  0  0  0  0  0
  140.1580   71.1190  222.3810 C   0  0  0  0  0  0  0  0  0  0  0  0
  139.3060   71.0920  223.6330 C   0  0  2  0  0  0  0  0  0  0  0  0
  139.7320   70.0030  224.5850 C   0  0  0  0  0  0  0  0  0  0  0  0
  140.1320   70.5220  225.9090 C   0  0  0  0  0  0  0  0  0  0  0  0
  139.7150   69.9360  227.0950 C   0  0  0  0  0  0  0  0  0  0  0  0
  140.0890   70.4210  228.3360 C   0  0  0  0  0  0  0  0  0  0  0  0
  140.9180   71.5450  228.3250 C   0  0  0  0  0  0  0  0  0  0  0  0
  141.3410   72.1360  227.1720 C   0  0  0  0  0  0  0  0  0  0  0  0
  140.9520   71.6320  225.9450 C   0  0  0  0  0  0  0  0  0  0  0  0
  133.3500   72.8160  226.5140 C   0  0  0  0  0  0  0  0  0  0  0  0
  132.1360   72.6090  227.1400 C   0  0  0  0  0  0  0  0  0  0  0  0
  131.4420   73.6920  227.6920 C   0  0  0  0  0  0  0  0  0  0  0  0
  131.9820   74.9690  227.6020 C   0  0  0  0  0  0  0  0  0  0  0  0
  131.3530   76.0810  228.1230 C   0  0  0  0  0  0  0  0  0  0  0  0
  131.9520   77.3330  227.9990 C   0  0  0  0  0  0  0  0  0  0  0  0
  131.2020   78.7790  228.6390 Cl  0  0  0  0  0  0  0  0  0  0  0  0
  133.1690   77.4790  227.3610 C   0  0  0  0  0  0  0  0  0  0  0  0
  133.8130   76.3670  226.8330 C   0  0  0  0  0  0  0  0  0  0  0  0
  133.1970   75.1330  226.9690 C   0  0  0  0  0  0  0  0  0  0  0  0
  133.8310   74.0790  226.4550 N   0  0  0  0  0  0  0  0  0  0  0  0
  135.2450   72.9930  224.6890 H   0  0  0  0  0  0  0  0  0  0  0  0
  136.3743   70.3346  225.1404 H   0  0  0  0  0  0  0  0  0  0  0  0
  135.1633   70.1910  223.8418 H   0  0  0  0  0  0  0  0  0  0  0  0
  138.0549   68.7566  222.6073 H   0  0  0  0  0  0  0  0  0  0  0  0
  137.5255   69.7874  221.2682 H   0  0  0  0  0  0  0  0  0  0  0  0
  140.2555   68.9805  221.9799 H   0  0  0  0  0  0  0  0  0  0  0  0
  139.7723   69.9179  220.5765 H   0  0  0  0  0  0  0  0  0  0  0  0
  141.2300   71.0582  222.6202 H   0  0  0  0  0  0  0  0  0  0  0  0
  140.0637   72.0403  221.7875 H   0  0  0  0  0  0  0  0  0  0  0  0
  139.3586   72.0115  224.2345 H   0  0  0  0  0  0  0  0  0  0  0  0
  138.8916   69.3063  224.7202 H   0  0  0  0  0  0  0  0  0  0  0  0
  140.6094   69.5052  224.1464 H   0  0  0  0  0  0  0  0  0  0  0  0
  139.0621   69.0520  227.0473 H   0  0  0  0  0  0  0  0  0  0  0  0
  139.7544   69.9507  229.2724 H   0  0  0  0  0  0  0  0  0  0  0  0
  141.2427   71.9706  229.2860 H   0  0  0  0  0  0  0  0  0  0  0  0
  141.9955   73.0189  227.2181 H   0  0  0  0  0  0  0  0  0  0  0  0
  141.2903   72.1076  225.0126 H   0  0  0  0  0  0  0  0  0  0  0  0
  131.7154   71.5946  227.2045 H   0  0  0  0  0  0  0  0  0  0  0  0
  130.4759   73.5332  228.1935 H   0  0  0  0  0  0  0  0  0  0  0  0
  130.3839   75.9798  228.6335 H   0  0  0  0  0  0  0  0  0  0  0  0
  133.6275   78.4748  227.2713 H   0  0  0  0  0  0  0  0  0  0  0  0
  134.7826   76.4631  226.3224 H   0  0  0  0  0  0  0  0  0  0  0  0
  1  2  2  0
  2  3  1  0
  3  4  1  0
  4  5  1  0
  5  6  2  0
  5  7  1  0
  7  8  1  0
  8  9  1  0
  9 10  1  0
 10 11  1  0
 11 12  1  0
 12 13  1  0
 13 14  2  0
 14 15  1  0
 15 16  2  0
 16 17  1  0
 17 18  2  0
  2 19  1  0
 19 20  2  0
 20 21  1  0
 21 22  2  0
 22 23  1  0
 23 24  2  0
 24 25  1  0
 24 26  1  0
 26 27  2  0
 27 28  1  0
 28 29  2  0
 11  7  1  0
 18 13  1  0
 29 19  1  0
 28 22  1  0
  3 30  1  0
  4 31  1  0
  4 32  1  0
  8 33  1  0
  8 34  1  0
  9 35  1  0
  9 36  1  0
 10 37  1  0
 10 38  1  0
 11 39  1  1
 12 40  1  0
 12 41  1  0
 14 42  1  0
 15 43  1  0
 16 44  1  0
 17 45  1  0
 18 46  1  0
 20 47  1  0
 21 48  1  0
 23 49  1  0
 26 50  1  0
 27 51  1  0
M  END
>  <smiles>  (50) 
O=C(NCC(=O)N1CCCC1Cc1ccccc1)c1ccc2cc(Cl)ccc2n1

>  <score_type>  (50) 
oracle

>  <origin>  (50) 
autodockgpu

>  <m_score__min__energy>  (50) 
-8.8599999999999994

>  <m_primary>  (50) 
energy

>  <rmsd>  (50) 
8.00367528433446

>  <m_score__min__rmsd>  (50) 
8.00367528433446

>  <meeko>  (50) 
{"free_energy": -8.28, "intermolecular_energy": -10.07, "internal_energy": -2.12, "cluster_size": 7, "cluster_id": 3, "rank_in_cluster": 6}

>  <energy>  (50) 
-8.11

>  <cluster_rmsd>  (50) 
0.0

>  <cluster>  (50) 
5

$$$$

     RDKit          3D

 51 54  0  0  0  0  0  0  0  0999 V2000
  140.1650   71.8820  220.8200 O   0  0  0  0  0  0  0  0  0  0  0  0
  139.9380   72.3760  221.9790 C   0  0  0  0  0  0  0  0  0  0  0  0
  139.6260   73.7580  222.1450 N   0  0  0  0  0  0  0  0  0  0  0  0
  139.5330   74.6710  221.0500 C   0  0  0  0  0  0  0  0  0  0  0  0
  140.6280   75.5780  220.7670 C   0  0  0  0  0  0  0  0  0  0  0  0
  141.6420   75.4390  221.5800 O   0  0  0  0  0  0  0  0  0  0  0  0
  140.7540   76.5700  219.7710 N   0  0  0  0  0  0  0  0  0  0  0  0
  140.5170   76.4470  218.3190 C   0  0  0  0  0  0  0  0  0  0  0  0
  140.2860   77.9010  217.8830 C   0  0  0  0  0  0  0  0  0  0  0  0
  141.2590   78.6730  218.7840 C   0  0  0  0  0  0  0  0  0  0  0  0
  141.1550   77.9360  220.0660 C   0  0  1  0  0  0  0  0  0  0  0  0
  140.3590   78.6250  221.1160 C   0  0  0  0  0  0  0  0  0  0  0  0
  141.1220   79.4660  222.0580 C   0  0  0  0  0  0  0  0  0  0  0  0
  141.1230   80.8600  221.9180 C   0  0  0  0  0  0  0  0  0  0  0  0
  141.8320   81.6720  222.7880 C   0  0  0  0  0  0  0  0  0  0  0  0
  142.5690   81.1450  223.8280 C   0  0  0  0  0  0  0  0  0  0  0  0
  142.5780   79.7750  223.9790 C   0  0  0  0  0  0  0  0  0  0  0  0
  141.8670   78.9760  223.1060 C   0  0  0  0  0  0  0  0  0  0  0  0
  140.0060   71.4820  223.1550 C   0  0  0  0  0  0  0  0  0  0  0  0
  139.5520   70.1850  223.0500 C   0  0  0  0  0  0  0  0  0  0  0  0
  139.5770   69.2850  224.0880 C   0  0  0  0  0  0  0  0  0  0  0  0
  140.0910   69.7330  225.2920 C   0  0  0  0  0  0  0  0  0  0  0  0
  140.1270   68.8500  226.3460 C   0  0  0  0  0  0  0  0  0  0  0  0
  140.6390   69.2990  227.5430 C   0  0  0  0  0  0  0  0  0  0  0  0
  140.6780   68.1590  228.8830 Cl  0  0  0  0  0  0  0  0  0  0  0  0
  141.0900   70.5860  227.6440 C   0  0  0  0  0  0  0  0  0  0  0  0
  141.0580   71.4820  226.5890 C   0  0  0  0  0  0  0  0  0  0  0  0
  140.5400   71.0350  225.3700 C   0  0  0  0  0  0  0  0  0  0  0  0
  140.4950   71.8840  224.3210 N   0  0  0  0  0  0  0  0  0  0  0  0
  139.4690   74.0490  223.1600 H   0  0  0  0  0  0  0  0  0  0  0  0
  139.3798   74.0659  220.1443 H   0  0  0  0  0  0  0  0  0  0  0  0
  138.7180   75.3453  221.3518 H   0  0  0  0  0  0  0  0  0  0  0  0
  141.3921   76.0160  217.8106 H   0  0  0  0  0  0  0  0  0  0  0  0
  139.6770   75.7813  218.0715 H   0  0  0  0  0  0  0  0  0  0  0  0
  140.5312   78.0415  216.8199 H   0  0  0  0  0  0  0  0  0  0  0  0
  139.2407   78.2290  217.9819 H   0  0  0  0  0  0  0  0  0  0  0  0
  142.2839   78.6374  218.3861 H   0  0  0  0  0  0  0  0  0  0  0  0
  141.0231   79.7439  218.8712 H   0  0  0  0  0  0  0  0  0  0  0  0
  142.1433   77.9080  220.5482 H   0  0  0  0  0  0  0  0  0  0  0  0
  139.6218   79.2675  220.6122 H   0  0  0  0  0  0  0  0  0  0  0  0
  139.9156   77.8239  221.7256 H   0  0  0  0  0  0  0  0  0  0  0  0
  140.5487   81.3194  221.1000 H   0  0  0  0  0  0  0  0  0  0  0  0
  141.8067   82.7625  222.6461 H   0  0  0  0  0  0  0  0  0  0  0  0
  143.1307   81.7962  224.5139 H   0  0  0  0  0  0  0  0  0  0  0  0
  143.1532   79.3171  224.7972 H   0  0  0  0  0  0  0  0  0  0  0  0
  141.8978   77.8868  223.2566 H   0  0  0  0  0  0  0  0  0  0  0  0
  139.1477   69.8522  222.0827 H   0  0  0  0  0  0  0  0  0  0  0  0
  139.2058   68.2566  223.9674 H   0  0  0  0  0  0  0  0  0  0  0  0
  139.7590   67.8192  226.2364 H   0  0  0  0  0  0  0  0  0  0  0  0
  141.4970   70.9251  228.6080 H   0  0  0  0  0  0  0  0  0  0  0  0
  141.4279   72.5113  226.7061 H   0  0  0  0  0  0  0  0  0  0  0  0
  1  2  2  0
  2  3  1  0
  3  4  1  0
  4  5  1  0
  5  6  2  0
  5  7  1  0
  7  8  1  0
  8  9  1  0
  9 10  1  0
 10 11  1  0
 11 12  1  0
 12 13  1  0
 13 14  2  0
 14 15  1  0
 15 16  2  0
 16 17  1  0
 17 18  2  0
  2 19  1  0
 19 20  2  0
 20 21  1  0
 21 22  2  0
 22 23  1  0
 23 24  2  0
 24 25  1  0
 24 26  1  0
 26 27  2  0
 27 28  1  0
 28 29  2  0
 11  7  1  0
 18 13  1  0
 29 19  1  0
 28 22  1  0
  3 30  1  0
  4 31  1  0
  4 32  1  0
  8 33  1  0
  8 34  1  0
  9 35  1  0
  9 36  1  0
 10 37  1  0
 10 38  1  0
 11 39  1  1
 12 40  1  0
 12 41  1  0
 14 42  1  0
 15 43  1  0
 16 44  1  0
 17 45  1  0
 18 46  1  0
 20 47  1  0
 21 48  1  0
 23 49  1  0
 26 50  1  0
 27 51  1  0
M  END
>  <smiles>  (51) 
O=C(NCC(=O)N1CCCC1Cc1ccccc1)c1ccc2cc(Cl)ccc2n1

>  <score_type>  (51) 
oracle

>  <origin>  (51) 
autodockgpu

>  <m_score__min__energy>  (51) 
-8.9499999999999993

>  <m_primary>  (51) 
energy

>  <rmsd>  (51) 
1.4495602531809206

>  <m_score__min__rmsd>  (51) 
1.4495602531809206

>  <meeko>  (51) 
{"free_energy": -8.34, "intermolecular_energy": -10.13, "internal_energy": -1.4, "cluster_size": 35, "cluster_id": 1, "rank_in_cluster": 30}

>  <energy>  (51) 
-8.95

>  <cluster_rmsd>  (51) 
0.0

>  <cluster>  (51) 
1

$$$$

     RDKit          3D

 51 54  0  0  0  0  0  0  0  0999 V2000
  139.8010   72.0540  220.7790 O   0  0  0  0  0  0  0  0  0  0  0  0
  139.7270   72.5350  221.9630 C   0  0  0  0  0  0  0  0  0  0  0  0
  139.5260   73.9300  222.1830 N   0  0  0  0  0  0  0  0  0  0  0  0
  139.3820   74.8720  221.1190 C   0  0  0  0  0  0  0  0  0  0  0  0
  139.1960   76.2790  221.4180 C   0  0  0  0  0  0  0  0  0  0  0  0
  138.9100   76.5120  222.6710 O   0  0  0  0  0  0  0  0  0  0  0  0
  139.2710   77.4060  220.5720 N   0  0  0  0  0  0  0  0  0  0  0  0
  138.2510   78.4480  220.3380 C   0  0  0  0  0  0  0  0  0  0  0  0
  139.0770   79.6230  219.7930 C   0  0  0  0  0  0  0  0  0  0  0  0
  140.1460   78.9110  218.9530 C   0  0  0  0  0  0  0  0  0  0  0  0
  140.4450   77.7130  219.7710 C   0  0  1  0  0  0  0  0  0  0  0  0
  141.7300   77.7750  220.5160 C   0  0  0  0  0  0  0  0  0  0  0  0
  141.7810   78.7300  221.6400 C   0  0  0  0  0  0  0  0  0  0  0  0
  141.4630   78.3080  222.9390 C   0  0  0  0  0  0  0  0  0  0  0  0
  141.5010   79.1840  224.0100 C   0  0  0  0  0  0  0  0  0  0  0  0
  141.8500   80.5080  223.8480 C   0  0  0  0  0  0  0  0  0  0  0  0
  142.1640   80.9380  222.5770 C   0  0  0  0  0  0  0  0  0  0  0  0
  142.1240   80.0570  221.5160 C   0  0  0  0  0  0  0  0  0  0  0  0
  139.8570   71.6110  223.1100 C   0  0  0  0  0  0  0  0  0  0  0  0
  139.4550   70.3000  222.9760 C   0  0  0  0  0  0  0  0  0  0  0  0
  139.5370   69.3720  223.9860 C   0  0  0  0  0  0  0  0  0  0  0  0
  140.0570   69.8070  225.1930 C   0  0  0  0  0  0  0  0  0  0  0  0
  140.1500   68.8960  226.2200 C   0  0  0  0  0  0  0  0  0  0  0  0
  140.6680   69.3320  227.4200 C   0  0  0  0  0  0  0  0  0  0  0  0
  140.7810   68.1560  228.7250 Cl  0  0  0  0  0  0  0  0  0  0  0  0
  141.0660   70.6330  227.5500 C   0  0  0  0  0  0  0  0  0  0  0  0
  140.9760   71.5570  226.5220 C   0  0  0  0  0  0  0  0  0  0  0  0
  140.4530   71.1240  225.3010 C   0  0  0  0  0  0  0  0  0  0  0  0
  140.3520   72.0000  224.2780 N   0  0  0  0  0  0  0  0  0  0  0  0
  139.4940   74.2060  223.2140 H   0  0  0  0  0  0  0  0  0  0  0  0
  140.2893   74.7955  220.5018 H   0  0  0  0  0  0  0  0  0  0  0  0
  138.4284   74.5838  220.6526 H   0  0  0  0  0  0  0  0  0  0  0  0
  137.5056   78.1134  219.6015 H   0  0  0  0  0  0  0  0  0  0  0  0
  137.6768   78.7034  221.2408 H   0  0  0  0  0  0  0  0  0  0  0  0
  138.4603   80.2887  219.1713 H   0  0  0  0  0  0  0  0  0  0  0  0
  139.4938   80.2699  220.5790 H   0  0  0  0  0  0  0  0  0  0  0  0
  139.7539   78.6304  217.9643 H   0  0  0  0  0  0  0  0  0  0  0  0
  141.0288   79.5333  218.7447 H   0  0  0  0  0  0  0  0  0  0  0  0
  140.6384   76.8598  219.1042 H   0  0  0  0  0  0  0  0  0  0  0  0
  141.9350   76.7716  220.9174 H   0  0  0  0  0  0  0  0  0  0  0  0
  142.4764   78.1309  219.7906 H   0  0  0  0  0  0  0  0  0  0  0  0
  141.1776   77.2596  223.1103 H   0  0  0  0  0  0  0  0  0  0  0  0
  141.2467   78.8150  225.0146 H   0  0  0  0  0  0  0  0  0  0  0  0
  141.8769   81.1978  224.7044 H   0  0  0  0  0  0  0  0  0  0  0  0
  142.4475   81.9873  222.4078 H   0  0  0  0  0  0  0  0  0  0  0  0
  142.3804   80.4362  220.5158 H   0  0  0  0  0  0  0  0  0  0  0  0
  139.0458   69.9785  222.0069 H   0  0  0  0  0  0  0  0  0  0  0  0
  139.2053   68.3331  223.8423 H   0  0  0  0  0  0  0  0  0  0  0  0
  139.8218   67.8545  226.0874 H   0  0  0  0  0  0  0  0  0  0  0  0
  141.4769   70.9616  228.5160 H   0  0  0  0  0  0  0  0  0  0  0  0
  141.3054   72.5971  226.6623 H   0  0  0  0  0  0  0  0  0  0  0  0
  1  2  2  0
  2  3  1  0
  3  4  1  0
  4  5  1  0
  5  6  2  0
  5  7  1  0
  7  8  1  0
  8  9  1  0
  9 10  1  0
 10 11  1  0
 11 12  1  0
 12 13  1  0
 13 14  2  0
 14 15  1  0
 15 16  2  0
 16 17  1  0
 17 18  2  0
  2 19  1  0
 19 20  2  0
 20 21  1  0
 21 22  2  0
 22 23  1  0
 23 24  2  0
 24 25  1  0
 24 26  1  0
 26 27  2  0
 27 28  1  0
 28 29  2  0
 11  7  1  0
 18 13  1  0
 29 19  1  0
 28 22  1  0
  3 30  1  0
  4 31  1  0
  4 32  1  0
  8 33  1  0
  8 34  1  0
  9 35  1  0
  9 36  1  0
 10 37  1  0
 10 38  1  0
 11 39  1  6
 12 40  1  0
 12 41  1  0
 14 42  1  0
 15 43  1  0
 16 44  1  0
 17 45  1  0
 18 46  1  0
 20 47  1  0
 21 48  1  0
 23 49  1  0
 26 50  1  0
 27 51  1  0
M  END
>  <smiles>  (52) 
O=C(NCC(=O)N1CCCC1Cc1ccccc1)c1ccc2cc(Cl)ccc2n1

>  <score_type>  (52) 
oracle

>  <origin>  (52) 
autodockgpu

>  <m_score__min__energy>  (52) 
-8.9499999999999993

>  <m_primary>  (52) 
energy

>  <rmsd>  (52) 
2.139450543194832

>  <m_score__min__rmsd>  (52) 
2.139450543194832

>  <meeko>  (52) 
{"free_energy": -8.39, "intermolecular_energy": -10.18, "internal_energy": -1.97, "cluster_size": 35, "cluster_id": 1, "rank_in_cluster": 26}

>  <energy>  (52) 
-8.86

>  <cluster_rmsd>  (52) 
0.19

>  <cluster>  (52) 
1

$$$$

     RDKit          3D

 51 54  0  0  0  0  0  0  0  0999 V2000
  141.0020   72.5950  221.4310 O   0  0  0  0  0  0  0  0  0  0  0  0
  140.0960   72.6740  222.3310 C   0  0  0  0  0  0  0  0  0  0  0  0
  139.0610   73.6520  222.2540 N   0  0  0  0  0  0  0  0  0  0  0  0
  138.9530   74.5890  221.1810 C   0  0  0  0  0  0  0  0  0  0  0  0
  139.7500   75.8000  221.1940 C   0  0  0  0  0  0  0  0  0  0  0  0
  140.8490   75.6930  221.8930 O   0  0  0  0  0  0  0  0  0  0  0  0
  139.5150   77.0500  220.5820 N   0  0  0  0  0  0  0  0  0  0  0  0
  138.2940   77.8780  220.6260 C   0  0  0  0  0  0  0  0  0  0  0  0
  138.8140   79.2790  220.2670 C   0  0  0  0  0  0  0  0  0  0  0  0
  139.9050   78.9680  219.2330 C   0  0  0  0  0  0  0  0  0  0  0  0
  140.5160   77.7340  219.7780 C   0  0  1  0  0  0  0  0  0  0  0  0
  141.8370   77.9310  220.4320 C   0  0  0  0  0  0  0  0  0  0  0  0
  141.8540   78.8450  221.5900 C   0  0  0  0  0  0  0  0  0  0  0  0
  141.4960   78.3790  222.8630 C   0  0  0  0  0  0  0  0  0  0  0  0
  141.5020   79.2160  223.9660 C   0  0  0  0  0  0  0  0  0  0  0  0
  141.8600   80.5440  223.8620 C   0  0  0  0  0  0  0  0  0  0  0  0
  142.2150   81.0180  222.6170 C   0  0  0  0  0  0  0  0  0  0  0  0
  142.2050   80.1740  221.5250 C   0  0  0  0  0  0  0  0  0  0  0  0
  140.1420   71.7250  223.4640 C   0  0  0  0  0  0  0  0  0  0  0  0
  139.6940   70.4340  223.2890 C   0  0  0  0  0  0  0  0  0  0  0  0
  139.6980   69.4860  224.2830 C   0  0  0  0  0  0  0  0  0  0  0  0
  140.1860   69.8770  225.5170 C   0  0  0  0  0  0  0  0  0  0  0  0
  140.2010   68.9450  226.5290 C   0  0  0  0  0  0  0  0  0  0  0  0
  140.6860   69.3380  227.7570 C   0  0  0  0  0  0  0  0  0  0  0  0
  140.6990   68.1350  229.0420 Cl  0  0  0  0  0  0  0  0  0  0  0  0
  141.1310   70.6190  227.9290 C   0  0  0  0  0  0  0  0  0  0  0  0
  141.1200   71.5640  226.9160 C   0  0  0  0  0  0  0  0  0  0  0  0
  140.6290   71.1750  225.6670 C   0  0  0  0  0  0  0  0  0  0  0  0
  140.6040   72.0720  224.6580 N   0  0  0  0  0  0  0  0  0  0  0  0
  138.3730   73.6220  223.0710 H   0  0  0  0  0  0  0  0  0  0  0  0
  139.2126   74.0477  220.2592 H   0  0  0  0  0  0  0  0  0  0  0  0
  137.9227   74.9630  221.2742 H   0  0  0  0  0  0  0  0  0  0  0  0
  137.5538   77.5304  219.8903 H   0  0  0  0  0  0  0  0  0  0  0  0
  137.7803   77.8419  221.5980 H   0  0  0  0  0  0  0  0  0  0  0  0
  138.0175   79.8999  219.8311 H   0  0  0  0  0  0  0  0  0  0  0  0
  139.1787   79.8490  221.1342 H   0  0  0  0  0  0  0  0  0  0  0  0
  139.4714   78.7914  218.2376 H   0  0  0  0  0  0  0  0  0  0  0  0
  140.6234   79.7889  219.0911 H   0  0  0  0  0  0  0  0  0  0  0  0
  140.7992   77.0733  218.9454 H   0  0  0  0  0  0  0  0  0  0  0  0
  142.1937   76.9481  220.7735 H   0  0  0  0  0  0  0  0  0  0  0  0
  142.4775   78.4023  219.6720 H   0  0  0  0  0  0  0  0  0  0  0  0
  141.2041   77.3258  222.9882 H   0  0  0  0  0  0  0  0  0  0  0  0
  141.2146   78.8125  224.9481 H   0  0  0  0  0  0  0  0  0  0  0  0
  141.8622   81.2028  224.7429 H   0  0  0  0  0  0  0  0  0  0  0  0
  142.5069   82.0714  222.4937 H   0  0  0  0  0  0  0  0  0  0  0  0
  142.4940   80.5871  220.5473 H   0  0  0  0  0  0  0  0  0  0  0  0
  139.3119   70.1465  222.2984 H   0  0  0  0  0  0  0  0  0  0  0  0
  139.3306   68.4644  224.1062 H   0  0  0  0  0  0  0  0  0  0  0  0
  139.8378   67.9201  226.3630 H   0  0  0  0  0  0  0  0  0  0  0  0
  141.5154   70.9129  228.9169 H   0  0  0  0  0  0  0  0  0  0  0  0
  141.4857   72.5869  227.0892 H   0  0  0  0  0  0  0  0  0  0  0  0
  1  2  2  0
  2  3  1  0
  3  4  1  0
  4  5  1  0
  5  6  2  0
  5  7  1  0
  7  8  1  0
  8  9  1  0
  9 10  1  0
 10 11  1  0
 11 12  1  0
 12 13  1  0
 13 14  2  0
 14 15  1  0
 15 16  2  0
 16 17  1  0
 17 18  2  0
  2 19  1  0
 19 20  2  0
 20 21  1  0
 21 22  2  0
 22 23  1  0
 23 24  2  0
 24 25  1  0
 24 26  1  0
 26 27  2  0
 27 28  1  0
 28 29  2  0
 11  7  1  0
 18 13  1  0
 29 19  1  0
 28 22  1  0
  3 30  1  0
  4 31  1  0
  4 32  1  0
  8 33  1  0
  8 34  1  0
  9 35  1  0
  9 36  1  0
 10 37  1  0
 10 38  1  0
 11 39  1  6
 12 40  1  0
 12 41  1  0
 14 42  1  0
 15 43  1  0
 16 44  1  0
 17 45  1  0
 18 46  1  0
 20 47  1  0
 21 48  1  0
 23 49  1  0
 26 50  1  0
 27 51  1  0
M  END
>  <smiles>  (53) 
O=C(NCC(=O)N1CCCC1Cc1ccccc1)c1ccc2cc(Cl)ccc2n1

>  <score_type>  (53) 
oracle

>  <origin>  (53) 
autodockgpu

>  <m_score__min__energy>  (53) 
-8.9499999999999993

>  <m_primary>  (53) 
energy

>  <rmsd>  (53) 
2.075234050195946

>  <m_score__min__rmsd>  (53) 
2.075234050195946

>  <meeko>  (53) 
{"free_energy": -8.54, "intermolecular_energy": -10.33, "internal_energy": -1.39, "cluster_size": 35, "cluster_id": 1, "rank_in_cluster": 18}

>  <energy>  (53) 
-8.82

>  <cluster_rmsd>  (53) 
0.4

>  <cluster>  (53) 
1

$$$$

     RDKit          3D

 51 54  0  0  0  0  0  0  0  0999 V2000
  139.2710   71.7950  220.7190 O   0  0  0  0  0  0  0  0  0  0  0  0
  139.2000   72.3160  221.8860 C   0  0  0  0  0  0  0  0  0  0  0  0
  138.8760   73.6940  222.0620 N   0  0  0  0  0  0  0  0  0  0  0  0
  138.5990   74.5730  220.9700 C   0  0  0  0  0  0  0  0  0  0  0  0
  139.6240   74.8460  219.9810 C   0  0  0  0  0  0  0  0  0  0  0  0
  139.7540   73.8980  219.0910 O   0  0  0  0  0  0  0  0  0  0  0  0
  140.4850   75.9560  219.8470 N   0  0  0  0  0  0  0  0  0  0  0  0
  140.6580   76.8470  218.6820 C   0  0  0  0  0  0  0  0  0  0  0  0
  141.2710   78.1110  219.3030 C   0  0  0  0  0  0  0  0  0  0  0  0
  142.1760   77.5330  220.3990 C   0  0  0  0  0  0  0  0  0  0  0  0
  141.3680   76.4010  220.9120 C   0  0  1  0  0  0  0  0  0  0  0  0
  140.7150   76.6500  222.2240 C   0  0  0  0  0  0  0  0  0  0  0  0
  140.7350   78.0460  222.7030 C   0  0  0  0  0  0  0  0  0  0  0  0
  141.8330   78.5270  223.4290 C   0  0  0  0  0  0  0  0  0  0  0  0
  141.8770   79.8310  223.8910 C   0  0  0  0  0  0  0  0  0  0  0  0
  140.8430   80.7140  223.6590 C   0  0  0  0  0  0  0  0  0  0  0  0
  139.7560   80.2560  222.9450 C   0  0  0  0  0  0  0  0  0  0  0  0
  139.7230   78.9540  222.4900 C   0  0  0  0  0  0  0  0  0  0  0  0
  139.4630   71.4570  223.0610 C   0  0  0  0  0  0  0  0  0  0  0  0
  139.0980   70.1290  223.0280 C   0  0  0  0  0  0  0  0  0  0  0  0
  139.3030   69.2580  224.0710 C   0  0  0  0  0  0  0  0  0  0  0  0
  139.9120   69.7710  225.2030 C   0  0  0  0  0  0  0  0  0  0  0  0
  140.1290   68.9190  226.2600 C   0  0  0  0  0  0  0  0  0  0  0  0
  140.7350   69.4320  227.3860 C   0  0  0  0  0  0  0  0  0  0  0  0
  141.0050   68.3300  228.7310 Cl  0  0  0  0  0  0  0  0  0  0  0  0
  141.0970   70.7500  227.4150 C   0  0  0  0  0  0  0  0  0  0  0  0
  140.8830   71.6160  226.3560 C   0  0  0  0  0  0  0  0  0  0  0  0
  140.2690   71.1040  225.2100 C   0  0  0  0  0  0  0  0  0  0  0  0
  140.0460   71.9220  224.1590 N   0  0  0  0  0  0  0  0  0  0  0  0
  138.8590   74.0100  223.0820 H   0  0  0  0  0  0  0  0  0  0  0  0
  137.7412   74.1469  220.4290 H   0  0  0  0  0  0  0  0  0  0  0  0
  138.4545   75.5472  221.4599 H   0  0  0  0  0  0  0  0  0  0  0  0
  141.3374   76.4012  217.9406 H   0  0  0  0  0  0  0  0  0  0  0  0
  139.7201   77.0405  218.1408 H   0  0  0  0  0  0  0  0  0  0  0  0
  141.8549   78.6759  218.5614 H   0  0  0  0  0  0  0  0  0  0  0  0
  140.5224   78.8229  219.6808 H   0  0  0  0  0  0  0  0  0  0  0  0
  143.1322   77.1833  219.9826 H   0  0  0  0  0  0  0  0  0  0  0  0
  142.4514   78.2640  221.1735 H   0  0  0  0  0  0  0  0  0  0  0  0
  142.0369   75.5679  221.1737 H   0  0  0  0  0  0  0  0  0  0  0  0
  139.6635   76.3379  222.1410 H   0  0  0  0  0  0  0  0  0  0  0  0
  141.2987   76.0763  222.9590 H   0  0  0  0  0  0  0  0  0  0  0  0
  142.6779   77.8538  223.6361 H   0  0  0  0  0  0  0  0  0  0  0  0
  142.7571   80.1711  224.4564 H   0  0  0  0  0  0  0  0  0  0  0  0
  140.8842   81.7484  224.0309 H   0  0  0  0  0  0  0  0  0  0  0  0
  138.9125   80.9308  222.7375 H   0  0  0  0  0  0  0  0  0  0  0  0
  138.8387   78.6233  221.9256 H   0  0  0  0  0  0  0  0  0  0  0  0
  138.6161   69.7448  222.1169 H   0  0  0  0  0  0  0  0  0  0  0  0
  138.9975   68.2031  224.0091 H   0  0  0  0  0  0  0  0  0  0  0  0
  139.8286   67.8621  226.2084 H   0  0  0  0  0  0  0  0  0  0  0  0
  141.5810   71.1408  228.3222 H   0  0  0  0  0  0  0  0  0  0  0  0
  141.1862   72.6717  226.4149 H   0  0  0  0  0  0  0  0  0  0  0  0
  1  2  2  0
  2  3  1  0
  3  4  1  0
  4  5  1  0
  5  6  2  0
  5  7  1  0
  7  8  1  0
  8  9  1  0
  9 10  1  0
 10 11  1  0
 11 12  1  0
 12 13  1  0
 13 14  2  0
 14 15  1  0
 15 16  2  0
 16 17  1  0
 17 18  2  0
  2 19  1  0
 19 20  2  0
 20 21  1  0
 21 22  2  0
 22 23  1  0
 23 24  2  0
 24 25  1  0
 24 26  1  0
 26 27  2  0
 27 28  1  0
 28 29  2  0
 11  7  1  0
 18 13  1  0
 29 19  1  0
 28 22  1  0
  3 30  1  0
  4 31  1  0
  4 32  1  0
  8 33  1  0
  8 34  1  0
  9 35  1  0
  9 36  1  0
 10 37  1  0
 10 38  1  0
 11 39  1  1
 12 40  1  0
 12 41  1  0
 14 42  1  0
 15 43  1  0
 16 44  1  0
 17 45  1  0
 18 46  1  0
 20 47  1  0
 21 48  1  0
 23 49  1  0
 26 50  1  0
 27 51  1  0
M  END
>  <smiles>  (54) 
O=C(NCC(=O)N1CCCC1Cc1ccccc1)c1ccc2cc(Cl)ccc2n1

>  <score_type>  (54) 
oracle

>  <origin>  (54) 
autodockgpu

>  <m_score__min__energy>  (54) 
-8.9499999999999993

>  <m_primary>  (54) 
energy

>  <rmsd>  (54) 
1.7309740717823758

>  <m_score__min__rmsd>  (54) 
1.7309740717823758

>  <meeko>  (54) 
{"free_energy": -8.2, "intermolecular_energy": -9.99, "internal_energy": -1.5, "cluster_size": 35, "cluster_id": 1, "rank_in_cluster": 33}

>  <energy>  (54) 
-8.8

>  <cluster_rmsd>  (54) 
1.18

>  <cluster>  (54) 
1

$$$$

     RDKit          3D

 51 54  0  0  0  0  0  0  0  0999 V2000
  138.6050   71.5530  220.8870 O   0  0  0  0  0  0  0  0  0  0  0  0
  138.9040   72.1190  221.9950 C   0  0  0  0  0  0  0  0  0  0  0  0
  138.9100   73.5400  222.1220 N   0  0  0  0  0  0  0  0  0  0  0  0
  138.5760   74.4180  221.0460 C   0  0  0  0  0  0  0  0  0  0  0  0
  138.7600   75.8490  221.1950 C   0  0  0  0  0  0  0  0  0  0  0  0
  137.8470   76.4150  221.9390 O   0  0  0  0  0  0  0  0  0  0  0  0
  139.7520   76.6990  220.6620 N   0  0  0  0  0  0  0  0  0  0  0  0
  139.6780   77.5570  219.4630 C   0  0  0  0  0  0  0  0  0  0  0  0
  140.7860   78.5920  219.7100 C   0  0  0  0  0  0  0  0  0  0  0  0
  141.8670   77.7550  220.4080 C   0  0  0  0  0  0  0  0  0  0  0  0
  141.0640   76.8560  221.2690 C   0  0  1  0  0  0  0  0  0  0  0  0
  141.0630   77.2160  222.7120 C   0  0  0  0  0  0  0  0  0  0  0  0
  141.2730   78.6440  223.0220 C   0  0  0  0  0  0  0  0  0  0  0  0
  142.5720   79.1500  223.1660 C   0  0  0  0  0  0  0  0  0  0  0  0
  142.7970   80.4840  223.4590 C   0  0  0  0  0  0  0  0  0  0  0  0
  141.7550   81.3730  223.6220 C   0  0  0  0  0  0  0  0  0  0  0  0
  140.4710   80.8900  223.4840 C   0  0  0  0  0  0  0  0  0  0  0  0
  140.2590   79.5580  223.1920 C   0  0  0  0  0  0  0  0  0  0  0  0
  139.2470   71.2660  223.1540 C   0  0  0  0  0  0  0  0  0  0  0  0
  138.9390   69.9240  223.1250 C   0  0  0  0  0  0  0  0  0  0  0  0
  139.2190   69.0570  224.1540 C   0  0  0  0  0  0  0  0  0  0  0  0
  139.8470   69.5900  225.2660 C   0  0  0  0  0  0  0  0  0  0  0  0
  140.1380   68.7420  226.3100 C   0  0  0  0  0  0  0  0  0  0  0  0
  140.7620   69.2760  227.4160 C   0  0  0  0  0  0  0  0  0  0  0  0
  141.1290   68.1790  228.7430 Cl  0  0  0  0  0  0  0  0  0  0  0  0
  141.0680   70.6080  227.4420 C   0  0  0  0  0  0  0  0  0  0  0  0
  140.7780   71.4690  226.3960 C   0  0  0  0  0  0  0  0  0  0  0  0
  140.1450   70.9370  225.2700 C   0  0  0  0  0  0  0  0  0  0  0  0
  139.8490   71.7500  224.2330 N   0  0  0  0  0  0  0  0  0  0  0  0
  139.1860   73.8880  223.0930 H   0  0  0  0  0  0  0  0  0  0  0  0
  139.1830   74.1078  220.1827 H   0  0  0  0  0  0  0  0  0  0  0  0
  137.4846   74.3105  220.9609 H   0  0  0  0  0  0  0  0  0  0  0  0
  139.8751   76.9773  218.5492 H   0  0  0  0  0  0  0  0  0  0  0  0
  138.6867   78.0101  219.3146 H   0  0  0  0  0  0  0  0  0  0  0  0
  141.1569   79.0119  218.7634 H   0  0  0  0  0  0  0  0  0  0  0  0
  140.4539   79.4605  220.2978 H   0  0  0  0  0  0  0  0  0  0  0  0
  142.4604   77.1833  219.6793 H   0  0  0  0  0  0  0  0  0  0  0  0
  142.6001   78.3580  220.9639 H   0  0  0  0  0  0  0  0  0  0  0  0
  141.5453   75.8676  221.3069 H   0  0  0  0  0  0  0  0  0  0  0  0
  140.0906   76.9197  223.1323 H   0  0  0  0  0  0  0  0  0  0  0  0
  141.9223   76.6875  223.1505 H   0  0  0  0  0  0  0  0  0  0  0  0
  143.4304   78.4731  223.0437 H   0  0  0  0  0  0  0  0  0  0  0  0
  143.8312   80.8437  223.5643 H   0  0  0  0  0  0  0  0  0  0  0  0
  141.9422   82.4318  223.8543 H   0  0  0  0  0  0  0  0  0  0  0  0
  139.6135   81.5680  223.6069 H   0  0  0  0  0  0  0  0  0  0  0  0
  139.2214   79.2076  223.0895 H   0  0  0  0  0  0  0  0  0  0  0  0
  138.4416   69.5241  222.2291 H   0  0  0  0  0  0  0  0  0  0  0  0
  138.9564   67.9903  224.0964 H   0  0  0  0  0  0  0  0  0  0  0  0
  139.8810   67.6735  226.2630 H   0  0  0  0  0  0  0  0  0  0  0  0
  141.5671   71.0147  228.3339 H   0  0  0  0  0  0  0  0  0  0  0  0
  141.0377   72.5365  226.4504 H   0  0  0  0  0  0  0  0  0  0  0  0
  1  2  2  0
  2  3  1  0
  3  4  1  0
  4  5  1  0
  5  6  2  0
  5  7  1  0
  7  8  1  0
  8  9  1  0
  9 10  1  0
 10 11  1  0
 11 12  1  0
 12 13  1  0
 13 14  2  0
 14 15  1  0
 15 16  2  0
 16 17  1  0
 17 18  2  0
  2 19  1  0
 19 20  2  0
 20 21  1  0
 21 22  2  0
 22 23  1  0
 23 24  2  0
 24 25  1  0
 24 26  1  0
 26 27  2  0
 27 28  1  0
 28 29  2  0
 11  7  1  0
 18 13  1  0
 29 19  1  0
 28 22  1  0
  3 30  1  0
  4 31  1  0
  4 32  1  0
  8 33  1  0
  8 34  1  0
  9 35  1  0
  9 36  1  0
 10 37  1  0
 10 38  1  0
 11 39  1  1
 12 40  1  0
 12 41  1  0
 14 42  1  0
 15 43  1  0
 16 44  1  0
 17 45  1  0
 18 46  1  0
 20 47  1  0
 21 48  1  0
 23 49  1  0
 26 50  1  0
 27 51  1  0
M  END
>  <smiles>  (55) 
O=C(NCC(=O)N1CCCC1Cc1ccccc1)c1ccc2cc(Cl)ccc2n1

>  <score_type>  (55) 
oracle

>  <origin>  (55) 
autodockgpu

>  <m_score__min__energy>  (55) 
-8.9499999999999993

>  <m_primary>  (55) 
energy

>  <rmsd>  (55) 
1.7203607537885681

>  <m_score__min__rmsd>  (55) 
1.7203607537885681

>  <meeko>  (55) 
{"free_energy": -8.76, "intermolecular_energy": -10.55, "internal_energy": -1.59, "cluster_size": 35, "cluster_id": 1, "rank_in_cluster": 7}

>  <energy>  (55) 
-8.76

>  <cluster_rmsd>  (55) 
0.44

>  <cluster>  (55) 
1

$$$$

     RDKit          3D

 51 54  0  0  0  0  0  0  0  0999 V2000
  140.2290   72.2570  220.7130 O   0  0  0  0  0  0  0  0  0  0  0  0
  140.0100   72.7420  221.8770 C   0  0  0  0  0  0  0  0  0  0  0  0
  139.7340   74.1290  222.0610 N   0  0  0  0  0  0  0  0  0  0  0  0
  139.6700   75.0590  220.9790 C   0  0  0  0  0  0  0  0  0  0  0  0
  140.6140   76.1580  220.9110 C   0  0  0  0  0  0  0  0  0  0  0  0
  141.0520   76.5410  222.0810 O   0  0  0  0  0  0  0  0  0  0  0  0
  141.1130   76.8610  219.7930 N   0  0  0  0  0  0  0  0  0  0  0  0
  140.6200   78.1240  219.2090 C   0  0  0  0  0  0  0  0  0  0  0  0
  141.8350   78.6360  218.4200 C   0  0  0  0  0  0  0  0  0  0  0  0
  142.4520   77.3350  217.8870 C   0  0  0  0  0  0  0  0  0  0  0  0
  142.2600   76.4050  219.0240 C   0  0  1  0  0  0  0  0  0  0  0  0
  143.4890   76.1250  219.8120 C   0  0  0  0  0  0  0  0  0  0  0  0
  143.7860   74.7010  220.0630 C   0  0  0  0  0  0  0  0  0  0  0  0
  145.0610   74.3120  220.4950 C   0  0  0  0  0  0  0  0  0  0  0  0
  145.3660   72.9830  220.7360 C   0  0  0  0  0  0  0  0  0  0  0  0
  144.4310   71.9840  220.5610 C   0  0  0  0  0  0  0  0  0  0  0  0
  143.1720   72.3520  220.1370 C   0  0  0  0  0  0  0  0  0  0  0  0
  142.8790   73.6790  219.9000 C   0  0  0  0  0  0  0  0  0  0  0  0
  140.0490   71.8290  223.0410 C   0  0  0  0  0  0  0  0  0  0  0  0
  139.5630   70.5460  222.9160 C   0  0  0  0  0  0  0  0  0  0  0  0
  139.5590   69.6310  223.9410 C   0  0  0  0  0  0  0  0  0  0  0  0
  140.0770   70.0500  225.1540 C   0  0  0  0  0  0  0  0  0  0  0  0
  140.0840   69.1520  226.1960 C   0  0  0  0  0  0  0  0  0  0  0  0
  140.6000   69.5710  227.4020 C   0  0  0  0  0  0  0  0  0  0  0  0
  140.6020   68.4120  228.7260 Cl  0  0  0  0  0  0  0  0  0  0  0  0
  141.0820   70.8450  227.5240 C   0  0  0  0  0  0  0  0  0  0  0  0
  141.0790   71.7560  226.4810 C   0  0  0  0  0  0  0  0  0  0  0  0
  140.5570   71.3390  225.2530 C   0  0  0  0  0  0  0  0  0  0  0  0
  140.5400   72.2030  224.2150 N   0  0  0  0  0  0  0  0  0  0  0  0
  139.5800   74.4100  223.0800 H   0  0  0  0  0  0  0  0  0  0  0  0
  139.7919   74.4778  220.0530 H   0  0  0  0  0  0  0  0  0  0  0  0
  138.7052   75.5636  221.1358 H   0  0  0  0  0  0  0  0  0  0  0  0
  139.7632   77.9440  218.5431 H   0  0  0  0  0  0  0  0  0  0  0  0
  140.2595   78.8392  219.9630 H   0  0  0  0  0  0  0  0  0  0  0  0
  141.5256   79.2965  217.5966 H   0  0  0  0  0  0  0  0  0  0  0  0
  142.5302   79.2377  219.0239 H   0  0  0  0  0  0  0  0  0  0  0  0
  141.9229   76.9816  216.9897 H   0  0  0  0  0  0  0  0  0  0  0  0
  143.5021   77.4404  217.5769 H   0  0  0  0  0  0  0  0  0  0  0  0
  142.0363   75.4005  218.6353 H   0  0  0  0  0  0  0  0  0  0  0  0
  144.3427   76.5562  219.2687 H   0  0  0  0  0  0  0  0  0  0  0  0
  143.3144   76.5707  220.8024 H   0  0  0  0  0  0  0  0  0  0  0  0
  145.8356   75.0783  220.6458 H   0  0  0  0  0  0  0  0  0  0  0  0
  146.3782   72.7175  221.0751 H   0  0  0  0  0  0  0  0  0  0  0  0
  144.6814   70.9302  220.7531 H   0  0  0  0  0  0  0  0  0  0  0  0
  142.3982   71.5847  219.9871 H   0  0  0  0  0  0  0  0  0  0  0  0
  141.8639   73.9344  219.5619 H   0  0  0  0  0  0  0  0  0  0  0  0
  139.1557   70.2371  221.9420 H   0  0  0  0  0  0  0  0  0  0  0  0
  139.1630   68.6139  223.8040 H   0  0  0  0  0  0  0  0  0  0  0  0
  139.6903   68.1326  226.0700 H   0  0  0  0  0  0  0  0  0  0  0  0
  141.4908   71.1606  228.4952 H   0  0  0  0  0  0  0  0  0  0  0  0
  141.4742   72.7739  226.6143 H   0  0  0  0  0  0  0  0  0  0  0  0
  1  2  2  0
  2  3  1  0
  3  4  1  0
  4  5  1  0
  5  6  2  0
  5  7  1  0
  7  8  1  0
  8  9  1  0
  9 10  1  0
 10 11  1  0
 11 12  1  0
 12 13  1  0
 13 14  2  0
 14 15  1  0
 15 16  2  0
 16 17  1  0
 17 18  2  0
  2 19  1  0
 19 20  2  0
 20 21  1  0
 21 22  2  0
 22 23  1  0
 23 24  2  0
 24 25  1  0
 24 26  1  0
 26 27  2  0
 27 28  1  0
 28 29  2  0
 11  7  1  0
 18 13  1  0
 29 19  1  0
 28 22  1  0
  3 30  1  0
  4 31  1  0
  4 32  1  0
  8 33  1  0
  8 34  1  0
  9 35  1  0
  9 36  1  0
 10 37  1  0
 10 38  1  0
 11 39  1  6
 12 40  1  0
 12 41  1  0
 14 42  1  0
 15 43  1  0
 16 44  1  0
 17 45  1  0
 18 46  1  0
 20 47  1  0
 21 48  1  0
 23 49  1  0
 26 50  1  0
 27 51  1  0
M  END
>  <smiles>  (56) 
O=C(NCC(=O)N1CCCC1Cc1ccccc1)c1ccc2cc(Cl)ccc2n1

>  <score_type>  (56) 
oracle

>  <origin>  (56) 
autodockgpu

>  <m_score__min__energy>  (56) 
-8.9499999999999993

>  <m_primary>  (56) 
energy

>  <rmsd>  (56) 
2.0669995099048277

>  <m_score__min__rmsd>  (56) 
2.0669995099048277

>  <meeko>  (56) 
{"free_energy": -8.25, "intermolecular_energy": -10.04, "internal_energy": -2.02, "cluster_size": 6, "cluster_id": 4, "rank_in_cluster": 2}

>  <energy>  (56) 
-8.76

>  <cluster_rmsd>  (56) 
0.83

>  <cluster>  (56) 
1

$$$$

     RDKit          3D

 51 54  0  0  0  0  0  0  0  0999 V2000
  139.5830   76.1960  219.6480 O   0  0  0  0  0  0  0  0  0  0  0  0
  140.2840   75.6410  220.5630 C   0  0  0  0  0  0  0  0  0  0  0  0
  141.5750   76.1390  220.9110 N   0  0  0  0  0  0  0  0  0  0  0  0
  142.1620   77.2820  220.2850 C   0  0  0  0  0  0  0  0  0  0  0  0
  141.5520   78.5880  220.4420 C   0  0  0  0  0  0  0  0  0  0  0  0
  140.5660   78.8050  219.6120 O   0  0  0  0  0  0  0  0  0  0  0  0
  141.8630   79.6350  221.3360 N   0  0  0  0  0  0  0  0  0  0  0  0
  141.7990   81.0910  221.1000 C   0  0  0  0  0  0  0  0  0  0  0  0
  141.7160   81.6670  222.5220 C   0  0  0  0  0  0  0  0  0  0  0  0
  142.6180   80.7120  223.3160 C   0  0  0  0  0  0  0  0  0  0  0  0
  142.3110   79.4010  222.6990 C   0  0  1  0  0  0  0  0  0  0  0  0
  141.4370   78.5190  223.5170 C   0  0  0  0  0  0  0  0  0  0  0  0
  139.9840   78.7380  223.3770 C   0  0  0  0  0  0  0  0  0  0  0  0
  139.1870   77.7860  222.7270 C   0  0  0  0  0  0  0  0  0  0  0  0
  137.8220   77.9670  222.5810 C   0  0  0  0  0  0  0  0  0  0  0  0
  137.1870   79.0920  223.0640 C   0  0  0  0  0  0  0  0  0  0  0  0
  137.9580   80.0380  223.7060 C   0  0  0  0  0  0  0  0  0  0  0  0
  139.3170   79.8460  223.8460 C   0  0  0  0  0  0  0  0  0  0  0  0
  139.7290   74.4600  221.2600 C   0  0  0  0  0  0  0  0  0  0  0  0
  138.4160   74.1020  221.0500 C   0  0  0  0  0  0  0  0  0  0  0  0
  137.8160   73.0230  221.6530 C   0  0  0  0  0  0  0  0  0  0  0  0
  138.5990   72.2740  222.5130 C   0  0  0  0  0  0  0  0  0  0  0  0
  138.0210   71.1880  223.1300 C   0  0  0  0  0  0  0  0  0  0  0  0
  138.8020   70.4440  223.9860 C   0  0  0  0  0  0  0  0  0  0  0  0
  138.0500   69.0580  224.7670 Cl  0  0  0  0  0  0  0  0  0  0  0  0
  140.1060   70.8020  224.1930 C   0  0  0  0  0  0  0  0  0  0  0  0
  140.6960   71.8920  223.5770 C   0  0  0  0  0  0  0  0  0  0  0  0
  139.9110   72.6530  222.7070 C   0  0  0  0  0  0  0  0  0  0  0  0
  140.4560   73.7240  222.0900 N   0  0  0  0  0  0  0  0  0  0  0  0
  142.0620   75.5830  221.6810 H   0  0  0  0  0  0  0  0  0  0  0  0
  143.1890   77.3628  220.6707 H   0  0  0  0  0  0  0  0  0  0  0  0
  142.0397   77.0732  219.2119 H   0  0  0  0  0  0  0  0  0  0  0  0
  142.7008   81.4476  220.5808 H   0  0  0  0  0  0  0  0  0  0  0  0
  140.9554   81.3903  220.4606 H   0  0  0  0  0  0  0  0  0  0  0  0
  142.0987   82.6977  222.5571 H   0  0  0  0  0  0  0  0  0  0  0  0
  140.6895   81.7293  222.9124 H   0  0  0  0  0  0  0  0  0  0  0  0
  143.6797   80.9716  223.1921 H   0  0  0  0  0  0  0  0  0  0  0  0
  142.4414   80.7399  224.4014 H   0  0  0  0  0  0  0  0  0  0  0  0
  143.2295   78.7969  222.6602 H   0  0  0  0  0  0  0  0  0  0  0  0
  141.6493   77.4778  223.2329 H   0  0  0  0  0  0  0  0  0  0  0  0
  141.6731   78.7568  224.5647 H   0  0  0  0  0  0  0  0  0  0  0  0
  139.6556   76.8759  222.3244 H   0  0  0  0  0  0  0  0  0  0  0  0
  137.2300   77.1951  222.0675 H   0  0  0  0  0  0  0  0  0  0  0  0
  136.1026   79.2299  222.9413 H   0  0  0  0  0  0  0  0  0  0  0  0
  137.4883   80.9480  224.1075 H   0  0  0  0  0  0  0  0  0  0  0  0
  139.9003   80.6229  224.3619 H   0  0  0  0  0  0  0  0  0  0  0  0
  137.8143   74.7136  220.3615 H   0  0  0  0  0  0  0  0  0  0  0  0
  136.7635   72.7670  221.4611 H   0  0  0  0  0  0  0  0  0  0  0  0
  136.9695   70.9230  222.9454 H   0  0  0  0  0  0  0  0  0  0  0  0
  140.7137   70.1956  224.8807 H   0  0  0  0  0  0  0  0  0  0  0  0
  141.7483   72.1507  223.7661 H   0  0  0  0  0  0  0  0  0  0  0  0
  1  2  2  0
  2  3  1  0
  3  4  1  0
  4  5  1  0
  5  6  2  0
  5  7  1  0
  7  8  1  0
  8  9  1  0
  9 10  1  0
 10 11  1  0
 11 12  1  0
 12 13  1  0
 13 14  2  0
 14 15  1  0
 15 16  2  0
 16 17  1  0
 17 18  2  0
  2 19  1  0
 19 20  2  0
 20 21  1  0
 21 22  2  0
 22 23  1  0
 23 24  2  0
 24 25  1  0
 24 26  1  0
 26 27  2  0
 27 28  1  0
 28 29  2  0
 11  7  1  0
 18 13  1  0
 29 19  1  0
 28 22  1  0
  3 30  1  0
  4 31  1  0
  4 32  1  0
  8 33  1  0
  8 34  1  0
  9 35  1  0
  9 36  1  0
 10 37  1  0
 10 38  1  0
 11 39  1  6
 12 40  1  0
 12 41  1  0
 14 42  1  0
 15 43  1  0
 16 44  1  0
 17 45  1  0
 18 46  1  0
 20 47  1  0
 21 48  1  0
 23 49  1  0
 26 50  1  0
 27 51  1  0
M  END
>  <smiles>  (57) 
O=C(NCC(=O)N1CCCC1Cc1ccccc1)c1ccc2cc(Cl)ccc2n1

>  <score_type>  (57) 
oracle

>  <origin>  (57) 
autodockgpu

>  <m_score__min__energy>  (57) 
-8.9499999999999993

>  <m_primary>  (57) 
energy

>  <rmsd>  (57) 
5.475473271323718

>  <m_score__min__rmsd>  (57) 
5.475473271323718

>  <meeko>  (57) 
{"free_energy": -7.13, "intermolecular_energy": -8.92, "internal_energy": -2.39, "cluster_size": 1, "cluster_id": 5, "rank_in_cluster": 1}

>  <energy>  (57) 
-8.76

>  <cluster_rmsd>  (57) 
0.52

>  <cluster>  (57) 
1

$$$$

     RDKit          3D

 51 54  0  0  0  0  0  0  0  0999 V2000
  141.0310   72.4840  221.2980 O   0  0  0  0  0  0  0  0  0  0  0  0
  140.1750   72.6370  222.2370 C   0  0  0  0  0  0  0  0  0  0  0  0
  139.2120   73.6890  222.1960 N   0  0  0  0  0  0  0  0  0  0  0  0
  139.1260   74.6220  221.1180 C   0  0  0  0  0  0  0  0  0  0  0  0
  139.6480   75.9660  221.2790 C   0  0  0  0  0  0  0  0  0  0  0  0
  140.9460   76.0390  221.1460 O   0  0  0  0  0  0  0  0  0  0  0  0
  138.9760   77.1750  221.5590 N   0  0  0  0  0  0  0  0  0  0  0  0
  138.0510   77.4750  222.6700 C   0  0  0  0  0  0  0  0  0  0  0  0
  138.0940   79.0090  222.7490 C   0  0  0  0  0  0  0  0  0  0  0  0
  138.2180   79.4100  221.2720 C   0  0  0  0  0  0  0  0  0  0  0  0
  139.1210   78.3650  220.7360 C   0  0  1  0  0  0  0  0  0  0  0  0
  140.5180   78.8130  220.4990 C   0  0  0  0  0  0  0  0  0  0  0  0
  141.2100   79.4140  221.6560 C   0  0  0  0  0  0  0  0  0  0  0  0
  141.5520   78.6230  222.7610 C   0  0  0  0  0  0  0  0  0  0  0  0
  142.2000   79.1620  223.8600 C   0  0  0  0  0  0  0  0  0  0  0  0
  142.5340   80.4990  223.9170 C   0  0  0  0  0  0  0  0  0  0  0  0
  142.2030   81.2900  222.8370 C   0  0  0  0  0  0  0  0  0  0  0  0
  141.5590   80.7420  221.7470 C   0  0  0  0  0  0  0  0  0  0  0  0
  140.2020   71.6960  223.3780 C   0  0  0  0  0  0  0  0  0  0  0  0
  139.7430   70.4080  223.2070 C   0  0  0  0  0  0  0  0  0  0  0  0
  139.7300   69.4660  224.2080 C   0  0  0  0  0  0  0  0  0  0  0  0
  140.2090   69.8630  225.4440 C   0  0  0  0  0  0  0  0  0  0  0  0
  140.2060   68.9380  226.4630 C   0  0  0  0  0  0  0  0  0  0  0  0
  140.6840   69.3350  227.6920 C   0  0  0  0  0  0  0  0  0  0  0  0
  140.6740   68.1420  228.9860 Cl  0  0  0  0  0  0  0  0  0  0  0  0
  141.1380   70.6140  227.8590 C   0  0  0  0  0  0  0  0  0  0  0  0
  141.1450   71.5510  226.8400 C   0  0  0  0  0  0  0  0  0  0  0  0
  140.6630   71.1570  225.5890 C   0  0  0  0  0  0  0  0  0  0  0  0
  140.6560   72.0480  224.5740 N   0  0  0  0  0  0  0  0  0  0  0  0
  138.5620   73.7160  223.0420 H   0  0  0  0  0  0  0  0  0  0  0  0
  139.6595   74.1739  220.2668 H   0  0  0  0  0  0  0  0  0  0  0  0
  138.0434   74.7825  221.0081 H   0  0  0  0  0  0  0  0  0  0  0  0
  137.0347   77.1188  222.4458 H   0  0  0  0  0  0  0  0  0  0  0  0
  138.3318   76.9838  223.6133 H   0  0  0  0  0  0  0  0  0  0  0  0
  137.1721   79.4108  223.1947 H   0  0  0  0  0  0  0  0  0  0  0  0
  138.9085   79.3947  223.3797 H   0  0  0  0  0  0  0  0  0  0  0  0
  137.2397   79.3872  220.7695 H   0  0  0  0  0  0  0  0  0  0  0  0
  138.5919   80.4338  221.1234 H   0  0  0  0  0  0  0  0  0  0  0  0
  138.8129   78.1134  219.7104 H   0  0  0  0  0  0  0  0  0  0  0  0
  141.1014   77.9386  220.1749 H   0  0  0  0  0  0  0  0  0  0  0  0
  140.4494   79.6124  219.7465 H   0  0  0  0  0  0  0  0  0  0  0  0
  141.3007   77.5521  222.7554 H   0  0  0  0  0  0  0  0  0  0  0  0
  142.4543   78.5084  224.7074 H   0  0  0  0  0  0  0  0  0  0  0  0
  143.0470   80.9201  224.7942 H   0  0  0  0  0  0  0  0  0  0  0  0
  142.4532   82.3611  222.8447 H   0  0  0  0  0  0  0  0  0  0  0  0
  141.3107   81.4033  220.9038 H   0  0  0  0  0  0  0  0  0  0  0  0
  139.3664   70.1177  222.2151 H   0  0  0  0  0  0  0  0  0  0  0  0
  139.3568   68.4458  224.0348 H   0  0  0  0  0  0  0  0  0  0  0  0
  139.8341   67.9155  226.3012 H   0  0  0  0  0  0  0  0  0  0  0  0
  141.5150   70.9120  228.8485 H   0  0  0  0  0  0  0  0  0  0  0  0
  141.5177   72.5720  227.0095 H   0  0  0  0  0  0  0  0  0  0  0  0
  1  2  2  0
  2  3  1  0
  3  4  1  0
  4  5  1  0
  5  6  2  0
  5  7  1  0
  7  8  1  0
  8  9  1  0
  9 10  1  0
 10 11  1  0
 11 12  1  0
 12 13  1  0
 13 14  2  0
 14 15  1  0
 15 16  2  0
 16 17  1  0
 17 18  2  0
  2 19  1  0
 19 20  2  0
 20 21  1  0
 21 22  2  0
 22 23  1  0
 23 24  2  0
 24 25  1  0
 24 26  1  0
 26 27  2  0
 27 28  1  0
 28 29  2  0
 11  7  1  0
 18 13  1  0
 29 19  1  0
 28 22  1  0
  3 30  1  0
  4 31  1  0
  4 32  1  0
  8 33  1  0
  8 34  1  0
  9 35  1  0
  9 36  1  0
 10 37  1  0
 10 38  1  0
 11 39  1  6
 12 40  1  0
 12 41  1  0
 14 42  1  0
 15 43  1  0
 16 44  1  0
 17 45  1  0
 18 46  1  0
 20 47  1  0
 21 48  1  0
 23 49  1  0
 26 50  1  0
 27 51  1  0
M  END
>  <smiles>  (58) 
O=C(NCC(=O)N1CCCC1Cc1ccccc1)c1ccc2cc(Cl)ccc2n1

>  <score_type>  (58) 
oracle

>  <origin>  (58) 
autodockgpu

>  <m_score__min__energy>  (58) 
-8.9499999999999993

>  <m_primary>  (58) 
energy

>  <rmsd>  (58) 
2.9652006133146585

>  <m_score__min__rmsd>  (58) 
2.9652006133146585

>  <meeko>  (58) 
{"free_energy": -8.54, "intermolecular_energy": -10.33, "internal_energy": -1.38, "cluster_size": 35, "cluster_id": 1, "rank_in_cluster": 16}

>  <energy>  (58) 
-8.75

>  <cluster_rmsd>  (58) 
0.71

>  <cluster>  (58) 
1

$$$$

     RDKit          3D

 51 54  0  0  0  0  0  0  0  0999 V2000
  138.9100   72.3250  221.0040 O   0  0  0  0  0  0  0  0  0  0  0  0
  138.4720   73.2090  221.8200 C   0  0  0  0  0  0  0  0  0  0  0  0
  137.2930   72.9840  222.5900 N   0  0  0  0  0  0  0  0  0  0  0  0
  136.5360   71.7740  222.5180 C   0  0  0  0  0  0  0  0  0  0  0  0
  136.7280   70.7400  223.5160 C   0  0  0  0  0  0  0  0  0  0  0  0
  136.0550   70.9470  224.6160 O   0  0  0  0  0  0  0  0  0  0  0  0
  137.5210   69.5730  223.4750 N   0  0  0  0  0  0  0  0  0  0  0  0
  137.4100   68.4200  222.5600 C   0  0  0  0  0  0  0  0  0  0  0  0
  138.8060   67.7820  222.6390 C   0  0  0  0  0  0  0  0  0  0  0  0
  139.1800   67.9940  224.1130 C   0  0  0  0  0  0  0  0  0  0  0  0
  138.6280   69.3410  224.3880 C   0  0  1  0  0  0  0  0  0  0  0  0
  139.6440   70.4260  224.4510 C   0  0  0  0  0  0  0  0  0  0  0  0
  140.1300   70.7790  225.7990 C   0  0  0  0  0  0  0  0  0  0  0  0
  140.9830   71.8770  225.9760 C   0  0  0  0  0  0  0  0  0  0  0  0
  141.4550   72.2280  227.2300 C   0  0  0  0  0  0  0  0  0  0  0  0
  141.1090   71.5140  228.3580 C   0  0  0  0  0  0  0  0  0  0  0  0
  140.2700   70.4310  228.2000 C   0  0  0  0  0  0  0  0  0  0  0  0
  139.8060   70.0910  226.9460 C   0  0  0  0  0  0  0  0  0  0  0  0
  139.2170   74.4800  221.9510 C   0  0  0  0  0  0  0  0  0  0  0  0
  140.5430   74.5320  221.5830 C   0  0  0  0  0  0  0  0  0  0  0  0
  141.3130   75.6670  221.6710 C   0  0  0  0  0  0  0  0  0  0  0  0
  140.6940   76.8050  222.1580 C   0  0  0  0  0  0  0  0  0  0  0  0
  141.4430   77.9550  222.2550 C   0  0  0  0  0  0  0  0  0  0  0  0
  140.8250   79.0850  222.7410 C   0  0  0  0  0  0  0  0  0  0  0  0
  141.7950   80.5490  222.8600 Cl  0  0  0  0  0  0  0  0  0  0  0  0
  139.5080   79.0310  223.1050 C   0  0  0  0  0  0  0  0  0  0  0  0
  138.7460   77.8790  223.0110 C   0  0  0  0  0  0  0  0  0  0  0  0
  139.3650   76.7260  222.5190 C   0  0  0  0  0  0  0  0  0  0  0  0
  138.6490   75.5860  222.4150 N   0  0  0  0  0  0  0  0  0  0  0  0
  137.0260   73.8000  223.2240 H   0  0  0  0  0  0  0  0  0  0  0  0
  135.4746   72.0603  222.5571 H   0  0  0  0  0  0  0  0  0  0  0  0
  136.8980   71.3031  221.5922 H   0  0  0  0  0  0  0  0  0  0  0  0
  136.6345   67.7181  222.9004 H   0  0  0  0  0  0  0  0  0  0  0  0
  137.1197   68.7037  221.5376 H   0  0  0  0  0  0  0  0  0  0  0  0
  138.7697   66.7118  222.3872 H   0  0  0  0  0  0  0  0  0  0  0  0
  139.5296   68.2173  221.9341 H   0  0  0  0  0  0  0  0  0  0  0  0
  138.7131   67.2333  224.7559 H   0  0  0  0  0  0  0  0  0  0  0  0
  140.2591   67.9115  224.3100 H   0  0  0  0  0  0  0  0  0  0  0  0
  138.2365   69.3681  225.4156 H   0  0  0  0  0  0  0  0  0  0  0  0
  140.5112   70.1103  223.8524 H   0  0  0  0  0  0  0  0  0  0  0  0
  139.1398   71.3271  224.0719 H   0  0  0  0  0  0  0  0  0  0  0  0
  141.2837   72.4721  225.1011 H   0  0  0  0  0  0  0  0  0  0  0  0
  142.1219   73.0972  227.3285 H   0  0  0  0  0  0  0  0  0  0  0  0
  141.4893   71.7987  229.3501 H   0  0  0  0  0  0  0  0  0  0  0  0
  139.9700   69.8369  229.0758 H   0  0  0  0  0  0  0  0  0  0  0  0
  139.1392   69.2206  226.8580 H   0  0  0  0  0  0  0  0  0  0  0  0
  141.0117   73.6146  221.1974 H   0  0  0  0  0  0  0  0  0  0  0  0
  142.3707   75.6707  221.3688 H   0  0  0  0  0  0  0  0  0  0  0  0
  142.5009   77.9710  221.9541 H   0  0  0  0  0  0  0  0  0  0  0  0
  139.0322   79.9449  223.4902 H   0  0  0  0  0  0  0  0  0  0  0  0
  137.6884   77.8711  223.3134 H   0  0  0  0  0  0  0  0  0  0  0  0
  1  2  2  0
  2  3  1  0
  3  4  1  0
  4  5  1  0
  5  6  2  0
  5  7  1  0
  7  8  1  0
  8  9  1  0
  9 10  1  0
 10 11  1  0
 11 12  1  0
 12 13  1  0
 13 14  2  0
 14 15  1  0
 15 16  2  0
 16 17  1  0
 17 18  2  0
  2 19  1  0
 19 20  2  0
 20 21  1  0
 21 22  2  0
 22 23  1  0
 23 24  2  0
 24 25  1  0
 24 26  1  0
 26 27  2  0
 27 28  1  0
 28 29  2  0
 11  7  1  0
 18 13  1  0
 29 19  1  0
 28 22  1  0
  3 30  1  0
  4 31  1  0
  4 32  1  0
  8 33  1  0
  8 34  1  0
  9 35  1  0
  9 36  1  0
 10 37  1  0
 10 38  1  0
 11 39  1  1
 12 40  1  0
 12 41  1  0
 14 42  1  0
 15 43  1  0
 16 44  1  0
 17 45  1  0
 18 46  1  0
 20 47  1  0
 21 48  1  0
 23 49  1  0
 26 50  1  0
 27 51  1  0
M  END
>  <smiles>  (59) 
O=C(NCC(=O)N1CCCC1Cc1ccccc1)c1ccc2cc(Cl)ccc2n1

>  <score_type>  (59) 
oracle

>  <origin>  (59) 
autodockgpu

>  <m_score__min__energy>  (59) 
-8.9499999999999993

>  <m_primary>  (59) 
energy

>  <rmsd>  (59) 
7.934035240237131

>  <m_score__min__rmsd>  (59) 
7.934035240237131

>  <meeko>  (59) 
{"free_energy": -8.16, "intermolecular_energy": -9.95, "internal_energy": -1.82, "cluster_size": 3, "cluster_id": 3, "rank_in_cluster": 2}

>  <energy>  (59) 
-8.73

>  <cluster_rmsd>  (59) 
0.43

>  <cluster>  (59) 
1

$$$$

     RDKit          3D

 51 54  0  0  0  0  0  0  0  0999 V2000
  133.0520   70.2340  226.7040 O   0  0  0  0  0  0  0  0  0  0  0  0
  133.6090   71.3000  226.2670 C   0  0  0  0  0  0  0  0  0  0  0  0
  134.7070   71.2410  225.3580 N   0  0  0  0  0  0  0  0  0  0  0  0
  135.2460   70.0120  224.8680 C   0  0  0  0  0  0  0  0  0  0  0  0
  136.5300   70.0020  224.1950 C   0  0  0  0  0  0  0  0  0  0  0  0
  137.1430   71.1550  224.2260 O   0  0  0  0  0  0  0  0  0  0  0  0
  137.1960   68.9550  223.5220 N   0  0  0  0  0  0  0  0  0  0  0  0
  136.7410   68.1810  222.3500 C   0  0  0  0  0  0  0  0  0  0  0  0
  138.0500   67.6150  221.7800 C   0  0  0  0  0  0  0  0  0  0  0  0
  138.8630   67.3260  223.0510 C   0  0  0  0  0  0  0  0  0  0  0  0
  138.5090   68.4730  223.9200 C   0  0  1  0  0  0  0  0  0  0  0  0
  139.5650   69.5130  224.0350 C   0  0  0  0  0  0  0  0  0  0  0  0
  139.8660   69.9810  225.4020 C   0  0  0  0  0  0  0  0  0  0  0  0
  139.5190   69.1940  226.5090 C   0  0  0  0  0  0  0  0  0  0  0  0
  139.7890   69.6090  227.8020 C   0  0  0  0  0  0  0  0  0  0  0  0
  140.4070   70.8140  228.0590 C   0  0  0  0  0  0  0  0  0  0  0  0
  140.7550   71.6000  226.9800 C   0  0  0  0  0  0  0  0  0  0  0  0
  140.4810   71.1760  225.6960 C   0  0  0  0  0  0  0  0  0  0  0  0
  133.0900   72.6070  226.7250 C   0  0  0  0  0  0  0  0  0  0  0  0
  131.9180   72.6590  227.4470 C   0  0  0  0  0  0  0  0  0  0  0  0
  131.3630   73.8260  227.9130 C   0  0  0  0  0  0  0  0  0  0  0  0
  132.0400   74.9980  227.6260 C   0  0  0  0  0  0  0  0  0  0  0  0
  131.5040   76.1800  228.0820 C   0  0  0  0  0  0  0  0  0  0  0  0
  132.1800   77.3450  227.7950 C   0  0  0  0  0  0  0  0  0  0  0  0
  131.4830   78.8500  228.3850 Cl  0  0  0  0  0  0  0  0  0  0  0  0
  133.3440   77.2910  227.0790 C   0  0  0  0  0  0  0  0  0  0  0  0
  133.8910   76.1070  226.6160 C   0  0  0  0  0  0  0  0  0  0  0  0
  133.2120   74.9190  226.9020 C   0  0  0  0  0  0  0  0  0  0  0  0
  133.7190   73.7470  226.4650 N   0  0  0  0  0  0  0  0  0  0  0  0
  135.0890   72.1980  225.0770 H   0  0  0  0  0  0  0  0  0  0  0  0
  135.3349   69.3371  225.7320 H   0  0  0  0  0  0  0  0  0  0  0  0
  134.5413   69.7252  224.0735 H   0  0  0  0  0  0  0  0  0  0  0  0
  136.0586   67.3724  222.6510 H   0  0  0  0  0  0  0  0  0  0  0  0
  136.1776   68.7853  221.6238 H   0  0  0  0  0  0  0  0  0  0  0  0
  137.8691   66.6948  221.2051 H   0  0  0  0  0  0  0  0  0  0  0  0
  138.5556   68.2955  221.0791 H   0  0  0  0  0  0  0  0  0  0  0  0
  138.5618   66.3719  223.5082 H   0  0  0  0  0  0  0  0  0  0  0  0
  139.9435   67.2277  222.8698 H   0  0  0  0  0  0  0  0  0  0  0  0
  138.4472   68.1303  224.9634 H   0  0  0  0  0  0  0  0  0  0  0  0
  140.4914   69.1005  223.6089 H   0  0  0  0  0  0  0  0  0  0  0  0
  139.1755   70.3916  223.4998 H   0  0  0  0  0  0  0  0  0  0  0  0
  139.0217   68.2263  226.3469 H   0  0  0  0  0  0  0  0  0  0  0  0
  139.5035   68.9616  228.6443 H   0  0  0  0  0  0  0  0  0  0  0  0
  140.6156   71.1379  229.0893 H   0  0  0  0  0  0  0  0  0  0  0  0
  141.2523   72.5674  227.1438 H   0  0  0  0  0  0  0  0  0  0  0  0
  140.7705   71.8302  224.8604 H   0  0  0  0  0  0  0  0  0  0  0  0
  131.3979   71.7139  227.6623 H   0  0  0  0  0  0  0  0  0  0  0  0
  130.4247   73.8286  228.4871 H   0  0  0  0  0  0  0  0  0  0  0  0
  130.5663   76.1942  228.6569 H   0  0  0  0  0  0  0  0  0  0  0  0
  133.8698   78.2323  226.8610 H   0  0  0  0  0  0  0  0  0  0  0  0
  134.8292   76.1010  226.0418 H   0  0  0  0  0  0  0  0  0  0  0  0
  1  2  2  0
  2  3  1  0
  3  4  1  0
  4  5  1  0
  5  6  2  0
  5  7  1  0
  7  8  1  0
  8  9  1  0
  9 10  1  0
 10 11  1  0
 11 12  1  0
 12 13  1  0
 13 14  2  0
 14 15  1  0
 15 16  2  0
 16 17  1  0
 17 18  2  0
  2 19  1  0
 19 20  2  0
 20 21  1  0
 21 22  2  0
 22 23  1  0
 23 24  2  0
 24 25  1  0
 24 26  1  0
 26 27  2  0
 27 28  1  0
 28 29  2  0
 11  7  1  0
 18 13  1  0
 29 19  1  0
 28 22  1  0
  3 30  1  0
  4 31  1  0
  4 32  1  0
  8 33  1  0
  8 34  1  0
  9 35  1  0
  9 36  1  0
 10 37  1  0
 10 38  1  0
 11 39  1  1
 12 40  1  0
 12 41  1  0
 14 42  1  0
 15 43  1  0
 16 44  1  0
 17 45  1  0
 18 46  1  0
 20 47  1  0
 21 48  1  0
 23 49  1  0
 26 50  1  0
 27 51  1  0
M  END
>  <smiles>  (60) 
O=C(NCC(=O)N1CCCC1Cc1ccccc1)c1ccc2cc(Cl)ccc2n1

>  <score_type>  (60) 
oracle

>  <origin>  (60) 
autodockgpu

>  <m_score__min__energy>  (60) 
-8.9499999999999993

>  <m_primary>  (60) 
energy

>  <rmsd>  (60) 
9.01787141111977

>  <m_score__min__rmsd>  (60) 
9.01787141111977

>  <meeko>  (60) 
{"free_energy": -8.16, "intermolecular_energy": -9.95, "internal_energy": -1.85, "cluster_size": 5, "cluster_id": 2, "rank_in_cluster": 3}

>  <energy>  (60) 
-8.69

>  <cluster_rmsd>  (60) 
1.26

>  <cluster>  (60) 
1

$$$$

     RDKit          3D

 51 54  0  0  0  0  0  0  0  0999 V2000
  139.9310   72.4940  220.5530 O   0  0  0  0  0  0  0  0  0  0  0  0
  139.8320   72.9130  221.7580 C   0  0  0  0  0  0  0  0  0  0  0  0
  139.6280   74.2960  222.0450 N   0  0  0  0  0  0  0  0  0  0  0  0
  139.5090   75.2920  221.0280 C   0  0  0  0  0  0  0  0  0  0  0  0
  140.5730   76.2560  220.8300 C   0  0  0  0  0  0  0  0  0  0  0  0
  141.1080   76.6770  221.9450 O   0  0  0  0  0  0  0  0  0  0  0  0
  141.1000   76.7980  219.6380 N   0  0  0  0  0  0  0  0  0  0  0  0
  140.6460   77.9900  218.8930 C   0  0  0  0  0  0  0  0  0  0  0  0
  141.8800   78.3650  218.0590 C   0  0  0  0  0  0  0  0  0  0  0  0
  142.4640   76.9910  217.7010 C   0  0  0  0  0  0  0  0  0  0  0  0
  142.2380   76.2180  218.9440 C   0  0  1  0  0  0  0  0  0  0  0  0
  143.4540   76.0060  219.7730 C   0  0  0  0  0  0  0  0  0  0  0  0
  143.7680   74.6050  220.1150 C   0  0  0  0  0  0  0  0  0  0  0  0
  145.0820   74.2330  220.4310 C   0  0  0  0  0  0  0  0  0  0  0  0
  145.4030   72.9260  220.7530 C   0  0  0  0  0  0  0  0  0  0  0  0
  144.4480   71.9320  220.7770 C   0  0  0  0  0  0  0  0  0  0  0  0
  143.1500   72.2820  220.4680 C   0  0  0  0  0  0  0  0  0  0  0  0
  142.8410   73.5880  220.1480 C   0  0  0  0  0  0  0  0  0  0  0  0
  139.9340   71.9310  222.8600 C   0  0  0  0  0  0  0  0  0  0  0  0
  139.5170   70.6340  222.6550 C   0  0  0  0  0  0  0  0  0  0  0  0
  139.5750   69.6560  223.6180 C   0  0  0  0  0  0  0  0  0  0  0  0
  140.0830   70.0230  224.8510 C   0  0  0  0  0  0  0  0  0  0  0  0
  140.1510   69.0610  225.8320 C   0  0  0  0  0  0  0  0  0  0  0  0
  140.6570   69.4290  227.0590 C   0  0  0  0  0  0  0  0  0  0  0  0
  140.7380   68.1880  228.3050 Cl  0  0  0  0  0  0  0  0  0  0  0  0
  141.0710   70.7170  227.2600 C   0  0  0  0  0  0  0  0  0  0  0  0
  141.0060   71.6920  226.2790 C   0  0  0  0  0  0  0  0  0  0  0  0
  140.4940   71.3280  225.0310 C   0  0  0  0  0  0  0  0  0  0  0  0
  140.4180   72.2550  224.0520 N   0  0  0  0  0  0  0  0  0  0  0  0
  139.5730   74.5190  223.0880 H   0  0  0  0  0  0  0  0  0  0  0  0
  139.3822   74.7586  220.0744 H   0  0  0  0  0  0  0  0  0  0  0  0
  138.6690   75.9106  221.3768 H   0  0  0  0  0  0  0  0  0  0  0  0
  139.7894   77.7497  218.2461 H   0  0  0  0  0  0  0  0  0  0  0  0
  140.2998   78.8044  219.5464 H   0  0  0  0  0  0  0  0  0  0  0  0
  141.5951   78.9242  217.1556 H   0  0  0  0  0  0  0  0  0  0  0  0
  142.5875   79.0192  218.5895 H   0  0  0  0  0  0  0  0  0  0  0  0
  141.9315   76.5414  216.8500 H   0  0  0  0  0  0  0  0  0  0  0  0
  143.5188   77.0281  217.3912 H   0  0  0  0  0  0  0  0  0  0  0  0
  141.9877   75.1792  218.6828 H   0  0  0  0  0  0  0  0  0  0  0  0
  144.3125   76.4186  219.2228 H   0  0  0  0  0  0  0  0  0  0  0  0
  143.2505   76.5066  220.7311 H   0  0  0  0  0  0  0  0  0  0  0  0
  145.8745   74.9959  220.4228 H   0  0  0  0  0  0  0  0  0  0  0  0
  146.4458   72.6740  220.9958 H   0  0  0  0  0  0  0  0  0  0  0  0
  144.7120   70.8955  221.0337 H   0  0  0  0  0  0  0  0  0  0  0  0
  142.3590   71.5176  220.4768 H   0  0  0  0  0  0  0  0  0  0  0  0
  141.7957   73.8300  219.9057 H   0  0  0  0  0  0  0  0  0  0  0  0
  139.1157   70.3670  221.6662 H   0  0  0  0  0  0  0  0  0  0  0  0
  139.2336   68.6296  223.4180 H   0  0  0  0  0  0  0  0  0  0  0  0
  139.8124   68.0317  225.6427 H   0  0  0  0  0  0  0  0  0  0  0  0
  141.4741   70.9908  228.2462 H   0  0  0  0  0  0  0  0  0  0  0  0
  141.3463   72.7194  226.4757 H   0  0  0  0  0  0  0  0  0  0  0  0
  1  2  2  0
  2  3  1  0
  3  4  1  0
  4  5  1  0
  5  6  2  0
  5  7  1  0
  7  8  1  0
  8  9  1  0
  9 10  1  0
 10 11  1  0
 11 12  1  0
 12 13  1  0
 13 14  2  0
 14 15  1  0
 15 16  2  0
 16 17  1  0
 17 18  2  0
  2 19  1  0
 19 20  2  0
 20 21  1  0
 21 22  2  0
 22 23  1  0
 23 24  2  0
 24 25  1  0
 24 26  1  0
 26 27  2  0
 27 28  1  0
 28 29  2  0
 11  7  1  0
 18 13  1  0
 29 19  1  0
 28 22  1  0
  3 30  1  0
  4 31  1  0
  4 32  1  0
  8 33  1  0
  8 34  1  0
  9 35  1  0
  9 36  1  0
 10 37  1  0
 10 38  1  0
 11 39  1  6
 12 40  1  0
 12 41  1  0
 14 42  1  0
 15 43  1  0
 16 44  1  0
 17 45  1  0
 18 46  1  0
 20 47  1  0
 21 48  1  0
 23 49  1  0
 26 50  1  0
 27 51  1  0
M  END
>  <smiles>  (61) 
O=C(NCC(=O)N1CCCC1Cc1ccccc1)c1ccc2cc(Cl)ccc2n1

>  <score_type>  (61) 
oracle

>  <origin>  (61) 
autodockgpu

>  <m_score__min__energy>  (61) 
-8.9499999999999993

>  <m_primary>  (61) 
energy

>  <rmsd>  (61) 
2.075487012519796

>  <m_score__min__rmsd>  (61) 
2.075487012519796

>  <meeko>  (61) 
{"free_energy": -8.02, "intermolecular_energy": -9.81, "internal_energy": -2.1, "cluster_size": 6, "cluster_id": 4, "rank_in_cluster": 5}

>  <energy>  (61) 
-8.69

>  <cluster_rmsd>  (61) 
0.71

>  <cluster>  (61) 
1

$$$$

     RDKit          3D

 51 54  0  0  0  0  0  0  0  0999 V2000
  133.9260   69.2440  226.4760 O   0  0  0  0  0  0  0  0  0  0  0  0
  134.4370   70.3450  226.0730 C   0  0  0  0  0  0  0  0  0  0  0  0
  135.6200   70.3620  225.2750 N   0  0  0  0  0  0  0  0  0  0  0  0
  136.2990   69.1740  224.8650 C   0  0  0  0  0  0  0  0  0  0  0  0
  137.6780   69.2430  224.4240 C   0  0  0  0  0  0  0  0  0  0  0  0
  138.3850   68.1960  224.7580 O   0  0  0  0  0  0  0  0  0  0  0  0
  138.3550   70.2550  223.7090 N   0  0  0  0  0  0  0  0  0  0  0  0
  137.9020   70.9920  222.5130 C   0  0  0  0  0  0  0  0  0  0  0  0
  138.7670   72.2620  222.5430 C   0  0  0  0  0  0  0  0  0  0  0  0
  140.1060   71.7340  223.0780 C   0  0  0  0  0  0  0  0  0  0  0  0
  139.6730   70.7390  224.0870 C   0  0  1  0  0  0  0  0  0  0  0  0
  139.8110   71.1860  225.4980 C   0  0  0  0  0  0  0  0  0  0  0  0
  140.1890   70.1440  226.4730 C   0  0  0  0  0  0  0  0  0  0  0  0
  140.9210   69.0230  226.0580 C   0  0  0  0  0  0  0  0  0  0  0  0
  141.2880   68.0310  226.9510 C   0  0  0  0  0  0  0  0  0  0  0  0
  140.9480   68.0990  228.2860 C   0  0  0  0  0  0  0  0  0  0  0  0
  140.2270   69.1960  228.7090 C   0  0  0  0  0  0  0  0  0  0  0  0
  139.8680   70.1790  227.8100 C   0  0  0  0  0  0  0  0  0  0  0  0
  133.7760   71.6130  226.4510 C   0  0  0  0  0  0  0  0  0  0  0  0
  132.6150   71.5790  227.1920 C   0  0  0  0  0  0  0  0  0  0  0  0
  131.9330   72.7030  227.5890 C   0  0  0  0  0  0  0  0  0  0  0  0
  132.4650   73.9230  227.2090 C   0  0  0  0  0  0  0  0  0  0  0  0
  131.8000   75.0640  227.5940 C   0  0  0  0  0  0  0  0  0  0  0  0
  132.3320   76.2770  227.2140 C   0  0  0  0  0  0  0  0  0  0  0  0
  131.4710   77.7280  227.7140 Cl  0  0  0  0  0  0  0  0  0  0  0  0
  133.4850   76.3080  226.4790 C   0  0  0  0  0  0  0  0  0  0  0  0
  134.1600   75.1650  226.0870 C   0  0  0  0  0  0  0  0  0  0  0  0
  133.6280   73.9300  226.4680 C   0  0  0  0  0  0  0  0  0  0  0  0
  134.2630   72.7960  226.1010 N   0  0  0  0  0  0  0  0  0  0  0  0
  135.9520   71.3420  225.0120 H   0  0  0  0  0  0  0  0  0  0  0  0
  136.2733   68.4824  225.7200 H   0  0  0  0  0  0  0  0  0  0  0  0
  135.7574   68.8743  223.9557 H   0  0  0  0  0  0  0  0  0  0  0  0
  138.0846   70.4105  221.5973 H   0  0  0  0  0  0  0  0  0  0  0  0
  136.8223   71.2021  222.5158 H   0  0  0  0  0  0  0  0  0  0  0  0
  138.8813   72.6899  221.5361 H   0  0  0  0  0  0  0  0  0  0  0  0
  138.3386   73.0722  223.1513 H   0  0  0  0  0  0  0  0  0  0  0  0
  140.6953   71.2604  222.2790 H   0  0  0  0  0  0  0  0  0  0  0  0
  140.7578   72.5203  223.4865 H   0  0  0  0  0  0  0  0  0  0  0  0
  140.3682   69.8866  224.0760 H   0  0  0  0  0  0  0  0  0  0  0  0
  140.5812   71.9708  225.5286 H   0  0  0  0  0  0  0  0  0  0  0  0
  138.8096   71.5260  225.8006 H   0  0  0  0  0  0  0  0  0  0  0  0
  141.2098   68.9296  225.0007 H   0  0  0  0  0  0  0  0  0  0  0  0
  141.8646   67.1678  226.5872 H   0  0  0  0  0  0  0  0  0  0  0  0
  141.2418   67.3056  228.9891 H   0  0  0  0  0  0  0  0  0  0  0  0
  139.9374   69.2874  229.7662 H   0  0  0  0  0  0  0  0  0  0  0  0
  139.2927   71.0390  228.1834 H   0  0  0  0  0  0  0  0  0  0  0  0
  132.2120   70.5973  227.4817 H   0  0  0  0  0  0  0  0  0  0  0  0
  131.0081   72.6369  228.1807 H   0  0  0  0  0  0  0  0  0  0  0  0
  130.8742   75.0099  228.1856 H   0  0  0  0  0  0  0  0  0  0  0  0
  133.8946   77.2860  226.1860 H   0  0  0  0  0  0  0  0  0  0  0  0
  135.0850   75.2266  225.4949 H   0  0  0  0  0  0  0  0  0  0  0  0
  1  2  2  0
  2  3  1  0
  3  4  1  0
  4  5  1  0
  5  6  2  0
  5  7  1  0
  7  8  1  0
  8  9  1  0
  9 10  1  0
 10 11  1  0
 11 12  1  0
 12 13  1  0
 13 14  2  0
 14 15  1  0
 15 16  2  0
 16 17  1  0
 17 18  2  0
  2 19  1  0
 19 20  2  0
 20 21  1  0
 21 22  2  0
 22 23  1  0
 23 24  2  0
 24 25  1  0
 24 26  1  0
 26 27  2  0
 27 28  1  0
 28 29  2  0
 11  7  1  0
 18 13  1  0
 29 19  1  0
 28 22  1  0
  3 30  1  0
  4 31  1  0
  4 32  1  0
  8 33  1  0
  8 34  1  0
  9 35  1  0
  9 36  1  0
 10 37  1  0
 10 38  1  0
 11 39  1  1
 12 40  1  0
 12 41  1  0
 14 42  1  0
 15 43  1  0
 16 44  1  0
 17 45  1  0
 18 46  1  0
 20 47  1  0
 21 48  1  0
 23 49  1  0
 26 50  1  0
 27 51  1  0
M  END
>  <smiles>  (62) 
O=C(NCC(=O)N1CCCC1Cc1ccccc1)c1ccc2cc(Cl)ccc2n1

>  <score_type>  (62) 
oracle

>  <origin>  (62) 
autodockgpu

>  <m_score__min__energy>  (62) 
-8.9499999999999993

>  <m_primary>  (62) 
energy

>  <rmsd>  (62) 
7.64020640487738

>  <m_score__min__rmsd>  (62) 
7.64020640487738

>  <meeko>  (62) 
{"free_energy": -8.66, "intermolecular_energy": -10.45, "internal_energy": -1.76, "cluster_size": 5, "cluster_id": 2, "rank_in_cluster": 1}

>  <energy>  (62) 
-8.66

>  <cluster_rmsd>  (62) 
0.8

>  <cluster>  (62) 
1

$$$$

     RDKit          3D

 51 54  0  0  0  0  0  0  0  0999 V2000
  138.8700   71.7040  220.7530 O   0  0  0  0  0  0  0  0  0  0  0  0
  138.9840   72.2500  221.9040 C   0  0  0  0  0  0  0  0  0  0  0  0
  138.8140   73.6560  222.0760 N   0  0  0  0  0  0  0  0  0  0  0  0
  138.4970   74.5380  220.9980 C   0  0  0  0  0  0  0  0  0  0  0  0
  138.7460   75.9610  221.1290 C   0  0  0  0  0  0  0  0  0  0  0  0
  137.8270   76.5890  221.8140 O   0  0  0  0  0  0  0  0  0  0  0  0
  139.8060   76.7480  220.6320 N   0  0  0  0  0  0  0  0  0  0  0  0
  139.8300   77.6000  219.4260 C   0  0  0  0  0  0  0  0  0  0  0  0
  140.9850   78.5710  219.7120 C   0  0  0  0  0  0  0  0  0  0  0  0
  141.9870   77.6790  220.4570 C   0  0  0  0  0  0  0  0  0  0  0  0
  141.1000   76.8340  221.2900 C   0  0  1  0  0  0  0  0  0  0  0  0
  141.0620   77.2050  222.7300 C   0  0  0  0  0  0  0  0  0  0  0  0
  141.3310   78.6220  223.0400 C   0  0  0  0  0  0  0  0  0  0  0  0
  140.2680   79.5200  223.2140 C   0  0  0  0  0  0  0  0  0  0  0  0
  140.4920   80.8550  223.5030 C   0  0  0  0  0  0  0  0  0  0  0  0
  141.7690   81.3610  223.6310 C   0  0  0  0  0  0  0  0  0  0  0  0
  142.8240   80.4910  223.4630 C   0  0  0  0  0  0  0  0  0  0  0  0
  142.5890   79.1620  223.1750 C   0  0  0  0  0  0  0  0  0  0  0  0
  139.2980   71.3900  223.0660 C   0  0  0  0  0  0  0  0  0  0  0  0
  138.9620   70.0550  223.0350 C   0  0  0  0  0  0  0  0  0  0  0  0
  139.2150   69.1830  224.0660 C   0  0  0  0  0  0  0  0  0  0  0  0
  139.8440   69.7030  225.1840 C   0  0  0  0  0  0  0  0  0  0  0  0
  140.1080   68.8490  226.2300 C   0  0  0  0  0  0  0  0  0  0  0  0
  140.7330   69.3700  227.3410 C   0  0  0  0  0  0  0  0  0  0  0  0
  141.0650   68.2660  228.6720 Cl  0  0  0  0  0  0  0  0  0  0  0  0
  141.0670   70.6950  227.3700 C   0  0  0  0  0  0  0  0  0  0  0  0
  140.8050   71.5620  226.3220 C   0  0  0  0  0  0  0  0  0  0  0  0
  140.1700   71.0430  225.1900 C   0  0  0  0  0  0  0  0  0  0  0  0
  139.9010   71.8620  224.1510 N   0  0  0  0  0  0  0  0  0  0  0  0
  138.9450   73.9900  223.0820 H   0  0  0  0  0  0  0  0  0  0  0  0
  139.0725   74.1937  220.1261 H   0  0  0  0  0  0  0  0  0  0  0  0
  137.4004   74.4775  220.9354 H   0  0  0  0  0  0  0  0  0  0  0  0
  140.0296   77.0029  218.5240 H   0  0  0  0  0  0  0  0  0  0  0  0
  138.8734   78.1084  219.2353 H   0  0  0  0  0  0  0  0  0  0  0  0
  141.4169   78.9618  218.7789 H   0  0  0  0  0  0  0  0  0  0  0  0
  140.6804   79.4614  220.2816 H   0  0  0  0  0  0  0  0  0  0  0  0
  142.5750   77.0687  219.7557 H   0  0  0  0  0  0  0  0  0  0  0  0
  142.7309   78.2432  221.0386 H   0  0  0  0  0  0  0  0  0  0  0  0
  141.5221   75.8201  221.3522 H   0  0  0  0  0  0  0  0  0  0  0  0
  140.0606   76.9607  223.1142 H   0  0  0  0  0  0  0  0  0  0  0  0
  141.8767   76.6379  223.2040 H   0  0  0  0  0  0  0  0  0  0  0  0
  139.2344   79.1558  223.1188 H   0  0  0  0  0  0  0  0  0  0  0  0
  139.6318   81.5281  223.6336 H   0  0  0  0  0  0  0  0  0  0  0  0
  141.9392   82.4235  223.8595 H   0  0  0  0  0  0  0  0  0  0  0  0
  143.8569   80.8569  223.5587 H   0  0  0  0  0  0  0  0  0  0  0  0
  143.4560   78.4974  223.0462 H   0  0  0  0  0  0  0  0  0  0  0  0
  138.4636   69.6653  222.1352 H   0  0  0  0  0  0  0  0  0  0  0  0
  138.9312   68.1219  224.0059 H   0  0  0  0  0  0  0  0  0  0  0  0
  139.8293   67.7861  226.1805 H   0  0  0  0  0  0  0  0  0  0  0  0
  141.5667   71.0909  228.2664 H   0  0  0  0  0  0  0  0  0  0  0  0
  141.0872   72.6237  226.3787 H   0  0  0  0  0  0  0  0  0  0  0  0
  1  2  2  0
  2  3  1  0
  3  4  1  0
  4  5  1  0
  5  6  2  0
  5  7  1  0
  7  8  1  0
  8  9  1  0
  9 10  1  0
 10 11  1  0
 11 12  1  0
 12 13  1  0
 13 14  2  0
 14 15  1  0
 15 16  2  0
 16 17  1  0
 17 18  2  0
  2 19  1  0
 19 20  2  0
 20 21  1  0
 21 22  2  0
 22 23  1  0
 23 24  2  0
 24 25  1  0
 24 26  1  0
 26 27  2  0
 27 28  1  0
 28 29  2  0
 11  7  1  0
 18 13  1  0
 29 19  1  0
 28 22  1  0
  3 30  1  0
  4 31  1  0
  4 32  1  0
  8 33  1  0
  8 34  1  0
  9 35  1  0
  9 36  1  0
 10 37  1  0
 10 38  1  0
 11 39  1  1
 12 40  1  0
 12 41  1  0
 14 42  1  0
 15 43  1  0
 16 44  1  0
 17 45  1  0
 18 46  1  0
 20 47  1  0
 21 48  1  0
 23 49  1  0
 26 50  1  0
 27 51  1  0
M  END
>  <smiles>  (63) 
O=C(NCC(=O)N1CCCC1Cc1ccccc1)c1ccc2cc(Cl)ccc2n1

>  <score_type>  (63) 
oracle

>  <origin>  (63) 
autodockgpu

>  <m_score__min__energy>  (63) 
-8.9499999999999993

>  <m_primary>  (63) 
energy

>  <rmsd>  (63) 
1.7822159166762936

>  <m_score__min__rmsd>  (63) 
1.7822159166762936

>  <meeko>  (63) 
{"free_energy": -8.76, "intermolecular_energy": -10.55, "internal_energy": -1.56, "cluster_size": 35, "cluster_id": 1, "rank_in_cluster": 5}

>  <energy>  (63) 
-8.64

>  <cluster_rmsd>  (63) 
0.72

>  <cluster>  (63) 
1

$$$$

     RDKit          3D

 51 54  0  0  0  0  0  0  0  0999 V2000
  133.3490   69.6900  226.5870 O   0  0  0  0  0  0  0  0  0  0  0  0
  133.9790   70.7160  226.1520 C   0  0  0  0  0  0  0  0  0  0  0  0
  135.1550   70.5780  225.3550 N   0  0  0  0  0  0  0  0  0  0  0  0
  135.6950   69.3100  224.9800 C   0  0  0  0  0  0  0  0  0  0  0  0
  136.6030   69.2150  223.8530 C   0  0  0  0  0  0  0  0  0  0  0  0
  136.3390   68.2130  223.0560 O   0  0  0  0  0  0  0  0  0  0  0  0
  137.7060   70.0220  223.5020 N   0  0  0  0  0  0  0  0  0  0  0  0
  137.7180   71.4550  223.1470 C   0  0  0  0  0  0  0  0  0  0  0  0
  139.1770   71.8620  223.4030 C   0  0  0  0  0  0  0  0  0  0  0  0
  139.9480   70.6070  222.9710 C   0  0  0  0  0  0  0  0  0  0  0  0
  139.0670   69.5150  223.4470 C   0  0  1  0  0  0  0  0  0  0  0  0
  139.5430   68.8240  224.6750 C   0  0  0  0  0  0  0  0  0  0  0  0
  139.9360   69.6980  225.7970 C   0  0  0  0  0  0  0  0  0  0  0  0
  139.3110   69.5670  227.0450 C   0  0  0  0  0  0  0  0  0  0  0  0
  139.6590   70.3750  228.1140 C   0  0  0  0  0  0  0  0  0  0  0  0
  140.6330   71.3440  227.9990 C   0  0  0  0  0  0  0  0  0  0  0  0
  141.2570   71.4850  226.7780 C   0  0  0  0  0  0  0  0  0  0  0  0
  140.9020   70.6740  225.7200 C   0  0  0  0  0  0  0  0  0  0  0  0
  133.4640   72.0590  226.4940 C   0  0  0  0  0  0  0  0  0  0  0  0
  132.2920   72.1770  227.2080 C   0  0  0  0  0  0  0  0  0  0  0  0
  131.7400   73.3820  227.5700 C   0  0  0  0  0  0  0  0  0  0  0  0
  132.4210   74.5230  227.1830 C   0  0  0  0  0  0  0  0  0  0  0  0
  131.8880   75.7420  227.5330 C   0  0  0  0  0  0  0  0  0  0  0  0
  132.5670   76.8750  227.1460 C   0  0  0  0  0  0  0  0  0  0  0  0
  131.8740   78.4280  227.6010 Cl  0  0  0  0  0  0  0  0  0  0  0  0
  133.7310   76.7560  226.4370 C   0  0  0  0  0  0  0  0  0  0  0  0
  134.2750   75.5340  226.0800 C   0  0  0  0  0  0  0  0  0  0  0  0
  133.5920   74.3780  226.4690 C   0  0  0  0  0  0  0  0  0  0  0  0
  134.0960   73.1700  226.1360 N   0  0  0  0  0  0  0  0  0  0  0  0
  135.5930   71.5070  225.0640 H   0  0  0  0  0  0  0  0  0  0  0  0
  136.2348   68.9225  225.8566 H   0  0  0  0  0  0  0  0  0  0  0  0
  134.8118   68.7480  224.6422 H   0  0  0  0  0  0  0  0  0  0  0  0
  137.4455   71.6032  222.0916 H   0  0  0  0  0  0  0  0  0  0  0  0
  136.9943   72.0504  223.7230 H   0  0  0  0  0  0  0  0  0  0  0  0
  139.4603   72.7329  222.7937 H   0  0  0  0  0  0  0  0  0  0  0  0
  139.3740   72.1637  224.4423 H   0  0  0  0  0  0  0  0  0  0  0  0
  140.0712   70.5717  221.8785 H   0  0  0  0  0  0  0  0  0  0  0  0
  140.9695   70.5567  223.3760 H   0  0  0  0  0  0  0  0  0  0  0  0
  139.0960   68.6865  222.7239 H   0  0  0  0  0  0  0  0  0  0  0  0
  138.7336   68.1675  225.0271 H   0  0  0  0  0  0  0  0  0  0  0  0
  140.4584   68.2905  224.3795 H   0  0  0  0  0  0  0  0  0  0  0  0
  138.5276   68.8062  227.1777 H   0  0  0  0  0  0  0  0  0  0  0  0
  139.1463   70.2407  229.0779 H   0  0  0  0  0  0  0  0  0  0  0  0
  140.9030   71.9830  228.8527 H   0  0  0  0  0  0  0  0  0  0  0  0
  142.0402   72.2462  226.6469 H   0  0  0  0  0  0  0  0  0  0  0  0
  141.4209   70.8160  224.7605 H   0  0  0  0  0  0  0  0  0  0  0  0
  131.7692   71.2558  227.5047 H   0  0  0  0  0  0  0  0  0  0  0  0
  130.8011   73.4372  228.1405 H   0  0  0  0  0  0  0  0  0  0  0  0
  130.9499   75.8090  228.1035 H   0  0  0  0  0  0  0  0  0  0  0  0
  134.2588   77.6732  226.1369 H   0  0  0  0  0  0  0  0  0  0  0  0
  135.2135   75.4747  225.5092 H   0  0  0  0  0  0  0  0  0  0  0  0
  1  2  2  0
  2  3  1  0
  3  4  1  0
  4  5  1  0
  5  6  2  0
  5  7  1  0
  7  8  1  0
  8  9  1  0
  9 10  1  0
 10 11  1  0
 11 12  1  0
 12 13  1  0
 13 14  2  0
 14 15  1  0
 15 16  2  0
 16 17  1  0
 17 18  2  0
  2 19  1  0
 19 20  2  0
 20 21  1  0
 21 22  2  0
 22 23  1  0
 23 24  2  0
 24 25  1  0
 24 26  1  0
 26 27  2  0
 27 28  1  0
 28 29  2  0
 11  7  1  0
 18 13  1  0
 29 19  1  0
 28 22  1  0
  3 30  1  0
  4 31  1  0
  4 32  1  0
  8 33  1  0
  8 34  1  0
  9 35  1  0
  9 36  1  0
 10 37  1  0
 10 38  1  0
 11 39  1  6
 12 40  1  0
 12 41  1  0
 14 42  1  0
 15 43  1  0
 16 44  1  0
 17 45  1  0
 18 46  1  0
 20 47  1  0
 21 48  1  0
 23 49  1  0
 26 50  1  0
 27 51  1  0
M  END
>  <smiles>  (64) 
O=C(NCC(=O)N1CCCC1Cc1ccccc1)c1ccc2cc(Cl)ccc2n1

>  <score_type>  (64) 
oracle

>  <origin>  (64) 
autodockgpu

>  <m_score__min__energy>  (64) 
-8.9499999999999993

>  <m_primary>  (64) 
energy

>  <rmsd>  (64) 
8.071614514058398

>  <m_score__min__rmsd>  (64) 
8.071614514058398

>  <meeko>  (64) 
{"free_energy": -8.18, "intermolecular_energy": -9.97, "internal_energy": -1.49, "cluster_size": 5, "cluster_id": 2, "rank_in_cluster": 2}

>  <energy>  (64) 
-8.6

>  <cluster_rmsd>  (64) 
0.79

>  <cluster>  (64) 
1

$$$$

     RDKit          3D

 51 54  0  0  0  0  0  0  0  0999 V2000
  140.0910   72.3470  220.7540 O   0  0  0  0  0  0  0  0  0  0  0  0
  139.5970   72.6990  221.8810 C   0  0  0  0  0  0  0  0  0  0  0  0
  138.8880   73.9290  222.0260 N   0  0  0  0  0  0  0  0  0  0  0  0
  138.6690   74.8320  220.9410 C   0  0  0  0  0  0  0  0  0  0  0  0
  139.6700   75.8280  220.6140 C   0  0  0  0  0  0  0  0  0  0  0  0
  139.2870   77.0530  220.8610 O   0  0  0  0  0  0  0  0  0  0  0  0
  140.9660   75.6730  220.0760 N   0  0  0  0  0  0  0  0  0  0  0  0
  141.4400   74.6700  219.1020 C   0  0  0  0  0  0  0  0  0  0  0  0
  142.7040   75.3230  218.5220 C   0  0  0  0  0  0  0  0  0  0  0  0
  143.2900   76.0440  219.7440 C   0  0  0  0  0  0  0  0  0  0  0  0
  142.0750   76.5430  220.4290 C   0  0  1  0  0  0  0  0  0  0  0  0
  141.8240   78.0000  220.2650 C   0  0  0  0  0  0  0  0  0  0  0  0
  141.8070   78.7970  221.5080 C   0  0  0  0  0  0  0  0  0  0  0  0
  142.1680   80.1510  221.4820 C   0  0  0  0  0  0  0  0  0  0  0  0
  142.1620   80.9200  222.6330 C   0  0  0  0  0  0  0  0  0  0  0  0
  141.8030   80.3900  223.8540 C   0  0  0  0  0  0  0  0  0  0  0  0
  141.4440   79.0590  223.8950 C   0  0  0  0  0  0  0  0  0  0  0  0
  141.4540   78.3020  222.7420 C   0  0  0  0  0  0  0  0  0  0  0  0
  139.7780   71.8020  223.0430 C   0  0  0  0  0  0  0  0  0  0  0  0
  139.4290   70.4740  222.9370 C   0  0  0  0  0  0  0  0  0  0  0  0
  139.5620   69.5690  223.9620 C   0  0  0  0  0  0  0  0  0  0  0  0
  140.0770   70.0460  225.1540 C   0  0  0  0  0  0  0  0  0  0  0  0
  140.2190   69.1590  226.1960 C   0  0  0  0  0  0  0  0  0  0  0  0
  140.7320   69.6380  227.3820 C   0  0  0  0  0  0  0  0  0  0  0  0
  140.9090   68.4920  228.7060 Cl  0  0  0  0  0  0  0  0  0  0  0  0
  141.0770   70.9570  227.4840 C   0  0  0  0  0  0  0  0  0  0  0  0
  140.9370   71.8570  226.4420 C   0  0  0  0  0  0  0  0  0  0  0  0
  140.4180   71.3810  225.2350 C   0  0  0  0  0  0  0  0  0  0  0  0
  140.2690   72.2330  224.1980 N   0  0  0  0  0  0  0  0  0  0  0  0
  138.5350   74.1120  223.0170 H   0  0  0  0  0  0  0  0  0  0  0  0
  138.5265   74.2173  220.0400 H   0  0  0  0  0  0  0  0  0  0  0  0
  137.8144   75.4348  221.2821 H   0  0  0  0  0  0  0  0  0  0  0  0
  141.6791   73.7182  219.5990 H   0  0  0  0  0  0  0  0  0  0  0  0
  140.6904   74.4206  218.3366 H   0  0  0  0  0  0  0  0  0  0  0  0
  143.4013   74.5659  218.1339 H   0  0  0  0  0  0  0  0  0  0  0  0
  142.5039   75.9905  217.6708 H   0  0  0  0  0  0  0  0  0  0  0  0
  143.8517   75.3488  220.3853 H   0  0  0  0  0  0  0  0  0  0  0  0
  144.0069   76.8372  219.4854 H   0  0  0  0  0  0  0  0  0  0  0  0
  142.2241   76.4844  221.5173 H   0  0  0  0  0  0  0  0  0  0  0  0
  142.6129   78.4065  219.6151 H   0  0  0  0  0  0  0  0  0  0  0  0
  140.8101   78.0814  219.8462 H   0  0  0  0  0  0  0  0  0  0  0  0
  142.4621   80.6120  220.5275 H   0  0  0  0  0  0  0  0  0  0  0  0
  142.4507   81.9797  222.5719 H   0  0  0  0  0  0  0  0  0  0  0  0
  141.8029   81.0075  224.7643 H   0  0  0  0  0  0  0  0  0  0  0  0
  141.1488   78.5998  224.8500 H   0  0  0  0  0  0  0  0  0  0  0  0
  141.1635   77.2434  222.8132 H   0  0  0  0  0  0  0  0  0  0  0  0
  139.0214   70.1184  221.9792 H   0  0  0  0  0  0  0  0  0  0  0  0
  139.2726   68.5147  223.8406 H   0  0  0  0  0  0  0  0  0  0  0  0
  139.9326   68.1026  226.0861 H   0  0  0  0  0  0  0  0  0  0  0  0
  141.4849   71.3199  228.4389 H   0  0  0  0  0  0  0  0  0  0  0  0
  141.2247   72.9121  226.5600 H   0  0  0  0  0  0  0  0  0  0  0  0
  1  2  2  0
  2  3  1  0
  3  4  1  0
  4  5  1  0
  5  6  2  0
  5  7  1  0
  7  8  1  0
  8  9  1  0
  9 10  1  0
 10 11  1  0
 11 12  1  0
 12 13  1  0
 13 14  2  0
 14 15  1  0
 15 16  2  0
 16 17  1  0
 17 18  2  0
  2 19  1  0
 19 20  2  0
 20 21  1  0
 21 22  2  0
 22 23  1  0
 23 24  2  0
 24 25  1  0
 24 26  1  0
 26 27  2  0
 27 28  1  0
 28 29  2  0
 11  7  1  0
 18 13  1  0
 29 19  1  0
 28 22  1  0
  3 30  1  0
  4 31  1  0
  4 32  1  0
  8 33  1  0
  8 34  1  0
  9 35  1  0
  9 36  1  0
 10 37  1  0
 10 38  1  0
 11 39  1  1
 12 40  1  0
 12 41  1  0
 14 42  1  0
 15 43  1  0
 16 44  1  0
 17 45  1  0
 18 46  1  0
 20 47  1  0
 21 48  1  0
 23 49  1  0
 26 50  1  0
 27 51  1  0
M  END
>  <smiles>  (65) 
O=C(NCC(=O)N1CCCC1Cc1ccccc1)c1ccc2cc(Cl)ccc2n1

>  <score_type>  (65) 
oracle

>  <origin>  (65) 
autodockgpu

>  <m_score__min__energy>  (65) 
-8.9499999999999993

>  <m_primary>  (65) 
energy

>  <rmsd>  (65) 
1.8829315514444138

>  <m_score__min__rmsd>  (65) 
1.8829315514444138

>  <meeko>  (65) 
{"free_energy": -8.69, "intermolecular_energy": -10.48, "internal_energy": -1.42, "cluster_size": 35, "cluster_id": 1, "rank_in_cluster": 10}

>  <energy>  (65) 
-8.56

>  <cluster_rmsd>  (65) 
1.83

>  <cluster>  (65) 
1

$$$$

     RDKit          3D

 51 54  0  0  0  0  0  0  0  0999 V2000
  138.4300   72.8160  221.1040 O   0  0  0  0  0  0  0  0  0  0  0  0
  138.0900   73.7440  221.9170 C   0  0  0  0  0  0  0  0  0  0  0  0
  136.9150   73.6310  222.7180 N   0  0  0  0  0  0  0  0  0  0  0  0
  136.0570   72.4890  222.6820 C   0  0  0  0  0  0  0  0  0  0  0  0
  136.4490   71.2660  223.3540 C   0  0  0  0  0  0  0  0  0  0  0  0
  135.8640   71.0960  224.5100 O   0  0  0  0  0  0  0  0  0  0  0  0
  137.3540   70.2590  222.9550 N   0  0  0  0  0  0  0  0  0  0  0  0
  137.3450   69.4560  221.7160 C   0  0  0  0  0  0  0  0  0  0  0  0
  138.7980   68.9680  221.6100 C   0  0  0  0  0  0  0  0  0  0  0  0
  139.1720   68.7320  223.0800 C   0  0  0  0  0  0  0  0  0  0  0  0
  138.4930   69.8580  223.7640 C   0  0  1  0  0  0  0  0  0  0  0  0
  139.3960   70.9600  224.1900 C   0  0  0  0  0  0  0  0  0  0  0  0
  139.9210   70.8710  225.5660 C   0  0  0  0  0  0  0  0  0  0  0  0
  140.7510   71.8810  226.0710 C   0  0  0  0  0  0  0  0  0  0  0  0
  141.2580   71.8210  227.3580 C   0  0  0  0  0  0  0  0  0  0  0  0
  140.9700   70.7670  228.1990 C   0  0  0  0  0  0  0  0  0  0  0  0
  140.1540   69.7660  227.7170 C   0  0  0  0  0  0  0  0  0  0  0  0
  139.6550   69.8360  226.4320 C   0  0  0  0  0  0  0  0  0  0  0  0
  138.9430   74.9480  222.0120 C   0  0  0  0  0  0  0  0  0  0  0  0
  140.2480   74.8940  221.5730 C   0  0  0  0  0  0  0  0  0  0  0  0
  141.1120   75.9610  221.6230 C   0  0  0  0  0  0  0  0  0  0  0  0
  140.6170   77.1420  222.1470 C   0  0  0  0  0  0  0  0  0  0  0  0
  141.4630   78.2250  222.2070 C   0  0  0  0  0  0  0  0  0  0  0  0
  140.9670   79.3990  222.7300 C   0  0  0  0  0  0  0  0  0  0  0  0
  142.0600   80.7770  222.8010 Cl  0  0  0  0  0  0  0  0  0  0  0  0
  139.6720   79.4510  223.1650 C   0  0  0  0  0  0  0  0  0  0  0  0
  138.8130   78.3660  223.1080 C   0  0  0  0  0  0  0  0  0  0  0  0
  139.3070   77.1700  222.5790 C   0  0  0  0  0  0  0  0  0  0  0  0
  138.4950   76.0940  222.5100 N   0  0  0  0  0  0  0  0  0  0  0  0
  136.7350   74.4750  223.3470 H   0  0  0  0  0  0  0  0  0  0  0  0
  135.0973   72.7990  223.1212 H   0  0  0  0  0  0  0  0  0  0  0  0
  136.0588   72.2051  221.6193 H   0  0  0  0  0  0  0  0  0  0  0  0
  136.6484   68.6087  221.7990 H   0  0  0  0  0  0  0  0  0  0  0  0
  137.0128   70.0233  220.8341 H   0  0  0  0  0  0  0  0  0  0  0  0
  138.8641   68.0371  221.0278 H   0  0  0  0  0  0  0  0  0  0  0  0
  139.4638   69.6757  221.0943 H   0  0  0  0  0  0  0  0  0  0  0  0
  138.7933   67.7628  223.4366 H   0  0  0  0  0  0  0  0  0  0  0  0
  140.2569   68.6985  223.2583 H   0  0  0  0  0  0  0  0  0  0  0  0
  138.1174   69.5150  224.7394 H   0  0  0  0  0  0  0  0  0  0  0  0
  140.2546   70.9762  223.5026 H   0  0  0  0  0  0  0  0  0  0  0  0
  138.7822   71.8725  224.1654 H   0  0  0  0  0  0  0  0  0  0  0  0
  141.0050   72.7393  225.4316 H   0  0  0  0  0  0  0  0  0  0  0  0
  141.9060   72.6336  227.7182 H   0  0  0  0  0  0  0  0  0  0  0  0
  141.3776   70.7263  229.2199 H   0  0  0  0  0  0  0  0  0  0  0  0
  139.8998   68.9091  228.3582 H   0  0  0  0  0  0  0  0  0  0  0  0
  139.0084   69.0183  226.0808 H   0  0  0  0  0  0  0  0  0  0  0  0
  140.6184   73.9443  221.1597 H   0  0  0  0  0  0  0  0  0  0  0  0
  142.1484   75.8802  221.2634 H   0  0  0  0  0  0  0  0  0  0  0  0
  142.5009   78.1559  221.8493 H   0  0  0  0  0  0  0  0  0  0  0  0
  139.2950   80.3977  223.5792 H   0  0  0  0  0  0  0  0  0  0  0  0
  137.7761   78.4428  223.4672 H   0  0  0  0  0  0  0  0  0  0  0  0
  1  2  2  0
  2  3  1  0
  3  4  1  0
  4  5  1  0
  5  6  2  0
  5  7  1  0
  7  8  1  0
  8  9  1  0
  9 10  1  0
 10 11  1  0
 11 12  1  0
 12 13  1  0
 13 14  2  0
 14 15  1  0
 15 16  2  0
 16 17  1  0
 17 18  2  0
  2 19  1  0
 19 20  2  0
 20 21  1  0
 21 22  2  0
 22 23  1  0
 23 24  2  0
 24 25  1  0
 24 26  1  0
 26 27  2  0
 27 28  1  0
 28 29  2  0
 11  7  1  0
 18 13  1  0
 29 19  1  0
 28 22  1  0
  3 30  1  0
  4 31  1  0
  4 32  1  0
  8 33  1  0
  8 34  1  0
  9 35  1  0
  9 36  1  0
 10 37  1  0
 10 38  1  0
 11 39  1  1
 12 40  1  0
 12 41  1  0
 14 42  1  0
 15 43  1  0
 16 44  1  0
 17 45  1  0
 18 46  1  0
 20 47  1  0
 21 48  1  0
 23 49  1  0
 26 50  1  0
 27 51  1  0
M  END
>  <smiles>  (66) 
O=C(NCC(=O)N1CCCC1Cc1ccccc1)c1ccc2cc(Cl)ccc2n1

>  <score_type>  (66) 
oracle

>  <origin>  (66) 
autodockgpu

>  <m_score__min__energy>  (66) 
-8.9499999999999993

>  <m_primary>  (66) 
energy

>  <rmsd>  (66) 
7.6576351306502985

>  <m_score__min__rmsd>  (66) 
7.6576351306502985

>  <meeko>  (66) 
{"free_energy": -7.64, "intermolecular_energy": -9.43, "internal_energy": -1.92, "cluster_size": 3, "cluster_id": 3, "rank_in_cluster": 3}

>  <energy>  (66) 
-8.54

>  <cluster_rmsd>  (66) 
1.33

>  <cluster>  (66) 
1

$$$$

     RDKit          3D

 51 54  0  0  0  0  0  0  0  0999 V2000
  139.0480   71.8540  220.8310 O   0  0  0  0  0  0  0  0  0  0  0  0
  139.2960   72.3800  221.9710 C   0  0  0  0  0  0  0  0  0  0  0  0
  139.3270   73.7970  222.1410 N   0  0  0  0  0  0  0  0  0  0  0  0
  139.0750   74.7130  221.0740 C   0  0  0  0  0  0  0  0  0  0  0  0
  139.8740   74.6560  219.8650 C   0  0  0  0  0  0  0  0  0  0  0  0
  139.3120   73.9750  218.9020 O   0  0  0  0  0  0  0  0  0  0  0  0
  141.1420   75.2090  219.5860 N   0  0  0  0  0  0  0  0  0  0  0  0
  142.0540   74.8960  218.4690 C   0  0  0  0  0  0  0  0  0  0  0  0
  142.9520   76.1400  218.3970 C   0  0  0  0  0  0  0  0  0  0  0  0
  143.1030   76.5210  219.8770 C   0  0  0  0  0  0  0  0  0  0  0  0
  141.7530   76.2350  220.4160 C   0  0  1  0  0  0  0  0  0  0  0  0
  140.9170   77.4380  220.6670 C   0  0  0  0  0  0  0  0  0  0  0  0
  141.3950   78.3480  221.7260 C   0  0  0  0  0  0  0  0  0  0  0  0
  141.9350   79.5980  221.3920 C   0  0  0  0  0  0  0  0  0  0  0  0
  142.3920   80.4700  222.3650 C   0  0  0  0  0  0  0  0  0  0  0  0
  142.3390   80.1480  223.7050 C   0  0  0  0  0  0  0  0  0  0  0  0
  141.8110   78.9220  224.0500 C   0  0  0  0  0  0  0  0  0  0  0  0
  141.3580   78.0610  223.0710 C   0  0  0  0  0  0  0  0  0  0  0  0
  139.5530   71.4870  223.1210 C   0  0  0  0  0  0  0  0  0  0  0  0
  139.2430   70.1480  223.0250 C   0  0  0  0  0  0  0  0  0  0  0  0
  139.4470   69.2450  224.0400 C   0  0  0  0  0  0  0  0  0  0  0  0
  139.9960   69.7370  225.2120 C   0  0  0  0  0  0  0  0  0  0  0  0
  140.2110   68.8520  226.2440 C   0  0  0  0  0  0  0  0  0  0  0  0
  140.7570   69.3440  227.4080 C   0  0  0  0  0  0  0  0  0  0  0  0
  141.0250   68.2010  228.7200 Cl  0  0  0  0  0  0  0  0  0  0  0  0
  141.0640   70.6730  227.5010 C   0  0  0  0  0  0  0  0  0  0  0  0
  140.8520   71.5700  226.4690 C   0  0  0  0  0  0  0  0  0  0  0  0
  140.2980   71.0810  225.2830 C   0  0  0  0  0  0  0  0  0  0  0  0
  140.0790   71.9300  224.2560 N   0  0  0  0  0  0  0  0  0  0  0  0
  139.5550   74.1100  223.1350 H   0  0  0  0  0  0  0  0  0  0  0  0
  138.0281   74.5659  220.7699 H   0  0  0  0  0  0  0  0  0  0  0  0
  139.3435   75.6872  221.5086 H   0  0  0  0  0  0  0  0  0  0  0  0
  142.6453   73.9934  218.6825 H   0  0  0  0  0  0  0  0  0  0  0  0
  141.5281   74.6859  217.5260 H   0  0  0  0  0  0  0  0  0  0  0  0
  143.9265   75.9022  217.9455 H   0  0  0  0  0  0  0  0  0  0  0  0
  142.5376   76.9468  217.7746 H   0  0  0  0  0  0  0  0  0  0  0  0
  143.8681   75.9042  220.3711 H   0  0  0  0  0  0  0  0  0  0  0  0
  143.4286   77.5600  220.0333 H   0  0  0  0  0  0  0  0  0  0  0  0
  141.8482   75.8388  221.4377 H   0  0  0  0  0  0  0  0  0  0  0  0
  140.8623   78.0114  219.7299 H   0  0  0  0  0  0  0  0  0  0  0  0
  139.9468   77.0571  221.0187 H   0  0  0  0  0  0  0  0  0  0  0  0
  141.9968   79.8921  220.3339 H   0  0  0  0  0  0  0  0  0  0  0  0
  142.8072   81.4426  222.0624 H   0  0  0  0  0  0  0  0  0  0  0  0
  142.7055   80.8456  224.4724 H   0  0  0  0  0  0  0  0  0  0  0  0
  141.7506   78.6292  225.1086 H   0  0  0  0  0  0  0  0  0  0  0  0
  140.9442   77.0909  223.3837 H   0  0  0  0  0  0  0  0  0  0  0  0
  138.8080   69.7817  222.0834 H   0  0  0  0  0  0  0  0  0  0  0  0
  139.1867   68.1822  223.9270 H   0  0  0  0  0  0  0  0  0  0  0  0
  139.9551   67.7871  226.1421 H   0  0  0  0  0  0  0  0  0  0  0  0
  141.4996   71.0464  228.4395 H   0  0  0  0  0  0  0  0  0  0  0  0
  141.1111   72.6334  226.5786 H   0  0  0  0  0  0  0  0  0  0  0  0
  1  2  2  0
  2  3  1  0
  3  4  1  0
  4  5  1  0
  5  6  2  0
  5  7  1  0
  7  8  1  0
  8  9  1  0
  9 10  1  0
 10 11  1  0
 11 12  1  0
 12 13  1  0
 13 14  2  0
 14 15  1  0
 15 16  2  0
 16 17  1  0
 17 18  2  0
  2 19  1  0
 19 20  2  0
 20 21  1  0
 21 22  2  0
 22 23  1  0
 23 24  2  0
 24 25  1  0
 24 26  1  0
 26 27  2  0
 27 28  1  0
 28 29  2  0
 11  7  1  0
 18 13  1  0
 29 19  1  0
 28 22  1  0
  3 30  1  0
  4 31  1  0
  4 32  1  0
  8 33  1  0
  8 34  1  0
  9 35  1  0
  9 36  1  0
 10 37  1  0
 10 38  1  0
 11 39  1  1
 12 40  1  0
 12 41  1  0
 14 42  1  0
 15 43  1  0
 16 44  1  0
 17 45  1  0
 18 46  1  0
 20 47  1  0
 21 48  1  0
 23 49  1  0
 26 50  1  0
 27 51  1  0
M  END
>  <smiles>  (67) 
O=C(NCC(=O)N1CCCC1Cc1ccccc1)c1ccc2cc(Cl)ccc2n1

>  <score_type>  (67) 
oracle

>  <origin>  (67) 
autodockgpu

>  <m_score__min__energy>  (67) 
-8.9499999999999993

>  <m_primary>  (67) 
energy

>  <rmsd>  (67) 
1.9297174715903394

>  <m_score__min__rmsd>  (67) 
1.9297174715903394

>  <meeko>  (67) 
{"free_energy": -8.44, "intermolecular_energy": -10.23, "internal_energy": -1.52, "cluster_size": 35, "cluster_id": 1, "rank_in_cluster": 22}

>  <energy>  (67) 
-8.54

>  <cluster_rmsd>  (67) 
1.31

>  <cluster>  (67) 
1

$$$$

     RDKit          3D

 51 54  0  0  0  0  0  0  0  0999 V2000
  139.6940   71.8440  220.7050 O   0  0  0  0  0  0  0  0  0  0  0  0
  139.5440   72.3400  221.8760 C   0  0  0  0  0  0  0  0  0  0  0  0
  139.2080   73.7150  222.0580 N   0  0  0  0  0  0  0  0  0  0  0  0
  139.0070   74.6170  220.9690 C   0  0  0  0  0  0  0  0  0  0  0  0
  139.8780   75.7650  220.8090 C   0  0  0  0  0  0  0  0  0  0  0  0
  139.5010   76.8060  221.5030 O   0  0  0  0  0  0  0  0  0  0  0  0
  141.0430   75.9200  220.0260 N   0  0  0  0  0  0  0  0  0  0  0  0
  141.4580   75.1520  218.8360 C   0  0  0  0  0  0  0  0  0  0  0  0
  142.4560   76.0950  218.1480 C   0  0  0  0  0  0  0  0  0  0  0  0
  143.1610   76.7540  219.3410 C   0  0  0  0  0  0  0  0  0  0  0  0
  142.0500   76.9300  220.3060 C   0  0  1  0  0  0  0  0  0  0  0  0
  141.5450   78.3240  220.4240 C   0  0  0  0  0  0  0  0  0  0  0  0
  141.7750   78.9880  221.7220 C   0  0  0  0  0  0  0  0  0  0  0  0
  142.2450   80.3070  221.7660 C   0  0  0  0  0  0  0  0  0  0  0  0
  142.4710   80.9520  222.9700 C   0  0  0  0  0  0  0  0  0  0  0  0
  142.2440   80.3270  224.1780 C   0  0  0  0  0  0  0  0  0  0  0  0
  141.7820   79.0280  224.1510 C   0  0  0  0  0  0  0  0  0  0  0  0
  141.5600   78.3950  222.9450 C   0  0  0  0  0  0  0  0  0  0  0  0
  139.7260   71.4560  223.0470 C   0  0  0  0  0  0  0  0  0  0  0  0
  139.3560   70.1310  222.9630 C   0  0  0  0  0  0  0  0  0  0  0  0
  139.4880   69.2380  223.9990 C   0  0  0  0  0  0  0  0  0  0  0  0
  140.0270   69.7240  225.1780 C   0  0  0  0  0  0  0  0  0  0  0  0
  140.1690   68.8480  226.2290 C   0  0  0  0  0  0  0  0  0  0  0  0
  140.7050   69.3340  227.4020 C   0  0  0  0  0  0  0  0  0  0  0  0
  140.8820   68.2030  228.7390 Cl  0  0  0  0  0  0  0  0  0  0  0  0
  141.0720   70.6490  227.4820 C   0  0  0  0  0  0  0  0  0  0  0  0
  140.9320   71.5370  226.4290 C   0  0  0  0  0  0  0  0  0  0  0  0
  140.3890   71.0530  225.2360 C   0  0  0  0  0  0  0  0  0  0  0  0
  140.2400   71.8940  224.1890 N   0  0  0  0  0  0  0  0  0  0  0  0
  139.1220   74.0080  223.0810 H   0  0  0  0  0  0  0  0  0  0  0  0
  139.0900   74.0242  220.0461 H   0  0  0  0  0  0  0  0  0  0  0  0
  138.0298   75.0699  221.1925 H   0  0  0  0  0  0  0  0  0  0  0  0
  141.9412   74.2067  219.1241 H   0  0  0  0  0  0  0  0  0  0  0  0
  140.6156   74.8652  218.1893 H   0  0  0  0  0  0  0  0  0  0  0  0
  143.1683   75.5347  217.5245 H   0  0  0  0  0  0  0  0  0  0  0  0
  141.9818   76.8149  217.4647 H   0  0  0  0  0  0  0  0  0  0  0  0
  143.9451   76.1006  219.7510 H   0  0  0  0  0  0  0  0  0  0  0  0
  143.6755   77.6921  219.0855 H   0  0  0  0  0  0  0  0  0  0  0  0
  142.4273   76.7651  221.3260 H   0  0  0  0  0  0  0  0  0  0  0  0
  142.0361   78.9268  219.6459 H   0  0  0  0  0  0  0  0  0  0  0  0
  140.4525   78.2537  220.3164 H   0  0  0  0  0  0  0  0  0  0  0  0
  142.4385   80.8414  220.8242 H   0  0  0  0  0  0  0  0  0  0  0  0
  142.8405   81.9880  222.9628 H   0  0  0  0  0  0  0  0  0  0  0  0
  142.4252   80.8467  225.1304 H   0  0  0  0  0  0  0  0  0  0  0  0
  141.5898   78.4947  225.0937 H   0  0  0  0  0  0  0  0  0  0  0  0
  141.1907   77.3590  222.9623 H   0  0  0  0  0  0  0  0  0  0  0  0
  138.9319   69.7686  222.0149 H   0  0  0  0  0  0  0  0  0  0  0  0
  139.1801   68.1870  223.8965 H   0  0  0  0  0  0  0  0  0  0  0  0
  139.8650   67.7949  226.1364 H   0  0  0  0  0  0  0  0  0  0  0  0
  141.4981   71.0182  228.4265 H   0  0  0  0  0  0  0  0  0  0  0  0
  141.2382   72.5889  226.5283 H   0  0  0  0  0  0  0  0  0  0  0  0
  1  2  2  0
  2  3  1  0
  3  4  1  0
  4  5  1  0
  5  6  2  0
  5  7  1  0
  7  8  1  0
  8  9  1  0
  9 10  1  0
 10 11  1  0
 11 12  1  0
 12 13  1  0
 13 14  2  0
 14 15  1  0
 15 16  2  0
 16 17  1  0
 17 18  2  0
  2 19  1  0
 19 20  2  0
 20 21  1  0
 21 22  2  0
 22 23  1  0
 23 24  2  0
 24 25  1  0
 24 26  1  0
 26 27  2  0
 27 28  1  0
 28 29  2  0
 11  7  1  0
 18 13  1  0
 29 19  1  0
 28 22  1  0
  3 30  1  0
  4 31  1  0
  4 32  1  0
  8 33  1  0
  8 34  1  0
  9 35  1  0
  9 36  1  0
 10 37  1  0
 10 38  1  0
 11 39  1  1
 12 40  1  0
 12 41  1  0
 14 42  1  0
 15 43  1  0
 16 44  1  0
 17 45  1  0
 18 46  1  0
 20 47  1  0
 21 48  1  0
 23 49  1  0
 26 50  1  0
 27 51  1  0
M  END
>  <smiles>  (68) 
O=C(NCC(=O)N1CCCC1Cc1ccccc1)c1ccc2cc(Cl)ccc2n1

>  <score_type>  (68) 
oracle

>  <origin>  (68) 
autodockgpu

>  <m_score__min__energy>  (68) 
-8.9499999999999993

>  <m_primary>  (68) 
energy

>  <rmsd>  (68) 
1.6367861386597775

>  <m_score__min__rmsd>  (68) 
1.6367861386597775

>  <meeko>  (68) 
{"free_energy": -8.8, "intermolecular_energy": -10.59, "internal_energy": -1.36, "cluster_size": 35, "cluster_id": 1, "rank_in_cluster": 4}

>  <energy>  (68) 
-8.54

>  <cluster_rmsd>  (68) 
1.05

>  <cluster>  (68) 
1

$$$$

     RDKit          3D

 51 54  0  0  0  0  0  0  0  0999 V2000
  140.4100   72.4300  220.9670 O   0  0  0  0  0  0  0  0  0  0  0  0
  139.6450   72.5800  221.9820 C   0  0  0  0  0  0  0  0  0  0  0  0
  138.6670   73.6180  222.0230 N   0  0  0  0  0  0  0  0  0  0  0  0
  138.4650   74.5390  220.9500 C   0  0  0  0  0  0  0  0  0  0  0  0
  138.6980   75.9550  221.1570 C   0  0  0  0  0  0  0  0  0  0  0  0
  137.8260   76.5150  221.9540 O   0  0  0  0  0  0  0  0  0  0  0  0
  139.7000   76.7990  220.6330 N   0  0  0  0  0  0  0  0  0  0  0  0
  139.6350   77.6720  219.4450 C   0  0  0  0  0  0  0  0  0  0  0  0
  140.7580   78.6890  219.7030 C   0  0  0  0  0  0  0  0  0  0  0  0
  141.8290   77.8290  220.3870 C   0  0  0  0  0  0  0  0  0  0  0  0
  141.0150   76.9300  221.2390 C   0  0  1  0  0  0  0  0  0  0  0  0
  141.0220   77.2720  222.6860 C   0  0  0  0  0  0  0  0  0  0  0  0
  141.3160   78.6800  223.0170 C   0  0  0  0  0  0  0  0  0  0  0  0
  140.2690   79.5950  223.1990 C   0  0  0  0  0  0  0  0  0  0  0  0
  140.5170   80.9220  223.5080 C   0  0  0  0  0  0  0  0  0  0  0  0
  141.8020   81.4020  223.6470 C   0  0  0  0  0  0  0  0  0  0  0  0
  142.8420   80.5150  223.4710 C   0  0  0  0  0  0  0  0  0  0  0  0
  142.5830   79.1950  223.1640 C   0  0  0  0  0  0  0  0  0  0  0  0
  139.7940   71.6510  223.1230 C   0  0  0  0  0  0  0  0  0  0  0  0
  139.3930   70.3400  222.9890 C   0  0  0  0  0  0  0  0  0  0  0  0
  139.4930   69.4080  223.9940 C   0  0  0  0  0  0  0  0  0  0  0  0
  140.0310   69.8390  225.1940 C   0  0  0  0  0  0  0  0  0  0  0  0
  140.1420   68.9240  226.2160 C   0  0  0  0  0  0  0  0  0  0  0  0
  140.6760   69.3550  227.4090 C   0  0  0  0  0  0  0  0  0  0  0  0
  140.8120   68.1740  228.7070 Cl  0  0  0  0  0  0  0  0  0  0  0  0
  141.0730   70.6570  227.5400 C   0  0  0  0  0  0  0  0  0  0  0  0
  140.9650   71.5850  226.5180 C   0  0  0  0  0  0  0  0  0  0  0  0
  140.4240   71.1560  225.3030 C   0  0  0  0  0  0  0  0  0  0  0  0
  140.3060   72.0360  224.2850 N   0  0  0  0  0  0  0  0  0  0  0  0
  138.1000   73.6440  222.9280 H   0  0  0  0  0  0  0  0  0  0  0  0
  139.1293   74.2241  220.1318 H   0  0  0  0  0  0  0  0  0  0  0  0
  137.3811   74.4845  220.7704 H   0  0  0  0  0  0  0  0  0  0  0  0
  139.8225   77.1009  218.5237 H   0  0  0  0  0  0  0  0  0  0  0  0
  138.6496   78.1401  219.3039 H   0  0  0  0  0  0  0  0  0  0  0  0
  141.1323   79.1163  218.7610 H   0  0  0  0  0  0  0  0  0  0  0  0
  140.4389   79.5539  220.3031 H   0  0  0  0  0  0  0  0  0  0  0  0
  142.4127   77.2585  219.6495 H   0  0  0  0  0  0  0  0  0  0  0  0
  142.5720   78.4146  220.9483 H   0  0  0  0  0  0  0  0  0  0  0  0
  141.4825   75.9346  221.2637 H   0  0  0  0  0  0  0  0  0  0  0  0
  140.0292   77.0308  223.0936 H   0  0  0  0  0  0  0  0  0  0  0  0
  141.8434   76.6866  223.1249 H   0  0  0  0  0  0  0  0  0  0  0  0
  139.2292   79.2516  223.0942 H   0  0  0  0  0  0  0  0  0  0  0  0
  139.6691   81.6090  223.6457 H   0  0  0  0  0  0  0  0  0  0  0  0
  141.9909   82.4580  223.8903 H   0  0  0  0  0  0  0  0  0  0  0  0
  143.8812   80.8603  223.5755 H   0  0  0  0  0  0  0  0  0  0  0  0
  143.4380   78.5162  223.0292 H   0  0  0  0  0  0  0  0  0  0  0  0
  138.9696   70.0217  222.0249 H   0  0  0  0  0  0  0  0  0  0  0  0
  139.1612   68.3690  223.8514 H   0  0  0  0  0  0  0  0  0  0  0  0
  139.8146   67.8822  226.0837 H   0  0  0  0  0  0  0  0  0  0  0  0
  141.4976   70.9820  228.5013 H   0  0  0  0  0  0  0  0  0  0  0  0
  141.2941   72.6253  226.6578 H   0  0  0  0  0  0  0  0  0  0  0  0
  1  2  2  0
  2  3  1  0
  3  4  1  0
  4  5  1  0
  5  6  2  0
  5  7  1  0
  7  8  1  0
  8  9  1  0
  9 10  1  0
 10 11  1  0
 11 12  1  0
 12 13  1  0
 13 14  2  0
 14 15  1  0
 15 16  2  0
 16 17  1  0
 17 18  2  0
  2 19  1  0
 19 20  2  0
 20 21  1  0
 21 22  2  0
 22 23  1  0
 23 24  2  0
 24 25  1  0
 24 26  1  0
 26 27  2  0
 27 28  1  0
 28 29  2  0
 11  7  1  0
 18 13  1  0
 29 19  1  0
 28 22  1  0
  3 30  1  0
  4 31  1  0
  4 32  1  0
  8 33  1  0
  8 34  1  0
  9 35  1  0
  9 36  1  0
 10 37  1  0
 10 38  1  0
 11 39  1  1
 12 40  1  0
 12 41  1  0
 14 42  1  0
 15 43  1  0
 16 44  1  0
 17 45  1  0
 18 46  1  0
 20 47  1  0
 21 48  1  0
 23 49  1  0
 26 50  1  0
 27 51  1  0
M  END
>  <smiles>  (69) 
O=C(NCC(=O)N1CCCC1Cc1ccccc1)c1ccc2cc(Cl)ccc2n1

>  <score_type>  (69) 
oracle

>  <origin>  (69) 
autodockgpu

>  <m_score__min__energy>  (69) 
-8.9499999999999993

>  <m_primary>  (69) 
energy

>  <rmsd>  (69) 
1.8382415283555273

>  <m_score__min__rmsd>  (69) 
1.8382415283555273

>  <meeko>  (69) 
{"free_energy": -8.95, "intermolecular_energy": -10.74, "internal_energy": -1.45, "cluster_size": 35, "cluster_id": 1, "rank_in_cluster": 1}

>  <energy>  (69) 
-8.53

>  <cluster_rmsd>  (69) 
1.49

>  <cluster>  (69) 
1

$$$$

     RDKit          3D

 51 54  0  0  0  0  0  0  0  0999 V2000
  138.4530   71.4960  221.2760 O   0  0  0  0  0  0  0  0  0  0  0  0
  139.0130   72.0410  222.2900 C   0  0  0  0  0  0  0  0  0  0  0  0
  139.3060   73.4370  222.3110 N   0  0  0  0  0  0  0  0  0  0  0  0
  138.9900   74.3150  221.2290 C   0  0  0  0  0  0  0  0  0  0  0  0
  138.8670   75.7400  221.4640 C   0  0  0  0  0  0  0  0  0  0  0  0
  137.9770   76.0430  222.3720 O   0  0  0  0  0  0  0  0  0  0  0  0
  139.5480   76.8230  220.8660 N   0  0  0  0  0  0  0  0  0  0  0  0
  139.0770   77.7240  219.7970 C   0  0  0  0  0  0  0  0  0  0  0  0
  139.9770   78.9580  219.9640 C   0  0  0  0  0  0  0  0  0  0  0  0
  141.3170   78.3330  220.3760 C   0  0  0  0  0  0  0  0  0  0  0  0
  140.8900   77.2220  221.2580 C   0  0  1  0  0  0  0  0  0  0  0  0
  141.0860   77.4720  222.7110 C   0  0  0  0  0  0  0  0  0  0  0  0
  141.4260   78.8580  223.0880 C   0  0  0  0  0  0  0  0  0  0  0  0
  142.7630   79.2780  223.0970 C   0  0  0  0  0  0  0  0  0  0  0  0
  143.1100   80.5710  223.4480 C   0  0  0  0  0  0  0  0  0  0  0  0
  142.1580   81.5020  223.8060 C   0  0  0  0  0  0  0  0  0  0  0  0
  140.8380   81.1040  223.8020 C   0  0  0  0  0  0  0  0  0  0  0  0
  140.5040   79.8120  223.4500 C   0  0  0  0  0  0  0  0  0  0  0  0
  139.3550   71.1900  223.4500 C   0  0  0  0  0  0  0  0  0  0  0  0
  139.1060   69.8370  223.3970 C   0  0  0  0  0  0  0  0  0  0  0  0
  139.3900   68.9710  224.4260 C   0  0  0  0  0  0  0  0  0  0  0  0
  139.9580   69.5170  225.5630 C   0  0  0  0  0  0  0  0  0  0  0  0
  140.2520   68.6700  226.6070 C   0  0  0  0  0  0  0  0  0  0  0  0
  140.8170   69.2170  227.7380 C   0  0  0  0  0  0  0  0  0  0  0  0
  141.1880   68.1220  229.0650 Cl  0  0  0  0  0  0  0  0  0  0  0  0
  141.0630   70.5610  227.7880 C   0  0  0  0  0  0  0  0  0  0  0  0
  140.7700   71.4210  226.7430 C   0  0  0  0  0  0  0  0  0  0  0  0
  140.1970   70.8750  225.5910 C   0  0  0  0  0  0  0  0  0  0  0  0
  139.9000   71.6870  224.5530 N   0  0  0  0  0  0  0  0  0  0  0  0
  139.7820   73.7670  223.2070 H   0  0  0  0  0  0  0  0  0  0  0  0
  139.7789   74.1847  220.4736 H   0  0  0  0  0  0  0  0  0  0  0  0
  137.9688   74.0157  220.9506 H   0  0  0  0  0  0  0  0  0  0  0  0
  139.2130   77.2666  218.8059 H   0  0  0  0  0  0  0  0  0  0  0  0
  138.0043   77.9570  219.8676 H   0  0  0  0  0  0  0  0  0  0  0  0
  140.0704   79.5136  219.0192 H   0  0  0  0  0  0  0  0  0  0  0  0
  139.5910   79.6895  220.6892 H   0  0  0  0  0  0  0  0  0  0  0  0
  141.8672   77.9576  219.5006 H   0  0  0  0  0  0  0  0  0  0  0  0
  142.0026   79.0425  220.8623 H   0  0  0  0  0  0  0  0  0  0  0  0
  141.5611   76.3633  221.1087 H   0  0  0  0  0  0  0  0  0  0  0  0
  140.1535   77.2015  223.2280 H   0  0  0  0  0  0  0  0  0  0  0  0
  141.9546   76.8633  223.0026 H   0  0  0  0  0  0  0  0  0  0  0  0
  143.5532   78.5650  222.8193 H   0  0  0  0  0  0  0  0  0  0  0  0
  144.1705   80.8629  223.4412 H   0  0  0  0  0  0  0  0  0  0  0  0
  142.4420   82.5273  224.0853 H   0  0  0  0  0  0  0  0  0  0  0  0
  140.0489   81.8181  224.0801 H   0  0  0  0  0  0  0  0  0  0  0  0
  139.4409   79.5295  223.4595 H   0  0  0  0  0  0  0  0  0  0  0  0
  138.6552   69.4266  222.4813 H   0  0  0  0  0  0  0  0  0  0  0  0
  139.1758   67.8948  224.3490 H   0  0  0  0  0  0  0  0  0  0  0  0
  140.0428   67.5921  226.5406 H   0  0  0  0  0  0  0  0  0  0  0  0
  141.5144   70.9783  228.7002 H   0  0  0  0  0  0  0  0  0  0  0  0
  140.9812   72.4980  226.8170 H   0  0  0  0  0  0  0  0  0  0  0  0
  1  2  2  0
  2  3  1  0
  3  4  1  0
  4  5  1  0
  5  6  2  0
  5  7  1  0
  7  8  1  0
  8  9  1  0
  9 10  1  0
 10 11  1  0
 11 12  1  0
 12 13  1  0
 13 14  2  0
 14 15  1  0
 15 16  2  0
 16 17  1  0
 17 18  2  0
  2 19  1  0
 19 20  2  0
 20 21  1  0
 21 22  2  0
 22 23  1  0
 23 24  2  0
 24 25  1  0
 24 26  1  0
 26 27  2  0
 27 28  1  0
 28 29  2  0
 11  7  1  0
 18 13  1  0
 29 19  1  0
 28 22  1  0
  3 30  1  0
  4 31  1  0
  4 32  1  0
  8 33  1  0
  8 34  1  0
  9 35  1  0
  9 36  1  0
 10 37  1  0
 10 38  1  0
 11 39  1  6
 12 40  1  0
 12 41  1  0
 14 42  1  0
 15 43  1  0
 16 44  1  0
 17 45  1  0
 18 46  1  0
 20 47  1  0
 21 48  1  0
 23 49  1  0
 26 50  1  0
 27 51  1  0
M  END
>  <smiles>  (70) 
O=C(NCC(=O)N1CCCC1Cc1ccccc1)c1ccc2cc(Cl)ccc2n1

>  <score_type>  (70) 
oracle

>  <origin>  (70) 
autodockgpu

>  <m_score__min__energy>  (70) 
-8.9499999999999993

>  <m_primary>  (70) 
energy

>  <rmsd>  (70) 
1.7883657534464448

>  <m_score__min__rmsd>  (70) 
1.7883657534464448

>  <meeko>  (70) 
{"free_energy": -8.64, "intermolecular_energy": -10.43, "internal_energy": -1.57, "cluster_size": 35, "cluster_id": 1, "rank_in_cluster": 13}

>  <energy>  (70) 
-8.47

>  <cluster_rmsd>  (70) 
1.13

>  <cluster>  (70) 
1

$$$$

     RDKit          3D

 51 54  0  0  0  0  0  0  0  0999 V2000
  139.2780   71.8920  220.8640 O   0  0  0  0  0  0  0  0  0  0  0  0
  139.4260   72.4040  222.0280 C   0  0  0  0  0  0  0  0  0  0  0  0
  139.3730   73.8160  222.2260 N   0  0  0  0  0  0  0  0  0  0  0  0
  139.1400   74.7430  221.1640 C   0  0  0  0  0  0  0  0  0  0  0  0
  140.2350   75.1500  220.3050 C   0  0  0  0  0  0  0  0  0  0  0  0
  140.9240   74.1460  219.8300 O   0  0  0  0  0  0  0  0  0  0  0  0
  140.6600   76.4400  219.9220 N   0  0  0  0  0  0  0  0  0  0  0  0
  140.3490   77.1770  218.6810 C   0  0  0  0  0  0  0  0  0  0  0  0
  140.6120   78.6390  219.0730 C   0  0  0  0  0  0  0  0  0  0  0  0
  141.8180   78.5140  220.0140 C   0  0  0  0  0  0  0  0  0  0  0  0
  141.5100   77.2700  220.7590 C   0  0  1  0  0  0  0  0  0  0  0  0
  141.0300   77.4820  222.1500 C   0  0  0  0  0  0  0  0  0  0  0  0
  141.3010   78.8110  222.7320 C   0  0  0  0  0  0  0  0  0  0  0  0
  142.6080   79.1750  223.0820 C   0  0  0  0  0  0  0  0  0  0  0  0
  142.8900   80.4140  223.6310 C   0  0  0  0  0  0  0  0  0  0  0  0
  141.8980   81.3440  223.8600 C   0  0  0  0  0  0  0  0  0  0  0  0
  140.6060   81.0010  223.5220 C   0  0  0  0  0  0  0  0  0  0  0  0
  140.3370   79.7630  222.9750 C   0  0  0  0  0  0  0  0  0  0  0  0
  139.6580   71.4990  223.1740 C   0  0  0  0  0  0  0  0  0  0  0  0
  139.3460   70.1620  223.0580 C   0  0  0  0  0  0  0  0  0  0  0  0
  139.5270   69.2490  224.0690 C   0  0  0  0  0  0  0  0  0  0  0  0
  140.0530   69.7270  225.2560 C   0  0  0  0  0  0  0  0  0  0  0  0
  140.2440   68.8320  226.2830 C   0  0  0  0  0  0  0  0  0  0  0  0
  140.7670   69.3110  227.4640 C   0  0  0  0  0  0  0  0  0  0  0  0
  141.0060   68.1550  228.7690 Cl  0  0  0  0  0  0  0  0  0  0  0  0
  141.0760   70.6390  227.5760 C   0  0  0  0  0  0  0  0  0  0  0  0
  140.8870   71.5470  226.5480 C   0  0  0  0  0  0  0  0  0  0  0  0
  140.3570   71.0700  225.3460 C   0  0  0  0  0  0  0  0  0  0  0  0
  140.1610   71.9300  224.3240 N   0  0  0  0  0  0  0  0  0  0  0  0
  139.5220   74.1180  223.2400 H   0  0  0  0  0  0  0  0  0  0  0  0
  138.3751   74.2946  220.5129 H   0  0  0  0  0  0  0  0  0  0  0  0
  138.8734   75.6708  221.6915 H   0  0  0  0  0  0  0  0  0  0  0  0
  141.0089   76.8632  217.8588 H   0  0  0  0  0  0  0  0  0  0  0  0
  139.3254   77.0027  218.3180 H   0  0  0  0  0  0  0  0  0  0  0  0
  140.8563   79.2499  218.1915 H   0  0  0  0  0  0  0  0  0  0  0  0
  139.7442   79.1344  219.5329 H   0  0  0  0  0  0  0  0  0  0  0  0
  142.7564   78.4175  219.4482 H   0  0  0  0  0  0  0  0  0  0  0  0
  141.9637   79.3908  220.6621 H   0  0  0  0  0  0  0  0  0  0  0  0
  142.4444   76.7218  220.9497 H   0  0  0  0  0  0  0  0  0  0  0  0
  139.9410   77.3268  222.1577 H   0  0  0  0  0  0  0  0  0  0  0  0
  141.5907   76.7667  222.7697 H   0  0  0  0  0  0  0  0  0  0  0  0
  143.4279   78.4605  222.9169 H   0  0  0  0  0  0  0  0  0  0  0  0
  143.9296   80.6625  223.8906 H   0  0  0  0  0  0  0  0  0  0  0  0
  142.1295   82.3263  224.2975 H   0  0  0  0  0  0  0  0  0  0  0  0
  139.7872   81.7164  223.6889 H   0  0  0  0  0  0  0  0  0  0  0  0
  139.2943   79.5237  222.7190 H   0  0  0  0  0  0  0  0  0  0  0  0
  138.9293   69.8060  222.1042 H   0  0  0  0  0  0  0  0  0  0  0  0
  139.2660   68.1882  223.9406 H   0  0  0  0  0  0  0  0  0  0  0  0
  139.9876   67.7688  226.1651 H   0  0  0  0  0  0  0  0  0  0  0  0
  141.4939   71.0021  228.5266 H   0  0  0  0  0  0  0  0  0  0  0  0
  141.1455   72.6088  226.6732 H   0  0  0  0  0  0  0  0  0  0  0  0
  1  2  2  0
  2  3  1  0
  3  4  1  0
  4  5  1  0
  5  6  2  0
  5  7  1  0
  7  8  1  0
  8  9  1  0
  9 10  1  0
 10 11  1  0
 11 12  1  0
 12 13  1  0
 13 14  2  0
 14 15  1  0
 15 16  2  0
 16 17  1  0
 17 18  2  0
  2 19  1  0
 19 20  2  0
 20 21  1  0
 21 22  2  0
 22 23  1  0
 23 24  2  0
 24 25  1  0
 24 26  1  0
 26 27  2  0
 27 28  1  0
 28 29  2  0
 11  7  1  0
 18 13  1  0
 29 19  1  0
 28 22  1  0
  3 30  1  0
  4 31  1  0
  4 32  1  0
  8 33  1  0
  8 34  1  0
  9 35  1  0
  9 36  1  0
 10 37  1  0
 10 38  1  0
 11 39  1  1
 12 40  1  0
 12 41  1  0
 14 42  1  0
 15 43  1  0
 16 44  1  0
 17 45  1  0
 18 46  1  0
 20 47  1  0
 21 48  1  0
 23 49  1  0
 26 50  1  0
 27 51  1  0
M  END
>  <smiles>  (71) 
O=C(NCC(=O)N1CCCC1Cc1ccccc1)c1ccc2cc(Cl)ccc2n1

>  <score_type>  (71) 
oracle

>  <origin>  (71) 
autodockgpu

>  <m_score__min__energy>  (71) 
-8.9499999999999993

>  <m_primary>  (71) 
energy

>  <rmsd>  (71) 
1.7171447965444613

>  <m_score__min__rmsd>  (71) 
1.7171447965444613

>  <meeko>  (71) 
{"free_energy": -8.6, "intermolecular_energy": -10.39, "internal_energy": -1.47, "cluster_size": 35, "cluster_id": 1, "rank_in_cluster": 14}

>  <energy>  (71) 
-8.45

>  <cluster_rmsd>  (71) 
0.85

>  <cluster>  (71) 
1

$$$$

     RDKit          3D

 51 54  0  0  0  0  0  0  0  0999 V2000
  139.1060   72.3660  220.7740 O   0  0  0  0  0  0  0  0  0  0  0  0
  139.9470   72.6160  221.7050 C   0  0  0  0  0  0  0  0  0  0  0  0
  140.8630   73.7050  221.6000 N   0  0  0  0  0  0  0  0  0  0  0  0
  140.8990   74.5860  220.4760 C   0  0  0  0  0  0  0  0  0  0  0  0
  139.7940   75.4910  220.2300 C   0  0  0  0  0  0  0  0  0  0  0  0
  139.6460   75.8000  218.9690 O   0  0  0  0  0  0  0  0  0  0  0  0
  138.8800   76.0780  221.1320 N   0  0  0  0  0  0  0  0  0  0  0  0
  137.5160   75.6300  221.4770 C   0  0  0  0  0  0  0  0  0  0  0  0
  137.2660   76.3030  222.8350 C   0  0  0  0  0  0  0  0  0  0  0  0
  137.9810   77.6510  222.6710 C   0  0  0  0  0  0  0  0  0  0  0  0
  139.1860   77.2770  221.8940 C   0  0  1  0  0  0  0  0  0  0  0  0
  140.4440   77.2290  222.6860 C   0  0  0  0  0  0  0  0  0  0  0  0
  141.2290   78.4780  222.7300 C   0  0  0  0  0  0  0  0  0  0  0  0
  141.4240   79.2300  221.5630 C   0  0  0  0  0  0  0  0  0  0  0  0
  142.1570   80.4040  221.5770 C   0  0  0  0  0  0  0  0  0  0  0  0
  142.7290   80.8850  222.7360 C   0  0  0  0  0  0  0  0  0  0  0  0
  142.5460   80.1560  223.8920 C   0  0  0  0  0  0  0  0  0  0  0  0
  141.8130   78.9870  223.8670 C   0  0  0  0  0  0  0  0  0  0  0  0
  139.9540   71.7490  222.9030 C   0  0  0  0  0  0  0  0  0  0  0  0
  139.3390   70.5180  222.8550 C   0  0  0  0  0  0  0  0  0  0  0  0
  139.2960   69.6470  223.9170 C   0  0  0  0  0  0  0  0  0  0  0  0
  139.9120   70.0570  225.0860 C   0  0  0  0  0  0  0  0  0  0  0  0
  139.8830   69.2030  226.1640 C   0  0  0  0  0  0  0  0  0  0  0  0
  140.4960   69.6140  227.3270 C   0  0  0  0  0  0  0  0  0  0  0  0
  140.4510   68.5110  228.6980 Cl  0  0  0  0  0  0  0  0  0  0  0  0
  141.1060   70.8370  227.3720 C   0  0  0  0  0  0  0  0  0  0  0  0
  141.1410   71.7030  226.2930 C   0  0  0  0  0  0  0  0  0  0  0  0
  140.5210   71.2950  225.1090 C   0  0  0  0  0  0  0  0  0  0  0  0
  140.5370   72.1170  224.0370 N   0  0  0  0  0  0  0  0  0  0  0  0
  141.5190   73.8020  222.4370 H   0  0  0  0  0  0  0  0  0  0  0  0
  141.7997   75.2074  220.5881 H   0  0  0  0  0  0  0  0  0  0  0  0
  140.8617   73.9011  219.6161 H   0  0  0  0  0  0  0  0  0  0  0  0
  136.7865   75.9695  220.7270 H   0  0  0  0  0  0  0  0  0  0  0  0
  137.4140   74.5352  221.5098 H   0  0  0  0  0  0  0  0  0  0  0  0
  136.1904   76.4427  223.0180 H   0  0  0  0  0  0  0  0  0  0  0  0
  137.6284   75.7144  223.6907 H   0  0  0  0  0  0  0  0  0  0  0  0
  137.3569   78.3682  222.1176 H   0  0  0  0  0  0  0  0  0  0  0  0
  138.2092   78.1475  223.6257 H   0  0  0  0  0  0  0  0  0  0  0  0
  139.4232   78.0832  221.1843 H   0  0  0  0  0  0  0  0  0  0  0  0
  140.1808   76.9604  223.7197 H   0  0  0  0  0  0  0  0  0  0  0  0
  141.0856   76.4932  222.1791 H   0  0  0  0  0  0  0  0  0  0  0  0
  140.9855   78.8799  220.6169 H   0  0  0  0  0  0  0  0  0  0  0  0
  142.2864   80.9670  220.6409 H   0  0  0  0  0  0  0  0  0  0  0  0
  143.3113   81.8182  222.7382 H   0  0  0  0  0  0  0  0  0  0  0  0
  142.9857   80.5073  224.8371 H   0  0  0  0  0  0  0  0  0  0  0  0
  141.6888   78.4314  224.8082 H   0  0  0  0  0  0  0  0  0  0  0  0
  138.8554   70.2150  221.9146 H   0  0  0  0  0  0  0  0  0  0  0  0
  138.7956   68.6703  223.8413 H   0  0  0  0  0  0  0  0  0  0  0  0
  139.3864   68.2236  226.0994 H   0  0  0  0  0  0  0  0  0  0  0  0
  141.5914   71.1469  228.3092 H   0  0  0  0  0  0  0  0  0  0  0  0
  141.6405   72.6804  226.3651 H   0  0  0  0  0  0  0  0  0  0  0  0
  1  2  2  0
  2  3  1  0
  3  4  1  0
  4  5  1  0
  5  6  2  0
  5  7  1  0
  7  8  1  0
  8  9  1  0
  9 10  1  0
 10 11  1  0
 11 12  1  0
 12 13  1  0
 13 14  2  0
 14 15  1  0
 15 16  2  0
 16 17  1  0
 17 18  2  0
  2 19  1  0
 19 20  2  0
 20 21  1  0
 21 22  2  0
 22 23  1  0
 23 24  2  0
 24 25  1  0
 24 26  1  0
 26 27  2  0
 27 28  1  0
 28 29  2  0
 11  7  1  0
 18 13  1  0
 29 19  1  0
 28 22  1  0
  3 30  1  0
  4 31  1  0
  4 32  1  0
  8 33  1  0
  8 34  1  0
  9 35  1  0
  9 36  1  0
 10 37  1  0
 10 38  1  0
 11 39  1  6
 12 40  1  0
 12 41  1  0
 14 42  1  0
 15 43  1  0
 16 44  1  0
 17 45  1  0
 18 46  1  0
 20 47  1  0
 21 48  1  0
 23 49  1  0
 26 50  1  0
 27 51  1  0
M  END
>  <smiles>  (72) 
O=C(NCC(=O)N1CCCC1Cc1ccccc1)c1ccc2cc(Cl)ccc2n1

>  <score_type>  (72) 
oracle

>  <origin>  (72) 
autodockgpu

>  <m_score__min__energy>  (72) 
-8.9499999999999993

>  <m_primary>  (72) 
energy

>  <rmsd>  (72) 
3.0421933975712454

>  <m_score__min__rmsd>  (72) 
3.0421933975712454

>  <meeko>  (72) 
{"free_energy": -8.0, "intermolecular_energy": -9.79, "internal_energy": -1.78, "cluster_size": 35, "cluster_id": 1, "rank_in_cluster": 35}

>  <energy>  (72) 
-8.44

>  <cluster_rmsd>  (72) 
1.39

>  <cluster>  (72) 
1

$$$$

     RDKit          3D

 51 54  0  0  0  0  0  0  0  0999 V2000
  139.0060   71.7180  220.7460 O   0  0  0  0  0  0  0  0  0  0  0  0
  139.0510   72.2650  221.9030 C   0  0  0  0  0  0  0  0  0  0  0  0
  138.8200   73.6630  222.0690 N   0  0  0  0  0  0  0  0  0  0  0  0
  138.5130   74.5350  220.9800 C   0  0  0  0  0  0  0  0  0  0  0  0
  138.7190   75.9640  221.1160 C   0  0  0  0  0  0  0  0  0  0  0  0
  137.7940   76.5570  221.8240 O   0  0  0  0  0  0  0  0  0  0  0  0
  139.7430   76.7890  220.6040 N   0  0  0  0  0  0  0  0  0  0  0  0
  139.7100   77.6600  219.4130 C   0  0  0  0  0  0  0  0  0  0  0  0
  140.8460   78.6580  219.6850 C   0  0  0  0  0  0  0  0  0  0  0  0
  141.8920   77.7820  220.3880 C   0  0  0  0  0  0  0  0  0  0  0  0
  141.0510   76.9000  221.2300 C   0  0  1  0  0  0  0  0  0  0  0  0
  141.0420   77.2460  222.6760 C   0  0  0  0  0  0  0  0  0  0  0  0
  141.3140   78.6590  223.0040 C   0  0  0  0  0  0  0  0  0  0  0  0
  140.2550   79.5620  223.1690 C   0  0  0  0  0  0  0  0  0  0  0  0
  140.4830   80.8930  223.4750 C   0  0  0  0  0  0  0  0  0  0  0  0
  141.7600   81.3890  223.6300 C   0  0  0  0  0  0  0  0  0  0  0  0
  142.8130   80.5130  223.4700 C   0  0  0  0  0  0  0  0  0  0  0  0
  142.5740   79.1890  223.1660 C   0  0  0  0  0  0  0  0  0  0  0  0
  139.3510   71.4150  223.0750 C   0  0  0  0  0  0  0  0  0  0  0  0
  139.0110   70.0800  223.0530 C   0  0  0  0  0  0  0  0  0  0  0  0
  139.2510   69.2160  224.0940 C   0  0  0  0  0  0  0  0  0  0  0  0
  139.8700   69.7440  225.2130 C   0  0  0  0  0  0  0  0  0  0  0  0
  140.1210   68.8990  226.2700 C   0  0  0  0  0  0  0  0  0  0  0  0
  140.7360   69.4280  227.3830 C   0  0  0  0  0  0  0  0  0  0  0  0
  141.0510   68.3350  228.7270 Cl  0  0  0  0  0  0  0  0  0  0  0  0
  141.0740   70.7530  227.4030 C   0  0  0  0  0  0  0  0  0  0  0  0
  140.8250   71.6100  226.3450 C   0  0  0  0  0  0  0  0  0  0  0  0
  140.2010   71.0840  225.2110 C   0  0  0  0  0  0  0  0  0  0  0  0
  139.9440   71.8940  224.1610 N   0  0  0  0  0  0  0  0  0  0  0  0
  138.8960   73.9980  223.0800 H   0  0  0  0  0  0  0  0  0  0  0  0
  139.1246   74.2056  220.1271 H   0  0  0  0  0  0  0  0  0  0  0  0
  137.4210   74.4447  220.8834 H   0  0  0  0  0  0  0  0  0  0  0  0
  139.9011   77.0835  218.4959 H   0  0  0  0  0  0  0  0  0  0  0  0
  138.7349   78.1444  219.2564 H   0  0  0  0  0  0  0  0  0  0  0  0
  141.2418   79.0758  218.7476 H   0  0  0  0  0  0  0  0  0  0  0  0
  140.5327   79.5301  220.2777 H   0  0  0  0  0  0  0  0  0  0  0  0
  142.4770   77.1993  219.6612 H   0  0  0  0  0  0  0  0  0  0  0  0
  142.6361   78.3570  220.9588 H   0  0  0  0  0  0  0  0  0  0  0  0
  141.5015   75.8971  221.2651 H   0  0  0  0  0  0  0  0  0  0  0  0
  140.0495   76.9923  223.0767 H   0  0  0  0  0  0  0  0  0  0  0  0
  141.8675   76.6731  223.1235 H   0  0  0  0  0  0  0  0  0  0  0  0
  139.2208   79.2058  223.0530 H   0  0  0  0  0  0  0  0  0  0  0  0
  139.6251   81.5706  223.5973 H   0  0  0  0  0  0  0  0  0  0  0  0
  141.9331   82.4477  223.8731 H   0  0  0  0  0  0  0  0  0  0  0  0
  143.8466   80.8712  223.5852 H   0  0  0  0  0  0  0  0  0  0  0  0
  143.4385   78.5194  223.0464 H   0  0  0  0  0  0  0  0  0  0  0  0
  138.5201   69.6838  222.1519 H   0  0  0  0  0  0  0  0  0  0  0  0
  138.9647   68.1553  224.0403 H   0  0  0  0  0  0  0  0  0  0  0  0
  139.8398   67.8364  226.2273 H   0  0  0  0  0  0  0  0  0  0  0  0
  141.5660   71.1559  228.3005 H   0  0  0  0  0  0  0  0  0  0  0  0
  141.1093   72.6714  226.3954 H   0  0  0  0  0  0  0  0  0  0  0  0
  1  2  2  0
  2  3  1  0
  3  4  1  0
  4  5  1  0
  5  6  2  0
  5  7  1  0
  7  8  1  0
  8  9  1  0
  9 10  1  0
 10 11  1  0
 11 12  1  0
 12 13  1  0
 13 14  2  0
 14 15  1  0
 15 16  2  0
 16 17  1  0
 17 18  2  0
  2 19  1  0
 19 20  2  0
 20 21  1  0
 21 22  2  0
 22 23  1  0
 23 24  2  0
 24 25  1  0
 24 26  1  0
 26 27  2  0
 27 28  1  0
 28 29  2  0
 11  7  1  0
 18 13  1  0
 29 19  1  0
 28 22  1  0
  3 30  1  0
  4 31  1  0
  4 32  1  0
  8 33  1  0
  8 34  1  0
  9 35  1  0
  9 36  1  0
 10 37  1  0
 10 38  1  0
 11 39  1  1
 12 40  1  0
 12 41  1  0
 14 42  1  0
 15 43  1  0
 16 44  1  0
 17 45  1  0
 18 46  1  0
 20 47  1  0
 21 48  1  0
 23 49  1  0
 26 50  1  0
 27 51  1  0
M  END
>  <smiles>  (73) 
O=C(NCC(=O)N1CCCC1Cc1ccccc1)c1ccc2cc(Cl)ccc2n1

>  <score_type>  (73) 
oracle

>  <origin>  (73) 
autodockgpu

>  <m_score__min__energy>  (73) 
-8.9499999999999993

>  <m_primary>  (73) 
energy

>  <rmsd>  (73) 
1.7758948739134763

>  <m_score__min__rmsd>  (73) 
1.7758948739134763

>  <meeko>  (73) 
{"free_energy": -8.82, "intermolecular_energy": -10.61, "internal_energy": -1.55, "cluster_size": 35, "cluster_id": 1, "rank_in_cluster": 3}

>  <energy>  (73) 
-8.42

>  <cluster_rmsd>  (73) 
1.31

>  <cluster>  (73) 
1

$$$$

     RDKit          3D

 51 54  0  0  0  0  0  0  0  0999 V2000
  140.3910   72.4260  220.8370 O   0  0  0  0  0  0  0  0  0  0  0  0
  139.8700   72.7810  221.9510 C   0  0  0  0  0  0  0  0  0  0  0  0
  139.2220   74.0440  222.0940 N   0  0  0  0  0  0  0  0  0  0  0  0
  139.0980   74.9810  221.0230 C   0  0  0  0  0  0  0  0  0  0  0  0
  139.0510   76.4020  221.3060 C   0  0  0  0  0  0  0  0  0  0  0  0
  138.7120   76.6760  222.5380 O   0  0  0  0  0  0  0  0  0  0  0  0
  139.3040   77.5060  220.4640 N   0  0  0  0  0  0  0  0  0  0  0  0
  138.4030   78.6240  220.1200 C   0  0  0  0  0  0  0  0  0  0  0  0
  139.3750   79.7190  219.6540 C   0  0  0  0  0  0  0  0  0  0  0  0
  140.4600   78.9090  218.9320 C   0  0  0  0  0  0  0  0  0  0  0  0
  140.5750   77.7030  219.7850 C   0  0  1  0  0  0  0  0  0  0  0  0
  141.7790   77.6710  220.6570 C   0  0  0  0  0  0  0  0  0  0  0  0
  141.8130   78.6630  221.7490 C   0  0  0  0  0  0  0  0  0  0  0  0
  141.4730   78.2860  223.0560 C   0  0  0  0  0  0  0  0  0  0  0  0
  141.4950   79.1970  224.0980 C   0  0  0  0  0  0  0  0  0  0  0  0
  141.8500   80.5150  223.8980 C   0  0  0  0  0  0  0  0  0  0  0  0
  142.1860   80.9010  222.6180 C   0  0  0  0  0  0  0  0  0  0  0  0
  142.1610   79.9840  221.5870 C   0  0  0  0  0  0  0  0  0  0  0  0
  139.9510   71.8500  223.0980 C   0  0  0  0  0  0  0  0  0  0  0  0
  139.5200   70.5510  222.9510 C   0  0  0  0  0  0  0  0  0  0  0  0
  139.5570   69.6180  223.9590 C   0  0  0  0  0  0  0  0  0  0  0  0
  140.0620   70.0370  225.1780 C   0  0  0  0  0  0  0  0  0  0  0  0
  140.1100   69.1210  226.2040 C   0  0  0  0  0  0  0  0  0  0  0  0
  140.6120   69.5410  227.4160 C   0  0  0  0  0  0  0  0  0  0  0  0
  140.6680   68.3590  228.7190 Cl  0  0  0  0  0  0  0  0  0  0  0  0
  141.0400   70.8310  227.5590 C   0  0  0  0  0  0  0  0  0  0  0  0
  140.9960   71.7590  226.5320 C   0  0  0  0  0  0  0  0  0  0  0  0
  140.4870   71.3430  225.2990 C   0  0  0  0  0  0  0  0  0  0  0  0
  140.4300   72.2240  224.2770 N   0  0  0  0  0  0  0  0  0  0  0  0
  138.8370   74.2250  223.0740 H   0  0  0  0  0  0  0  0  0  0  0  0
  139.9582   74.8180  220.3570 H   0  0  0  0  0  0  0  0  0  0  0  0
  138.0977   74.7704  220.6168 H   0  0  0  0  0  0  0  0  0  0  0  0
  137.7107   78.3403  219.3136 H   0  0  0  0  0  0  0  0  0  0  0  0
  137.7634   78.9393  220.9576 H   0  0  0  0  0  0  0  0  0  0  0  0
  138.8818   80.4238  218.9684 H   0  0  0  0  0  0  0  0  0  0  0  0
  139.7628   80.3412  220.4740 H   0  0  0  0  0  0  0  0  0  0  0  0
  140.1473   78.6461  217.9107 H   0  0  0  0  0  0  0  0  0  0  0  0
  141.4078   79.4537  218.8098 H   0  0  0  0  0  0  0  0  0  0  0  0
  140.7642   76.8265  219.1479 H   0  0  0  0  0  0  0  0  0  0  0  0
  141.8405   76.6702  221.1093 H   0  0  0  0  0  0  0  0  0  0  0  0
  142.6265   77.9216  220.0020 H   0  0  0  0  0  0  0  0  0  0  0  0
  141.1827   77.2443  223.2576 H   0  0  0  0  0  0  0  0  0  0  0  0
  141.2229   78.8620  225.1098 H   0  0  0  0  0  0  0  0  0  0  0  0
  141.8645   81.2331  224.7311 H   0  0  0  0  0  0  0  0  0  0  0  0
  142.4750   81.9433  222.4178 H   0  0  0  0  0  0  0  0  0  0  0  0
  142.4347   80.3288  220.5789 H   0  0  0  0  0  0  0  0  0  0  0  0
  139.1240   70.2428  221.9722 H   0  0  0  0  0  0  0  0  0  0  0  0
  139.2026   68.5881  223.8049 H   0  0  0  0  0  0  0  0  0  0  0  0
  139.7593   68.0883  226.0610 H   0  0  0  0  0  0  0  0  0  0  0  0
  141.4377   71.1467  228.5348 H   0  0  0  0  0  0  0  0  0  0  0  0
  141.3501   72.7896  226.6820 H   0  0  0  0  0  0  0  0  0  0  0  0
  1  2  2  0
  2  3  1  0
  3  4  1  0
  4  5  1  0
  5  6  2  0
  5  7  1  0
  7  8  1  0
  8  9  1  0
  9 10  1  0
 10 11  1  0
 11 12  1  0
 12 13  1  0
 13 14  2  0
 14 15  1  0
 15 16  2  0
 16 17  1  0
 17 18  2  0
  2 19  1  0
 19 20  2  0
 20 21  1  0
 21 22  2  0
 22 23  1  0
 23 24  2  0
 24 25  1  0
 24 26  1  0
 26 27  2  0
 27 28  1  0
 28 29  2  0
 11  7  1  0
 18 13  1  0
 29 19  1  0
 28 22  1  0
  3 30  1  0
  4 31  1  0
  4 32  1  0
  8 33  1  0
  8 34  1  0
  9 35  1  0
  9 36  1  0
 10 37  1  0
 10 38  1  0
 11 39  1  6
 12 40  1  0
 12 41  1  0
 14 42  1  0
 15 43  1  0
 16 44  1  0
 17 45  1  0
 18 46  1  0
 20 47  1  0
 21 48  1  0
 23 49  1  0
 26 50  1  0
 27 51  1  0
M  END
>  <smiles>  (74) 
O=C(NCC(=O)N1CCCC1Cc1ccccc1)c1ccc2cc(Cl)ccc2n1

>  <score_type>  (74) 
oracle

>  <origin>  (74) 
autodockgpu

>  <m_score__min__energy>  (74) 
-8.9499999999999993

>  <m_primary>  (74) 
energy

>  <rmsd>  (74) 
2.177949109744212

>  <m_score__min__rmsd>  (74) 
2.177949109744212

>  <meeko>  (74) 
{"free_energy": -8.45, "intermolecular_energy": -10.24, "internal_energy": -1.81, "cluster_size": 35, "cluster_id": 1, "rank_in_cluster": 21}

>  <energy>  (74) 
-8.41

>  <cluster_rmsd>  (74) 
1.41

>  <cluster>  (74) 
1

$$$$

     RDKit          3D

 51 54  0  0  0  0  0  0  0  0999 V2000
  140.5690   72.8390  221.1410 O   0  0  0  0  0  0  0  0  0  0  0  0
  139.6850   72.8370  222.0660 C   0  0  0  0  0  0  0  0  0  0  0  0
  138.5700   73.7260  222.0260 N   0  0  0  0  0  0  0  0  0  0  0  0
  138.3560   74.6570  220.9640 C   0  0  0  0  0  0  0  0  0  0  0  0
  138.6790   76.0580  221.1520 C   0  0  0  0  0  0  0  0  0  0  0  0
  137.8240   76.6920  221.9100 O   0  0  0  0  0  0  0  0  0  0  0  0
  139.7530   76.8200  220.6440 N   0  0  0  0  0  0  0  0  0  0  0  0
  139.7770   77.6910  219.4530 C   0  0  0  0  0  0  0  0  0  0  0  0
  140.9690   78.6200  219.7290 C   0  0  0  0  0  0  0  0  0  0  0  0
  141.9580   77.6830  220.4360 C   0  0  0  0  0  0  0  0  0  0  0  0
  141.0620   76.8530  221.2750 C   0  0  1  0  0  0  0  0  0  0  0  0
  141.0680   77.2000  222.7210 C   0  0  0  0  0  0  0  0  0  0  0  0
  141.2810   78.6240  223.0430 C   0  0  0  0  0  0  0  0  0  0  0  0
  142.5810   79.1280  223.1880 C   0  0  0  0  0  0  0  0  0  0  0  0
  142.8080   80.4600  223.4920 C   0  0  0  0  0  0  0  0  0  0  0  0
  141.7680   81.3480  223.6670 C   0  0  0  0  0  0  0  0  0  0  0  0
  140.4830   80.8670  223.5270 C   0  0  0  0  0  0  0  0  0  0  0  0
  140.2690   79.5380  223.2240 C   0  0  0  0  0  0  0  0  0  0  0  0
  139.8400   71.8870  223.1900 C   0  0  0  0  0  0  0  0  0  0  0  0
  139.4600   70.5730  223.0270 C   0  0  0  0  0  0  0  0  0  0  0  0
  139.5670   69.6230  224.0130 C   0  0  0  0  0  0  0  0  0  0  0  0
  140.0910   70.0370  225.2260 C   0  0  0  0  0  0  0  0  0  0  0  0
  140.2090   69.1040  226.2290 C   0  0  0  0  0  0  0  0  0  0  0  0
  140.7290   69.5200  227.4350 C   0  0  0  0  0  0  0  0  0  0  0  0
  140.8750   68.3150  228.7100 Cl  0  0  0  0  0  0  0  0  0  0  0  0
  141.1070   70.8240  227.5940 C   0  0  0  0  0  0  0  0  0  0  0  0
  140.9910   71.7700  226.5900 C   0  0  0  0  0  0  0  0  0  0  0  0
  140.4640   71.3580  225.3630 C   0  0  0  0  0  0  0  0  0  0  0  0
  140.3390   72.2570  224.3620 N   0  0  0  0  0  0  0  0  0  0  0  0
  137.9100   73.6330  222.8600 H   0  0  0  0  0  0  0  0  0  0  0  0
  138.9520   74.3057  220.1088 H   0  0  0  0  0  0  0  0  0  0  0  0
  137.2620   74.6629  220.8495 H   0  0  0  0  0  0  0  0  0  0  0  0
  139.9372   77.1038  218.5368 H   0  0  0  0  0  0  0  0  0  0  0  0
  138.8331   78.2326  219.2926 H   0  0  0  0  0  0  0  0  0  0  0  0
  141.3925   79.0132  218.7930 H   0  0  0  0  0  0  0  0  0  0  0  0
  140.7061   79.5096  220.3201 H   0  0  0  0  0  0  0  0  0  0  0  0
  142.5097   77.0661  219.7114 H   0  0  0  0  0  0  0  0  0  0  0  0
  142.7331   78.2124  221.0096 H   0  0  0  0  0  0  0  0  0  0  0  0
  141.4513   75.8249  221.3123 H   0  0  0  0  0  0  0  0  0  0  0  0
  140.0972   76.9010  223.1430 H   0  0  0  0  0  0  0  0  0  0  0  0
  141.9287   76.6666  223.1507 H   0  0  0  0  0  0  0  0  0  0  0  0
  143.4386   78.4516  223.0576 H   0  0  0  0  0  0  0  0  0  0  0  0
  143.8429   80.8180  223.5963 H   0  0  0  0  0  0  0  0  0  0  0  0
  141.9567   82.4041  223.9100 H   0  0  0  0  0  0  0  0  0  0  0  0
  139.6264   81.5447  223.6572 H   0  0  0  0  0  0  0  0  0  0  0  0
  139.2306   79.1898  223.1214 H   0  0  0  0  0  0  0  0  0  0  0  0
  139.0483   70.2679  222.0537 H   0  0  0  0  0  0  0  0  0  0  0  0
  139.2514   68.5824  223.8470 H   0  0  0  0  0  0  0  0  0  0  0  0
  139.8985   68.0602  226.0737 H   0  0  0  0  0  0  0  0  0  0  0  0
  141.5222   71.1358  228.5637 H   0  0  0  0  0  0  0  0  0  0  0  0
  141.3035   72.8121  226.7527 H   0  0  0  0  0  0  0  0  0  0  0  0
  1  2  2  0
  2  3  1  0
  3  4  1  0
  4  5  1  0
  5  6  2  0
  5  7  1  0
  7  8  1  0
  8  9  1  0
  9 10  1  0
 10 11  1  0
 11 12  1  0
 12 13  1  0
 13 14  2  0
 14 15  1  0
 15 16  2  0
 16 17  1  0
 17 18  2  0
  2 19  1  0
 19 20  2  0
 20 21  1  0
 21 22  2  0
 22 23  1  0
 23 24  2  0
 24 25  1  0
 24 26  1  0
 26 27  2  0
 27 28  1  0
 28 29  2  0
 11  7  1  0
 18 13  1  0
 29 19  1  0
 28 22  1  0
  3 30  1  0
  4 31  1  0
  4 32  1  0
  8 33  1  0
  8 34  1  0
  9 35  1  0
  9 36  1  0
 10 37  1  0
 10 38  1  0
 11 39  1  1
 12 40  1  0
 12 41  1  0
 14 42  1  0
 15 43  1  0
 16 44  1  0
 17 45  1  0
 18 46  1  0
 20 47  1  0
 21 48  1  0
 23 49  1  0
 26 50  1  0
 27 51  1  0
M  END
>  <smiles>  (75) 
O=C(NCC(=O)N1CCCC1Cc1ccccc1)c1ccc2cc(Cl)ccc2n1

>  <score_type>  (75) 
oracle

>  <origin>  (75) 
autodockgpu

>  <m_score__min__energy>  (75) 
-8.9499999999999993

>  <m_primary>  (75) 
energy

>  <rmsd>  (75) 
1.9316245857246983

>  <m_score__min__rmsd>  (75) 
1.9316245857246983

>  <meeko>  (75) 
{"free_energy": -8.86, "intermolecular_energy": -10.65, "internal_energy": -1.5, "cluster_size": 35, "cluster_id": 1, "rank_in_cluster": 2}

>  <energy>  (75) 
-8.4

>  <cluster_rmsd>  (75) 
0.92

>  <cluster>  (75) 
1

$$$$

     RDKit          3D

 51 54  0  0  0  0  0  0  0  0999 V2000
  140.2390   72.2870  220.6510 O   0  0  0  0  0  0  0  0  0  0  0  0
  140.0300   72.7830  221.8120 C   0  0  0  0  0  0  0  0  0  0  0  0
  139.7760   74.1760  221.9860 N   0  0  0  0  0  0  0  0  0  0  0  0
  139.7250   75.0990  220.8970 C   0  0  0  0  0  0  0  0  0  0  0  0
  140.6600   76.2070  220.8420 C   0  0  0  0  0  0  0  0  0  0  0  0
  141.0770   76.5950  222.0180 O   0  0  0  0  0  0  0  0  0  0  0  0
  141.1680   76.9140  219.7310 N   0  0  0  0  0  0  0  0  0  0  0  0
  140.6640   78.1640  219.1310 C   0  0  0  0  0  0  0  0  0  0  0  0
  141.8840   78.6960  218.3640 C   0  0  0  0  0  0  0  0  0  0  0  0
  142.5360   77.4040  217.8500 C   0  0  0  0  0  0  0  0  0  0  0  0
  142.3380   76.4760  218.9870 C   0  0  1  0  0  0  0  0  0  0  0  0
  143.5560   76.2220  219.8010 C   0  0  0  0  0  0  0  0  0  0  0  0
  143.8810   74.8050  220.0550 C   0  0  0  0  0  0  0  0  0  0  0  0
  142.9140   73.8120  219.8470 C   0  0  0  0  0  0  0  0  0  0  0  0
  143.1910   72.4760  220.0800 C   0  0  0  0  0  0  0  0  0  0  0  0
  144.4280   72.0620  220.5270 C   0  0  0  0  0  0  0  0  0  0  0  0
  145.3900   73.0280  220.7370 C   0  0  0  0  0  0  0  0  0  0  0  0
  145.1020   74.3570  220.5020 C   0  0  0  0  0  0  0  0  0  0  0  0
  140.0560   71.8780  222.9820 C   0  0  0  0  0  0  0  0  0  0  0  0
  139.5580   70.5990  222.8640 C   0  0  0  0  0  0  0  0  0  0  0  0
  139.5410   69.6920  223.8950 C   0  0  0  0  0  0  0  0  0  0  0  0
  140.0600   70.1140  225.1070 C   0  0  0  0  0  0  0  0  0  0  0  0
  140.0540   69.2230  226.1550 C   0  0  0  0  0  0  0  0  0  0  0  0
  140.5700   69.6460  227.3600 C   0  0  0  0  0  0  0  0  0  0  0  0
  140.5570   68.4950  228.6930 Cl  0  0  0  0  0  0  0  0  0  0  0  0
  141.0640   70.9160  227.4750 C   0  0  0  0  0  0  0  0  0  0  0  0
  141.0730   71.8190  226.4250 C   0  0  0  0  0  0  0  0  0  0  0  0
  140.5520   71.3990  225.1990 C   0  0  0  0  0  0  0  0  0  0  0  0
  140.5470   72.2560  224.1550 N   0  0  0  0  0  0  0  0  0  0  0  0
  139.6280   74.4660  223.0030 H   0  0  0  0  0  0  0  0  0  0  0  0
  139.8715   74.5137  219.9773 H   0  0  0  0  0  0  0  0  0  0  0  0
  138.7522   75.5949  221.0306 H   0  0  0  0  0  0  0  0  0  0  0  0
  139.8244   77.9646  218.4489 H   0  0  0  0  0  0  0  0  0  0  0  0
  140.2754   78.8756  219.8744 H   0  0  0  0  0  0  0  0  0  0  0  0
  141.5784   79.3466  217.5313 H   0  0  0  0  0  0  0  0  0  0  0  0
  142.5553   79.3141  218.9782 H   0  0  0  0  0  0  0  0  0  0  0  0
  142.0321   77.0368  216.9438 H   0  0  0  0  0  0  0  0  0  0  0  0
  143.5901   77.5276  217.5610 H   0  0  0  0  0  0  0  0  0  0  0  0
  142.1402   75.4661  218.5983 H   0  0  0  0  0  0  0  0  0  0  0  0
  144.4110   76.6747  219.2775 H   0  0  0  0  0  0  0  0  0  0  0  0
  143.3492   76.6602  220.7885 H   0  0  0  0  0  0  0  0  0  0  0  0
  141.9139   74.1004  219.4911 H   0  0  0  0  0  0  0  0  0  0  0  0
  142.4053   71.7264  219.9043 H   0  0  0  0  0  0  0  0  0  0  0  0
  144.6403   70.9983  220.7098 H   0  0  0  0  0  0  0  0  0  0  0  0
  146.3897   72.7381  221.0928 H   0  0  0  0  0  0  0  0  0  0  0  0
  145.8933   75.0995  220.6823 H   0  0  0  0  0  0  0  0  0  0  0  0
  139.1517   70.2871  221.8905 H   0  0  0  0  0  0  0  0  0  0  0  0
  139.1343   68.6784  223.7640 H   0  0  0  0  0  0  0  0  0  0  0  0
  139.6506   68.2067  226.0348 H   0  0  0  0  0  0  0  0  0  0  0  0
  141.4726   71.2347  228.4453 H   0  0  0  0  0  0  0  0  0  0  0  0
  141.4773   72.8340  226.5524 H   0  0  0  0  0  0  0  0  0  0  0  0
  1  2  2  0
  2  3  1  0
  3  4  1  0
  4  5  1  0
  5  6  2  0
  5  7  1  0
  7  8  1  0
  8  9  1  0
  9 10  1  0
 10 11  1  0
 11 12  1  0
 12 13  1  0
 13 14  2  0
 14 15  1  0
 15 16  2  0
 16 17  1  0
 17 18  2  0
  2 19  1  0
 19 20  2  0
 20 21  1  0
 21 22  2  0
 22 23  1  0
 23 24  2  0
 24 25  1  0
 24 26  1  0
 26 27  2  0
 27 28  1  0
 28 29  2  0
 11  7  1  0
 18 13  1  0
 29 19  1  0
 28 22  1  0
  3 30  1  0
  4 31  1  0
  4 32  1  0
  8 33  1  0
  8 34  1  0
  9 35  1  0
  9 36  1  0
 10 37  1  0
 10 38  1  0
 11 39  1  6
 12 40  1  0
 12 41  1  0
 14 42  1  0
 15 43  1  0
 16 44  1  0
 17 45  1  0
 18 46  1  0
 20 47  1  0
 21 48  1  0
 23 49  1  0
 26 50  1  0
 27 51  1  0
M  END
>  <smiles>  (76) 
O=C(NCC(=O)N1CCCC1Cc1ccccc1)c1ccc2cc(Cl)ccc2n1

>  <score_type>  (76) 
oracle

>  <origin>  (76) 
autodockgpu

>  <m_score__min__energy>  (76) 
-8.9499999999999993

>  <m_primary>  (76) 
energy

>  <rmsd>  (76) 
2.1158664469086363

>  <m_score__min__rmsd>  (76) 
2.1158664469086363

>  <meeko>  (76) 
{"free_energy": -8.22, "intermolecular_energy": -10.01, "internal_energy": -2.03, "cluster_size": 6, "cluster_id": 4, "rank_in_cluster": 3}

>  <energy>  (76) 
-8.39

>  <cluster_rmsd>  (76) 
0.93

>  <cluster>  (76) 
1

$$$$

     RDKit          3D

 51 54  0  0  0  0  0  0  0  0999 V2000
  140.0510   71.9500  220.6860 O   0  0  0  0  0  0  0  0  0  0  0  0
  139.9540   72.4580  221.8560 C   0  0  0  0  0  0  0  0  0  0  0  0
  139.7970   73.8640  222.0410 N   0  0  0  0  0  0  0  0  0  0  0  0
  139.7240   74.7880  220.9540 C   0  0  0  0  0  0  0  0  0  0  0  0
  140.4960   76.0150  220.9930 C   0  0  0  0  0  0  0  0  0  0  0  0
  140.7170   76.4520  222.2040 O   0  0  0  0  0  0  0  0  0  0  0  0
  141.0260   76.7900  219.9390 N   0  0  0  0  0  0  0  0  0  0  0  0
  140.5360   78.0790  219.4130 C   0  0  0  0  0  0  0  0  0  0  0  0
  141.7710   78.6540  218.7030 C   0  0  0  0  0  0  0  0  0  0  0  0
  142.4280   77.3960  218.1170 C   0  0  0  0  0  0  0  0  0  0  0  0
  142.2070   76.3960  219.1890 C   0  0  1  0  0  0  0  0  0  0  0  0
  143.4110   76.0850  220.0050 C   0  0  0  0  0  0  0  0  0  0  0  0
  143.7370   74.6540  220.1570 C   0  0  0  0  0  0  0  0  0  0  0  0
  142.7440   73.6810  219.9740 C   0  0  0  0  0  0  0  0  0  0  0  0
  143.0230   72.3320  220.1120 C   0  0  0  0  0  0  0  0  0  0  0  0
  144.2860   71.8860  220.4370 C   0  0  0  0  0  0  0  0  0  0  0  0
  145.2740   72.8310  220.6210 C   0  0  0  0  0  0  0  0  0  0  0  0
  144.9840   74.1730  220.4800 C   0  0  0  0  0  0  0  0  0  0  0  0
  140.0090   71.5540  223.0260 C   0  0  0  0  0  0  0  0  0  0  0  0
  139.5360   70.2660  222.9130 C   0  0  0  0  0  0  0  0  0  0  0  0
  139.5470   69.3580  223.9440 C   0  0  0  0  0  0  0  0  0  0  0  0
  140.0670   69.7910  225.1510 C   0  0  0  0  0  0  0  0  0  0  0  0
  140.0890   68.9000  226.2000 C   0  0  0  0  0  0  0  0  0  0  0  0
  140.6080   69.3330  227.4000 C   0  0  0  0  0  0  0  0  0  0  0  0
  140.6290   68.1840  228.7320 Cl  0  0  0  0  0  0  0  0  0  0  0  0
  141.0770   70.6130  227.5100 C   0  0  0  0  0  0  0  0  0  0  0  0
  141.0590   71.5160  226.4600 C   0  0  0  0  0  0  0  0  0  0  0  0
  140.5350   71.0860  225.2390 C   0  0  0  0  0  0  0  0  0  0  0  0
  140.5030   71.9420  224.1950 N   0  0  0  0  0  0  0  0  0  0  0  0
  139.7380   74.1630  223.0640 H   0  0  0  0  0  0  0  0  0  0  0  0
  140.0392   74.2429  220.0520 H   0  0  0  0  0  0  0  0  0  0  0  0
  138.6834   75.1424  220.9925 H   0  0  0  0  0  0  0  0  0  0  0  0
  139.7076   77.9280  218.7053 H   0  0  0  0  0  0  0  0  0  0  0  0
  140.1368   78.7426  220.1942 H   0  0  0  0  0  0  0  0  0  0  0  0
  141.4820   79.3588  217.9094 H   0  0  0  0  0  0  0  0  0  0  0  0
  142.4336   79.2275  219.3678 H   0  0  0  0  0  0  0  0  0  0  0  0
  141.9389   77.0906  217.1803 H   0  0  0  0  0  0  0  0  0  0  0  0
  143.4873   77.5337  217.8545 H   0  0  0  0  0  0  0  0  0  0  0  0
  142.0123   75.4139  218.7335 H   0  0  0  0  0  0  0  0  0  0  0  0
  144.2737   76.5786  219.5337 H   0  0  0  0  0  0  0  0  0  0  0  0
  143.1840   76.4469  221.0187 H   0  0  0  0  0  0  0  0  0  0  0  0
  141.7223   73.9961  219.7155 H   0  0  0  0  0  0  0  0  0  0  0  0
  142.2176   71.5987  219.9586 H   0  0  0  0  0  0  0  0  0  0  0  0
  144.4990   70.8124  220.5460 H   0  0  0  0  0  0  0  0  0  0  0  0
  146.2950   72.5144  220.8806 H   0  0  0  0  0  0  0  0  0  0  0  0
  145.7961   74.8986  220.6347 H   0  0  0  0  0  0  0  0  0  0  0  0
  139.1265   69.9462  221.9434 H   0  0  0  0  0  0  0  0  0  0  0  0
  139.1610   68.3359  223.8161 H   0  0  0  0  0  0  0  0  0  0  0  0
  139.7047   67.8759  226.0837 H   0  0  0  0  0  0  0  0  0  0  0  0
  141.4873   70.9403  228.4767 H   0  0  0  0  0  0  0  0  0  0  0  0
  141.4449   72.5386  226.5838 H   0  0  0  0  0  0  0  0  0  0  0  0
  1  2  2  0
  2  3  1  0
  3  4  1  0
  4  5  1  0
  5  6  2  0
  5  7  1  0
  7  8  1  0
  8  9  1  0
  9 10  1  0
 10 11  1  0
 11 12  1  0
 12 13  1  0
 13 14  2  0
 14 15  1  0
 15 16  2  0
 16 17  1  0
 17 18  2  0
  2 19  1  0
 19 20  2  0
 20 21  1  0
 21 22  2  0
 22 23  1  0
 23 24  2  0
 24 25  1  0
 24 26  1  0
 26 27  2  0
 27 28  1  0
 28 29  2  0
 11  7  1  0
 18 13  1  0
 29 19  1  0
 28 22  1  0
  3 30  1  0
  4 31  1  0
  4 32  1  0
  8 33  1  0
  8 34  1  0
  9 35  1  0
  9 36  1  0
 10 37  1  0
 10 38  1  0
 11 39  1  6
 12 40  1  0
 12 41  1  0
 14 42  1  0
 15 43  1  0
 16 44  1  0
 17 45  1  0
 18 46  1  0
 20 47  1  0
 21 48  1  0
 23 49  1  0
 26 50  1  0
 27 51  1  0
M  END
>  <smiles>  (77) 
O=C(NCC(=O)N1CCCC1Cc1ccccc1)c1ccc2cc(Cl)ccc2n1

>  <score_type>  (77) 
oracle

>  <origin>  (77) 
autodockgpu

>  <m_score__min__energy>  (77) 
-8.9499999999999993

>  <m_primary>  (77) 
energy

>  <rmsd>  (77) 
1.9748036790009298

>  <m_score__min__rmsd>  (77) 
1.9748036790009298

>  <meeko>  (77) 
{"free_energy": -7.98, "intermolecular_energy": -9.77, "internal_energy": -2.09, "cluster_size": 6, "cluster_id": 4, "rank_in_cluster": 6}

>  <energy>  (77) 
-8.37

>  <cluster_rmsd>  (77) 
0.96

>  <cluster>  (77) 
1

$$$$

     RDKit          3D

 51 54  0  0  0  0  0  0  0  0999 V2000
  138.1590   71.3690  221.3480 O   0  0  0  0  0  0  0  0  0  0  0  0
  138.7540   71.9390  222.3270 C   0  0  0  0  0  0  0  0  0  0  0  0
  139.0220   73.3410  222.3150 N   0  0  0  0  0  0  0  0  0  0  0  0
  138.6400   74.1960  221.2360 C   0  0  0  0  0  0  0  0  0  0  0  0
  138.7870   75.6330  221.3630 C   0  0  0  0  0  0  0  0  0  0  0  0
  137.9100   76.1760  222.1650 O   0  0  0  0  0  0  0  0  0  0  0  0
  139.7130   76.5100  220.7580 N   0  0  0  0  0  0  0  0  0  0  0  0
  139.5490   77.3120  219.5300 C   0  0  0  0  0  0  0  0  0  0  0  0
  140.6090   78.4120  219.6920 C   0  0  0  0  0  0  0  0  0  0  0  0
  141.7580   77.6610  220.3800 C   0  0  0  0  0  0  0  0  0  0  0  0
  141.0360   76.7590  221.3070 C   0  0  1  0  0  0  0  0  0  0  0  0
  141.0690   77.1790  222.7330 C   0  0  0  0  0  0  0  0  0  0  0  0
  141.3270   78.6110  222.9800 C   0  0  0  0  0  0  0  0  0  0  0  0
  140.2570   79.4990  223.1570 C   0  0  0  0  0  0  0  0  0  0  0  0
  140.4710   80.8480  223.3880 C   0  0  0  0  0  0  0  0  0  0  0  0
  141.7420   81.3760  223.4520 C   0  0  0  0  0  0  0  0  0  0  0  0
  142.8050   80.5150  223.2800 C   0  0  0  0  0  0  0  0  0  0  0  0
  142.5800   79.1730  223.0500 C   0  0  0  0  0  0  0  0  0  0  0  0
  139.1650   71.1130  223.4820 C   0  0  0  0  0  0  0  0  0  0  0  0
  138.9390   69.7540  223.4610 C   0  0  0  0  0  0  0  0  0  0  0  0
  139.2870   68.9090  224.4870 C   0  0  0  0  0  0  0  0  0  0  0  0
  139.8960   69.4830  225.5890 C   0  0  0  0  0  0  0  0  0  0  0  0
  140.2540   68.6570  226.6300 C   0  0  0  0  0  0  0  0  0  0  0  0
  140.8600   69.2310  227.7260 C   0  0  0  0  0  0  0  0  0  0  0  0
  141.3120   68.1630  229.0500 Cl  0  0  0  0  0  0  0  0  0  0  0  0
  141.0830   70.5800  227.7450 C   0  0  0  0  0  0  0  0  0  0  0  0
  140.7270   71.4180  226.7020 C   0  0  0  0  0  0  0  0  0  0  0  0
  140.1110   70.8450  225.5860 C   0  0  0  0  0  0  0  0  0  0  0  0
  139.7520   71.6350  224.5520 N   0  0  0  0  0  0  0  0  0  0  0  0
  139.5330   73.6930  223.1840 H   0  0  0  0  0  0  0  0  0  0  0  0
  139.2363   73.8916  220.3632 H   0  0  0  0  0  0  0  0  0  0  0  0
  137.5504   74.0574  221.1769 H   0  0  0  0  0  0  0  0  0  0  0  0
  139.7424   76.7055  218.6329 H   0  0  0  0  0  0  0  0  0  0  0  0
  138.5302   77.7069  219.4028 H   0  0  0  0  0  0  0  0  0  0  0  0
  140.9219   78.8105  218.7156 H   0  0  0  0  0  0  0  0  0  0  0  0
  140.2535   79.2862  220.2572 H   0  0  0  0  0  0  0  0  0  0  0  0
  142.3532   77.0904  219.6519 H   0  0  0  0  0  0  0  0  0  0  0  0
  142.4785   78.3233  220.8822 H   0  0  0  0  0  0  0  0  0  0  0  0
  141.5697   75.7990  221.3662 H   0  0  0  0  0  0  0  0  0  0  0  0
  140.0949   76.9306  223.1796 H   0  0  0  0  0  0  0  0  0  0  0  0
  141.9191   76.6431  223.1803 H   0  0  0  0  0  0  0  0  0  0  0  0
  139.2265   79.1169  223.1115 H   0  0  0  0  0  0  0  0  0  0  0  0
  139.6057   81.5134  223.5236 H   0  0  0  0  0  0  0  0  0  0  0  0
  141.9033   82.4487  223.6342 H   0  0  0  0  0  0  0  0  0  0  0  0
  143.8349   80.8987  223.3262 H   0  0  0  0  0  0  0  0  0  0  0  0
  143.4519   78.5161  222.9151 H   0  0  0  0  0  0  0  0  0  0  0  0
  138.4531   69.3217  222.5739 H   0  0  0  0  0  0  0  0  0  0  0  0
  139.0909   67.8279  224.4349 H   0  0  0  0  0  0  0  0  0  0  0  0
  140.0626   67.5746  226.5883 H   0  0  0  0  0  0  0  0  0  0  0  0
  141.5674   71.0195  228.6294 H   0  0  0  0  0  0  0  0  0  0  0  0
  140.9226   72.4994  226.7501 H   0  0  0  0  0  0  0  0  0  0  0  0
  1  2  2  0
  2  3  1  0
  3  4  1  0
  4  5  1  0
  5  6  2  0
  5  7  1  0
  7  8  1  0
  8  9  1  0
  9 10  1  0
 10 11  1  0
 11 12  1  0
 12 13  1  0
 13 14  2  0
 14 15  1  0
 15 16  2  0
 16 17  1  0
 17 18  2  0
  2 19  1  0
 19 20  2  0
 20 21  1  0
 21 22  2  0
 22 23  1  0
 23 24  2  0
 24 25  1  0
 24 26  1  0
 26 27  2  0
 27 28  1  0
 28 29  2  0
 11  7  1  0
 18 13  1  0
 29 19  1  0
 28 22  1  0
  3 30  1  0
  4 31  1  0
  4 32  1  0
  8 33  1  0
  8 34  1  0
  9 35  1  0
  9 36  1  0
 10 37  1  0
 10 38  1  0
 11 39  1  1
 12 40  1  0
 12 41  1  0
 14 42  1  0
 15 43  1  0
 16 44  1  0
 17 45  1  0
 18 46  1  0
 20 47  1  0
 21 48  1  0
 23 49  1  0
 26 50  1  0
 27 51  1  0
M  END
>  <smiles>  (78) 
O=C(NCC(=O)N1CCCC1Cc1ccccc1)c1ccc2cc(Cl)ccc2n1

>  <score_type>  (78) 
oracle

>  <origin>  (78) 
autodockgpu

>  <m_score__min__energy>  (78) 
-8.9499999999999993

>  <m_primary>  (78) 
energy

>  <rmsd>  (78) 
1.622644955567035

>  <m_score__min__rmsd>  (78) 
1.622644955567035

>  <meeko>  (78) 
{"free_energy": -8.69, "intermolecular_energy": -10.48, "internal_energy": -1.59, "cluster_size": 35, "cluster_id": 1, "rank_in_cluster": 11}

>  <energy>  (78) 
-8.36

>  <cluster_rmsd>  (78) 
0.91

>  <cluster>  (78) 
1

$$$$

     RDKit          3D

 51 54  0  0  0  0  0  0  0  0999 V2000
  138.8150   71.4840  221.1500 O   0  0  0  0  0  0  0  0  0  0  0  0
  139.2200   72.0490  222.2250 C   0  0  0  0  0  0  0  0  0  0  0  0
  139.3920   73.4630  222.2970 N   0  0  0  0  0  0  0  0  0  0  0  0
  139.1170   74.3370  221.2010 C   0  0  0  0  0  0  0  0  0  0  0  0
  139.7290   75.6510  221.1500 C   0  0  0  0  0  0  0  0  0  0  0  0
  139.2870   76.4670  222.0700 O   0  0  0  0  0  0  0  0  0  0  0  0
  140.7050   76.1660  220.2700 N   0  0  0  0  0  0  0  0  0  0  0  0
  141.1390   75.6290  218.9650 C   0  0  0  0  0  0  0  0  0  0  0  0
  141.7710   76.8510  218.2820 C   0  0  0  0  0  0  0  0  0  0  0  0
  142.4380   77.5760  219.4590 C   0  0  0  0  0  0  0  0  0  0  0  0
  141.4560   77.3790  220.5500 C   0  0  1  0  0  0  0  0  0  0  0  0
  140.6380   78.5780  220.8730 C   0  0  0  0  0  0  0  0  0  0  0  0
  141.2170   79.5080  221.8620 C   0  0  0  0  0  0  0  0  0  0  0  0
  141.9500   79.0140  222.9500 C   0  0  0  0  0  0  0  0  0  0  0  0
  142.5030   79.8650  223.8930 C   0  0  0  0  0  0  0  0  0  0  0  0
  142.3550   81.2330  223.8050 C   0  0  0  0  0  0  0  0  0  0  0  0
  141.6360   81.7340  222.7410 C   0  0  0  0  0  0  0  0  0  0  0  0
  141.0900   80.8770  221.8070 C   0  0  0  0  0  0  0  0  0  0  0  0
  139.5120   71.2020  223.4020 C   0  0  0  0  0  0  0  0  0  0  0  0
  139.2310   69.8540  223.3550 C   0  0  0  0  0  0  0  0  0  0  0  0
  139.4680   68.9920  224.3990 C   0  0  0  0  0  0  0  0  0  0  0  0
  140.0190   69.5360  225.5460 C   0  0  0  0  0  0  0  0  0  0  0  0
  140.2650   68.6930  226.6050 C   0  0  0  0  0  0  0  0  0  0  0  0
  140.8140   69.2370  227.7450 C   0  0  0  0  0  0  0  0  0  0  0  0
  141.1240   68.1470  229.0920 Cl  0  0  0  0  0  0  0  0  0  0  0  0
  141.0910   70.5750  227.7880 C   0  0  0  0  0  0  0  0  0  0  0  0
  140.8470   71.4310  226.7280 C   0  0  0  0  0  0  0  0  0  0  0  0
  140.2910   70.8880  225.5660 C   0  0  0  0  0  0  0  0  0  0  0  0
  140.0400   71.6960  224.5140 N   0  0  0  0  0  0  0  0  0  0  0  0
  139.7450   73.8100  223.2430 H   0  0  0  0  0  0  0  0  0  0  0  0
  139.4253   73.8074  220.2875 H   0  0  0  0  0  0  0  0  0  0  0  0
  138.0465   74.5611  221.3188 H   0  0  0  0  0  0  0  0  0  0  0  0
  141.8763   74.8230  219.0945 H   0  0  0  0  0  0  0  0  0  0  0  0
  140.3175   75.1841  218.3842 H   0  0  0  0  0  0  0  0  0  0  0  0
  142.5133   76.5470  217.5293 H   0  0  0  0  0  0  0  0  0  0  0  0
  141.0471   77.4730  217.7351 H   0  0  0  0  0  0  0  0  0  0  0  0
  143.4077   77.1208  219.7091 H   0  0  0  0  0  0  0  0  0  0  0  0
  142.6622   78.6333  219.2544 H   0  0  0  0  0  0  0  0  0  0  0  0
  141.9940   77.2390  221.4992 H   0  0  0  0  0  0  0  0  0  0  0  0
  140.4766   79.1369  219.9394 H   0  0  0  0  0  0  0  0  0  0  0  0
  139.7154   78.1931  221.3320 H   0  0  0  0  0  0  0  0  0  0  0  0
  142.0890   77.9281  223.0572 H   0  0  0  0  0  0  0  0  0  0  0  0
  143.0736   79.4393  224.7316 H   0  0  0  0  0  0  0  0  0  0  0  0
  142.7959   81.9021  224.5586 H   0  0  0  0  0  0  0  0  0  0  0  0
  141.4970   82.8201  222.6360 H   0  0  0  0  0  0  0  0  0  0  0  0
  140.5216   81.3127  220.9721 H   0  0  0  0  0  0  0  0  0  0  0  0
  138.7934   69.4456  222.4321 H   0  0  0  0  0  0  0  0  0  0  0  0
  139.2309   67.9203  224.3263 H   0  0  0  0  0  0  0  0  0  0  0  0
  140.0310   67.6200  226.5433 H   0  0  0  0  0  0  0  0  0  0  0  0
  141.5282   70.9907  228.7078 H   0  0  0  0  0  0  0  0  0  0  0  0
  141.0828   72.5032  226.7977 H   0  0  0  0  0  0  0  0  0  0  0  0
  1  2  2  0
  2  3  1  0
  3  4  1  0
  4  5  1  0
  5  6  2  0
  5  7  1  0
  7  8  1  0
  8  9  1  0
  9 10  1  0
 10 11  1  0
 11 12  1  0
 12 13  1  0
 13 14  2  0
 14 15  1  0
 15 16  2  0
 16 17  1  0
 17 18  2  0
  2 19  1  0
 19 20  2  0
 20 21  1  0
 21 22  2  0
 22 23  1  0
 23 24  2  0
 24 25  1  0
 24 26  1  0
 26 27  2  0
 27 28  1  0
 28 29  2  0
 11  7  1  0
 18 13  1  0
 29 19  1  0
 28 22  1  0
  3 30  1  0
  4 31  1  0
  4 32  1  0
  8 33  1  0
  8 34  1  0
  9 35  1  0
  9 36  1  0
 10 37  1  0
 10 38  1  0
 11 39  1  1
 12 40  1  0
 12 41  1  0
 14 42  1  0
 15 43  1  0
 16 44  1  0
 17 45  1  0
 18 46  1  0
 20 47  1  0
 21 48  1  0
 23 49  1  0
 26 50  1  0
 27 51  1  0
M  END
>  <smiles>  (79) 
O=C(NCC(=O)N1CCCC1Cc1ccccc1)c1ccc2cc(Cl)ccc2n1

>  <score_type>  (79) 
oracle

>  <origin>  (79) 
autodockgpu

>  <m_score__min__energy>  (79) 
-8.9499999999999993

>  <m_primary>  (79) 
energy

>  <rmsd>  (79) 
1.4031570310968584

>  <m_score__min__rmsd>  (79) 
1.4031570310968584

>  <meeko>  (79) 
{"free_energy": -8.47, "intermolecular_energy": -10.26, "internal_energy": -1.42, "cluster_size": 35, "cluster_id": 1, "rank_in_cluster": 20}

>  <energy>  (79) 
-8.36

>  <cluster_rmsd>  (79) 
0.94

>  <cluster>  (79) 
1

$$$$

     RDKit          3D

 51 54  0  0  0  0  0  0  0  0999 V2000
  138.2440   71.3690  221.3300 O   0  0  0  0  0  0  0  0  0  0  0  0
  138.8190   71.9350  222.3240 C   0  0  0  0  0  0  0  0  0  0  0  0
  139.0900   73.3360  222.3220 N   0  0  0  0  0  0  0  0  0  0  0  0
  138.7340   74.1950  221.2370 C   0  0  0  0  0  0  0  0  0  0  0  0
  138.8110   75.6340  221.3980 C   0  0  0  0  0  0  0  0  0  0  0  0
  137.9360   76.1110  222.2420 O   0  0  0  0  0  0  0  0  0  0  0  0
  139.6690   76.5730  220.7860 N   0  0  0  0  0  0  0  0  0  0  0  0
  139.4190   77.4010  219.5900 C   0  0  0  0  0  0  0  0  0  0  0  0
  140.4300   78.5470  219.7460 C   0  0  0  0  0  0  0  0  0  0  0  0
  141.6400   77.8350  220.3670 C   0  0  0  0  0  0  0  0  0  0  0  0
  140.9990   76.8720  221.2930 C   0  0  1  0  0  0  0  0  0  0  0  0
  141.0670   77.2510  222.7290 C   0  0  0  0  0  0  0  0  0  0  0  0
  141.3470   78.6730  223.0090 C   0  0  0  0  0  0  0  0  0  0  0  0
  140.2920   79.5740  223.2050 C   0  0  0  0  0  0  0  0  0  0  0  0
  140.5270   80.9130  223.4680 C   0  0  0  0  0  0  0  0  0  0  0  0
  141.8070   81.4200  223.5470 C   0  0  0  0  0  0  0  0  0  0  0  0
  142.8560   80.5450  223.3560 C   0  0  0  0  0  0  0  0  0  0  0  0
  142.6100   79.2130  223.0940 C   0  0  0  0  0  0  0  0  0  0  0  0
  139.2020   71.1040  223.4850 C   0  0  0  0  0  0  0  0  0  0  0  0
  138.9460   69.7500  223.4680 C   0  0  0  0  0  0  0  0  0  0  0  0
  139.2660   68.9020  224.5000 C   0  0  0  0  0  0  0  0  0  0  0  0
  139.8800   69.4660  225.6040 C   0  0  0  0  0  0  0  0  0  0  0  0
  140.2110   68.6370  226.6510 C   0  0  0  0  0  0  0  0  0  0  0  0
  140.8210   69.2010  227.7490 C   0  0  0  0  0  0  0  0  0  0  0  0
  141.2390   68.1280  229.0810 Cl  0  0  0  0  0  0  0  0  0  0  0  0
  141.0750   70.5440  227.7640 C   0  0  0  0  0  0  0  0  0  0  0  0
  140.7460   71.3860  226.7160 C   0  0  0  0  0  0  0  0  0  0  0  0
  140.1260   70.8230  225.5970 C   0  0  0  0  0  0  0  0  0  0  0  0
  139.7920   71.6170  224.5570 N   0  0  0  0  0  0  0  0  0  0  0  0
  139.5820   73.6840  223.2030 H   0  0  0  0  0  0  0  0  0  0  0  0
  139.3924   73.9336  220.3954 H   0  0  0  0  0  0  0  0  0  0  0  0
  137.6568   74.0113  221.1111 H   0  0  0  0  0  0  0  0  0  0  0  0
  139.6067   76.8309  218.6681 H   0  0  0  0  0  0  0  0  0  0  0  0
  138.3782   77.7485  219.5130 H   0  0  0  0  0  0  0  0  0  0  0  0
  140.6849   78.9886  218.7713 H   0  0  0  0  0  0  0  0  0  0  0  0
  140.0547   79.3856  220.3509 H   0  0  0  0  0  0  0  0  0  0  0  0
  142.2333   77.3155  219.6001 H   0  0  0  0  0  0  0  0  0  0  0  0
  142.3467   78.5177  220.8615 H   0  0  0  0  0  0  0  0  0  0  0  0
  141.5811   75.9387  221.3032 H   0  0  0  0  0  0  0  0  0  0  0  0
  140.0998   77.0012  223.1895 H   0  0  0  0  0  0  0  0  0  0  0  0
  141.9195   76.6930  223.1436 H   0  0  0  0  0  0  0  0  0  0  0  0
  139.2555   79.2100  223.1488 H   0  0  0  0  0  0  0  0  0  0  0  0
  139.6719   81.5887  223.6175 H   0  0  0  0  0  0  0  0  0  0  0  0
  141.9853   82.4853  223.7551 H   0  0  0  0  0  0  0  0  0  0  0  0
  143.8920   80.9104  223.4128 H   0  0  0  0  0  0  0  0  0  0  0  0
  143.4714   78.5454  222.9447 H   0  0  0  0  0  0  0  0  0  0  0  0
  138.4583   69.3247  222.5785 H   0  0  0  0  0  0  0  0  0  0  0  0
  139.0446   67.8256  224.4510 H   0  0  0  0  0  0  0  0  0  0  0  0
  139.9954   67.5590  226.6121 H   0  0  0  0  0  0  0  0  0  0  0  0
  141.5635   70.9756  228.6501 H   0  0  0  0  0  0  0  0  0  0  0  0
  140.9653   72.4629  226.7622 H   0  0  0  0  0  0  0  0  0  0  0  0
  1  2  2  0
  2  3  1  0
  3  4  1  0
  4  5  1  0
  5  6  2  0
  5  7  1  0
  7  8  1  0
  8  9  1  0
  9 10  1  0
 10 11  1  0
 11 12  1  0
 12 13  1  0
 13 14  2  0
 14 15  1  0
 15 16  2  0
 16 17  1  0
 17 18  2  0
  2 19  1  0
 19 20  2  0
 20 21  1  0
 21 22  2  0
 22 23  1  0
 23 24  2  0
 24 25  1  0
 24 26  1  0
 26 27  2  0
 27 28  1  0
 28 29  2  0
 11  7  1  0
 18 13  1  0
 29 19  1  0
 28 22  1  0
  3 30  1  0
  4 31  1  0
  4 32  1  0
  8 33  1  0
  8 34  1  0
  9 35  1  0
  9 36  1  0
 10 37  1  0
 10 38  1  0
 11 39  1  1
 12 40  1  0
 12 41  1  0
 14 42  1  0
 15 43  1  0
 16 44  1  0
 17 45  1  0
 18 46  1  0
 20 47  1  0
 21 48  1  0
 23 49  1  0
 26 50  1  0
 27 51  1  0
M  END
>  <smiles>  (80) 
O=C(NCC(=O)N1CCCC1Cc1ccccc1)c1ccc2cc(Cl)ccc2n1

>  <score_type>  (80) 
oracle

>  <origin>  (80) 
autodockgpu

>  <m_score__min__energy>  (80) 
-8.9499999999999993

>  <m_primary>  (80) 
energy

>  <rmsd>  (80) 
1.6408606171130395

>  <m_score__min__rmsd>  (80) 
1.6408606171130395

>  <meeko>  (80) 
{"free_energy": -8.75, "intermolecular_energy": -10.54, "internal_energy": -1.59, "cluster_size": 35, "cluster_id": 1, "rank_in_cluster": 8}

>  <energy>  (80) 
-8.34

>  <cluster_rmsd>  (80) 
1.12

>  <cluster>  (80) 
1

$$$$

     RDKit          3D

 51 54  0  0  0  0  0  0  0  0999 V2000
  138.8080   72.2850  220.8240 O   0  0  0  0  0  0  0  0  0  0  0  0
  139.7870   72.4310  221.6350 C   0  0  0  0  0  0  0  0  0  0  0  0
  140.8240   73.3770  221.3780 N   0  0  0  0  0  0  0  0  0  0  0  0
  140.8370   74.2230  220.2260 C   0  0  0  0  0  0  0  0  0  0  0  0
  139.8880   75.3140  220.1180 C   0  0  0  0  0  0  0  0  0  0  0  0
  139.8160   75.8220  218.9160 O   0  0  0  0  0  0  0  0  0  0  0  0
  139.0550   75.8960  221.0970 N   0  0  0  0  0  0  0  0  0  0  0  0
  137.7480   75.4190  221.5910 C   0  0  0  0  0  0  0  0  0  0  0  0
  137.6200   76.1160  222.9550 C   0  0  0  0  0  0  0  0  0  0  0  0
  138.2730   77.4790  222.6890 C   0  0  0  0  0  0  0  0  0  0  0  0
  139.4030   77.1210  221.7990 C   0  0  1  0  0  0  0  0  0  0  0  0
  140.7370   77.1260  222.4570 C   0  0  0  0  0  0  0  0  0  0  0  0
  141.3730   78.4470  222.6190 C   0  0  0  0  0  0  0  0  0  0  0  0
  141.8070   78.8710  223.8820 C   0  0  0  0  0  0  0  0  0  0  0  0
  142.4060   80.1070  224.0620 C   0  0  0  0  0  0  0  0  0  0  0  0
  142.5990   80.9750  223.0080 C   0  0  0  0  0  0  0  0  0  0  0  0
  142.1760   80.5730  221.7590 C   0  0  0  0  0  0  0  0  0  0  0  0
  141.5810   79.3390  221.5920 C   0  0  0  0  0  0  0  0  0  0  0  0
  139.8270   71.5950  222.8540 C   0  0  0  0  0  0  0  0  0  0  0  0
  139.2330   70.3520  222.8450 C   0  0  0  0  0  0  0  0  0  0  0  0
  139.2200   69.5080  223.9290 C   0  0  0  0  0  0  0  0  0  0  0  0
  139.8480   69.9570  225.0780 C   0  0  0  0  0  0  0  0  0  0  0  0
  139.8490   69.1290  226.1770 C   0  0  0  0  0  0  0  0  0  0  0  0
  140.4740   69.5790  227.3190 C   0  0  0  0  0  0  0  0  0  0  0  0
  140.4690   68.5100  228.7170 Cl  0  0  0  0  0  0  0  0  0  0  0  0
  141.0640   70.8130  227.3240 C   0  0  0  0  0  0  0  0  0  0  0  0
  141.0680   71.6520  226.2230 C   0  0  0  0  0  0  0  0  0  0  0  0
  140.4360   71.2050  225.0600 C   0  0  0  0  0  0  0  0  0  0  0  0
  140.4220   72.0000  223.9680 N   0  0  0  0  0  0  0  0  0  0  0  0
  141.5880   73.3960  222.1230 H   0  0  0  0  0  0  0  0  0  0  0  0
  141.8411   74.6687  220.1704 H   0  0  0  0  0  0  0  0  0  0  0  0
  140.5388   73.5464  219.4115 H   0  0  0  0  0  0  0  0  0  0  0  0
  136.9351   75.7214  220.9144 H   0  0  0  0  0  0  0  0  0  0  0  0
  137.6824   74.3229  221.6559 H   0  0  0  0  0  0  0  0  0  0  0  0
  136.5655   76.2297  223.2467 H   0  0  0  0  0  0  0  0  0  0  0  0
  138.0866   75.5578  223.7801 H   0  0  0  0  0  0  0  0  0  0  0  0
  137.5736   78.1646  222.1883 H   0  0  0  0  0  0  0  0  0  0  0  0
  138.5832   78.0044  223.6043 H   0  0  0  0  0  0  0  0  0  0  0  0
  139.5427   77.9171  221.0529 H   0  0  0  0  0  0  0  0  0  0  0  0
  140.6205   76.6836  223.4573 H   0  0  0  0  0  0  0  0  0  0  0  0
  141.3999   76.5577  221.7880 H   0  0  0  0  0  0  0  0  0  0  0  0
  141.6691   78.2083  224.7491 H   0  0  0  0  0  0  0  0  0  0  0  0
  142.7353   80.4029  225.0690 H   0  0  0  0  0  0  0  0  0  0  0  0
  143.0746   81.9554  223.1588 H   0  0  0  0  0  0  0  0  0  0  0  0
  142.3131   81.2376  220.8932 H   0  0  0  0  0  0  0  0  0  0  0  0
  141.2547   79.0524  220.5813 H   0  0  0  0  0  0  0  0  0  0  0  0
  138.7423   70.0169  221.9193 H   0  0  0  0  0  0  0  0  0  0  0  0
  138.7337   68.5223  223.8859 H   0  0  0  0  0  0  0  0  0  0  0  0
  139.3668   68.1408  226.1447 H   0  0  0  0  0  0  0  0  0  0  0  0
  141.5581   71.1545  228.2455 H   0  0  0  0  0  0  0  0  0  0  0  0
  141.5530   72.6385  226.2625 H   0  0  0  0  0  0  0  0  0  0  0  0
  1  2  2  0
  2  3  1  0
  3  4  1  0
  4  5  1  0
  5  6  2  0
  5  7  1  0
  7  8  1  0
  8  9  1  0
  9 10  1  0
 10 11  1  0
 11 12  1  0
 12 13  1  0
 13 14  2  0
 14 15  1  0
 15 16  2  0
 16 17  1  0
 17 18  2  0
  2 19  1  0
 19 20  2  0
 20 21  1  0
 21 22  2  0
 22 23  1  0
 23 24  2  0
 24 25  1  0
 24 26  1  0
 26 27  2  0
 27 28  1  0
 28 29  2  0
 11  7  1  0
 18 13  1  0
 29 19  1  0
 28 22  1  0
  3 30  1  0
  4 31  1  0
  4 32  1  0
  8 33  1  0
  8 34  1  0
  9 35  1  0
  9 36  1  0
 10 37  1  0
 10 38  1  0
 11 39  1  6
 12 40  1  0
 12 41  1  0
 14 42  1  0
 15 43  1  0
 16 44  1  0
 17 45  1  0
 18 46  1  0
 20 47  1  0
 21 48  1  0
 23 49  1  0
 26 50  1  0
 27 51  1  0
M  END
>  <smiles>  (81) 
O=C(NCC(=O)N1CCCC1Cc1ccccc1)c1ccc2cc(Cl)ccc2n1

>  <score_type>  (81) 
oracle

>  <origin>  (81) 
autodockgpu

>  <m_score__min__energy>  (81) 
-8.9499999999999993

>  <m_primary>  (81) 
energy

>  <rmsd>  (81) 
2.960949413621504

>  <m_score__min__rmsd>  (81) 
2.960949413621504

>  <meeko>  (81) 
{"free_energy": -8.06, "intermolecular_energy": -9.85, "internal_energy": -1.73, "cluster_size": 35, "cluster_id": 1, "rank_in_cluster": 34}

>  <energy>  (81) 
-8.33

>  <cluster_rmsd>  (81) 
1.32

>  <cluster>  (81) 
1

$$$$

     RDKit          3D

 51 54  0  0  0  0  0  0  0  0999 V2000
  138.4480   71.2870  221.2160 O   0  0  0  0  0  0  0  0  0  0  0  0
  138.9010   71.8750  222.2590 C   0  0  0  0  0  0  0  0  0  0  0  0
  139.0640   73.2920  222.2960 N   0  0  0  0  0  0  0  0  0  0  0  0
  138.7250   74.1420  221.2000 C   0  0  0  0  0  0  0  0  0  0  0  0
  139.3970   75.4170  221.0380 C   0  0  0  0  0  0  0  0  0  0  0  0
  140.5940   75.3130  220.5250 O   0  0  0  0  0  0  0  0  0  0  0  0
  138.9600   76.7220  221.3510 N   0  0  0  0  0  0  0  0  0  0  0  0
  137.9320   77.1360  222.3260 C   0  0  0  0  0  0  0  0  0  0  0  0
  138.2870   78.6050  222.6000 C   0  0  0  0  0  0  0  0  0  0  0  0
  138.7670   79.0880  221.2240 C   0  0  0  0  0  0  0  0  0  0  0  0
  139.5070   77.9100  220.7150 C   0  0  1  0  0  0  0  0  0  0  0  0
  140.9880   78.0380  220.7650 C   0  0  0  0  0  0  0  0  0  0  0  0
  141.5280   78.8700  221.8580 C   0  0  0  0  0  0  0  0  0  0  0  0
  141.4530   78.4270  223.1850 C   0  0  0  0  0  0  0  0  0  0  0  0
  141.9500   79.1880  224.2290 C   0  0  0  0  0  0  0  0  0  0  0  0
  142.5400   80.4150  224.0110 C   0  0  0  0  0  0  0  0  0  0  0  0
  142.6220   80.8650  222.7100 C   0  0  0  0  0  0  0  0  0  0  0  0
  142.1230   80.0980  221.6780 C   0  0  0  0  0  0  0  0  0  0  0  0
  139.2590   71.0520  223.4350 C   0  0  0  0  0  0  0  0  0  0  0  0
  138.9770   69.7040  223.4330 C   0  0  0  0  0  0  0  0  0  0  0  0
  139.2730   68.8640  224.4790 C   0  0  0  0  0  0  0  0  0  0  0  0
  139.8880   69.4310  225.5810 C   0  0  0  0  0  0  0  0  0  0  0  0
  140.1940   68.6100  226.6420 C   0  0  0  0  0  0  0  0  0  0  0  0
  140.8060   69.1780  227.7380 C   0  0  0  0  0  0  0  0  0  0  0  0
  141.1920   68.1160  229.0870 Cl  0  0  0  0  0  0  0  0  0  0  0  0
  141.0850   70.5170  227.7370 C   0  0  0  0  0  0  0  0  0  0  0  0
  140.7800   71.3500  226.6740 C   0  0  0  0  0  0  0  0  0  0  0  0
  140.1590   70.7830  225.5580 C   0  0  0  0  0  0  0  0  0  0  0  0
  139.8490   71.5690  224.5050 N   0  0  0  0  0  0  0  0  0  0  0  0
  139.4600   73.6590  223.2170 H   0  0  0  0  0  0  0  0  0  0  0  0
  138.9109   73.5658  220.2816 H   0  0  0  0  0  0  0  0  0  0  0  0
  137.6849   74.4290  221.4141 H   0  0  0  0  0  0  0  0  0  0  0  0
  136.9226   77.0464  221.8982 H   0  0  0  0  0  0  0  0  0  0  0  0
  137.9217   76.5159  223.2345 H   0  0  0  0  0  0  0  0  0  0  0  0
  137.4061   79.1717  222.9361 H   0  0  0  0  0  0  0  0  0  0  0  0
  139.0330   78.7364  223.3977 H   0  0  0  0  0  0  0  0  0  0  0  0
  137.9176   79.3373  220.5710 H   0  0  0  0  0  0  0  0  0  0  0  0
  139.3742   80.0043  221.2665 H   0  0  0  0  0  0  0  0  0  0  0  0
  139.3471   77.8242  219.6301 H   0  0  0  0  0  0  0  0  0  0  0  0
  141.4099   77.0277  220.8709 H   0  0  0  0  0  0  0  0  0  0  0  0
  141.2736   78.5491  219.8338 H   0  0  0  0  0  0  0  0  0  0  0  0
  140.9892   77.4534  223.4019 H   0  0  0  0  0  0  0  0  0  0  0  0
  141.8724   78.8047  225.2571 H   0  0  0  0  0  0  0  0  0  0  0  0
  142.9318   81.0143  224.8461 H   0  0  0  0  0  0  0  0  0  0  0  0
  143.0867   81.8385  222.4947 H   0  0  0  0  0  0  0  0  0  0  0  0
  142.2052   80.4898  220.6534 H   0  0  0  0  0  0  0  0  0  0  0  0
  138.4880   69.2765  222.5453 H   0  0  0  0  0  0  0  0  0  0  0  0
  139.0324   67.7913  224.4421 H   0  0  0  0  0  0  0  0  0  0  0  0
  139.9579   67.5360  226.6160 H   0  0  0  0  0  0  0  0  0  0  0  0
  141.5741   70.9519  228.6211 H   0  0  0  0  0  0  0  0  0  0  0  0
  141.0188   72.4233  226.7069 H   0  0  0  0  0  0  0  0  0  0  0  0
  1  2  2  0
  2  3  1  0
  3  4  1  0
  4  5  1  0
  5  6  2  0
  5  7  1  0
  7  8  1  0
  8  9  1  0
  9 10  1  0
 10 11  1  0
 11 12  1  0
 12 13  1  0
 13 14  2  0
 14 15  1  0
 15 16  2  0
 16 17  1  0
 17 18  2  0
  2 19  1  0
 19 20  2  0
 20 21  1  0
 21 22  2  0
 22 23  1  0
 23 24  2  0
 24 25  1  0
 24 26  1  0
 26 27  2  0
 27 28  1  0
 28 29  2  0
 11  7  1  0
 18 13  1  0
 29 19  1  0
 28 22  1  0
  3 30  1  0
  4 31  1  0
  4 32  1  0
  8 33  1  0
  8 34  1  0
  9 35  1  0
  9 36  1  0
 10 37  1  0
 10 38  1  0
 11 39  1  6
 12 40  1  0
 12 41  1  0
 14 42  1  0
 15 43  1  0
 16 44  1  0
 17 45  1  0
 18 46  1  0
 20 47  1  0
 21 48  1  0
 23 49  1  0
 26 50  1  0
 27 51  1  0
M  END
>  <smiles>  (82) 
O=C(NCC(=O)N1CCCC1Cc1ccccc1)c1ccc2cc(Cl)ccc2n1

>  <score_type>  (82) 
oracle

>  <origin>  (82) 
autodockgpu

>  <m_score__min__energy>  (82) 
-8.9499999999999993

>  <m_primary>  (82) 
energy

>  <rmsd>  (82) 
2.5964109926290617

>  <m_score__min__rmsd>  (82) 
2.5964109926290617

>  <meeko>  (82) 
{"free_energy": -8.42, "intermolecular_energy": -10.21, "internal_energy": -1.46, "cluster_size": 35, "cluster_id": 1, "rank_in_cluster": 23}

>  <energy>  (82) 
-8.23

>  <cluster_rmsd>  (82) 
0.8

>  <cluster>  (82) 
1

$$$$

     RDKit          3D

 51 54  0  0  0  0  0  0  0  0999 V2000
  139.6760   74.0520  222.2910 O   0  0  0  0  0  0  0  0  0  0  0  0
  140.3150   72.9500  222.1620 C   0  0  0  0  0  0  0  0  0  0  0  0
  141.0640   72.6630  220.9820 N   0  0  0  0  0  0  0  0  0  0  0  0
  141.1650   73.5730  219.8850 C   0  0  0  0  0  0  0  0  0  0  0  0
  141.7600   74.8810  220.0810 C   0  0  0  0  0  0  0  0  0  0  0  0
  142.1800   75.0840  221.3010 O   0  0  0  0  0  0  0  0  0  0  0  0
  141.9430   75.9420  219.1690 N   0  0  0  0  0  0  0  0  0  0  0  0
  141.9920   75.8870  217.6950 C   0  0  0  0  0  0  0  0  0  0  0  0
  141.6660   77.3320  217.2850 C   0  0  0  0  0  0  0  0  0  0  0  0
  142.3550   78.1490  218.3860 C   0  0  0  0  0  0  0  0  0  0  0  0
  142.1110   77.3230  219.5920 C   0  0  1  0  0  0  0  0  0  0  0  0
  141.0580   77.8480  220.5010 C   0  0  0  0  0  0  0  0  0  0  0  0
  141.5300   78.6710  221.6310 C   0  0  0  0  0  0  0  0  0  0  0  0
  141.3600   78.2240  222.9490 C   0  0  0  0  0  0  0  0  0  0  0  0
  141.7920   78.9780  224.0270 C   0  0  0  0  0  0  0  0  0  0  0  0
  142.4070   80.2000  223.8530 C   0  0  0  0  0  0  0  0  0  0  0  0
  142.5820   80.6530  222.5630 C   0  0  0  0  0  0  0  0  0  0  0  0
  142.1470   79.8930  221.4960 C   0  0  0  0  0  0  0  0  0  0  0  0
  140.2620   71.9700  223.2680 C   0  0  0  0  0  0  0  0  0  0  0  0
  139.7230   70.7220  223.0450 C   0  0  0  0  0  0  0  0  0  0  0  0
  139.6330   69.7480  224.0110 C   0  0  0  0  0  0  0  0  0  0  0  0
  140.1180   70.0680  225.2660 C   0  0  0  0  0  0  0  0  0  0  0  0
  140.0390   69.1100  226.2510 C   0  0  0  0  0  0  0  0  0  0  0  0
  140.5230   69.4310  227.5000 C   0  0  0  0  0  0  0  0  0  0  0  0
  140.4160   68.1960  228.7490 Cl  0  0  0  0  0  0  0  0  0  0  0  0
  141.0580   70.6700  227.7190 C   0  0  0  0  0  0  0  0  0  0  0  0
  141.1420   71.6400  226.7340 C   0  0  0  0  0  0  0  0  0  0  0  0
  140.6530   71.3240  225.4640 C   0  0  0  0  0  0  0  0  0  0  0  0
  140.7200   72.2480  224.4820 N   0  0  0  0  0  0  0  0  0  0  0  0
  141.5420   71.7090  220.9930 H   0  0  0  0  0  0  0  0  0  0  0  0
  141.7566   73.0683  219.1070 H   0  0  0  0  0  0  0  0  0  0  0  0
  140.1155   73.8048  219.6510 H   0  0  0  0  0  0  0  0  0  0  0  0
  142.9916   75.5920  217.3433 H   0  0  0  0  0  0  0  0  0  0  0  0
  141.3003   75.1475  217.2652 H   0  0  0  0  0  0  0  0  0  0  0  0
  142.0820   77.5683  216.2945 H   0  0  0  0  0  0  0  0  0  0  0  0
  140.5879   77.5321  217.1981 H   0  0  0  0  0  0  0  0  0  0  0  0
  143.4317   78.2562  218.1878 H   0  0  0  0  0  0  0  0  0  0  0  0
  141.9764   79.1781  218.4731 H   0  0  0  0  0  0  0  0  0  0  0  0
  142.9906   77.3754  220.2504 H   0  0  0  0  0  0  0  0  0  0  0  0
  140.3712   78.4628  219.9007 H   0  0  0  0  0  0  0  0  0  0  0  0
  140.5896   76.9622  220.9548 H   0  0  0  0  0  0  0  0  0  0  0  0
  140.8734   77.2543  223.1304 H   0  0  0  0  0  0  0  0  0  0  0  0
  141.6411   78.5931  225.0464 H   0  0  0  0  0  0  0  0  0  0  0  0
  142.7465   80.7933  224.7148 H   0  0  0  0  0  0  0  0  0  0  0  0
  143.0695   81.6226  222.3834 H   0  0  0  0  0  0  0  0  0  0  0  0
  142.3025   80.2867  220.4807 H   0  0  0  0  0  0  0  0  0  0  0  0
  139.3437   70.4921  222.0384 H   0  0  0  0  0  0  0  0  0  0  0  0
  139.1962   68.7616  223.7961 H   0  0  0  0  0  0  0  0  0  0  0  0
  139.6037   68.1205  226.0475 H   0  0  0  0  0  0  0  0  0  0  0  0
  141.4391   70.9072  228.7232 H   0  0  0  0  0  0  0  0  0  0  0  0
  141.5795   72.6270  226.9447 H   0  0  0  0  0  0  0  0  0  0  0  0
  1  2  2  0
  2  3  1  0
  3  4  1  0
  4  5  1  0
  5  6  2  0
  5  7  1  0
  7  8  1  0
  8  9  1  0
  9 10  1  0
 10 11  1  0
 11 12  1  0
 12 13  1  0
 13 14  2  0
 14 15  1  0
 15 16  2  0
 16 17  1  0
 17 18  2  0
  2 19  1  0
 19 20  2  0
 20 21  1  0
 21 22  2  0
 22 23  1  0
 23 24  2  0
 24 25  1  0
 24 26  1  0
 26 27  2  0
 27 28  1  0
 28 29  2  0
 11  7  1  0
 18 13  1  0
 29 19  1  0
 28 22  1  0
  3 30  1  0
  4 31  1  0
  4 32  1  0
  8 33  1  0
  8 34  1  0
  9 35  1  0
  9 36  1  0
 10 37  1  0
 10 38  1  0
 11 39  1  1
 12 40  1  0
 12 41  1  0
 14 42  1  0
 15 43  1  0
 16 44  1  0
 17 45  1  0
 18 46  1  0
 20 47  1  0
 21 48  1  0
 23 49  1  0
 26 50  1  0
 27 51  1  0
M  END
>  <smiles>  (83) 
O=C(NCC(=O)N1CCCC1Cc1ccccc1)c1ccc2cc(Cl)ccc2n1

>  <score_type>  (83) 
oracle

>  <origin>  (83) 
autodockgpu

>  <m_score__min__energy>  (83) 
-8.9499999999999993

>  <m_primary>  (83) 
energy

>  <rmsd>  (83) 
2.2120262682720466

>  <m_score__min__rmsd>  (83) 
2.2120262682720466

>  <meeko>  (83) 
{"free_energy": -8.56, "intermolecular_energy": -10.35, "internal_energy": -1.28, "cluster_size": 35, "cluster_id": 1, "rank_in_cluster": 15}

>  <energy>  (83) 
-8.2

>  <cluster_rmsd>  (83) 
0.88

>  <cluster>  (83) 
1

$$$$

     RDKit          3D

 51 54  0  0  0  0  0  0  0  0999 V2000
  140.3330   72.3890  220.7270 O   0  0  0  0  0  0  0  0  0  0  0  0
  140.0420   72.8270  221.8930 C   0  0  0  0  0  0  0  0  0  0  0  0
  139.6930   74.1950  222.1030 N   0  0  0  0  0  0  0  0  0  0  0  0
  139.6310   75.1530  221.0450 C   0  0  0  0  0  0  0  0  0  0  0  0
  140.7130   76.1010  220.8630 C   0  0  0  0  0  0  0  0  0  0  0  0
  141.4040   76.3170  221.9500 O   0  0  0  0  0  0  0  0  0  0  0  0
  141.1150   76.8120  219.7120 N   0  0  0  0  0  0  0  0  0  0  0  0
  140.5020   78.0160  219.1160 C   0  0  0  0  0  0  0  0  0  0  0  0
  141.6430   78.6030  218.2720 C   0  0  0  0  0  0  0  0  0  0  0  0
  142.3450   77.3420  217.7470 C   0  0  0  0  0  0  0  0  0  0  0  0
  142.2670   76.4300  218.9120 C   0  0  1  0  0  0  0  0  0  0  0  0
  143.5420   76.2690  219.6610 C   0  0  0  0  0  0  0  0  0  0  0  0
  143.8920   74.8910  220.0540 C   0  0  0  0  0  0  0  0  0  0  0  0
  145.1910   74.5880  220.4840 C   0  0  0  0  0  0  0  0  0  0  0  0
  145.5460   73.3030  220.8570 C   0  0  0  0  0  0  0  0  0  0  0  0
  144.6400   72.2640  220.8210 C   0  0  0  0  0  0  0  0  0  0  0  0
  143.3570   72.5460  220.4000 C   0  0  0  0  0  0  0  0  0  0  0  0
  143.0150   73.8310  220.0310 C   0  0  0  0  0  0  0  0  0  0  0  0
  140.0740   71.8840  223.0320 C   0  0  0  0  0  0  0  0  0  0  0  0
  139.5860   70.6060  222.8700 C   0  0  0  0  0  0  0  0  0  0  0  0
  139.5750   69.6630  223.8690 C   0  0  0  0  0  0  0  0  0  0  0  0
  140.0900   70.0470  225.0950 C   0  0  0  0  0  0  0  0  0  0  0  0
  140.0910   69.1210  226.1120 C   0  0  0  0  0  0  0  0  0  0  0  0
  140.6030   69.5060  227.3310 C   0  0  0  0  0  0  0  0  0  0  0  0
  140.5980   68.3110  228.6240 Cl  0  0  0  0  0  0  0  0  0  0  0  0
  141.0880   70.7750  227.4900 C   0  0  0  0  0  0  0  0  0  0  0  0
  141.0910   71.7140  226.4720 C   0  0  0  0  0  0  0  0  0  0  0  0
  140.5730   71.3320  225.2310 C   0  0  0  0  0  0  0  0  0  0  0  0
  140.5620   72.2240  224.2180 N   0  0  0  0  0  0  0  0  0  0  0  0
  139.4820   74.4380  223.1210 H   0  0  0  0  0  0  0  0  0  0  0  0
  139.5446   74.5853  220.1068 H   0  0  0  0  0  0  0  0  0  0  0  0
  138.7807   75.7902  221.3294 H   0  0  0  0  0  0  0  0  0  0  0  0
  139.6404   77.7503  218.4858 H   0  0  0  0  0  0  0  0  0  0  0  0
  140.1111   78.7197  219.8657 H   0  0  0  0  0  0  0  0  0  0  0  0
  141.2528   79.2149  217.4454 H   0  0  0  0  0  0  0  0  0  0  0  0
  142.3074   79.2741  218.8361 H   0  0  0  0  0  0  0  0  0  0  0  0
  141.8161   76.9242  216.8777 H   0  0  0  0  0  0  0  0  0  0  0  0
  143.3719   77.5227  217.3967 H   0  0  0  0  0  0  0  0  0  0  0  0
  142.1103   75.4015  218.5547 H   0  0  0  0  0  0  0  0  0  0  0  0
  144.3549   76.6552  219.0285 H   0  0  0  0  0  0  0  0  0  0  0  0
  143.4039   76.8198  220.6031 H   0  0  0  0  0  0  0  0  0  0  0  0
  145.9445   75.3883  220.5260 H   0  0  0  0  0  0  0  0  0  0  0  0
  146.5757   73.1060  221.1901 H   0  0  0  0  0  0  0  0  0  0  0  0
  144.9304   71.2454  221.1178 H   0  0  0  0  0  0  0  0  0  0  0  0
  142.6047   71.7446  220.3583 H   0  0  0  0  0  0  0  0  0  0  0  0
  141.9829   74.0185  219.6998 H   0  0  0  0  0  0  0  0  0  0  0  0
  139.1827   70.3249  221.8860 H   0  0  0  0  0  0  0  0  0  0  0  0
  139.1761   68.6515  223.7026 H   0  0  0  0  0  0  0  0  0  0  0  0
  139.6958   68.1063  225.9567 H   0  0  0  0  0  0  0  0  0  0  0  0
  141.4941   71.0628  228.4710 H   0  0  0  0  0  0  0  0  0  0  0  0
  141.4879   72.7269  226.6346 H   0  0  0  0  0  0  0  0  0  0  0  0
  1  2  2  0
  2  3  1  0
  3  4  1  0
  4  5  1  0
  5  6  2  0
  5  7  1  0
  7  8  1  0
  8  9  1  0
  9 10  1  0
 10 11  1  0
 11 12  1  0
 12 13  1  0
 13 14  2  0
 14 15  1  0
 15 16  2  0
 16 17  1  0
 17 18  2  0
  2 19  1  0
 19 20  2  0
 20 21  1  0
 21 22  2  0
 22 23  1  0
 23 24  2  0
 24 25  1  0
 24 26  1  0
 26 27  2  0
 27 28  1  0
 28 29  2  0
 11  7  1  0
 18 13  1  0
 29 19  1  0
 28 22  1  0
  3 30  1  0
  4 31  1  0
  4 32  1  0
  8 33  1  0
  8 34  1  0
  9 35  1  0
  9 36  1  0
 10 37  1  0
 10 38  1  0
 11 39  1  6
 12 40  1  0
 12 41  1  0
 14 42  1  0
 15 43  1  0
 16 44  1  0
 17 45  1  0
 18 46  1  0
 20 47  1  0
 21 48  1  0
 23 49  1  0
 26 50  1  0
 27 51  1  0
M  END
>  <smiles>  (84) 
O=C(NCC(=O)N1CCCC1Cc1ccccc1)c1ccc2cc(Cl)ccc2n1

>  <score_type>  (84) 
oracle

>  <origin>  (84) 
autodockgpu

>  <m_score__min__energy>  (84) 
-8.9499999999999993

>  <m_primary>  (84) 
energy

>  <rmsd>  (84) 
2.042519065921473

>  <m_score__min__rmsd>  (84) 
2.042519065921473

>  <meeko>  (84) 
{"free_energy": -8.21, "intermolecular_energy": -10.0, "internal_energy": -1.95, "cluster_size": 6, "cluster_id": 4, "rank_in_cluster": 4}

>  <energy>  (84) 
-8.06

>  <cluster_rmsd>  (84) 
1.5

>  <cluster>  (84) 
1

$$$$

     RDKit          3D

 51 54  0  0  0  0  0  0  0  0999 V2000
  133.7810   69.5690  226.4770 O   0  0  0  0  0  0  0  0  0  0  0  0
  134.2970   70.6630  226.0580 C   0  0  0  0  0  0  0  0  0  0  0  0
  135.4740   70.6640  225.2510 N   0  0  0  0  0  0  0  0  0  0  0  0
  136.1410   69.4680  224.8470 C   0  0  0  0  0  0  0  0  0  0  0  0
  136.8110   69.4100  223.5620 C   0  0  0  0  0  0  0  0  0  0  0  0
  136.4590   68.3830  222.8370 O   0  0  0  0  0  0  0  0  0  0  0  0
  137.7700   70.2780  222.9970 N   0  0  0  0  0  0  0  0  0  0  0  0
  137.6310   71.1590  221.8210 C   0  0  0  0  0  0  0  0  0  0  0  0
  138.7430   72.1970  222.0340 C   0  0  0  0  0  0  0  0  0  0  0  0
  139.8630   71.3540  222.6590 C   0  0  0  0  0  0  0  0  0  0  0  0
  139.1100   70.4320  223.5410 C   0  0  1  0  0  0  0  0  0  0  0  0
  139.1800   70.7640  224.9890 C   0  0  0  0  0  0  0  0  0  0  0  0
  139.7810   69.7350  225.8600 C   0  0  0  0  0  0  0  0  0  0  0  0
  140.4330   70.1060  227.0430 C   0  0  0  0  0  0  0  0  0  0  0  0
  141.0070   69.1610  227.8770 C   0  0  0  0  0  0  0  0  0  0  0  0
  140.9650   67.8150  227.5800 C   0  0  0  0  0  0  0  0  0  0  0  0
  140.3260   67.4340  226.4190 C   0  0  0  0  0  0  0  0  0  0  0  0
  139.7580   68.3850  225.5950 C   0  0  0  0  0  0  0  0  0  0  0  0
  133.6480   71.9380  226.4300 C   0  0  0  0  0  0  0  0  0  0  0  0
  132.4630   71.9180  227.1330 C   0  0  0  0  0  0  0  0  0  0  0  0
  131.7890   73.0510  227.5200 C   0  0  0  0  0  0  0  0  0  0  0  0
  132.3570   74.2650  227.1730 C   0  0  0  0  0  0  0  0  0  0  0  0
  131.7010   75.4140  227.5500 C   0  0  0  0  0  0  0  0  0  0  0  0
  132.2680   76.6200  227.2020 C   0  0  0  0  0  0  0  0  0  0  0  0
  131.4190   78.0830  227.6910 Cl  0  0  0  0  0  0  0  0  0  0  0  0
  133.4440   76.6380  226.5050 C   0  0  0  0  0  0  0  0  0  0  0  0
  134.1110   75.4860  226.1220 C   0  0  0  0  0  0  0  0  0  0  0  0
  133.5430   74.2580  226.4700 C   0  0  0  0  0  0  0  0  0  0  0  0
  134.1690   73.1160  226.1110 N   0  0  0  0  0  0  0  0  0  0  0  0
  135.8100   71.6400  224.9760 H   0  0  0  0  0  0  0  0  0  0  0  0
  136.9023   69.2551  225.6119 H   0  0  0  0  0  0  0  0  0  0  0  0
  135.3192   68.7452  224.7365 H   0  0  0  0  0  0  0  0  0  0  0  0
  137.7863   70.5991  220.8870 H   0  0  0  0  0  0  0  0  0  0  0  0
  136.6306   71.6075  221.7310 H   0  0  0  0  0  0  0  0  0  0  0  0
  139.0631   72.6394  221.0791 H   0  0  0  0  0  0  0  0  0  0  0  0
  138.4352   73.0505  222.6559 H   0  0  0  0  0  0  0  0  0  0  0  0
  140.4222   70.8014  221.8896 H   0  0  0  0  0  0  0  0  0  0  0  0
  140.6197   71.9508  223.1893 H   0  0  0  0  0  0  0  0  0  0  0  0
  139.5979   69.4461  223.5353 H   0  0  0  0  0  0  0  0  0  0  0  0
  139.7740   71.6837  225.0952 H   0  0  0  0  0  0  0  0  0  0  0  0
  138.1361   70.8617  225.3218 H   0  0  0  0  0  0  0  0  0  0  0  0
  140.4903   71.1702  227.3153 H   0  0  0  0  0  0  0  0  0  0  0  0
  141.5084   69.4920  228.7984 H   0  0  0  0  0  0  0  0  0  0  0  0
  141.4255   67.0708  228.2464 H   0  0  0  0  0  0  0  0  0  0  0  0
  140.2687   66.3693  226.1486 H   0  0  0  0  0  0  0  0  0  0  0  0
  139.2593   68.0446  224.6755 H   0  0  0  0  0  0  0  0  0  0  0  0
  132.0330   70.9411  227.3990 H   0  0  0  0  0  0  0  0  0  0  0  0
  130.8432   72.9962  228.0789 H   0  0  0  0  0  0  0  0  0  0  0  0
  130.7555   75.3710  228.1105 H   0  0  0  0  0  0  0  0  0  0  0  0
  133.8803   77.6114  226.2362 H   0  0  0  0  0  0  0  0  0  0  0  0
  135.0566   75.5364  225.5623 H   0  0  0  0  0  0  0  0  0  0  0  0
  1  2  2  0
  2  3  1  0
  3  4  1  0
  4  5  1  0
  5  6  2  0
  5  7  1  0
  7  8  1  0
  8  9  1  0
  9 10  1  0
 10 11  1  0
 11 12  1  0
 12 13  1  0
 13 14  2  0
 14 15  1  0
 15 16  2  0
 16 17  1  0
 17 18  2  0
  2 19  1  0
 19 20  2  0
 20 21  1  0
 21 22  2  0
 22 23  1  0
 23 24  2  0
 24 25  1  0
 24 26  1  0
 26 27  2  0
 27 28  1  0
 28 29  2  0
 11  7  1  0
 18 13  1  0
 29 19  1  0
 28 22  1  0
  3 30  1  0
  4 31  1  0
  4 32  1  0
  8 33  1  0
  8 34  1  0
  9 35  1  0
  9 36  1  0
 10 37  1  0
 10 38  1  0
 11 39  1  1
 12 40  1  0
 12 41  1  0
 14 42  1  0
 15 43  1  0
 16 44  1  0
 17 45  1  0
 18 46  1  0
 20 47  1  0
 21 48  1  0
 23 49  1  0
 26 50  1  0
 27 51  1  0
M  END
>  <smiles>  (85) 
O=C(NCC(=O)N1CCCC1Cc1ccccc1)c1ccc2cc(Cl)ccc2n1

>  <score_type>  (85) 
oracle

>  <origin>  (85) 
autodockgpu

>  <m_score__min__energy>  (85) 
-8.9499999999999993

>  <m_primary>  (85) 
energy

>  <rmsd>  (85) 
7.719450600408404

>  <m_score__min__rmsd>  (85) 
7.719450600408404

>  <meeko>  (85) 
{"free_energy": -8.12, "intermolecular_energy": -9.91, "internal_energy": -1.63, "cluster_size": 5, "cluster_id": 2, "rank_in_cluster": 4}

>  <energy>  (85) 
-8.0

>  <cluster_rmsd>  (85) 
1.49

>  <cluster>  (85) 
1

$$$$

     RDKit          3D

 51 54  0  0  0  0  0  0  0  0999 V2000
  139.6020   71.8710  220.7530 O   0  0  0  0  0  0  0  0  0  0  0  0
  139.6250   72.3830  221.9260 C   0  0  0  0  0  0  0  0  0  0  0  0
  139.5040   73.7920  222.1190 N   0  0  0  0  0  0  0  0  0  0  0  0
  139.3370   74.7130  221.0410 C   0  0  0  0  0  0  0  0  0  0  0  0
  140.4960   75.3570  220.4530 C   0  0  0  0  0  0  0  0  0  0  0  0
  141.5200   74.5580  220.3130 O   0  0  0  0  0  0  0  0  0  0  0  0
  140.6770   76.6900  220.0250 N   0  0  0  0  0  0  0  0  0  0  0  0
  140.1340   77.3480  218.8190 C   0  0  0  0  0  0  0  0  0  0  0  0
  140.2080   78.8400  219.1780 C   0  0  0  0  0  0  0  0  0  0  0  0
  141.5060   78.9180  219.9930 C   0  0  0  0  0  0  0  0  0  0  0  0
  141.4690   77.6550  220.7690 C   0  0  1  0  0  0  0  0  0  0  0  0
  141.1020   77.8170  222.2010 C   0  0  0  0  0  0  0  0  0  0  0  0
  141.5430   79.0710  222.8430 C   0  0  0  0  0  0  0  0  0  0  0  0
  140.6010   80.0360  223.2250 C   0  0  0  0  0  0  0  0  0  0  0  0
  140.9870   81.2210  223.8280 C   0  0  0  0  0  0  0  0  0  0  0  0
  142.3130   81.5050  224.0780 C   0  0  0  0  0  0  0  0  0  0  0  0
  143.2520   80.5650  223.7080 C   0  0  0  0  0  0  0  0  0  0  0  0
  142.8550   79.3880  223.1080 C   0  0  0  0  0  0  0  0  0  0  0  0
  139.7820   71.4820  223.0880 C   0  0  0  0  0  0  0  0  0  0  0  0
  139.3950   70.1650  222.9840 C   0  0  0  0  0  0  0  0  0  0  0  0
  139.5030   69.2570  224.0100 C   0  0  0  0  0  0  0  0  0  0  0  0
  140.0350   69.7200  225.2000 C   0  0  0  0  0  0  0  0  0  0  0  0
  140.1540   68.8300  226.2430 C   0  0  0  0  0  0  0  0  0  0  0  0
  140.6830   69.2950  227.4270 C   0  0  0  0  0  0  0  0  0  0  0  0
  140.8290   68.1450  228.7510 Cl  0  0  0  0  0  0  0  0  0  0  0  0
  141.0670   70.6030  227.5270 C   0  0  0  0  0  0  0  0  0  0  0  0
  140.9510   71.5060  226.4840 C   0  0  0  0  0  0  0  0  0  0  0  0
  140.4150   71.0440  225.2790 C   0  0  0  0  0  0  0  0  0  0  0  0
  140.2890   71.8990  224.2410 N   0  0  0  0  0  0  0  0  0  0  0  0
  139.5480   74.0940  223.1420 H   0  0  0  0  0  0  0  0  0  0  0  0
  138.8322   74.1661  220.2310 H   0  0  0  0  0  0  0  0  0  0  0  0
  138.7903   75.5481  221.5034 H   0  0  0  0  0  0  0  0  0  0  0  0
  140.7486   77.1229  217.9349 H   0  0  0  0  0  0  0  0  0  0  0  0
  139.1181   77.0133  218.5622 H   0  0  0  0  0  0  0  0  0  0  0  0
  140.2672   79.4644  218.2743 H   0  0  0  0  0  0  0  0  0  0  0  0
  139.3246   79.2059  219.7218 H   0  0  0  0  0  0  0  0  0  0  0  0
  142.3872   78.9559  219.3358 H   0  0  0  0  0  0  0  0  0  0  0  0
  141.5782   79.8184  220.6207 H   0  0  0  0  0  0  0  0  0  0  0  0
  142.4909   77.2596  220.8654 H   0  0  0  0  0  0  0  0  0  0  0  0
  140.0056   77.7681  222.2753 H   0  0  0  0  0  0  0  0  0  0  0  0
  141.6251   77.0100  222.7349 H   0  0  0  0  0  0  0  0  0  0  0  0
  139.5328   79.8479  223.0419 H   0  0  0  0  0  0  0  0  0  0  0  0
  140.2177   81.9532  224.1144 H   0  0  0  0  0  0  0  0  0  0  0  0
  142.6118   82.4494  224.5564 H   0  0  0  0  0  0  0  0  0  0  0  0
  144.3199   80.7543  223.8917 H   0  0  0  0  0  0  0  0  0  0  0  0
  143.6315   78.6619  222.8255 H   0  0  0  0  0  0  0  0  0  0  0  0
  138.9763   69.8204  222.0270 H   0  0  0  0  0  0  0  0  0  0  0  0
  139.1817   68.2118  223.8906 H   0  0  0  0  0  0  0  0  0  0  0  0
  139.8373   67.7822  226.1348 H   0  0  0  0  0  0  0  0  0  0  0  0
  141.4878   70.9545  228.4806 H   0  0  0  0  0  0  0  0  0  0  0  0
  141.2701   72.5523  226.6000 H   0  0  0  0  0  0  0  0  0  0  0  0
  1  2  2  0
  2  3  1  0
  3  4  1  0
  4  5  1  0
  5  6  2  0
  5  7  1  0
  7  8  1  0
  8  9  1  0
  9 10  1  0
 10 11  1  0
 11 12  1  0
 12 13  1  0
 13 14  2  0
 14 15  1  0
 15 16  2  0
 16 17  1  0
 17 18  2  0
  2 19  1  0
 19 20  2  0
 20 21  1  0
 21 22  2  0
 22 23  1  0
 23 24  2  0
 24 25  1  0
 24 26  1  0
 26 27  2  0
 27 28  1  0
 28 29  2  0
 11  7  1  0
 18 13  1  0
 29 19  1  0
 28 22  1  0
  3 30  1  0
  4 31  1  0
  4 32  1  0
  8 33  1  0
  8 34  1  0
  9 35  1  0
  9 36  1  0
 10 37  1  0
 10 38  1  0
 11 39  1  1
 12 40  1  0
 12 41  1  0
 14 42  1  0
 15 43  1  0
 16 44  1  0
 17 45  1  0
 18 46  1  0
 20 47  1  0
 21 48  1  0
 23 49  1  0
 26 50  1  0
 27 51  1  0
M  END
>  <smiles>  (86) 
O=C(NCC(=O)N1CCCC1Cc1ccccc1)c1ccc2cc(Cl)ccc2n1

>  <score_type>  (86) 
oracle

>  <origin>  (86) 
autodockgpu

>  <m_score__min__energy>  (86) 
-8.9499999999999993

>  <m_primary>  (86) 
energy

>  <rmsd>  (86) 
1.7653234132570366

>  <m_score__min__rmsd>  (86) 
1.7653234132570366

>  <meeko>  (86) 
{"free_energy": -8.76, "intermolecular_energy": -10.55, "internal_energy": -1.43, "cluster_size": 35, "cluster_id": 1, "rank_in_cluster": 6}

>  <energy>  (86) 
-8.66

>  <cluster_rmsd>  (86) 
0.0

>  <cluster>  (86) 
2

$$$$

     RDKit          3D

 51 54  0  0  0  0  0  0  0  0999 V2000
  139.6710   72.2790  220.7160 O   0  0  0  0  0  0  0  0  0  0  0  0
  139.6490   72.7720  221.8970 C   0  0  0  0  0  0  0  0  0  0  0  0
  139.4800   74.1730  222.1100 N   0  0  0  0  0  0  0  0  0  0  0  0
  139.3140   75.1070  221.0420 C   0  0  0  0  0  0  0  0  0  0  0  0
  140.0630   74.9430  219.8120 C   0  0  0  0  0  0  0  0  0  0  0  0
  139.3800   74.3600  218.8610 O   0  0  0  0  0  0  0  0  0  0  0  0
  141.3910   75.3050  219.5000 N   0  0  0  0  0  0  0  0  0  0  0  0
  142.2780   74.7360  218.4660 C   0  0  0  0  0  0  0  0  0  0  0  0
  143.3160   75.8490  218.2520 C   0  0  0  0  0  0  0  0  0  0  0  0
  143.4860   76.4140  219.6690 C   0  0  0  0  0  0  0  0  0  0  0  0
  142.1040   76.3610  220.2000 C   0  0  1  0  0  0  0  0  0  0  0  0
  141.4100   77.6740  220.2560 C   0  0  0  0  0  0  0  0  0  0  0  0
  141.6370   78.4750  221.4750 C   0  0  0  0  0  0  0  0  0  0  0  0
  142.1610   79.7710  221.3800 C   0  0  0  0  0  0  0  0  0  0  0  0
  142.3860   80.5420  222.5080 C   0  0  0  0  0  0  0  0  0  0  0  0
  142.1070   80.0700  223.7730 C   0  0  0  0  0  0  0  0  0  0  0  0
  141.5920   78.7950  223.8830 C   0  0  0  0  0  0  0  0  0  0  0  0
  141.3720   78.0360  222.7520 C   0  0  0  0  0  0  0  0  0  0  0  0
  139.8030   71.8570  223.0480 C   0  0  0  0  0  0  0  0  0  0  0  0
  139.4190   70.5400  222.9260 C   0  0  0  0  0  0  0  0  0  0  0  0
  139.5250   69.6190  223.9400 C   0  0  0  0  0  0  0  0  0  0  0  0
  140.0510   70.0680  225.1390 C   0  0  0  0  0  0  0  0  0  0  0  0
  140.1680   69.1650  226.1700 C   0  0  0  0  0  0  0  0  0  0  0  0
  140.6920   69.6150  227.3620 C   0  0  0  0  0  0  0  0  0  0  0  0
  140.8350   68.4490  228.6720 Cl  0  0  0  0  0  0  0  0  0  0  0  0
  141.0730   70.9230  227.4800 C   0  0  0  0  0  0  0  0  0  0  0  0
  140.9590   71.8390  226.4480 C   0  0  0  0  0  0  0  0  0  0  0  0
  140.4290   71.3920  225.2350 C   0  0  0  0  0  0  0  0  0  0  0  0
  140.3050   72.2600  224.2080 N   0  0  0  0  0  0  0  0  0  0  0  0
  139.4900   74.4590  223.1380 H   0  0  0  0  0  0  0  0  0  0  0  0
  138.2485   75.0912  220.7693 H   0  0  0  0  0  0  0  0  0  0  0  0
  139.7157   76.0420  221.4595 H   0  0  0  0  0  0  0  0  0  0  0  0
  142.7569   73.8114  218.8208 H   0  0  0  0  0  0  0  0  0  0  0  0
  141.7464   74.4555  217.5448 H   0  0  0  0  0  0  0  0  0  0  0  0
  144.2634   75.4419  217.8690 H   0  0  0  0  0  0  0  0  0  0  0  0
  143.0084   76.6019  217.5114 H   0  0  0  0  0  0  0  0  0  0  0  0
  144.1664   75.7902  220.2672 H   0  0  0  0  0  0  0  0  0  0  0  0
  143.9270   77.4215  219.6907 H   0  0  0  0  0  0  0  0  0  0  0  0
  142.1367   76.1040  221.2691 H   0  0  0  0  0  0  0  0  0  0  0  0
  141.7467   78.2695  219.3946 H   0  0  0  0  0  0  0  0  0  0  0  0
  140.3349   77.4414  220.2502 H   0  0  0  0  0  0  0  0  0  0  0  0
  142.3986   80.1846  220.3888 H   0  0  0  0  0  0  0  0  0  0  0  0
  142.7973   81.5556  222.3920 H   0  0  0  0  0  0  0  0  0  0  0  0
  142.2888   80.6889  224.6640 H   0  0  0  0  0  0  0  0  0  0  0  0
  141.3561   78.3823  224.8750 H   0  0  0  0  0  0  0  0  0  0  0  0
  140.9618   77.0232  222.8781 H   0  0  0  0  0  0  0  0  0  0  0  0
  139.0044   70.2070  221.9631 H   0  0  0  0  0  0  0  0  0  0  0  0
  139.2070   68.5746  223.8054 H   0  0  0  0  0  0  0  0  0  0  0  0
  139.8536   68.1181  226.0468 H   0  0  0  0  0  0  0  0  0  0  0  0
  141.4895   71.2633  228.4395 H   0  0  0  0  0  0  0  0  0  0  0  0
  141.2753   72.8844  226.5788 H   0  0  0  0  0  0  0  0  0  0  0  0
  1  2  2  0
  2  3  1  0
  3  4  1  0
  4  5  1  0
  5  6  2  0
  5  7  1  0
  7  8  1  0
  8  9  1  0
  9 10  1  0
 10 11  1  0
 11 12  1  0
 12 13  1  0
 13 14  2  0
 14 15  1  0
 15 16  2  0
 16 17  1  0
 17 18  2  0
  2 19  1  0
 19 20  2  0
 20 21  1  0
 21 22  2  0
 22 23  1  0
 23 24  2  0
 24 25  1  0
 24 26  1  0
 26 27  2  0
 27 28  1  0
 28 29  2  0
 11  7  1  0
 18 13  1  0
 29 19  1  0
 28 22  1  0
  3 30  1  0
  4 31  1  0
  4 32  1  0
  8 33  1  0
  8 34  1  0
  9 35  1  0
  9 36  1  0
 10 37  1  0
 10 38  1  0
 11 39  1  1
 12 40  1  0
 12 41  1  0
 14 42  1  0
 15 43  1  0
 16 44  1  0
 17 45  1  0
 18 46  1  0
 20 47  1  0
 21 48  1  0
 23 49  1  0
 26 50  1  0
 27 51  1  0
M  END
>  <smiles>  (87) 
O=C(NCC(=O)N1CCCC1Cc1ccccc1)c1ccc2cc(Cl)ccc2n1

>  <score_type>  (87) 
oracle

>  <origin>  (87) 
autodockgpu

>  <m_score__min__energy>  (87) 
-8.9499999999999993

>  <m_primary>  (87) 
energy

>  <rmsd>  (87) 
2.1617248311635873

>  <m_score__min__rmsd>  (87) 
2.1617248311635873

>  <meeko>  (87) 
{"free_energy": -8.53, "intermolecular_energy": -10.32, "internal_energy": -1.51, "cluster_size": 35, "cluster_id": 1, "rank_in_cluster": 19}

>  <energy>  (87) 
-8.18

>  <cluster_rmsd>  (87) 
1.03

>  <cluster>  (87) 
2

$$$$

     RDKit          3D

 51 54  0  0  0  0  0  0  0  0999 V2000
  133.8640   69.5430  226.4760 O   0  0  0  0  0  0  0  0  0  0  0  0
  134.3390   70.6410  226.0210 C   0  0  0  0  0  0  0  0  0  0  0  0
  135.4770   70.6540  225.1600 N   0  0  0  0  0  0  0  0  0  0  0  0
  136.1490   69.4650  224.7420 C   0  0  0  0  0  0  0  0  0  0  0  0
  136.8340   69.4310  223.4640 C   0  0  0  0  0  0  0  0  0  0  0  0
  136.4740   68.4290  222.7070 O   0  0  0  0  0  0  0  0  0  0  0  0
  137.8140   70.2980  222.9350 N   0  0  0  0  0  0  0  0  0  0  0  0
  137.7180   71.1790  221.7540 C   0  0  0  0  0  0  0  0  0  0  0  0
  138.8220   72.2170  222.0060 C   0  0  0  0  0  0  0  0  0  0  0  0
  139.9180   71.3730  222.6730 C   0  0  0  0  0  0  0  0  0  0  0  0
  139.1320   70.4520  223.5270 C   0  0  1  0  0  0  0  0  0  0  0  0
  139.1490   70.7850  224.9760 C   0  0  0  0  0  0  0  0  0  0  0  0
  139.7700   69.7810  225.8630 C   0  0  0  0  0  0  0  0  0  0  0  0
  139.6670   68.4160  225.5640 C   0  0  0  0  0  0  0  0  0  0  0  0
  140.2390   67.4540  226.3800 C   0  0  0  0  0  0  0  0  0  0  0  0
  140.9320   67.7960  227.5210 C   0  0  0  0  0  0  0  0  0  0  0  0
  141.0420   69.1350  227.8290 C   0  0  0  0  0  0  0  0  0  0  0  0
  140.4680   70.0850  227.0090 C   0  0  0  0  0  0  0  0  0  0  0  0
  133.6820   71.9090  226.4050 C   0  0  0  0  0  0  0  0  0  0  0  0
  132.4940   71.8750  227.1030 C   0  0  0  0  0  0  0  0  0  0  0  0
  131.8140   73.0000  227.5010 C   0  0  0  0  0  0  0  0  0  0  0  0
  132.3770   74.2200  227.1700 C   0  0  0  0  0  0  0  0  0  0  0  0
  131.7150   75.3620  227.5590 C   0  0  0  0  0  0  0  0  0  0  0  0
  132.2770   76.5750  227.2270 C   0  0  0  0  0  0  0  0  0  0  0  0
  131.4190   78.0270  227.7310 Cl  0  0  0  0  0  0  0  0  0  0  0  0
  133.4560   76.6060  226.5360 C   0  0  0  0  0  0  0  0  0  0  0  0
  134.1300   75.4630  226.1410 C   0  0  0  0  0  0  0  0  0  0  0  0
  133.5670   74.2270  226.4720 C   0  0  0  0  0  0  0  0  0  0  0  0
  134.1990   73.0930  226.1020 N   0  0  0  0  0  0  0  0  0  0  0  0
  135.7810   71.6310  224.8570 H   0  0  0  0  0  0  0  0  0  0  0  0
  136.9013   69.2379  225.5118 H   0  0  0  0  0  0  0  0  0  0  0  0
  135.3288   68.7442  224.6089 H   0  0  0  0  0  0  0  0  0  0  0  0
  137.9066   70.6186  220.8264 H   0  0  0  0  0  0  0  0  0  0  0  0
  136.7217   71.6279  221.6282 H   0  0  0  0  0  0  0  0  0  0  0  0
  139.1772   72.6579  221.0629 H   0  0  0  0  0  0  0  0  0  0  0  0
  138.4924   73.0719  222.6147 H   0  0  0  0  0  0  0  0  0  0  0  0
  140.5049   70.8195  221.9252 H   0  0  0  0  0  0  0  0  0  0  0  0
  140.6549   71.9696  223.2307 H   0  0  0  0  0  0  0  0  0  0  0  0
  139.6190   69.4657  223.5393 H   0  0  0  0  0  0  0  0  0  0  0  0
  139.7003   71.7290  225.0981 H   0  0  0  0  0  0  0  0  0  0  0  0
  138.0934   70.8380  225.2808 H   0  0  0  0  0  0  0  0  0  0  0  0
  139.1206   68.1019  224.6625 H   0  0  0  0  0  0  0  0  0  0  0  0
  140.1377   66.3922  226.1110 H   0  0  0  0  0  0  0  0  0  0  0  0
  141.3824   67.0260  228.1646 H   0  0  0  0  0  0  0  0  0  0  0  0
  141.5889   69.4472  228.7309 H   0  0  0  0  0  0  0  0  0  0  0  0
  140.5744   71.1440  227.2870 H   0  0  0  0  0  0  0  0  0  0  0  0
  132.0671   70.8931  227.3551 H   0  0  0  0  0  0  0  0  0  0  0  0
  130.8668   72.9343  228.0565 H   0  0  0  0  0  0  0  0  0  0  0  0
  130.7684   75.3080  228.1166 H   0  0  0  0  0  0  0  0  0  0  0  0
  133.8894   77.5846  226.2819 H   0  0  0  0  0  0  0  0  0  0  0  0
  135.0772   75.5254  225.5851 H   0  0  0  0  0  0  0  0  0  0  0  0
  1  2  2  0
  2  3  1  0
  3  4  1  0
  4  5  1  0
  5  6  2  0
  5  7  1  0
  7  8  1  0
  8  9  1  0
  9 10  1  0
 10 11  1  0
 11 12  1  0
 12 13  1  0
 13 14  2  0
 14 15  1  0
 15 16  2  0
 16 17  1  0
 17 18  2  0
  2 19  1  0
 19 20  2  0
 20 21  1  0
 21 22  2  0
 22 23  1  0
 23 24  2  0
 24 25  1  0
 24 26  1  0
 26 27  2  0
 27 28  1  0
 28 29  2  0
 11  7  1  0
 18 13  1  0
 29 19  1  0
 28 22  1  0
  3 30  1  0
  4 31  1  0
  4 32  1  0
  8 33  1  0
  8 34  1  0
  9 35  1  0
  9 36  1  0
 10 37  1  0
 10 38  1  0
 11 39  1  1
 12 40  1  0
 12 41  1  0
 14 42  1  0
 15 43  1  0
 16 44  1  0
 17 45  1  0
 18 46  1  0
 20 47  1  0
 21 48  1  0
 23 49  1  0
 26 50  1  0
 27 51  1  0
M  END
>  <smiles>  (88) 
O=C(NCC(=O)N1CCCC1Cc1ccccc1)c1ccc2cc(Cl)ccc2n1

>  <score_type>  (88) 
oracle

>  <origin>  (88) 
autodockgpu

>  <m_score__min__energy>  (88) 
-8.9499999999999993

>  <m_primary>  (88) 
energy

>  <rmsd>  (88) 
7.676204145398257

>  <m_score__min__rmsd>  (88) 
7.676204145398257

>  <meeko>  (88) 
{"free_energy": -8.11, "intermolecular_energy": -9.9, "internal_energy": -1.62, "cluster_size": 5, "cluster_id": 2, "rank_in_cluster": 5}

>  <energy>  (88) 
-8.16

>  <cluster_rmsd>  (88) 
1.52

>  <cluster>  (88) 
2

$$$$

     RDKit          3D

 51 54  0  0  0  0  0  0  0  0999 V2000
  139.6190   72.0250  220.8860 O   0  0  0  0  0  0  0  0  0  0  0  0
  139.6360   72.5130  222.0690 C   0  0  0  0  0  0  0  0  0  0  0  0
  139.4970   73.9150  222.2920 N   0  0  0  0  0  0  0  0  0  0  0  0
  139.3190   74.8570  221.2330 C   0  0  0  0  0  0  0  0  0  0  0  0
  138.1680   75.7400  221.2350 C   0  0  0  0  0  0  0  0  0  0  0  0
  137.0440   75.1280  220.9700 O   0  0  0  0  0  0  0  0  0  0  0  0
  138.0870   77.1290  221.4690 N   0  0  0  0  0  0  0  0  0  0  0  0
  137.1850   77.8540  222.3850 C   0  0  0  0  0  0  0  0  0  0  0  0
  137.9120   79.1900  222.6010 C   0  0  0  0  0  0  0  0  0  0  0  0
  138.5330   79.4510  221.2220 C   0  0  0  0  0  0  0  0  0  0  0  0
  138.9450   78.0920  220.7980 C   0  0  1  0  0  0  0  0  0  0  0  0
  140.4050   77.8270  220.8950 C   0  0  0  0  0  0  0  0  0  0  0  0
  141.1360   78.6030  221.9160 C   0  0  0  0  0  0  0  0  0  0  0  0
  141.8750   79.7350  221.5450 C   0  0  0  0  0  0  0  0  0  0  0  0
  142.5710   80.4800  222.4820 C   0  0  0  0  0  0  0  0  0  0  0  0
  142.5710   80.1400  223.8180 C   0  0  0  0  0  0  0  0  0  0  0  0
  141.8490   79.0290  224.1990 C   0  0  0  0  0  0  0  0  0  0  0  0
  141.1590   78.2940  223.2560 C   0  0  0  0  0  0  0  0  0  0  0  0
  139.8050   71.5900  223.2120 C   0  0  0  0  0  0  0  0  0  0  0  0
  139.4490   70.2660  223.0750 C   0  0  0  0  0  0  0  0  0  0  0  0
  139.5710   69.3380  224.0810 C   0  0  0  0  0  0  0  0  0  0  0  0
  140.0820   69.7860  225.2860 C   0  0  0  0  0  0  0  0  0  0  0  0
  140.2140   68.8760  226.3090 C   0  0  0  0  0  0  0  0  0  0  0  0
  140.7230   69.3250  227.5070 C   0  0  0  0  0  0  0  0  0  0  0  0
  140.8860   68.1500  228.8070 Cl  0  0  0  0  0  0  0  0  0  0  0  0
  141.0760   70.6400  227.6410 C   0  0  0  0  0  0  0  0  0  0  0  0
  140.9470   71.5630  226.6170 C   0  0  0  0  0  0  0  0  0  0  0  0
  140.4310   71.1160  225.3970 C   0  0  0  0  0  0  0  0  0  0  0  0
  140.2930   71.9920  224.3780 N   0  0  0  0  0  0  0  0  0  0  0  0
  139.5380   74.1970  223.3210 H   0  0  0  0  0  0  0  0  0  0  0  0
  140.2121   75.4991  221.2254 H   0  0  0  0  0  0  0  0  0  0  0  0
  139.1479   74.2196  220.3530 H   0  0  0  0  0  0  0  0  0  0  0  0
  136.1979   78.0109  221.9257 H   0  0  0  0  0  0  0  0  0  0  0  0
  136.9899   77.3105  223.3212 H   0  0  0  0  0  0  0  0  0  0  0  0
  137.2064   79.9873  222.8775 H   0  0  0  0  0  0  0  0  0  0  0  0
  138.6483   79.1638  223.4178 H   0  0  0  0  0  0  0  0  0  0  0  0
  137.7949   79.8783  220.5273 H   0  0  0  0  0  0  0  0  0  0  0  0
  139.3603   80.1756  221.2419 H   0  0  0  0  0  0  0  0  0  0  0  0
  138.7933   77.9900  219.7133 H   0  0  0  0  0  0  0  0  0  0  0  0
  140.5390   76.7594  221.1236 H   0  0  0  0  0  0  0  0  0  0  0  0
  140.8279   78.1362  219.9278 H   0  0  0  0  0  0  0  0  0  0  0  0
  141.9025   80.0377  220.4878 H   0  0  0  0  0  0  0  0  0  0  0  0
  143.1371   81.3638  222.1526 H   0  0  0  0  0  0  0  0  0  0  0  0
  143.1287   80.7355  224.5558 H   0  0  0  0  0  0  0  0  0  0  0  0
  141.8227   78.7276  225.2566 H   0  0  0  0  0  0  0  0  0  0  0  0
  140.5961   77.4119  223.5952 H   0  0  0  0  0  0  0  0  0  0  0  0
  139.0450   69.9337  222.1073 H   0  0  0  0  0  0  0  0  0  0  0  0
  139.2762   68.2883  223.9351 H   0  0  0  0  0  0  0  0  0  0  0  0
  139.9224   67.8239  226.1744 H   0  0  0  0  0  0  0  0  0  0  0  0
  141.4806   70.9794  228.6059 H   0  0  0  0  0  0  0  0  0  0  0  0
  141.2409   72.6135  226.7588 H   0  0  0  0  0  0  0  0  0  0  0  0
  1  2  2  0
  2  3  1  0
  3  4  1  0
  4  5  1  0
  5  6  2  0
  5  7  1  0
  7  8  1  0
  8  9  1  0
  9 10  1  0
 10 11  1  0
 11 12  1  0
 12 13  1  0
 13 14  2  0
 14 15  1  0
 15 16  2  0
 16 17  1  0
 17 18  2  0
  2 19  1  0
 19 20  2  0
 20 21  1  0
 21 22  2  0
 22 23  1  0
 23 24  2  0
 24 25  1  0
 24 26  1  0
 26 27  2  0
 27 28  1  0
 28 29  2  0
 11  7  1  0
 18 13  1  0
 29 19  1  0
 28 22  1  0
  3 30  1  0
  4 31  1  0
  4 32  1  0
  8 33  1  0
  8 34  1  0
  9 35  1  0
  9 36  1  0
 10 37  1  0
 10 38  1  0
 11 39  1  6
 12 40  1  0
 12 41  1  0
 14 42  1  0
 15 43  1  0
 16 44  1  0
 17 45  1  0
 18 46  1  0
 20 47  1  0
 21 48  1  0
 23 49  1  0
 26 50  1  0
 27 51  1  0
M  END
>  <smiles>  (89) 
O=C(NCC(=O)N1CCCC1Cc1ccccc1)c1ccc2cc(Cl)ccc2n1

>  <score_type>  (89) 
oracle

>  <origin>  (89) 
autodockgpu

>  <m_score__min__energy>  (89) 
-8.9499999999999993

>  <m_primary>  (89) 
energy

>  <rmsd>  (89) 
3.0372898308912997

>  <m_score__min__rmsd>  (89) 
3.0372898308912997

>  <meeko>  (89) 
{"free_energy": -8.33, "intermolecular_energy": -10.12, "internal_energy": -1.5, "cluster_size": 35, "cluster_id": 1, "rank_in_cluster": 31}

>  <energy>  (89) 
-8.12

>  <cluster_rmsd>  (89) 
0.84

>  <cluster>  (89) 
2

$$$$

     RDKit          3D

 51 54  0  0  0  0  0  0  0  0999 V2000
  141.8120   73.7150  220.8740 O   0  0  0  0  0  0  0  0  0  0  0  0
  140.9760   74.4520  221.5040 C   0  0  0  0  0  0  0  0  0  0  0  0
  139.8990   73.8810  222.2450 N   0  0  0  0  0  0  0  0  0  0  0  0
  139.6860   72.4720  222.3480 C   0  0  0  0  0  0  0  0  0  0  0  0
  138.3480   71.9550  222.5570 C   0  0  0  0  0  0  0  0  0  0  0  0
  137.4060   72.8010  222.2330 O   0  0  0  0  0  0  0  0  0  0  0  0
  137.9230   70.7030  223.0540 N   0  0  0  0  0  0  0  0  0  0  0  0
  137.0260   69.7200  222.4170 C   0  0  0  0  0  0  0  0  0  0  0  0
  137.3770   68.4120  223.1420 C   0  0  0  0  0  0  0  0  0  0  0  0
  137.6540   68.8940  224.5730 C   0  0  0  0  0  0  0  0  0  0  0  0
  138.3490   70.1820  224.3430 C   0  0  1  0  0  0  0  0  0  0  0  0
  139.8190   70.1420  224.5630 C   0  0  0  0  0  0  0  0  0  0  0  0
  140.2940   70.6720  225.8560 C   0  0  0  0  0  0  0  0  0  0  0  0
  140.0030   69.9910  227.0470 C   0  0  0  0  0  0  0  0  0  0  0  0
  140.4350   70.4670  228.2730 C   0  0  0  0  0  0  0  0  0  0  0  0
  141.1680   71.6300  228.3790 C   0  0  0  0  0  0  0  0  0  0  0  0
  141.4620   72.3110  227.2160 C   0  0  0  0  0  0  0  0  0  0  0  0
  141.0260   71.8280  226.0000 C   0  0  0  0  0  0  0  0  0  0  0  0
  141.1470   75.9200  221.4500 C   0  0  0  0  0  0  0  0  0  0  0  0
  141.8580   76.4840  220.4140 C   0  0  0  0  0  0  0  0  0  0  0  0
  142.0680   77.8350  220.2820 C   0  0  0  0  0  0  0  0  0  0  0  0
  141.5220   78.6500  221.2590 C   0  0  0  0  0  0  0  0  0  0  0  0
  141.7180   80.0070  221.1490 C   0  0  0  0  0  0  0  0  0  0  0  0
  141.1740   80.8150  222.1230 C   0  0  0  0  0  0  0  0  0  0  0  0
  141.4330   82.5500  221.9700 Cl  0  0  0  0  0  0  0  0  0  0  0  0
  140.4680   80.2530  223.1500 C   0  0  0  0  0  0  0  0  0  0  0  0
  140.2660   78.8890  223.2690 C   0  0  0  0  0  0  0  0  0  0  0  0
  140.8140   78.0610  222.2860 C   0  0  0  0  0  0  0  0  0  0  0  0
  140.6350   76.7250  222.3720 N   0  0  0  0  0  0  0  0  0  0  0  0
  139.2670   74.6010  222.7170 H   0  0  0  0  0  0  0  0  0  0  0  0
  140.0566   72.0256  221.4135 H   0  0  0  0  0  0  0  0  0  0  0  0
  140.2088   72.2044  223.2781 H   0  0  0  0  0  0  0  0  0  0  0  0
  135.9707   69.9880  222.5736 H   0  0  0  0  0  0  0  0  0  0  0  0
  137.1541   69.6591  221.3262 H   0  0  0  0  0  0  0  0  0  0  0  0
  136.5354   67.7042  223.1162 H   0  0  0  0  0  0  0  0  0  0  0  0
  138.2206   67.8705  222.6890 H   0  0  0  0  0  0  0  0  0  0  0  0
  136.7182   69.0406  225.1322 H   0  0  0  0  0  0  0  0  0  0  0  0
  138.2368   68.1799  225.1734 H   0  0  0  0  0  0  0  0  0  0  0  0
  138.0470   70.8992  225.1205 H   0  0  0  0  0  0  0  0  0  0  0  0
  140.1418   69.0930  224.4902 H   0  0  0  0  0  0  0  0  0  0  0  0
  140.2519   70.8003  223.7954 H   0  0  0  0  0  0  0  0  0  0  0  0
  139.4195   69.0594  227.0061 H   0  0  0  0  0  0  0  0  0  0  0  0
  140.1875   69.9037  229.1848 H   0  0  0  0  0  0  0  0  0  0  0  0
  141.5067   72.0019  229.3572 H   0  0  0  0  0  0  0  0  0  0  0  0
  142.0460   73.2422  227.2586 H   0  0  0  0  0  0  0  0  0  0  0  0
  141.2777   72.3992  225.0942 H   0  0  0  0  0  0  0  0  0  0  0  0
  142.2812   75.8154  219.6499 H   0  0  0  0  0  0  0  0  0  0  0  0
  142.6424   78.2495  219.4404 H   0  0  0  0  0  0  0  0  0  0  0  0
  142.2900   80.4327  220.3114 H   0  0  0  0  0  0  0  0  0  0  0  0
  140.0408   80.9155  223.9172 H   0  0  0  0  0  0  0  0  0  0  0  0
  139.6930   78.4706  224.1096 H   0  0  0  0  0  0  0  0  0  0  0  0
  1  2  2  0
  2  3  1  0
  3  4  1  0
  4  5  1  0
  5  6  2  0
  5  7  1  0
  7  8  1  0
  8  9  1  0
  9 10  1  0
 10 11  1  0
 11 12  1  0
 12 13  1  0
 13 14  2  0
 14 15  1  0
 15 16  2  0
 16 17  1  0
 17 18  2  0
  2 19  1  0
 19 20  2  0
 20 21  1  0
 21 22  2  0
 22 23  1  0
 23 24  2  0
 24 25  1  0
 24 26  1  0
 26 27  2  0
 27 28  1  0
 28 29  2  0
 11  7  1  0
 18 13  1  0
 29 19  1  0
 28 22  1  0
  3 30  1  0
  4 31  1  0
  4 32  1  0
  8 33  1  0
  8 34  1  0
  9 35  1  0
  9 36  1  0
 10 37  1  0
 10 38  1  0
 11 39  1  1
 12 40  1  0
 12 41  1  0
 14 42  1  0
 15 43  1  0
 16 44  1  0
 17 45  1  0
 18 46  1  0
 20 47  1  0
 21 48  1  0
 23 49  1  0
 26 50  1  0
 27 51  1  0
M  END
>  <smiles>  (90) 
O=C(NCC(=O)N1CCCC1Cc1ccccc1)c1ccc2cc(Cl)ccc2n1

>  <score_type>  (90) 
oracle

>  <origin>  (90) 
autodockgpu

>  <m_score__min__energy>  (90) 
-8.9499999999999993

>  <m_primary>  (90) 
energy

>  <rmsd>  (90) 
8.548778030399761

>  <m_score__min__rmsd>  (90) 
8.548778030399761

>  <meeko>  (90) 
{"free_energy": -8.27, "intermolecular_energy": -10.06, "internal_energy": -1.6, "cluster_size": 3, "cluster_id": 3, "rank_in_cluster": 1}

>  <energy>  (90) 
-8.11

>  <cluster_rmsd>  (90) 
0.85

>  <cluster>  (90) 
2

$$$$

     RDKit          3D

 51 54  0  0  0  0  0  0  0  0999 V2000
  139.5330   72.3580  220.7570 O   0  0  0  0  0  0  0  0  0  0  0  0
  139.5230   72.8070  221.9550 C   0  0  0  0  0  0  0  0  0  0  0  0
  139.3190   74.1940  222.2230 N   0  0  0  0  0  0  0  0  0  0  0  0
  139.1010   75.1610  221.1940 C   0  0  0  0  0  0  0  0  0  0  0  0
  139.0440   76.5710  221.5250 C   0  0  0  0  0  0  0  0  0  0  0  0
  138.5680   76.8060  222.7190 O   0  0  0  0  0  0  0  0  0  0  0  0
  139.4140   77.7000  220.7630 N   0  0  0  0  0  0  0  0  0  0  0  0
  138.5610   78.8120  220.2970 C   0  0  0  0  0  0  0  0  0  0  0  0
  139.5750   79.9340  220.0270 C   0  0  0  0  0  0  0  0  0  0  0  0
  140.7830   79.1610  219.4810 C   0  0  0  0  0  0  0  0  0  0  0  0
  140.7760   77.9350  220.3130 C   0  0  1  0  0  0  0  0  0  0  0  0
  141.8170   77.9000  221.3750 C   0  0  0  0  0  0  0  0  0  0  0  0
  141.8380   79.0520  222.2980 C   0  0  0  0  0  0  0  0  0  0  0  0
  140.6580   79.4750  222.9240 C   0  0  0  0  0  0  0  0  0  0  0  0
  140.6490   80.5540  223.7930 C   0  0  0  0  0  0  0  0  0  0  0  0
  141.7990   81.2590  224.0780 C   0  0  0  0  0  0  0  0  0  0  0  0
  142.9680   80.8550  223.4690 C   0  0  0  0  0  0  0  0  0  0  0  0
  142.9640   79.7790  222.6060 C   0  0  0  0  0  0  0  0  0  0  0  0
  139.7290   71.8560  223.0680 C   0  0  0  0  0  0  0  0  0  0  0  0
  139.4060   70.5280  222.8970 C   0  0  0  0  0  0  0  0  0  0  0  0
  139.5640   69.5750  223.8740 C   0  0  0  0  0  0  0  0  0  0  0  0
  140.0780   70.0020  225.0860 C   0  0  0  0  0  0  0  0  0  0  0  0
  140.2460   69.0660  226.0800 C   0  0  0  0  0  0  0  0  0  0  0  0
  140.7570   69.4940  227.2850 C   0  0  0  0  0  0  0  0  0  0  0  0
  140.9660   68.2850  228.5480 Cl  0  0  0  0  0  0  0  0  0  0  0  0
  141.0770   70.8120  227.4530 C   0  0  0  0  0  0  0  0  0  0  0  0
  140.9120   71.7610  226.4580 C   0  0  0  0  0  0  0  0  0  0  0  0
  140.3940   71.3370  225.2320 C   0  0  0  0  0  0  0  0  0  0  0  0
  140.2210   72.2370  224.2410 N   0  0  0  0  0  0  0  0  0  0  0  0
  139.3430   74.4440  223.2600 H   0  0  0  0  0  0  0  0  0  0  0  0
  139.9159   75.0385  220.4653 H   0  0  0  0  0  0  0  0  0  0  0  0
  138.0792   74.9401  220.8517 H   0  0  0  0  0  0  0  0  0  0  0  0
  138.0205   78.5380  219.3790 H   0  0  0  0  0  0  0  0  0  0  0  0
  137.7831   79.0952  221.0213 H   0  0  0  0  0  0  0  0  0  0  0  0
  139.1902   80.6479  219.2838 H   0  0  0  0  0  0  0  0  0  0  0  0
  139.8060   80.5410  220.9148 H   0  0  0  0  0  0  0  0  0  0  0  0
  140.6533   78.9201  218.4156 H   0  0  0  0  0  0  0  0  0  0  0  0
  141.7266   79.7239  219.5342 H   0  0  0  0  0  0  0  0  0  0  0  0
  141.0861   77.0783  219.6967 H   0  0  0  0  0  0  0  0  0  0  0  0
  141.6564   76.9915  221.9740 H   0  0  0  0  0  0  0  0  0  0  0  0
  142.7813   77.9256  220.8464 H   0  0  0  0  0  0  0  0  0  0  0  0
  139.7190   78.9391  222.7212 H   0  0  0  0  0  0  0  0  0  0  0  0
  139.7028   80.8550  224.2663 H   0  0  0  0  0  0  0  0  0  0  0  0
  141.7843   82.1153  224.7683 H   0  0  0  0  0  0  0  0  0  0  0  0
  143.9063   81.3921  223.6718 H   0  0  0  0  0  0  0  0  0  0  0  0
  143.9152   79.4858  222.1377 H   0  0  0  0  0  0  0  0  0  0  0  0
  138.9992   70.2131  221.9247 H   0  0  0  0  0  0  0  0  0  0  0  0
  139.2947   68.5226  223.7011 H   0  0  0  0  0  0  0  0  0  0  0  0
  139.9810   68.0108  225.9177 H   0  0  0  0  0  0  0  0  0  0  0  0
  141.4842   71.1337  228.4229 H   0  0  0  0  0  0  0  0  0  0  0  0
  141.1801   72.8143  226.6276 H   0  0  0  0  0  0  0  0  0  0  0  0
  1  2  2  0
  2  3  1  0
  3  4  1  0
  4  5  1  0
  5  6  2  0
  5  7  1  0
  7  8  1  0
  8  9  1  0
  9 10  1  0
 10 11  1  0
 11 12  1  0
 12 13  1  0
 13 14  2  0
 14 15  1  0
 15 16  2  0
 16 17  1  0
 17 18  2  0
  2 19  1  0
 19 20  2  0
 20 21  1  0
 21 22  2  0
 22 23  1  0
 23 24  2  0
 24 25  1  0
 24 26  1  0
 26 27  2  0
 27 28  1  0
 28 29  2  0
 11  7  1  0
 18 13  1  0
 29 19  1  0
 28 22  1  0
  3 30  1  0
  4 31  1  0
  4 32  1  0
  8 33  1  0
  8 34  1  0
  9 35  1  0
  9 36  1  0
 10 37  1  0
 10 38  1  0
 11 39  1  6
 12 40  1  0
 12 41  1  0
 14 42  1  0
 15 43  1  0
 16 44  1  0
 17 45  1  0
 18 46  1  0
 20 47  1  0
 21 48  1  0
 23 49  1  0
 26 50  1  0
 27 51  1  0
M  END
>  <smiles>  (91) 
O=C(NCC(=O)N1CCCC1Cc1ccccc1)c1ccc2cc(Cl)ccc2n1

>  <score_type>  (91) 
oracle

>  <origin>  (91) 
autodockgpu

>  <m_score__min__energy>  (91) 
-8.9499999999999993

>  <m_primary>  (91) 
energy

>  <rmsd>  (91) 
2.2964100651054515

>  <m_score__min__rmsd>  (91) 
2.2964100651054515

>  <meeko>  (91) 
{"free_energy": -8.23, "intermolecular_energy": -10.02, "internal_energy": -1.73, "cluster_size": 35, "cluster_id": 1, "rank_in_cluster": 32}

>  <energy>  (91) 
-8.27

>  <cluster_rmsd>  (91) 
0.0

>  <cluster>  (91) 
3

$$$$

     RDKit          3D

 51 54  0  0  0  0  0  0  0  0999 V2000
  139.6650   72.1300  220.8140 O   0  0  0  0  0  0  0  0  0  0  0  0
  139.6610   72.6020  222.0040 C   0  0  0  0  0  0  0  0  0  0  0  0
  139.5110   74.0010  222.2440 N   0  0  0  0  0  0  0  0  0  0  0  0
  139.3460   74.9560  221.1940 C   0  0  0  0  0  0  0  0  0  0  0  0
  138.9940   76.3270  221.5120 C   0  0  0  0  0  0  0  0  0  0  0  0
  138.4960   76.4720  222.7110 O   0  0  0  0  0  0  0  0  0  0  0  0
  139.1010   77.4980  220.7310 N   0  0  0  0  0  0  0  0  0  0  0  0
  138.1360   78.6070  220.6030 C   0  0  0  0  0  0  0  0  0  0  0  0
  139.0070   79.7660  220.0940 C   0  0  0  0  0  0  0  0  0  0  0  0
  139.9980   79.0470  219.1680 C   0  0  0  0  0  0  0  0  0  0  0  0
  140.2590   77.7860  219.9000 C   0  0  1  0  0  0  0  0  0  0  0  0
  141.5740   77.7300  220.5910 C   0  0  0  0  0  0  0  0  0  0  0  0
  141.7360   78.6330  221.7480 C   0  0  0  0  0  0  0  0  0  0  0  0
  142.1970   79.9430  221.5600 C   0  0  0  0  0  0  0  0  0  0  0  0
  142.3600   80.8100  222.6280 C   0  0  0  0  0  0  0  0  0  0  0  0
  142.0770   80.4230  223.9210 C   0  0  0  0  0  0  0  0  0  0  0  0
  141.6220   79.1370  224.1210 C   0  0  0  0  0  0  0  0  0  0  0  0
  141.4640   78.2820  223.0500 C   0  0  0  0  0  0  0  0  0  0  0  0
  139.8150   71.6640  223.1370 C   0  0  0  0  0  0  0  0  0  0  0  0
  139.4470   70.3460  222.9830 C   0  0  0  0  0  0  0  0  0  0  0  0
  139.5540   69.4050  223.9790 C   0  0  0  0  0  0  0  0  0  0  0  0
  140.0650   69.8350  225.1910 C   0  0  0  0  0  0  0  0  0  0  0  0
  140.1820   68.9120  226.2050 C   0  0  0  0  0  0  0  0  0  0  0  0
  140.6900   69.3430  227.4100 C   0  0  0  0  0  0  0  0  0  0  0  0
  140.8350   68.1510  228.6970 Cl  0  0  0  0  0  0  0  0  0  0  0  0
  141.0550   70.6520  227.5600 C   0  0  0  0  0  0  0  0  0  0  0  0
  140.9400   71.5880  226.5470 C   0  0  0  0  0  0  0  0  0  0  0  0
  140.4260   71.1600  225.3190 C   0  0  0  0  0  0  0  0  0  0  0  0
  140.3010   72.0490  224.3100 N   0  0  0  0  0  0  0  0  0  0  0  0
  139.5340   74.2690  223.2770 H   0  0  0  0  0  0  0  0  0  0  0  0
  140.2979   74.9915  220.6439 H   0  0  0  0  0  0  0  0  0  0  0  0
  138.4634   74.5866  220.6513 H   0  0  0  0  0  0  0  0  0  0  0  0
  137.3441   78.3606  219.8804 H   0  0  0  0  0  0  0  0  0  0  0  0
  137.6136   78.8378  221.5431 H   0  0  0  0  0  0  0  0  0  0  0  0
  138.4064   80.5024  219.5400 H   0  0  0  0  0  0  0  0  0  0  0  0
  139.4915   80.3395  220.8980 H   0  0  0  0  0  0  0  0  0  0  0  0
  139.5508   78.8499  218.1825 H   0  0  0  0  0  0  0  0  0  0  0  0
  140.9069   79.6302  218.9589 H   0  0  0  0  0  0  0  0  0  0  0  0
  140.3763   76.9652  219.1771 H   0  0  0  0  0  0  0  0  0  0  0  0
  141.7247   76.6994  220.9447 H   0  0  0  0  0  0  0  0  0  0  0  0
  142.3138   78.0637  219.8484 H   0  0  0  0  0  0  0  0  0  0  0  0
  142.4343   80.2899  220.5435 H   0  0  0  0  0  0  0  0  0  0  0  0
  142.7237   81.8310  222.4403 H   0  0  0  0  0  0  0  0  0  0  0  0
  142.2098   81.1168  224.7642 H   0  0  0  0  0  0  0  0  0  0  0  0
  141.3842   78.7916  225.1379 H   0  0  0  0  0  0  0  0  0  0  0  0
  141.1003   77.2629  223.2481 H   0  0  0  0  0  0  0  0  0  0  0  0
  139.0453   70.0289  222.0093 H   0  0  0  0  0  0  0  0  0  0  0  0
  139.2482   68.3603  223.8204 H   0  0  0  0  0  0  0  0  0  0  0  0
  139.8797   67.8647  226.0577 H   0  0  0  0  0  0  0  0  0  0  0  0
  141.4587   70.9762  228.5305 H   0  0  0  0  0  0  0  0  0  0  0  0
  141.2429   72.6339  226.7027 H   0  0  0  0  0  0  0  0  0  0  0  0
  1  2  2  0
  2  3  1  0
  3  4  1  0
  4  5  1  0
  5  6  2  0
  5  7  1  0
  7  8  1  0
  8  9  1  0
  9 10  1  0
 10 11  1  0
 11 12  1  0
 12 13  1  0
 13 14  2  0
 14 15  1  0
 15 16  2  0
 16 17  1  0
 17 18  2  0
  2 19  1  0
 19 20  2  0
 20 21  1  0
 21 22  2  0
 22 23  1  0
 23 24  2  0
 24 25  1  0
 24 26  1  0
 26 27  2  0
 27 28  1  0
 28 29  2  0
 11  7  1  0
 18 13  1  0
 29 19  1  0
 28 22  1  0
  3 30  1  0
  4 31  1  0
  4 32  1  0
  8 33  1  0
  8 34  1  0
  9 35  1  0
  9 36  1  0
 10 37  1  0
 10 38  1  0
 11 39  1  6
 12 40  1  0
 12 41  1  0
 14 42  1  0
 15 43  1  0
 16 44  1  0
 17 45  1  0
 18 46  1  0
 20 47  1  0
 21 48  1  0
 23 49  1  0
 26 50  1  0
 27 51  1  0
M  END
>  <smiles>  (92) 
O=C(NCC(=O)N1CCCC1Cc1ccccc1)c1ccc2cc(Cl)ccc2n1

>  <score_type>  (92) 
oracle

>  <origin>  (92) 
autodockgpu

>  <m_score__min__energy>  (92) 
-8.9499999999999993

>  <m_primary>  (92) 
energy

>  <rmsd>  (92) 
2.2844982552734834

>  <m_score__min__rmsd>  (92) 
2.2844982552734834

>  <meeko>  (92) 
{"free_energy": -8.36, "intermolecular_energy": -10.15, "internal_energy": -1.94, "cluster_size": 35, "cluster_id": 1, "rank_in_cluster": 29}

>  <energy>  (92) 
-8.16

>  <cluster_rmsd>  (92) 
1.56

>  <cluster>  (92) 
3

$$$$

     RDKit          3D

 51 54  0  0  0  0  0  0  0  0999 V2000
  140.1180   71.9840  220.7480 O   0  0  0  0  0  0  0  0  0  0  0  0
  139.7480   72.4160  221.8950 C   0  0  0  0  0  0  0  0  0  0  0  0
  139.2250   73.7330  222.0560 N   0  0  0  0  0  0  0  0  0  0  0  0
  139.0650   74.6440  220.9680 C   0  0  0  0  0  0  0  0  0  0  0  0
  139.8550   75.8590  220.9180 C   0  0  0  0  0  0  0  0  0  0  0  0
  139.5180   76.7360  221.8260 O   0  0  0  0  0  0  0  0  0  0  0  0
  140.9060   76.2260  220.0500 N   0  0  0  0  0  0  0  0  0  0  0  0
  141.1210   77.5150  219.3640 C   0  0  0  0  0  0  0  0  0  0  0  0
  142.6230   77.4870  219.0400 C   0  0  0  0  0  0  0  0  0  0  0  0
  142.8600   76.0060  218.7140 C   0  0  0  0  0  0  0  0  0  0  0  0
  141.9890   75.3220  219.6980 C   0  0  1  0  0  0  0  0  0  0  0  0
  142.7100   74.7100  220.8460 C   0  0  0  0  0  0  0  0  0  0  0  0
  143.8380   73.8230  220.5020 C   0  0  0  0  0  0  0  0  0  0  0  0
  143.5980   72.5230  220.0380 C   0  0  0  0  0  0  0  0  0  0  0  0
  144.6390   71.6710  219.7100 C   0  0  0  0  0  0  0  0  0  0  0  0
  145.9560   72.0620  219.8260 C   0  0  0  0  0  0  0  0  0  0  0  0
  146.2090   73.3380  220.2810 C   0  0  0  0  0  0  0  0  0  0  0  0
  145.1630   74.1790  220.6050 C   0  0  0  0  0  0  0  0  0  0  0  0
  139.8760   71.5170  223.0630 C   0  0  0  0  0  0  0  0  0  0  0  0
  139.4710   70.2040  222.9580 C   0  0  0  0  0  0  0  0  0  0  0  0
  139.5520   69.2990  223.9880 C   0  0  0  0  0  0  0  0  0  0  0  0
  140.0730   69.7590  225.1840 C   0  0  0  0  0  0  0  0  0  0  0  0
  140.1640   68.8710  226.2320 C   0  0  0  0  0  0  0  0  0  0  0  0
  140.6820   69.3330  227.4210 C   0  0  0  0  0  0  0  0  0  0  0  0
  140.7930   68.1860  228.7520 Cl  0  0  0  0  0  0  0  0  0  0  0  0
  141.0840   70.6360  227.5230 C   0  0  0  0  0  0  0  0  0  0  0  0
  140.9960   71.5360  226.4750 C   0  0  0  0  0  0  0  0  0  0  0  0
  140.4710   71.0780  225.2640 C   0  0  0  0  0  0  0  0  0  0  0  0
  140.3720   71.9310  224.2220 N   0  0  0  0  0  0  0  0  0  0  0  0
  138.9630   73.9760  223.0620 H   0  0  0  0  0  0  0  0  0  0  0  0
  139.2871   74.0827  220.0484 H   0  0  0  0  0  0  0  0  0  0  0  0
  138.0377   75.0153  221.0979 H   0  0  0  0  0  0  0  0  0  0  0  0
  140.5194   77.5793  218.4453 H   0  0  0  0  0  0  0  0  0  0  0  0
  140.8241   78.3837  219.9700 H   0  0  0  0  0  0  0  0  0  0  0  0
  142.8562   78.1272  218.1764 H   0  0  0  0  0  0  0  0  0  0  0  0
  143.2566   77.8652  219.8558 H   0  0  0  0  0  0  0  0  0  0  0  0
  142.5566   75.7717  217.6830 H   0  0  0  0  0  0  0  0  0  0  0  0
  143.9161   75.7050  218.7770 H   0  0  0  0  0  0  0  0  0  0  0  0
  141.5521   74.4265  219.2319 H   0  0  0  0  0  0  0  0  0  0  0  0
  143.1018   75.5259  221.4711 H   0  0  0  0  0  0  0  0  0  0  0  0
  141.9727   74.0698  221.3524 H   0  0  0  0  0  0  0  0  0  0  0  0
  142.5610   72.1719  219.9320 H   0  0  0  0  0  0  0  0  0  0  0  0
  144.4097   70.6578  219.3482 H   0  0  0  0  0  0  0  0  0  0  0  0
  146.7771   71.3785  219.5642 H   0  0  0  0  0  0  0  0  0  0  0  0
  147.2467   73.6873  220.3863 H   0  0  0  0  0  0  0  0  0  0  0  0
  145.4024   75.1902  220.9656 H   0  0  0  0  0  0  0  0  0  0  0  0
  139.0603   69.8620  221.9966 H   0  0  0  0  0  0  0  0  0  0  0  0
  139.2184   68.2578  223.8675 H   0  0  0  0  0  0  0  0  0  0  0  0
  139.8339   67.8274  226.1231 H   0  0  0  0  0  0  0  0  0  0  0  0
  141.4960   70.9848  228.4814 H   0  0  0  0  0  0  0  0  0  0  0  0
  141.3286   72.5780  226.5919 H   0  0  0  0  0  0  0  0  0  0  0  0
  1  2  2  0
  2  3  1  0
  3  4  1  0
  4  5  1  0
  5  6  2  0
  5  7  1  0
  7  8  1  0
  8  9  1  0
  9 10  1  0
 10 11  1  0
 11 12  1  0
 12 13  1  0
 13 14  2  0
 14 15  1  0
 15 16  2  0
 16 17  1  0
 17 18  2  0
  2 19  1  0
 19 20  2  0
 20 21  1  0
 21 22  2  0
 22 23  1  0
 23 24  2  0
 24 25  1  0
 24 26  1  0
 26 27  2  0
 27 28  1  0
 28 29  2  0
 11  7  1  0
 18 13  1  0
 29 19  1  0
 28 22  1  0
  3 30  1  0
  4 31  1  0
  4 32  1  0
  8 33  1  0
  8 34  1  0
  9 35  1  0
  9 36  1  0
 10 37  1  0
 10 38  1  0
 11 39  1  6
 12 40  1  0
 12 41  1  0
 14 42  1  0
 15 43  1  0
 16 44  1  0
 17 45  1  0
 18 46  1  0
 20 47  1  0
 21 48  1  0
 23 49  1  0
 26 50  1  0
 27 51  1  0
M  END
>  <smiles>  (93) 
O=C(NCC(=O)N1CCCC1Cc1ccccc1)c1ccc2cc(Cl)ccc2n1

>  <score_type>  (93) 
oracle

>  <origin>  (93) 
autodockgpu

>  <m_score__min__energy>  (93) 
-8.9499999999999993

>  <m_primary>  (93) 
energy

>  <rmsd>  (93) 
1.9850530069608885

>  <m_score__min__rmsd>  (93) 
1.9850530069608885

>  <meeko>  (93) 
{"free_energy": -8.27, "intermolecular_energy": -10.06, "internal_energy": -1.76, "cluster_size": 6, "cluster_id": 4, "rank_in_cluster": 1}

>  <energy>  (93) 
-7.64

>  <cluster_rmsd>  (93) 
1.63

>  <cluster>  (93) 
3

$$$$

     RDKit          3D

 51 54  0  0  0  0  0  0  0  0999 V2000
  140.0670   72.2610  220.8250 O   0  0  0  0  0  0  0  0  0  0  0  0
  139.8660   72.7050  222.0080 C   0  0  0  0  0  0  0  0  0  0  0  0
  139.5610   74.0790  222.2410 N   0  0  0  0  0  0  0  0  0  0  0  0
  139.4470   75.0390  221.1880 C   0  0  0  0  0  0  0  0  0  0  0  0
  139.1140   76.4160  221.4970 C   0  0  0  0  0  0  0  0  0  0  0  0
  138.7040   76.5890  222.7260 O   0  0  0  0  0  0  0  0  0  0  0  0
  139.1600   77.5680  220.6820 N   0  0  0  0  0  0  0  0  0  0  0  0
  138.1620   78.6480  220.5630 C   0  0  0  0  0  0  0  0  0  0  0  0
  138.9810   79.8140  219.9900 C   0  0  0  0  0  0  0  0  0  0  0  0
  139.9550   79.0970  219.0450 C   0  0  0  0  0  0  0  0  0  0  0  0
  140.2770   77.8630  219.7990 C   0  0  1  0  0  0  0  0  0  0  0  0
  141.6190   77.8590  220.4400 C   0  0  0  0  0  0  0  0  0  0  0  0
  141.7680   78.7140  221.6330 C   0  0  0  0  0  0  0  0  0  0  0  0
  142.1700   80.0500  221.4980 C   0  0  0  0  0  0  0  0  0  0  0  0
  142.3190   80.8730  222.6010 C   0  0  0  0  0  0  0  0  0  0  0  0
  142.0800   80.4170  223.8800 C   0  0  0  0  0  0  0  0  0  0  0  0
  141.6840   79.1050  224.0300 C   0  0  0  0  0  0  0  0  0  0  0  0
  141.5390   78.2930  222.9230 C   0  0  0  0  0  0  0  0  0  0  0  0
  139.9550   71.7600  223.1430 C   0  0  0  0  0  0  0  0  0  0  0  0
  139.5250   70.4610  222.9820 C   0  0  0  0  0  0  0  0  0  0  0  0
  139.5700   69.5160  223.9780 C   0  0  0  0  0  0  0  0  0  0  0  0
  140.0820   69.9190  225.1990 C   0  0  0  0  0  0  0  0  0  0  0  0
  140.1380   68.9910  226.2120 C   0  0  0  0  0  0  0  0  0  0  0  0
  140.6480   69.3950  227.4260 C   0  0  0  0  0  0  0  0  0  0  0  0
  140.7130   68.1970  228.7140 Cl  0  0  0  0  0  0  0  0  0  0  0  0
  141.0750   70.6850  227.5830 C   0  0  0  0  0  0  0  0  0  0  0  0
  141.0230   71.6260  226.5690 C   0  0  0  0  0  0  0  0  0  0  0  0
  140.5070   71.2250  225.3340 C   0  0  0  0  0  0  0  0  0  0  0  0
  140.4420   72.1190  224.3240 N   0  0  0  0  0  0  0  0  0  0  0  0
  139.4250   74.3260  223.2700 H   0  0  0  0  0  0  0  0  0  0  0  0
  140.4155   75.0555  220.6667 H   0  0  0  0  0  0  0  0  0  0  0  0
  138.5733   74.6885  220.6189 H   0  0  0  0  0  0  0  0  0  0  0  0
  137.3495   78.3618  219.8789 H   0  0  0  0  0  0  0  0  0  0  0  0
  137.6706   78.8910  221.5167 H   0  0  0  0  0  0  0  0  0  0  0  0
  138.3397   80.5192  219.4409 H   0  0  0  0  0  0  0  0  0  0  0  0
  139.4806   80.4211  220.7594 H   0  0  0  0  0  0  0  0  0  0  0  0
  139.4763   78.8623  218.0829 H   0  0  0  0  0  0  0  0  0  0  0  0
  140.8393   79.6977  218.7857 H   0  0  0  0  0  0  0  0  0  0  0  0
  140.3879   77.0266  219.0933 H   0  0  0  0  0  0  0  0  0  0  0  0
  141.8473   76.8246  220.7365 H   0  0  0  0  0  0  0  0  0  0  0  0
  142.3076   78.2743  219.6894 H   0  0  0  0  0  0  0  0  0  0  0  0
  142.3713   80.4529  220.4944 H   0  0  0  0  0  0  0  0  0  0  0  0
  142.6357   81.9160  222.4535 H   0  0  0  0  0  0  0  0  0  0  0  0
  142.2012   81.0776  224.7512 H   0  0  0  0  0  0  0  0  0  0  0  0
  141.4830   78.7041  225.0344 H   0  0  0  0  0  0  0  0  0  0  0  0
  141.2228   77.2513  223.0809 H   0  0  0  0  0  0  0  0  0  0  0  0
  139.1235   70.1642  222.0018 H   0  0  0  0  0  0  0  0  0  0  0  0
  139.2159   68.4877  223.8129 H   0  0  0  0  0  0  0  0  0  0  0  0
  139.7871   67.9599  226.0580 H   0  0  0  0  0  0  0  0  0  0  0  0
  141.4784   70.9887  228.5602 H   0  0  0  0  0  0  0  0  0  0  0  0
  141.3762   72.6552  226.7302 H   0  0  0  0  0  0  0  0  0  0  0  0
  1  2  2  0
  2  3  1  0
  3  4  1  0
  4  5  1  0
  5  6  2  0
  5  7  1  0
  7  8  1  0
  8  9  1  0
  9 10  1  0
 10 11  1  0
 11 12  1  0
 12 13  1  0
 13 14  2  0
 14 15  1  0
 15 16  2  0
 16 17  1  0
 17 18  2  0
  2 19  1  0
 19 20  2  0
 20 21  1  0
 21 22  2  0
 22 23  1  0
 23 24  2  0
 24 25  1  0
 24 26  1  0
 26 27  2  0
 27 28  1  0
 28 29  2  0
 11  7  1  0
 18 13  1  0
 29 19  1  0
 28 22  1  0
  3 30  1  0
  4 31  1  0
  4 32  1  0
  8 33  1  0
  8 34  1  0
  9 35  1  0
  9 36  1  0
 10 37  1  0
 10 38  1  0
 11 39  1  6
 12 40  1  0
 12 41  1  0
 14 42  1  0
 15 43  1  0
 16 44  1  0
 17 45  1  0
 18 46  1  0
 20 47  1  0
 21 48  1  0
 23 49  1  0
 26 50  1  0
 27 51  1  0
M  END
>  <smiles>  (94) 
O=C(NCC(=O)N1CCCC1Cc1ccccc1)c1ccc2cc(Cl)ccc2n1

>  <score_type>  (94) 
oracle

>  <origin>  (94) 
autodockgpu

>  <m_score__min__energy>  (94) 
-8.9499999999999993

>  <m_primary>  (94) 
energy

>  <rmsd>  (94) 
2.325759131403424

>  <m_score__min__rmsd>  (94) 
2.325759131403424

>  <meeko>  (94) 
{"free_energy": -8.37, "intermolecular_energy": -10.16, "internal_energy": -1.96, "cluster_size": 35, "cluster_id": 1, "rank_in_cluster": 27}

>  <energy>  (94) 
-8.27

>  <cluster_rmsd>  (94) 
0.0

>  <cluster>  (94) 
4

$$$$

     RDKit          3D

 51 54  0  0  0  0  0  0  0  0999 V2000
  139.5420   71.9860  220.7880 O   0  0  0  0  0  0  0  0  0  0  0  0
  139.5590   72.4780  221.9690 C   0  0  0  0  0  0  0  0  0  0  0  0
  139.4020   73.8790  222.1890 N   0  0  0  0  0  0  0  0  0  0  0  0
  139.2030   74.8150  221.1280 C   0  0  0  0  0  0  0  0  0  0  0  0
  140.3260   75.2330  220.3110 C   0  0  0  0  0  0  0  0  0  0  0  0
  141.0820   74.2410  219.9200 O   0  0  0  0  0  0  0  0  0  0  0  0
  140.7150   76.5230  219.8900 N   0  0  0  0  0  0  0  0  0  0  0  0
  140.4090   77.2040  218.6170 C   0  0  0  0  0  0  0  0  0  0  0  0
  140.6130   78.6870  218.9610 C   0  0  0  0  0  0  0  0  0  0  0  0
  141.8000   78.6370  219.9330 C   0  0  0  0  0  0  0  0  0  0  0  0
  141.5170   77.4110  220.7150 C   0  0  1  0  0  0  0  0  0  0  0  0
  140.9970   77.6560  222.0870 C   0  0  0  0  0  0  0  0  0  0  0  0
  141.3460   78.9570  222.6880 C   0  0  0  0  0  0  0  0  0  0  0  0
  140.3490   79.9140  222.9250 C   0  0  0  0  0  0  0  0  0  0  0  0
  140.6490   81.1440  223.4860 C   0  0  0  0  0  0  0  0  0  0  0  0
  141.9400   81.4820  223.8350 C   0  0  0  0  0  0  0  0  0  0  0  0
  142.9310   80.5510  223.6080 C   0  0  0  0  0  0  0  0  0  0  0  0
  142.6200   79.3290  223.0480 C   0  0  0  0  0  0  0  0  0  0  0  0
  139.7480   71.5610  223.1140 C   0  0  0  0  0  0  0  0  0  0  0  0
  139.4020   70.2340  222.9870 C   0  0  0  0  0  0  0  0  0  0  0  0
  139.5420   69.3110  223.9950 C   0  0  0  0  0  0  0  0  0  0  0  0
  140.0630   69.7690  225.1920 C   0  0  0  0  0  0  0  0  0  0  0  0
  140.2140   68.8640  226.2170 C   0  0  0  0  0  0  0  0  0  0  0  0
  140.7320   69.3220  227.4080 C   0  0  0  0  0  0  0  0  0  0  0  0
  140.9190   68.1540  228.7110 Cl  0  0  0  0  0  0  0  0  0  0  0  0
  141.0760   70.6400  227.5320 C   0  0  0  0  0  0  0  0  0  0  0  0
  140.9280   71.5580  226.5060 C   0  0  0  0  0  0  0  0  0  0  0  0
  140.4030   71.1020  225.2940 C   0  0  0  0  0  0  0  0  0  0  0  0
  140.2460   71.9720  224.2730 N   0  0  0  0  0  0  0  0  0  0  0  0
  139.4450   74.1650  223.2170 H   0  0  0  0  0  0  0  0  0  0  0  0
  138.4625   74.3705  220.4468 H   0  0  0  0  0  0  0  0  0  0  0  0
  138.9155   75.7371  221.6543 H   0  0  0  0  0  0  0  0  0  0  0  0
  141.0984   76.8841  217.8218 H   0  0  0  0  0  0  0  0  0  0  0  0
  139.4007   76.9816  218.2378 H   0  0  0  0  0  0  0  0  0  0  0  0
  140.8575   79.2741  218.0635 H   0  0  0  0  0  0  0  0  0  0  0  0
  139.7184   79.1685  219.3827 H   0  0  0  0  0  0  0  0  0  0  0  0
  142.7543   78.5531  219.3923 H   0  0  0  0  0  0  0  0  0  0  0  0
  141.9004   79.5407  220.5521 H   0  0  0  0  0  0  0  0  0  0  0  0
  142.4646   76.9024  220.9460 H   0  0  0  0  0  0  0  0  0  0  0  0
  139.8999   77.5866  222.0485 H   0  0  0  0  0  0  0  0  0  0  0  0
  141.4739   76.8972  222.7248 H   0  0  0  0  0  0  0  0  0  0  0  0
  139.3068   79.6829  222.6598 H   0  0  0  0  0  0  0  0  0  0  0  0
  139.8390   81.8683  223.6573 H   0  0  0  0  0  0  0  0  0  0  0  0
  142.1709   82.4614  224.2795 H   0  0  0  0  0  0  0  0  0  0  0  0
  143.9728   80.7831  223.8741 H   0  0  0  0  0  0  0  0  0  0  0  0
  143.4371   78.6120  222.8801 H   0  0  0  0  0  0  0  0  0  0  0  0
  138.9907   69.8942  222.0250 H   0  0  0  0  0  0  0  0  0  0  0  0
  139.2537   68.2585  223.8569 H   0  0  0  0  0  0  0  0  0  0  0  0
  139.9303   67.8089  226.0894 H   0  0  0  0  0  0  0  0  0  0  0  0
  141.4892   70.9866  228.4907 H   0  0  0  0  0  0  0  0  0  0  0  0
  141.2143   72.6115  226.6406 H   0  0  0  0  0  0  0  0  0  0  0  0
  1  2  2  0
  2  3  1  0
  3  4  1  0
  4  5  1  0
  5  6  2  0
  5  7  1  0
  7  8  1  0
  8  9  1  0
  9 10  1  0
 10 11  1  0
 11 12  1  0
 12 13  1  0
 13 14  2  0
 14 15  1  0
 15 16  2  0
 16 17  1  0
 17 18  2  0
  2 19  1  0
 19 20  2  0
 20 21  1  0
 21 22  2  0
 22 23  1  0
 23 24  2  0
 24 25  1  0
 24 26  1  0
 26 27  2  0
 27 28  1  0
 28 29  2  0
 11  7  1  0
 18 13  1  0
 29 19  1  0
 28 22  1  0
  3 30  1  0
  4 31  1  0
  4 32  1  0
  8 33  1  0
  8 34  1  0
  9 35  1  0
  9 36  1  0
 10 37  1  0
 10 38  1  0
 11 39  1  1
 12 40  1  0
 12 41  1  0
 14 42  1  0
 15 43  1  0
 16 44  1  0
 17 45  1  0
 18 46  1  0
 20 47  1  0
 21 48  1  0
 23 49  1  0
 26 50  1  0
 27 51  1  0
M  END
>  <smiles>  (95) 
O=C(NCC(=O)N1CCCC1Cc1ccccc1)c1ccc2cc(Cl)ccc2n1

>  <score_type>  (95) 
oracle

>  <origin>  (95) 
autodockgpu

>  <m_score__min__energy>  (95) 
-8.9499999999999993

>  <m_primary>  (95) 
energy

>  <rmsd>  (95) 
1.7502620507272553

>  <m_score__min__rmsd>  (95) 
1.7502620507272553

>  <meeko>  (95) 
{"free_energy": -8.66, "intermolecular_energy": -10.45, "internal_energy": -1.43, "cluster_size": 35, "cluster_id": 1, "rank_in_cluster": 12}

>  <energy>  (95) 
-8.25

>  <cluster_rmsd>  (95) 
0.76

>  <cluster>  (95) 
4

$$$$

     RDKit          3D

 51 54  0  0  0  0  0  0  0  0999 V2000
  140.4400   72.3060  220.7010 O   0  0  0  0  0  0  0  0  0  0  0  0
  140.1470   72.7930  221.8480 C   0  0  0  0  0  0  0  0  0  0  0  0
  139.8700   74.1830  222.0120 N   0  0  0  0  0  0  0  0  0  0  0  0
  139.8870   75.1120  220.9270 C   0  0  0  0  0  0  0  0  0  0  0  0
  141.1070   75.3260  220.1740 C   0  0  0  0  0  0  0  0  0  0  0  0
  142.0100   74.4020  220.3730 O   0  0  0  0  0  0  0  0  0  0  0  0
  141.4580   76.3640  219.2840 N   0  0  0  0  0  0  0  0  0  0  0  0
  141.5120   76.3290  217.8100 C   0  0  0  0  0  0  0  0  0  0  0  0
  141.4130   77.8130  217.4250 C   0  0  0  0  0  0  0  0  0  0  0  0
  142.2070   78.4960  218.5470 C   0  0  0  0  0  0  0  0  0  0  0  0
  141.8290   77.6960  219.7350 C   0  0  1  0  0  0  0  0  0  0  0  0
  140.8590   78.3580  220.6470 C   0  0  0  0  0  0  0  0  0  0  0  0
  141.4360   79.0290  221.8280 C   0  0  0  0  0  0  0  0  0  0  0  0
  141.3180   78.4470  223.0970 C   0  0  0  0  0  0  0  0  0  0  0  0
  141.8480   79.0570  224.2220 C   0  0  0  0  0  0  0  0  0  0  0  0
  142.5130   80.2620  224.1430 C   0  0  0  0  0  0  0  0  0  0  0  0
  142.6370   80.8480  222.9010 C   0  0  0  0  0  0  0  0  0  0  0  0
  142.1050   80.2310  221.7870 C   0  0  0  0  0  0  0  0  0  0  0  0
  140.1010   71.8820  223.0120 C   0  0  0  0  0  0  0  0  0  0  0  0
  139.5240   70.6380  222.8790 C   0  0  0  0  0  0  0  0  0  0  0  0
  139.4360   69.7270  223.9040 C   0  0  0  0  0  0  0  0  0  0  0  0
  139.9650   70.1080  225.1250 C   0  0  0  0  0  0  0  0  0  0  0  0
  139.8890   69.2130  226.1670 C   0  0  0  0  0  0  0  0  0  0  0  0
  140.4170   69.5950  227.3810 C   0  0  0  0  0  0  0  0  0  0  0  0
  140.3130   68.4400  228.7050 Cl  0  0  0  0  0  0  0  0  0  0  0  0
  140.9890   70.8300  227.5100 C   0  0  0  0  0  0  0  0  0  0  0  0
  141.0700   71.7370  226.4670 C   0  0  0  0  0  0  0  0  0  0  0  0
  140.5370   71.3580  225.2320 C   0  0  0  0  0  0  0  0  0  0  0  0
  140.6000   72.2200  224.1940 N   0  0  0  0  0  0  0  0  0  0  0  0
  139.6500   74.4660  223.0170 H   0  0  0  0  0  0  0  0  0  0  0  0
  139.1256   74.7746  220.2084 H   0  0  0  0  0  0  0  0  0  0  0  0
  139.7224   76.0807  221.4215 H   0  0  0  0  0  0  0  0  0  0  0  0
  142.4586   75.8919  217.4594 H   0  0  0  0  0  0  0  0  0  0  0  0
  140.7199   75.7112  217.3618 H   0  0  0  0  0  0  0  0  0  0  0  0
  141.8701   78.0009  216.4423 H   0  0  0  0  0  0  0  0  0  0  0  0
  140.3787   78.1761  217.3335 H   0  0  0  0  0  0  0  0  0  0  0  0
  143.2894   78.4420  218.3586 H   0  0  0  0  0  0  0  0  0  0  0  0
  141.9876   79.5689  218.6511 H   0  0  0  0  0  0  0  0  0  0  0  0
  142.6997   77.6033  220.4008 H   0  0  0  0  0  0  0  0  0  0  0  0
  140.3112   79.1136  220.0647 H   0  0  0  0  0  0  0  0  0  0  0  0
  140.2265   77.5504  221.0442 H   0  0  0  0  0  0  0  0  0  0  0  0
  140.7936   77.4858  223.2021 H   0  0  0  0  0  0  0  0  0  0  0  0
  141.7357   78.5686  225.2012 H   0  0  0  0  0  0  0  0  0  0  0  0
  142.9309   80.7402  225.0411 H   0  0  0  0  0  0  0  0  0  0  0  0
  143.1612   81.8096  222.7979 H   0  0  0  0  0  0  0  0  0  0  0  0
  142.2222   80.7274  220.8124 H   0  0  0  0  0  0  0  0  0  0  0  0
  139.1111   70.3587  221.8984 H   0  0  0  0  0  0  0  0  0  0  0  0
  138.9676   68.7421  223.7610 H   0  0  0  0  0  0  0  0  0  0  0  0
  139.4224   68.2256  226.0354 H   0  0  0  0  0  0  0  0  0  0  0  0
  141.4041   71.1163  228.4876 H   0  0  0  0  0  0  0  0  0  0  0  0
  141.5381   72.7227  226.6058 H   0  0  0  0  0  0  0  0  0  0  0  0
  1  2  2  0
  2  3  1  0
  3  4  1  0
  4  5  1  0
  5  6  2  0
  5  7  1  0
  7  8  1  0
  8  9  1  0
  9 10  1  0
 10 11  1  0
 11 12  1  0
 12 13  1  0
 13 14  2  0
 14 15  1  0
 15 16  2  0
 16 17  1  0
 17 18  2  0
  2 19  1  0
 19 20  2  0
 20 21  1  0
 21 22  2  0
 22 23  1  0
 23 24  2  0
 24 25  1  0
 24 26  1  0
 26 27  2  0
 27 28  1  0
 28 29  2  0
 11  7  1  0
 18 13  1  0
 29 19  1  0
 28 22  1  0
  3 30  1  0
  4 31  1  0
  4 32  1  0
  8 33  1  0
  8 34  1  0
  9 35  1  0
  9 36  1  0
 10 37  1  0
 10 38  1  0
 11 39  1  1
 12 40  1  0
 12 41  1  0
 14 42  1  0
 15 43  1  0
 16 44  1  0
 17 45  1  0
 18 46  1  0
 20 47  1  0
 21 48  1  0
 23 49  1  0
 26 50  1  0
 27 51  1  0
M  END
>  <smiles>  (96) 
O=C(NCC(=O)N1CCCC1Cc1ccccc1)c1ccc2cc(Cl)ccc2n1

>  <score_type>  (96) 
oracle

>  <origin>  (96) 
autodockgpu

>  <m_score__min__energy>  (96) 
-8.9499999999999993

>  <m_primary>  (96) 
energy

>  <rmsd>  (96) 
1.8988994326705797

>  <m_score__min__rmsd>  (96) 
1.8988994326705797

>  <meeko>  (96) 
{"free_energy": -8.54, "intermolecular_energy": -10.33, "internal_energy": -1.29, "cluster_size": 35, "cluster_id": 1, "rank_in_cluster": 17}

>  <energy>  (96) 
-8.22

>  <cluster_rmsd>  (96) 
0.79

>  <cluster>  (96) 
4

$$$$

     RDKit          3D

 51 54  0  0  0  0  0  0  0  0999 V2000
  139.6870   72.0120  220.7960 O   0  0  0  0  0  0  0  0  0  0  0  0
  139.6690   72.5010  221.9780 C   0  0  0  0  0  0  0  0  0  0  0  0
  139.5070   73.9020  222.1960 N   0  0  0  0  0  0  0  0  0  0  0  0
  139.3420   74.8410  221.1320 C   0  0  0  0  0  0  0  0  0  0  0  0
  139.2180   76.2550  221.4270 C   0  0  0  0  0  0  0  0  0  0  0  0
  138.9710   76.5050  222.6850 O   0  0  0  0  0  0  0  0  0  0  0  0
  139.3190   77.3740  220.5720 N   0  0  0  0  0  0  0  0  0  0  0  0
  138.3090   78.4180  220.3060 C   0  0  0  0  0  0  0  0  0  0  0  0
  139.1530   79.5850  219.7700 C   0  0  0  0  0  0  0  0  0  0  0  0
  140.2380   78.8600  218.9600 C   0  0  0  0  0  0  0  0  0  0  0  0
  140.5120   77.6680  219.7960 C   0  0  1  0  0  0  0  0  0  0  0  0
  141.7800   77.7310  220.5700 C   0  0  0  0  0  0  0  0  0  0  0  0
  141.8140   78.7040  221.6780 C   0  0  0  0  0  0  0  0  0  0  0  0
  141.4800   78.3040  222.9790 C   0  0  0  0  0  0  0  0  0  0  0  0
  141.5010   79.1980  224.0360 C   0  0  0  0  0  0  0  0  0  0  0  0
  141.8500   80.5200  223.8570 C   0  0  0  0  0  0  0  0  0  0  0  0
  142.1820   80.9290  222.5830 C   0  0  0  0  0  0  0  0  0  0  0  0
  142.1570   80.0290  221.5370 C   0  0  0  0  0  0  0  0  0  0  0  0
  139.8230   71.5810  223.1260 C   0  0  0  0  0  0  0  0  0  0  0  0
  139.4490   70.2620  222.9950 C   0  0  0  0  0  0  0  0  0  0  0  0
  139.5560   69.3370  224.0050 C   0  0  0  0  0  0  0  0  0  0  0  0
  140.0700   69.7850  225.2100 C   0  0  0  0  0  0  0  0  0  0  0  0
  140.1860   68.8780  226.2370 C   0  0  0  0  0  0  0  0  0  0  0  0
  140.6980   69.3260  227.4350 C   0  0  0  0  0  0  0  0  0  0  0  0
  140.8420   68.1550  228.7410 Cl  0  0  0  0  0  0  0  0  0  0  0  0
  141.0680   70.6360  227.5630 C   0  0  0  0  0  0  0  0  0  0  0  0
  140.9550   71.5560  226.5340 C   0  0  0  0  0  0  0  0  0  0  0  0
  140.4360   71.1100  225.3150 C   0  0  0  0  0  0  0  0  0  0  0  0
  140.3130   71.9830  224.2920 N   0  0  0  0  0  0  0  0  0  0  0  0
  139.5200   74.1850  223.2260 H   0  0  0  0  0  0  0  0  0  0  0  0
  140.2146   74.7295  220.4717 H   0  0  0  0  0  0  0  0  0  0  0  0
  138.3573   74.5818  220.7159 H   0  0  0  0  0  0  0  0  0  0  0  0
  137.5792   78.0802  219.5555 H   0  0  0  0  0  0  0  0  0  0  0  0
  137.7152   78.6834  221.1931 H   0  0  0  0  0  0  0  0  0  0  0  0
  138.5538   80.2483  219.1289 H   0  0  0  0  0  0  0  0  0  0  0  0
  139.5549   80.2368  220.5597 H   0  0  0  0  0  0  0  0  0  0  0  0
  139.8671   78.5722  217.9652 H   0  0  0  0  0  0  0  0  0  0  0  0
  141.1284   79.4761  218.7658 H   0  0  0  0  0  0  0  0  0  0  0  0
  140.7163   76.8077  219.1417 H   0  0  0  0  0  0  0  0  0  0  0  0
  141.9659   76.7328  220.9930 H   0  0  0  0  0  0  0  0  0  0  0  0
  142.5464   78.0676  219.8564 H   0  0  0  0  0  0  0  0  0  0  0  0
  141.1952   77.2578  223.1643 H   0  0  0  0  0  0  0  0  0  0  0  0
  141.2328   78.8452  225.0428 H   0  0  0  0  0  0  0  0  0  0  0  0
  141.8631   81.2242  224.7019 H   0  0  0  0  0  0  0  0  0  0  0  0
  142.4676   81.9754  222.3997 H   0  0  0  0  0  0  0  0  0  0  0  0
  142.4265   80.3914  220.5340 H   0  0  0  0  0  0  0  0  0  0  0  0
  139.0421   69.9309  222.0281 H   0  0  0  0  0  0  0  0  0  0  0  0
  139.2481   68.2905  223.8632 H   0  0  0  0  0  0  0  0  0  0  0  0
  139.8801   67.8295  226.1064 H   0  0  0  0  0  0  0  0  0  0  0  0
  141.4740   70.9748  228.5276 H   0  0  0  0  0  0  0  0  0  0  0  0
  141.2634   72.6029  226.6713 H   0  0  0  0  0  0  0  0  0  0  0  0
  1  2  2  0
  2  3  1  0
  3  4  1  0
  4  5  1  0
  5  6  2  0
  5  7  1  0
  7  8  1  0
  8  9  1  0
  9 10  1  0
 10 11  1  0
 11 12  1  0
 12 13  1  0
 13 14  2  0
 14 15  1  0
 15 16  2  0
 16 17  1  0
 17 18  2  0
  2 19  1  0
 19 20  2  0
 20 21  1  0
 21 22  2  0
 22 23  1  0
 23 24  2  0
 24 25  1  0
 24 26  1  0
 26 27  2  0
 27 28  1  0
 28 29  2  0
 11  7  1  0
 18 13  1  0
 29 19  1  0
 28 22  1  0
  3 30  1  0
  4 31  1  0
  4 32  1  0
  8 33  1  0
  8 34  1  0
  9 35  1  0
  9 36  1  0
 10 37  1  0
 10 38  1  0
 11 39  1  6
 12 40  1  0
 12 41  1  0
 14 42  1  0
 15 43  1  0
 16 44  1  0
 17 45  1  0
 18 46  1  0
 20 47  1  0
 21 48  1  0
 23 49  1  0
 26 50  1  0
 27 51  1  0
M  END
>  <smiles>  (97) 
O=C(NCC(=O)N1CCCC1Cc1ccccc1)c1ccc2cc(Cl)ccc2n1

>  <score_type>  (97) 
oracle

>  <origin>  (97) 
autodockgpu

>  <m_score__min__energy>  (97) 
-8.9499999999999993

>  <m_primary>  (97) 
energy

>  <rmsd>  (97) 
2.096500491438763

>  <m_score__min__rmsd>  (97) 
2.096500491438763

>  <meeko>  (97) 
{"free_energy": -8.4, "intermolecular_energy": -10.19, "internal_energy": -1.99, "cluster_size": 35, "cluster_id": 1, "rank_in_cluster": 25}

>  <energy>  (97) 
-8.21

>  <cluster_rmsd>  (97) 
0.82

>  <cluster>  (97) 
4

$$$$

     RDKit          3D

 51 54  0  0  0  0  0  0  0  0999 V2000
  140.7170   73.9130  222.1100 O   0  0  0  0  0  0  0  0  0  0  0  0
  139.9770   72.8700  222.0480 C   0  0  0  0  0  0  0  0  0  0  0  0
  139.1360   72.6270  220.9210 N   0  0  0  0  0  0  0  0  0  0  0  0
  139.0690   73.5050  219.7960 C   0  0  0  0  0  0  0  0  0  0  0  0
  138.9930   74.9390  220.0000 C   0  0  0  0  0  0  0  0  0  0  0  0
  139.5680   75.6300  219.0520 O   0  0  0  0  0  0  0  0  0  0  0  0
  138.4090   75.6790  221.0500 N   0  0  0  0  0  0  0  0  0  0  0  0
  137.1670   75.3910  221.7950 C   0  0  0  0  0  0  0  0  0  0  0  0
  137.3510   76.1900  223.0940 C   0  0  0  0  0  0  0  0  0  0  0  0
  138.0830   77.4470  222.6050 C   0  0  0  0  0  0  0  0  0  0  0  0
  138.9970   76.9010  221.5750 C   0  0  1  0  0  0  0  0  0  0  0  0
  140.4190   76.7970  221.9980 C   0  0  0  0  0  0  0  0  0  0  0  0
  141.0990   78.0720  222.2980 C   0  0  0  0  0  0  0  0  0  0  0  0
  141.3960   78.9730  221.2670 C   0  0  0  0  0  0  0  0  0  0  0  0
  142.0340   80.1750  221.5220 C   0  0  0  0  0  0  0  0  0  0  0  0
  142.4070   80.5380  222.7990 C   0  0  0  0  0  0  0  0  0  0  0  0
  142.1220   79.6620  223.8240 C   0  0  0  0  0  0  0  0  0  0  0  0
  141.4850   78.4670  223.5590 C   0  0  0  0  0  0  0  0  0  0  0  0
  140.0090   71.9130  223.1740 C   0  0  0  0  0  0  0  0  0  0  0  0
  139.5040   70.6430  223.0020 C   0  0  0  0  0  0  0  0  0  0  0  0
  139.4910   69.6890  223.9910 C   0  0  0  0  0  0  0  0  0  0  0  0
  140.0220   70.0520  225.2160 C   0  0  0  0  0  0  0  0  0  0  0  0
  140.0210   69.1140  226.2220 C   0  0  0  0  0  0  0  0  0  0  0  0
  140.5490   69.4790  227.4410 C   0  0  0  0  0  0  0  0  0  0  0  0
  140.5410   68.2690  228.7190 Cl  0  0  0  0  0  0  0  0  0  0  0  0
  141.0490   70.7400  227.6100 C   0  0  0  0  0  0  0  0  0  0  0  0
  141.0540   71.6910  226.6030 C   0  0  0  0  0  0  0  0  0  0  0  0
  140.5210   71.3300  225.3630 C   0  0  0  0  0  0  0  0  0  0  0  0
  140.5110   72.2340  224.3600 N   0  0  0  0  0  0  0  0  0  0  0  0
  138.5610   71.7300  220.9950 H   0  0  0  0  0  0  0  0  0  0  0  0
  139.9691   73.3172  219.1923 H   0  0  0  0  0  0  0  0  0  0  0  0
  138.0969   73.2618  219.3424 H   0  0  0  0  0  0  0  0  0  0  0  0
  136.2832   75.7375  221.2394 H   0  0  0  0  0  0  0  0  0  0  0  0
  137.0029   74.3168  221.9660 H   0  0  0  0  0  0  0  0  0  0  0  0
  136.3809   76.4445  223.5457 H   0  0  0  0  0  0  0  0  0  0  0  0
  137.8953   75.6399  223.8757 H   0  0  0  0  0  0  0  0  0  0  0  0
  137.3804   78.1728  222.1695 H   0  0  0  0  0  0  0  0  0  0  0  0
  138.6003   77.9947  223.4065 H   0  0  0  0  0  0  0  0  0  0  0  0
  139.0839   77.6233  220.7500 H   0  0  0  0  0  0  0  0  0  0  0  0
  140.4561   76.1744  222.9041 H   0  0  0  0  0  0  0  0  0  0  0  0
  140.9544   76.3705  221.1369 H   0  0  0  0  0  0  0  0  0  0  0  0
  141.1165   78.7202  220.2336 H   0  0  0  0  0  0  0  0  0  0  0  0
  142.2485   80.8568  220.6859 H   0  0  0  0  0  0  0  0  0  0  0  0
  142.9148   81.4943  222.9929 H   0  0  0  0  0  0  0  0  0  0  0  0
  142.4032   79.9162  224.8566 H   0  0  0  0  0  0  0  0  0  0  0  0
  141.2739   77.7926  224.4020 H   0  0  0  0  0  0  0  0  0  0  0  0
  139.0882   70.3779  222.0187 H   0  0  0  0  0  0  0  0  0  0  0  0
  139.0780   68.6844  223.8170 H   0  0  0  0  0  0  0  0  0  0  0  0
  139.6122   68.1059  226.0587 H   0  0  0  0  0  0  0  0  0  0  0  0
  141.4665   71.0119  228.5907 H   0  0  0  0  0  0  0  0  0  0  0  0
  141.4641   72.6973  226.7739 H   0  0  0  0  0  0  0  0  0  0  0  0
  1  2  2  0
  2  3  1  0
  3  4  1  0
  4  5  1  0
  5  6  2  0
  5  7  1  0
  7  8  1  0
  8  9  1  0
  9 10  1  0
 10 11  1  0
 11 12  1  0
 12 13  1  0
 13 14  2  0
 14 15  1  0
 15 16  2  0
 16 17  1  0
 17 18  2  0
  2 19  1  0
 19 20  2  0
 20 21  1  0
 21 22  2  0
 22 23  1  0
 23 24  2  0
 24 25  1  0
 24 26  1  0
 26 27  2  0
 27 28  1  0
 28 29  2  0
 11  7  1  0
 18 13  1  0
 29 19  1  0
 28 22  1  0
  3 30  1  0
  4 31  1  0
  4 32  1  0
  8 33  1  0
  8 34  1  0
  9 35  1  0
  9 36  1  0
 10 37  1  0
 10 38  1  0
 11 39  1  6
 12 40  1  0
 12 41  1  0
 14 42  1  0
 15 43  1  0
 16 44  1  0
 17 45  1  0
 18 46  1  0
 20 47  1  0
 21 48  1  0
 23 49  1  0
 26 50  1  0
 27 51  1  0
M  END
>  <smiles>  (98) 
O=C(NCC(=O)N1CCCC1Cc1ccccc1)c1ccc2cc(Cl)ccc2n1

>  <score_type>  (98) 
oracle

>  <origin>  (98) 
autodockgpu

>  <m_score__min__energy>  (98) 
-8.9499999999999993

>  <m_primary>  (98) 
energy

>  <rmsd>  (98) 
2.9836410228687145

>  <m_score__min__rmsd>  (98) 
2.9836410228687145

>  <meeko>  (98) 
{"free_energy": -8.41, "intermolecular_energy": -10.2, "internal_energy": -1.58, "cluster_size": 35, "cluster_id": 1, "rank_in_cluster": 24}

>  <energy>  (98) 
-8.02

>  <cluster_rmsd>  (98) 
0.81

>  <cluster>  (98) 
4

$$$$

     RDKit          3D

 51 54  0  0  0  0  0  0  0  0999 V2000
  138.9430   71.7270  220.7630 O   0  0  0  0  0  0  0  0  0  0  0  0
  139.0050   72.2770  221.9170 C   0  0  0  0  0  0  0  0  0  0  0  0
  138.7790   73.6760  222.0820 N   0  0  0  0  0  0  0  0  0  0  0  0
  138.4590   74.5460  220.9950 C   0  0  0  0  0  0  0  0  0  0  0  0
  138.7200   75.9680  221.1040 C   0  0  0  0  0  0  0  0  0  0  0  0
  137.7940   76.6180  221.7580 O   0  0  0  0  0  0  0  0  0  0  0  0
  139.7990   76.7350  220.6150 N   0  0  0  0  0  0  0  0  0  0  0  0
  139.8460   77.5900  219.4120 C   0  0  0  0  0  0  0  0  0  0  0  0
  141.0200   78.5360  219.7070 C   0  0  0  0  0  0  0  0  0  0  0  0
  142.0000   77.6210  220.4550 C   0  0  0  0  0  0  0  0  0  0  0  0
  141.0910   76.7920  221.2810 C   0  0  1  0  0  0  0  0  0  0  0  0
  141.0530   77.1590  222.7210 C   0  0  0  0  0  0  0  0  0  0  0  0
  141.3020   78.5800  223.0330 C   0  0  0  0  0  0  0  0  0  0  0  0
  140.2270   79.4670  223.1850 C   0  0  0  0  0  0  0  0  0  0  0  0
  140.4320   80.8050  223.4760 C   0  0  0  0  0  0  0  0  0  0  0  0
  141.7010   81.3250  223.6270 C   0  0  0  0  0  0  0  0  0  0  0  0
  142.7680   80.4650  223.4800 C   0  0  0  0  0  0  0  0  0  0  0  0
  142.5520   79.1330  223.1900 C   0  0  0  0  0  0  0  0  0  0  0  0
  139.3200   71.4300  223.0880 C   0  0  0  0  0  0  0  0  0  0  0  0
  138.9960   70.0910  223.0650 C   0  0  0  0  0  0  0  0  0  0  0  0
  139.2500   69.2290  224.1040 C   0  0  0  0  0  0  0  0  0  0  0  0
  139.8650   69.7640  225.2230 C   0  0  0  0  0  0  0  0  0  0  0  0
  140.1300   68.9210  226.2770 C   0  0  0  0  0  0  0  0  0  0  0  0
  140.7420   69.4560  227.3890 C   0  0  0  0  0  0  0  0  0  0  0  0
  141.0750   68.3660  228.7310 Cl  0  0  0  0  0  0  0  0  0  0  0  0
  141.0630   70.7850  227.4090 C   0  0  0  0  0  0  0  0  0  0  0  0
  140.8000   71.6410  226.3530 C   0  0  0  0  0  0  0  0  0  0  0  0
  140.1790   71.1070  225.2210 C   0  0  0  0  0  0  0  0  0  0  0  0
  139.9090   71.9150  224.1730 N   0  0  0  0  0  0  0  0  0  0  0  0
  138.8700   74.0140  223.0910 H   0  0  0  0  0  0  0  0  0  0  0  0
  139.0238   74.1854  220.1227 H   0  0  0  0  0  0  0  0  0  0  0  0
  137.3615   74.4934  220.9435 H   0  0  0  0  0  0  0  0  0  0  0  0
  140.0374   76.9918  218.5089 H   0  0  0  0  0  0  0  0  0  0  0  0
  138.9010   78.1187  219.2184 H   0  0  0  0  0  0  0  0  0  0  0  0
  141.4649   78.9203  218.7773 H   0  0  0  0  0  0  0  0  0  0  0  0
  140.7310   79.4308  220.2777 H   0  0  0  0  0  0  0  0  0  0  0  0
  142.5790   77.0006  219.7551 H   0  0  0  0  0  0  0  0  0  0  0  0
  142.7523   78.1680  221.0421 H   0  0  0  0  0  0  0  0  0  0  0  0
  141.4913   75.7693  221.3431 H   0  0  0  0  0  0  0  0  0  0  0  0
  140.0569   76.8988  223.1085 H   0  0  0  0  0  0  0  0  0  0  0  0
  141.8778   76.6031  223.1907 H   0  0  0  0  0  0  0  0  0  0  0  0
  139.1992   79.0921  223.0707 H   0  0  0  0  0  0  0  0  0  0  0  0
  139.5625   81.4692  223.5895 H   0  0  0  0  0  0  0  0  0  0  0  0
  141.8559   82.3895  223.8568 H   0  0  0  0  0  0  0  0  0  0  0  0
  143.7952   80.8415  223.5942 H   0  0  0  0  0  0  0  0  0  0  0  0
  143.4279   78.4771  223.0782 H   0  0  0  0  0  0  0  0  0  0  0  0
  138.5069   69.6901  222.1650 H   0  0  0  0  0  0  0  0  0  0  0  0
  138.9778   68.1646  224.0495 H   0  0  0  0  0  0  0  0  0  0  0  0
  139.8621   67.8550  226.2333 H   0  0  0  0  0  0  0  0  0  0  0  0
  141.5528   71.1929  228.3055 H   0  0  0  0  0  0  0  0  0  0  0  0
  141.0709   72.7059  226.4035 H   0  0  0  0  0  0  0  0  0  0  0  0
  1  2  2  0
  2  3  1  0
  3  4  1  0
  4  5  1  0
  5  6  2  0
  5  7  1  0
  7  8  1  0
  8  9  1  0
  9 10  1  0
 10 11  1  0
 11 12  1  0
 12 13  1  0
 13 14  2  0
 14 15  1  0
 15 16  2  0
 16 17  1  0
 17 18  2  0
  2 19  1  0
 19 20  2  0
 20 21  1  0
 21 22  2  0
 22 23  1  0
 23 24  2  0
 24 25  1  0
 24 26  1  0
 26 27  2  0
 27 28  1  0
 28 29  2  0
 11  7  1  0
 18 13  1  0
 29 19  1  0
 28 22  1  0
  3 30  1  0
  4 31  1  0
  4 32  1  0
  8 33  1  0
  8 34  1  0
  9 35  1  0
  9 36  1  0
 10 37  1  0
 10 38  1  0
 11 39  1  1
 12 40  1  0
 12 41  1  0
 14 42  1  0
 15 43  1  0
 16 44  1  0
 17 45  1  0
 18 46  1  0
 20 47  1  0
 21 48  1  0
 23 49  1  0
 26 50  1  0
 27 51  1  0
M  END
>  <smiles>  (99) 
O=C(NCC(=O)N1CCCC1Cc1ccccc1)c1ccc2cc(Cl)ccc2n1

>  <score_type>  (99) 
oracle

>  <origin>  (99) 
autodockgpu

>  <m_score__min__energy>  (99) 
-8.9499999999999993

>  <m_primary>  (99) 
energy

>  <rmsd>  (99) 
1.7866707120245726

>  <m_score__min__rmsd>  (99) 
1.7866707120245726

>  <meeko>  (99) 
{"free_energy": -8.73, "intermolecular_energy": -10.52, "internal_energy": -1.57, "cluster_size": 35, "cluster_id": 1, "rank_in_cluster": 9}

>  <energy>  (99) 
-7.98

>  <cluster_rmsd>  (99) 
0.71

>  <cluster>  (99) 
4

$$$$

     RDKit          3D

 51 54  0  0  0  0  0  0  0  0999 V2000
  139.3620   71.9750  220.8360 O   0  0  0  0  0  0  0  0  0  0  0  0
  139.4850   72.4730  222.0080 C   0  0  0  0  0  0  0  0  0  0  0  0
  139.4230   73.8830  222.2230 N   0  0  0  0  0  0  0  0  0  0  0  0
  139.2100   74.8210  221.1670 C   0  0  0  0  0  0  0  0  0  0  0  0
  139.2120   76.2430  221.4510 C   0  0  0  0  0  0  0  0  0  0  0  0
  139.0400   76.5210  222.7160 O   0  0  0  0  0  0  0  0  0  0  0  0
  139.3610   77.3440  220.5810 N   0  0  0  0  0  0  0  0  0  0  0  0
  138.3820   78.4020  220.2620 C   0  0  0  0  0  0  0  0  0  0  0  0
  139.2660   79.5420  219.7340 C   0  0  0  0  0  0  0  0  0  0  0  0
  140.3620   78.7830  218.9740 C   0  0  0  0  0  0  0  0  0  0  0  0
  140.5850   77.6010  219.8390 C   0  0  1  0  0  0  0  0  0  0  0  0
  141.8280   77.6540  220.6540 C   0  0  0  0  0  0  0  0  0  0  0  0
  141.8330   78.6260  221.7650 C   0  0  0  0  0  0  0  0  0  0  0  0
  142.1940   79.9600  221.5340 C   0  0  0  0  0  0  0  0  0  0  0  0
  142.2080   80.8910  222.5580 C   0  0  0  0  0  0  0  0  0  0  0  0
  141.8690   80.5480  223.8500 C   0  0  0  0  0  0  0  0  0  0  0  0
  141.5110   79.2380  224.0930 C   0  0  0  0  0  0  0  0  0  0  0  0
  141.5000   78.3190  223.0640 C   0  0  0  0  0  0  0  0  0  0  0  0
  139.6960   71.5550  223.1480 C   0  0  0  0  0  0  0  0  0  0  0  0
  139.3720   70.2230  223.0170 C   0  0  0  0  0  0  0  0  0  0  0  0
  139.5330   69.2980  224.0200 C   0  0  0  0  0  0  0  0  0  0  0  0
  140.0510   69.7600  225.2170 C   0  0  0  0  0  0  0  0  0  0  0  0
  140.2220   68.8530  226.2380 C   0  0  0  0  0  0  0  0  0  0  0  0
  140.7380   69.3160  227.4280 C   0  0  0  0  0  0  0  0  0  0  0  0
  140.9510   68.1440  228.7250 Cl  0  0  0  0  0  0  0  0  0  0  0  0
  141.0590   70.6380  227.5560 C   0  0  0  0  0  0  0  0  0  0  0  0
  140.8910   71.5580  226.5350 C   0  0  0  0  0  0  0  0  0  0  0  0
  140.3680   71.0980  225.3230 C   0  0  0  0  0  0  0  0  0  0  0  0
  140.1910   71.9700  224.3070 N   0  0  0  0  0  0  0  0  0  0  0  0
  139.5500   74.1720  223.2430 H   0  0  0  0  0  0  0  0  0  0  0  0
  139.9992   74.6447  220.4212 H   0  0  0  0  0  0  0  0  0  0  0  0
  138.1722   74.6253  220.8595 H   0  0  0  0  0  0  0  0  0  0  0  0
  137.6712   78.0643  219.4934 H   0  0  0  0  0  0  0  0  0  0  0  0
  137.7644   78.6955  221.1236 H   0  0  0  0  0  0  0  0  0  0  0  0
  138.7015   80.2048  219.0617 H   0  0  0  0  0  0  0  0  0  0  0  0
  139.6545   80.1999  220.5253 H   0  0  0  0  0  0  0  0  0  0  0  0
  140.0187   78.4846  217.9724 H   0  0  0  0  0  0  0  0  0  0  0  0
  141.2701   79.3786  218.7992 H   0  0  0  0  0  0  0  0  0  0  0  0
  140.7936   76.7255  219.2066 H   0  0  0  0  0  0  0  0  0  0  0  0
  141.9931   76.6539  221.0812 H   0  0  0  0  0  0  0  0  0  0  0  0
  142.6195   77.9862  219.9661 H   0  0  0  0  0  0  0  0  0  0  0  0
  142.4722   80.2740  220.5171 H   0  0  0  0  0  0  0  0  0  0  0  0
  142.4963   81.9291  222.3361 H   0  0  0  0  0  0  0  0  0  0  0  0
  141.8836   81.2932  224.6590 H   0  0  0  0  0  0  0  0  0  0  0  0
  141.2334   78.9252  225.1104 H   0  0  0  0  0  0  0  0  0  0  0  0
  141.2089   77.2837  223.2950 H   0  0  0  0  0  0  0  0  0  0  0  0
  138.9614   69.8805  222.0557 H   0  0  0  0  0  0  0  0  0  0  0  0
  139.2631   68.2411  223.8783 H   0  0  0  0  0  0  0  0  0  0  0  0
  139.9554   67.7937  226.1079 H   0  0  0  0  0  0  0  0  0  0  0  0
  141.4699   70.9875  228.5146 H   0  0  0  0  0  0  0  0  0  0  0  0
  141.1601   72.6156  226.6730 H   0  0  0  0  0  0  0  0  0  0  0  0
  1  2  2  0
  2  3  1  0
  3  4  1  0
  4  5  1  0
  5  6  2  0
  5  7  1  0
  7  8  1  0
  8  9  1  0
  9 10  1  0
 10 11  1  0
 11 12  1  0
 12 13  1  0
 13 14  2  0
 14 15  1  0
 15 16  2  0
 16 17  1  0
 17 18  2  0
  2 19  1  0
 19 20  2  0
 20 21  1  0
 21 22  2  0
 22 23  1  0
 23 24  2  0
 24 25  1  0
 24 26  1  0
 26 27  2  0
 27 28  1  0
 28 29  2  0
 11  7  1  0
 18 13  1  0
 29 19  1  0
 28 22  1  0
  3 30  1  0
  4 31  1  0
  4 32  1  0
  8 33  1  0
  8 34  1  0
  9 35  1  0
  9 36  1  0
 10 37  1  0
 10 38  1  0
 11 39  1  6
 12 40  1  0
 12 41  1  0
 14 42  1  0
 15 43  1  0
 16 44  1  0
 17 45  1  0
 18 46  1  0
 20 47  1  0
 21 48  1  0
 23 49  1  0
 26 50  1  0
 27 51  1  0
M  END
>  <smiles>  (100) 
O=C(NCC(=O)N1CCCC1Cc1ccccc1)c1ccc2cc(Cl)ccc2n1

>  <score_type>  (100) 
oracle

>  <origin>  (100) 
autodockgpu

>  <m_score__min__energy>  (100) 
-8.9499999999999993

>  <m_primary>  (100) 
energy

>  <rmsd>  (100) 
2.040075005993848

>  <m_score__min__rmsd>  (100) 
2.040075005993848

>  <meeko>  (100) 
{"free_energy": -8.36, "intermolecular_energy": -10.15, "internal_energy": -1.99, "cluster_size": 35, "cluster_id": 1, "rank_in_cluster": 28}

>  <energy>  (100) 
-7.13

>  <cluster_rmsd>  (100) 
0.0

>  <cluster>  (100) 
5

$$$$
