
     RDKit          3D

 56 59  0  0  0  0  0  0  0  0999 V2000
  135.8920   74.8970  221.9850 C   0  0  0  0  0  0  0  0  0  0  0  0
  137.3030   74.8930  221.7430 N   0  0  0  0  0  0  0  0  0  0  0  0
  138.0930   75.7180  222.6970 C   0  0  0  0  0  0  0  0  0  0  0  0
  139.4510   75.9170  222.1320 C   0  0  0  0  0  0  0  0  0  0  0  0
  140.3300   75.0430  222.3300 O   0  0  0  0  0  0  0  0  0  0  0  0
  139.6800   77.1090  221.3870 N   0  0  0  0  0  0  0  0  0  0  0  0
  138.6970   78.0450  220.8440 C   0  0  0  0  0  0  0  0  0  0  0  0
  139.4810   78.9170  219.9140 C   0  0  0  0  0  0  0  0  0  0  0  0
  140.8130   78.2030  219.7030 C   0  0  0  0  0  0  0  0  0  0  0  0
  141.0200   77.5750  221.0500 C   0  0  1  0  0  0  0  0  0  0  0  0
  141.5000   78.5940  222.0070 C   0  0  0  0  0  0  0  0  0  0  0  0
  142.0630   79.7040  221.5000 N   0  0  0  0  0  0  0  0  0  0  0  0
  142.5340   80.6980  222.2970 C   0  0  0  0  0  0  0  0  0  0  0  0
  142.4120   80.5260  223.6610 C   0  0  0  0  0  0  0  0  0  0  0  0
  142.8860   81.5240  224.4500 F   0  0  0  0  0  0  0  0  0  0  0  0
  141.8360   79.3940  224.2200 C   0  0  0  0  0  0  0  0  0  0  0  0
  141.3910   78.4490  223.3530 N   0  0  0  0  0  0  0  0  0  0  0  0
  138.0120   74.2300  220.7400 C   0  0  0  0  0  0  0  0  0  0  0  0
  137.8410   74.7110  219.5380 O   0  0  0  0  0  0  0  0  0  0  0  0
  138.9200   73.0940  220.7870 C   0  0  0  0  0  0  0  0  0  0  0  0
  139.2000   72.5270  222.0520 N   0  0  0  0  0  0  0  0  0  0  0  0
  139.1110   71.1140  222.2870 C   0  0  0  0  0  0  0  0  0  0  0  0
  138.7800   70.3070  221.3570 O   0  0  0  0  0  0  0  0  0  0  0  0
  139.4130   70.6210  223.6340 C   0  0  0  0  0  0  0  0  0  0  0  0
  139.1260   69.3130  223.9450 C   0  0  0  0  0  0  0  0  0  0  0  0
  139.4210   68.8620  225.2340 C   0  0  0  0  0  0  0  0  0  0  0  0
  139.9830   69.6880  226.1780 C   0  0  0  0  0  0  0  0  0  0  0  0
  140.2930   69.2960  227.4570 C   0  0  0  0  0  0  0  0  0  0  0  0
  140.8580   70.2110  228.3300 C   0  0  0  0  0  0  0  0  0  0  0  0
  141.1240   71.5150  227.9600 C   0  0  0  0  0  0  0  0  0  0  0  0
  140.8120   71.9120  226.6710 C   0  0  0  0  0  0  0  0  0  0  0  0
  140.2480   70.9880  225.8080 C   0  0  0  0  0  0  0  0  0  0  0  0
  139.9620   71.4100  224.5710 N   0  0  0  0  0  0  0  0  0  0  0  0
  135.7059   74.8975  223.0691 H   0  0  0  0  0  0  0  0  0  0  0  0
  135.4455   75.7964  221.5359 H   0  0  0  0  0  0  0  0  0  0  0  0
  135.4404   74.0001  221.5359 H   0  0  0  0  0  0  0  0  0  0  0  0
  137.6033   76.6927  222.8390 H   0  0  0  0  0  0  0  0  0  0  0  0
  138.1596   75.2100  223.6704 H   0  0  0  0  0  0  0  0  0  0  0  0
  137.9077   77.5066  220.2989 H   0  0  0  0  0  0  0  0  0  0  0  0
  138.1913   78.6230  221.6316 H   0  0  0  0  0  0  0  0  0  0  0  0
  138.9511   79.0309  218.9568 H   0  0  0  0  0  0  0  0  0  0  0  0
  139.6225   79.9268  220.3267 H   0  0  0  0  0  0  0  0  0  0  0  0
  140.7428   77.4438  218.9102 H   0  0  0  0  0  0  0  0  0  0  0  0
  141.6330   78.8609  219.3794 H   0  0  0  0  0  0  0  0  0  0  0  0
  141.7684   76.7691  221.0695 H   0  0  0  0  0  0  0  0  0  0  0  0
  142.9937   81.6028  221.8728 H   0  0  0  0  0  0  0  0  0  0  0  0
  141.7447   79.2689  225.3091 H   0  0  0  0  0  0  0  0  0  0  0  0
  138.4862   72.3008  220.1604 H   0  0  0  0  0  0  0  0  0  0  0  0
  139.8847   73.4953  220.4430 H   0  0  0  0  0  0  0  0  0  0  0  0
  139.4810   73.1430  222.8490 H   0  0  0  0  0  0  0  0  0  0  0  0
  138.6766   68.6402  223.1997 H   0  0  0  0  0  0  0  0  0  0  0  0
  139.1976   67.8184  225.5004 H   0  0  0  0  0  0  0  0  0  0  0  0
  140.0945   68.2650  227.7852 H   0  0  0  0  0  0  0  0  0  0  0  0
  141.1032   69.8883  229.3526 H   0  0  0  0  0  0  0  0  0  0  0  0
  141.5734   72.2217  228.6732 H   0  0  0  0  0  0  0  0  0  0  0  0
  141.0085   72.9421  226.3388 H   0  0  0  0  0  0  0  0  0  0  0  0
  1  2  1  0
  2  3  1  0
  3  4  1  0
  4  5  2  0
  4  6  1  0
  6  7  1  0
  7  8  1  0
  8  9  1  0
  9 10  1  0
 10 11  1  0
 11 12  2  0
 12 13  1  0
 13 14  2  0
 14 15  1  0
 14 16  1  0
 16 17  2  0
  2 18  1  0
 18 19  2  0
 18 20  1  0
 20 21  1  0
 21 22  1  0
 22 23  2  0
 22 24  1  0
 24 25  2  0
 25 26  1  0
 26 27  2  0
 27 28  1  0
 28 29  2  0
 29 30  1  0
 30 31  2  0
 31 32  1  0
 32 33  2  0
 10  6  1  0
 17 11  1  0
 33 24  1  0
 32 27  1  0
  1 34  1  0
  1 35  1  0
  1 36  1  0
  3 37  1  0
  3 38  1  0
  7 39  1  0
  7 40  1  0
  8 41  1  0
  8 42  1  0
  9 43  1  0
  9 44  1  0
 10 45  1  6
 13 46  1  0
 16 47  1  0
 20 48  1  0
 20 49  1  0
 21 50  1  0
 25 51  1  0
 26 52  1  0
 28 53  1  0
 29 54  1  0
 30 55  1  0
 31 56  1  0
M  END
>  <smiles>  (1) 
CN(CC(=O)N1CCC[C@H]1c1ncc(F)cn1)C(=O)CNC(=O)c1ccc2ccccc2n1

>  <score_type>  (1) 
oracle

>  <origin>  (1) 
autodockgpu

>  <m_score__min__energy>  (1) 
-8.4700000000000006

>  <m_primary>  (1) 
energy

>  <rmsd>  (1) 
2.707150845822991

>  <m_score__min__rmsd>  (1) 
2.707150845822991

>  <meeko>  (1) 
{"free_energy": -7.56, "intermolecular_energy": -9.95, "internal_energy": -2.88, "cluster_size": 18, "cluster_id": 4, "rank_in_cluster": 17}

>  <energy>  (1) 
-8.47

>  <cluster_rmsd>  (1) 
0.0

>  <cluster>  (1) 
1

$$$$

     RDKit          3D

 56 59  0  0  0  0  0  0  0  0999 V2000
  145.3290   73.7090  220.2420 C   0  0  0  0  0  0  0  0  0  0  0  0
  143.9520   73.7800  219.8560 N   0  0  0  0  0  0  0  0  0  0  0  0
  143.6980   74.5780  218.6270 C   0  0  0  0  0  0  0  0  0  0  0  0
  143.5600   76.0040  219.0130 C   0  0  0  0  0  0  0  0  0  0  0  0
  144.0740   76.4000  220.0870 O   0  0  0  0  0  0  0  0  0  0  0  0
  142.8400   76.8540  218.1250 N   0  0  0  0  0  0  0  0  0  0  0  0
  142.5640   76.6590  216.7020 C   0  0  0  0  0  0  0  0  0  0  0  0
  142.0520   77.9840  216.2330 C   0  0  0  0  0  0  0  0  0  0  0  0
  142.3980   78.9760  217.3400 C   0  0  0  0  0  0  0  0  0  0  0  0
  142.2460   78.1130  218.5580 C   0  0  1  0  0  0  0  0  0  0  0  0
  140.8130   77.9570  218.8830 C   0  0  0  0  0  0  0  0  0  0  0  0
  140.2910   76.7210  218.8040 N   0  0  0  0  0  0  0  0  0  0  0  0
  138.9840   76.4740  219.0830 C   0  0  0  0  0  0  0  0  0  0  0  0
  138.2040   77.5510  219.4550 C   0  0  0  0  0  0  0  0  0  0  0  0
  136.9000   77.2960  219.7310 F   0  0  0  0  0  0  0  0  0  0  0  0
  138.7080   78.8400  219.5460 C   0  0  0  0  0  0  0  0  0  0  0  0
  140.0230   78.9990  219.2510 N   0  0  0  0  0  0  0  0  0  0  0  0
  142.8430   73.2090  220.4830 C   0  0  0  0  0  0  0  0  0  0  0  0
  143.0050   71.9710  220.8650 O   0  0  0  0  0  0  0  0  0  0  0  0
  141.5280   73.7470  220.7980 C   0  0  0  0  0  0  0  0  0  0  0  0
  141.4560   75.0820  221.2610 N   0  0  0  0  0  0  0  0  0  0  0  0
  140.2930   75.5920  221.9290 C   0  0  0  0  0  0  0  0  0  0  0  0
  139.2740   74.8570  222.1400 O   0  0  0  0  0  0  0  0  0  0  0  0
  140.3100   76.9920  222.3650 C   0  0  0  0  0  0  0  0  0  0  0  0
  139.1250   77.5960  222.7120 C   0  0  0  0  0  0  0  0  0  0  0  0
  139.1620   78.9300  223.1250 C   0  0  0  0  0  0  0  0  0  0  0  0
  140.3400   79.6340  223.1900 C   0  0  0  0  0  0  0  0  0  0  0  0
  140.4320   80.9450  223.5890 C   0  0  0  0  0  0  0  0  0  0  0  0
  141.6720   81.5610  223.6190 C   0  0  0  0  0  0  0  0  0  0  0  0
  142.8310   80.9010  223.2580 C   0  0  0  0  0  0  0  0  0  0  0  0
  142.7410   79.5800  222.8560 C   0  0  0  0  0  0  0  0  0  0  0  0
  141.4960   78.9760  222.8310 C   0  0  0  0  0  0  0  0  0  0  0  0
  141.4490   77.6980  222.4370 N   0  0  0  0  0  0  0  0  0  0  0  0
  145.4024   73.7052  221.3395 H   0  0  0  0  0  0  0  0  0  0  0  0
  145.7750   72.7867  219.8415 H   0  0  0  0  0  0  0  0  0  0  0  0
  145.8675   74.5806  219.8415 H   0  0  0  0  0  0  0  0  0  0  0  0
  144.5399   74.4623  217.9286 H   0  0  0  0  0  0  0  0  0  0  0  0
  142.7782   74.2297  218.1343 H   0  0  0  0  0  0  0  0  0  0  0  0
  143.4822   76.3841  216.1622 H   0  0  0  0  0  0  0  0  0  0  0  0
  141.8444   75.8464  216.5237 H   0  0  0  0  0  0  0  0  0  0  0  0
  142.5423   78.2733  215.2918 H   0  0  0  0  0  0  0  0  0  0  0  0
  140.9699   77.9550  216.0376 H   0  0  0  0  0  0  0  0  0  0  0  0
  143.4265   79.3524  217.2378 H   0  0  0  0  0  0  0  0  0  0  0  0
  141.7748   79.8824  217.3467 H   0  0  0  0  0  0  0  0  0  0  0  0
  142.7173   78.5158  219.4666 H   0  0  0  0  0  0  0  0  0  0  0  0
  138.5652   75.4591  219.0153 H   0  0  0  0  0  0  0  0  0  0  0  0
  138.0746   79.6893  219.8419 H   0  0  0  0  0  0  0  0  0  0  0  0
  140.9197   73.6834  219.8837 H   0  0  0  0  0  0  0  0  0  0  0  0
  141.1756   73.1402  221.6451 H   0  0  0  0  0  0  0  0  0  0  0  0
  142.2670   75.7270  221.1190 H   0  0  0  0  0  0  0  0  0  0  0  0
  138.1744   77.0445  222.6658 H   0  0  0  0  0  0  0  0  0  0  0  0
  138.2232   79.4299  223.4056 H   0  0  0  0  0  0  0  0  0  0  0  0
  139.5290   81.5006  223.8821 H   0  0  0  0  0  0  0  0  0  0  0  0
  141.7364   82.6108  223.9410 H   0  0  0  0  0  0  0  0  0  0  0  0
  143.8034   81.4142  223.2895 H   0  0  0  0  0  0  0  0  0  0  0  0
  143.6415   79.0208  222.5620 H   0  0  0  0  0  0  0  0  0  0  0  0
  1  2  1  0
  2  3  1  0
  3  4  1  0
  4  5  2  0
  4  6  1  0
  6  7  1  0
  7  8  1  0
  8  9  1  0
  9 10  1  0
 10 11  1  0
 11 12  2  0
 12 13  1  0
 13 14  2  0
 14 15  1  0
 14 16  1  0
 16 17  2  0
  2 18  1  0
 18 19  2  0
 18 20  1  0
 20 21  1  0
 21 22  1  0
 22 23  2  0
 22 24  1  0
 24 25  2  0
 25 26  1  0
 26 27  2  0
 27 28  1  0
 28 29  2  0
 29 30  1  0
 30 31  2  0
 31 32  1  0
 32 33  2  0
 10  6  1  0
 17 11  1  0
 33 24  1  0
 32 27  1  0
  1 34  1  0
  1 35  1  0
  1 36  1  0
  3 37  1  0
  3 38  1  0
  7 39  1  0
  7 40  1  0
  8 41  1  0
  8 42  1  0
  9 43  1  0
  9 44  1  0
 10 45  1  1
 13 46  1  0
 16 47  1  0
 20 48  1  0
 20 49  1  0
 21 50  1  0
 25 51  1  0
 26 52  1  0
 28 53  1  0
 29 54  1  0
 30 55  1  0
 31 56  1  0
M  END
>  <smiles>  (2) 
CN(CC(=O)N1CCC[C@H]1c1ncc(F)cn1)C(=O)CNC(=O)c1ccc2ccccc2n1

>  <score_type>  (2) 
oracle

>  <origin>  (2) 
autodockgpu

>  <m_score__min__energy>  (2) 
-8.4700000000000006

>  <m_primary>  (2) 
energy

>  <rmsd>  (2) 
7.475758359238403

>  <m_score__min__rmsd>  (2) 
7.475758359238403

>  <meeko>  (2) 
{"free_energy": -5.95, "intermolecular_energy": -8.33, "internal_energy": -4.41, "cluster_size": 8, "cluster_id": 5, "rank_in_cluster": 5}

>  <energy>  (2) 
-8.12

>  <cluster_rmsd>  (2) 
1.23

>  <cluster>  (2) 
1

$$$$

     RDKit          3D

 56 59  0  0  0  0  0  0  0  0999 V2000
  141.0240   74.5810  218.4930 C   0  0  0  0  0  0  0  0  0  0  0  0
  140.5280   74.0980  219.7460 N   0  0  0  0  0  0  0  0  0  0  0  0
  141.2880   74.5710  220.9330 C   0  0  0  0  0  0  0  0  0  0  0  0
  140.4630   75.5750  221.6500 C   0  0  0  0  0  0  0  0  0  0  0  0
  139.8940   75.2490  222.7190 O   0  0  0  0  0  0  0  0  0  0  0  0
  140.3660   76.8720  221.0700 N   0  0  0  0  0  0  0  0  0  0  0  0
  139.1660   77.5950  220.6500 C   0  0  0  0  0  0  0  0  0  0  0  0
  139.6810   78.7480  219.8480 C   0  0  0  0  0  0  0  0  0  0  0  0
  141.1430   78.4250  219.5510 C   0  0  0  0  0  0  0  0  0  0  0  0
  141.5380   77.7000  220.8050 C   0  0  1  0  0  0  0  0  0  0  0  0
  141.7740   78.6750  221.8910 C   0  0  0  0  0  0  0  0  0  0  0  0
  142.1940   79.9020  221.5410 N   0  0  0  0  0  0  0  0  0  0  0  0
  142.4390   80.8670  222.4650 C   0  0  0  0  0  0  0  0  0  0  0  0
  142.2380   80.5380  223.7910 C   0  0  0  0  0  0  0  0  0  0  0  0
  142.4850   81.5080  224.7070 F   0  0  0  0  0  0  0  0  0  0  0  0
  141.8050   79.2820  224.1880 C   0  0  0  0  0  0  0  0  0  0  0  0
  141.5830   78.3760  223.2020 N   0  0  0  0  0  0  0  0  0  0  0  0
  139.4450   73.2490  219.9830 C   0  0  0  0  0  0  0  0  0  0  0  0
  139.2790   72.3090  219.0920 O   0  0  0  0  0  0  0  0  0  0  0  0
  138.4610   73.2120  221.0540 C   0  0  0  0  0  0  0  0  0  0  0  0
  138.8470   72.6280  222.2830 N   0  0  0  0  0  0  0  0  0  0  0  0
  138.9230   71.2050  222.4560 C   0  0  0  0  0  0  0  0  0  0  0  0
  138.6510   70.4060  221.5020 O   0  0  0  0  0  0  0  0  0  0  0  0
  139.3250   70.6940  223.7710 C   0  0  0  0  0  0  0  0  0  0  0  0
  139.1000   69.3710  224.0680 C   0  0  0  0  0  0  0  0  0  0  0  0
  139.4900   68.9030  225.3250 C   0  0  0  0  0  0  0  0  0  0  0  0
  140.0830   69.7270  226.2510 C   0  0  0  0  0  0  0  0  0  0  0  0
  140.4850   69.3180  227.4990 C   0  0  0  0  0  0  0  0  0  0  0  0
  141.0750   70.2330  228.3570 C   0  0  0  0  0  0  0  0  0  0  0  0
  141.2740   71.5530  228.0010 C   0  0  0  0  0  0  0  0  0  0  0  0
  140.8700   71.9670  226.7440 C   0  0  0  0  0  0  0  0  0  0  0  0
  140.2830   71.0430  225.8970 C   0  0  0  0  0  0  0  0  0  0  0  0
  139.9060   71.4810  224.6900 N   0  0  0  0  0  0  0  0  0  0  0  0
  141.8014   75.3380  218.6736 H   0  0  0  0  0  0  0  0  0  0  0  0
  141.4525   73.7446  217.9213 H   0  0  0  0  0  0  0  0  0  0  0  0
  140.1993   75.0315  217.9213 H   0  0  0  0  0  0  0  0  0  0  0  0
  141.5018   73.7222  221.5992 H   0  0  0  0  0  0  0  0  0  0  0  0
  142.2400   75.0219  220.6162 H   0  0  0  0  0  0  0  0  0  0  0  0
  138.5205   76.9514  220.0343 H   0  0  0  0  0  0  0  0  0  0  0  0
  138.5552   77.9213  221.5047 H   0  0  0  0  0  0  0  0  0  0  0  0
  139.1125   78.8481  218.9116 H   0  0  0  0  0  0  0  0  0  0  0  0
  139.5778   79.6987  220.3917 H   0  0  0  0  0  0  0  0  0  0  0  0
  141.2423   77.7816  218.6643 H   0  0  0  0  0  0  0  0  0  0  0  0
  141.7634   79.3038  219.3213 H   0  0  0  0  0  0  0  0  0  0  0  0
  142.4643   77.1125  220.7223 H   0  0  0  0  0  0  0  0  0  0  0  0
  142.7832   81.8690  222.1693 H   0  0  0  0  0  0  0  0  0  0  0  0
  141.6493   79.0326  225.2480 H   0  0  0  0  0  0  0  0  0  0  0  0
  138.1639   74.2503  221.2629 H   0  0  0  0  0  0  0  0  0  0  0  0
  137.6623   72.5576  220.6746 H   0  0  0  0  0  0  0  0  0  0  0  0
  139.0850   73.2390  223.0980 H   0  0  0  0  0  0  0  0  0  0  0  0
  138.6263   68.6998  223.3365 H   0  0  0  0  0  0  0  0  0  0  0  0
  139.3179   67.8470  225.5803 H   0  0  0  0  0  0  0  0  0  0  0  0
  140.3402   68.2743  227.8146 H   0  0  0  0  0  0  0  0  0  0  0  0
  141.3953   69.8970  229.3542 H   0  0  0  0  0  0  0  0  0  0  0  0
  141.7433   72.2594  228.7015 H   0  0  0  0  0  0  0  0  0  0  0  0
  141.0125   73.0098  226.4242 H   0  0  0  0  0  0  0  0  0  0  0  0
  1  2  1  0
  2  3  1  0
  3  4  1  0
  4  5  2  0
  4  6  1  0
  6  7  1  0
  7  8  1  0
  8  9  1  0
  9 10  1  0
 10 11  1  0
 11 12  2  0
 12 13  1  0
 13 14  2  0
 14 15  1  0
 14 16  1  0
 16 17  2  0
  2 18  1  0
 18 19  2  0
 18 20  1  0
 20 21  1  0
 21 22  1  0
 22 23  2  0
 22 24  1  0
 24 25  2  0
 25 26  1  0
 26 27  2  0
 27 28  1  0
 28 29  2  0
 29 30  1  0
 30 31  2  0
 31 32  1  0
 32 33  2  0
 10  6  1  0
 17 11  1  0
 33 24  1  0
 32 27  1  0
  1 34  1  0
  1 35  1  0
  1 36  1  0
  3 37  1  0
  3 38  1  0
  7 39  1  0
  7 40  1  0
  8 41  1  0
  8 42  1  0
  9 43  1  0
  9 44  1  0
 10 45  1  6
 13 46  1  0
 16 47  1  0
 20 48  1  0
 20 49  1  0
 21 50  1  0
 25 51  1  0
 26 52  1  0
 28 53  1  0
 29 54  1  0
 30 55  1  0
 31 56  1  0
M  END
>  <smiles>  (3) 
CN(CC(=O)N1CCC[C@H]1c1ncc(F)cn1)C(=O)CNC(=O)c1ccc2ccccc2n1

>  <score_type>  (3) 
oracle

>  <origin>  (3) 
autodockgpu

>  <m_score__min__energy>  (3) 
-8.4700000000000006

>  <m_primary>  (3) 
energy

>  <rmsd>  (3) 
2.2863136396819543

>  <m_score__min__rmsd>  (3) 
2.2863136396819543

>  <meeko>  (3) 
{"free_energy": -7.63, "intermolecular_energy": -10.02, "internal_energy": -2.88, "cluster_size": 18, "cluster_id": 4, "rank_in_cluster": 15}

>  <energy>  (3) 
-8.12

>  <cluster_rmsd>  (3) 
1.26

>  <cluster>  (3) 
1

$$$$

     RDKit          3D

 56 59  0  0  0  0  0  0  0  0999 V2000
  138.1720   77.4760  219.8460 C   0  0  0  0  0  0  0  0  0  0  0  0
  139.0290   76.5000  220.4490 N   0  0  0  0  0  0  0  0  0  0  0  0
  140.4820   76.7710  220.2840 C   0  0  0  0  0  0  0  0  0  0  0  0
  141.0710   77.0110  221.6250 C   0  0  0  0  0  0  0  0  0  0  0  0
  141.4080   76.0290  222.3300 O   0  0  0  0  0  0  0  0  0  0  0  0
  141.2200   78.3660  222.0380 N   0  0  0  0  0  0  0  0  0  0  0  0
  141.6530   79.5160  221.2470 C   0  0  0  0  0  0  0  0  0  0  0  0
  141.9120   80.5910  222.2560 C   0  0  0  0  0  0  0  0  0  0  0  0
  141.9540   79.8860  223.6090 C   0  0  0  0  0  0  0  0  0  0  0  0
  140.9370   78.8030  223.4010 C   0  0  1  0  0  0  0  0  0  0  0  0
  139.5760   79.3670  223.5210 C   0  0  0  0  0  0  0  0  0  0  0  0
  139.4390   80.5110  224.2130 N   0  0  0  0  0  0  0  0  0  0  0  0
  138.2300   81.1080  224.3800 C   0  0  0  0  0  0  0  0  0  0  0  0
  137.1350   80.4900  223.8070 C   0  0  0  0  0  0  0  0  0  0  0  0
  135.9320   81.0930  223.9790 F   0  0  0  0  0  0  0  0  0  0  0  0
  137.2400   79.3090  223.0870 C   0  0  0  0  0  0  0  0  0  0  0  0
  138.4840   78.7790  222.9670 N   0  0  0  0  0  0  0  0  0  0  0  0
  138.6740   75.3460  221.1510 C   0  0  0  0  0  0  0  0  0  0  0  0
  137.7560   75.5190  222.0620 O   0  0  0  0  0  0  0  0  0  0  0  0
  139.1380   73.9710  221.0480 C   0  0  0  0  0  0  0  0  0  0  0  0
  139.1980   73.2060  222.2370 N   0  0  0  0  0  0  0  0  0  0  0  0
  140.0660   72.0700  222.3650 C   0  0  0  0  0  0  0  0  0  0  0  0
  140.8270   71.7060  221.4100 O   0  0  0  0  0  0  0  0  0  0  0  0
  140.0520   71.3350  223.6340 C   0  0  0  0  0  0  0  0  0  0  0  0
  139.5490   70.0560  223.6580 C   0  0  0  0  0  0  0  0  0  0  0  0
  139.5450   69.3730  224.8760 C   0  0  0  0  0  0  0  0  0  0  0  0
  140.0260   69.9460  226.0280 C   0  0  0  0  0  0  0  0  0  0  0  0
  140.0460   69.3190  227.2500 C   0  0  0  0  0  0  0  0  0  0  0  0
  140.5550   69.9890  228.3500 C   0  0  0  0  0  0  0  0  0  0  0  0
  141.0480   71.2770  228.2650 C   0  0  0  0  0  0  0  0  0  0  0  0
  141.0290   71.9110  227.0340 C   0  0  0  0  0  0  0  0  0  0  0  0
  140.5190   71.2300  225.9430 C   0  0  0  0  0  0  0  0  0  0  0  0
  140.5180   71.8760  224.7710 N   0  0  0  0  0  0  0  0  0  0  0  0
  137.6644   78.0541  220.6323 H   0  0  0  0  0  0  0  0  0  0  0  0
  138.7715   78.1544  219.2213 H   0  0  0  0  0  0  0  0  0  0  0  0
  137.4217   76.9692  219.2213 H   0  0  0  0  0  0  0  0  0  0  0  0
  140.9701   75.9045  219.8139 H   0  0  0  0  0  0  0  0  0  0  0  0
  140.6308   77.6528  219.6434 H   0  0  0  0  0  0  0  0  0  0  0  0
  142.5699   79.2795  220.6873 H   0  0  0  0  0  0  0  0  0  0  0  0
  140.9026   79.8158  220.5007 H   0  0  0  0  0  0  0  0  0  0  0  0
  142.8729   81.0857  222.0513 H   0  0  0  0  0  0  0  0  0  0  0  0
  141.1357   81.3698  222.2279 H   0  0  0  0  0  0  0  0  0  0  0  0
  142.9507   79.4694  223.8164 H   0  0  0  0  0  0  0  0  0  0  0  0
  141.7480   80.5417  224.4678 H   0  0  0  0  0  0  0  0  0  0  0  0
  140.9869   77.9815  224.1309 H   0  0  0  0  0  0  0  0  0  0  0  0
  138.1271   82.0445  224.9478 H   0  0  0  0  0  0  0  0  0  0  0  0
  136.3602   78.8266  222.6363 H   0  0  0  0  0  0  0  0  0  0  0  0
  138.4633   73.4477  220.3544 H   0  0  0  0  0  0  0  0  0  0  0  0
  140.1841   74.0547  220.7183 H   0  0  0  0  0  0  0  0  0  0  0  0
  138.5980   73.4640  223.0530 H   0  0  0  0  0  0  0  0  0  0  0  0
  139.1606   69.5838  222.7436 H   0  0  0  0  0  0  0  0  0  0  0  0
  139.1459   68.3486  224.9139 H   0  0  0  0  0  0  0  0  0  0  0  0
  139.6611   68.2938  227.3540 H   0  0  0  0  0  0  0  0  0  0  0  0
  140.5672   69.4785  229.3243 H   0  0  0  0  0  0  0  0  0  0  0  0
  141.4463   71.7869  229.1545 H   0  0  0  0  0  0  0  0  0  0  0  0
  141.4121   72.9364  226.9257 H   0  0  0  0  0  0  0  0  0  0  0  0
  1  2  1  0
  2  3  1  0
  3  4  1  0
  4  5  2  0
  4  6  1  0
  6  7  1  0
  7  8  1  0
  8  9  1  0
  9 10  1  0
 10 11  1  0
 11 12  2  0
 12 13  1  0
 13 14  2  0
 14 15  1  0
 14 16  1  0
 16 17  2  0
  2 18  1  0
 18 19  2  0
 18 20  1  0
 20 21  1  0
 21 22  1  0
 22 23  2  0
 22 24  1  0
 24 25  2  0
 25 26  1  0
 26 27  2  0
 27 28  1  0
 28 29  2  0
 29 30  1  0
 30 31  2  0
 31 32  1  0
 32 33  2  0
 10  6  1  0
 17 11  1  0
 33 24  1  0
 32 27  1  0
  1 34  1  0
  1 35  1  0
  1 36  1  0
  3 37  1  0
  3 38  1  0
  7 39  1  0
  7 40  1  0
  8 41  1  0
  8 42  1  0
  9 43  1  0
  9 44  1  0
 10 45  1  1
 13 46  1  0
 16 47  1  0
 20 48  1  0
 20 49  1  0
 21 50  1  0
 25 51  1  0
 26 52  1  0
 28 53  1  0
 29 54  1  0
 30 55  1  0
 31 56  1  0
M  END
>  <smiles>  (4) 
CN(CC(=O)N1CCC[C@H]1c1ncc(F)cn1)C(=O)CNC(=O)c1ccc2ccccc2n1

>  <score_type>  (4) 
oracle

>  <origin>  (4) 
autodockgpu

>  <m_score__min__energy>  (4) 
-8.4700000000000006

>  <m_primary>  (4) 
energy

>  <rmsd>  (4) 
1.964594191767503

>  <m_score__min__rmsd>  (4) 
1.964594191767503

>  <meeko>  (4) 
{"free_energy": -8.06, "intermolecular_energy": -10.45, "internal_energy": -2.5, "cluster_size": 9, "cluster_id": 1, "rank_in_cluster": 4}

>  <energy>  (4) 
-8.06

>  <cluster_rmsd>  (4) 
1.16

>  <cluster>  (4) 
1

$$$$

     RDKit          3D

 56 59  0  0  0  0  0  0  0  0999 V2000
  143.6970   76.0750  219.6920 C   0  0  0  0  0  0  0  0  0  0  0  0
  142.5310   75.3280  220.0540 N   0  0  0  0  0  0  0  0  0  0  0  0
  141.2580   76.0920  219.9670 C   0  0  0  0  0  0  0  0  0  0  0  0
  140.8840   76.5390  221.3320 C   0  0  0  0  0  0  0  0  0  0  0  0
  140.3300   75.7270  222.1110 O   0  0  0  0  0  0  0  0  0  0  0  0
  141.1820   77.8870  221.6810 N   0  0  0  0  0  0  0  0  0  0  0  0
  141.6010   78.9830  220.8080 C   0  0  0  0  0  0  0  0  0  0  0  0
  142.0600   80.0570  221.7430 C   0  0  0  0  0  0  0  0  0  0  0  0
  142.2120   79.3820  223.1030 C   0  0  0  0  0  0  0  0  0  0  0  0
  141.0990   78.3760  223.0530 C   0  0  1  0  0  0  0  0  0  0  0  0
  139.8090   79.0470  223.3160 C   0  0  0  0  0  0  0  0  0  0  0  0
  138.6960   78.4480  222.8610 N   0  0  0  0  0  0  0  0  0  0  0  0
  137.4620   78.9840  223.0520 C   0  0  0  0  0  0  0  0  0  0  0  0
  137.3930   80.1800  223.7390 C   0  0  0  0  0  0  0  0  0  0  0  0
  136.1570   80.7100  223.9250 F   0  0  0  0  0  0  0  0  0  0  0  0
  138.5210   80.8270  224.2220 C   0  0  0  0  0  0  0  0  0  0  0  0
  139.7140   80.2230  223.9890 N   0  0  0  0  0  0  0  0  0  0  0  0
  142.4460   74.0000  220.4780 C   0  0  0  0  0  0  0  0  0  0  0  0
  143.5880   73.4500  220.7910 O   0  0  0  0  0  0  0  0  0  0  0  0
  141.3080   73.1090  220.6440 C   0  0  0  0  0  0  0  0  0  0  0  0
  141.1330   72.4910  221.9050 N   0  0  0  0  0  0  0  0  0  0  0  0
  140.0540   71.5800  222.1600 C   0  0  0  0  0  0  0  0  0  0  0  0
  139.2090   71.2820  221.2540 O   0  0  0  0  0  0  0  0  0  0  0  0
  139.9510   70.9960  223.5010 C   0  0  0  0  0  0  0  0  0  0  0  0
  139.2470   69.8280  223.6670 C   0  0  0  0  0  0  0  0  0  0  0  0
  139.1600   69.2880  224.9530 C   0  0  0  0  0  0  0  0  0  0  0  0
  139.7560   69.8940  226.0330 C   0  0  0  0  0  0  0  0  0  0  0  0
  139.7010   69.4050  227.3160 C   0  0  0  0  0  0  0  0  0  0  0  0
  140.3380   70.0960  228.3330 C   0  0  0  0  0  0  0  0  0  0  0  0
  141.0320   71.2690  228.1050 C   0  0  0  0  0  0  0  0  0  0  0  0
  141.0880   71.7630  226.8130 C   0  0  0  0  0  0  0  0  0  0  0  0
  140.4480   71.0630  225.8050 C   0  0  0  0  0  0  0  0  0  0  0  0
  140.5250   71.5710  224.5700 N   0  0  0  0  0  0  0  0  0  0  0  0
  144.2166   76.4079  220.6026 H   0  0  0  0  0  0  0  0  0  0  0  0
  144.3698   75.4394  219.0976 H   0  0  0  0  0  0  0  0  0  0  0  0
  143.4008   76.9519  219.0976 H   0  0  0  0  0  0  0  0  0  0  0  0
  141.3939   76.9668  219.3141 H   0  0  0  0  0  0  0  0  0  0  0  0
  140.4643   75.4563  219.5474 H   0  0  0  0  0  0  0  0  0  0  0  0
  142.4230   78.6632  220.1507 H   0  0  0  0  0  0  0  0  0  0  0  0
  140.7896   79.3237  220.1480 H   0  0  0  0  0  0  0  0  0  0  0  0
  143.0236   80.4698  221.4097 H   0  0  0  0  0  0  0  0  0  0  0  0
  141.3470   80.8937  221.7821 H   0  0  0  0  0  0  0  0  0  0  0  0
  143.1927   78.8940  223.2038 H   0  0  0  0  0  0  0  0  0  0  0  0
  142.1602   80.0716  223.9584 H   0  0  0  0  0  0  0  0  0  0  0  0
  141.1752   77.5700  223.7977 H   0  0  0  0  0  0  0  0  0  0  0  0
  136.5563   78.4863  222.6753 H   0  0  0  0  0  0  0  0  0  0  0  0
  138.4522   81.7806  224.7659 H   0  0  0  0  0  0  0  0  0  0  0  0
  140.4000   73.6942  220.4364 H   0  0  0  0  0  0  0  0  0  0  0  0
  141.5043   72.2767  219.9521 H   0  0  0  0  0  0  0  0  0  0  0  0
  141.8010   72.6970  222.6820 H   0  0  0  0  0  0  0  0  0  0  0  0
  138.7653   69.3318  222.8116 H   0  0  0  0  0  0  0  0  0  0  0  0
  138.5999   68.3535  225.1048 H   0  0  0  0  0  0  0  0  0  0  0  0
  139.1565   68.4741  227.5330 H   0  0  0  0  0  0  0  0  0  0  0  0
  140.2899   69.6976  229.3572 H   0  0  0  0  0  0  0  0  0  0  0  0
  141.5288   71.7983  228.9315 H   0  0  0  0  0  0  0  0  0  0  0  0
  141.6307   72.6939  226.5918 H   0  0  0  0  0  0  0  0  0  0  0  0
  1  2  1  0
  2  3  1  0
  3  4  1  0
  4  5  2  0
  4  6  1  0
  6  7  1  0
  7  8  1  0
  8  9  1  0
  9 10  1  0
 10 11  1  0
 11 12  2  0
 12 13  1  0
 13 14  2  0
 14 15  1  0
 14 16  1  0
 16 17  2  0
  2 18  1  0
 18 19  2  0
 18 20  1  0
 20 21  1  0
 21 22  1  0
 22 23  2  0
 22 24  1  0
 24 25  2  0
 25 26  1  0
 26 27  2  0
 27 28  1  0
 28 29  2  0
 29 30  1  0
 30 31  2  0
 31 32  1  0
 32 33  2  0
 10  6  1  0
 17 11  1  0
 33 24  1  0
 32 27  1  0
  1 34  1  0
  1 35  1  0
  1 36  1  0
  3 37  1  0
  3 38  1  0
  7 39  1  0
  7 40  1  0
  8 41  1  0
  8 42  1  0
  9 43  1  0
  9 44  1  0
 10 45  1  1
 13 46  1  0
 16 47  1  0
 20 48  1  0
 20 49  1  0
 21 50  1  0
 25 51  1  0
 26 52  1  0
 28 53  1  0
 29 54  1  0
 30 55  1  0
 31 56  1  0
M  END
>  <smiles>  (5) 
CN(CC(=O)N1CCC[C@H]1c1ncc(F)cn1)C(=O)CNC(=O)c1ccc2ccccc2n1

>  <score_type>  (5) 
oracle

>  <origin>  (5) 
autodockgpu

>  <m_score__min__energy>  (5) 
-8.4700000000000006

>  <m_primary>  (5) 
energy

>  <rmsd>  (5) 
2.5183859853821926

>  <m_score__min__rmsd>  (5) 
2.5183859853821926

>  <meeko>  (5) 
{"free_energy": -8.02, "intermolecular_energy": -10.41, "internal_energy": -2.23, "cluster_size": 9, "cluster_id": 1, "rank_in_cluster": 5}

>  <energy>  (5) 
-8.02

>  <cluster_rmsd>  (5) 
1.33

>  <cluster>  (5) 
1

$$$$

     RDKit          3D

 56 59  0  0  0  0  0  0  0  0999 V2000
  142.0650   73.7810  219.2420 C   0  0  0  0  0  0  0  0  0  0  0  0
  140.9890   73.9190  220.1760 N   0  0  0  0  0  0  0  0  0  0  0  0
  141.3760   74.5370  221.4730 C   0  0  0  0  0  0  0  0  0  0  0  0
  140.4080   75.6180  221.7860 C   0  0  0  0  0  0  0  0  0  0  0  0
  139.5770   75.4460  222.7100 O   0  0  0  0  0  0  0  0  0  0  0  0
  140.4820   76.8050  221.0030 N   0  0  0  0  0  0  0  0  0  0  0  0
  139.4070   77.4970  220.2930 C   0  0  0  0  0  0  0  0  0  0  0  0
  140.1090   78.4820  219.4130 C   0  0  0  0  0  0  0  0  0  0  0  0
  141.5750   78.0570  219.4040 C   0  0  0  0  0  0  0  0  0  0  0  0
  141.7310   77.5310  220.8010 C   0  0  1  0  0  0  0  0  0  0  0  0
  141.8660   78.6600  221.7460 C   0  0  0  0  0  0  0  0  0  0  0  0
  141.6370   78.4090  223.0460 N   0  0  0  0  0  0  0  0  0  0  0  0
  141.7360   79.3790  223.9920 C   0  0  0  0  0  0  0  0  0  0  0  0
  142.0840   80.6450  223.5650 C   0  0  0  0  0  0  0  0  0  0  0  0
  142.1790   81.6080  224.5170 F   0  0  0  0  0  0  0  0  0  0  0  0
  142.3270   80.9400  222.2320 C   0  0  0  0  0  0  0  0  0  0  0  0
  142.2070   79.9140  221.3510 N   0  0  0  0  0  0  0  0  0  0  0  0
  139.6530   73.5460  220.0240 C   0  0  0  0  0  0  0  0  0  0  0  0
  139.2400   73.4710  218.7880 O   0  0  0  0  0  0  0  0  0  0  0  0
  138.6240   73.2160  221.0000 C   0  0  0  0  0  0  0  0  0  0  0  0
  139.0450   72.7500  222.2680 N   0  0  0  0  0  0  0  0  0  0  0  0
  139.5290   71.4130  222.4640 C   0  0  0  0  0  0  0  0  0  0  0  0
  139.6070   70.5880  221.4960 O   0  0  0  0  0  0  0  0  0  0  0  0
  139.9340   71.0210  223.8170 C   0  0  0  0  0  0  0  0  0  0  0  0
  140.6980   71.8870  224.5620 C   0  0  0  0  0  0  0  0  0  0  0  0
  141.0740   71.4950  225.8490 C   0  0  0  0  0  0  0  0  0  0  0  0
  140.6990   70.2810  226.3720 C   0  0  0  0  0  0  0  0  0  0  0  0
  141.0400   69.8470  227.6300 C   0  0  0  0  0  0  0  0  0  0  0  0
  140.6080   68.6030  228.0610 C   0  0  0  0  0  0  0  0  0  0  0  0
  139.8410   67.7740  227.2650 C   0  0  0  0  0  0  0  0  0  0  0  0
  139.4950   68.2100  225.9970 C   0  0  0  0  0  0  0  0  0  0  0  0
  139.9330   69.4550  225.5800 C   0  0  0  0  0  0  0  0  0  0  0  0
  139.5780   69.8400  224.3480 N   0  0  0  0  0  0  0  0  0  0  0  0
  143.0118   73.6596  219.7887 H   0  0  0  0  0  0  0  0  0  0  0  0
  141.8908   72.8978  218.6098 H   0  0  0  0  0  0  0  0  0  0  0  0
  142.1193   74.6795  218.6098 H   0  0  0  0  0  0  0  0  0  0  0  0
  141.3534   73.7769  222.2678 H   0  0  0  0  0  0  0  0  0  0  0  0
  142.3935   74.9495  221.4057 H   0  0  0  0  0  0  0  0  0  0  0  0
  138.8199   76.7879  219.6910 H   0  0  0  0  0  0  0  0  0  0  0  0
  138.6982   77.9824  220.9800 H   0  0  0  0  0  0  0  0  0  0  0  0
  139.6943   78.4501  218.3947 H   0  0  0  0  0  0  0  0  0  0  0  0
  139.9873   79.5121  219.7791 H   0  0  0  0  0  0  0  0  0  0  0  0
  141.7638   77.2743  218.6545 H   0  0  0  0  0  0  0  0  0  0  0  0
  142.2780   78.8614  219.1419 H   0  0  0  0  0  0  0  0  0  0  0  0
  142.6190   76.9010  220.9575 H   0  0  0  0  0  0  0  0  0  0  0  0
  141.5467   79.1646  225.0542 H   0  0  0  0  0  0  0  0  0  0  0  0
  142.6029   81.9534  221.9051 H   0  0  0  0  0  0  0  0  0  0  0  0
  138.0254   74.1238  221.1658 H   0  0  0  0  0  0  0  0  0  0  0  0
  138.0832   72.3666  220.5573 H   0  0  0  0  0  0  0  0  0  0  0  0
  139.0060   73.3880  223.0950 H   0  0  0  0  0  0  0  0  0  0  0  0
  141.0050   72.8621  224.1560 H   0  0  0  0  0  0  0  0  0  0  0  0
  141.6859   72.1756  226.4593 H   0  0  0  0  0  0  0  0  0  0  0  0
  141.6506   70.4814  228.2893 H   0  0  0  0  0  0  0  0  0  0  0  0
  140.8848   68.2642  229.0702 H   0  0  0  0  0  0  0  0  0  0  0  0
  139.5126   66.7898  227.6303 H   0  0  0  0  0  0  0  0  0  0  0  0
  138.8841   67.5794  225.3343 H   0  0  0  0  0  0  0  0  0  0  0  0
  1  2  1  0
  2  3  1  0
  3  4  1  0
  4  5  2  0
  4  6  1  0
  6  7  1  0
  7  8  1  0
  8  9  1  0
  9 10  1  0
 10 11  1  0
 11 12  2  0
 12 13  1  0
 13 14  2  0
 14 15  1  0
 14 16  1  0
 16 17  2  0
  2 18  1  0
 18 19  2  0
 18 20  1  0
 20 21  1  0
 21 22  1  0
 22 23  2  0
 22 24  1  0
 24 25  2  0
 25 26  1  0
 26 27  2  0
 27 28  1  0
 28 29  2  0
 29 30  1  0
 30 31  2  0
 31 32  1  0
 32 33  2  0
 10  6  1  0
 17 11  1  0
 33 24  1  0
 32 27  1  0
  1 34  1  0
  1 35  1  0
  1 36  1  0
  3 37  1  0
  3 38  1  0
  7 39  1  0
  7 40  1  0
  8 41  1  0
  8 42  1  0
  9 43  1  0
  9 44  1  0
 10 45  1  6
 13 46  1  0
 16 47  1  0
 20 48  1  0
 20 49  1  0
 21 50  1  0
 25 51  1  0
 26 52  1  0
 28 53  1  0
 29 54  1  0
 30 55  1  0
 31 56  1  0
M  END
>  <smiles>  (6) 
CN(CC(=O)N1CCC[C@H]1c1ncc(F)cn1)C(=O)CNC(=O)c1ccc2ccccc2n1

>  <score_type>  (6) 
oracle

>  <origin>  (6) 
autodockgpu

>  <m_score__min__energy>  (6) 
-8.4700000000000006

>  <m_primary>  (6) 
energy

>  <rmsd>  (6) 
3.1478628556252843

>  <m_score__min__rmsd>  (6) 
3.1478628556252843

>  <meeko>  (6) 
{"free_energy": -7.69, "intermolecular_energy": -10.07, "internal_energy": -2.74, "cluster_size": 18, "cluster_id": 4, "rank_in_cluster": 10}

>  <energy>  (6) 
-7.77

>  <cluster_rmsd>  (6) 
1.09

>  <cluster>  (6) 
1

$$$$

     RDKit          3D

 56 59  0  0  0  0  0  0  0  0999 V2000
  139.3860   71.7890  222.3570 C   0  0  0  0  0  0  0  0  0  0  0  0
  139.6190   72.8560  221.4310 N   0  0  0  0  0  0  0  0  0  0  0  0
  141.0560   73.1460  221.1760 C   0  0  0  0  0  0  0  0  0  0  0  0
  141.2510   74.6170  221.2040 C   0  0  0  0  0  0  0  0  0  0  0  0
  141.0490   75.2410  222.2740 O   0  0  0  0  0  0  0  0  0  0  0  0
  141.6640   75.2430  219.9930 N   0  0  0  0  0  0  0  0  0  0  0  0
  141.3980   74.8270  218.6170 C   0  0  0  0  0  0  0  0  0  0  0  0
  142.3160   75.6670  217.7850 C   0  0  0  0  0  0  0  0  0  0  0  0
  143.3190   76.2730  218.7620 C   0  0  0  0  0  0  0  0  0  0  0  0
  142.4590   76.4650  219.9770 C   0  0  1  0  0  0  0  0  0  0  0  0
  141.6130   77.6650  219.8040 C   0  0  0  0  0  0  0  0  0  0  0  0
  140.2830   77.4810  219.7450 N   0  0  0  0  0  0  0  0  0  0  0  0
  139.4220   78.5200  219.5880 C   0  0  0  0  0  0  0  0  0  0  0  0
  139.9670   79.7840  219.4900 C   0  0  0  0  0  0  0  0  0  0  0  0
  139.1000   80.8160  219.3330 F   0  0  0  0  0  0  0  0  0  0  0  0
  141.3340   80.0110  219.5460 C   0  0  0  0  0  0  0  0  0  0  0  0
  142.1250   78.9190  219.7050 N   0  0  0  0  0  0  0  0  0  0  0  0
  138.6840   73.6460  220.7600 C   0  0  0  0  0  0  0  0  0  0  0  0
  138.4480   73.2900  219.5270 O   0  0  0  0  0  0  0  0  0  0  0  0
  137.9090   74.8010  221.1880 C   0  0  0  0  0  0  0  0  0  0  0  0
  138.6180   75.9630  221.5750 N   0  0  0  0  0  0  0  0  0  0  0  0
  138.0850   76.8970  222.5250 C   0  0  0  0  0  0  0  0  0  0  0  0
  136.9470   76.7120  223.0680 O   0  0  0  0  0  0  0  0  0  0  0  0
  138.8900   78.0760  222.8560 C   0  0  0  0  0  0  0  0  0  0  0  0
  138.2610   79.1980  223.3390 C   0  0  0  0  0  0  0  0  0  0  0  0
  139.0460   80.3120  223.6490 C   0  0  0  0  0  0  0  0  0  0  0  0
  140.4110   80.3030  223.4830 C   0  0  0  0  0  0  0  0  0  0  0  0
  141.2280   81.3690  223.7720 C   0  0  0  0  0  0  0  0  0  0  0  0
  142.5930   81.2530  223.5670 C   0  0  0  0  0  0  0  0  0  0  0  0
  143.1690   80.0970  223.0770 C   0  0  0  0  0  0  0  0  0  0  0  0
  142.3470   79.0220  222.7860 C   0  0  0  0  0  0  0  0  0  0  0  0
  140.9850   79.1500  222.9960 C   0  0  0  0  0  0  0  0  0  0  0  0
  140.2240   78.0890  222.7020 N   0  0  0  0  0  0  0  0  0  0  0  0
  139.4694   72.1710  223.3851 H   0  0  0  0  0  0  0  0  0  0  0  0
  138.3773   71.3798  222.1986 H   0  0  0  0  0  0  0  0  0  0  0  0
  140.1323   70.9965  222.1986 H   0  0  0  0  0  0  0  0  0  0  0  0
  141.6736   72.6748  221.9548 H   0  0  0  0  0  0  0  0  0  0  0  0
  141.3537   72.7446  220.1960 H   0  0  0  0  0  0  0  0  0  0  0  0
  141.6221   73.7583  218.4841 H   0  0  0  0  0  0  0  0  0  0  0  0
  140.3424   74.9599  218.3374 H   0  0  0  0  0  0  0  0  0  0  0  0
  142.8340   75.0460  217.0393 H   0  0  0  0  0  0  0  0  0  0  0  0
  141.7670   76.4437  217.2325 H   0  0  0  0  0  0  0  0  0  0  0  0
  144.1532   75.5847  218.9627 H   0  0  0  0  0  0  0  0  0  0  0  0
  143.8037   77.1921  218.4009 H   0  0  0  0  0  0  0  0  0  0  0  0
  143.0155   76.6228  220.9127 H   0  0  0  0  0  0  0  0  0  0  0  0
  138.3347   78.3602  219.5409 H   0  0  0  0  0  0  0  0  0  0  0  0
  141.7557   81.0238  219.4657 H   0  0  0  0  0  0  0  0  0  0  0  0
  137.2494   75.0814  220.3535 H   0  0  0  0  0  0  0  0  0  0  0  0
  137.3988   74.4690  222.1042 H   0  0  0  0  0  0  0  0  0  0  0  0
  139.5590   76.1600  221.1630 H   0  0  0  0  0  0  0  0  0  0  0  0
  137.1700   79.2189  223.4778 H   0  0  0  0  0  0  0  0  0  0  0  0
  138.5593   81.2195  224.0358 H   0  0  0  0  0  0  0  0  0  0  0  0
  140.8025   82.3053  224.1623 H   0  0  0  0  0  0  0  0  0  0  0  0
  143.2404   82.1106  223.8024 H   0  0  0  0  0  0  0  0  0  0  0  0
  144.2560   80.0322  222.9216 H   0  0  0  0  0  0  0  0  0  0  0  0
  142.7682   78.0839  222.3953 H   0  0  0  0  0  0  0  0  0  0  0  0
  1  2  1  0
  2  3  1  0
  3  4  1  0
  4  5  2  0
  4  6  1  0
  6  7  1  0
  7  8  1  0
  8  9  1  0
  9 10  1  0
 10 11  1  0
 11 12  2  0
 12 13  1  0
 13 14  2  0
 14 15  1  0
 14 16  1  0
 16 17  2  0
  2 18  1  0
 18 19  2  0
 18 20  1  0
 20 21  1  0
 21 22  1  0
 22 23  2  0
 22 24  1  0
 24 25  2  0
 25 26  1  0
 26 27  2  0
 27 28  1  0
 28 29  2  0
 29 30  1  0
 30 31  2  0
 31 32  1  0
 32 33  2  0
 10  6  1  0
 17 11  1  0
 33 24  1  0
 32 27  1  0
  1 34  1  0
  1 35  1  0
  1 36  1  0
  3 37  1  0
  3 38  1  0
  7 39  1  0
  7 40  1  0
  8 41  1  0
  8 42  1  0
  9 43  1  0
  9 44  1  0
 10 45  1  1
 13 46  1  0
 16 47  1  0
 20 48  1  0
 20 49  1  0
 21 50  1  0
 25 51  1  0
 26 52  1  0
 28 53  1  0
 29 54  1  0
 30 55  1  0
 31 56  1  0
M  END
>  <smiles>  (7) 
CN(CC(=O)N1CCC[C@H]1c1ncc(F)cn1)C(=O)CNC(=O)c1ccc2ccccc2n1

>  <score_type>  (7) 
oracle

>  <origin>  (7) 
autodockgpu

>  <m_score__min__energy>  (7) 
-8.4700000000000006

>  <m_primary>  (7) 
energy

>  <rmsd>  (7) 
7.630746955606453

>  <m_score__min__rmsd>  (7) 
7.630746955606453

>  <meeko>  (7) 
{"free_energy": -5.09, "intermolecular_energy": -7.47, "internal_energy": -5.19, "cluster_size": 8, "cluster_id": 5, "rank_in_cluster": 8}

>  <energy>  (7) 
-7.76

>  <cluster_rmsd>  (7) 
1.33

>  <cluster>  (7) 
1

$$$$

     RDKit          3D

 56 59  0  0  0  0  0  0  0  0999 V2000
  144.0900   72.4240  218.7070 C   0  0  0  0  0  0  0  0  0  0  0  0
  143.1230   73.4740  218.8160 N   0  0  0  0  0  0  0  0  0  0  0  0
  143.4600   74.7020  218.0480 C   0  0  0  0  0  0  0  0  0  0  0  0
  143.4740   75.8530  218.9850 C   0  0  0  0  0  0  0  0  0  0  0  0
  144.0540   75.7350  220.0910 O   0  0  0  0  0  0  0  0  0  0  0  0
  142.8160   77.0440  218.5640 N   0  0  0  0  0  0  0  0  0  0  0  0
  142.8570   77.6930  217.2550 C   0  0  0  0  0  0  0  0  0  0  0  0
  142.2430   79.0390  217.4810 C   0  0  0  0  0  0  0  0  0  0  0  0
  142.2050   79.2250  218.9950 C   0  0  0  0  0  0  0  0  0  0  0  0
  141.9570   77.8180  219.4530 C   0  0  1  0  0  0  0  0  0  0  0  0
  140.5300   77.4770  219.2670 C   0  0  0  0  0  0  0  0  0  0  0  0
  139.6250   78.4340  219.5310 N   0  0  0  0  0  0  0  0  0  0  0  0
  138.2910   78.2190  219.3910 C   0  0  0  0  0  0  0  0  0  0  0  0
  137.8950   76.9680  218.9610 C   0  0  0  0  0  0  0  0  0  0  0  0
  136.5600   76.7610  218.8240 F   0  0  0  0  0  0  0  0  0  0  0  0
  138.8010   75.9570  218.6790 C   0  0  0  0  0  0  0  0  0  0  0  0
  140.1150   76.2550  218.8450 N   0  0  0  0  0  0  0  0  0  0  0  0
  141.9330   73.4870  219.5450 C   0  0  0  0  0  0  0  0  0  0  0  0
  140.8560   73.2620  218.8420 O   0  0  0  0  0  0  0  0  0  0  0  0
  141.6680   73.7030  220.9590 C   0  0  0  0  0  0  0  0  0  0  0  0
  141.5560   75.0380  221.4130 N   0  0  0  0  0  0  0  0  0  0  0  0
  140.3470   75.5420  222.0010 C   0  0  0  0  0  0  0  0  0  0  0  0
  139.3220   74.7990  222.1450 O   0  0  0  0  0  0  0  0  0  0  0  0
  140.3250   76.9420  222.4330 C   0  0  0  0  0  0  0  0  0  0  0  0
  139.1160   77.5380  222.7020 C   0  0  0  0  0  0  0  0  0  0  0  0
  139.1160   78.8730  223.1130 C   0  0  0  0  0  0  0  0  0  0  0  0
  140.2830   79.5870  223.2510 C   0  0  0  0  0  0  0  0  0  0  0  0
  140.3380   80.8990  223.6510 C   0  0  0  0  0  0  0  0  0  0  0  0
  141.5700   81.5250  223.7580 C   0  0  0  0  0  0  0  0  0  0  0  0
  142.7540   80.8740  223.4740 C   0  0  0  0  0  0  0  0  0  0  0  0
  142.7000   79.5510  223.0700 C   0  0  0  0  0  0  0  0  0  0  0  0
  141.4640   78.9370  222.9680 C   0  0  0  0  0  0  0  0  0  0  0  0
  141.4530   77.6580  222.5750 N   0  0  0  0  0  0  0  0  0  0  0  0
  144.3912   72.0970  219.7132 H   0  0  0  0  0  0  0  0  0  0  0  0
  143.6503   71.5757  218.1620 H   0  0  0  0  0  0  0  0  0  0  0  0
  144.9716   72.7925  218.1620 H   0  0  0  0  0  0  0  0  0  0  0  0
  144.4508   74.5893  217.5836 H   0  0  0  0  0  0  0  0  0  0  0  0
  142.7145   74.8687  217.2566 H   0  0  0  0  0  0  0  0  0  0  0  0
  143.8946   77.7936  216.9039 H   0  0  0  0  0  0  0  0  0  0  0  0
  142.3233   77.1150  216.4862 H   0  0  0  0  0  0  0  0  0  0  0  0
  142.8557   79.8237  217.0132 H   0  0  0  0  0  0  0  0  0  0  0  0
  141.2386   79.1073  217.0377 H   0  0  0  0  0  0  0  0  0  0  0  0
  143.1609   79.6115  219.3782 H   0  0  0  0  0  0  0  0  0  0  0  0
  141.4567   79.9524  219.3427 H   0  0  0  0  0  0  0  0  0  0  0  0
  142.1723   77.6376  220.5165 H   0  0  0  0  0  0  0  0  0  0  0  0
  137.5571   79.0083  219.6110 H   0  0  0  0  0  0  0  0  0  0  0  0
  138.4719   74.9643  218.3382 H   0  0  0  0  0  0  0  0  0  0  0  0
  140.7216   73.1952  221.1966 H   0  0  0  0  0  0  0  0  0  0  0  0
  142.5591   73.3104  221.4708 H   0  0  0  0  0  0  0  0  0  0  0  0
  142.3700   75.6880  221.3230 H   0  0  0  0  0  0  0  0  0  0  0  0
  138.1745   76.9791  222.5965 H   0  0  0  0  0  0  0  0  0  0  0  0
  138.1574   79.3660  223.3320 H   0  0  0  0  0  0  0  0  0  0  0  0
  139.4137   81.4480  223.8842 H   0  0  0  0  0  0  0  0  0  0  0  0
  141.6057   82.5762  224.0801 H   0  0  0  0  0  0  0  0  0  0  0  0
  143.7184   81.3948  223.5667 H   0  0  0  0  0  0  0  0  0  0  0  0
  143.6216   78.9986  222.8347 H   0  0  0  0  0  0  0  0  0  0  0  0
  1  2  1  0
  2  3  1  0
  3  4  1  0
  4  5  2  0
  4  6  1  0
  6  7  1  0
  7  8  1  0
  8  9  1  0
  9 10  1  0
 10 11  1  0
 11 12  2  0
 12 13  1  0
 13 14  2  0
 14 15  1  0
 14 16  1  0
 16 17  2  0
  2 18  1  0
 18 19  2  0
 18 20  1  0
 20 21  1  0
 21 22  1  0
 22 23  2  0
 22 24  1  0
 24 25  2  0
 25 26  1  0
 26 27  2  0
 27 28  1  0
 28 29  2  0
 29 30  1  0
 30 31  2  0
 31 32  1  0
 32 33  2  0
 10  6  1  0
 17 11  1  0
 33 24  1  0
 32 27  1  0
  1 34  1  0
  1 35  1  0
  1 36  1  0
  3 37  1  0
  3 38  1  0
  7 39  1  0
  7 40  1  0
  8 41  1  0
  8 42  1  0
  9 43  1  0
  9 44  1  0
 10 45  1  1
 13 46  1  0
 16 47  1  0
 20 48  1  0
 20 49  1  0
 21 50  1  0
 25 51  1  0
 26 52  1  0
 28 53  1  0
 29 54  1  0
 30 55  1  0
 31 56  1  0
M  END
>  <smiles>  (8) 
CN(CC(=O)N1CCC[C@H]1c1ncc(F)cn1)C(=O)CNC(=O)c1ccc2ccccc2n1

>  <score_type>  (8) 
oracle

>  <origin>  (8) 
autodockgpu

>  <m_score__min__energy>  (8) 
-8.4700000000000006

>  <m_primary>  (8) 
energy

>  <rmsd>  (8) 
7.20910044620927

>  <m_score__min__rmsd>  (8) 
7.20910044620927

>  <meeko>  (8) 
{"free_energy": -5.48, "intermolecular_energy": -7.86, "internal_energy": -4.77, "cluster_size": 1, "cluster_id": 9, "rank_in_cluster": 1}

>  <energy>  (8) 
-7.6

>  <cluster_rmsd>  (8) 
1.72

>  <cluster>  (8) 
1

$$$$

     RDKit          3D

 56 59  0  0  0  0  0  0  0  0999 V2000
  135.9650   75.4530  222.4360 C   0  0  0  0  0  0  0  0  0  0  0  0
  137.3150   75.2570  222.0030 N   0  0  0  0  0  0  0  0  0  0  0  0
  138.3260   76.0400  222.7640 C   0  0  0  0  0  0  0  0  0  0  0  0
  139.6390   75.8940  222.0890 C   0  0  0  0  0  0  0  0  0  0  0  0
  140.3120   74.8510  222.2780 O   0  0  0  0  0  0  0  0  0  0  0  0
  140.0650   76.9640  221.2520 N   0  0  0  0  0  0  0  0  0  0  0  0
  139.2580   77.8080  220.3720 C   0  0  0  0  0  0  0  0  0  0  0  0
  140.2560   78.5380  219.5290 C   0  0  0  0  0  0  0  0  0  0  0  0
  141.5790   77.8050  219.7290 C   0  0  0  0  0  0  0  0  0  0  0  0
  141.4600   77.3810  221.1630 C   0  0  1  0  0  0  0  0  0  0  0  0
  141.7430   78.5310  222.0480 C   0  0  0  0  0  0  0  0  0  0  0  0
  142.1860   79.6610  221.4720 N   0  0  0  0  0  0  0  0  0  0  0  0
  142.4740   80.7720  222.1990 C   0  0  0  0  0  0  0  0  0  0  0  0
  142.2920   80.6970  223.5660 C   0  0  0  0  0  0  0  0  0  0  0  0
  142.5830   81.8110  224.2840 F   0  0  0  0  0  0  0  0  0  0  0  0
  141.8370   79.5480  224.1940 C   0  0  0  0  0  0  0  0  0  0  0  0
  141.5730   78.4830  223.3950 N   0  0  0  0  0  0  0  0  0  0  0  0
  137.7880   74.4450  220.9710 C   0  0  0  0  0  0  0  0  0  0  0  0
  137.6980   74.9660  219.7770 O   0  0  0  0  0  0  0  0  0  0  0  0
  138.3750   73.1140  220.9800 C   0  0  0  0  0  0  0  0  0  0  0  0
  138.7770   72.5790  222.2270 N   0  0  0  0  0  0  0  0  0  0  0  0
  138.7910   71.1660  222.4780 C   0  0  0  0  0  0  0  0  0  0  0  0
  138.4460   70.3300  221.5800 O   0  0  0  0  0  0  0  0  0  0  0  0
  139.2150   70.7080  223.8040 C   0  0  0  0  0  0  0  0  0  0  0  0
  138.9320   69.4180  224.1860 C   0  0  0  0  0  0  0  0  0  0  0  0
  139.3450   69.0010  225.4540 C   0  0  0  0  0  0  0  0  0  0  0  0
  140.0150   69.8420  226.3090 C   0  0  0  0  0  0  0  0  0  0  0  0
  140.4420   69.4830  227.5640 C   0  0  0  0  0  0  0  0  0  0  0  0
  141.1110   70.4100  228.3460 C   0  0  0  0  0  0  0  0  0  0  0  0
  141.3660   71.6960  227.9070 C   0  0  0  0  0  0  0  0  0  0  0  0
  140.9360   72.0600  226.6430 C   0  0  0  0  0  0  0  0  0  0  0  0
  140.2700   71.1230  225.8720 C   0  0  0  0  0  0  0  0  0  0  0  0
  139.8710   71.5130  224.6550 N   0  0  0  0  0  0  0  0  0  0  0  0
  135.9296   75.4581  223.5354 H   0  0  0  0  0  0  0  0  0  0  0  0
  135.5929   76.4146  222.0527 H   0  0  0  0  0  0  0  0  0  0  0  0
  135.3348   74.6369  222.0527 H   0  0  0  0  0  0  0  0  0  0  0  0
  138.0352   77.1007  222.7848 H   0  0  0  0  0  0  0  0  0  0  0  0
  138.3900   75.6695  223.7977 H   0  0  0  0  0  0  0  0  0  0  0  0
  138.5956   77.1933  219.7448 H   0  0  0  0  0  0  0  0  0  0  0  0
  138.6062   78.4931  220.9339 H   0  0  0  0  0  0  0  0  0  0  0  0
  139.9579   78.5097  218.4705 H   0  0  0  0  0  0  0  0  0  0  0  0
  140.3314   79.5976  219.8146 H   0  0  0  0  0  0  0  0  0  0  0  0
  141.6655   76.9380  219.0576 H   0  0  0  0  0  0  0  0  0  0  0  0
  142.4701   78.4112  219.5088 H   0  0  0  0  0  0  0  0  0  0  0  0
  142.1609   76.5891  221.4659 H   0  0  0  0  0  0  0  0  0  0  0  0
  142.8369   81.6928  221.7189 H   0  0  0  0  0  0  0  0  0  0  0  0
  141.6971   79.5017  225.2841 H   0  0  0  0  0  0  0  0  0  0  0  0
  137.6324   72.4249  220.5513 H   0  0  0  0  0  0  0  0  0  0  0  0
  139.3095   73.2193  220.4093 H   0  0  0  0  0  0  0  0  0  0  0  0
  139.0740   73.2210  222.9970 H   0  0  0  0  0  0  0  0  0  0  0  0
  138.3956   68.7335  223.5124 H   0  0  0  0  0  0  0  0  0  0  0  0
  139.1279   67.9719  225.7762 H   0  0  0  0  0  0  0  0  0  0  0  0
  140.2544   68.4682  227.9447 H   0  0  0  0  0  0  0  0  0  0  0  0
  141.4506   70.1133  229.3493 H   0  0  0  0  0  0  0  0  0  0  0  0
  141.8987   72.4138  228.5481 H   0  0  0  0  0  0  0  0  0  0  0  0
  141.1199   73.0741  226.2585 H   0  0  0  0  0  0  0  0  0  0  0  0
  1  2  1  0
  2  3  1  0
  3  4  1  0
  4  5  2  0
  4  6  1  0
  6  7  1  0
  7  8  1  0
  8  9  1  0
  9 10  1  0
 10 11  1  0
 11 12  2  0
 12 13  1  0
 13 14  2  0
 14 15  1  0
 14 16  1  0
 16 17  2  0
  2 18  1  0
 18 19  2  0
 18 20  1  0
 20 21  1  0
 21 22  1  0
 22 23  2  0
 22 24  1  0
 24 25  2  0
 25 26  1  0
 26 27  2  0
 27 28  1  0
 28 29  2  0
 29 30  1  0
 30 31  2  0
 31 32  1  0
 32 33  2  0
 10  6  1  0
 17 11  1  0
 33 24  1  0
 32 27  1  0
  1 34  1  0
  1 35  1  0
  1 36  1  0
  3 37  1  0
  3 38  1  0
  7 39  1  0
  7 40  1  0
  8 41  1  0
  8 42  1  0
  9 43  1  0
  9 44  1  0
 10 45  1  1
 13 46  1  0
 16 47  1  0
 20 48  1  0
 20 49  1  0
 21 50  1  0
 25 51  1  0
 26 52  1  0
 28 53  1  0
 29 54  1  0
 30 55  1  0
 31 56  1  0
M  END
>  <smiles>  (9) 
CN(CC(=O)N1CCC[C@H]1c1ncc(F)cn1)C(=O)CNC(=O)c1ccc2ccccc2n1

>  <score_type>  (9) 
oracle

>  <origin>  (9) 
autodockgpu

>  <m_score__min__energy>  (9) 
-8.4700000000000006

>  <m_primary>  (9) 
energy

>  <rmsd>  (9) 
2.7759026328291676

>  <m_score__min__rmsd>  (9) 
2.7759026328291676

>  <meeko>  (9) 
{"free_energy": -7.91, "intermolecular_energy": -10.29, "internal_energy": -2.8, "cluster_size": 18, "cluster_id": 4, "rank_in_cluster": 4}

>  <energy>  (9) 
-7.54

>  <cluster_rmsd>  (9) 
1.08

>  <cluster>  (9) 
1

$$$$

     RDKit          3D

 56 59  0  0  0  0  0  0  0  0999 V2000
  137.5490   76.2340  223.0400 C   0  0  0  0  0  0  0  0  0  0  0  0
  138.6820   76.3090  222.1680 N   0  0  0  0  0  0  0  0  0  0  0  0
  138.8750   77.6350  221.5220 C   0  0  0  0  0  0  0  0  0  0  0  0
  139.3500   78.5940  222.5510 C   0  0  0  0  0  0  0  0  0  0  0  0
  138.5640   78.9530  223.4620 O   0  0  0  0  0  0  0  0  0  0  0  0
  140.6920   79.0560  222.4410 N   0  0  0  0  0  0  0  0  0  0  0  0
  141.8220   78.7910  223.3300 C   0  0  0  0  0  0  0  0  0  0  0  0
  142.8760   79.7630  222.9010 C   0  0  0  0  0  0  0  0  0  0  0  0
  142.1630   80.7810  222.0150 C   0  0  0  0  0  0  0  0  0  0  0  0
  141.1360   79.9130  221.3480 C   0  0  1  0  0  0  0  0  0  0  0  0
  141.7720   79.1320  220.2660 C   0  0  0  0  0  0  0  0  0  0  0  0
  142.0560   79.7760  219.1220 N   0  0  0  0  0  0  0  0  0  0  0  0
  142.6400   79.1460  218.0690 C   0  0  0  0  0  0  0  0  0  0  0  0
  142.9350   77.8050  218.2200 C   0  0  0  0  0  0  0  0  0  0  0  0
  143.5170   77.1830  217.1630 F   0  0  0  0  0  0  0  0  0  0  0  0
  142.6550   77.1090  219.3860 C   0  0  0  0  0  0  0  0  0  0  0  0
  142.0720   77.8130  220.3890 N   0  0  0  0  0  0  0  0  0  0  0  0
  139.6030   75.3090  221.8500 C   0  0  0  0  0  0  0  0  0  0  0  0
  140.8420   75.7120  221.7630 O   0  0  0  0  0  0  0  0  0  0  0  0
  139.4370   73.8850  221.6030 C   0  0  0  0  0  0  0  0  0  0  0  0
  139.5680   73.0050  222.7030 N   0  0  0  0  0  0  0  0  0  0  0  0
  139.5350   71.5790  222.5430 C   0  0  0  0  0  0  0  0  0  0  0  0
  139.3920   71.0450  221.3950 O   0  0  0  0  0  0  0  0  0  0  0  0
  139.6700   70.7500  223.7450 C   0  0  0  0  0  0  0  0  0  0  0  0
  139.2340   69.4470  223.7080 C   0  0  0  0  0  0  0  0  0  0  0  0
  139.3720   68.6730  224.8620 C   0  0  0  0  0  0  0  0  0  0  0  0
  139.9260   69.1830  226.0120 C   0  0  0  0  0  0  0  0  0  0  0  0
  140.0850   68.4660  227.1730 C   0  0  0  0  0  0  0  0  0  0  0  0
  140.6580   69.0780  228.2760 C   0  0  0  0  0  0  0  0  0  0  0  0
  141.0770   70.3940  228.2540 C   0  0  0  0  0  0  0  0  0  0  0  0
  140.9180   71.1180  227.0850 C   0  0  0  0  0  0  0  0  0  0  0  0
  140.3460   70.4950  225.9890 C   0  0  0  0  0  0  0  0  0  0  0  0
  140.2090   71.2270  224.8780 N   0  0  0  0  0  0  0  0  0  0  0  0
  137.8891   76.2565  224.0859 H   0  0  0  0  0  0  0  0  0  0  0  0
  136.8844   77.0901  222.8521 H   0  0  0  0  0  0  0  0  0  0  0  0
  137.0030   75.2977  222.8521 H   0  0  0  0  0  0  0  0  0  0  0  0
  139.6222   77.5516  220.7190 H   0  0  0  0  0  0  0  0  0  0  0  0
  137.9267   77.9854  221.0886 H   0  0  0  0  0  0  0  0  0  0  0  0
  141.5393   78.9627  224.3791 H   0  0  0  0  0  0  0  0  0  0  0  0
  142.1661   77.7481  223.2677 H   0  0  0  0  0  0  0  0  0  0  0  0
  143.3186   80.2601  223.7768 H   0  0  0  0  0  0  0  0  0  0  0  0
  143.6961   79.2624  222.3654 H   0  0  0  0  0  0  0  0  0  0  0  0
  141.6930   81.5766  222.6118 H   0  0  0  0  0  0  0  0  0  0  0  0
  142.8244   81.3169  221.3183 H   0  0  0  0  0  0  0  0  0  0  0  0
  140.3083   80.4626  220.8759 H   0  0  0  0  0  0  0  0  0  0  0  0
  142.8682   79.6814  217.1356 H   0  0  0  0  0  0  0  0  0  0  0  0
  142.8933   76.0404  219.4926 H   0  0  0  0  0  0  0  0  0  0  0  0
  138.4300   73.7398  221.1848 H   0  0  0  0  0  0  0  0  0  0  0  0
  140.2707   73.6206  220.9359 H   0  0  0  0  0  0  0  0  0  0  0  0
  139.6920   73.3920  223.6670 H   0  0  0  0  0  0  0  0  0  0  0  0
  138.7887   69.0256  222.7947 H   0  0  0  0  0  0  0  0  0  0  0  0
  139.0285   67.6281  224.8505 H   0  0  0  0  0  0  0  0  0  0  0  0
  139.7606   67.4163  227.2264 H   0  0  0  0  0  0  0  0  0  0  0  0
  140.7836   68.4960  229.2009 H   0  0  0  0  0  0  0  0  0  0  0  0
  141.5268   70.8561  229.1451 H   0  0  0  0  0  0  0  0  0  0  0  0
  141.2400   72.1683  227.0280 H   0  0  0  0  0  0  0  0  0  0  0  0
  1  2  1  0
  2  3  1  0
  3  4  1  0
  4  5  2  0
  4  6  1  0
  6  7  1  0
  7  8  1  0
  8  9  1  0
  9 10  1  0
 10 11  1  0
 11 12  2  0
 12 13  1  0
 13 14  2  0
 14 15  1  0
 14 16  1  0
 16 17  2  0
  2 18  1  0
 18 19  2  0
 18 20  1  0
 20 21  1  0
 21 22  1  0
 22 23  2  0
 22 24  1  0
 24 25  2  0
 25 26  1  0
 26 27  2  0
 27 28  1  0
 28 29  2  0
 29 30  1  0
 30 31  2  0
 31 32  1  0
 32 33  2  0
 10  6  1  0
 17 11  1  0
 33 24  1  0
 32 27  1  0
  1 34  1  0
  1 35  1  0
  1 36  1  0
  3 37  1  0
  3 38  1  0
  7 39  1  0
  7 40  1  0
  8 41  1  0
  8 42  1  0
  9 43  1  0
  9 44  1  0
 10 45  1  6
 13 46  1  0
 16 47  1  0
 20 48  1  0
 20 49  1  0
 21 50  1  0
 25 51  1  0
 26 52  1  0
 28 53  1  0
 29 54  1  0
 30 55  1  0
 31 56  1  0
M  END
>  <smiles>  (10) 
CN(CC(=O)N1CCC[C@H]1c1ncc(F)cn1)C(=O)CNC(=O)c1ccc2ccccc2n1

>  <score_type>  (10) 
oracle

>  <origin>  (10) 
autodockgpu

>  <m_score__min__energy>  (10) 
-8.4700000000000006

>  <m_primary>  (10) 
energy

>  <rmsd>  (10) 
2.560111790009621

>  <m_score__min__rmsd>  (10) 
2.560111790009621

>  <meeko>  (10) 
{"free_energy": -8.26, "intermolecular_energy": -10.64, "internal_energy": -2.16, "cluster_size": 9, "cluster_id": 2, "rank_in_cluster": 2}

>  <energy>  (10) 
-8.27

>  <cluster_rmsd>  (10) 
0.0

>  <cluster>  (10) 
2

$$$$

     RDKit          3D

 56 59  0  0  0  0  0  0  0  0999 V2000
  141.2780   72.3250  219.4490 C   0  0  0  0  0  0  0  0  0  0  0  0
  140.2070   73.2010  219.8140 N   0  0  0  0  0  0  0  0  0  0  0  0
  140.6110   74.6200  220.0040 C   0  0  0  0  0  0  0  0  0  0  0  0
  140.2720   75.0240  221.3920 C   0  0  0  0  0  0  0  0  0  0  0  0
  140.5950   74.2720  222.3440 O   0  0  0  0  0  0  0  0  0  0  0  0
  139.5900   76.2620  221.5630 N   0  0  0  0  0  0  0  0  0  0  0  0
  138.4310   76.5540  222.4060 C   0  0  0  0  0  0  0  0  0  0  0  0
  137.9710   77.9060  221.9580 C   0  0  0  0  0  0  0  0  0  0  0  0
  138.6800   78.1650  220.6320 C   0  0  0  0  0  0  0  0  0  0  0  0
  139.9930   77.4790  220.8680 C   0  0  1  0  0  0  0  0  0  0  0  0
  140.8550   78.3310  221.7150 C   0  0  0  0  0  0  0  0  0  0  0  0
  141.0350   77.9540  222.9910 N   0  0  0  0  0  0  0  0  0  0  0  0
  141.8090   78.6690  223.8490 C   0  0  0  0  0  0  0  0  0  0  0  0
  142.4110   79.8100  223.3550 C   0  0  0  0  0  0  0  0  0  0  0  0
  143.1820   80.5180  224.2180 F   0  0  0  0  0  0  0  0  0  0  0  0
  142.2470   80.2290  222.0430 C   0  0  0  0  0  0  0  0  0  0  0  0
  141.4580   79.4570  221.2530 N   0  0  0  0  0  0  0  0  0  0  0  0
  138.8610   72.8930  220.0170 C   0  0  0  0  0  0  0  0  0  0  0  0
  138.2210   72.4990  218.9490 O   0  0  0  0  0  0  0  0  0  0  0  0
  138.0310   72.9220  221.2120 C   0  0  0  0  0  0  0  0  0  0  0  0
  138.5650   72.3650  222.3980 N   0  0  0  0  0  0  0  0  0  0  0  0
  138.4920   70.9590  222.6770 C   0  0  0  0  0  0  0  0  0  0  0  0
  137.9460   70.1490  221.8590 O   0  0  0  0  0  0  0  0  0  0  0  0
  139.0670   70.4780  223.9370 C   0  0  0  0  0  0  0  0  0  0  0  0
  139.0290   69.1320  224.2150 C   0  0  0  0  0  0  0  0  0  0  0  0
  139.5820   68.6930  225.4210 C   0  0  0  0  0  0  0  0  0  0  0  0
  140.1530   69.5670  226.3150 C   0  0  0  0  0  0  0  0  0  0  0  0
  140.7100   69.1880  227.5120 C   0  0  0  0  0  0  0  0  0  0  0  0
  141.2590   70.1530  228.3410 C   0  0  0  0  0  0  0  0  0  0  0  0
  141.2670   71.4940  228.0070 C   0  0  0  0  0  0  0  0  0  0  0  0
  140.7070   71.8770  226.8010 C   0  0  0  0  0  0  0  0  0  0  0  0
  140.1610   70.9040  225.9810 C   0  0  0  0  0  0  0  0  0  0  0  0
  139.6290   71.3140  224.8240 N   0  0  0  0  0  0  0  0  0  0  0  0
  141.7572   71.9331  220.3583 H   0  0  0  0  0  0  0  0  0  0  0  0
  140.8814   71.4891  218.8541 H   0  0  0  0  0  0  0  0  0  0  0  0
  142.0187   72.8795  218.8541 H   0  0  0  0  0  0  0  0  0  0  0  0
  141.6941   74.7225  219.8417 H   0  0  0  0  0  0  0  0  0  0  0  0
  140.0821   75.2623  219.2845 H   0  0  0  0  0  0  0  0  0  0  0  0
  137.6407   75.8043  222.2532 H   0  0  0  0  0  0  0  0  0  0  0  0
  138.6776   76.5306  223.4778 H   0  0  0  0  0  0  0  0  0  0  0  0
  136.8800   77.9128  221.8173 H   0  0  0  0  0  0  0  0  0  0  0  0
  138.2053   78.6817  222.7019 H   0  0  0  0  0  0  0  0  0  0  0  0
  138.1355   77.7152  219.7886 H   0  0  0  0  0  0  0  0  0  0  0  0
  138.7666   79.2287  220.3654 H   0  0  0  0  0  0  0  0  0  0  0  0
  140.5741   77.2757  219.9564 H   0  0  0  0  0  0  0  0  0  0  0  0
  141.9503   78.3526  224.8930 H   0  0  0  0  0  0  0  0  0  0  0  0
  142.7315   81.1402  221.6622 H   0  0  0  0  0  0  0  0  0  0  0  0
  137.7939   73.9755  221.4217 H   0  0  0  0  0  0  0  0  0  0  0  0
  137.1701   72.2823  220.9678 H   0  0  0  0  0  0  0  0  0  0  0  0
  139.0290   72.9850  223.1010 H   0  0  0  0  0  0  0  0  0  0  0  0
  138.5762   68.4210  223.5083 H   0  0  0  0  0  0  0  0  0  0  0  0
  139.5597   67.6198  225.6611 H   0  0  0  0  0  0  0  0  0  0  0  0
  140.7201   68.1290  227.8095 H   0  0  0  0  0  0  0  0  0  0  0  0
  141.7036   69.8411  229.2976 H   0  0  0  0  0  0  0  0  0  0  0  0
  141.7084   72.2399  228.6844 H   0  0  0  0  0  0  0  0  0  0  0  0
  140.6958   72.9348  226.4993 H   0  0  0  0  0  0  0  0  0  0  0  0
  1  2  1  0
  2  3  1  0
  3  4  1  0
  4  5  2  0
  4  6  1  0
  6  7  1  0
  7  8  1  0
  8  9  1  0
  9 10  1  0
 10 11  1  0
 11 12  2  0
 12 13  1  0
 13 14  2  0
 14 15  1  0
 14 16  1  0
 16 17  2  0
  2 18  1  0
 18 19  2  0
 18 20  1  0
 20 21  1  0
 21 22  1  0
 22 23  2  0
 22 24  1  0
 24 25  2  0
 25 26  1  0
 26 27  2  0
 27 28  1  0
 28 29  2  0
 29 30  1  0
 30 31  2  0
 31 32  1  0
 32 33  2  0
 10  6  1  0
 17 11  1  0
 33 24  1  0
 32 27  1  0
  1 34  1  0
  1 35  1  0
  1 36  1  0
  3 37  1  0
  3 38  1  0
  7 39  1  0
  7 40  1  0
  8 41  1  0
  8 42  1  0
  9 43  1  0
  9 44  1  0
 10 45  1  6
 13 46  1  0
 16 47  1  0
 20 48  1  0
 20 49  1  0
 21 50  1  0
 25 51  1  0
 26 52  1  0
 28 53  1  0
 29 54  1  0
 30 55  1  0
 31 56  1  0
M  END
>  <smiles>  (11) 
CN(CC(=O)N1CCC[C@H]1c1ncc(F)cn1)C(=O)CNC(=O)c1ccc2ccccc2n1

>  <score_type>  (11) 
oracle

>  <origin>  (11) 
autodockgpu

>  <m_score__min__energy>  (11) 
-8.4700000000000006

>  <m_primary>  (11) 
energy

>  <rmsd>  (11) 
2.8939649256007343

>  <m_score__min__rmsd>  (11) 
2.8939649256007343

>  <meeko>  (11) 
{"free_energy": -7.67, "intermolecular_energy": -10.06, "internal_energy": -2.9, "cluster_size": 18, "cluster_id": 4, "rank_in_cluster": 11}

>  <energy>  (11) 
-8.26

>  <cluster_rmsd>  (11) 
0.27

>  <cluster>  (11) 
2

$$$$

     RDKit          3D

 56 59  0  0  0  0  0  0  0  0999 V2000
  143.5530   73.2530  220.7060 C   0  0  0  0  0  0  0  0  0  0  0  0
  142.2520   73.6800  220.2880 N   0  0  0  0  0  0  0  0  0  0  0  0
  141.9420   75.1010  220.5990 C   0  0  0  0  0  0  0  0  0  0  0  0
  140.8340   75.1350  221.5870 C   0  0  0  0  0  0  0  0  0  0  0  0
  140.6400   74.1380  222.3220 O   0  0  0  0  0  0  0  0  0  0  0  0
  140.0450   76.3200  221.6410 N   0  0  0  0  0  0  0  0  0  0  0  0
  138.7990   76.5510  222.3700 C   0  0  0  0  0  0  0  0  0  0  0  0
  138.2750   77.8400  221.8210 C   0  0  0  0  0  0  0  0  0  0  0  0
  139.0730   78.1010  220.5460 C   0  0  0  0  0  0  0  0  0  0  0  0
  140.4100   77.5360  220.9230 C   0  0  1  0  0  0  0  0  0  0  0  0
  141.1280   78.4900  221.7950 C   0  0  0  0  0  0  0  0  0  0  0  0
  141.1660   78.2170  223.1100 N   0  0  0  0  0  0  0  0  0  0  0  0
  141.8000   79.0320  223.9940 C   0  0  0  0  0  0  0  0  0  0  0  0
  142.4110   80.1610  223.4860 C   0  0  0  0  0  0  0  0  0  0  0  0
  143.0410   80.9700  224.3750 F   0  0  0  0  0  0  0  0  0  0  0  0
  142.3900   80.4740  222.1350 C   0  0  0  0  0  0  0  0  0  0  0  0
  141.7360   79.6070  221.3200 N   0  0  0  0  0  0  0  0  0  0  0  0
  141.2580   72.9400  219.6450 C   0  0  0  0  0  0  0  0  0  0  0  0
  141.1500   73.1620  218.3630 O   0  0  0  0  0  0  0  0  0  0  0  0
  140.3140   71.9510  220.1440 C   0  0  0  0  0  0  0  0  0  0  0  0
  140.3520   71.6420  221.5240 N   0  0  0  0  0  0  0  0  0  0  0  0
  139.5520   70.5920  222.0880 C   0  0  0  0  0  0  0  0  0  0  0  0
  138.7760   69.8880  221.3640 O   0  0  0  0  0  0  0  0  0  0  0  0
  139.6530   70.3520  223.5310 C   0  0  0  0  0  0  0  0  0  0  0  0
  139.0710   69.2260  224.0620 C   0  0  0  0  0  0  0  0  0  0  0  0
  139.1780   69.0150  225.4380 C   0  0  0  0  0  0  0  0  0  0  0  0
  139.8440   69.8960  226.2550 C   0  0  0  0  0  0  0  0  0  0  0  0
  139.9790   69.7360  227.6130 C   0  0  0  0  0  0  0  0  0  0  0  0
  140.6730   70.6870  228.3430 C   0  0  0  0  0  0  0  0  0  0  0  0
  141.2380   71.8010  227.7530 C   0  0  0  0  0  0  0  0  0  0  0  0
  141.1030   71.9650  226.3850 C   0  0  0  0  0  0  0  0  0  0  0  0
  140.4080   71.0070  225.6670 C   0  0  0  0  0  0  0  0  0  0  0  0
  140.3000   71.2000  224.3470 N   0  0  0  0  0  0  0  0  0  0  0  0
  143.5985   73.2381  221.8050 H   0  0  0  0  0  0  0  0  0  0  0  0
  143.7500   72.2431  220.3171 H   0  0  0  0  0  0  0  0  0  0  0  0
  144.3101   73.9498  220.3171 H   0  0  0  0  0  0  0  0  0  0  0  0
  142.8315   75.5911  221.0216 H   0  0  0  0  0  0  0  0  0  0  0  0
  141.6465   75.6322  219.6822 H   0  0  0  0  0  0  0  0  0  0  0  0
  138.0858   75.7333  222.1892 H   0  0  0  0  0  0  0  0  0  0  0  0
  138.9536   76.5929  223.4583 H   0  0  0  0  0  0  0  0  0  0  0  0
  137.2030   77.7513  221.5910 H   0  0  0  0  0  0  0  0  0  0  0  0
  138.3833   78.6626  222.5432 H   0  0  0  0  0  0  0  0  0  0  0  0
  138.6402   77.5729  219.6836 H   0  0  0  0  0  0  0  0  0  0  0  0
  139.0983   79.1560  220.2355 H   0  0  0  0  0  0  0  0  0  0  0  0
  141.0813   77.3434  220.0732 H   0  0  0  0  0  0  0  0  0  0  0  0
  141.8252   78.8016  225.0693 H   0  0  0  0  0  0  0  0  0  0  0  0
  142.8784   81.3786  221.7436 H   0  0  0  0  0  0  0  0  0  0  0  0
  139.3024   72.3192  219.9177 H   0  0  0  0  0  0  0  0  0  0  0  0
  140.6010   71.0153  219.6420 H   0  0  0  0  0  0  0  0  0  0  0  0
  140.9760   72.1860  222.1630 H   0  0  0  0  0  0  0  0  0  0  0  0
  138.5355   68.5106  223.4205 H   0  0  0  0  0  0  0  0  0  0  0  0
  138.7167   68.1194  225.8797 H   0  0  0  0  0  0  0  0  0  0  0  0
  139.5403   68.8614  228.1155 H   0  0  0  0  0  0  0  0  0  0  0  0
  140.7778   70.5505  229.4295 H   0  0  0  0  0  0  0  0  0  0  0  0
  141.7831   72.5414  228.3568 H   0  0  0  0  0  0  0  0  0  0  0  0
  141.5391   72.8388  225.8788 H   0  0  0  0  0  0  0  0  0  0  0  0
  1  2  1  0
  2  3  1  0
  3  4  1  0
  4  5  2  0
  4  6  1  0
  6  7  1  0
  7  8  1  0
  8  9  1  0
  9 10  1  0
 10 11  1  0
 11 12  2  0
 12 13  1  0
 13 14  2  0
 14 15  1  0
 14 16  1  0
 16 17  2  0
  2 18  1  0
 18 19  2  0
 18 20  1  0
 20 21  1  0
 21 22  1  0
 22 23  2  0
 22 24  1  0
 24 25  2  0
 25 26  1  0
 26 27  2  0
 27 28  1  0
 28 29  2  0
 29 30  1  0
 30 31  2  0
 31 32  1  0
 32 33  2  0
 10  6  1  0
 17 11  1  0
 33 24  1  0
 32 27  1  0
  1 34  1  0
  1 35  1  0
  1 36  1  0
  3 37  1  0
  3 38  1  0
  7 39  1  0
  7 40  1  0
  8 41  1  0
  8 42  1  0
  9 43  1  0
  9 44  1  0
 10 45  1  6
 13 46  1  0
 16 47  1  0
 20 48  1  0
 20 49  1  0
 21 50  1  0
 25 51  1  0
 26 52  1  0
 28 53  1  0
 29 54  1  0
 30 55  1  0
 31 56  1  0
M  END
>  <smiles>  (12) 
CN(CC(=O)N1CCC[C@H]1c1ncc(F)cn1)C(=O)CNC(=O)c1ccc2ccccc2n1

>  <score_type>  (12) 
oracle

>  <origin>  (12) 
autodockgpu

>  <m_score__min__energy>  (12) 
-8.4700000000000006

>  <m_primary>  (12) 
energy

>  <rmsd>  (12) 
3.2163526285314656

>  <m_score__min__rmsd>  (12) 
3.2163526285314656

>  <meeko>  (12) 
{"free_energy": -7.8, "intermolecular_energy": -10.19, "internal_energy": -2.82, "cluster_size": 18, "cluster_id": 4, "rank_in_cluster": 8}

>  <energy>  (12) 
-7.93

>  <cluster_rmsd>  (12) 
0.29

>  <cluster>  (12) 
2

$$$$

     RDKit          3D

 56 59  0  0  0  0  0  0  0  0999 V2000
  139.9910   72.2640  222.9260 C   0  0  0  0  0  0  0  0  0  0  0  0
  139.8100   72.9460  221.6800 N   0  0  0  0  0  0  0  0  0  0  0  0
  141.0750   73.3110  220.9880 C   0  0  0  0  0  0  0  0  0  0  0  0
  141.2800   74.7740  221.1260 C   0  0  0  0  0  0  0  0  0  0  0  0
  141.0870   75.3170  222.2410 O   0  0  0  0  0  0  0  0  0  0  0  0
  141.6920   75.4870  219.9650 N   0  0  0  0  0  0  0  0  0  0  0  0
  141.5390   75.1080  218.5610 C   0  0  0  0  0  0  0  0  0  0  0  0
  142.4130   76.0650  217.8130 C   0  0  0  0  0  0  0  0  0  0  0  0
  143.3020   76.7200  218.8660 C   0  0  0  0  0  0  0  0  0  0  0  0
  142.3670   76.7790  220.0380 C   0  0  1  0  0  0  0  0  0  0  0  0
  141.4190   77.9000  219.8640 C   0  0  0  0  0  0  0  0  0  0  0  0
  140.1150   77.5970  219.7540 N   0  0  0  0  0  0  0  0  0  0  0  0
  139.1660   78.5560  219.5920 C   0  0  0  0  0  0  0  0  0  0  0  0
  139.5960   79.8680  219.5440 C   0  0  0  0  0  0  0  0  0  0  0  0
  138.6420   80.8190  219.3810 F   0  0  0  0  0  0  0  0  0  0  0  0
  140.9330   80.2170  219.6550 C   0  0  0  0  0  0  0  0  0  0  0  0
  141.8160   79.1980  219.8150 N   0  0  0  0  0  0  0  0  0  0  0  0
  138.6160   73.3080  221.0530 C   0  0  0  0  0  0  0  0  0  0  0  0
  138.0880   72.3810  220.3000 O   0  0  0  0  0  0  0  0  0  0  0  0
  137.8400   74.5380  221.0890 C   0  0  0  0  0  0  0  0  0  0  0  0
  138.5090   75.7290  221.4580 N   0  0  0  0  0  0  0  0  0  0  0  0
  137.9790   76.6220  222.4490 C   0  0  0  0  0  0  0  0  0  0  0  0
  136.8800   76.3730  223.0440 O   0  0  0  0  0  0  0  0  0  0  0  0
  138.7410   77.8350  222.7580 C   0  0  0  0  0  0  0  0  0  0  0  0
  138.0610   78.9800  223.0970 C   0  0  0  0  0  0  0  0  0  0  0  0
  138.8050   80.1260  223.3880 C   0  0  0  0  0  0  0  0  0  0  0  0
  140.1790   80.1270  223.3430 C   0  0  0  0  0  0  0  0  0  0  0  0
  140.9570   81.2250  223.6200 C   0  0  0  0  0  0  0  0  0  0  0  0
  142.3360   81.1160  223.5450 C   0  0  0  0  0  0  0  0  0  0  0  0
  142.9640   79.9350  223.1970 C   0  0  0  0  0  0  0  0  0  0  0  0
  142.1810   78.8280  222.9180 C   0  0  0  0  0  0  0  0  0  0  0  0
  140.8050   78.9500  222.9970 C   0  0  0  0  0  0  0  0  0  0  0  0
  140.0830   77.8580  222.7200 N   0  0  0  0  0  0  0  0  0  0  0  0
  139.8059   72.9616  223.7561 H   0  0  0  0  0  0  0  0  0  0  0  0
  139.2850   71.4229  222.9895 H   0  0  0  0  0  0  0  0  0  0  0  0
  141.0212   71.8836  222.9895 H   0  0  0  0  0  0  0  0  0  0  0  0
  141.9177   72.7730  221.4467 H   0  0  0  0  0  0  0  0  0  0  0  0
  141.0163   73.0366  219.9244 H   0  0  0  0  0  0  0  0  0  0  0  0
  141.8715   74.0718  218.4003 H   0  0  0  0  0  0  0  0  0  0  0  0
  140.4913   75.1537  218.2289 H   0  0  0  0  0  0  0  0  0  0  0  0
  143.0256   75.5279  217.0739 H   0  0  0  0  0  0  0  0  0  0  0  0
  141.8209   76.8096  217.2608 H   0  0  0  0  0  0  0  0  0  0  0  0
  144.1868   76.1047  219.0863 H   0  0  0  0  0  0  0  0  0  0  0  0
  143.7143   77.6950  218.5668 H   0  0  0  0  0  0  0  0  0  0  0  0
  142.8581   76.9489  221.0075 H   0  0  0  0  0  0  0  0  0  0  0  0
  138.1003   78.2985  219.5028 H   0  0  0  0  0  0  0  0  0  0  0  0
  141.2618   81.2660  219.6155 H   0  0  0  0  0  0  0  0  0  0  0  0
  137.4243   74.6934  220.0825 H   0  0  0  0  0  0  0  0  0  0  0  0
  137.1010   74.3763  221.8876 H   0  0  0  0  0  0  0  0  0  0  0  0
  139.4170   75.9780  221.0030 H   0  0  0  0  0  0  0  0  0  0  0  0
  136.9619   78.9938  223.1381 H   0  0  0  0  0  0  0  0  0  0  0  0
  138.2775   81.0520  223.6603 H   0  0  0  0  0  0  0  0  0  0  0  0
  140.4896   82.1810  223.8985 H   0  0  0  0  0  0  0  0  0  0  0  0
  142.9519   81.9992  223.7700 H   0  0  0  0  0  0  0  0  0  0  0  0
  144.0611   79.8760  223.1430 H   0  0  0  0  0  0  0  0  0  0  0  0
  142.6438   77.8699  222.6389 H   0  0  0  0  0  0  0  0  0  0  0  0
  1  2  1  0
  2  3  1  0
  3  4  1  0
  4  5  2  0
  4  6  1  0
  6  7  1  0
  7  8  1  0
  8  9  1  0
  9 10  1  0
 10 11  1  0
 11 12  2  0
 12 13  1  0
 13 14  2  0
 14 15  1  0
 14 16  1  0
 16 17  2  0
  2 18  1  0
 18 19  2  0
 18 20  1  0
 20 21  1  0
 21 22  1  0
 22 23  2  0
 22 24  1  0
 24 25  2  0
 25 26  1  0
 26 27  2  0
 27 28  1  0
 28 29  2  0
 29 30  1  0
 30 31  2  0
 31 32  1  0
 32 33  2  0
 10  6  1  0
 17 11  1  0
 33 24  1  0
 32 27  1  0
  1 34  1  0
  1 35  1  0
  1 36  1  0
  3 37  1  0
  3 38  1  0
  7 39  1  0
  7 40  1  0
  8 41  1  0
  8 42  1  0
  9 43  1  0
  9 44  1  0
 10 45  1  1
 13 46  1  0
 16 47  1  0
 20 48  1  0
 20 49  1  0
 21 50  1  0
 25 51  1  0
 26 52  1  0
 28 53  1  0
 29 54  1  0
 30 55  1  0
 31 56  1  0
M  END
>  <smiles>  (13) 
CN(CC(=O)N1CCC[C@H]1c1ncc(F)cn1)C(=O)CNC(=O)c1ccc2ccccc2n1

>  <score_type>  (13) 
oracle

>  <origin>  (13) 
autodockgpu

>  <m_score__min__energy>  (13) 
-8.4700000000000006

>  <m_primary>  (13) 
energy

>  <rmsd>  (13) 
7.48034857831701

>  <m_score__min__rmsd>  (13) 
7.48034857831701

>  <meeko>  (13) 
{"free_energy": -5.15, "intermolecular_energy": -7.53, "internal_energy": -5.19, "cluster_size": 8, "cluster_id": 5, "rank_in_cluster": 7}

>  <energy>  (13) 
-7.86

>  <cluster_rmsd>  (13) 
1.96

>  <cluster>  (13) 
2

$$$$

     RDKit          3D

 56 59  0  0  0  0  0  0  0  0999 V2000
  136.2390   75.8370  220.5110 C   0  0  0  0  0  0  0  0  0  0  0  0
  136.8260   75.3570  221.7250 N   0  0  0  0  0  0  0  0  0  0  0  0
  137.7490   76.3200  222.3840 C   0  0  0  0  0  0  0  0  0  0  0  0
  139.1410   75.9770  221.9960 C   0  0  0  0  0  0  0  0  0  0  0  0
  139.6210   74.8740  222.3520 O   0  0  0  0  0  0  0  0  0  0  0  0
  139.8590   76.9380  221.2290 N   0  0  0  0  0  0  0  0  0  0  0  0
  139.3840   77.7460  220.1060 C   0  0  0  0  0  0  0  0  0  0  0  0
  140.6250   78.3320  219.5110 C   0  0  0  0  0  0  0  0  0  0  0  0
  141.7840   77.5410  220.1110 C   0  0  0  0  0  0  0  0  0  0  0  0
  141.2580   77.2590  221.4880 C   0  0  1  0  0  0  0  0  0  0  0  0
  141.3940   78.4660  222.3310 C   0  0  0  0  0  0  0  0  0  0  0  0
  142.5920   79.0730  222.3530 N   0  0  0  0  0  0  0  0  0  0  0  0
  142.8170   80.1880  223.0960 C   0  0  0  0  0  0  0  0  0  0  0  0
  141.7600   80.6800  223.8350 C   0  0  0  0  0  0  0  0  0  0  0  0
  141.9940   81.7930  224.5740 F   0  0  0  0  0  0  0  0  0  0  0  0
  140.5100   80.0790  223.8360 C   0  0  0  0  0  0  0  0  0  0  0  0
  140.3690   78.9690  223.0670 N   0  0  0  0  0  0  0  0  0  0  0  0
  136.6490   74.1200  222.3480 C   0  0  0  0  0  0  0  0  0  0  0  0
  135.8690   74.1400  223.3950 O   0  0  0  0  0  0  0  0  0  0  0  0
  137.1710   72.7980  222.0380 C   0  0  0  0  0  0  0  0  0  0  0  0
  137.7310   72.0460  223.0980 N   0  0  0  0  0  0  0  0  0  0  0  0
  138.3230   70.7570  222.8840 C   0  0  0  0  0  0  0  0  0  0  0  0
  138.3760   70.2360  221.7220 O   0  0  0  0  0  0  0  0  0  0  0  0
  138.8700   70.0500  224.0470 C   0  0  0  0  0  0  0  0  0  0  0  0
  138.8030   68.6780  224.0850 C   0  0  0  0  0  0  0  0  0  0  0  0
  139.3290   68.0230  225.2010 C   0  0  0  0  0  0  0  0  0  0  0  0
  139.9020   68.7150  226.2410 C   0  0  0  0  0  0  0  0  0  0  0  0
  140.4330   68.1210  227.3600 C   0  0  0  0  0  0  0  0  0  0  0  0
  140.9880   68.9140  228.3520 C   0  0  0  0  0  0  0  0  0  0  0  0
  141.0260   70.2920  228.2580 C   0  0  0  0  0  0  0  0  0  0  0  0
  140.4910   70.8920  227.1310 C   0  0  0  0  0  0  0  0  0  0  0  0
  139.9400   70.0890  226.1470 C   0  0  0  0  0  0  0  0  0  0  0  0
  139.4340   70.7060  225.0740 N   0  0  0  0  0  0  0  0  0  0  0  0
  135.4077   76.5168  220.7494 H   0  0  0  0  0  0  0  0  0  0  0  0
  136.9976   76.3768  219.9253 H   0  0  0  0  0  0  0  0  0  0  0  0
  135.8606   74.9863  219.9253 H   0  0  0  0  0  0  0  0  0  0  0  0
  137.5137   77.3434  222.0565 H   0  0  0  0  0  0  0  0  0  0  0  0
  137.6367   76.2631  223.4768 H   0  0  0  0  0  0  0  0  0  0  0  0
  138.8597   77.1183  219.3704 H   0  0  0  0  0  0  0  0  0  0  0  0
  138.6677   78.5188  220.4218 H   0  0  0  0  0  0  0  0  0  0  0  0
  140.6132   78.2244  218.4163 H   0  0  0  0  0  0  0  0  0  0  0  0
  140.7112   79.4068  219.7288 H   0  0  0  0  0  0  0  0  0  0  0  0
  141.9709   76.6121  219.5522 H   0  0  0  0  0  0  0  0  0  0  0  0
  142.7490   78.0687  220.0942 H   0  0  0  0  0  0  0  0  0  0  0  0
  141.7863   76.4572  222.0247 H   0  0  0  0  0  0  0  0  0  0  0  0
  143.8014   80.6787  223.1081 H   0  0  0  0  0  0  0  0  0  0  0  0
  139.6756   80.4811  224.4294 H   0  0  0  0  0  0  0  0  0  0  0  0
  136.3428   72.2080  221.6185 H   0  0  0  0  0  0  0  0  0  0  0  0
  138.0129   72.9850  221.3551 H   0  0  0  0  0  0  0  0  0  0  0  0
  137.7180   72.4290  224.0710 H   0  0  0  0  0  0  0  0  0  0  0  0
  138.3477   68.1112  223.2595 H   0  0  0  0  0  0  0  0  0  0  0  0
  139.2834   66.9250  225.2487 H   0  0  0  0  0  0  0  0  0  0  0  0
  140.4179   67.0264  227.4677 H   0  0  0  0  0  0  0  0  0  0  0  0
  141.4125   68.4301  229.2440 H   0  0  0  0  0  0  0  0  0  0  0  0
  141.4713   70.8985  229.0604 H   0  0  0  0  0  0  0  0  0  0  0  0
  140.5034   71.9863  227.0194 H   0  0  0  0  0  0  0  0  0  0  0  0
  1  2  1  0
  2  3  1  0
  3  4  1  0
  4  5  2  0
  4  6  1  0
  6  7  1  0
  7  8  1  0
  8  9  1  0
  9 10  1  0
 10 11  1  0
 11 12  2  0
 12 13  1  0
 13 14  2  0
 14 15  1  0
 14 16  1  0
 16 17  2  0
  2 18  1  0
 18 19  2  0
 18 20  1  0
 20 21  1  0
 21 22  1  0
 22 23  2  0
 22 24  1  0
 24 25  2  0
 25 26  1  0
 26 27  2  0
 27 28  1  0
 28 29  2  0
 29 30  1  0
 30 31  2  0
 31 32  1  0
 32 33  2  0
 10  6  1  0
 17 11  1  0
 33 24  1  0
 32 27  1  0
  1 34  1  0
  1 35  1  0
  1 36  1  0
  3 37  1  0
  3 38  1  0
  7 39  1  0
  7 40  1  0
  8 41  1  0
  8 42  1  0
  9 43  1  0
  9 44  1  0
 10 45  1  1
 13 46  1  0
 16 47  1  0
 20 48  1  0
 20 49  1  0
 21 50  1  0
 25 51  1  0
 26 52  1  0
 28 53  1  0
 29 54  1  0
 30 55  1  0
 31 56  1  0
M  END
>  <smiles>  (14) 
CN(CC(=O)N1CCC[C@H]1c1ncc(F)cn1)C(=O)CNC(=O)c1ccc2ccccc2n1

>  <score_type>  (14) 
oracle

>  <origin>  (14) 
autodockgpu

>  <m_score__min__energy>  (14) 
-8.4700000000000006

>  <m_primary>  (14) 
energy

>  <rmsd>  (14) 
2.6943995779521486

>  <m_score__min__rmsd>  (14) 
2.6943995779521486

>  <meeko>  (14) 
{"free_energy": -7.9, "intermolecular_energy": -10.29, "internal_energy": -2.17, "cluster_size": 18, "cluster_id": 4, "rank_in_cluster": 5}

>  <energy>  (14) 
-7.75

>  <cluster_rmsd>  (14) 
1.64

>  <cluster>  (14) 
2

$$$$

     RDKit          3D

 56 59  0  0  0  0  0  0  0  0999 V2000
  138.8620   75.3180  219.1090 C   0  0  0  0  0  0  0  0  0  0  0  0
  138.4770   75.2650  220.4870 N   0  0  0  0  0  0  0  0  0  0  0  0
  137.6580   76.4200  220.9420 C   0  0  0  0  0  0  0  0  0  0  0  0
  138.5280   77.3340  221.7240 C   0  0  0  0  0  0  0  0  0  0  0  0
  138.1850   77.6600  222.8860 O   0  0  0  0  0  0  0  0  0  0  0  0
  139.7210   77.7940  221.0960 N   0  0  0  0  0  0  0  0  0  0  0  0
  139.8650   78.5160  219.8330 C   0  0  0  0  0  0  0  0  0  0  0  0
  141.3300   78.4620  219.5330 C   0  0  0  0  0  0  0  0  0  0  0  0
  141.9040   77.4000  220.4660 C   0  0  0  0  0  0  0  0  0  0  0  0
  141.0410   77.5860  221.6800 C   0  0  1  0  0  0  0  0  0  0  0  0
  141.4950   78.7720  222.4370 C   0  0  0  0  0  0  0  0  0  0  0  0
  140.5610   79.4890  223.0820 N   0  0  0  0  0  0  0  0  0  0  0  0
  140.8770   80.5950  223.8060 C   0  0  0  0  0  0  0  0  0  0  0  0
  142.2090   80.9580  223.8550 C   0  0  0  0  0  0  0  0  0  0  0  0
  142.5160   82.0640  224.5790 F   0  0  0  0  0  0  0  0  0  0  0  0
  143.2000   80.2410  223.2020 C   0  0  0  0  0  0  0  0  0  0  0  0
  142.7980   79.1490  222.5020 N   0  0  0  0  0  0  0  0  0  0  0  0
  138.7780   74.2870  221.4360 C   0  0  0  0  0  0  0  0  0  0  0  0
  139.6530   74.6450  222.3360 O   0  0  0  0  0  0  0  0  0  0  0  0
  138.2860   72.9290  221.6140 C   0  0  0  0  0  0  0  0  0  0  0  0
  138.7430   72.2050  222.7410 N   0  0  0  0  0  0  0  0  0  0  0  0
  138.4450   70.8130  222.9210 C   0  0  0  0  0  0  0  0  0  0  0  0
  137.7580   70.1660  222.0650 O   0  0  0  0  0  0  0  0  0  0  0  0
  138.9560   70.1510  224.1250 C   0  0  0  0  0  0  0  0  0  0  0  0
  138.8120   68.7900  224.2490 C   0  0  0  0  0  0  0  0  0  0  0  0
  139.3060   68.1780  225.4040 C   0  0  0  0  0  0  0  0  0  0  0  0
  139.9220   68.9000  226.3980 C   0  0  0  0  0  0  0  0  0  0  0  0
  140.4250   68.3480  227.5510 C   0  0  0  0  0  0  0  0  0  0  0  0
  141.0280   69.1680  228.4900 C   0  0  0  0  0  0  0  0  0  0  0  0
  141.1440   70.5330  228.3090 C   0  0  0  0  0  0  0  0  0  0  0  0
  140.6380   71.0910  227.1480 C   0  0  0  0  0  0  0  0  0  0  0  0
  140.0380   70.2600  226.2170 C   0  0  0  0  0  0  0  0  0  0  0  0
  139.5610   70.8370  225.1080 N   0  0  0  0  0  0  0  0  0  0  0  0
  139.9494   75.4677  219.0376 H   0  0  0  0  0  0  0  0  0  0  0  0
  138.5887   74.3738  218.6153 H   0  0  0  0  0  0  0  0  0  0  0  0
  138.3437   76.1533  218.6153 H   0  0  0  0  0  0  0  0  0  0  0  0
  137.2495   76.9519  220.0701 H   0  0  0  0  0  0  0  0  0  0  0  0
  136.8231   76.0681  221.5658 H   0  0  0  0  0  0  0  0  0  0  0  0
  139.2870   78.0245  219.0365 H   0  0  0  0  0  0  0  0  0  0  0  0
  139.4898   79.5480  219.8970 H   0  0  0  0  0  0  0  0  0  0  0  0
  141.4962   78.1801  218.4828 H   0  0  0  0  0  0  0  0  0  0  0  0
  141.8117   79.4391  219.6852 H   0  0  0  0  0  0  0  0  0  0  0  0
  141.7947   76.3901  220.0439 H   0  0  0  0  0  0  0  0  0  0  0  0
  142.9825   77.5007  220.6575 H   0  0  0  0  0  0  0  0  0  0  0  0
  141.0646   76.7478  222.3919 H   0  0  0  0  0  0  0  0  0  0  0  0
  140.1047   81.1765  224.3308 H   0  0  0  0  0  0  0  0  0  0  0  0
  144.2572   80.5412  223.2486 H   0  0  0  0  0  0  0  0  0  0  0  0
  137.1894   72.9833  221.6813 H   0  0  0  0  0  0  0  0  0  0  0  0
  138.6810   72.3752  220.7496 H   0  0  0  0  0  0  0  0  0  0  0  0
  139.3160   72.6860  223.4710 H   0  0  0  0  0  0  0  0  0  0  0  0
  138.3217   68.1991  223.4613 H   0  0  0  0  0  0  0  0  0  0  0  0
  139.1990   67.0895  225.5207 H   0  0  0  0  0  0  0  0  0  0  0  0
  140.3495   67.2648  227.7267 H   0  0  0  0  0  0  0  0  0  0  0  0
  141.4279   68.7178  229.4105 H   0  0  0  0  0  0  0  0  0  0  0  0
  141.6277   71.1621  229.0707 H   0  0  0  0  0  0  0  0  0  0  0  0
  140.7111   72.1738  226.9683 H   0  0  0  0  0  0  0  0  0  0  0  0
  1  2  1  0
  2  3  1  0
  3  4  1  0
  4  5  2  0
  4  6  1  0
  6  7  1  0
  7  8  1  0
  8  9  1  0
  9 10  1  0
 10 11  1  0
 11 12  2  0
 12 13  1  0
 13 14  2  0
 14 15  1  0
 14 16  1  0
 16 17  2  0
  2 18  1  0
 18 19  2  0
 18 20  1  0
 20 21  1  0
 21 22  1  0
 22 23  2  0
 22 24  1  0
 24 25  2  0
 25 26  1  0
 26 27  2  0
 27 28  1  0
 28 29  2  0
 29 30  1  0
 30 31  2  0
 31 32  1  0
 32 33  2  0
 10  6  1  0
 17 11  1  0
 33 24  1  0
 32 27  1  0
  1 34  1  0
  1 35  1  0
  1 36  1  0
  3 37  1  0
  3 38  1  0
  7 39  1  0
  7 40  1  0
  8 41  1  0
  8 42  1  0
  9 43  1  0
  9 44  1  0
 10 45  1  1
 13 46  1  0
 16 47  1  0
 20 48  1  0
 20 49  1  0
 21 50  1  0
 25 51  1  0
 26 52  1  0
 28 53  1  0
 29 54  1  0
 30 55  1  0
 31 56  1  0
M  END
>  <smiles>  (15) 
CN(CC(=O)N1CCC[C@H]1c1ncc(F)cn1)C(=O)CNC(=O)c1ccc2ccccc2n1

>  <score_type>  (15) 
oracle

>  <origin>  (15) 
autodockgpu

>  <m_score__min__energy>  (15) 
-8.4700000000000006

>  <m_primary>  (15) 
energy

>  <rmsd>  (15) 
2.0246598444588435

>  <m_score__min__rmsd>  (15) 
2.0246598444588435

>  <meeko>  (15) 
{"free_energy": -7.93, "intermolecular_energy": -10.32, "internal_energy": -2.73, "cluster_size": 18, "cluster_id": 4, "rank_in_cluster": 3}

>  <energy>  (15) 
-7.75

>  <cluster_rmsd>  (15) 
0.93

>  <cluster>  (15) 
2

$$$$

     RDKit          3D

 56 59  0  0  0  0  0  0  0  0999 V2000
  140.8270   74.8840  218.1970 C   0  0  0  0  0  0  0  0  0  0  0  0
  141.2400   74.2170  219.3950 N   0  0  0  0  0  0  0  0  0  0  0  0
  141.7550   75.1230  220.4570 C   0  0  0  0  0  0  0  0  0  0  0  0
  140.7640   75.1640  221.5600 C   0  0  0  0  0  0  0  0  0  0  0  0
  140.6450   74.1680  222.3140 O   0  0  0  0  0  0  0  0  0  0  0  0
  139.9930   76.3540  221.7000 N   0  0  0  0  0  0  0  0  0  0  0  0
  138.7640   76.5580  222.4640 C   0  0  0  0  0  0  0  0  0  0  0  0
  138.2490   77.8850  222.0030 C   0  0  0  0  0  0  0  0  0  0  0  0
  139.0280   78.2120  220.7330 C   0  0  0  0  0  0  0  0  0  0  0  0
  140.3640   77.6060  221.0500 C   0  0  1  0  0  0  0  0  0  0  0  0
  141.1100   78.4950  221.9650 C   0  0  0  0  0  0  0  0  0  0  0  0
  141.7510   79.5440  221.4230 N   0  0  0  0  0  0  0  0  0  0  0  0
  142.4640   80.4190  222.1800 C   0  0  0  0  0  0  0  0  0  0  0  0
  142.5050   80.1890  223.5410 C   0  0  0  0  0  0  0  0  0  0  0  0
  143.2200   81.0680  224.2890 F   0  0  0  0  0  0  0  0  0  0  0  0
  141.8560   79.1170  224.1350 C   0  0  0  0  0  0  0  0  0  0  0  0
  141.1660   78.2910  223.3070 N   0  0  0  0  0  0  0  0  0  0  0  0
  141.2260   72.8500  219.6780 C   0  0  0  0  0  0  0  0  0  0  0  0
  142.3560   72.2330  219.4640 O   0  0  0  0  0  0  0  0  0  0  0  0
  140.1750   71.9780  220.1800 C   0  0  0  0  0  0  0  0  0  0  0  0
  140.1920   71.6500  221.5560 N   0  0  0  0  0  0  0  0  0  0  0  0
  139.5890   70.4480  222.0580 C   0  0  0  0  0  0  0  0  0  0  0  0
  139.0160   69.6190  221.2790 O   0  0  0  0  0  0  0  0  0  0  0  0
  139.6510   70.2000  223.5020 C   0  0  0  0  0  0  0  0  0  0  0  0
  139.0620   69.0660  224.0080 C   0  0  0  0  0  0  0  0  0  0  0  0
  139.1320   68.8470  225.3860 C   0  0  0  0  0  0  0  0  0  0  0  0
  139.7680   69.7290  226.2270 C   0  0  0  0  0  0  0  0  0  0  0  0
  139.8650   69.5610  227.5870 C   0  0  0  0  0  0  0  0  0  0  0  0
  140.5310   70.5120  228.3430 C   0  0  0  0  0  0  0  0  0  0  0  0
  141.1040   71.6350  227.7760 C   0  0  0  0  0  0  0  0  0  0  0  0
  141.0060   71.8050  226.4060 C   0  0  0  0  0  0  0  0  0  0  0  0
  140.3400   70.8470  225.6620 C   0  0  0  0  0  0  0  0  0  0  0  0
  140.2670   71.0470  224.3410 N   0  0  0  0  0  0  0  0  0  0  0  0
  140.2645   75.7924  218.4584 H   0  0  0  0  0  0  0  0  0  0  0  0
  141.7132   75.1588  217.6062 H   0  0  0  0  0  0  0  0  0  0  0  0
  140.1860   74.2131  217.6062 H   0  0  0  0  0  0  0  0  0  0  0  0
  142.7158   74.7436  220.8350 H   0  0  0  0  0  0  0  0  0  0  0  0
  141.9085   76.1332  220.0497 H   0  0  0  0  0  0  0  0  0  0  0  0
  138.0358   75.7624  222.2478 H   0  0  0  0  0  0  0  0  0  0  0  0
  138.9387   76.5326  223.5498 H   0  0  0  0  0  0  0  0  0  0  0  0
  137.1720   77.8245  221.7874 H   0  0  0  0  0  0  0  0  0  0  0  0
  138.3814   78.6609  222.7714 H   0  0  0  0  0  0  0  0  0  0  0  0
  138.5722   77.7438  219.8481 H   0  0  0  0  0  0  0  0  0  0  0  0
  139.0639   79.2836  220.4873 H   0  0  0  0  0  0  0  0  0  0  0  0
  141.0175   77.4559  220.1780 H   0  0  0  0  0  0  0  0  0  0  0  0
  142.9866   81.2746  221.7275 H   0  0  0  0  0  0  0  0  0  0  0  0
  141.8980   78.9447  225.2206 H   0  0  0  0  0  0  0  0  0  0  0  0
  139.2133   72.4696  219.9716 H   0  0  0  0  0  0  0  0  0  0  0  0
  140.3396   71.0203  219.6646 H   0  0  0  0  0  0  0  0  0  0  0  0
  140.6540   72.2940  222.2390 H   0  0  0  0  0  0  0  0  0  0  0  0
  138.5501   68.3513  223.3469 H   0  0  0  0  0  0  0  0  0  0  0  0
  138.6659   67.9450  225.8092 H   0  0  0  0  0  0  0  0  0  0  0  0
  139.4183   68.6800  228.0710 H   0  0  0  0  0  0  0  0  0  0  0  0
  140.6064   70.3686  229.4310 H   0  0  0  0  0  0  0  0  0  0  0  0
  141.6257   72.3762  228.3992 H   0  0  0  0  0  0  0  0  0  0  0  0
  141.4493   72.6853  225.9176 H   0  0  0  0  0  0  0  0  0  0  0  0
  1  2  1  0
  2  3  1  0
  3  4  1  0
  4  5  2  0
  4  6  1  0
  6  7  1  0
  7  8  1  0
  8  9  1  0
  9 10  1  0
 10 11  1  0
 11 12  2  0
 12 13  1  0
 13 14  2  0
 14 15  1  0
 14 16  1  0
 16 17  2  0
  2 18  1  0
 18 19  2  0
 18 20  1  0
 20 21  1  0
 21 22  1  0
 22 23  2  0
 22 24  1  0
 24 25  2  0
 25 26  1  0
 26 27  2  0
 27 28  1  0
 28 29  2  0
 29 30  1  0
 30 31  2  0
 31 32  1  0
 32 33  2  0
 10  6  1  0
 17 11  1  0
 33 24  1  0
 32 27  1  0
  1 34  1  0
  1 35  1  0
  1 36  1  0
  3 37  1  0
  3 38  1  0
  7 39  1  0
  7 40  1  0
  8 41  1  0
  8 42  1  0
  9 43  1  0
  9 44  1  0
 10 45  1  6
 13 46  1  0
 16 47  1  0
 20 48  1  0
 20 49  1  0
 21 50  1  0
 25 51  1  0
 26 52  1  0
 28 53  1  0
 29 54  1  0
 30 55  1  0
 31 56  1  0
M  END
>  <smiles>  (16) 
CN(CC(=O)N1CCC[C@H]1c1ncc(F)cn1)C(=O)CNC(=O)c1ccc2ccccc2n1

>  <score_type>  (16) 
oracle

>  <origin>  (16) 
autodockgpu

>  <m_score__min__energy>  (16) 
-8.4700000000000006

>  <m_primary>  (16) 
energy

>  <rmsd>  (16) 
2.857952916512848

>  <m_score__min__rmsd>  (16) 
2.857952916512848

>  <meeko>  (16) 
{"free_energy": -7.56, "intermolecular_energy": -9.95, "internal_energy": -2.85, "cluster_size": 18, "cluster_id": 4, "rank_in_cluster": 16}

>  <energy>  (16) 
-7.7

>  <cluster_rmsd>  (16) 
1.74

>  <cluster>  (16) 
2

$$$$

     RDKit          3D

 56 59  0  0  0  0  0  0  0  0999 V2000
  135.9500   74.9770  223.0840 C   0  0  0  0  0  0  0  0  0  0  0  0
  137.0790   75.1790  222.2260 N   0  0  0  0  0  0  0  0  0  0  0  0
  137.8830   76.3900  222.5430 C   0  0  0  0  0  0  0  0  0  0  0  0
  139.2940   76.1290  222.1630 C   0  0  0  0  0  0  0  0  0  0  0  0
  139.8510   75.0790  222.5630 O   0  0  0  0  0  0  0  0  0  0  0  0
  139.9420   77.1050  221.3530 N   0  0  0  0  0  0  0  0  0  0  0  0
  139.3790   77.9050  220.2660 C   0  0  0  0  0  0  0  0  0  0  0  0
  140.5680   78.5160  219.5920 C   0  0  0  0  0  0  0  0  0  0  0  0
  141.7780   77.7460  220.1140 C   0  0  0  0  0  0  0  0  0  0  0  0
  141.3480   77.4520  221.5220 C   0  0  1  0  0  0  0  0  0  0  0  0
  141.5160   78.6610  222.3570 C   0  0  0  0  0  0  0  0  0  0  0  0
  142.7490   79.1850  222.4470 N   0  0  0  0  0  0  0  0  0  0  0  0
  143.0060   80.2940  223.1900 C   0  0  0  0  0  0  0  0  0  0  0  0
  141.9410   80.8690  223.8540 C   0  0  0  0  0  0  0  0  0  0  0  0
  142.2060   81.9760  224.5930 F   0  0  0  0  0  0  0  0  0  0  0  0
  140.6550   80.3560  223.7830 C   0  0  0  0  0  0  0  0  0  0  0  0
  140.4850   79.2460  223.0200 N   0  0  0  0  0  0  0  0  0  0  0  0
  137.5030   74.4000  221.1480 C   0  0  0  0  0  0  0  0  0  0  0  0
  137.2570   74.9110  219.9720 O   0  0  0  0  0  0  0  0  0  0  0  0
  138.1810   73.1140  221.0920 C   0  0  0  0  0  0  0  0  0  0  0  0
  138.6160   72.5450  222.3120 N   0  0  0  0  0  0  0  0  0  0  0  0
  138.6550   71.1250  222.5160 C   0  0  0  0  0  0  0  0  0  0  0  0
  138.3030   70.3140  221.5990 O   0  0  0  0  0  0  0  0  0  0  0  0
  139.1130   70.6310  223.8180 C   0  0  0  0  0  0  0  0  0  0  0  0
  138.8990   69.3130  224.1430 C   0  0  0  0  0  0  0  0  0  0  0  0
  139.3430   68.8610  225.3880 C   0  0  0  0  0  0  0  0  0  0  0  0
  139.9790   69.6950  226.2750 C   0  0  0  0  0  0  0  0  0  0  0  0
  140.4360   69.3020  227.5100 C   0  0  0  0  0  0  0  0  0  0  0  0
  141.0660   70.2260  228.3280 C   0  0  0  0  0  0  0  0  0  0  0  0
  141.2530   71.5410  227.9450 C   0  0  0  0  0  0  0  0  0  0  0  0
  140.7940   71.9390  226.7010 C   0  0  0  0  0  0  0  0  0  0  0  0
  140.1670   71.0050  225.8940 C   0  0  0  0  0  0  0  0  0  0  0  0
  139.7380   71.4280  224.6990 N   0  0  0  0  0  0  0  0  0  0  0  0
  136.2725   75.0347  224.1341 H   0  0  0  0  0  0  0  0  0  0  0  0
  135.1970   75.7547  222.8884 H   0  0  0  0  0  0  0  0  0  0  0  0
  135.5134   73.9865  222.8884 H   0  0  0  0  0  0  0  0  0  0  0  0
  137.4985   77.2502  221.9753 H   0  0  0  0  0  0  0  0  0  0  0  0
  137.8169   76.6167  223.6174 H   0  0  0  0  0  0  0  0  0  0  0  0
  138.8196   77.2684  219.5647 H   0  0  0  0  0  0  0  0  0  0  0  0
  138.6703   78.6634  220.6300 H   0  0  0  0  0  0  0  0  0  0  0  0
  140.4871   78.4093  218.5002 H   0  0  0  0  0  0  0  0  0  0  0  0
  140.6479   79.5921  219.8055 H   0  0  0  0  0  0  0  0  0  0  0  0
  141.9456   76.8216  219.5419 H   0  0  0  0  0  0  0  0  0  0  0  0
  142.7297   78.2920  220.0362 H   0  0  0  0  0  0  0  0  0  0  0  0
  141.9246   76.6598  222.0219 H   0  0  0  0  0  0  0  0  0  0  0  0
  144.0197   80.7154  223.2592 H   0  0  0  0  0  0  0  0  0  0  0  0
  139.8154   80.8243  224.3175 H   0  0  0  0  0  0  0  0  0  0  0  0
  137.4891   72.3982  220.6242 H   0  0  0  0  0  0  0  0  0  0  0  0
  139.1071   73.3127  220.5327 H   0  0  0  0  0  0  0  0  0  0  0  0
  138.9210   73.1660  223.0970 H   0  0  0  0  0  0  0  0  0  0  0  0
  138.3923   68.6330  223.4424 H   0  0  0  0  0  0  0  0  0  0  0  0
  139.1790   67.8093  225.6654 H   0  0  0  0  0  0  0  0  0  0  0  0
  140.3028   68.2631  227.8461 H   0  0  0  0  0  0  0  0  0  0  0  0
  141.4293   69.9025  229.3146 H   0  0  0  0  0  0  0  0  0  0  0  0
  141.7554   72.2553  228.6138 H   0  0  0  0  0  0  0  0  0  0  0  0
  140.9249   72.9768  226.3605 H   0  0  0  0  0  0  0  0  0  0  0  0
  1  2  1  0
  2  3  1  0
  3  4  1  0
  4  5  2  0
  4  6  1  0
  6  7  1  0
  7  8  1  0
  8  9  1  0
  9 10  1  0
 10 11  1  0
 11 12  2  0
 12 13  1  0
 13 14  2  0
 14 15  1  0
 14 16  1  0
 16 17  2  0
  2 18  1  0
 18 19  2  0
 18 20  1  0
 20 21  1  0
 21 22  1  0
 22 23  2  0
 22 24  1  0
 24 25  2  0
 25 26  1  0
 26 27  2  0
 27 28  1  0
 28 29  2  0
 29 30  1  0
 30 31  2  0
 31 32  1  0
 32 33  2  0
 10  6  1  0
 17 11  1  0
 33 24  1  0
 32 27  1  0
  1 34  1  0
  1 35  1  0
  1 36  1  0
  3 37  1  0
  3 38  1  0
  7 39  1  0
  7 40  1  0
  8 41  1  0
  8 42  1  0
  9 43  1  0
  9 44  1  0
 10 45  1  1
 13 46  1  0
 16 47  1  0
 20 48  1  0
 20 49  1  0
 21 50  1  0
 25 51  1  0
 26 52  1  0
 28 53  1  0
 29 54  1  0
 30 55  1  0
 31 56  1  0
M  END
>  <smiles>  (17) 
CN(CC(=O)N1CCC[C@H]1c1ncc(F)cn1)C(=O)CNC(=O)c1ccc2ccccc2n1

>  <score_type>  (17) 
oracle

>  <origin>  (17) 
autodockgpu

>  <m_score__min__energy>  (17) 
-8.4700000000000006

>  <m_primary>  (17) 
energy

>  <rmsd>  (17) 
2.810811235885639

>  <m_score__min__rmsd>  (17) 
2.810811235885639

>  <meeko>  (17) 
{"free_energy": -7.94, "intermolecular_energy": -10.33, "internal_energy": -2.81, "cluster_size": 18, "cluster_id": 4, "rank_in_cluster": 2}

>  <energy>  (17) 
-7.43

>  <cluster_rmsd>  (17) 
1.75

>  <cluster>  (17) 
2

$$$$

     RDKit          3D

 56 59  0  0  0  0  0  0  0  0999 V2000
  135.7950   74.9930  222.8050 C   0  0  0  0  0  0  0  0  0  0  0  0
  137.0090   75.0740  222.0510 N   0  0  0  0  0  0  0  0  0  0  0  0
  137.8710   76.2370  222.3950 C   0  0  0  0  0  0  0  0  0  0  0  0
  139.2890   75.8000  222.3540 C   0  0  0  0  0  0  0  0  0  0  0  0
  139.5780   74.6300  222.7030 O   0  0  0  0  0  0  0  0  0  0  0  0
  140.2520   76.7520  221.9130 N   0  0  0  0  0  0  0  0  0  0  0  0
  141.0640   77.6650  222.7150 C   0  0  0  0  0  0  0  0  0  0  0  0
  141.6500   78.6190  221.7230 C   0  0  0  0  0  0  0  0  0  0  0  0
  140.8550   78.4170  220.4360 C   0  0  0  0  0  0  0  0  0  0  0  0
  140.5690   76.9460  220.5020 C   0  0  1  0  0  0  0  0  0  0  0  0
  141.7730   76.1850  220.1040 C   0  0  0  0  0  0  0  0  0  0  0  0
  142.0480   75.0610  220.7860 N   0  0  0  0  0  0  0  0  0  0  0  0
  143.1300   74.2920  220.4960 C   0  0  0  0  0  0  0  0  0  0  0  0
  143.9460   74.7130  219.4640 C   0  0  0  0  0  0  0  0  0  0  0  0
  145.0250   73.9400  219.1820 F   0  0  0  0  0  0  0  0  0  0  0  0
  143.6920   75.8680  218.7400 C   0  0  0  0  0  0  0  0  0  0  0  0
  142.5900   76.5780  219.0930 N   0  0  0  0  0  0  0  0  0  0  0  0
  137.4700   74.2180  221.0500 C   0  0  0  0  0  0  0  0  0  0  0  0
  137.5740   74.7610  219.8680 O   0  0  0  0  0  0  0  0  0  0  0  0
  137.8650   72.8180  221.0810 C   0  0  0  0  0  0  0  0  0  0  0  0
  138.3230   72.2900  222.3120 N   0  0  0  0  0  0  0  0  0  0  0  0
  138.6790   70.9070  222.4590 C   0  0  0  0  0  0  0  0  0  0  0  0
  138.6040   70.0960  221.4800 O   0  0  0  0  0  0  0  0  0  0  0  0
  139.1350   70.4520  223.7760 C   0  0  0  0  0  0  0  0  0  0  0  0
  138.9350   69.1400  224.1340 C   0  0  0  0  0  0  0  0  0  0  0  0
  139.3770   68.7260  225.3920 C   0  0  0  0  0  0  0  0  0  0  0  0
  139.9970   69.5910  226.2620 C   0  0  0  0  0  0  0  0  0  0  0  0
  140.4500   69.2350  227.5090 C   0  0  0  0  0  0  0  0  0  0  0  0
  141.0630   70.1880  228.3060 C   0  0  0  0  0  0  0  0  0  0  0  0
  141.2360   71.4950  227.8910 C   0  0  0  0  0  0  0  0  0  0  0  0
  140.7800   71.8550  226.6350 C   0  0  0  0  0  0  0  0  0  0  0  0
  140.1710   70.8930  225.8480 C   0  0  0  0  0  0  0  0  0  0  0  0
  139.7440   71.2800  224.6400 N   0  0  0  0  0  0  0  0  0  0  0  0
  136.0291   75.0086  223.8797 H   0  0  0  0  0  0  0  0  0  0  0  0
  135.1517   75.8502  222.5574 H   0  0  0  0  0  0  0  0  0  0  0  0
  135.2713   74.0579  222.5574 H   0  0  0  0  0  0  0  0  0  0  0  0
  137.7107   77.0460  221.6671 H   0  0  0  0  0  0  0  0  0  0  0  0
  137.6198   76.6086  223.3994 H   0  0  0  0  0  0  0  0  0  0  0  0
  140.4398   78.1997  223.4461 H   0  0  0  0  0  0  0  0  0  0  0  0
  141.8368   77.1375  223.2934 H   0  0  0  0  0  0  0  0  0  0  0  0
  141.5463   79.6545  222.0793 H   0  0  0  0  0  0  0  0  0  0  0  0
  142.7238   78.4364  221.5697 H   0  0  0  0  0  0  0  0  0  0  0  0
  139.9278   79.0089  220.4371 H   0  0  0  0  0  0  0  0  0  0  0  0
  141.3813   78.7354  219.5241 H   0  0  0  0  0  0  0  0  0  0  0  0
  139.7643   76.6056  219.8338 H   0  0  0  0  0  0  0  0  0  0  0  0
  143.3471   73.3726  221.0595 H   0  0  0  0  0  0  0  0  0  0  0  0
  144.3504   76.1927  217.9208 H   0  0  0  0  0  0  0  0  0  0  0  0
  136.9921   72.2236  220.7732 H   0  0  0  0  0  0  0  0  0  0  0  0
  138.7368   72.7605  220.4126 H   0  0  0  0  0  0  0  0  0  0  0  0
  138.4080   72.9140  223.1460 H   0  0  0  0  0  0  0  0  0  0  0  0
  138.4406   68.4360  223.4485 H   0  0  0  0  0  0  0  0  0  0  0  0
  139.2250   67.6795  225.6951 H   0  0  0  0  0  0  0  0  0  0  0  0
  140.3272   68.2036  227.8711 H   0  0  0  0  0  0  0  0  0  0  0  0
  141.4243   69.8946  229.3027 H   0  0  0  0  0  0  0  0  0  0  0  0
  141.7251   72.2324  228.5444 H   0  0  0  0  0  0  0  0  0  0  0  0
  140.8992   72.8855  226.2692 H   0  0  0  0  0  0  0  0  0  0  0  0
  1  2  1  0
  2  3  1  0
  3  4  1  0
  4  5  2  0
  4  6  1  0
  6  7  1  0
  7  8  1  0
  8  9  1  0
  9 10  1  0
 10 11  1  0
 11 12  2  0
 12 13  1  0
 13 14  2  0
 14 15  1  0
 14 16  1  0
 16 17  2  0
  2 18  1  0
 18 19  2  0
 18 20  1  0
 20 21  1  0
 21 22  1  0
 22 23  2  0
 22 24  1  0
 24 25  2  0
 25 26  1  0
 26 27  2  0
 27 28  1  0
 28 29  2  0
 29 30  1  0
 30 31  2  0
 31 32  1  0
 32 33  2  0
 10  6  1  0
 17 11  1  0
 33 24  1  0
 32 27  1  0
  1 34  1  0
  1 35  1  0
  1 36  1  0
  3 37  1  0
  3 38  1  0
  7 39  1  0
  7 40  1  0
  8 41  1  0
  8 42  1  0
  9 43  1  0
  9 44  1  0
 10 45  1  6
 13 46  1  0
 16 47  1  0
 20 48  1  0
 20 49  1  0
 21 50  1  0
 25 51  1  0
 26 52  1  0
 28 53  1  0
 29 54  1  0
 30 55  1  0
 31 56  1  0
M  END
>  <smiles>  (18) 
CN(CC(=O)N1CCC[C@H]1c1ncc(F)cn1)C(=O)CNC(=O)c1ccc2ccccc2n1

>  <score_type>  (18) 
oracle

>  <origin>  (18) 
autodockgpu

>  <m_score__min__energy>  (18) 
-8.4700000000000006

>  <m_primary>  (18) 
energy

>  <rmsd>  (18) 
2.9616802642658064

>  <m_score__min__rmsd>  (18) 
2.9616802642658064

>  <meeko>  (18) 
{"free_energy": -7.43, "intermolecular_energy": -9.81, "internal_energy": -2.76, "cluster_size": 9, "cluster_id": 2, "rank_in_cluster": 8}

>  <energy>  (18) 
-7.42

>  <cluster_rmsd>  (18) 
1.68

>  <cluster>  (18) 
2

$$$$

     RDKit          3D

 56 59  0  0  0  0  0  0  0  0999 V2000
  145.1040   73.9580  220.4350 C   0  0  0  0  0  0  0  0  0  0  0  0
  143.7960   73.8880  219.8570 N   0  0  0  0  0  0  0  0  0  0  0  0
  143.6280   74.6900  218.6160 C   0  0  0  0  0  0  0  0  0  0  0  0
  143.2560   76.0750  218.9980 C   0  0  0  0  0  0  0  0  0  0  0  0
  143.6350   76.5260  220.1060 O   0  0  0  0  0  0  0  0  0  0  0  0
  142.4800   76.8220  218.0670 N   0  0  0  0  0  0  0  0  0  0  0  0
  141.3060   76.3920  217.3080 C   0  0  0  0  0  0  0  0  0  0  0  0
  141.1030   77.4660  216.2860 C   0  0  0  0  0  0  0  0  0  0  0  0
  142.3920   78.2830  216.2850 C   0  0  0  0  0  0  0  0  0  0  0  0
  142.7820   78.2090  217.7320 C   0  0  1  0  0  0  0  0  0  0  0  0
  141.9590   79.1520  218.5190 C   0  0  0  0  0  0  0  0  0  0  0  0
  142.3870   80.4220  218.6070 N   0  0  0  0  0  0  0  0  0  0  0  0
  141.7010   81.3640  219.3070 C   0  0  0  0  0  0  0  0  0  0  0  0
  140.5360   80.9640  219.9300 C   0  0  0  0  0  0  0  0  0  0  0  0
  139.8580   81.9100  220.6270 F   0  0  0  0  0  0  0  0  0  0  0  0
  140.0650   79.6620  219.8600 C   0  0  0  0  0  0  0  0  0  0  0  0
  140.8090   78.7830  219.1410 N   0  0  0  0  0  0  0  0  0  0  0  0
  142.6810   73.1800  220.3110 C   0  0  0  0  0  0  0  0  0  0  0  0
  142.6770   71.9100  220.0090 O   0  0  0  0  0  0  0  0  0  0  0  0
  141.5140   73.5990  221.0730 C   0  0  0  0  0  0  0  0  0  0  0  0
  141.4620   74.9430  221.5120 N   0  0  0  0  0  0  0  0  0  0  0  0
  140.2390   75.5510  221.9510 C   0  0  0  0  0  0  0  0  0  0  0  0
  139.1440   74.9000  221.9690 O   0  0  0  0  0  0  0  0  0  0  0  0
  140.2830   76.9530  222.3810 C   0  0  0  0  0  0  0  0  0  0  0  0
  139.1060   77.5970  222.6770 C   0  0  0  0  0  0  0  0  0  0  0  0
  139.1700   78.9320  223.0840 C   0  0  0  0  0  0  0  0  0  0  0  0
  140.3670   79.5980  223.1920 C   0  0  0  0  0  0  0  0  0  0  0  0
  140.4850   80.9080  223.5880 C   0  0  0  0  0  0  0  0  0  0  0  0
  141.7430   81.4840  223.6630 C   0  0  0  0  0  0  0  0  0  0  0  0
  142.8930   80.7850  223.3520 C   0  0  0  0  0  0  0  0  0  0  0  0
  142.7760   79.4640  222.9530 C   0  0  0  0  0  0  0  0  0  0  0  0
  141.5140   78.9010  222.8820 C   0  0  0  0  0  0  0  0  0  0  0  0
  141.4410   77.6220  222.4930 N   0  0  0  0  0  0  0  0  0  0  0  0
  145.0209   73.9536  221.5318 H   0  0  0  0  0  0  0  0  0  0  0  0
  145.6960   73.0903  220.1086 H   0  0  0  0  0  0  0  0  0  0  0  0
  145.6000   74.8840  220.1086 H   0  0  0  0  0  0  0  0  0  0  0  0
  144.5717   74.7016  218.0509 H   0  0  0  0  0  0  0  0  0  0  0  0
  142.8423   74.2487  217.9852 H   0  0  0  0  0  0  0  0  0  0  0  0
  141.4917   75.4231  216.8215 H   0  0  0  0  0  0  0  0  0  0  0  0
  140.4227   76.2537  217.9488 H   0  0  0  0  0  0  0  0  0  0  0  0
  140.9283   77.0237  215.2941 H   0  0  0  0  0  0  0  0  0  0  0  0
  140.2272   78.0891  216.5199 H   0  0  0  0  0  0  0  0  0  0  0  0
  143.1567   77.8295  215.6373 H   0  0  0  0  0  0  0  0  0  0  0  0
  142.2786   79.3067  215.8987 H   0  0  0  0  0  0  0  0  0  0  0  0
  143.8282   78.4787  217.9388 H   0  0  0  0  0  0  0  0  0  0  0  0
  142.0594   82.4018  219.3742 H   0  0  0  0  0  0  0  0  0  0  0  0
  139.1351   79.3564  220.3619 H   0  0  0  0  0  0  0  0  0  0  0  0
  140.6300   73.4253  220.4418 H   0  0  0  0  0  0  0  0  0  0  0  0
  141.5593   73.0062  221.9985 H   0  0  0  0  0  0  0  0  0  0  0  0
  142.3330   75.5220  221.5220 H   0  0  0  0  0  0  0  0  0  0  0  0
  138.1405   77.0762  222.5958 H   0  0  0  0  0  0  0  0  0  0  0  0
  138.2376   79.4639  223.3243 H   0  0  0  0  0  0  0  0  0  0  0  0
  139.5897   81.4940  223.8430 H   0  0  0  0  0  0  0  0  0  0  0  0
  141.8287   82.5335  223.9810 H   0  0  0  0  0  0  0  0  0  0  0  0
  143.8796   81.2667  223.4197 H   0  0  0  0  0  0  0  0  0  0  0  0
  143.6686   78.8740  222.6976 H   0  0  0  0  0  0  0  0  0  0  0  0
  1  2  1  0
  2  3  1  0
  3  4  1  0
  4  5  2  0
  4  6  1  0
  6  7  1  0
  7  8  1  0
  8  9  1  0
  9 10  1  0
 10 11  1  0
 11 12  2  0
 12 13  1  0
 13 14  2  0
 14 15  1  0
 14 16  1  0
 16 17  2  0
  2 18  1  0
 18 19  2  0
 18 20  1  0
 20 21  1  0
 21 22  1  0
 22 23  2  0
 22 24  1  0
 24 25  2  0
 25 26  1  0
 26 27  2  0
 27 28  1  0
 28 29  2  0
 29 30  1  0
 30 31  2  0
 31 32  1  0
 32 33  2  0
 10  6  1  0
 17 11  1  0
 33 24  1  0
 32 27  1  0
  1 34  1  0
  1 35  1  0
  1 36  1  0
  3 37  1  0
  3 38  1  0
  7 39  1  0
  7 40  1  0
  8 41  1  0
  8 42  1  0
  9 43  1  0
  9 44  1  0
 10 45  1  6
 13 46  1  0
 16 47  1  0
 20 48  1  0
 20 49  1  0
 21 50  1  0
 25 51  1  0
 26 52  1  0
 28 53  1  0
 29 54  1  0
 30 55  1  0
 31 56  1  0
M  END
>  <smiles>  (19) 
CN(CC(=O)N1CCC[C@H]1c1ncc(F)cn1)C(=O)CNC(=O)c1ccc2ccccc2n1

>  <score_type>  (19) 
oracle

>  <origin>  (19) 
autodockgpu

>  <m_score__min__energy>  (19) 
-8.4700000000000006

>  <m_primary>  (19) 
energy

>  <rmsd>  (19) 
7.491197143474267

>  <m_score__min__rmsd>  (19) 
7.491197143474267

>  <meeko>  (19) 
{"free_energy": -6.28, "intermolecular_energy": -8.66, "internal_energy": -4.26, "cluster_size": 8, "cluster_id": 5, "rank_in_cluster": 4}

>  <energy>  (19) 
-8.21

>  <cluster_rmsd>  (19) 
0.0

>  <cluster>  (19) 
3

$$$$

     RDKit          3D

 56 59  0  0  0  0  0  0  0  0999 V2000
  140.3300   72.1410  222.8040 C   0  0  0  0  0  0  0  0  0  0  0  0
  139.7600   72.9080  221.7370 N   0  0  0  0  0  0  0  0  0  0  0  0
  140.7300   73.3130  220.6850 C   0  0  0  0  0  0  0  0  0  0  0  0
  141.1610   74.7070  220.9540 C   0  0  0  0  0  0  0  0  0  0  0  0
  141.0710   75.1610  222.1210 O   0  0  0  0  0  0  0  0  0  0  0  0
  141.6590   75.4600  219.8530 N   0  0  0  0  0  0  0  0  0  0  0  0
  141.6060   75.1340  218.4280 C   0  0  0  0  0  0  0  0  0  0  0  0
  142.5370   76.1110  217.7820 C   0  0  0  0  0  0  0  0  0  0  0  0
  143.3510   76.7200  218.9200 C   0  0  0  0  0  0  0  0  0  0  0  0
  142.3340   76.7420  220.0230 C   0  0  1  0  0  0  0  0  0  0  0  0
  141.4070   77.8770  219.8240 C   0  0  0  0  0  0  0  0  0  0  0  0
  141.9440   79.1030  219.7150 N   0  0  0  0  0  0  0  0  0  0  0  0
  141.1770   80.2090  219.5290 C   0  0  0  0  0  0  0  0  0  0  0  0
  139.8100   80.0250  219.4560 C   0  0  0  0  0  0  0  0  0  0  0  0
  139.0510   81.1350  219.2720 F   0  0  0  0  0  0  0  0  0  0  0  0
  139.2210   78.7740  219.5650 C   0  0  0  0  0  0  0  0  0  0  0  0
  140.0600   77.7220  219.7490 N   0  0  0  0  0  0  0  0  0  0  0  0
  138.4360   73.3190  221.5720 C   0  0  0  0  0  0  0  0  0  0  0  0
  137.5400   72.4290  221.9020 O   0  0  0  0  0  0  0  0  0  0  0  0
  137.8640   74.5720  221.1020 C   0  0  0  0  0  0  0  0  0  0  0  0
  138.5260   75.7710  221.4550 N   0  0  0  0  0  0  0  0  0  0  0  0
  138.0100   76.6560  222.4610 C   0  0  0  0  0  0  0  0  0  0  0  0
  136.9310   76.3910  223.0860 O   0  0  0  0  0  0  0  0  0  0  0  0
  138.7630   77.8800  222.7520 C   0  0  0  0  0  0  0  0  0  0  0  0
  138.0740   79.0300  223.0520 C   0  0  0  0  0  0  0  0  0  0  0  0
  138.8090   80.1860  223.3260 C   0  0  0  0  0  0  0  0  0  0  0  0
  140.1830   80.1910  223.3010 C   0  0  0  0  0  0  0  0  0  0  0  0
  140.9530   81.2990  223.5630 C   0  0  0  0  0  0  0  0  0  0  0  0
  142.3330   81.1940  223.5110 C   0  0  0  0  0  0  0  0  0  0  0  0
  142.9710   80.0070  223.2030 C   0  0  0  0  0  0  0  0  0  0  0  0
  142.1960   78.8910  222.9390 C   0  0  0  0  0  0  0  0  0  0  0  0
  140.8180   79.0090  222.9940 C   0  0  0  0  0  0  0  0  0  0  0  0
  140.1050   77.9070  222.7340 N   0  0  0  0  0  0  0  0  0  0  0  0
  140.0151   72.5647  223.7690 H   0  0  0  0  0  0  0  0  0  0  0  0
  139.9854   71.0989  222.7312 H   0  0  0  0  0  0  0  0  0  0  0  0
  141.4272   72.1704  222.7312 H   0  0  0  0  0  0  0  0  0  0  0  0
  141.6028   72.6438  220.7075 H   0  0  0  0  0  0  0  0  0  0  0  0
  140.2590   73.2488  219.6930 H   0  0  0  0  0  0  0  0  0  0  0  0
  141.9438   74.1019  218.2530 H   0  0  0  0  0  0  0  0  0  0  0  0
  140.5855   75.2000  218.0228 H   0  0  0  0  0  0  0  0  0  0  0  0
  143.1988   75.5967  217.0696 H   0  0  0  0  0  0  0  0  0  0  0  0
  141.9902   76.8803  217.2170 H   0  0  0  0  0  0  0  0  0  0  0  0
  144.2148   76.0906  219.1801 H   0  0  0  0  0  0  0  0  0  0  0  0
  143.7884   77.7023  218.6882 H   0  0  0  0  0  0  0  0  0  0  0  0
  142.7549   76.8708  221.0311 H   0  0  0  0  0  0  0  0  0  0  0  0
  141.6260   81.2093  219.4403 H   0  0  0  0  0  0  0  0  0  0  0  0
  138.1307   78.6408  219.5055 H   0  0  0  0  0  0  0  0  0  0  0  0
  137.8310   74.5263  220.0035 H   0  0  0  0  0  0  0  0  0  0  0  0
  136.8869   74.6364  221.6031 H   0  0  0  0  0  0  0  0  0  0  0  0
  139.4180   76.0340  220.9770 H   0  0  0  0  0  0  0  0  0  0  0  0
  136.9743   79.0403  223.0758 H   0  0  0  0  0  0  0  0  0  0  0  0
  138.2741   81.1162  223.5680 H   0  0  0  0  0  0  0  0  0  0  0  0
  140.4779   82.2595  223.8115 H   0  0  0  0  0  0  0  0  0  0  0  0
  142.9420   82.0854  223.7219 H   0  0  0  0  0  0  0  0  0  0  0  0
  144.0690   79.9507  223.1685 H   0  0  0  0  0  0  0  0  0  0  0  0
  142.6664   77.9283  222.6901 H   0  0  0  0  0  0  0  0  0  0  0  0
  1  2  1  0
  2  3  1  0
  3  4  1  0
  4  5  2  0
  4  6  1  0
  6  7  1  0
  7  8  1  0
  8  9  1  0
  9 10  1  0
 10 11  1  0
 11 12  2  0
 12 13  1  0
 13 14  2  0
 14 15  1  0
 14 16  1  0
 16 17  2  0
  2 18  1  0
 18 19  2  0
 18 20  1  0
 20 21  1  0
 21 22  1  0
 22 23  2  0
 22 24  1  0
 24 25  2  0
 25 26  1  0
 26 27  2  0
 27 28  1  0
 28 29  2  0
 29 30  1  0
 30 31  2  0
 31 32  1  0
 32 33  2  0
 10  6  1  0
 17 11  1  0
 33 24  1  0
 32 27  1  0
  1 34  1  0
  1 35  1  0
  1 36  1  0
  3 37  1  0
  3 38  1  0
  7 39  1  0
  7 40  1  0
  8 41  1  0
  8 42  1  0
  9 43  1  0
  9 44  1  0
 10 45  1  1
 13 46  1  0
 16 47  1  0
 20 48  1  0
 20 49  1  0
 21 50  1  0
 25 51  1  0
 26 52  1  0
 28 53  1  0
 29 54  1  0
 30 55  1  0
 31 56  1  0
M  END
>  <smiles>  (20) 
CN(CC(=O)N1CCC[C@H]1c1ncc(F)cn1)C(=O)CNC(=O)c1ccc2ccccc2n1

>  <score_type>  (20) 
oracle

>  <origin>  (20) 
autodockgpu

>  <m_score__min__energy>  (20) 
-8.4700000000000006

>  <m_primary>  (20) 
energy

>  <rmsd>  (20) 
7.519119292465659

>  <m_score__min__rmsd>  (20) 
7.519119292465659

>  <meeko>  (20) 
{"free_energy": -5.27, "intermolecular_energy": -7.66, "internal_energy": -5.05, "cluster_size": 8, "cluster_id": 5, "rank_in_cluster": 6}

>  <energy>  (20) 
-7.96

>  <cluster_rmsd>  (20) 
0.0

>  <cluster>  (20) 
4

$$$$

     RDKit          3D

 56 59  0  0  0  0  0  0  0  0999 V2000
  136.8780   76.7590  221.9070 C   0  0  0  0  0  0  0  0  0  0  0  0
  138.0120   76.1430  221.2870 N   0  0  0  0  0  0  0  0  0  0  0  0
  139.1430   77.0700  221.0150 C   0  0  0  0  0  0  0  0  0  0  0  0
  140.0790   77.0190  222.1660 C   0  0  0  0  0  0  0  0  0  0  0  0
  140.3300   75.9120  222.7010 O   0  0  0  0  0  0  0  0  0  0  0  0
  140.6470   78.2500  222.6000 N   0  0  0  0  0  0  0  0  0  0  0  0
  141.8170   78.4640  223.4500 C   0  0  0  0  0  0  0  0  0  0  0  0
  141.7580   79.9140  223.8150 C   0  0  0  0  0  0  0  0  0  0  0  0
  140.3530   80.3780  223.4410 C   0  0  0  0  0  0  0  0  0  0  0  0
  140.0900   79.5440  222.2210 C   0  0  1  0  0  0  0  0  0  0  0  0
  140.7980   80.1230  221.0590 C   0  0  0  0  0  0  0  0  0  0  0  0
  141.4430   79.2750  220.2410 N   0  0  0  0  0  0  0  0  0  0  0  0
  142.1220   79.7090  219.1470 C   0  0  0  0  0  0  0  0  0  0  0  0
  142.1250   81.0690  218.9040 C   0  0  0  0  0  0  0  0  0  0  0  0
  142.8060   81.4940  217.8100 F   0  0  0  0  0  0  0  0  0  0  0  0
  141.4700   81.9730  219.7270 C   0  0  0  0  0  0  0  0  0  0  0  0
  140.8160   81.4560  220.7980 N   0  0  0  0  0  0  0  0  0  0  0  0
  138.1780   74.8100  220.9070 C   0  0  0  0  0  0  0  0  0  0  0  0
  137.1330   74.2640  220.3480 O   0  0  0  0  0  0  0  0  0  0  0  0
  139.3160   73.9090  221.0150 C   0  0  0  0  0  0  0  0  0  0  0  0
  139.5050   73.2310  222.2420 N   0  0  0  0  0  0  0  0  0  0  0  0
  139.6380   71.8030  222.3070 C   0  0  0  0  0  0  0  0  0  0  0  0
  139.5970   71.0850  221.2550 O   0  0  0  0  0  0  0  0  0  0  0  0
  139.8230   71.1900  223.6260 C   0  0  0  0  0  0  0  0  0  0  0  0
  139.4090   69.8940  223.8220 C   0  0  0  0  0  0  0  0  0  0  0  0
  139.5940   69.3280  225.0860 C   0  0  0  0  0  0  0  0  0  0  0  0
  140.1730   70.0310  226.1150 C   0  0  0  0  0  0  0  0  0  0  0  0
  140.3780   69.5220  227.3740 C   0  0  0  0  0  0  0  0  0  0  0  0
  140.9720   70.3180  228.3400 C   0  0  0  0  0  0  0  0  0  0  0  0
  141.3680   71.6160  228.0830 C   0  0  0  0  0  0  0  0  0  0  0  0
  141.1620   72.1310  226.8150 C   0  0  0  0  0  0  0  0  0  0  0  0
  140.5680   71.3250  225.8590 C   0  0  0  0  0  0  0  0  0  0  0  0
  140.3860   71.8580  224.6450 N   0  0  0  0  0  0  0  0  0  0  0  0
  136.9822   76.7024  223.0006 H   0  0  0  0  0  0  0  0  0  0  0  0
  136.8190   77.8132  221.5984 H   0  0  0  0  0  0  0  0  0  0  0  0
  135.9615   76.2347  221.5984 H   0  0  0  0  0  0  0  0  0  0  0  0
  139.6651   76.7598  220.0978 H   0  0  0  0  0  0  0  0  0  0  0  0
  138.7670   78.0948  220.8793 H   0  0  0  0  0  0  0  0  0  0  0  0
  141.7633   77.8344  224.3504 H   0  0  0  0  0  0  0  0  0  0  0  0
  142.7560   78.1996  222.9417 H   0  0  0  0  0  0  0  0  0  0  0  0
  141.9307   80.0452  224.8934 H   0  0  0  0  0  0  0  0  0  0  0  0
  142.5304   80.4960  223.2909 H   0  0  0  0  0  0  0  0  0  0  0  0
  139.6300   80.1619  224.2414 H   0  0  0  0  0  0  0  0  0  0  0  0
  140.2626   81.4619  223.2769 H   0  0  0  0  0  0  0  0  0  0  0  0
  139.0315   79.4825  221.9279 H   0  0  0  0  0  0  0  0  0  0  0  0
  142.6472   79.0070  218.4827 H   0  0  0  0  0  0  0  0  0  0  0  0
  141.4801   83.0537  219.5222 H   0  0  0  0  0  0  0  0  0  0  0  0
  139.2054   73.1450  220.2314 H   0  0  0  0  0  0  0  0  0  0  0  0
  140.1965   74.5614  220.9199 H   0  0  0  0  0  0  0  0  0  0  0  0
  139.5520   73.7730  223.1350 H   0  0  0  0  0  0  0  0  0  0  0  0
  138.9453   69.3189  223.0070 H   0  0  0  0  0  0  0  0  0  0  0  0
  139.2676   68.2924  225.2620 H   0  0  0  0  0  0  0  0  0  0  0  0
  140.0736   68.4924  227.6131 H   0  0  0  0  0  0  0  0  0  0  0  0
  141.1337   69.9022  229.3455 H   0  0  0  0  0  0  0  0  0  0  0  0
  141.8367   72.2268  228.8686 H   0  0  0  0  0  0  0  0  0  0  0  0
  141.4643   73.1603  226.5717 H   0  0  0  0  0  0  0  0  0  0  0  0
  1  2  1  0
  2  3  1  0
  3  4  1  0
  4  5  2  0
  4  6  1  0
  6  7  1  0
  7  8  1  0
  8  9  1  0
  9 10  1  0
 10 11  1  0
 11 12  2  0
 12 13  1  0
 13 14  2  0
 14 15  1  0
 14 16  1  0
 16 17  2  0
  2 18  1  0
 18 19  2  0
 18 20  1  0
 20 21  1  0
 21 22  1  0
 22 23  2  0
 22 24  1  0
 24 25  2  0
 25 26  1  0
 26 27  2  0
 27 28  1  0
 28 29  2  0
 29 30  1  0
 30 31  2  0
 31 32  1  0
 32 33  2  0
 10  6  1  0
 17 11  1  0
 33 24  1  0
 32 27  1  0
  1 34  1  0
  1 35  1  0
  1 36  1  0
  3 37  1  0
  3 38  1  0
  7 39  1  0
  7 40  1  0
  8 41  1  0
  8 42  1  0
  9 43  1  0
  9 44  1  0
 10 45  1  6
 13 46  1  0
 16 47  1  0
 20 48  1  0
 20 49  1  0
 21 50  1  0
 25 51  1  0
 26 52  1  0
 28 53  1  0
 29 54  1  0
 30 55  1  0
 31 56  1  0
M  END
>  <smiles>  (21) 
CN(CC(=O)N1CCC[C@H]1c1ncc(F)cn1)C(=O)CNC(=O)c1ccc2ccccc2n1

>  <score_type>  (21) 
oracle

>  <origin>  (21) 
autodockgpu

>  <m_score__min__energy>  (21) 
-8.4700000000000006

>  <m_primary>  (21) 
energy

>  <rmsd>  (21) 
2.6423412849055943

>  <m_score__min__rmsd>  (21) 
2.6423412849055943

>  <meeko>  (21) 
{"free_energy": -7.75, "intermolecular_energy": -10.13, "internal_energy": -2.44, "cluster_size": 9, "cluster_id": 2, "rank_in_cluster": 5}

>  <energy>  (21) 
-7.94

>  <cluster_rmsd>  (21) 
1.12

>  <cluster>  (21) 
4

$$$$

     RDKit          3D

 56 59  0  0  0  0  0  0  0  0999 V2000
  145.0670   73.9400  220.2690 C   0  0  0  0  0  0  0  0  0  0  0  0
  143.7570   73.9890  219.6920 N   0  0  0  0  0  0  0  0  0  0  0  0
  143.6340   74.9010  218.5230 C   0  0  0  0  0  0  0  0  0  0  0  0
  143.1730   76.2260  219.0080 C   0  0  0  0  0  0  0  0  0  0  0  0
  143.6170   76.6680  220.0950 O   0  0  0  0  0  0  0  0  0  0  0  0
  142.2370   76.9280  218.1950 N   0  0  0  0  0  0  0  0  0  0  0  0
  140.8240   76.6290  217.9690 C   0  0  0  0  0  0  0  0  0  0  0  0
  140.4350   77.4970  216.8130 C   0  0  0  0  0  0  0  0  0  0  0  0
  141.7470   77.9880  216.2070 C   0  0  0  0  0  0  0  0  0  0  0  0
  142.6010   78.1170  217.4340 C   0  0  1  0  0  0  0  0  0  0  0  0
  142.2490   79.3570  218.1580 C   0  0  0  0  0  0  0  0  0  0  0  0
  142.5130   80.5260  217.5500 N   0  0  0  0  0  0  0  0  0  0  0  0
  142.2270   81.7190  218.1330 C   0  0  0  0  0  0  0  0  0  0  0  0
  141.6480   81.6870  219.3860 C   0  0  0  0  0  0  0  0  0  0  0  0
  141.3660   82.8840  219.9610 F   0  0  0  0  0  0  0  0  0  0  0  0
  141.3610   80.5000  220.0430 C   0  0  0  0  0  0  0  0  0  0  0  0
  141.6780   79.3530  219.3910 N   0  0  0  0  0  0  0  0  0  0  0  0
  142.6060   73.3060  220.0890 C   0  0  0  0  0  0  0  0  0  0  0  0
  142.4620   72.1210  219.5610 O   0  0  0  0  0  0  0  0  0  0  0  0
  141.5300   73.6720  220.9960 C   0  0  0  0  0  0  0  0  0  0  0  0
  141.4750   75.0120  221.4470 N   0  0  0  0  0  0  0  0  0  0  0  0
  140.2470   75.6180  221.8780 C   0  0  0  0  0  0  0  0  0  0  0  0
  139.1510   74.9680  221.8770 O   0  0  0  0  0  0  0  0  0  0  0  0
  140.2900   77.0150  222.3200 C   0  0  0  0  0  0  0  0  0  0  0  0
  139.1080   77.6680  222.5800 C   0  0  0  0  0  0  0  0  0  0  0  0
  139.1700   78.9990  223.0010 C   0  0  0  0  0  0  0  0  0  0  0  0
  140.3680   79.6530  223.1570 C   0  0  0  0  0  0  0  0  0  0  0  0
  140.4840   80.9580  223.5680 C   0  0  0  0  0  0  0  0  0  0  0  0
  141.7440   81.5220  223.6940 C   0  0  0  0  0  0  0  0  0  0  0  0
  142.8980   80.8140  223.4170 C   0  0  0  0  0  0  0  0  0  0  0  0
  142.7830   79.4980  223.0030 C   0  0  0  0  0  0  0  0  0  0  0  0
  141.5190   78.9470  222.8830 C   0  0  0  0  0  0  0  0  0  0  0  0
  141.4490   77.6730  222.4800 N   0  0  0  0  0  0  0  0  0  0  0  0
  144.9849   73.9431  221.3659 H   0  0  0  0  0  0  0  0  0  0  0  0
  145.5775   73.0221  219.9421 H   0  0  0  0  0  0  0  0  0  0  0  0
  145.6447   74.8172  219.9421 H   0  0  0  0  0  0  0  0  0  0  0  0
  144.6114   75.0057  218.0292 H   0  0  0  0  0  0  0  0  0  0  0  0
  142.9135   74.4922  217.7993 H   0  0  0  0  0  0  0  0  0  0  0  0
  140.6868   75.5663  217.7202 H   0  0  0  0  0  0  0  0  0  0  0  0
  140.2090   76.8210  218.8606 H   0  0  0  0  0  0  0  0  0  0  0  0
  139.8637   76.9173  216.0730 H   0  0  0  0  0  0  0  0  0  0  0  0
  139.7954   78.3338  217.1302 H   0  0  0  0  0  0  0  0  0  0  0  0
  142.1641   77.2557  215.5001 H   0  0  0  0  0  0  0  0  0  0  0  0
  141.6559   78.9136  215.6196 H   0  0  0  0  0  0  0  0  0  0  0  0
  143.6811   78.1812  217.2358 H   0  0  0  0  0  0  0  0  0  0  0  0
  142.4475   82.6710  217.6279 H   0  0  0  0  0  0  0  0  0  0  0  0
  140.8999   80.4888  221.0416 H   0  0  0  0  0  0  0  0  0  0  0  0
  140.5810   73.4595  220.4820 H   0  0  0  0  0  0  0  0  0  0  0  0
  141.7201   73.0814  221.9043 H   0  0  0  0  0  0  0  0  0  0  0  0
  142.3470   75.5880  221.4730 H   0  0  0  0  0  0  0  0  0  0  0  0
  138.1413   77.1571  222.4600 H   0  0  0  0  0  0  0  0  0  0  0  0
  138.2346   79.5375  223.2132 H   0  0  0  0  0  0  0  0  0  0  0  0
  139.5854   81.5504  223.7951 H   0  0  0  0  0  0  0  0  0  0  0  0
  141.8280   82.5675  224.0254 H   0  0  0  0  0  0  0  0  0  0  0  0
  143.8861   81.2857  223.5231 H   0  0  0  0  0  0  0  0  0  0  0  0
  143.6787   78.9019  222.7739 H   0  0  0  0  0  0  0  0  0  0  0  0
  1  2  1  0
  2  3  1  0
  3  4  1  0
  4  5  2  0
  4  6  1  0
  6  7  1  0
  7  8  1  0
  8  9  1  0
  9 10  1  0
 10 11  1  0
 11 12  2  0
 12 13  1  0
 13 14  2  0
 14 15  1  0
 14 16  1  0
 16 17  2  0
  2 18  1  0
 18 19  2  0
 18 20  1  0
 20 21  1  0
 21 22  1  0
 22 23  2  0
 22 24  1  0
 24 25  2  0
 25 26  1  0
 26 27  2  0
 27 28  1  0
 28 29  2  0
 29 30  1  0
 30 31  2  0
 31 32  1  0
 32 33  2  0
 10  6  1  0
 17 11  1  0
 33 24  1  0
 32 27  1  0
  1 34  1  0
  1 35  1  0
  1 36  1  0
  3 37  1  0
  3 38  1  0
  7 39  1  0
  7 40  1  0
  8 41  1  0
  8 42  1  0
  9 43  1  0
  9 44  1  0
 10 45  1  6
 13 46  1  0
 16 47  1  0
 20 48  1  0
 20 49  1  0
 21 50  1  0
 25 51  1  0
 26 52  1  0
 28 53  1  0
 29 54  1  0
 30 55  1  0
 31 56  1  0
M  END
>  <smiles>  (22) 
CN(CC(=O)N1CCC[C@H]1c1ncc(F)cn1)C(=O)CNC(=O)c1ccc2ccccc2n1

>  <score_type>  (22) 
oracle

>  <origin>  (22) 
autodockgpu

>  <m_score__min__energy>  (22) 
-8.4700000000000006

>  <m_primary>  (22) 
energy

>  <rmsd>  (22) 
7.490333383607424

>  <m_score__min__rmsd>  (22) 
7.490333383607424

>  <meeko>  (22) 
{"free_energy": -6.37, "intermolecular_energy": -8.76, "internal_energy": -4.1, "cluster_size": 8, "cluster_id": 5, "rank_in_cluster": 3}

>  <energy>  (22) 
-7.93

>  <cluster_rmsd>  (22) 
0.15

>  <cluster>  (22) 
4

$$$$

     RDKit          3D

 56 59  0  0  0  0  0  0  0  0999 V2000
  142.3770   73.8340  220.8410 C   0  0  0  0  0  0  0  0  0  0  0  0
  141.1740   74.5760  220.6150 N   0  0  0  0  0  0  0  0  0  0  0  0
  141.3130   76.0450  220.7980 C   0  0  0  0  0  0  0  0  0  0  0  0
  140.6710   76.4230  222.0810 C   0  0  0  0  0  0  0  0  0  0  0  0
  139.9910   75.5680  222.7000 O   0  0  0  0  0  0  0  0  0  0  0  0
  140.8680   77.7560  222.5420 N   0  0  0  0  0  0  0  0  0  0  0  0
  141.8240   78.2440  223.5340 C   0  0  0  0  0  0  0  0  0  0  0  0
  141.3780   79.6410  223.8330 C   0  0  0  0  0  0  0  0  0  0  0  0
  139.9700   79.7560  223.2560 C   0  0  0  0  0  0  0  0  0  0  0  0
  140.0820   78.8790  222.0430 C   0  0  1  0  0  0  0  0  0  0  0  0
  140.7900   79.6050  220.9670 C   0  0  0  0  0  0  0  0  0  0  0  0
  141.5170   78.8760  220.1040 N   0  0  0  0  0  0  0  0  0  0  0  0
  142.2040   79.4490  219.0810 C   0  0  0  0  0  0  0  0  0  0  0  0
  142.1250   80.8230  218.9590 C   0  0  0  0  0  0  0  0  0  0  0  0
  142.8140   81.3870  217.9350 F   0  0  0  0  0  0  0  0  0  0  0  0
  141.3850   81.6060  219.8320 C   0  0  0  0  0  0  0  0  0  0  0  0
  140.7290   80.9540  220.8260 N   0  0  0  0  0  0  0  0  0  0  0  0
  139.9110   74.0970  220.2600 C   0  0  0  0  0  0  0  0  0  0  0  0
  139.6460   74.1420  218.9830 O   0  0  0  0  0  0  0  0  0  0  0  0
  138.8270   73.5450  221.0580 C   0  0  0  0  0  0  0  0  0  0  0  0
  139.1620   72.9170  222.2810 N   0  0  0  0  0  0  0  0  0  0  0  0
  138.9980   71.5050  222.4800 C   0  0  0  0  0  0  0  0  0  0  0  0
  138.5470   70.7540  221.5550 O   0  0  0  0  0  0  0  0  0  0  0  0
  139.3660   70.9480  223.7850 C   0  0  0  0  0  0  0  0  0  0  0  0
  139.0380   69.6440  224.0690 C   0  0  0  0  0  0  0  0  0  0  0  0
  139.3970   69.1310  225.3180 C   0  0  0  0  0  0  0  0  0  0  0  0
  140.0610   69.8940  226.2490 C   0  0  0  0  0  0  0  0  0  0  0  0
  140.4370   69.4390  227.4890 C   0  0  0  0  0  0  0  0  0  0  0  0
  141.1040   70.2930  228.3520 C   0  0  0  0  0  0  0  0  0  0  0  0
  141.4070   71.5970  228.0100 C   0  0  0  0  0  0  0  0  0  0  0  0
  141.0290   72.0570  226.7610 C   0  0  0  0  0  0  0  0  0  0  0  0
  140.3640   71.1940  225.9070 C   0  0  0  0  0  0  0  0  0  0  0  0
  140.0150   71.6750  224.7080 N   0  0  0  0  0  0  0  0  0  0  0  0
  142.5458   73.7299  221.9230 H   0  0  0  0  0  0  0  0  0  0  0  0
  142.2834   72.8365  220.3869 H   0  0  0  0  0  0  0  0  0  0  0  0
  143.2263   74.3654  220.3869 H   0  0  0  0  0  0  0  0  0  0  0  0
  142.3787   76.3166  220.8223 H   0  0  0  0  0  0  0  0  0  0  0  0
  140.8300   76.5758  219.9644 H   0  0  0  0  0  0  0  0  0  0  0  0
  141.7924   77.6236  224.4418 H   0  0  0  0  0  0  0  0  0  0  0  0
  142.8606   78.2064  223.1680 H   0  0  0  0  0  0  0  0  0  0  0  0
  141.3630   79.8149  224.9191 H   0  0  0  0  0  0  0  0  0  0  0  0
  142.0583   80.3871  223.3966 H   0  0  0  0  0  0  0  0  0  0  0  0
  139.2136   79.3774  223.9592 H   0  0  0  0  0  0  0  0  0  0  0  0
  139.6520   80.7869  223.0411 H   0  0  0  0  0  0  0  0  0  0  0  0
  139.1193   78.5672  221.6117 H   0  0  0  0  0  0  0  0  0  0  0  0
  142.7979   78.8444  218.3797 H   0  0  0  0  0  0  0  0  0  0  0  0
  141.3321   82.6995  219.7247 H   0  0  0  0  0  0  0  0  0  0  0  0
  138.1378   74.3701  221.2908 H   0  0  0  0  0  0  0  0  0  0  0  0
  138.4091   72.7384  220.4377 H   0  0  0  0  0  0  0  0  0  0  0  0
  139.5420   73.4870  223.0720 H   0  0  0  0  0  0  0  0  0  0  0  0
  138.5076   69.0215  223.3334 H   0  0  0  0  0  0  0  0  0  0  0  0
  139.1417   68.0894  225.5628 H   0  0  0  0  0  0  0  0  0  0  0  0
  140.2107   68.4066  227.7939 H   0  0  0  0  0  0  0  0  0  0  0  0
  141.4025   69.9204  229.3430 H   0  0  0  0  0  0  0  0  0  0  0  0
  141.9368   72.2546  228.7148 H   0  0  0  0  0  0  0  0  0  0  0  0
  141.2527   73.0889  226.4525 H   0  0  0  0  0  0  0  0  0  0  0  0
  1  2  1  0
  2  3  1  0
  3  4  1  0
  4  5  2  0
  4  6  1  0
  6  7  1  0
  7  8  1  0
  8  9  1  0
  9 10  1  0
 10 11  1  0
 11 12  2  0
 12 13  1  0
 13 14  2  0
 14 15  1  0
 14 16  1  0
 16 17  2  0
  2 18  1  0
 18 19  2  0
 18 20  1  0
 20 21  1  0
 21 22  1  0
 22 23  2  0
 22 24  1  0
 24 25  2  0
 25 26  1  0
 26 27  2  0
 27 28  1  0
 28 29  2  0
 29 30  1  0
 30 31  2  0
 31 32  1  0
 32 33  2  0
 10  6  1  0
 17 11  1  0
 33 24  1  0
 32 27  1  0
  1 34  1  0
  1 35  1  0
  1 36  1  0
  3 37  1  0
  3 38  1  0
  7 39  1  0
  7 40  1  0
  8 41  1  0
  8 42  1  0
  9 43  1  0
  9 44  1  0
 10 45  1  6
 13 46  1  0
 16 47  1  0
 20 48  1  0
 20 49  1  0
 21 50  1  0
 25 51  1  0
 26 52  1  0
 28 53  1  0
 29 54  1  0
 30 55  1  0
 31 56  1  0
M  END
>  <smiles>  (23) 
CN(CC(=O)N1CCC[C@H]1c1ncc(F)cn1)C(=O)CNC(=O)c1ccc2ccccc2n1

>  <score_type>  (23) 
oracle

>  <origin>  (23) 
autodockgpu

>  <m_score__min__energy>  (23) 
-8.4700000000000006

>  <m_primary>  (23) 
energy

>  <rmsd>  (23) 
2.526750599893186

>  <m_score__min__rmsd>  (23) 
2.526750599893186

>  <meeko>  (23) 
{"free_energy": -7.7, "intermolecular_energy": -10.09, "internal_energy": -2.69, "cluster_size": 9, "cluster_id": 2, "rank_in_cluster": 7}

>  <energy>  (23) 
-7.91

>  <cluster_rmsd>  (23) 
1.22

>  <cluster>  (23) 
4

$$$$

     RDKit          3D

 56 59  0  0  0  0  0  0  0  0999 V2000
  141.7130   72.8680  219.5070 C   0  0  0  0  0  0  0  0  0  0  0  0
  140.4570   73.4840  219.8140 N   0  0  0  0  0  0  0  0  0  0  0  0
  140.5320   74.9510  220.0460 C   0  0  0  0  0  0  0  0  0  0  0  0
  140.1380   75.2250  221.4510 C   0  0  0  0  0  0  0  0  0  0  0  0
  140.3850   74.3690  222.3340 O   0  0  0  0  0  0  0  0  0  0  0  0
  139.4920   76.4670  221.7160 N   0  0  0  0  0  0  0  0  0  0  0  0
  138.4040   76.7450  222.6520 C   0  0  0  0  0  0  0  0  0  0  0  0
  137.9350   78.1190  222.2880 C   0  0  0  0  0  0  0  0  0  0  0  0
  138.5490   78.4160  220.9230 C   0  0  0  0  0  0  0  0  0  0  0  0
  139.8640   77.7020  221.0360 C   0  0  1  0  0  0  0  0  0  0  0  0
  140.8010   78.5090  221.8470 C   0  0  0  0  0  0  0  0  0  0  0  0
  141.0480   78.0970  223.1010 N   0  0  0  0  0  0  0  0  0  0  0  0
  141.8940   78.7700  223.9250 C   0  0  0  0  0  0  0  0  0  0  0  0
  142.4970   79.9050  223.4200 C   0  0  0  0  0  0  0  0  0  0  0  0
  143.3400   80.5710  224.2490 F   0  0  0  0  0  0  0  0  0  0  0  0
  142.2650   80.3600  222.1310 C   0  0  0  0  0  0  0  0  0  0  0  0
  141.4070   79.6290  221.3740 N   0  0  0  0  0  0  0  0  0  0  0  0
  139.2010   72.8860  219.9290 C   0  0  0  0  0  0  0  0  0  0  0  0
  138.8030   72.2360  218.8690 O   0  0  0  0  0  0  0  0  0  0  0  0
  138.2440   72.8480  221.0240 C   0  0  0  0  0  0  0  0  0  0  0  0
  138.6800   72.3150  222.2610 N   0  0  0  0  0  0  0  0  0  0  0  0
  138.8510   70.9040  222.4610 C   0  0  0  0  0  0  0  0  0  0  0  0
  138.6220   70.0700  221.5260 O   0  0  0  0  0  0  0  0  0  0  0  0
  139.2980   70.4470  223.7800 C   0  0  0  0  0  0  0  0  0  0  0  0
  139.1400   69.1240  224.1160 C   0  0  0  0  0  0  0  0  0  0  0  0
  139.5730   68.7070  225.3770 C   0  0  0  0  0  0  0  0  0  0  0  0
  140.1440   69.5820  226.2700 C   0  0  0  0  0  0  0  0  0  0  0  0
  140.5860   69.2250  227.5210 C   0  0  0  0  0  0  0  0  0  0  0  0
  141.1480   70.1880  228.3430 C   0  0  0  0  0  0  0  0  0  0  0  0
  141.2810   71.5060  227.9500 C   0  0  0  0  0  0  0  0  0  0  0  0
  140.8360   71.8680  226.6900 C   0  0  0  0  0  0  0  0  0  0  0  0
  140.2770   70.8960  225.8780 C   0  0  0  0  0  0  0  0  0  0  0  0
  139.8590   71.2840  224.6670 N   0  0  0  0  0  0  0  0  0  0  0  0
  142.2341   72.6124  220.4414 H   0  0  0  0  0  0  0  0  0  0  0  0
  141.5393   71.9529  218.9219 H   0  0  0  0  0  0  0  0  0  0  0  0
  142.3302   73.5656  218.9219 H   0  0  0  0  0  0  0  0  0  0  0  0
  141.5601   75.3021  219.8734 H   0  0  0  0  0  0  0  0  0  0  0  0
  139.8571   75.4775  219.3551 H   0  0  0  0  0  0  0  0  0  0  0  0
  137.5918   76.0129  222.5320 H   0  0  0  0  0  0  0  0  0  0  0  0
  138.7289   76.6792  223.7009 H   0  0  0  0  0  0  0  0  0  0  0  0
  136.8369   78.1465  222.2289 H   0  0  0  0  0  0  0  0  0  0  0  0
  138.2362   78.8635  223.0396 H   0  0  0  0  0  0  0  0  0  0  0  0
  137.9360   78.0058  220.1069 H   0  0  0  0  0  0  0  0  0  0  0  0
  138.6346   79.4874  220.6889 H   0  0  0  0  0  0  0  0  0  0  0  0
  140.3723   77.5238  220.0769 H   0  0  0  0  0  0  0  0  0  0  0  0
  142.0900   78.4250  224.9509 H   0  0  0  0  0  0  0  0  0  0  0  0
  142.7511   81.2667  221.7416 H   0  0  0  0  0  0  0  0  0  0  0  0
  137.9154   73.8813  221.2091 H   0  0  0  0  0  0  0  0  0  0  0  0
  137.4598   72.1556  220.6839 H   0  0  0  0  0  0  0  0  0  0  0  0
  138.8860   72.9560  223.0600 H   0  0  0  0  0  0  0  0  0  0  0  0
  138.6849   68.4126  223.4112 H   0  0  0  0  0  0  0  0  0  0  0  0
  139.4539   67.6514  225.6625 H   0  0  0  0  0  0  0  0  0  0  0  0
  140.4945   68.1847  227.8664 H   0  0  0  0  0  0  0  0  0  0  0  0
  141.5003   69.8935  229.3426 H   0  0  0  0  0  0  0  0  0  0  0  0
  141.7304   72.2509  228.6232 H   0  0  0  0  0  0  0  0  0  0  0  0
  140.9248   72.9074  226.3410 H   0  0  0  0  0  0  0  0  0  0  0  0
  1  2  1  0
  2  3  1  0
  3  4  1  0
  4  5  2  0
  4  6  1  0
  6  7  1  0
  7  8  1  0
  8  9  1  0
  9 10  1  0
 10 11  1  0
 11 12  2  0
 12 13  1  0
 13 14  2  0
 14 15  1  0
 14 16  1  0
 16 17  2  0
  2 18  1  0
 18 19  2  0
 18 20  1  0
 20 21  1  0
 21 22  1  0
 22 23  2  0
 22 24  1  0
 24 25  2  0
 25 26  1  0
 26 27  2  0
 27 28  1  0
 28 29  2  0
 29 30  1  0
 30 31  2  0
 31 32  1  0
 32 33  2  0
 10  6  1  0
 17 11  1  0
 33 24  1  0
 32 27  1  0
  1 34  1  0
  1 35  1  0
  1 36  1  0
  3 37  1  0
  3 38  1  0
  7 39  1  0
  7 40  1  0
  8 41  1  0
  8 42  1  0
  9 43  1  0
  9 44  1  0
 10 45  1  6
 13 46  1  0
 16 47  1  0
 20 48  1  0
 20 49  1  0
 21 50  1  0
 25 51  1  0
 26 52  1  0
 28 53  1  0
 29 54  1  0
 30 55  1  0
 31 56  1  0
M  END
>  <smiles>  (24) 
CN(CC(=O)N1CCC[C@H]1c1ncc(F)cn1)C(=O)CNC(=O)c1ccc2ccccc2n1

>  <score_type>  (24) 
oracle

>  <origin>  (24) 
autodockgpu

>  <m_score__min__energy>  (24) 
-8.4700000000000006

>  <m_primary>  (24) 
energy

>  <rmsd>  (24) 
2.829387307845897

>  <m_score__min__rmsd>  (24) 
2.829387307845897

>  <meeko>  (24) 
{"free_energy": -7.83, "intermolecular_energy": -10.22, "internal_energy": -2.72, "cluster_size": 18, "cluster_id": 4, "rank_in_cluster": 7}

>  <energy>  (24) 
-7.9

>  <cluster_rmsd>  (24) 
1.12

>  <cluster>  (24) 
4

$$$$

     RDKit          3D

 56 59  0  0  0  0  0  0  0  0999 V2000
  142.0420   72.9530  220.2590 C   0  0  0  0  0  0  0  0  0  0  0  0
  141.0010   73.9220  220.4240 N   0  0  0  0  0  0  0  0  0  0  0  0
  141.4690   75.2540  220.8920 C   0  0  0  0  0  0  0  0  0  0  0  0
  140.3830   75.8800  221.6890 C   0  0  0  0  0  0  0  0  0  0  0  0
  139.9050   75.2560  222.6670 O   0  0  0  0  0  0  0  0  0  0  0  0
  139.9420   77.1730  221.2870 N   0  0  0  0  0  0  0  0  0  0  0  0
  138.6050   77.7540  221.3960 C   0  0  0  0  0  0  0  0  0  0  0  0
  138.6590   78.9880  220.5510 C   0  0  0  0  0  0  0  0  0  0  0  0
  139.9280   78.8580  219.7130 C   0  0  0  0  0  0  0  0  0  0  0  0
  140.8370   78.1480  220.6730 C   0  0  1  0  0  0  0  0  0  0  0  0
  141.3620   79.1080  221.6670 C   0  0  0  0  0  0  0  0  0  0  0  0
  141.5200   78.6700  222.9270 N   0  0  0  0  0  0  0  0  0  0  0  0
  141.9960   79.4760  223.9120 C   0  0  0  0  0  0  0  0  0  0  0  0
  142.3150   80.7740  223.5670 C   0  0  0  0  0  0  0  0  0  0  0  0
  142.7890   81.5720  224.5580 F   0  0  0  0  0  0  0  0  0  0  0  0
  142.1640   81.2600  222.2770 C   0  0  0  0  0  0  0  0  0  0  0  0
  141.6830   80.3900  221.3530 N   0  0  0  0  0  0  0  0  0  0  0  0
  139.6300   73.7700  220.2100 C   0  0  0  0  0  0  0  0  0  0  0  0
  139.2070   74.1810  219.0450 O   0  0  0  0  0  0  0  0  0  0  0  0
  138.5750   73.2260  221.0510 C   0  0  0  0  0  0  0  0  0  0  0  0
  138.9530   72.6110  222.2680 N   0  0  0  0  0  0  0  0  0  0  0  0
  138.9550   71.1850  222.4300 C   0  0  0  0  0  0  0  0  0  0  0  0
  138.6200   70.4100  221.4760 O   0  0  0  0  0  0  0  0  0  0  0  0
  139.3560   70.6420  223.7310 C   0  0  0  0  0  0  0  0  0  0  0  0
  139.1750   69.3020  223.9780 C   0  0  0  0  0  0  0  0  0  0  0  0
  139.5630   68.8040  225.2240 C   0  0  0  0  0  0  0  0  0  0  0  0
  140.1120   69.6150  226.1880 C   0  0  0  0  0  0  0  0  0  0  0  0
  140.5100   69.1760  227.4270 C   0  0  0  0  0  0  0  0  0  0  0  0
  141.0530   70.0800  228.3260 C   0  0  0  0  0  0  0  0  0  0  0  0
  141.2090   71.4190  228.0210 C   0  0  0  0  0  0  0  0  0  0  0  0
  140.8090   71.8620  226.7720 C   0  0  0  0  0  0  0  0  0  0  0  0
  140.2690   70.9490  225.8830 C   0  0  0  0  0  0  0  0  0  0  0  0
  139.8940   71.4160  224.6870 N   0  0  0  0  0  0  0  0  0  0  0  0
  142.3961   72.6234  221.2469 H   0  0  0  0  0  0  0  0  0  0  0  0
  141.6529   72.0881  219.7017 H   0  0  0  0  0  0  0  0  0  0  0  0
  142.8768   73.4030  219.7017 H   0  0  0  0  0  0  0  0  0  0  0  0
  142.3663   75.1339  221.5169 H   0  0  0  0  0  0  0  0  0  0  0  0
  141.7199   75.8902  220.0304 H   0  0  0  0  0  0  0  0  0  0  0  0
  137.8458   77.0553  221.0147 H   0  0  0  0  0  0  0  0  0  0  0  0
  138.3297   77.9739  222.4380 H   0  0  0  0  0  0  0  0  0  0  0  0
  137.7739   79.0467  219.9005 H   0  0  0  0  0  0  0  0  0  0  0  0
  138.6689   79.9008  221.1647 H   0  0  0  0  0  0  0  0  0  0  0  0
  139.7532   78.2607  218.8060 H   0  0  0  0  0  0  0  0  0  0  0  0
  140.3230   79.8141  219.3389 H   0  0  0  0  0  0  0  0  0  0  0  0
  141.7200   77.6838  220.2095 H   0  0  0  0  0  0  0  0  0  0  0  0
  142.1219   79.1094  224.9415 H   0  0  0  0  0  0  0  0  0  0  0  0
  142.4209   82.2973  222.0160 H   0  0  0  0  0  0  0  0  0  0  0  0
  137.8937   74.0532  221.2991 H   0  0  0  0  0  0  0  0  0  0  0  0
  138.1363   72.4129  220.4541 H   0  0  0  0  0  0  0  0  0  0  0  0
  139.2420   73.2010  223.0820 H   0  0  0  0  0  0  0  0  0  0  0  0
  138.7370   68.6406  223.2160 H   0  0  0  0  0  0  0  0  0  0  0  0
  139.4254   67.7341  225.4393 H   0  0  0  0  0  0  0  0  0  0  0  0
  140.3988   68.1170  227.7031 H   0  0  0  0  0  0  0  0  0  0  0  0
  141.3705   69.7198  229.3157 H   0  0  0  0  0  0  0  0  0  0  0  0
  141.6410   72.1165  228.7537 H   0  0  0  0  0  0  0  0  0  0  0  0
  140.9183   72.9200  226.4913 H   0  0  0  0  0  0  0  0  0  0  0  0
  1  2  1  0
  2  3  1  0
  3  4  1  0
  4  5  2  0
  4  6  1  0
  6  7  1  0
  7  8  1  0
  8  9  1  0
  9 10  1  0
 10 11  1  0
 11 12  2  0
 12 13  1  0
 13 14  2  0
 14 15  1  0
 14 16  1  0
 16 17  2  0
  2 18  1  0
 18 19  2  0
 18 20  1  0
 20 21  1  0
 21 22  1  0
 22 23  2  0
 22 24  1  0
 24 25  2  0
 25 26  1  0
 26 27  2  0
 27 28  1  0
 28 29  2  0
 29 30  1  0
 30 31  2  0
 31 32  1  0
 32 33  2  0
 10  6  1  0
 17 11  1  0
 33 24  1  0
 32 27  1  0
  1 34  1  0
  1 35  1  0
  1 36  1  0
  3 37  1  0
  3 38  1  0
  7 39  1  0
  7 40  1  0
  8 41  1  0
  8 42  1  0
  9 43  1  0
  9 44  1  0
 10 45  1  6
 13 46  1  0
 16 47  1  0
 20 48  1  0
 20 49  1  0
 21 50  1  0
 25 51  1  0
 26 52  1  0
 28 53  1  0
 29 54  1  0
 30 55  1  0
 31 56  1  0
M  END
>  <smiles>  (25) 
CN(CC(=O)N1CCC[C@H]1c1ncc(F)cn1)C(=O)CNC(=O)c1ccc2ccccc2n1

>  <score_type>  (25) 
oracle

>  <origin>  (25) 
autodockgpu

>  <m_score__min__energy>  (25) 
-8.4700000000000006

>  <m_primary>  (25) 
energy

>  <rmsd>  (25) 
2.4198210001114626

>  <m_score__min__rmsd>  (25) 
2.4198210001114626

>  <meeko>  (25) 
{"free_energy": -7.67, "intermolecular_energy": -10.06, "internal_energy": -2.9, "cluster_size": 18, "cluster_id": 4, "rank_in_cluster": 12}

>  <energy>  (25) 
-7.89

>  <cluster_rmsd>  (25) 
1.28

>  <cluster>  (25) 
4

$$$$

     RDKit          3D

 56 59  0  0  0  0  0  0  0  0999 V2000
  145.0740   73.9940  220.5030 C   0  0  0  0  0  0  0  0  0  0  0  0
  143.7740   73.9460  219.9040 N   0  0  0  0  0  0  0  0  0  0  0  0
  143.6410   74.7470  218.6580 C   0  0  0  0  0  0  0  0  0  0  0  0
  143.2390   76.1270  219.0280 C   0  0  0  0  0  0  0  0  0  0  0  0
  143.6480   76.6150  220.1090 O   0  0  0  0  0  0  0  0  0  0  0  0
  142.3970   76.8270  218.1170 N   0  0  0  0  0  0  0  0  0  0  0  0
  141.0310   76.5050  217.7070 C   0  0  0  0  0  0  0  0  0  0  0  0
  140.7720   77.3890  216.5280 C   0  0  0  0  0  0  0  0  0  0  0  0
  142.1380   77.9210  216.1030 C   0  0  0  0  0  0  0  0  0  0  0  0
  142.8270   78.0410  217.4310 C   0  0  1  0  0  0  0  0  0  0  0  0
  142.3570   79.2570  218.1280 C   0  0  0  0  0  0  0  0  0  0  0  0
  141.7290   79.0920  219.3040 N   0  0  0  0  0  0  0  0  0  0  0  0
  141.2610   80.1470  220.0220 C   0  0  0  0  0  0  0  0  0  0  0  0
  141.4560   81.4070  219.4920 C   0  0  0  0  0  0  0  0  0  0  0  0
  140.9840   82.4550  220.2150 F   0  0  0  0  0  0  0  0  0  0  0  0
  142.0990   81.6140  218.2810 C   0  0  0  0  0  0  0  0  0  0  0  0
  142.5360   80.5070  217.6290 N   0  0  0  0  0  0  0  0  0  0  0  0
  142.6400   73.2600  220.3410 C   0  0  0  0  0  0  0  0  0  0  0  0
  142.6500   71.9760  220.1070 O   0  0  0  0  0  0  0  0  0  0  0  0
  141.4380   73.7150  221.0240 C   0  0  0  0  0  0  0  0  0  0  0  0
  141.4070   75.0540  221.4810 N   0  0  0  0  0  0  0  0  0  0  0  0
  140.2000   75.6650  221.9590 C   0  0  0  0  0  0  0  0  0  0  0  0
  139.1010   75.0200  221.9980 O   0  0  0  0  0  0  0  0  0  0  0  0
  140.2660   77.0600  222.4050 C   0  0  0  0  0  0  0  0  0  0  0  0
  139.0950   77.7360  222.6540 C   0  0  0  0  0  0  0  0  0  0  0  0
  139.1790   79.0640  223.0780 C   0  0  0  0  0  0  0  0  0  0  0  0
  140.3890   79.6940  223.2470 C   0  0  0  0  0  0  0  0  0  0  0  0
  140.5270   80.9960  223.6620 C   0  0  0  0  0  0  0  0  0  0  0  0
  141.7970   81.5340  223.8010 C   0  0  0  0  0  0  0  0  0  0  0  0
  142.9390   80.8040  223.5340 C   0  0  0  0  0  0  0  0  0  0  0  0
  142.8020   79.4910  223.1170 C   0  0  0  0  0  0  0  0  0  0  0  0
  141.5280   78.9660  222.9830 C   0  0  0  0  0  0  0  0  0  0  0  0
  141.4360   77.6940  222.5770 N   0  0  0  0  0  0  0  0  0  0  0  0
  144.9734   73.9903  221.5984 H   0  0  0  0  0  0  0  0  0  0  0  0
  145.6567   73.1168  220.1854 H   0  0  0  0  0  0  0  0  0  0  0  0
  145.5904   74.9118  220.1854 H   0  0  0  0  0  0  0  0  0  0  0  0
  144.6041   74.7705  218.1271 H   0  0  0  0  0  0  0  0  0  0  0  0
  142.8840   74.2971  217.9988 H   0  0  0  0  0  0  0  0  0  0  0  0
  140.9505   75.4454  217.4229 H   0  0  0  0  0  0  0  0  0  0  0  0
  140.3038   76.6659  218.5165 H   0  0  0  0  0  0  0  0  0  0  0  0
  140.3132   76.8135  215.7105 H   0  0  0  0  0  0  0  0  0  0  0  0
  140.0779   78.2052  216.7771 H   0  0  0  0  0  0  0  0  0  0  0  0
  142.6585   77.2135  215.4408 H   0  0  0  0  0  0  0  0  0  0  0  0
  142.0998   78.8572  215.5267 H   0  0  0  0  0  0  0  0  0  0  0  0
  143.9217   78.1323  217.3730 H   0  0  0  0  0  0  0  0  0  0  0  0
  140.7486   80.0031  220.9846 H   0  0  0  0  0  0  0  0  0  0  0  0
  142.2472   82.6235  217.8700 H   0  0  0  0  0  0  0  0  0  0  0  0
  140.5961   73.5861  220.3279 H   0  0  0  0  0  0  0  0  0  0  0  0
  141.3926   73.1079  221.9402 H   0  0  0  0  0  0  0  0  0  0  0  0
  142.2820   75.6260  221.4760 H   0  0  0  0  0  0  0  0  0  0  0  0
  138.1195   77.2448  222.5230 H   0  0  0  0  0  0  0  0  0  0  0  0
  138.2524   79.6206  223.2821 H   0  0  0  0  0  0  0  0  0  0  0  0
  139.6384   81.6059  223.8819 H   0  0  0  0  0  0  0  0  0  0  0  0
  141.8988   82.5771  224.1351 H   0  0  0  0  0  0  0  0  0  0  0  0
  143.9351   81.2560  223.6501 H   0  0  0  0  0  0  0  0  0  0  0  0
  143.6878   78.8771  222.8965 H   0  0  0  0  0  0  0  0  0  0  0  0
  1  2  1  0
  2  3  1  0
  3  4  1  0
  4  5  2  0
  4  6  1  0
  6  7  1  0
  7  8  1  0
  8  9  1  0
  9 10  1  0
 10 11  1  0
 11 12  2  0
 12 13  1  0
 13 14  2  0
 14 15  1  0
 14 16  1  0
 16 17  2  0
  2 18  1  0
 18 19  2  0
 18 20  1  0
 20 21  1  0
 21 22  1  0
 22 23  2  0
 22 24  1  0
 24 25  2  0
 25 26  1  0
 26 27  2  0
 27 28  1  0
 28 29  2  0
 29 30  1  0
 30 31  2  0
 31 32  1  0
 32 33  2  0
 10  6  1  0
 17 11  1  0
 33 24  1  0
 32 27  1  0
  1 34  1  0
  1 35  1  0
  1 36  1  0
  3 37  1  0
  3 38  1  0
  7 39  1  0
  7 40  1  0
  8 41  1  0
  8 42  1  0
  9 43  1  0
  9 44  1  0
 10 45  1  6
 13 46  1  0
 16 47  1  0
 20 48  1  0
 20 49  1  0
 21 50  1  0
 25 51  1  0
 26 52  1  0
 28 53  1  0
 29 54  1  0
 30 55  1  0
 31 56  1  0
M  END
>  <smiles>  (26) 
CN(CC(=O)N1CCC[C@H]1c1ncc(F)cn1)C(=O)CNC(=O)c1ccc2ccccc2n1

>  <score_type>  (26) 
oracle

>  <origin>  (26) 
autodockgpu

>  <m_score__min__energy>  (26) 
-8.4700000000000006

>  <m_primary>  (26) 
energy

>  <rmsd>  (26) 
7.523107384463629

>  <m_score__min__rmsd>  (26) 
7.523107384463629

>  <meeko>  (26) 
{"free_energy": -6.6, "intermolecular_energy": -8.99, "internal_energy": -3.99, "cluster_size": 8, "cluster_id": 5, "rank_in_cluster": 1}

>  <energy>  (26) 
-7.83

>  <cluster_rmsd>  (26) 
1.53

>  <cluster>  (26) 
4

$$$$

     RDKit          3D

 56 59  0  0  0  0  0  0  0  0999 V2000
  136.6460   76.2630  220.4100 C   0  0  0  0  0  0  0  0  0  0  0  0
  137.1040   75.2630  221.3260 N   0  0  0  0  0  0  0  0  0  0  0  0
  138.0330   75.7660  222.3740 C   0  0  0  0  0  0  0  0  0  0  0  0
  139.4240   75.4650  221.9520 C   0  0  0  0  0  0  0  0  0  0  0  0
  139.9490   74.3810  222.3040 O   0  0  0  0  0  0  0  0  0  0  0  0
  140.0910   76.4420  221.1600 N   0  0  0  0  0  0  0  0  0  0  0  0
  139.5990   77.1440  219.9750 C   0  0  0  0  0  0  0  0  0  0  0  0
  140.8120   77.8030  219.3960 C   0  0  0  0  0  0  0  0  0  0  0  0
  142.0060   77.1480  220.0860 C   0  0  0  0  0  0  0  0  0  0  0  0
  141.4450   76.8960  221.4550 C   0  0  1  0  0  0  0  0  0  0  0  0
  141.4420   78.1540  222.2310 C   0  0  0  0  0  0  0  0  0  0  0  0
  142.4750   78.9940  222.0540 N   0  0  0  0  0  0  0  0  0  0  0  0
  142.5640   80.1740  222.7210 C   0  0  0  0  0  0  0  0  0  0  0  0
  141.5420   80.4830  223.5970 C   0  0  0  0  0  0  0  0  0  0  0  0
  141.6380   81.6630  224.2600 F   0  0  0  0  0  0  0  0  0  0  0  0
  140.4600   79.6400  223.8050 C   0  0  0  0  0  0  0  0  0  0  0  0
  140.4490   78.4810  223.0990 N   0  0  0  0  0  0  0  0  0  0  0  0
  136.7990   73.9010  221.3510 C   0  0  0  0  0  0  0  0  0  0  0  0
  135.5290   73.6260  221.4740 O   0  0  0  0  0  0  0  0  0  0  0  0
  137.6420   72.7190  221.2560 C   0  0  0  0  0  0  0  0  0  0  0  0
  138.2140   72.2200  222.4500 N   0  0  0  0  0  0  0  0  0  0  0  0
  138.2930   70.8140  222.7250 C   0  0  0  0  0  0  0  0  0  0  0  0
  137.8540   69.9510  221.8960 O   0  0  0  0  0  0  0  0  0  0  0  0
  138.8960   70.3950  223.9940 C   0  0  0  0  0  0  0  0  0  0  0  0
  138.8090   69.0750  224.3690 C   0  0  0  0  0  0  0  0  0  0  0  0
  139.3900   68.6950  225.5810 C   0  0  0  0  0  0  0  0  0  0  0  0
  140.0340   69.6010  226.3890 C   0  0  0  0  0  0  0  0  0  0  0  0
  140.6220   69.2810  227.5890 C   0  0  0  0  0  0  0  0  0  0  0  0
  141.2470   70.2730  228.3260 C   0  0  0  0  0  0  0  0  0  0  0  0
  141.3020   71.5850  227.8960 C   0  0  0  0  0  0  0  0  0  0  0  0
  140.7110   71.9100  226.6880 C   0  0  0  0  0  0  0  0  0  0  0  0
  140.0900   70.9090  225.9610 C   0  0  0  0  0  0  0  0  0  0  0  0
  139.5300   71.2630  224.7980 N   0  0  0  0  0  0  0  0  0  0  0  0
  136.2523   77.1226  220.9723 H   0  0  0  0  0  0  0  0  0  0  0  0
  137.4834   76.5915  219.7769 H   0  0  0  0  0  0  0  0  0  0  0  0
  135.8503   75.8435  219.7769 H   0  0  0  0  0  0  0  0  0  0  0  0
  137.9074   76.8525  222.4911 H   0  0  0  0  0  0  0  0  0  0  0  0
  137.8165   75.2785  223.3360 H   0  0  0  0  0  0  0  0  0  0  0  0
  139.1623   76.4345  219.2567 H   0  0  0  0  0  0  0  0  0  0  0  0
  138.8068   77.8676  220.2176 H   0  0  0  0  0  0  0  0  0  0  0  0
  140.8576   77.6361  218.3097 H   0  0  0  0  0  0  0  0  0  0  0  0
  140.7979   78.8914  219.5546 H   0  0  0  0  0  0  0  0  0  0  0  0
  142.2947   76.2101  219.5891 H   0  0  0  0  0  0  0  0  0  0  0  0
  142.9231   77.7553  220.0772 H   0  0  0  0  0  0  0  0  0  0  0  0
  142.0141   76.1727  222.0575 H   0  0  0  0  0  0  0  0  0  0  0  0
  143.4145   80.8550  222.5697 H   0  0  0  0  0  0  0  0  0  0  0  0
  139.6525   79.8977  224.5061 H   0  0  0  0  0  0  0  0  0  0  0  0
  137.0304   71.9135  220.8234 H   0  0  0  0  0  0  0  0  0  0  0  0
  138.5018   73.0395  220.6493 H   0  0  0  0  0  0  0  0  0  0  0  0
  138.5930   72.8850  223.1630 H   0  0  0  0  0  0  0  0  0  0  0  0
  138.2963   68.3389  223.7324 H   0  0  0  0  0  0  0  0  0  0  0  0
  139.3305   67.6430  225.8970 H   0  0  0  0  0  0  0  0  0  0  0  0
  140.5965   68.2461  227.9609 H   0  0  0  0  0  0  0  0  0  0  0  0
  141.7151   70.0077  229.2854 H   0  0  0  0  0  0  0  0  0  0  0  0
  141.8046   72.3541  228.5008 H   0  0  0  0  0  0  0  0  0  0  0  0
  140.7341   72.9437  226.3126 H   0  0  0  0  0  0  0  0  0  0  0  0
  1  2  1  0
  2  3  1  0
  3  4  1  0
  4  5  2  0
  4  6  1  0
  6  7  1  0
  7  8  1  0
  8  9  1  0
  9 10  1  0
 10 11  1  0
 11 12  2  0
 12 13  1  0
 13 14  2  0
 14 15  1  0
 14 16  1  0
 16 17  2  0
  2 18  1  0
 18 19  2  0
 18 20  1  0
 20 21  1  0
 21 22  1  0
 22 23  2  0
 22 24  1  0
 24 25  2  0
 25 26  1  0
 26 27  2  0
 27 28  1  0
 28 29  2  0
 29 30  1  0
 30 31  2  0
 31 32  1  0
 32 33  2  0
 10  6  1  0
 17 11  1  0
 33 24  1  0
 32 27  1  0
  1 34  1  0
  1 35  1  0
  1 36  1  0
  3 37  1  0
  3 38  1  0
  7 39  1  0
  7 40  1  0
  8 41  1  0
  8 42  1  0
  9 43  1  0
  9 44  1  0
 10 45  1  1
 13 46  1  0
 16 47  1  0
 20 48  1  0
 20 49  1  0
 21 50  1  0
 25 51  1  0
 26 52  1  0
 28 53  1  0
 29 54  1  0
 30 55  1  0
 31 56  1  0
M  END
>  <smiles>  (27) 
CN(CC(=O)N1CCC[C@H]1c1ncc(F)cn1)C(=O)CNC(=O)c1ccc2ccccc2n1

>  <score_type>  (27) 
oracle

>  <origin>  (27) 
autodockgpu

>  <m_score__min__energy>  (27) 
-8.4700000000000006

>  <m_primary>  (27) 
energy

>  <rmsd>  (27) 
2.8078605813733444

>  <m_score__min__rmsd>  (27) 
2.8078605813733444

>  <meeko>  (27) 
{"free_energy": -7.66, "intermolecular_energy": -10.05, "internal_energy": -2.74, "cluster_size": 18, "cluster_id": 4, "rank_in_cluster": 13}

>  <energy>  (27) 
-7.8

>  <cluster_rmsd>  (27) 
1.97

>  <cluster>  (27) 
4

$$$$

     RDKit          3D

 56 59  0  0  0  0  0  0  0  0999 V2000
  143.3170   72.7960  220.1520 C   0  0  0  0  0  0  0  0  0  0  0  0
  142.0580   73.4750  220.0890 N   0  0  0  0  0  0  0  0  0  0  0  0
  142.0940   74.8830  220.5690 C   0  0  0  0  0  0  0  0  0  0  0  0
  140.9540   75.0930  221.4960 C   0  0  0  0  0  0  0  0  0  0  0  0
  140.6650   74.1940  222.3230 O   0  0  0  0  0  0  0  0  0  0  0  0
  140.2460   76.3240  221.3910 N   0  0  0  0  0  0  0  0  0  0  0  0
  138.8760   76.6240  221.8040 C   0  0  0  0  0  0  0  0  0  0  0  0
  138.5760   77.9510  221.1800 C   0  0  0  0  0  0  0  0  0  0  0  0
  139.6730   78.1770  220.1440 C   0  0  0  0  0  0  0  0  0  0  0  0
  140.8440   77.5230  220.8160 C   0  0  1  0  0  0  0  0  0  0  0  0
  141.3830   78.4190  221.8620 C   0  0  0  0  0  0  0  0  0  0  0  0
  141.9630   79.5610  221.4590 N   0  0  0  0  0  0  0  0  0  0  0  0
  142.4880   80.4500  222.3430 C   0  0  0  0  0  0  0  0  0  0  0  0
  142.4010   80.1340  223.6840 C   0  0  0  0  0  0  0  0  0  0  0  0
  142.9280   81.0270  224.5590 F   0  0  0  0  0  0  0  0  0  0  0  0
  141.8090   78.9640  224.1350 C   0  0  0  0  0  0  0  0  0  0  0  0
  141.3090   78.1310  223.1870 N   0  0  0  0  0  0  0  0  0  0  0  0
  140.8270   72.9860  219.6500 C   0  0  0  0  0  0  0  0  0  0  0  0
  140.3640   73.5530  218.5700 O   0  0  0  0  0  0  0  0  0  0  0  0
  139.9570   71.9440  220.1760 C   0  0  0  0  0  0  0  0  0  0  0  0
  140.0260   71.6660  221.5620 N   0  0  0  0  0  0  0  0  0  0  0  0
  139.5830   70.4140  222.1070 C   0  0  0  0  0  0  0  0  0  0  0  0
  139.1130   69.4950  221.3610 O   0  0  0  0  0  0  0  0  0  0  0  0
  139.6870   70.2220  223.5570 C   0  0  0  0  0  0  0  0  0  0  0  0
  139.1160   69.1080  224.1240 C   0  0  0  0  0  0  0  0  0  0  0  0
  139.2250   68.9430  225.5070 C   0  0  0  0  0  0  0  0  0  0  0  0
  139.8820   69.8580  226.2940 C   0  0  0  0  0  0  0  0  0  0  0  0
  140.0190   69.7430  227.6560 C   0  0  0  0  0  0  0  0  0  0  0  0
  140.7030   70.7250  228.3560 C   0  0  0  0  0  0  0  0  0  0  0  0
  141.2560   71.8250  227.7290 C   0  0  0  0  0  0  0  0  0  0  0  0
  141.1190   71.9420  226.3570 C   0  0  0  0  0  0  0  0  0  0  0  0
  140.4350   70.9540  225.6700 C   0  0  0  0  0  0  0  0  0  0  0  0
  140.3240   71.1030  224.3450 N   0  0  0  0  0  0  0  0  0  0  0  0
  143.5993   72.6438  221.2042 H   0  0  0  0  0  0  0  0  0  0  0  0
  143.2332   71.8208  219.6501 H   0  0  0  0  0  0  0  0  0  0  0  0
  144.0858   73.4018  219.6501 H   0  0  0  0  0  0  0  0  0  0  0  0
  143.0408   75.0713  221.0964 H   0  0  0  0  0  0  0  0  0  0  0  0
  142.0193   75.5742  219.7165 H   0  0  0  0  0  0  0  0  0  0  0  0
  138.1817   75.8551  221.4343 H   0  0  0  0  0  0  0  0  0  0  0  0
  138.7646   76.6426  222.8982 H   0  0  0  0  0  0  0  0  0  0  0  0
  137.5887   77.9326  220.6954 H   0  0  0  0  0  0  0  0  0  0  0  0
  138.5527   78.7561  221.9291 H   0  0  0  0  0  0  0  0  0  0  0  0
  139.4320   77.6890  219.1881 H   0  0  0  0  0  0  0  0  0  0  0  0
  139.8347   79.2323  219.8791 H   0  0  0  0  0  0  0  0  0  0  0  0
  141.6886   77.2987  220.1479 H   0  0  0  0  0  0  0  0  0  0  0  0
  142.9626   81.3826  222.0039 H   0  0  0  0  0  0  0  0  0  0  0  0
  141.7477   78.7231  225.2065 H   0  0  0  0  0  0  0  0  0  0  0  0
  138.9208   72.2368  219.9510 H   0  0  0  0  0  0  0  0  0  0  0  0
  140.3046   71.0205  219.6899 H   0  0  0  0  0  0  0  0  0  0  0  0
  140.4080   72.3840  222.2180 H   0  0  0  0  0  0  0  0  0  0  0  0
  138.5878   68.3669  223.5061 H   0  0  0  0  0  0  0  0  0  0  0  0
  138.7732   68.0576  225.9782 H   0  0  0  0  0  0  0  0  0  0  0  0
  139.5901   68.8799  228.1862 H   0  0  0  0  0  0  0  0  0  0  0  0
  140.8089   70.6251  229.4463 H   0  0  0  0  0  0  0  0  0  0  0  0
  141.7933   72.5908  228.3077 H   0  0  0  0  0  0  0  0  0  0  0  0
  141.5455   72.8037  225.8225 H   0  0  0  0  0  0  0  0  0  0  0  0
  1  2  1  0
  2  3  1  0
  3  4  1  0
  4  5  2  0
  4  6  1  0
  6  7  1  0
  7  8  1  0
  8  9  1  0
  9 10  1  0
 10 11  1  0
 11 12  2  0
 12 13  1  0
 13 14  2  0
 14 15  1  0
 14 16  1  0
 16 17  2  0
  2 18  1  0
 18 19  2  0
 18 20  1  0
 20 21  1  0
 21 22  1  0
 22 23  2  0
 22 24  1  0
 24 25  2  0
 25 26  1  0
 26 27  2  0
 27 28  1  0
 28 29  2  0
 29 30  1  0
 30 31  2  0
 31 32  1  0
 32 33  2  0
 10  6  1  0
 17 11  1  0
 33 24  1  0
 32 27  1  0
  1 34  1  0
  1 35  1  0
  1 36  1  0
  3 37  1  0
  3 38  1  0
  7 39  1  0
  7 40  1  0
  8 41  1  0
  8 42  1  0
  9 43  1  0
  9 44  1  0
 10 45  1  6
 13 46  1  0
 16 47  1  0
 20 48  1  0
 20 49  1  0
 21 50  1  0
 25 51  1  0
 26 52  1  0
 28 53  1  0
 29 54  1  0
 30 55  1  0
 31 56  1  0
M  END
>  <smiles>  (28) 
CN(CC(=O)N1CCC[C@H]1c1ncc(F)cn1)C(=O)CNC(=O)c1ccc2ccccc2n1

>  <score_type>  (28) 
oracle

>  <origin>  (28) 
autodockgpu

>  <m_score__min__energy>  (28) 
-8.4700000000000006

>  <m_primary>  (28) 
energy

>  <rmsd>  (28) 
3.0714024098317423

>  <m_score__min__rmsd>  (28) 
3.0714024098317423

>  <meeko>  (28) 
{"free_energy": -7.66, "intermolecular_energy": -10.04, "internal_energy": -2.94, "cluster_size": 18, "cluster_id": 4, "rank_in_cluster": 14}

>  <energy>  (28) 
-7.73

>  <cluster_rmsd>  (28) 
1.65

>  <cluster>  (28) 
4

$$$$

     RDKit          3D

 56 59  0  0  0  0  0  0  0  0999 V2000
  142.4820   76.0030  219.7610 C   0  0  0  0  0  0  0  0  0  0  0  0
  141.1560   76.1900  220.2670 N   0  0  0  0  0  0  0  0  0  0  0  0
  140.4400   77.3640  219.7000 C   0  0  0  0  0  0  0  0  0  0  0  0
  139.0310   77.3250  220.1660 C   0  0  0  0  0  0  0  0  0  0  0  0
  138.2190   76.5590  219.5940 O   0  0  0  0  0  0  0  0  0  0  0  0
  138.6810   78.1750  221.2540 N   0  0  0  0  0  0  0  0  0  0  0  0
  137.9470   77.8380  222.4720 C   0  0  0  0  0  0  0  0  0  0  0  0
  137.6130   79.1600  223.0890 C   0  0  0  0  0  0  0  0  0  0  0  0
  137.8670   80.1990  222.0010 C   0  0  0  0  0  0  0  0  0  0  0  0
  139.0380   79.5880  221.2880 C   0  0  1  0  0  0  0  0  0  0  0  0
  140.2730   79.8210  222.0660 C   0  0  0  0  0  0  0  0  0  0  0  0
  140.6800   81.0920  222.2170 N   0  0  0  0  0  0  0  0  0  0  0  0
  141.8020   81.4090  222.9150 C   0  0  0  0  0  0  0  0  0  0  0  0
  142.5160   80.3650  223.4700 C   0  0  0  0  0  0  0  0  0  0  0  0
  143.6350   80.6900  224.1650 F   0  0  0  0  0  0  0  0  0  0  0  0
  142.1250   79.0410  223.3350 C   0  0  0  0  0  0  0  0  0  0  0  0
  140.9930   78.8120  222.6220 N   0  0  0  0  0  0  0  0  0  0  0  0
  140.4710   75.4260  221.2140 C   0  0  0  0  0  0  0  0  0  0  0  0
  140.3390   75.9900  222.3830 O   0  0  0  0  0  0  0  0  0  0  0  0
  139.8660   74.1050  221.1350 C   0  0  0  0  0  0  0  0  0  0  0  0
  139.8280   73.3260  222.3160 N   0  0  0  0  0  0  0  0  0  0  0  0
  140.0820   71.9140  222.3030 C   0  0  0  0  0  0  0  0  0  0  0  0
  140.3610   71.3010  221.2220 O   0  0  0  0  0  0  0  0  0  0  0  0
  140.0120   71.1910  223.5770 C   0  0  0  0  0  0  0  0  0  0  0  0
  139.5270   69.9050  223.5880 C   0  0  0  0  0  0  0  0  0  0  0  0
  139.4680   69.2340  224.8110 C   0  0  0  0  0  0  0  0  0  0  0  0
  139.8790   69.8260  225.9810 C   0  0  0  0  0  0  0  0  0  0  0  0
  139.8420   69.2110  227.2090 C   0  0  0  0  0  0  0  0  0  0  0  0
  140.2820   69.9000  228.3280 C   0  0  0  0  0  0  0  0  0  0  0  0
  140.7590   71.1940  228.2550 C   0  0  0  0  0  0  0  0  0  0  0  0
  140.7970   71.8160  227.0180 C   0  0  0  0  0  0  0  0  0  0  0  0
  140.3560   71.1160  225.9090 C   0  0  0  0  0  0  0  0  0  0  0  0
  140.4080   71.7500  224.7310 N   0  0  0  0  0  0  0  0  0  0  0  0
  143.1846   75.9039  220.6015 H   0  0  0  0  0  0  0  0  0  0  0  0
  142.5147   75.0914  219.1463 H   0  0  0  0  0  0  0  0  0  0  0  0
  142.7656   76.8700  219.1463 H   0  0  0  0  0  0  0  0  0  0  0  0
  140.9192   78.2926  220.0437 H   0  0  0  0  0  0  0  0  0  0  0  0
  140.4750   77.3328  218.6010 H   0  0  0  0  0  0  0  0  0  0  0  0
  137.0306   77.2792  222.2312 H   0  0  0  0  0  0  0  0  0  0  0  0
  138.5324   77.1978  223.1484 H   0  0  0  0  0  0  0  0  0  0  0  0
  136.5586   79.1819  223.4017 H   0  0  0  0  0  0  0  0  0  0  0  0
  138.2196   79.3545  223.9858 H   0  0  0  0  0  0  0  0  0  0  0  0
  136.9989   80.3057  221.3339 H   0  0  0  0  0  0  0  0  0  0  0  0
  138.0472   81.2162  222.3790 H   0  0  0  0  0  0  0  0  0  0  0  0
  139.2319   80.0019  220.2874 H   0  0  0  0  0  0  0  0  0  0  0  0
  142.1279   82.4530  223.0330 H   0  0  0  0  0  0  0  0  0  0  0  0
  142.7026   78.2189  223.7828 H   0  0  0  0  0  0  0  0  0  0  0  0
  138.8280   74.2390  220.7966 H   0  0  0  0  0  0  0  0  0  0  0  0
  140.5183   73.5415  220.4517 H   0  0  0  0  0  0  0  0  0  0  0  0
  139.6090   73.7810  223.2320 H   0  0  0  0  0  0  0  0  0  0  0  0
  139.1946   69.4181  222.6593 H   0  0  0  0  0  0  0  0  0  0  0  0
  139.0823   68.2042  224.8387 H   0  0  0  0  0  0  0  0  0  0  0  0
  139.4666   68.1813  227.3031 H   0  0  0  0  0  0  0  0  0  0  0  0
  140.2503   69.3995  229.3070 H   0  0  0  0  0  0  0  0  0  0  0  0
  141.1011   71.7190  229.1591 H   0  0  0  0  0  0  0  0  0  0  0  0
  141.1703   72.8460  226.9193 H   0  0  0  0  0  0  0  0  0  0  0  0
  1  2  1  0
  2  3  1  0
  3  4  1  0
  4  5  2  0
  4  6  1  0
  6  7  1  0
  7  8  1  0
  8  9  1  0
  9 10  1  0
 10 11  1  0
 11 12  2  0
 12 13  1  0
 13 14  2  0
 14 15  1  0
 14 16  1  0
 16 17  2  0
  2 18  1  0
 18 19  2  0
 18 20  1  0
 20 21  1  0
 21 22  1  0
 22 23  2  0
 22 24  1  0
 24 25  2  0
 25 26  1  0
 26 27  2  0
 27 28  1  0
 28 29  2  0
 29 30  1  0
 30 31  2  0
 31 32  1  0
 32 33  2  0
 10  6  1  0
 17 11  1  0
 33 24  1  0
 32 27  1  0
  1 34  1  0
  1 35  1  0
  1 36  1  0
  3 37  1  0
  3 38  1  0
  7 39  1  0
  7 40  1  0
  8 41  1  0
  8 42  1  0
  9 43  1  0
  9 44  1  0
 10 45  1  6
 13 46  1  0
 16 47  1  0
 20 48  1  0
 20 49  1  0
 21 50  1  0
 25 51  1  0
 26 52  1  0
 28 53  1  0
 29 54  1  0
 30 55  1  0
 31 56  1  0
M  END
>  <smiles>  (29) 
CN(CC(=O)N1CCC[C@H]1c1ncc(F)cn1)C(=O)CNC(=O)c1ccc2ccccc2n1

>  <score_type>  (29) 
oracle

>  <origin>  (29) 
autodockgpu

>  <m_score__min__energy>  (29) 
-8.4700000000000006

>  <m_primary>  (29) 
energy

>  <rmsd>  (29) 
2.637776507064749

>  <m_score__min__rmsd>  (29) 
2.637776507064749

>  <meeko>  (29) 
{"free_energy": -7.73, "intermolecular_energy": -10.12, "internal_energy": -2.54, "cluster_size": 18, "cluster_id": 4, "rank_in_cluster": 9}

>  <energy>  (29) 
-7.69

>  <cluster_rmsd>  (29) 
1.61

>  <cluster>  (29) 
4

$$$$

     RDKit          3D

 56 59  0  0  0  0  0  0  0  0999 V2000
  139.7570   75.6400  219.0080 C   0  0  0  0  0  0  0  0  0  0  0  0
  139.2670   75.6510  220.3530 N   0  0  0  0  0  0  0  0  0  0  0  0
  138.5420   76.8930  220.7340 C   0  0  0  0  0  0  0  0  0  0  0  0
  139.0470   77.3470  222.0530 C   0  0  0  0  0  0  0  0  0  0  0  0
  138.3900   77.0760  223.0870 O   0  0  0  0  0  0  0  0  0  0  0  0
  140.2710   78.0750  222.0670 N   0  0  0  0  0  0  0  0  0  0  0  0
  141.3200   78.0750  223.0860 C   0  0  0  0  0  0  0  0  0  0  0  0
  142.1970   79.2320  222.7250 C   0  0  0  0  0  0  0  0  0  0  0  0
  141.4000   80.0550  221.7160 C   0  0  0  0  0  0  0  0  0  0  0  0
  140.6570   78.9750  220.9860 C   0  0  1  0  0  0  0  0  0  0  0  0
  141.5610   78.3130  220.0210 C   0  0  0  0  0  0  0  0  0  0  0  0
  142.1130   77.1460  220.3900 N   0  0  0  0  0  0  0  0  0  0  0  0
  142.9560   76.4600  219.5750 C   0  0  0  0  0  0  0  0  0  0  0  0
  143.2270   77.0130  218.3380 C   0  0  0  0  0  0  0  0  0  0  0  0
  144.0710   76.3220  217.5300 F   0  0  0  0  0  0  0  0  0  0  0  0
  142.6750   78.2150  217.9240 C   0  0  0  0  0  0  0  0  0  0  0  0
  141.8430   78.8350  218.7990 N   0  0  0  0  0  0  0  0  0  0  0  0
  139.3910   74.6630  221.3320 C   0  0  0  0  0  0  0  0  0  0  0  0
  140.3290   74.8790  222.2140 O   0  0  0  0  0  0  0  0  0  0  0  0
  138.6560   73.4280  221.5570 C   0  0  0  0  0  0  0  0  0  0  0  0
  139.0190   72.6400  222.6750 N   0  0  0  0  0  0  0  0  0  0  0  0
  138.6570   71.2550  222.7770 C   0  0  0  0  0  0  0  0  0  0  0  0
  137.9960   70.6730  221.8570 O   0  0  0  0  0  0  0  0  0  0  0  0
  139.0730   70.5230  223.9780 C   0  0  0  0  0  0  0  0  0  0  0  0
  138.8490   69.1690  224.0440 C   0  0  0  0  0  0  0  0  0  0  0  0
  139.2520   68.4890  225.1960 C   0  0  0  0  0  0  0  0  0  0  0  0
  139.8570   69.1400  226.2440 C   0  0  0  0  0  0  0  0  0  0  0  0
  140.2720   68.5210  227.3980 C   0  0  0  0  0  0  0  0  0  0  0  0
  140.8730   69.2730  228.3950 C   0  0  0  0  0  0  0  0  0  0  0  0
  141.0710   70.6340  228.2720 C   0  0  0  0  0  0  0  0  0  0  0  0
  140.6530   71.2600  227.1100 C   0  0  0  0  0  0  0  0  0  0  0  0
  140.0550   70.4980  226.1210 C   0  0  0  0  0  0  0  0  0  0  0  0
  139.6660   71.1390  225.0130 N   0  0  0  0  0  0  0  0  0  0  0  0
  140.8567   75.6153  219.0186 H   0  0  0  0  0  0  0  0  0  0  0  0
  139.3753   74.7502  218.4859 H   0  0  0  0  0  0  0  0  0  0  0  0
  139.4156   76.5460  218.4859 H   0  0  0  0  0  0  0  0  0  0  0  0
  138.7209   77.6733  219.9796 H   0  0  0  0  0  0  0  0  0  0  0  0
  137.4613   76.6960  220.7916 H   0  0  0  0  0  0  0  0  0  0  0  0
  140.8879   78.2131  224.0881 H   0  0  0  0  0  0  0  0  0  0  0  0
  141.8737   77.1249  223.1146 H   0  0  0  0  0  0  0  0  0  0  0  0
  142.4242   79.8341  223.6171 H   0  0  0  0  0  0  0  0  0  0  0  0
  143.1585   78.8982  222.3077 H   0  0  0  0  0  0  0  0  0  0  0  0
  140.7112   80.7510  222.2171 H   0  0  0  0  0  0  0  0  0  0  0  0
  142.0153   80.6978  221.0693 H   0  0  0  0  0  0  0  0  0  0  0  0
  139.7966   79.3275  220.3983 H   0  0  0  0  0  0  0  0  0  0  0  0
  143.4038   75.5048  219.8866 H   0  0  0  0  0  0  0  0  0  0  0  0
  142.8997   78.6446  216.9366 H   0  0  0  0  0  0  0  0  0  0  0  0
  137.5950   73.6939  221.6733 H   0  0  0  0  0  0  0  0  0  0  0  0
  138.8945   72.8003  220.6857 H   0  0  0  0  0  0  0  0  0  0  0  0
  139.5670   73.0660  223.4570 H   0  0  0  0  0  0  0  0  0  0  0  0
  138.3656   68.6350  223.2126 H   0  0  0  0  0  0  0  0  0  0  0  0
  139.0806   67.4047  225.2658 H   0  0  0  0  0  0  0  0  0  0  0  0
  140.1286   67.4383  227.5295 H   0  0  0  0  0  0  0  0  0  0  0  0
  141.2033   68.7688  229.3151 H   0  0  0  0  0  0  0  0  0  0  0  0
  141.5500   71.2079  229.0790 H   0  0  0  0  0  0  0  0  0  0  0  0
  140.7935   72.3426  226.9752 H   0  0  0  0  0  0  0  0  0  0  0  0
  1  2  1  0
  2  3  1  0
  3  4  1  0
  4  5  2  0
  4  6  1  0
  6  7  1  0
  7  8  1  0
  8  9  1  0
  9 10  1  0
 10 11  1  0
 11 12  2  0
 12 13  1  0
 13 14  2  0
 14 15  1  0
 14 16  1  0
 16 17  2  0
  2 18  1  0
 18 19  2  0
 18 20  1  0
 20 21  1  0
 21 22  1  0
 22 23  2  0
 22 24  1  0
 24 25  2  0
 25 26  1  0
 26 27  2  0
 27 28  1  0
 28 29  2  0
 29 30  1  0
 30 31  2  0
 31 32  1  0
 32 33  2  0
 10  6  1  0
 17 11  1  0
 33 24  1  0
 32 27  1  0
  1 34  1  0
  1 35  1  0
  1 36  1  0
  3 37  1  0
  3 38  1  0
  7 39  1  0
  7 40  1  0
  8 41  1  0
  8 42  1  0
  9 43  1  0
  9 44  1  0
 10 45  1  6
 13 46  1  0
 16 47  1  0
 20 48  1  0
 20 49  1  0
 21 50  1  0
 25 51  1  0
 26 52  1  0
 28 53  1  0
 29 54  1  0
 30 55  1  0
 31 56  1  0
M  END
>  <smiles>  (30) 
CN(CC(=O)N1CCC[C@H]1c1ncc(F)cn1)C(=O)CNC(=O)c1ccc2ccccc2n1

>  <score_type>  (30) 
oracle

>  <origin>  (30) 
autodockgpu

>  <m_score__min__energy>  (30) 
-8.4700000000000006

>  <m_primary>  (30) 
energy

>  <rmsd>  (30) 
2.098408979634246

>  <m_score__min__rmsd>  (30) 
2.098408979634246

>  <meeko>  (30) 
{"free_energy": -7.75, "intermolecular_energy": -10.13, "internal_energy": -2.77, "cluster_size": 9, "cluster_id": 2, "rank_in_cluster": 6}

>  <energy>  (30) 
-7.67

>  <cluster_rmsd>  (30) 
1.52

>  <cluster>  (30) 
4

$$$$

     RDKit          3D

 56 59  0  0  0  0  0  0  0  0999 V2000
  137.1100   76.0220  222.4220 C   0  0  0  0  0  0  0  0  0  0  0  0
  138.4460   76.1930  221.9370 N   0  0  0  0  0  0  0  0  0  0  0  0
  138.7370   77.5500  221.4000 C   0  0  0  0  0  0  0  0  0  0  0  0
  139.1850   78.4120  222.5220 C   0  0  0  0  0  0  0  0  0  0  0  0
  138.3830   78.6720  223.4510 O   0  0  0  0  0  0  0  0  0  0  0  0
  140.5210   78.9020  222.4740 N   0  0  0  0  0  0  0  0  0  0  0  0
  141.6180   78.6460  223.4060 C   0  0  0  0  0  0  0  0  0  0  0  0
  142.6700   79.6440  223.0340 C   0  0  0  0  0  0  0  0  0  0  0  0
  141.9740   80.6600  222.1330 C   0  0  0  0  0  0  0  0  0  0  0  0
  140.9940   79.7820  221.4110 C   0  0  1  0  0  0  0  0  0  0  0  0
  141.6890   79.0280  220.3470 C   0  0  0  0  0  0  0  0  0  0  0  0
  141.9320   77.7250  220.5690 N   0  0  0  0  0  0  0  0  0  0  0  0
  142.5650   76.9460  219.6530 C   0  0  0  0  0  0  0  0  0  0  0  0
  142.9530   77.5490  218.4720 C   0  0  0  0  0  0  0  0  0  0  0  0
  143.5850   76.7640  217.5630 F   0  0  0  0  0  0  0  0  0  0  0  0
  142.7200   78.8900  218.2100 C   0  0  0  0  0  0  0  0  0  0  0  0
  142.0820   79.5960  219.1780 N   0  0  0  0  0  0  0  0  0  0  0  0
  139.4840   75.2600  221.9000 C   0  0  0  0  0  0  0  0  0  0  0  0
  140.6670   75.7440  222.1670 O   0  0  0  0  0  0  0  0  0  0  0  0
  139.4920   73.8320  221.6230 C   0  0  0  0  0  0  0  0  0  0  0  0
  139.6500   72.9490  222.7170 N   0  0  0  0  0  0  0  0  0  0  0  0
  139.4100   71.5390  222.5960 C   0  0  0  0  0  0  0  0  0  0  0  0
  139.0490   71.0210  221.4890 O   0  0  0  0  0  0  0  0  0  0  0  0
  139.5940   70.7060  223.7890 C   0  0  0  0  0  0  0  0  0  0  0  0
  139.2150   69.3860  223.7440 C   0  0  0  0  0  0  0  0  0  0  0  0
  139.3980   68.6090  224.8900 C   0  0  0  0  0  0  0  0  0  0  0  0
  139.9400   69.1330  226.0390 C   0  0  0  0  0  0  0  0  0  0  0  0
  140.1410   68.4130  227.1920 C   0  0  0  0  0  0  0  0  0  0  0  0
  140.6960   69.0400  228.2960 C   0  0  0  0  0  0  0  0  0  0  0  0
  141.0570   70.3740  228.2810 C   0  0  0  0  0  0  0  0  0  0  0  0
  140.8550   71.1000  227.1200 C   0  0  0  0  0  0  0  0  0  0  0  0
  140.3010   70.4620  226.0250 C   0  0  0  0  0  0  0  0  0  0  0  0
  140.1210   71.1970  224.9210 N   0  0  0  0  0  0  0  0  0  0  0  0
  137.1163   76.0228  223.5220 H   0  0  0  0  0  0  0  0  0  0  0  0
  136.4795   76.8468  222.0583 H   0  0  0  0  0  0  0  0  0  0  0  0
  136.7076   75.0650  222.0583 H   0  0  0  0  0  0  0  0  0  0  0  0
  139.5303   77.4867  220.6406 H   0  0  0  0  0  0  0  0  0  0  0  0
  137.8347   77.9738  220.9349 H   0  0  0  0  0  0  0  0  0  0  0  0
  141.2887   78.7977  224.4445 H   0  0  0  0  0  0  0  0  0  0  0  0
  141.9847   77.6107  223.3446 H   0  0  0  0  0  0  0  0  0  0  0  0
  143.0663   80.1372  223.9338 H   0  0  0  0  0  0  0  0  0  0  0  0
  143.5213   79.1669  222.5265 H   0  0  0  0  0  0  0  0  0  0  0  0
  141.4631   81.4371  222.7204 H   0  0  0  0  0  0  0  0  0  0  0  0
  142.6530   81.2190  221.4723 H   0  0  0  0  0  0  0  0  0  0  0  0
  140.1771   80.3223  220.9103 H   0  0  0  0  0  0  0  0  0  0  0  0
  142.7602   75.8804  219.8437 H   0  0  0  0  0  0  0  0  0  0  0  0
  143.0359   79.3581  217.2660 H   0  0  0  0  0  0  0  0  0  0  0  0
  138.5355   73.5864  221.1385 H   0  0  0  0  0  0  0  0  0  0  0  0
  140.3899   73.6741  221.0075 H   0  0  0  0  0  0  0  0  0  0  0  0
  139.9500   73.3210  223.6470 H   0  0  0  0  0  0  0  0  0  0  0  0
  138.7797   68.9534  222.8311 H   0  0  0  0  0  0  0  0  0  0  0  0
  139.1006   67.5501  224.8724 H   0  0  0  0  0  0  0  0  0  0  0  0
  139.8641   67.3494  227.2381 H   0  0  0  0  0  0  0  0  0  0  0  0
  140.8545   68.4566  229.2150 H   0  0  0  0  0  0  0  0  0  0  0  0
  141.4950   70.8481  229.1717 H   0  0  0  0  0  0  0  0  0  0  0  0
  141.1298   72.1639  227.0692 H   0  0  0  0  0  0  0  0  0  0  0  0
  1  2  1  0
  2  3  1  0
  3  4  1  0
  4  5  2  0
  4  6  1  0
  6  7  1  0
  7  8  1  0
  8  9  1  0
  9 10  1  0
 10 11  1  0
 11 12  2  0
 12 13  1  0
 13 14  2  0
 14 15  1  0
 14 16  1  0
 16 17  2  0
  2 18  1  0
 18 19  2  0
 18 20  1  0
 20 21  1  0
 21 22  1  0
 22 23  2  0
 22 24  1  0
 24 25  2  0
 25 26  1  0
 26 27  2  0
 27 28  1  0
 28 29  2  0
 29 30  1  0
 30 31  2  0
 31 32  1  0
 32 33  2  0
 10  6  1  0
 17 11  1  0
 33 24  1  0
 32 27  1  0
  1 34  1  0
  1 35  1  0
  1 36  1  0
  3 37  1  0
  3 38  1  0
  7 39  1  0
  7 40  1  0
  8 41  1  0
  8 42  1  0
  9 43  1  0
  9 44  1  0
 10 45  1  6
 13 46  1  0
 16 47  1  0
 20 48  1  0
 20 49  1  0
 21 50  1  0
 25 51  1  0
 26 52  1  0
 28 53  1  0
 29 54  1  0
 30 55  1  0
 31 56  1  0
M  END
>  <smiles>  (31) 
CN(CC(=O)N1CCC[C@H]1c1ncc(F)cn1)C(=O)CNC(=O)c1ccc2ccccc2n1

>  <score_type>  (31) 
oracle

>  <origin>  (31) 
autodockgpu

>  <m_score__min__energy>  (31) 
-8.4700000000000006

>  <m_primary>  (31) 
energy

>  <rmsd>  (31) 
2.5075949782300575

>  <m_score__min__rmsd>  (31) 
2.5075949782300575

>  <meeko>  (31) 
{"free_energy": -8.27, "intermolecular_energy": -10.66, "internal_energy": -2.27, "cluster_size": 9, "cluster_id": 2, "rank_in_cluster": 1}

>  <energy>  (31) 
-7.67

>  <cluster_rmsd>  (31) 
1.45

>  <cluster>  (31) 
4

$$$$

     RDKit          3D

 56 59  0  0  0  0  0  0  0  0999 V2000
  139.7420   72.1480  218.3850 C   0  0  0  0  0  0  0  0  0  0  0  0
  139.5900   72.7880  219.6560 N   0  0  0  0  0  0  0  0  0  0  0  0
  140.8610   72.9820  220.4040 C   0  0  0  0  0  0  0  0  0  0  0  0
  140.5960   73.8800  221.5550 C   0  0  0  0  0  0  0  0  0  0  0  0
  140.4660   73.3850  222.7010 O   0  0  0  0  0  0  0  0  0  0  0  0
  140.5050   75.2760  221.2850 N   0  0  0  0  0  0  0  0  0  0  0  0
  140.5930   75.9620  219.9970 C   0  0  0  0  0  0  0  0  0  0  0  0
  140.7350   77.4090  220.3490 C   0  0  0  0  0  0  0  0  0  0  0  0
  141.0800   77.4400  221.8360 C   0  0  0  0  0  0  0  0  0  0  0  0
  140.2960   76.2630  222.3380 C   0  0  1  0  0  0  0  0  0  0  0  0
  138.8700   76.6320  222.4650 C   0  0  0  0  0  0  0  0  0  0  0  0
  138.5730   77.9400  222.5390 N   0  0  0  0  0  0  0  0  0  0  0  0
  137.2920   78.3800  222.6570 C   0  0  0  0  0  0  0  0  0  0  0  0
  136.2970   77.4240  222.6980 C   0  0  0  0  0  0  0  0  0  0  0  0
  135.0220   77.8720  222.8160 F   0  0  0  0  0  0  0  0  0  0  0  0
  136.5670   76.0650  222.6240 C   0  0  0  0  0  0  0  0  0  0  0  0
  137.8720   75.7110  222.5070 N   0  0  0  0  0  0  0  0  0  0  0  0
  138.4180   73.2350  220.2690 C   0  0  0  0  0  0  0  0  0  0  0  0
  138.0260   74.4250  219.9020 O   0  0  0  0  0  0  0  0  0  0  0  0
  137.5400   72.6110  221.2480 C   0  0  0  0  0  0  0  0  0  0  0  0
  138.1240   72.1230  222.4410 N   0  0  0  0  0  0  0  0  0  0  0  0
  138.2720   70.7190  222.6940 C   0  0  0  0  0  0  0  0  0  0  0  0
  137.8870   69.8480  221.8470 O   0  0  0  0  0  0  0  0  0  0  0  0
  138.8830   70.3100  223.9630 C   0  0  0  0  0  0  0  0  0  0  0  0
  138.8960   68.9770  224.2970 C   0  0  0  0  0  0  0  0  0  0  0  0
  139.4820   68.6080  225.5110 C   0  0  0  0  0  0  0  0  0  0  0  0
  140.0350   69.5370  226.3580 C   0  0  0  0  0  0  0  0  0  0  0  0
  140.6230   69.2280  227.5610 C   0  0  0  0  0  0  0  0  0  0  0  0
  141.1520   70.2440  228.3400 C   0  0  0  0  0  0  0  0  0  0  0  0
  141.1090   71.5690  227.9500 C   0  0  0  0  0  0  0  0  0  0  0  0
  140.5170   71.8830  226.7390 C   0  0  0  0  0  0  0  0  0  0  0  0
  139.9930   70.8580  225.9700 C   0  0  0  0  0  0  0  0  0  0  0  0
  139.4290   71.2010  224.8060 N   0  0  0  0  0  0  0  0  0  0  0  0
  139.9938   71.0879  218.5360 H   0  0  0  0  0  0  0  0  0  0  0  0
  138.8007   72.2245  217.8210 H   0  0  0  0  0  0  0  0  0  0  0  0
  140.5484   72.6396  217.8210 H   0  0  0  0  0  0  0  0  0  0  0  0
  141.2297   72.0115  220.7675 H   0  0  0  0  0  0  0  0  0  0  0  0
  141.6222   73.4265  219.7459 H   0  0  0  0  0  0  0  0  0  0  0  0
  141.4684   75.6126  219.4299 H   0  0  0  0  0  0  0  0  0  0  0  0
  139.7152   75.7714  219.3620 H   0  0  0  0  0  0  0  0  0  0  0  0
  141.5405   77.8702  219.7586 H   0  0  0  0  0  0  0  0  0  0  0  0
  139.8146   77.9716  220.1337 H   0  0  0  0  0  0  0  0  0  0  0  0
  142.1591   77.3071  222.0029 H   0  0  0  0  0  0  0  0  0  0  0  0
  140.8412   78.3900  222.3366 H   0  0  0  0  0  0  0  0  0  0  0  0
  140.6013   75.8981  223.3298 H   0  0  0  0  0  0  0  0  0  0  0  0
  137.0582   79.4532  222.7173 H   0  0  0  0  0  0  0  0  0  0  0  0
  135.7647   75.3133  222.6584 H   0  0  0  0  0  0  0  0  0  0  0  0
  136.7843   73.3574  221.5340 H   0  0  0  0  0  0  0  0  0  0  0  0
  137.1532   71.7143  220.7417 H   0  0  0  0  0  0  0  0  0  0  0  0
  138.4620   72.7950  223.1680 H   0  0  0  0  0  0  0  0  0  0  0  0
  138.4577   68.2219  223.6279 H   0  0  0  0  0  0  0  0  0  0  0  0
  139.5008   67.5456  225.7956 H   0  0  0  0  0  0  0  0  0  0  0  0
  140.6731   68.1835  227.9022 H   0  0  0  0  0  0  0  0  0  0  0  0
  141.6219   69.9875  229.3009 H   0  0  0  0  0  0  0  0  0  0  0  0
  141.5359   72.3569  228.5880 H   0  0  0  0  0  0  0  0  0  0  0  0
  140.4639   72.9263  226.3944 H   0  0  0  0  0  0  0  0  0  0  0  0
  1  2  1  0
  2  3  1  0
  3  4  1  0
  4  5  2  0
  4  6  1  0
  6  7  1  0
  7  8  1  0
  8  9  1  0
  9 10  1  0
 10 11  1  0
 11 12  2  0
 12 13  1  0
 13 14  2  0
 14 15  1  0
 14 16  1  0
 16 17  2  0
  2 18  1  0
 18 19  2  0
 18 20  1  0
 20 21  1  0
 21 22  1  0
 22 23  2  0
 22 24  1  0
 24 25  2  0
 25 26  1  0
 26 27  2  0
 27 28  1  0
 28 29  2  0
 29 30  1  0
 30 31  2  0
 31 32  1  0
 32 33  2  0
 10  6  1  0
 17 11  1  0
 33 24  1  0
 32 27  1  0
  1 34  1  0
  1 35  1  0
  1 36  1  0
  3 37  1  0
  3 38  1  0
  7 39  1  0
  7 40  1  0
  8 41  1  0
  8 42  1  0
  9 43  1  0
  9 44  1  0
 10 45  1  1
 13 46  1  0
 16 47  1  0
 20 48  1  0
 20 49  1  0
 21 50  1  0
 25 51  1  0
 26 52  1  0
 28 53  1  0
 29 54  1  0
 30 55  1  0
 31 56  1  0
M  END
>  <smiles>  (32) 
CN(CC(=O)N1CCC[C@H]1c1ncc(F)cn1)C(=O)CNC(=O)c1ccc2ccccc2n1

>  <score_type>  (32) 
oracle

>  <origin>  (32) 
autodockgpu

>  <m_score__min__energy>  (32) 
-8.4700000000000006

>  <m_primary>  (32) 
energy

>  <rmsd>  (32) 
2.867665292540883

>  <m_score__min__rmsd>  (32) 
2.867665292540883

>  <meeko>  (32) 
{"free_energy": -6.56, "intermolecular_energy": -8.94, "internal_energy": -3.58, "cluster_size": 1, "cluster_id": 6, "rank_in_cluster": 1}

>  <energy>  (32) 
-7.66

>  <cluster_rmsd>  (32) 
1.19

>  <cluster>  (32) 
4

$$$$

     RDKit          3D

 56 59  0  0  0  0  0  0  0  0999 V2000
  142.5310   76.5280  220.0550 C   0  0  0  0  0  0  0  0  0  0  0  0
  141.1770   76.5270  220.5220 N   0  0  0  0  0  0  0  0  0  0  0  0
  140.3650   77.6830  220.0550 C   0  0  0  0  0  0  0  0  0  0  0  0
  141.1720   78.9190  220.2150 C   0  0  0  0  0  0  0  0  0  0  0  0
  141.5840   79.5180  219.1920 O   0  0  0  0  0  0  0  0  0  0  0  0
  141.4350   79.3580  221.5440 N   0  0  0  0  0  0  0  0  0  0  0  0
  142.4700   80.2800  222.0100 C   0  0  0  0  0  0  0  0  0  0  0  0
  142.4660   80.1300  223.4990 C   0  0  0  0  0  0  0  0  0  0  0  0
  141.6680   78.8610  223.7830 C   0  0  0  0  0  0  0  0  0  0  0  0
  140.6460   78.9100  222.6860 C   0  0  1  0  0  0  0  0  0  0  0  0
  139.5880   79.8820  223.0330 C   0  0  0  0  0  0  0  0  0  0  0  0
  138.9510   79.7120  224.2040 N   0  0  0  0  0  0  0  0  0  0  0  0
  137.9640   80.5520  224.6130 C   0  0  0  0  0  0  0  0  0  0  0  0
  137.6370   81.5990  223.7740 C   0  0  0  0  0  0  0  0  0  0  0  0
  136.6500   82.4320  224.1900 F   0  0  0  0  0  0  0  0  0  0  0  0
  138.2740   81.8050  222.5590 C   0  0  0  0  0  0  0  0  0  0  0  0
  139.2480   80.9200  222.2260 N   0  0  0  0  0  0  0  0  0  0  0  0
  140.5430   75.5990  221.3490 C   0  0  0  0  0  0  0  0  0  0  0  0
  140.1530   76.0690  222.5030 O   0  0  0  0  0  0  0  0  0  0  0  0
  140.2280   74.1910  221.1590 C   0  0  0  0  0  0  0  0  0  0  0  0
  140.0410   73.3960  222.3150 N   0  0  0  0  0  0  0  0  0  0  0  0
  140.4480   72.0210  222.3630 C   0  0  0  0  0  0  0  0  0  0  0  0
  141.0030   71.4580  221.3640 O   0  0  0  0  0  0  0  0  0  0  0  0
  140.2050   71.2760  223.6030 C   0  0  0  0  0  0  0  0  0  0  0  0
  139.5780   70.0550  223.5350 C   0  0  0  0  0  0  0  0  0  0  0  0
  139.3560   69.3620  224.7270 C   0  0  0  0  0  0  0  0  0  0  0  0
  139.7470   69.8690  225.9430 C   0  0  0  0  0  0  0  0  0  0  0  0
  139.5540   69.2290  227.1420 C   0  0  0  0  0  0  0  0  0  0  0  0
  139.9880   69.8310  228.3120 C   0  0  0  0  0  0  0  0  0  0  0  0
  140.6140   71.0630  228.3180 C   0  0  0  0  0  0  0  0  0  0  0  0
  140.8100   71.7100  227.1090 C   0  0  0  0  0  0  0  0  0  0  0  0
  140.3720   71.0970  225.9480 C   0  0  0  0  0  0  0  0  0  0  0  0
  140.5800   71.7530  224.8010 N   0  0  0  0  0  0  0  0  0  0  0  0
  143.2158   76.5285  220.9159 H   0  0  0  0  0  0  0  0  0  0  0  0
  142.7092   75.6300  219.4452 H   0  0  0  0  0  0  0  0  0  0  0  0
  142.7079   77.4263  219.4452 H   0  0  0  0  0  0  0  0  0  0  0  0
  140.1001   77.5470  218.9961 H   0  0  0  0  0  0  0  0  0  0  0  0
  139.4397   77.7573  220.6451 H   0  0  0  0  0  0  0  0  0  0  0  0
  143.4507   80.0051  221.5946 H   0  0  0  0  0  0  0  0  0  0  0  0
  142.2786   81.3162  221.6944 H   0  0  0  0  0  0  0  0  0  0  0  0
  143.4940   80.0295  223.8773 H   0  0  0  0  0  0  0  0  0  0  0  0
  142.0245   81.0072  223.9946 H   0  0  0  0  0  0  0  0  0  0  0  0
  142.2983   77.9627  223.7073 H   0  0  0  0  0  0  0  0  0  0  0  0
  141.2420   78.8120  224.7960 H   0  0  0  0  0  0  0  0  0  0  0  0
  140.1285   77.9575  222.4989 H   0  0  0  0  0  0  0  0  0  0  0  0
  137.4470   80.4040  225.5726 H   0  0  0  0  0  0  0  0  0  0  0  0
  138.0037   82.6426  221.8992 H   0  0  0  0  0  0  0  0  0  0  0  0
  139.2999   74.1386  220.5708 H   0  0  0  0  0  0  0  0  0  0  0  0
  141.1209   73.7698  220.6738 H   0  0  0  0  0  0  0  0  0  0  0  0
  139.5950   73.8100  223.1650 H   0  0  0  0  0  0  0  0  0  0  0  0
  139.2600   69.6354  222.5692 H   0  0  0  0  0  0  0  0  0  0  0  0
  138.8545   68.3836  224.6916 H   0  0  0  0  0  0  0  0  0  0  0  0
  139.0592   68.2471  227.1736 H   0  0  0  0  0  0  0  0  0  0  0  0
  139.8290   69.3109  229.2681 H   0  0  0  0  0  0  0  0  0  0  0  0
  140.9489   71.5194  229.2612 H   0  0  0  0  0  0  0  0  0  0  0  0
  141.3042   72.6920  227.0723 H   0  0  0  0  0  0  0  0  0  0  0  0
  1  2  1  0
  2  3  1  0
  3  4  1  0
  4  5  2  0
  4  6  1  0
  6  7  1  0
  7  8  1  0
  8  9  1  0
  9 10  1  0
 10 11  1  0
 11 12  2  0
 12 13  1  0
 13 14  2  0
 14 15  1  0
 14 16  1  0
 16 17  2  0
  2 18  1  0
 18 19  2  0
 18 20  1  0
 20 21  1  0
 21 22  1  0
 22 23  2  0
 22 24  1  0
 24 25  2  0
 25 26  1  0
 26 27  2  0
 27 28  1  0
 28 29  2  0
 29 30  1  0
 30 31  2  0
 31 32  1  0
 32 33  2  0
 10  6  1  0
 17 11  1  0
 33 24  1  0
 32 27  1  0
  1 34  1  0
  1 35  1  0
  1 36  1  0
  3 37  1  0
  3 38  1  0
  7 39  1  0
  7 40  1  0
  8 41  1  0
  8 42  1  0
  9 43  1  0
  9 44  1  0
 10 45  1  6
 13 46  1  0
 16 47  1  0
 20 48  1  0
 20 49  1  0
 21 50  1  0
 25 51  1  0
 26 52  1  0
 28 53  1  0
 29 54  1  0
 30 55  1  0
 31 56  1  0
M  END
>  <smiles>  (33) 
CN(CC(=O)N1CCC[C@H]1c1ncc(F)cn1)C(=O)CNC(=O)c1ccc2ccccc2n1

>  <score_type>  (33) 
oracle

>  <origin>  (33) 
autodockgpu

>  <m_score__min__energy>  (33) 
-8.4700000000000006

>  <m_primary>  (33) 
energy

>  <rmsd>  (33) 
2.322737384791419

>  <m_score__min__rmsd>  (33) 
2.322737384791419

>  <meeko>  (33) 
{"free_energy": -8.47, "intermolecular_energy": -10.85, "internal_energy": -2.38, "cluster_size": 9, "cluster_id": 1, "rank_in_cluster": 1}

>  <energy>  (33) 
-7.66

>  <cluster_rmsd>  (33) 
1.91

>  <cluster>  (33) 
4

$$$$

     RDKit          3D

 56 59  0  0  0  0  0  0  0  0999 V2000
  136.1170   75.7340  222.0770 C   0  0  0  0  0  0  0  0  0  0  0  0
  137.4740   75.3730  221.8000 N   0  0  0  0  0  0  0  0  0  0  0  0
  138.4730   75.9840  222.7180 C   0  0  0  0  0  0  0  0  0  0  0  0
  139.7920   75.9900  222.0390 C   0  0  0  0  0  0  0  0  0  0  0  0
  140.5750   75.0260  222.2140 O   0  0  0  0  0  0  0  0  0  0  0  0
  140.0960   77.1110  221.2140 N   0  0  0  0  0  0  0  0  0  0  0  0
  139.1790   77.9460  220.4390 C   0  0  0  0  0  0  0  0  0  0  0  0
  140.0670   78.7550  219.5470 C   0  0  0  0  0  0  0  0  0  0  0  0
  141.4360   78.0820  219.6080 C   0  0  0  0  0  0  0  0  0  0  0  0
  141.4570   77.6000  221.0290 C   0  0  1  0  0  0  0  0  0  0  0  0
  141.7600   78.7290  221.9340 C   0  0  0  0  0  0  0  0  0  0  0  0
  141.5930   78.5280  223.2520 N   0  0  0  0  0  0  0  0  0  0  0  0
  141.8440   79.5030  224.1640 C   0  0  0  0  0  0  0  0  0  0  0  0
  142.2830   80.7200  223.6830 C   0  0  0  0  0  0  0  0  0  0  0  0
  142.5310   81.6890  224.6010 F   0  0  0  0  0  0  0  0  0  0  0  0
  142.4660   80.9630  222.3300 C   0  0  0  0  0  0  0  0  0  0  0  0
  142.1930   79.9360  221.4860 N   0  0  0  0  0  0  0  0  0  0  0  0
  137.9640   74.5430  220.7900 C   0  0  0  0  0  0  0  0  0  0  0  0
  137.6180   74.8870  219.5800 O   0  0  0  0  0  0  0  0  0  0  0  0
  138.8040   73.3560  220.8380 C   0  0  0  0  0  0  0  0  0  0  0  0
  139.1060   72.8130  222.1090 N   0  0  0  0  0  0  0  0  0  0  0  0
  139.1890   71.3970  222.3290 C   0  0  0  0  0  0  0  0  0  0  0  0
  139.0000   70.5670  221.3810 O   0  0  0  0  0  0  0  0  0  0  0  0
  139.4990   70.9290  223.6830 C   0  0  0  0  0  0  0  0  0  0  0  0
  139.1190   69.6610  224.0540 C   0  0  0  0  0  0  0  0  0  0  0  0
  139.4230   69.2340  225.3490 C   0  0  0  0  0  0  0  0  0  0  0  0
  140.0850   70.0440  226.2400 C   0  0  0  0  0  0  0  0  0  0  0  0
  140.4080   69.6740  227.5230 C   0  0  0  0  0  0  0  0  0  0  0  0
  141.0780   70.5700  228.3400 C   0  0  0  0  0  0  0  0  0  0  0  0
  141.4350   71.8340  227.9110 C   0  0  0  0  0  0  0  0  0  0  0  0
  141.1090   72.2090  226.6190 C   0  0  0  0  0  0  0  0  0  0  0  0
  140.4410   71.3040  225.8120 C   0  0  0  0  0  0  0  0  0  0  0  0
  140.1450   71.7030  224.5700 N   0  0  0  0  0  0  0  0  0  0  0  0
  135.9633   75.7749  223.1654 H   0  0  0  0  0  0  0  0  0  0  0  0
  135.9033   76.7202  221.6392 H   0  0  0  0  0  0  0  0  0  0  0  0
  135.4415   74.9843  221.6392 H   0  0  0  0  0  0  0  0  0  0  0  0
  138.1745   77.0150  222.9585 H   0  0  0  0  0  0  0  0  0  0  0  0
  138.5315   75.4052  223.6516 H   0  0  0  0  0  0  0  0  0  0  0  0
  138.4951   77.3228  219.8442 H   0  0  0  0  0  0  0  0  0  0  0  0
  138.5462   78.5768  221.0805 H   0  0  0  0  0  0  0  0  0  0  0  0
  139.6826   78.7501  218.5163 H   0  0  0  0  0  0  0  0  0  0  0  0
  140.1163   79.8061  219.8677 H   0  0  0  0  0  0  0  0  0  0  0  0
  141.5067   77.2457  218.8970 H   0  0  0  0  0  0  0  0  0  0  0  0
  142.2762   78.7397  219.3405 H   0  0  0  0  0  0  0  0  0  0  0  0
  142.2166   76.8333  221.2416 H   0  0  0  0  0  0  0  0  0  0  0  0
  141.7032   79.3298  225.2411 H   0  0  0  0  0  0  0  0  0  0  0  0
  142.8147   81.9384  221.9598 H   0  0  0  0  0  0  0  0  0  0  0  0
  138.2965   72.5711  220.2580 H   0  0  0  0  0  0  0  0  0  0  0  0
  139.7747   73.6871  220.4403 H   0  0  0  0  0  0  0  0  0  0  0  0
  139.2750   73.4500  222.9210 H   0  0  0  0  0  0  0  0  0  0  0  0
  138.5902   69.0009  223.3507 H   0  0  0  0  0  0  0  0  0  0  0  0
  139.1247   68.2230  225.6636 H   0  0  0  0  0  0  0  0  0  0  0  0
  140.1373   68.6760  227.8980 H   0  0  0  0  0  0  0  0  0  0  0  0
  141.3345   70.2648  229.3652 H   0  0  0  0  0  0  0  0  0  0  0  0
  141.9661   72.5264  228.5808 H   0  0  0  0  0  0  0  0  0  0  0  0
  141.3756   73.2069  226.2408 H   0  0  0  0  0  0  0  0  0  0  0  0
  1  2  1  0
  2  3  1  0
  3  4  1  0
  4  5  2  0
  4  6  1  0
  6  7  1  0
  7  8  1  0
  8  9  1  0
  9 10  1  0
 10 11  1  0
 11 12  2  0
 12 13  1  0
 13 14  2  0
 14 15  1  0
 14 16  1  0
 16 17  2  0
  2 18  1  0
 18 19  2  0
 18 20  1  0
 20 21  1  0
 21 22  1  0
 22 23  2  0
 22 24  1  0
 24 25  2  0
 25 26  1  0
 26 27  2  0
 27 28  1  0
 28 29  2  0
 29 30  1  0
 30 31  2  0
 31 32  1  0
 32 33  2  0
 10  6  1  0
 17 11  1  0
 33 24  1  0
 32 27  1  0
  1 34  1  0
  1 35  1  0
  1 36  1  0
  3 37  1  0
  3 38  1  0
  7 39  1  0
  7 40  1  0
  8 41  1  0
  8 42  1  0
  9 43  1  0
  9 44  1  0
 10 45  1  6
 13 46  1  0
 16 47  1  0
 20 48  1  0
 20 49  1  0
 21 50  1  0
 25 51  1  0
 26 52  1  0
 28 53  1  0
 29 54  1  0
 30 55  1  0
 31 56  1  0
M  END
>  <smiles>  (34) 
CN(CC(=O)N1CCC[C@H]1c1ncc(F)cn1)C(=O)CNC(=O)c1ccc2ccccc2n1

>  <score_type>  (34) 
oracle

>  <origin>  (34) 
autodockgpu

>  <m_score__min__energy>  (34) 
-8.4700000000000006

>  <m_primary>  (34) 
energy

>  <rmsd>  (34) 
2.7062516210195295

>  <m_score__min__rmsd>  (34) 
2.7062516210195295

>  <meeko>  (34) 
{"free_energy": -7.89, "intermolecular_energy": -10.28, "internal_energy": -2.73, "cluster_size": 18, "cluster_id": 4, "rank_in_cluster": 6}

>  <energy>  (34) 
-7.63

>  <cluster_rmsd>  (34) 
1.39

>  <cluster>  (34) 
4

$$$$

     RDKit          3D

 56 59  0  0  0  0  0  0  0  0999 V2000
  136.5620   73.7410  221.1470 C   0  0  0  0  0  0  0  0  0  0  0  0
  137.4990   74.8170  221.0210 N   0  0  0  0  0  0  0  0  0  0  0  0
  136.9860   76.1360  221.4800 C   0  0  0  0  0  0  0  0  0  0  0  0
  138.0140   76.7620  222.3490 C   0  0  0  0  0  0  0  0  0  0  0  0
  138.7620   76.0280  223.0390 O   0  0  0  0  0  0  0  0  0  0  0  0
  138.0910   78.1840  222.3460 N   0  0  0  0  0  0  0  0  0  0  0  0
  137.3310   79.1380  223.1530 C   0  0  0  0  0  0  0  0  0  0  0  0
  137.6010   80.4670  222.5190 C   0  0  0  0  0  0  0  0  0  0  0  0
  138.2220   80.1570  221.1600 C   0  0  0  0  0  0  0  0  0  0  0  0
  139.0040   78.9160  221.4760 C   0  0  1  0  0  0  0  0  0  0  0  0
  140.2530   79.2790  222.1780 C   0  0  0  0  0  0  0  0  0  0  0  0
  140.8710   80.4100  221.7970 N   0  0  0  0  0  0  0  0  0  0  0  0
  142.0240   80.8300  222.3810 C   0  0  0  0  0  0  0  0  0  0  0  0
  142.5430   80.0440  223.3910 C   0  0  0  0  0  0  0  0  0  0  0  0
  143.6950   80.4700  223.9670 F   0  0  0  0  0  0  0  0  0  0  0  0
  141.9330   78.8710  223.8090 C   0  0  0  0  0  0  0  0  0  0  0  0
  140.7840   78.5240  223.1740 N   0  0  0  0  0  0  0  0  0  0  0  0
  138.8020   74.7810  220.5230 C   0  0  0  0  0  0  0  0  0  0  0  0
  138.9520   75.3100  219.3390 O   0  0  0  0  0  0  0  0  0  0  0  0
  140.0390   74.2630  221.0880 C   0  0  0  0  0  0  0  0  0  0  0  0
  139.9520   73.4990  222.2750 N   0  0  0  0  0  0  0  0  0  0  0  0
  140.3650   72.1250  222.3250 C   0  0  0  0  0  0  0  0  0  0  0  0
  140.8350   71.5370  221.2980 O   0  0  0  0  0  0  0  0  0  0  0  0
  140.2280   71.4130  223.5990 C   0  0  0  0  0  0  0  0  0  0  0  0
  139.5940   70.1930  223.6170 C   0  0  0  0  0  0  0  0  0  0  0  0
  139.4750   69.5310  224.8410 C   0  0  0  0  0  0  0  0  0  0  0  0
  139.9710   70.0670  226.0050 C   0  0  0  0  0  0  0  0  0  0  0  0
  139.8800   69.4570  227.2320 C   0  0  0  0  0  0  0  0  0  0  0  0
  140.4160   70.0860  228.3450 C   0  0  0  0  0  0  0  0  0  0  0  0
  141.0430   71.3150  228.2650 C   0  0  0  0  0  0  0  0  0  0  0  0
  141.1350   71.9310  227.0280 C   0  0  0  0  0  0  0  0  0  0  0  0
  140.5960   71.2910  225.9250 C   0  0  0  0  0  0  0  0  0  0  0  0
  140.7060   71.9180  224.7480 N   0  0  0  0  0  0  0  0  0  0  0  0
  136.3821   73.5344  222.2123 H   0  0  0  0  0  0  0  0  0  0  0  0
  135.6148   74.0210  220.6627 H   0  0  0  0  0  0  0  0  0  0  0  0
  136.9695   72.8413  220.6627 H   0  0  0  0  0  0  0  0  0  0  0  0
  136.7910   76.7816  220.6110 H   0  0  0  0  0  0  0  0  0  0  0  0
  136.0483   76.0029  222.0395 H   0  0  0  0  0  0  0  0  0  0  0  0
  136.2566   78.9039  223.1220 H   0  0  0  0  0  0  0  0  0  0  0  0
  137.6233   79.1141  224.2132 H   0  0  0  0  0  0  0  0  0  0  0  0
  136.6641   81.0295  222.3933 H   0  0  0  0  0  0  0  0  0  0  0  0
  138.2675   81.0848  223.1387 H   0  0  0  0  0  0  0  0  0  0  0  0
  137.4516   79.9656  220.3985 H   0  0  0  0  0  0  0  0  0  0  0  0
  138.8239   80.9764  220.7401 H   0  0  0  0  0  0  0  0  0  0  0  0
  139.3129   78.3327  220.5960 H   0  0  0  0  0  0  0  0  0  0  0  0
  142.5230   81.7572  222.0626 H   0  0  0  0  0  0  0  0  0  0  0  0
  142.3581   78.2532  224.6138 H   0  0  0  0  0  0  0  0  0  0  0  0
  140.5088   73.6278  220.3226 H   0  0  0  0  0  0  0  0  0  0  0  0
  140.6088   75.1588  221.3759 H   0  0  0  0  0  0  0  0  0  0  0  0
  139.5770   73.9340  223.1490 H   0  0  0  0  0  0  0  0  0  0  0  0
  139.1919   69.7509  222.6935 H   0  0  0  0  0  0  0  0  0  0  0  0
  138.9706   68.5540  224.8741 H   0  0  0  0  0  0  0  0  0  0  0  0
  139.3866   68.4788  227.3307 H   0  0  0  0  0  0  0  0  0  0  0  0
  140.3397   69.5906  229.3241 H   0  0  0  0  0  0  0  0  0  0  0  0
  141.4597   71.7933  229.1637 H   0  0  0  0  0  0  0  0  0  0  0  0
  141.6266   72.9095  226.9239 H   0  0  0  0  0  0  0  0  0  0  0  0
  1  2  1  0
  2  3  1  0
  3  4  1  0
  4  5  2  0
  4  6  1  0
  6  7  1  0
  7  8  1  0
  8  9  1  0
  9 10  1  0
 10 11  1  0
 11 12  2  0
 12 13  1  0
 13 14  2  0
 14 15  1  0
 14 16  1  0
 16 17  2  0
  2 18  1  0
 18 19  2  0
 18 20  1  0
 20 21  1  0
 21 22  1  0
 22 23  2  0
 22 24  1  0
 24 25  2  0
 25 26  1  0
 26 27  2  0
 27 28  1  0
 28 29  2  0
 29 30  1  0
 30 31  2  0
 31 32  1  0
 32 33  2  0
 10  6  1  0
 17 11  1  0
 33 24  1  0
 32 27  1  0
  1 34  1  0
  1 35  1  0
  1 36  1  0
  3 37  1  0
  3 38  1  0
  7 39  1  0
  7 40  1  0
  8 41  1  0
  8 42  1  0
  9 43  1  0
  9 44  1  0
 10 45  1  6
 13 46  1  0
 16 47  1  0
 20 48  1  0
 20 49  1  0
 21 50  1  0
 25 51  1  0
 26 52  1  0
 28 53  1  0
 29 54  1  0
 30 55  1  0
 31 56  1  0
M  END
>  <smiles>  (35) 
CN(CC(=O)N1CCC[C@H]1c1ncc(F)cn1)C(=O)CNC(=O)c1ccc2ccccc2n1

>  <score_type>  (35) 
oracle

>  <origin>  (35) 
autodockgpu

>  <m_score__min__energy>  (35) 
-8.4700000000000006

>  <m_primary>  (35) 
energy

>  <rmsd>  (35) 
2.895916557493277

>  <m_score__min__rmsd>  (35) 
2.895916557493277

>  <meeko>  (35) 
{"free_energy": -7.35, "intermolecular_energy": -9.74, "internal_energy": -2.55, "cluster_size": 18, "cluster_id": 4, "rank_in_cluster": 18}

>  <energy>  (35) 
-7.56

>  <cluster_rmsd>  (35) 
1.77

>  <cluster>  (35) 
4

$$$$

     RDKit          3D

 56 59  0  0  0  0  0  0  0  0999 V2000
  139.5440   71.9240  222.7130 C   0  0  0  0  0  0  0  0  0  0  0  0
  139.5200   72.7920  221.5750 N   0  0  0  0  0  0  0  0  0  0  0  0
  140.8570   73.0700  220.9850 C   0  0  0  0  0  0  0  0  0  0  0  0
  141.1460   74.5180  221.1380 C   0  0  0  0  0  0  0  0  0  0  0  0
  140.9460   75.0680  222.2480 O   0  0  0  0  0  0  0  0  0  0  0  0
  141.6430   75.2080  219.9950 N   0  0  0  0  0  0  0  0  0  0  0  0
  141.5670   74.8150  218.5890 C   0  0  0  0  0  0  0  0  0  0  0  0
  142.5040   75.7450  217.8860 C   0  0  0  0  0  0  0  0  0  0  0  0
  143.3410   76.3950  218.9830 C   0  0  0  0  0  0  0  0  0  0  0  0
  142.3380   76.4870  220.0950 C   0  0  1  0  0  0  0  0  0  0  0  0
  141.4260   77.6240  219.8520 C   0  0  0  0  0  0  0  0  0  0  0  0
  140.1130   77.3560  219.7550 N   0  0  0  0  0  0  0  0  0  0  0  0
  139.1950   78.3320  219.5320 C   0  0  0  0  0  0  0  0  0  0  0  0
  139.6650   79.6250  219.4080 C   0  0  0  0  0  0  0  0  0  0  0  0
  138.7410   80.5940  219.1860 F   0  0  0  0  0  0  0  0  0  0  0  0
  141.0120   79.9390  219.5030 C   0  0  0  0  0  0  0  0  0  0  0  0
  141.8630   78.9040  219.7270 N   0  0  0  0  0  0  0  0  0  0  0  0
  138.4200   73.4020  220.9690 C   0  0  0  0  0  0  0  0  0  0  0  0
  137.9790   72.8000  219.8980 O   0  0  0  0  0  0  0  0  0  0  0  0
  137.6620   74.5940  221.3180 C   0  0  0  0  0  0  0  0  0  0  0  0
  138.3870   75.7690  221.6260 N   0  0  0  0  0  0  0  0  0  0  0  0
  137.8870   76.7500  222.5460 C   0  0  0  0  0  0  0  0  0  0  0  0
  136.7660   76.5980  223.1320 O   0  0  0  0  0  0  0  0  0  0  0  0
  138.7070   77.9400  222.7950 C   0  0  0  0  0  0  0  0  0  0  0  0
  138.0840   79.1320  223.0780 C   0  0  0  0  0  0  0  0  0  0  0  0
  138.8820   80.2540  223.3120 C   0  0  0  0  0  0  0  0  0  0  0  0
  140.2540   80.1860  223.2660 C   0  0  0  0  0  0  0  0  0  0  0  0
  141.0850   81.2580  223.4880 C   0  0  0  0  0  0  0  0  0  0  0  0
  142.4570   81.0800  223.4180 C   0  0  0  0  0  0  0  0  0  0  0  0
  143.0270   79.8550  223.1280 C   0  0  0  0  0  0  0  0  0  0  0  0
  142.1910   78.7740  222.9040 C   0  0  0  0  0  0  0  0  0  0  0  0
  140.8220   78.9650  222.9780 C   0  0  0  0  0  0  0  0  0  0  0  0
  140.0480   77.8970  222.7550 N   0  0  0  0  0  0  0  0  0  0  0  0
  139.5274   72.5258  223.6336 H   0  0  0  0  0  0  0  0  0  0  0  0
  138.6637   71.2648  222.6899 H   0  0  0  0  0  0  0  0  0  0  0  0
  140.4594   71.3144  222.6899 H   0  0  0  0  0  0  0  0  0  0  0  0
  141.6239   72.4809  221.5092 H   0  0  0  0  0  0  0  0  0  0  0  0
  140.8645   72.7940  219.9202 H   0  0  0  0  0  0  0  0  0  0  0  0
  141.8870   73.7705  218.4599 H   0  0  0  0  0  0  0  0  0  0  0  0
  140.5425   74.8773  218.1933 H   0  0  0  0  0  0  0  0  0  0  0  0
  143.1490   75.1869  217.1914 H   0  0  0  0  0  0  0  0  0  0  0  0
  141.9616   76.4947  217.2912 H   0  0  0  0  0  0  0  0  0  0  0  0
  144.1980   75.7650  219.2636 H   0  0  0  0  0  0  0  0  0  0  0  0
  143.7909   77.3576  218.6986 H   0  0  0  0  0  0  0  0  0  0  0  0
  142.7724   76.6592  221.0908 H   0  0  0  0  0  0  0  0  0  0  0  0
  138.1221   78.1023  219.4534 H   0  0  0  0  0  0  0  0  0  0  0  0
  141.3732   80.9731  219.4022 H   0  0  0  0  0  0  0  0  0  0  0  0
  137.0059   74.8269  220.4663 H   0  0  0  0  0  0  0  0  0  0  0  0
  137.1481   74.3316  222.2545 H   0  0  0  0  0  0  0  0  0  0  0  0
  139.3150   75.9410  221.1760 H   0  0  0  0  0  0  0  0  0  0  0  0
  136.9869   79.2004  223.1191 H   0  0  0  0  0  0  0  0  0  0  0  0
  138.4003   81.2165  223.5389 H   0  0  0  0  0  0  0  0  0  0  0  0
  140.6646   82.2479  223.7191 H   0  0  0  0  0  0  0  0  0  0  0  0
  143.1148   81.9428  223.5993 H   0  0  0  0  0  0  0  0  0  0  0  0
  144.1199   79.7412  223.0763 H   0  0  0  0  0  0  0  0  0  0  0  0
  142.6069   77.7825  222.6717 H   0  0  0  0  0  0  0  0  0  0  0  0
  1  2  1  0
  2  3  1  0
  3  4  1  0
  4  5  2  0
  4  6  1  0
  6  7  1  0
  7  8  1  0
  8  9  1  0
  9 10  1  0
 10 11  1  0
 11 12  2  0
 12 13  1  0
 13 14  2  0
 14 15  1  0
 14 16  1  0
 16 17  2  0
  2 18  1  0
 18 19  2  0
 18 20  1  0
 20 21  1  0
 21 22  1  0
 22 23  2  0
 22 24  1  0
 24 25  2  0
 25 26  1  0
 26 27  2  0
 27 28  1  0
 28 29  2  0
 29 30  1  0
 30 31  2  0
 31 32  1  0
 32 33  2  0
 10  6  1  0
 17 11  1  0
 33 24  1  0
 32 27  1  0
  1 34  1  0
  1 35  1  0
  1 36  1  0
  3 37  1  0
  3 38  1  0
  7 39  1  0
  7 40  1  0
  8 41  1  0
  8 42  1  0
  9 43  1  0
  9 44  1  0
 10 45  1  1
 13 46  1  0
 16 47  1  0
 20 48  1  0
 20 49  1  0
 21 50  1  0
 25 51  1  0
 26 52  1  0
 28 53  1  0
 29 54  1  0
 30 55  1  0
 31 56  1  0
M  END
>  <smiles>  (36) 
CN(CC(=O)N1CCC[C@H]1c1ncc(F)cn1)C(=O)CNC(=O)c1ccc2ccccc2n1

>  <score_type>  (36) 
oracle

>  <origin>  (36) 
autodockgpu

>  <m_score__min__energy>  (36) 
-8.4700000000000006

>  <m_primary>  (36) 
energy

>  <rmsd>  (36) 
7.569429658461813

>  <m_score__min__rmsd>  (36) 
7.569429658461813

>  <meeko>  (36) 
{"free_energy": -5.11, "intermolecular_energy": -7.49, "internal_energy": -5.26, "cluster_size": 1, "cluster_id": 10, "rank_in_cluster": 1}

>  <energy>  (36) 
-7.56

>  <cluster_rmsd>  (36) 
1.24

>  <cluster>  (36) 
4

$$$$

     RDKit          3D

 56 59  0  0  0  0  0  0  0  0999 V2000
  139.7640   77.1960  219.4530 C   0  0  0  0  0  0  0  0  0  0  0  0
  140.5020   76.6780  220.5640 N   0  0  0  0  0  0  0  0  0  0  0  0
  141.8080   77.3490  220.8030 C   0  0  0  0  0  0  0  0  0  0  0  0
  141.8380   78.6100  220.0190 C   0  0  0  0  0  0  0  0  0  0  0  0
  142.0880   78.5600  218.7900 O   0  0  0  0  0  0  0  0  0  0  0  0
  141.5760   79.8200  220.7210 N   0  0  0  0  0  0  0  0  0  0  0  0
  141.3220   81.1530  220.1760 C   0  0  0  0  0  0  0  0  0  0  0  0
  141.4200   82.0690  221.3550 C   0  0  0  0  0  0  0  0  0  0  0  0
  142.0790   81.2480  222.4610 C   0  0  0  0  0  0  0  0  0  0  0  0
  141.5240   79.8840  222.1780 C   0  0  1  0  0  0  0  0  0  0  0  0
  140.1350   79.7970  222.6780 C   0  0  0  0  0  0  0  0  0  0  0  0
  139.2680   79.0510  221.9730 N   0  0  0  0  0  0  0  0  0  0  0  0
  137.9710   78.9090  222.3510 C   0  0  0  0  0  0  0  0  0  0  0  0
  137.5720   79.5650  223.4990 C   0  0  0  0  0  0  0  0  0  0  0  0
  136.2740   79.4180  223.8690 F   0  0  0  0  0  0  0  0  0  0  0  0
  138.4390   80.3430  224.2510 C   0  0  0  0  0  0  0  0  0  0  0  0
  139.7180   80.4320  223.8040 N   0  0  0  0  0  0  0  0  0  0  0  0
  140.1570   75.6360  221.4280 C   0  0  0  0  0  0  0  0  0  0  0  0
  139.8560   76.0070  222.6420 O   0  0  0  0  0  0  0  0  0  0  0  0
  140.0640   74.1990  221.2200 C   0  0  0  0  0  0  0  0  0  0  0  0
  139.9450   73.3750  222.3640 N   0  0  0  0  0  0  0  0  0  0  0  0
  140.3300   71.9930  222.3470 C   0  0  0  0  0  0  0  0  0  0  0  0
  140.8030   71.4500  221.2960 O   0  0  0  0  0  0  0  0  0  0  0  0
  140.1620   71.2170  223.5800 C   0  0  0  0  0  0  0  0  0  0  0  0
  139.5590   69.9840  223.5140 C   0  0  0  0  0  0  0  0  0  0  0  0
  139.4080   69.2610  224.7000 C   0  0  0  0  0  0  0  0  0  0  0  0
  139.8450   69.7520  225.9070 C   0  0  0  0  0  0  0  0  0  0  0  0
  139.7220   69.0830  227.1000 C   0  0  0  0  0  0  0  0  0  0  0  0
  140.1970   69.6700  228.2610 C   0  0  0  0  0  0  0  0  0  0  0  0
  140.7950   70.9160  228.2650 C   0  0  0  0  0  0  0  0  0  0  0  0
  140.9200   71.5920  227.0630 C   0  0  0  0  0  0  0  0  0  0  0  0
  140.4420   70.9930  225.9100 C   0  0  0  0  0  0  0  0  0  0  0  0
  140.5810   71.6780  224.7690 N   0  0  0  0  0  0  0  0  0  0  0  0
  138.9158   77.7914  219.8218 H   0  0  0  0  0  0  0  0  0  0  0  0
  140.4204   77.8326  218.8415 H   0  0  0  0  0  0  0  0  0  0  0  0
  139.3885   76.3623  218.8415 H   0  0  0  0  0  0  0  0  0  0  0  0
  141.9192   77.5747  221.8738 H   0  0  0  0  0  0  0  0  0  0  0  0
  142.6331   76.6913  220.4923 H   0  0  0  0  0  0  0  0  0  0  0  0
  142.0764   81.4129  219.4188 H   0  0  0  0  0  0  0  0  0  0  0  0
  140.3441   81.2196  219.6767 H   0  0  0  0  0  0  0  0  0  0  0  0
  142.0364   82.9463  221.1092 H   0  0  0  0  0  0  0  0  0  0  0  0
  140.4325   82.4446  221.6611 H   0  0  0  0  0  0  0  0  0  0  0  0
  143.1756   81.2631  222.3759 H   0  0  0  0  0  0  0  0  0  0  0  0
  141.8785   81.6159  223.4781 H   0  0  0  0  0  0  0  0  0  0  0  0
  142.0693   79.0592  222.6600 H   0  0  0  0  0  0  0  0  0  0  0  0
  137.2678   78.2970  221.7671 H   0  0  0  0  0  0  0  0  0  0  0  0
  138.1077   80.8615  225.1628 H   0  0  0  0  0  0  0  0  0  0  0  0
  139.1818   74.0148  220.5893 H   0  0  0  0  0  0  0  0  0  0  0  0
  141.0305   73.9194  220.7754 H   0  0  0  0  0  0  0  0  0  0  0  0
  139.5670   73.7720  223.2550 H   0  0  0  0  0  0  0  0  0  0  0  0
  139.2053   69.5778  222.5549 H   0  0  0  0  0  0  0  0  0  0  0  0
  138.9266   68.2725  224.6668 H   0  0  0  0  0  0  0  0  0  0  0  0
  139.2504   68.0898  227.1332 H   0  0  0  0  0  0  0  0  0  0  0  0
  140.0949   69.1263  229.2118 H   0  0  0  0  0  0  0  0  0  0  0  0
  141.1632   71.3604  229.2014 H   0  0  0  0  0  0  0  0  0  0  0  0
  141.3900   72.5858  227.0250 H   0  0  0  0  0  0  0  0  0  0  0  0
  1  2  1  0
  2  3  1  0
  3  4  1  0
  4  5  2  0
  4  6  1  0
  6  7  1  0
  7  8  1  0
  8  9  1  0
  9 10  1  0
 10 11  1  0
 11 12  2  0
 12 13  1  0
 13 14  2  0
 14 15  1  0
 14 16  1  0
 16 17  2  0
  2 18  1  0
 18 19  2  0
 18 20  1  0
 20 21  1  0
 21 22  1  0
 22 23  2  0
 22 24  1  0
 24 25  2  0
 25 26  1  0
 26 27  2  0
 27 28  1  0
 28 29  2  0
 29 30  1  0
 30 31  2  0
 31 32  1  0
 32 33  2  0
 10  6  1  0
 17 11  1  0
 33 24  1  0
 32 27  1  0
  1 34  1  0
  1 35  1  0
  1 36  1  0
  3 37  1  0
  3 38  1  0
  7 39  1  0
  7 40  1  0
  8 41  1  0
  8 42  1  0
  9 43  1  0
  9 44  1  0
 10 45  1  1
 13 46  1  0
 16 47  1  0
 20 48  1  0
 20 49  1  0
 21 50  1  0
 25 51  1  0
 26 52  1  0
 28 53  1  0
 29 54  1  0
 30 55  1  0
 31 56  1  0
M  END
>  <smiles>  (37) 
CN(CC(=O)N1CCC[C@H]1c1ncc(F)cn1)C(=O)CNC(=O)c1ccc2ccccc2n1

>  <score_type>  (37) 
oracle

>  <origin>  (37) 
autodockgpu

>  <m_score__min__energy>  (37) 
-8.4700000000000006

>  <m_primary>  (37) 
energy

>  <rmsd>  (37) 
1.798994179258174

>  <m_score__min__rmsd>  (37) 
1.798994179258174

>  <meeko>  (37) 
{"free_energy": -7.77, "intermolecular_energy": -10.15, "internal_energy": -2.47, "cluster_size": 9, "cluster_id": 1, "rank_in_cluster": 6}

>  <energy>  (37) 
-7.35

>  <cluster_rmsd>  (37) 
1.73

>  <cluster>  (37) 
4

$$$$

     RDKit          3D

 56 59  0  0  0  0  0  0  0  0999 V2000
  137.1770   75.7080  222.3040 C   0  0  0  0  0  0  0  0  0  0  0  0
  138.5210   75.9970  221.9040 N   0  0  0  0  0  0  0  0  0  0  0  0
  138.7260   77.3750  221.3840 C   0  0  0  0  0  0  0  0  0  0  0  0
  139.1470   78.2450  222.5110 C   0  0  0  0  0  0  0  0  0  0  0  0
  138.3450   78.4590  223.4520 O   0  0  0  0  0  0  0  0  0  0  0  0
  140.4610   78.7920  222.4560 N   0  0  0  0  0  0  0  0  0  0  0  0
  141.5700   78.5940  223.3880 C   0  0  0  0  0  0  0  0  0  0  0  0
  142.5760   79.6330  223.0040 C   0  0  0  0  0  0  0  0  0  0  0  0
  141.8350   80.6080  222.0940 C   0  0  0  0  0  0  0  0  0  0  0  0
  140.8930   79.6810  221.3830 C   0  0  1  0  0  0  0  0  0  0  0  0
  141.6190   78.9470  220.3250 C   0  0  0  0  0  0  0  0  0  0  0  0
  141.8900   77.6500  220.5460 N   0  0  0  0  0  0  0  0  0  0  0  0
  142.5530   76.8900  219.6350 C   0  0  0  0  0  0  0  0  0  0  0  0
  142.9410   77.5050  218.4620 C   0  0  0  0  0  0  0  0  0  0  0  0
  143.6020   76.7380  217.5580 F   0  0  0  0  0  0  0  0  0  0  0  0
  142.6780   78.8410  218.2000 C   0  0  0  0  0  0  0  0  0  0  0  0
  142.0110   79.5290  219.1620 N   0  0  0  0  0  0  0  0  0  0  0  0
  139.6370   75.1580  221.9360 C   0  0  0  0  0  0  0  0  0  0  0  0
  140.7390   75.7270  222.3430 O   0  0  0  0  0  0  0  0  0  0  0  0
  139.7990   73.7520  221.6010 C   0  0  0  0  0  0  0  0  0  0  0  0
  139.9490   72.8340  222.6680 N   0  0  0  0  0  0  0  0  0  0  0  0
  139.1260   71.6640  222.7840 C   0  0  0  0  0  0  0  0  0  0  0  0
  138.2250   71.3990  221.9220 O   0  0  0  0  0  0  0  0  0  0  0  0
  139.3510   70.7770  223.9290 C   0  0  0  0  0  0  0  0  0  0  0  0
  138.9150   69.4750  223.8590 C   0  0  0  0  0  0  0  0  0  0  0  0
  139.1390   68.6450  224.9610 C   0  0  0  0  0  0  0  0  0  0  0  0
  139.7760   69.1000  226.0900 C   0  0  0  0  0  0  0  0  0  0  0  0
  140.0220   68.3260  227.1980 C   0  0  0  0  0  0  0  0  0  0  0  0
  140.6740   68.8850  228.2860 C   0  0  0  0  0  0  0  0  0  0  0  0
  141.0900   70.2030  228.2980 C   0  0  0  0  0  0  0  0  0  0  0  0
  140.8430   70.9830  227.1810 C   0  0  0  0  0  0  0  0  0  0  0  0
  140.1920   70.4130  226.1020 C   0  0  0  0  0  0  0  0  0  0  0  0
  139.9720   71.1990  225.0410 N   0  0  0  0  0  0  0  0  0  0  0  0
  137.1161   75.6949  223.4022 H   0  0  0  0  0  0  0  0  0  0  0  0
  136.5024   76.4816  221.9085 H   0  0  0  0  0  0  0  0  0  0  0  0
  136.8800   74.7255  221.9085 H   0  0  0  0  0  0  0  0  0  0  0  0
  139.5069   77.3671  220.6093 H   0  0  0  0  0  0  0  0  0  0  0  0
  137.7926   77.7545  220.9427 H   0  0  0  0  0  0  0  0  0  0  0  0
  141.2362   78.7415  224.4257 H   0  0  0  0  0  0  0  0  0  0  0  0
  141.9818   77.5753  223.3359 H   0  0  0  0  0  0  0  0  0  0  0  0
  142.9514   80.1524  223.8980 H   0  0  0  0  0  0  0  0  0  0  0  0
  143.4468   79.1885  222.4998 H   0  0  0  0  0  0  0  0  0  0  0  0
  141.2917   81.3682  222.6744 H   0  0  0  0  0  0  0  0  0  0  0  0
  142.4881   81.1889  221.4261 H   0  0  0  0  0  0  0  0  0  0  0  0
  140.0523   80.1799  220.8786 H   0  0  0  0  0  0  0  0  0  0  0  0
  142.7713   75.8287  219.8247 H   0  0  0  0  0  0  0  0  0  0  0  0
  142.9935   79.3190  217.2609 H   0  0  0  0  0  0  0  0  0  0  0  0
  138.9115   73.4467  221.0274 H   0  0  0  0  0  0  0  0  0  0  0  0
  140.7539   73.7042  221.0571 H   0  0  0  0  0  0  0  0  0  0  0  0
  140.6770   73.0010  223.4000 H   0  0  0  0  0  0  0  0  0  0  0  0
  138.4043   69.0972  222.9610 H   0  0  0  0  0  0  0  0  0  0  0  0
  138.7964   67.6004  224.9234 H   0  0  0  0  0  0  0  0  0  0  0  0
  139.7047   67.2730  227.2215 H   0  0  0  0  0  0  0  0  0  0  0  0
  140.8668   68.2587  229.1695 H   0  0  0  0  0  0  0  0  0  0  0  0
  141.6053   70.6225  229.1746 H   0  0  0  0  0  0  0  0  0  0  0  0
  141.1586   72.0364  227.1523 H   0  0  0  0  0  0  0  0  0  0  0  0
  1  2  1  0
  2  3  1  0
  3  4  1  0
  4  5  2  0
  4  6  1  0
  6  7  1  0
  7  8  1  0
  8  9  1  0
  9 10  1  0
 10 11  1  0
 11 12  2  0
 12 13  1  0
 13 14  2  0
 14 15  1  0
 14 16  1  0
 16 17  2  0
  2 18  1  0
 18 19  2  0
 18 20  1  0
 20 21  1  0
 21 22  1  0
 22 23  2  0
 22 24  1  0
 24 25  2  0
 25 26  1  0
 26 27  2  0
 27 28  1  0
 28 29  2  0
 29 30  1  0
 30 31  2  0
 31 32  1  0
 32 33  2  0
 10  6  1  0
 17 11  1  0
 33 24  1  0
 32 27  1  0
  1 34  1  0
  1 35  1  0
  1 36  1  0
  3 37  1  0
  3 38  1  0
  7 39  1  0
  7 40  1  0
  8 41  1  0
  8 42  1  0
  9 43  1  0
  9 44  1  0
 10 45  1  6
 13 46  1  0
 16 47  1  0
 20 48  1  0
 20 49  1  0
 21 50  1  0
 25 51  1  0
 26 52  1  0
 28 53  1  0
 29 54  1  0
 30 55  1  0
 31 56  1  0
M  END
>  <smiles>  (38) 
CN(CC(=O)N1CCC[C@H]1c1ncc(F)cn1)C(=O)CNC(=O)c1ccc2ccccc2n1

>  <score_type>  (38) 
oracle

>  <origin>  (38) 
autodockgpu

>  <m_score__min__energy>  (38) 
-8.4700000000000006

>  <m_primary>  (38) 
energy

>  <rmsd>  (38) 
2.506257575523555

>  <m_score__min__rmsd>  (38) 
2.506257575523555

>  <meeko>  (38) 
{"free_energy": -7.93, "intermolecular_energy": -10.32, "internal_energy": -2.29, "cluster_size": 9, "cluster_id": 2, "rank_in_cluster": 3}

>  <energy>  (38) 
-6.6

>  <cluster_rmsd>  (38) 
0.0

>  <cluster>  (38) 
5

$$$$

     RDKit          3D

 56 59  0  0  0  0  0  0  0  0999 V2000
  140.0080   75.7460  218.3770 C   0  0  0  0  0  0  0  0  0  0  0  0
  140.4100   74.9930  219.5260 N   0  0  0  0  0  0  0  0  0  0  0  0
  141.5660   75.5690  220.2650 C   0  0  0  0  0  0  0  0  0  0  0  0
  141.0720   76.1290  221.5470 C   0  0  0  0  0  0  0  0  0  0  0  0
  140.4860   75.3740  222.3600 O   0  0  0  0  0  0  0  0  0  0  0  0
  141.2970   77.5160  221.7820 N   0  0  0  0  0  0  0  0  0  0  0  0
  141.7300   78.5420  220.8350 C   0  0  0  0  0  0  0  0  0  0  0  0
  142.0870   79.7170  221.6890 C   0  0  0  0  0  0  0  0  0  0  0  0
  142.1760   79.1800  223.1140 C   0  0  0  0  0  0  0  0  0  0  0  0
  141.1070   78.1270  223.0930 C   0  0  1  0  0  0  0  0  0  0  0  0
  139.7780   78.7630  223.2120 C   0  0  0  0  0  0  0  0  0  0  0  0
  139.7040   79.9200  223.8900 N   0  0  0  0  0  0  0  0  0  0  0  0
  138.5280   80.5820  224.0540 C   0  0  0  0  0  0  0  0  0  0  0  0
  137.4010   80.0160  223.4920 C   0  0  0  0  0  0  0  0  0  0  0  0
  136.2310   80.6840  223.6610 F   0  0  0  0  0  0  0  0  0  0  0  0
  137.4410   78.8240  222.7860 C   0  0  0  0  0  0  0  0  0  0  0  0
  138.6550   78.2270  222.6680 N   0  0  0  0  0  0  0  0  0  0  0  0
  139.8670   73.8070  220.0230 C   0  0  0  0  0  0  0  0  0  0  0  0
  140.4290   72.7160  219.5750 O   0  0  0  0  0  0  0  0  0  0  0  0
  138.7850   73.5580  220.9620 C   0  0  0  0  0  0  0  0  0  0  0  0
  139.1140   72.9720  222.2070 N   0  0  0  0  0  0  0  0  0  0  0  0
  139.1970   71.5500  222.3790 C   0  0  0  0  0  0  0  0  0  0  0  0
  138.9830   70.7520  221.4090 O   0  0  0  0  0  0  0  0  0  0  0  0
  139.5380   71.0370  223.7090 C   0  0  0  0  0  0  0  0  0  0  0  0
  139.2300   69.7340  224.0210 C   0  0  0  0  0  0  0  0  0  0  0  0
  139.5620   69.2640  225.2940 C   0  0  0  0  0  0  0  0  0  0  0  0
  140.1810   70.0670  226.2210 C   0  0  0  0  0  0  0  0  0  0  0  0
  140.5300   69.6560  227.4850 C   0  0  0  0  0  0  0  0  0  0  0  0
  141.1520   70.5480  228.3430 C   0  0  0  0  0  0  0  0  0  0  0  0
  141.4360   71.8490  227.9730 C   0  0  0  0  0  0  0  0  0  0  0  0
  141.0860   72.2650  226.7000 C   0  0  0  0  0  0  0  0  0  0  0  0
  140.4660   71.3640  225.8520 C   0  0  0  0  0  0  0  0  0  0  0  0
  140.1430   71.8040  224.6300 N   0  0  0  0  0  0  0  0  0  0  0  0
  139.5129   76.6733  218.7011 H   0  0  0  0  0  0  0  0  0  0  0  0
  140.8934   75.9947  217.7734 H   0  0  0  0  0  0  0  0  0  0  0  0
  139.3087   75.1487  217.7734 H   0  0  0  0  0  0  0  0  0  0  0  0
  142.3081   74.7821  220.4651 H   0  0  0  0  0  0  0  0  0  0  0  0
  142.0407   76.3599  219.6657 H   0  0  0  0  0  0  0  0  0  0  0  0
  142.6041   78.1981  220.2626 H   0  0  0  0  0  0  0  0  0  0  0  0
  140.9510   78.7840  220.0970 H   0  0  0  0  0  0  0  0  0  0  0  0
  143.0540   80.1383  221.3768 H   0  0  0  0  0  0  0  0  0  0  0  0
  141.3419   80.5217  221.6043 H   0  0  0  0  0  0  0  0  0  0  0  0
  143.1656   78.7464  223.3208 H   0  0  0  0  0  0  0  0  0  0  0  0
  142.0436   79.9437  223.8945 H   0  0  0  0  0  0  0  0  0  0  0  0
  141.1647   77.3982  223.9149 H   0  0  0  0  0  0  0  0  0  0  0  0
  138.4765   81.5290  224.6112 H   0  0  0  0  0  0  0  0  0  0  0  0
  136.5352   78.3838  222.3436 H   0  0  0  0  0  0  0  0  0  0  0  0
  138.3033   74.5245  221.1714 H   0  0  0  0  0  0  0  0  0  0  0  0
  138.1513   72.8103  220.4626 H   0  0  0  0  0  0  0  0  0  0  0  0
  139.3050   73.5820  223.0350 H   0  0  0  0  0  0  0  0  0  0  0  0
  138.7356   69.0793  223.2882 H   0  0  0  0  0  0  0  0  0  0  0  0
  139.3216   68.2243  225.5610 H   0  0  0  0  0  0  0  0  0  0  0  0
  140.3173   68.6277  227.8126 H   0  0  0  0  0  0  0  0  0  0  0  0
  141.4291   70.2097  229.3523 H   0  0  0  0  0  0  0  0  0  0  0  0
  141.9290   72.5383  228.6743 H   0  0  0  0  0  0  0  0  0  0  0  0
  141.2967   73.2925  226.3686 H   0  0  0  0  0  0  0  0  0  0  0  0
  1  2  1  0
  2  3  1  0
  3  4  1  0
  4  5  2  0
  4  6  1  0
  6  7  1  0
  7  8  1  0
  8  9  1  0
  9 10  1  0
 10 11  1  0
 11 12  2  0
 12 13  1  0
 13 14  2  0
 14 15  1  0
 14 16  1  0
 16 17  2  0
  2 18  1  0
 18 19  2  0
 18 20  1  0
 20 21  1  0
 21 22  1  0
 22 23  2  0
 22 24  1  0
 24 25  2  0
 25 26  1  0
 26 27  2  0
 27 28  1  0
 28 29  2  0
 29 30  1  0
 30 31  2  0
 31 32  1  0
 32 33  2  0
 10  6  1  0
 17 11  1  0
 33 24  1  0
 32 27  1  0
  1 34  1  0
  1 35  1  0
  1 36  1  0
  3 37  1  0
  3 38  1  0
  7 39  1  0
  7 40  1  0
  8 41  1  0
  8 42  1  0
  9 43  1  0
  9 44  1  0
 10 45  1  1
 13 46  1  0
 16 47  1  0
 20 48  1  0
 20 49  1  0
 21 50  1  0
 25 51  1  0
 26 52  1  0
 28 53  1  0
 29 54  1  0
 30 55  1  0
 31 56  1  0
M  END
>  <smiles>  (39) 
CN(CC(=O)N1CCC[C@H]1c1ncc(F)cn1)C(=O)CNC(=O)c1ccc2ccccc2n1

>  <score_type>  (39) 
oracle

>  <origin>  (39) 
autodockgpu

>  <m_score__min__energy>  (39) 
-8.4700000000000006

>  <m_primary>  (39) 
energy

>  <rmsd>  (39) 
1.9386869957249684

>  <m_score__min__rmsd>  (39) 
1.9386869957249684

>  <meeko>  (39) 
{"free_energy": -7.76, "intermolecular_energy": -10.15, "internal_energy": -2.63, "cluster_size": 9, "cluster_id": 1, "rank_in_cluster": 7}

>  <energy>  (39) 
-6.4

>  <cluster_rmsd>  (39) 
0.62

>  <cluster>  (39) 
5

$$$$

     RDKit          3D

 56 59  0  0  0  0  0  0  0  0999 V2000
  136.7430   75.7750  220.7090 C   0  0  0  0  0  0  0  0  0  0  0  0
  138.1740   75.7750  220.6690 N   0  0  0  0  0  0  0  0  0  0  0  0
  138.7980   77.0930  220.9620 C   0  0  0  0  0  0  0  0  0  0  0  0
  139.4200   77.0290  222.3080 C   0  0  0  0  0  0  0  0  0  0  0  0
  139.1890   76.0380  223.0420 O   0  0  0  0  0  0  0  0  0  0  0  0
  140.2560   78.1160  222.6920 N   0  0  0  0  0  0  0  0  0  0  0  0
  141.4880   78.0840  223.4790 C   0  0  0  0  0  0  0  0  0  0  0  0
  141.7550   79.5160  223.8210 C   0  0  0  0  0  0  0  0  0  0  0  0
  140.4620   80.2630  223.5090 C   0  0  0  0  0  0  0  0  0  0  0  0
  139.9660   79.4960  222.3180 C   0  0  1  0  0  0  0  0  0  0  0  0
  140.7180   79.9050  221.1130 C   0  0  0  0  0  0  0  0  0  0  0  0
  140.7840   81.2190  220.8410 N   0  0  0  0  0  0  0  0  0  0  0  0
  141.4510   81.6950  219.7570 C   0  0  0  0  0  0  0  0  0  0  0  0
  142.0660   80.7690  218.9370 C   0  0  0  0  0  0  0  0  0  0  0  0
  142.7290   81.2530  217.8560 F   0  0  0  0  0  0  0  0  0  0  0  0
  142.0180   79.4060  219.1870 C   0  0  0  0  0  0  0  0  0  0  0  0
  141.3310   79.0150  220.2910 N   0  0  0  0  0  0  0  0  0  0  0  0
  139.0360   74.7140  220.3860 C   0  0  0  0  0  0  0  0  0  0  0  0
  138.7330   74.0300  219.3160 O   0  0  0  0  0  0  0  0  0  0  0  0
  140.2260   74.2280  221.0670 C   0  0  0  0  0  0  0  0  0  0  0  0
  140.0460   73.4710  222.2490 N   0  0  0  0  0  0  0  0  0  0  0  0
  140.4990   72.1130  222.3570 C   0  0  0  0  0  0  0  0  0  0  0  0
  141.0900   71.5330  221.3890 O   0  0  0  0  0  0  0  0  0  0  0  0
  140.2590   71.4070  223.6200 C   0  0  0  0  0  0  0  0  0  0  0  0
  139.5280   70.2440  223.6040 C   0  0  0  0  0  0  0  0  0  0  0  0
  139.3110   69.5860  224.8180 C   0  0  0  0  0  0  0  0  0  0  0  0
  139.8070   70.0740  226.0030 C   0  0  0  0  0  0  0  0  0  0  0  0
  139.6240   69.4670  227.2220 C   0  0  0  0  0  0  0  0  0  0  0  0
  140.1690   70.0450  228.3570 C   0  0  0  0  0  0  0  0  0  0  0  0
  140.8960   71.2190  228.3100 C   0  0  0  0  0  0  0  0  0  0  0  0
  141.0820   71.8310  227.0820 C   0  0  0  0  0  0  0  0  0  0  0  0
  140.5330   71.2440  225.9560 C   0  0  0  0  0  0  0  0  0  0  0  0
  140.7350   71.8660  224.7880 N   0  0  0  0  0  0  0  0  0  0  0  0
  136.3765   74.7379  220.7192 H   0  0  0  0  0  0  0  0  0  0  0  0
  136.4016   76.2935  221.6170 H   0  0  0  0  0  0  0  0  0  0  0  0
  136.3514   76.2935  219.8214 H   0  0  0  0  0  0  0  0  0  0  0  0
  139.5671   77.3156  220.2077 H   0  0  0  0  0  0  0  0  0  0  0  0
  138.0359   77.8858  220.9356 H   0  0  0  0  0  0  0  0  0  0  0  0
  141.3502   77.4860  224.3919 H   0  0  0  0  0  0  0  0  0  0  0  0
  142.3223   77.6240  222.9292 H   0  0  0  0  0  0  0  0  0  0  0  0
  142.0075   79.6151  224.8870 H   0  0  0  0  0  0  0  0  0  0  0  0
  142.6043   79.9183  223.2494 H   0  0  0  0  0  0  0  0  0  0  0  0
  139.7524   80.2093  224.3478 H   0  0  0  0  0  0  0  0  0  0  0  0
  140.5934   81.3405  223.3308 H   0  0  0  0  0  0  0  0  0  0  0  0
  138.9047   79.6578  222.0781 H   0  0  0  0  0  0  0  0  0  0  0  0
  141.4992   82.7726  219.5415 H   0  0  0  0  0  0  0  0  0  0  0  0
  142.5111   78.6789  218.5250 H   0  0  0  0  0  0  0  0  0  0  0  0
  140.7777   73.5975  220.3542 H   0  0  0  0  0  0  0  0  0  0  0  0
  140.7478   75.1383  221.3973 H   0  0  0  0  0  0  0  0  0  0  0  0
  139.5710   73.9000  223.0750 H   0  0  0  0  0  0  0  0  0  0  0  0
  139.1249   69.8421  222.6627 H   0  0  0  0  0  0  0  0  0  0  0  0
  138.7280   68.6532  224.8250 H   0  0  0  0  0  0  0  0  0  0  0  0
  139.0504   68.5313  227.2960 H   0  0  0  0  0  0  0  0  0  0  0  0
  140.0178   69.5524  229.3288 H   0  0  0  0  0  0  0  0  0  0  0  0
  141.3172   71.6573  229.2268 H   0  0  0  0  0  0  0  0  0  0  0  0
  141.6555   72.7664  227.0032 H   0  0  0  0  0  0  0  0  0  0  0  0
  1  2  1  0
  2  3  1  0
  3  4  1  0
  4  5  2  0
  4  6  1  0
  6  7  1  0
  7  8  1  0
  8  9  1  0
  9 10  1  0
 10 11  1  0
 11 12  2  0
 12 13  1  0
 13 14  2  0
 14 15  1  0
 14 16  1  0
 16 17  2  0
  2 18  1  0
 18 19  2  0
 18 20  1  0
 20 21  1  0
 21 22  1  0
 22 23  2  0
 22 24  1  0
 24 25  2  0
 25 26  1  0
 26 27  2  0
 27 28  1  0
 28 29  2  0
 29 30  1  0
 30 31  2  0
 31 32  1  0
 32 33  2  0
 10  6  1  0
 17 11  1  0
 33 24  1  0
 32 27  1  0
  1 34  1  0
  1 35  1  0
  1 36  1  0
  3 37  1  0
  3 38  1  0
  7 39  1  0
  7 40  1  0
  8 41  1  0
  8 42  1  0
  9 43  1  0
  9 44  1  0
 10 45  1  6
 13 46  1  0
 16 47  1  0
 20 48  1  0
 20 49  1  0
 21 50  1  0
 25 51  1  0
 26 52  1  0
 28 53  1  0
 29 54  1  0
 30 55  1  0
 31 56  1  0
M  END
>  <smiles>  (40) 
CN(CC(=O)N1CCC[C@H]1c1ncc(F)cn1)C(=O)CNC(=O)c1ccc2ccccc2n1

>  <score_type>  (40) 
oracle

>  <origin>  (40) 
autodockgpu

>  <m_score__min__energy>  (40) 
-8.4700000000000006

>  <m_primary>  (40) 
energy

>  <rmsd>  (40) 
2.620059010937344

>  <m_score__min__rmsd>  (40) 
2.620059010937344

>  <meeko>  (40) 
{"free_energy": -7.42, "intermolecular_energy": -9.81, "internal_energy": -2.45, "cluster_size": 9, "cluster_id": 2, "rank_in_cluster": 9}

>  <energy>  (40) 
-6.37

>  <cluster_rmsd>  (40) 
0.25

>  <cluster>  (40) 
5

$$$$

     RDKit          3D

 56 59  0  0  0  0  0  0  0  0999 V2000
  139.7800   70.4730  217.3650 C   0  0  0  0  0  0  0  0  0  0  0  0
  140.7830   71.3670  217.8590 N   0  0  0  0  0  0  0  0  0  0  0  0
  141.4210   72.2140  216.8150 C   0  0  0  0  0  0  0  0  0  0  0  0
  141.3930   73.6250  217.2740 C   0  0  0  0  0  0  0  0  0  0  0  0
  140.3270   74.0960  217.7400 O   0  0  0  0  0  0  0  0  0  0  0  0
  142.5990   74.3730  217.1550 N   0  0  0  0  0  0  0  0  0  0  0  0
  142.7670   75.8240  217.0790 C   0  0  0  0  0  0  0  0  0  0  0  0
  144.1900   76.0170  216.6600 C   0  0  0  0  0  0  0  0  0  0  0  0
  144.6660   74.6520  216.1720 C   0  0  0  0  0  0  0  0  0  0  0  0
  143.9100   73.7380  217.0900 C   0  0  1  0  0  0  0  0  0  0  0  0
  144.5670   73.7060  218.4140 C   0  0  0  0  0  0  0  0  0  0  0  0
  143.8230   74.0380  219.4820 N   0  0  0  0  0  0  0  0  0  0  0  0
  144.3340   74.0390  220.7410 C   0  0  0  0  0  0  0  0  0  0  0  0
  145.6610   73.6830  220.8840 C   0  0  0  0  0  0  0  0  0  0  0  0
  146.1640   73.6870  222.1450 F   0  0  0  0  0  0  0  0  0  0  0  0
  146.4580   73.3350  219.8040 C   0  0  0  0  0  0  0  0  0  0  0  0
  145.8690   73.3590  218.5810 N   0  0  0  0  0  0  0  0  0  0  0  0
  141.2310   71.5320  219.1710 C   0  0  0  0  0  0  0  0  0  0  0  0
  142.3100   70.8610  219.4710 O   0  0  0  0  0  0  0  0  0  0  0  0
  140.7170   72.3270  220.2760 C   0  0  0  0  0  0  0  0  0  0  0  0
  141.0660   73.6980  220.3200 N   0  0  0  0  0  0  0  0  0  0  0  0
  140.6580   74.5500  221.4000 C   0  0  0  0  0  0  0  0  0  0  0  0
  139.9660   74.1040  222.3720 O   0  0  0  0  0  0  0  0  0  0  0  0
  141.0620   75.9590  221.3530 C   0  0  0  0  0  0  0  0  0  0  0  0
  141.4400   76.5040  220.1490 C   0  0  0  0  0  0  0  0  0  0  0  0
  141.8220   77.8480  220.1250 C   0  0  0  0  0  0  0  0  0  0  0  0
  141.8250   78.6190  221.2620 C   0  0  0  0  0  0  0  0  0  0  0  0
  142.1900   79.9430  221.2940 C   0  0  0  0  0  0  0  0  0  0  0  0
  142.1560   80.6290  222.4970 C   0  0  0  0  0  0  0  0  0  0  0  0
  141.7670   80.0260  223.6780 C   0  0  0  0  0  0  0  0  0  0  0  0
  141.3980   78.6920  223.6480 C   0  0  0  0  0  0  0  0  0  0  0  0
  141.4360   78.0180  222.4390 C   0  0  0  0  0  0  0  0  0  0  0  0
  141.0720   76.7300  222.4510 N   0  0  0  0  0  0  0  0  0  0  0  0
  139.2559   70.0059  218.2119 H   0  0  0  0  0  0  0  0  0  0  0  0
  139.0591   71.0335  216.7518 H   0  0  0  0  0  0  0  0  0  0  0  0
  140.2543   69.6926  216.7518 H   0  0  0  0  0  0  0  0  0  0  0  0
  142.4622   71.8938  216.6622 H   0  0  0  0  0  0  0  0  0  0  0  0
  140.8769   72.1153  215.8641 H   0  0  0  0  0  0  0  0  0  0  0  0
  142.0811   76.2560  216.3354 H   0  0  0  0  0  0  0  0  0  0  0  0
  142.5421   76.3209  218.0343 H   0  0  0  0  0  0  0  0  0  0  0  0
  144.2539   76.7577  215.8493 H   0  0  0  0  0  0  0  0  0  0  0  0
  144.8098   76.3906  217.4884 H   0  0  0  0  0  0  0  0  0  0  0  0
  144.3942   74.4823  215.1197 H   0  0  0  0  0  0  0  0  0  0  0  0
  145.7575   74.5176  216.1974 H   0  0  0  0  0  0  0  0  0  0  0  0
  143.8595   72.6916  216.7545 H   0  0  0  0  0  0  0  0  0  0  0  0
  143.7169   74.3118  221.6098 H   0  0  0  0  0  0  0  0  0  0  0  0
  147.5138   73.0538  219.9317 H   0  0  0  0  0  0  0  0  0  0  0  0
  139.6191   72.2688  220.2395 H   0  0  0  0  0  0  0  0  0  0  0  0
  141.1853   71.8927  221.1716 H   0  0  0  0  0  0  0  0  0  0  0  0
  141.6370   74.1140  219.5490 H   0  0  0  0  0  0  0  0  0  0  0  0
  141.4418   75.8992  219.2302 H   0  0  0  0  0  0  0  0  0  0  0  0
  142.1284   78.3006  219.1704 H   0  0  0  0  0  0  0  0  0  0  0  0
  142.5064   80.4538  220.3726 H   0  0  0  0  0  0  0  0  0  0  0  0
  142.4485   81.6893  222.5127 H   0  0  0  0  0  0  0  0  0  0  0  0
  141.7509   80.5930  224.6204 H   0  0  0  0  0  0  0  0  0  0  0  0
  141.0807   78.1774  224.5669 H   0  0  0  0  0  0  0  0  0  0  0  0
  1  2  1  0
  2  3  1  0
  3  4  1  0
  4  5  2  0
  4  6  1  0
  6  7  1  0
  7  8  1  0
  8  9  1  0
  9 10  1  0
 10 11  1  0
 11 12  2  0
 12 13  1  0
 13 14  2  0
 14 15  1  0
 14 16  1  0
 16 17  2  0
  2 18  1  0
 18 19  2  0
 18 20  1  0
 20 21  1  0
 21 22  1  0
 22 23  2  0
 22 24  1  0
 24 25  2  0
 25 26  1  0
 26 27  2  0
 27 28  1  0
 28 29  2  0
 29 30  1  0
 30 31  2  0
 31 32  1  0
 32 33  2  0
 10  6  1  0
 17 11  1  0
 33 24  1  0
 32 27  1  0
  1 34  1  0
  1 35  1  0
  1 36  1  0
  3 37  1  0
  3 38  1  0
  7 39  1  0
  7 40  1  0
  8 41  1  0
  8 42  1  0
  9 43  1  0
  9 44  1  0
 10 45  1  6
 13 46  1  0
 16 47  1  0
 20 48  1  0
 20 49  1  0
 21 50  1  0
 25 51  1  0
 26 52  1  0
 28 53  1  0
 29 54  1  0
 30 55  1  0
 31 56  1  0
M  END
>  <smiles>  (41) 
CN(CC(=O)N1CCC[C@H]1c1ncc(F)cn1)C(=O)CNC(=O)c1ccc2ccccc2n1

>  <score_type>  (41) 
oracle

>  <origin>  (41) 
autodockgpu

>  <m_score__min__energy>  (41) 
-8.4700000000000006

>  <m_primary>  (41) 
energy

>  <rmsd>  (41) 
7.639557552912118

>  <m_score__min__rmsd>  (41) 
7.639557552912118

>  <meeko>  (41) 
{"free_energy": -5.63, "intermolecular_energy": -8.02, "internal_energy": -4.2, "cluster_size": 1, "cluster_id": 8, "rank_in_cluster": 1}

>  <energy>  (41) 
-6.28

>  <cluster_rmsd>  (41) 
0.49

>  <cluster>  (41) 
5

$$$$

     RDKit          3D

 56 59  0  0  0  0  0  0  0  0999 V2000
  136.6800   72.9000  220.1350 C   0  0  0  0  0  0  0  0  0  0  0  0
  138.0190   73.3960  220.0340 N   0  0  0  0  0  0  0  0  0  0  0  0
  138.2180   74.7520  220.6130 C   0  0  0  0  0  0  0  0  0  0  0  0
  139.4730   74.7440  221.4050 C   0  0  0  0  0  0  0  0  0  0  0  0
  139.5590   73.9970  222.4090 O   0  0  0  0  0  0  0  0  0  0  0  0
  140.5240   75.6010  220.9680 N   0  0  0  0  0  0  0  0  0  0  0  0
  140.9760   76.8610  221.5570 C   0  0  0  0  0  0  0  0  0  0  0  0
  141.8800   77.4570  220.5250 C   0  0  0  0  0  0  0  0  0  0  0  0
  141.6170   76.6720  219.2430 C   0  0  0  0  0  0  0  0  0  0  0  0
  141.3380   75.3040  219.7950 C   0  0  1  0  0  0  0  0  0  0  0  0
  142.6090   74.6470  220.1650 C   0  0  0  0  0  0  0  0  0  0  0  0
  142.5470   73.3730  220.5870 N   0  0  0  0  0  0  0  0  0  0  0  0
  143.6600   72.6820  220.9500 C   0  0  0  0  0  0  0  0  0  0  0  0
  144.8690   73.3430  220.8670 C   0  0  0  0  0  0  0  0  0  0  0  0
  145.9750   72.6450  221.2320 F   0  0  0  0  0  0  0  0  0  0  0  0
  144.9700   74.6570  220.4360 C   0  0  0  0  0  0  0  0  0  0  0  0
  143.8110   75.2750  220.0930 N   0  0  0  0  0  0  0  0  0  0  0  0
  139.1340   72.7800  219.4630 C   0  0  0  0  0  0  0  0  0  0  0  0
  139.4630   73.2270  218.2810 O   0  0  0  0  0  0  0  0  0  0  0  0
  140.0100   71.7250  219.9490 C   0  0  0  0  0  0  0  0  0  0  0  0
  140.2590   71.6650  221.3400 N   0  0  0  0  0  0  0  0  0  0  0  0
  139.6680   70.6580  222.1750 C   0  0  0  0  0  0  0  0  0  0  0  0
  138.8930   69.7680  221.6920 O   0  0  0  0  0  0  0  0  0  0  0  0
  139.9800   70.6820  223.6070 C   0  0  0  0  0  0  0  0  0  0  0  0
  140.4380   71.8500  224.1690 C   0  0  0  0  0  0  0  0  0  0  0  0
  140.7300   71.8530  225.5360 C   0  0  0  0  0  0  0  0  0  0  0  0
  140.5700   70.7300  226.3110 C   0  0  0  0  0  0  0  0  0  0  0  0
  140.8420   70.6790  227.6570 C   0  0  0  0  0  0  0  0  0  0  0  0
  140.6440   69.4930  228.3460 C   0  0  0  0  0  0  0  0  0  0  0  0
  140.1810   68.3490  227.7240 C   0  0  0  0  0  0  0  0  0  0  0  0
  139.9060   68.3980  226.3690 C   0  0  0  0  0  0  0  0  0  0  0  0
  140.1070   69.5890  225.6920 C   0  0  0  0  0  0  0  0  0  0  0  0
  139.8300   69.5970  224.3830 N   0  0  0  0  0  0  0  0  0  0  0  0
  136.4056   72.7984  221.1954 H   0  0  0  0  0  0  0  0  0  0  0  0
  135.9907   73.6025  219.6436 H   0  0  0  0  0  0  0  0  0  0  0  0
  136.6147   71.9180  219.6436 H   0  0  0  0  0  0  0  0  0  0  0  0
  138.2939   75.4937  219.8043 H   0  0  0  0  0  0  0  0  0  0  0  0
  137.3665   75.0164  221.2572 H   0  0  0  0  0  0  0  0  0  0  0  0
  140.1220   77.5253  221.7555 H   0  0  0  0  0  0  0  0  0  0  0  0
  141.4844   76.7122  222.5211 H   0  0  0  0  0  0  0  0  0  0  0  0
  141.6450   78.5215  220.3780 H   0  0  0  0  0  0  0  0  0  0  0  0
  142.9359   77.3985  220.8276 H   0  0  0  0  0  0  0  0  0  0  0  0
  140.7502   77.0711  218.6959 H   0  0  0  0  0  0  0  0  0  0  0  0
  142.4398   76.7069  218.5138 H   0  0  0  0  0  0  0  0  0  0  0  0
  140.8397   74.6192  219.0931 H   0  0  0  0  0  0  0  0  0  0  0  0
  143.5997   71.6394  221.2955 H   0  0  0  0  0  0  0  0  0  0  0  0
  145.9399   75.1724  220.3751 H   0  0  0  0  0  0  0  0  0  0  0  0
  139.5624   70.7645  219.6538 H   0  0  0  0  0  0  0  0  0  0  0  0
  140.9894   71.9489  219.5010 H   0  0  0  0  0  0  0  0  0  0  0  0
  140.8920   72.3680  221.7870 H   0  0  0  0  0  0  0  0  0  0  0  0
  140.5709   72.7565  223.5603 H   0  0  0  0  0  0  0  0  0  0  0  0
  141.0974   72.7785  226.0033 H   0  0  0  0  0  0  0  0  0  0  0  0
  141.2134   71.5711  228.1826 H   0  0  0  0  0  0  0  0  0  0  0  0
  140.8626   69.4611  229.4236 H   0  0  0  0  0  0  0  0  0  0  0  0
  140.0343   67.4197  228.2939 H   0  0  0  0  0  0  0  0  0  0  0  0
  139.5349   67.5080  225.8397 H   0  0  0  0  0  0  0  0  0  0  0  0
  1  2  1  0
  2  3  1  0
  3  4  1  0
  4  5  2  0
  4  6  1  0
  6  7  1  0
  7  8  1  0
  8  9  1  0
  9 10  1  0
 10 11  1  0
 11 12  2  0
 12 13  1  0
 13 14  2  0
 14 15  1  0
 14 16  1  0
 16 17  2  0
  2 18  1  0
 18 19  2  0
 18 20  1  0
 20 21  1  0
 21 22  1  0
 22 23  2  0
 22 24  1  0
 24 25  2  0
 25 26  1  0
 26 27  2  0
 27 28  1  0
 28 29  2  0
 29 30  1  0
 30 31  2  0
 31 32  1  0
 32 33  2  0
 10  6  1  0
 17 11  1  0
 33 24  1  0
 32 27  1  0
  1 34  1  0
  1 35  1  0
  1 36  1  0
  3 37  1  0
  3 38  1  0
  7 39  1  0
  7 40  1  0
  8 41  1  0
  8 42  1  0
  9 43  1  0
  9 44  1  0
 10 45  1  6
 13 46  1  0
 16 47  1  0
 20 48  1  0
 20 49  1  0
 21 50  1  0
 25 51  1  0
 26 52  1  0
 28 53  1  0
 29 54  1  0
 30 55  1  0
 31 56  1  0
M  END
>  <smiles>  (42) 
CN(CC(=O)N1CCC[C@H]1c1ncc(F)cn1)C(=O)CNC(=O)c1ccc2ccccc2n1

>  <score_type>  (42) 
oracle

>  <origin>  (42) 
autodockgpu

>  <m_score__min__energy>  (42) 
-8.4700000000000006

>  <m_primary>  (42) 
energy

>  <rmsd>  (42) 
3.70227207306479

>  <m_score__min__rmsd>  (42) 
3.70227207306479

>  <meeko>  (42) 
{"free_energy": -6.47, "intermolecular_energy": -8.86, "internal_energy": -3.71, "cluster_size": 1, "cluster_id": 7, "rank_in_cluster": 1}

>  <energy>  (42) 
-5.95

>  <cluster_rmsd>  (42) 
1.7

>  <cluster>  (42) 
5

$$$$

     RDKit          3D

 56 59  0  0  0  0  0  0  0  0999 V2000
  137.6020   77.2230  220.3400 C   0  0  0  0  0  0  0  0  0  0  0  0
  138.7810   76.4580  220.6130 N   0  0  0  0  0  0  0  0  0  0  0  0
  139.9930   76.9130  219.8810 C   0  0  0  0  0  0  0  0  0  0  0  0
  141.1180   77.0040  220.8450 C   0  0  0  0  0  0  0  0  0  0  0  0
  141.7990   75.9790  221.0890 O   0  0  0  0  0  0  0  0  0  0  0  0
  141.3610   78.2720  221.4450 N   0  0  0  0  0  0  0  0  0  0  0  0
  141.7790   79.5180  220.8040 C   0  0  0  0  0  0  0  0  0  0  0  0
  142.1690   80.4140  221.9370 C   0  0  0  0  0  0  0  0  0  0  0  0
  142.2900   79.5060  223.1570 C   0  0  0  0  0  0  0  0  0  0  0  0
  141.2120   78.5010  222.8780 C   0  0  1  0  0  0  0  0  0  0  0  0
  139.8920   79.0820  223.2030 C   0  0  0  0  0  0  0  0  0  0  0  0
  139.8760   80.2410  223.8800 N   0  0  0  0  0  0  0  0  0  0  0  0
  138.7140   80.8550  224.2260 C   0  0  0  0  0  0  0  0  0  0  0  0
  137.5380   80.2370  223.8520 C   0  0  0  0  0  0  0  0  0  0  0  0
  136.3820   80.8560  224.2020 F   0  0  0  0  0  0  0  0  0  0  0  0
  137.5160   79.0390  223.1520 C   0  0  0  0  0  0  0  0  0  0  0  0
  138.7210   78.4930  222.8460 N   0  0  0  0  0  0  0  0  0  0  0  0
  138.9270   75.3570  221.4590 C   0  0  0  0  0  0  0  0  0  0  0  0
  139.2020   75.6510  222.7010 O   0  0  0  0  0  0  0  0  0  0  0  0
  138.8210   73.9270  221.2110 C   0  0  0  0  0  0  0  0  0  0  0  0
  138.9030   73.0580  222.3240 N   0  0  0  0  0  0  0  0  0  0  0  0
  140.0750   72.2730  222.5900 C   0  0  0  0  0  0  0  0  0  0  0  0
  141.0980   72.3330  221.8320 O   0  0  0  0  0  0  0  0  0  0  0  0
  140.0630   71.3950  223.7640 C   0  0  0  0  0  0  0  0  0  0  0  0
  139.5440   70.1280  223.6430 C   0  0  0  0  0  0  0  0  0  0  0  0
  139.5410   69.3070  224.7730 C   0  0  0  0  0  0  0  0  0  0  0  0
  140.0400   69.7360  225.9800 C   0  0  0  0  0  0  0  0  0  0  0  0
  140.0610   68.9700  227.1200 C   0  0  0  0  0  0  0  0  0  0  0  0
  140.5880   69.5010  228.2860 C   0  0  0  0  0  0  0  0  0  0  0  0
  141.0970   70.7850  228.3460 C   0  0  0  0  0  0  0  0  0  0  0  0
  141.0760   71.5580  227.1980 C   0  0  0  0  0  0  0  0  0  0  0  0
  140.5470   71.0150  226.0400 C   0  0  0  0  0  0  0  0  0  0  0  0
  140.5450   71.7940  224.9510 N   0  0  0  0  0  0  0  0  0  0  0  0
  137.1342   77.5266  221.2881 H   0  0  0  0  0  0  0  0  0  0  0  0
  137.8719   78.1185  219.7610 H   0  0  0  0  0  0  0  0  0  0  0  0
  136.8941   76.6117  219.7610 H   0  0  0  0  0  0  0  0  0  0  0  0
  140.2407   76.1915  219.0885 H   0  0  0  0  0  0  0  0  0  0  0  0
  139.8095   77.8955  219.4215 H   0  0  0  0  0  0  0  0  0  0  0  0
  142.6348   79.3425  220.1356 H   0  0  0  0  0  0  0  0  0  0  0  0
  140.9832   79.9543  220.1825 H   0  0  0  0  0  0  0  0  0  0  0  0
  143.1314   80.9031  221.7257 H   0  0  0  0  0  0  0  0  0  0  0  0
  141.4298   81.2128  222.0965 H   0  0  0  0  0  0  0  0  0  0  0  0
  143.2807   79.0308  223.2096 H   0  0  0  0  0  0  0  0  0  0  0  0
  142.1846   80.0265  224.1203 H   0  0  0  0  0  0  0  0  0  0  0  0
  141.2857   77.5750  223.4672 H   0  0  0  0  0  0  0  0  0  0  0  0
  138.7109   81.8048  224.7809 H   0  0  0  0  0  0  0  0  0  0  0  0
  136.5714   78.5567  222.8601 H   0  0  0  0  0  0  0  0  0  0  0  0
  137.8498   73.7489  220.7262 H   0  0  0  0  0  0  0  0  0  0  0  0
  139.7054   73.6843  220.6035 H   0  0  0  0  0  0  0  0  0  0  0  0
  138.0940   72.9750  222.9810 H   0  0  0  0  0  0  0  0  0  0  0  0
  139.1424   69.7707  222.6833 H   0  0  0  0  0  0  0  0  0  0  0  0
  139.1285   68.2903  224.6951 H   0  0  0  0  0  0  0  0  0  0  0  0
  139.6631   67.9446  227.1072 H   0  0  0  0  0  0  0  0  0  0  0  0
  140.6019   68.8805  229.1941 H   0  0  0  0  0  0  0  0  0  0  0  0
  141.5093   71.1833  229.2848 H   0  0  0  0  0  0  0  0  0  0  0  0
  141.4721   72.5842  227.2058 H   0  0  0  0  0  0  0  0  0  0  0  0
  1  2  1  0
  2  3  1  0
  3  4  1  0
  4  5  2  0
  4  6  1  0
  6  7  1  0
  7  8  1  0
  8  9  1  0
  9 10  1  0
 10 11  1  0
 11 12  2  0
 12 13  1  0
 13 14  2  0
 14 15  1  0
 14 16  1  0
 16 17  2  0
  2 18  1  0
 18 19  2  0
 18 20  1  0
 20 21  1  0
 21 22  1  0
 22 23  2  0
 22 24  1  0
 24 25  2  0
 25 26  1  0
 26 27  2  0
 27 28  1  0
 28 29  2  0
 29 30  1  0
 30 31  2  0
 31 32  1  0
 32 33  2  0
 10  6  1  0
 17 11  1  0
 33 24  1  0
 32 27  1  0
  1 34  1  0
  1 35  1  0
  1 36  1  0
  3 37  1  0
  3 38  1  0
  7 39  1  0
  7 40  1  0
  8 41  1  0
  8 42  1  0
  9 43  1  0
  9 44  1  0
 10 45  1  1
 13 46  1  0
 16 47  1  0
 20 48  1  0
 20 49  1  0
 21 50  1  0
 25 51  1  0
 26 52  1  0
 28 53  1  0
 29 54  1  0
 30 55  1  0
 31 56  1  0
M  END
>  <smiles>  (43) 
CN(CC(=O)N1CCC[C@H]1c1ncc(F)cn1)C(=O)CNC(=O)c1ccc2ccccc2n1

>  <score_type>  (43) 
oracle

>  <origin>  (43) 
autodockgpu

>  <m_score__min__energy>  (43) 
-8.4700000000000006

>  <m_primary>  (43) 
energy

>  <rmsd>  (43) 
1.9528113155902918

>  <m_score__min__rmsd>  (43) 
1.9528113155902918

>  <meeko>  (43) 
{"free_energy": -8.12, "intermolecular_energy": -10.51, "internal_energy": -2.15, "cluster_size": 9, "cluster_id": 1, "rank_in_cluster": 2}

>  <energy>  (43) 
-5.27

>  <cluster_rmsd>  (43) 
1.87

>  <cluster>  (43) 
5

$$$$

     RDKit          3D

 56 59  0  0  0  0  0  0  0  0999 V2000
  142.6730   75.6370  219.8420 C   0  0  0  0  0  0  0  0  0  0  0  0
  141.2850   75.5040  220.1680 N   0  0  0  0  0  0  0  0  0  0  0  0
  140.5930   76.7900  220.4480 C   0  0  0  0  0  0  0  0  0  0  0  0
  140.6410   77.0410  221.9110 C   0  0  0  0  0  0  0  0  0  0  0  0
  140.4610   76.0830  222.7020 O   0  0  0  0  0  0  0  0  0  0  0  0
  140.8950   78.3760  222.3350 N   0  0  0  0  0  0  0  0  0  0  0  0
  141.8890   78.8540  223.2940 C   0  0  0  0  0  0  0  0  0  0  0  0
  141.4980   80.2720  223.5700 C   0  0  0  0  0  0  0  0  0  0  0  0
  140.0820   80.4230  223.0200 C   0  0  0  0  0  0  0  0  0  0  0  0
  140.1370   79.5150  221.8270 C   0  0  1  0  0  0  0  0  0  0  0  0
  140.8460   80.1900  220.7190 C   0  0  0  0  0  0  0  0  0  0  0  0
  140.7230   81.5250  220.6280 N   0  0  0  0  0  0  0  0  0  0  0  0
  141.3350   82.2370  219.6460 C   0  0  0  0  0  0  0  0  0  0  0  0
  142.0960   81.5320  218.7350 C   0  0  0  0  0  0  0  0  0  0  0  0
  142.7030   82.2500  217.7570 F   0  0  0  0  0  0  0  0  0  0  0  0
  142.2440   80.1540  218.7980 C   0  0  0  0  0  0  0  0  0  0  0  0
  141.6000   79.5190  219.8100 N   0  0  0  0  0  0  0  0  0  0  0  0
  140.5220   74.3390  220.2600 C   0  0  0  0  0  0  0  0  0  0  0  0
  140.9520   73.3420  219.5350 O   0  0  0  0  0  0  0  0  0  0  0  0
  139.3260   74.0250  221.0260 C   0  0  0  0  0  0  0  0  0  0  0  0
  139.4890   73.3250  222.2450 N   0  0  0  0  0  0  0  0  0  0  0  0
  139.6510   71.8990  222.2860 C   0  0  0  0  0  0  0  0  0  0  0  0
  139.6610   71.2030  221.2190 O   0  0  0  0  0  0  0  0  0  0  0  0
  139.8060   71.2620  223.5970 C   0  0  0  0  0  0  0  0  0  0  0  0
  139.4030   69.9580  223.7560 C   0  0  0  0  0  0  0  0  0  0  0  0
  139.5590   69.3690  225.0140 C   0  0  0  0  0  0  0  0  0  0  0  0
  140.0990   70.0590  226.0730 C   0  0  0  0  0  0  0  0  0  0  0  0
  140.2750   69.5280  227.3270 C   0  0  0  0  0  0  0  0  0  0  0  0
  140.8310   70.3120  228.3250 C   0  0  0  0  0  0  0  0  0  0  0  0
  141.2170   71.6200  228.1050 C   0  0  0  0  0  0  0  0  0  0  0  0
  141.0410   72.1570  226.8410 C   0  0  0  0  0  0  0  0  0  0  0  0
  140.4860   71.3630  225.8530 C   0  0  0  0  0  0  0  0  0  0  0  0
  140.3320   71.9170  224.6450 N   0  0  0  0  0  0  0  0  0  0  0  0
  143.2634   75.6936  220.7684 H   0  0  0  0  0  0  0  0  0  0  0  0
  142.9966   74.7657  219.2536 H   0  0  0  0  0  0  0  0  0  0  0  0
  142.8252   76.5538  219.2536 H   0  0  0  0  0  0  0  0  0  0  0  0
  141.0992   77.6078  219.9142 H   0  0  0  0  0  0  0  0  0  0  0  0
  139.5481   76.7380  220.1082 H   0  0  0  0  0  0  0  0  0  0  0  0
  141.8570   78.2560  224.2167 H   0  0  0  0  0  0  0  0  0  0  0  0
  142.9151   78.7728  222.9059 H   0  0  0  0  0  0  0  0  0  0  0  0
  141.5127   80.4706  224.6518 H   0  0  0  0  0  0  0  0  0  0  0  0
  142.1939   80.9840  223.1024 H   0  0  0  0  0  0  0  0  0  0  0  0
  139.3285   80.0877  223.7479 H   0  0  0  0  0  0  0  0  0  0  0  0
  139.7952   81.4591  222.7871 H   0  0  0  0  0  0  0  0  0  0  0  0
  139.1543   79.2277  221.4248 H   0  0  0  0  0  0  0  0  0  0  0  0
  141.2286   83.3298  219.5795 H   0  0  0  0  0  0  0  0  0  0  0  0
  142.8524   79.6040  218.0650 H   0  0  0  0  0  0  0  0  0  0  0  0
  138.8257   74.9767  221.2584 H   0  0  0  0  0  0  0  0  0  0  0  0
  138.7584   73.3354  220.3839 H   0  0  0  0  0  0  0  0  0  0  0  0
  139.4940   73.8490  223.1500 H   0  0  0  0  0  0  0  0  0  0  0  0
  138.9699   69.3936  222.9170 H   0  0  0  0  0  0  0  0  0  0  0  0
  139.2413   68.3261  225.1603 H   0  0  0  0  0  0  0  0  0  0  0  0
  139.9774   68.4901  227.5373 H   0  0  0  0  0  0  0  0  0  0  0  0
  140.9697   69.8782  229.3263 H   0  0  0  0  0  0  0  0  0  0  0  0
  141.6543   72.2213  228.9157 H   0  0  0  0  0  0  0  0  0  0  0  0
  141.3366   73.1946  226.6264 H   0  0  0  0  0  0  0  0  0  0  0  0
  1  2  1  0
  2  3  1  0
  3  4  1  0
  4  5  2  0
  4  6  1  0
  6  7  1  0
  7  8  1  0
  8  9  1  0
  9 10  1  0
 10 11  1  0
 11 12  2  0
 12 13  1  0
 13 14  2  0
 14 15  1  0
 14 16  1  0
 16 17  2  0
  2 18  1  0
 18 19  2  0
 18 20  1  0
 20 21  1  0
 21 22  1  0
 22 23  2  0
 22 24  1  0
 24 25  2  0
 25 26  1  0
 26 27  2  0
 27 28  1  0
 28 29  2  0
 29 30  1  0
 30 31  2  0
 31 32  1  0
 32 33  2  0
 10  6  1  0
 17 11  1  0
 33 24  1  0
 32 27  1  0
  1 34  1  0
  1 35  1  0
  1 36  1  0
  3 37  1  0
  3 38  1  0
  7 39  1  0
  7 40  1  0
  8 41  1  0
  8 42  1  0
  9 43  1  0
  9 44  1  0
 10 45  1  6
 13 46  1  0
 16 47  1  0
 20 48  1  0
 20 49  1  0
 21 50  1  0
 25 51  1  0
 26 52  1  0
 28 53  1  0
 29 54  1  0
 30 55  1  0
 31 56  1  0
M  END
>  <smiles>  (44) 
CN(CC(=O)N1CCC[C@H]1c1ncc(F)cn1)C(=O)CNC(=O)c1ccc2ccccc2n1

>  <score_type>  (44) 
oracle

>  <origin>  (44) 
autodockgpu

>  <m_score__min__energy>  (44) 
-8.4700000000000006

>  <m_primary>  (44) 
energy

>  <rmsd>  (44) 
2.4015870493173397

>  <m_score__min__rmsd>  (44) 
2.4015870493173397

>  <meeko>  (44) 
{"free_energy": -7.86, "intermolecular_energy": -10.25, "internal_energy": -2.31, "cluster_size": 9, "cluster_id": 2, "rank_in_cluster": 4}

>  <energy>  (44) 
-5.15

>  <cluster_rmsd>  (44) 
1.92

>  <cluster>  (44) 
5

$$$$

     RDKit          3D

 56 59  0  0  0  0  0  0  0  0999 V2000
  137.5580   77.5840  220.4540 C   0  0  0  0  0  0  0  0  0  0  0  0
  138.8150   76.9510  220.7210 N   0  0  0  0  0  0  0  0  0  0  0  0
  139.9660   77.5310  219.9780 C   0  0  0  0  0  0  0  0  0  0  0  0
  141.1630   77.4790  220.8530 C   0  0  0  0  0  0  0  0  0  0  0  0
  141.9210   76.4800  220.7950 O   0  0  0  0  0  0  0  0  0  0  0  0
  141.3850   78.5860  221.7220 N   0  0  0  0  0  0  0  0  0  0  0  0
  142.1990   79.7770  221.4880 C   0  0  0  0  0  0  0  0  0  0  0  0
  142.3070   80.4290  222.8310 C   0  0  0  0  0  0  0  0  0  0  0  0
  141.8430   79.3810  223.8370 C   0  0  0  0  0  0  0  0  0  0  0  0
  140.7820   78.6720  223.0470 C   0  0  1  0  0  0  0  0  0  0  0  0
  139.5460   79.4830  223.0320 C   0  0  0  0  0  0  0  0  0  0  0  0
  138.9800   79.7720  224.2160 N   0  0  0  0  0  0  0  0  0  0  0  0
  137.8440   80.5100  224.3080 C   0  0  0  0  0  0  0  0  0  0  0  0
  137.2850   80.9590  223.1270 C   0  0  0  0  0  0  0  0  0  0  0  0
  136.1500   81.6960  223.2280 F   0  0  0  0  0  0  0  0  0  0  0  0
  137.8410   80.6810  221.8880 C   0  0  0  0  0  0  0  0  0  0  0  0
  138.9770   79.9370  221.8850 N   0  0  0  0  0  0  0  0  0  0  0  0
  139.0830   75.8750  221.5680 C   0  0  0  0  0  0  0  0  0  0  0  0
  139.0750   76.1630  222.8420 O   0  0  0  0  0  0  0  0  0  0  0  0
  139.3670   74.4740  221.2930 C   0  0  0  0  0  0  0  0  0  0  0  0
  139.5280   73.6050  222.3970 N   0  0  0  0  0  0  0  0  0  0  0  0
  139.6750   72.1870  222.2320 C   0  0  0  0  0  0  0  0  0  0  0  0
  139.6740   71.6510  221.0760 O   0  0  0  0  0  0  0  0  0  0  0  0
  139.8280   71.3670  223.4380 C   0  0  0  0  0  0  0  0  0  0  0  0
  139.4910   70.0360  223.3860 C   0  0  0  0  0  0  0  0  0  0  0  0
  139.6430   69.2710  224.5450 C   0  0  0  0  0  0  0  0  0  0  0  0
  140.1160   69.8180  225.7140 C   0  0  0  0  0  0  0  0  0  0  0  0
  140.2850   69.1120  226.8800 C   0  0  0  0  0  0  0  0  0  0  0  0
  140.7700   69.7620  228.0040 C   0  0  0  0  0  0  0  0  0  0  0  0
  141.0920   71.1050  227.9960 C   0  0  0  0  0  0  0  0  0  0  0  0
  140.9220   71.8180  226.8210 C   0  0  0  0  0  0  0  0  0  0  0  0
  140.4380   71.1570  225.7060 C   0  0  0  0  0  0  0  0  0  0  0  0
  140.2880   71.8800  224.5900 N   0  0  0  0  0  0  0  0  0  0  0  0
  137.0636   77.8330  221.4046 H   0  0  0  0  0  0  0  0  0  0  0  0
  137.7265   78.5047  219.8762 H   0  0  0  0  0  0  0  0  0  0  0  0
  136.9186   76.9004  219.8762 H   0  0  0  0  0  0  0  0  0  0  0  0
  140.1491   76.9483  219.0631 H   0  0  0  0  0  0  0  0  0  0  0  0
  139.7483   78.5720  219.6972 H   0  0  0  0  0  0  0  0  0  0  0  0
  143.1939   79.4994  221.1097 H   0  0  0  0  0  0  0  0  0  0  0  0
  141.7557   80.4443  220.7343 H   0  0  0  0  0  0  0  0  0  0  0  0
  143.3483   80.7203  223.0333 H   0  0  0  0  0  0  0  0  0  0  0  0
  141.6990   81.3439  222.8882 H   0  0  0  0  0  0  0  0  0  0  0  0
  142.6605   78.7002  224.1166 H   0  0  0  0  0  0  0  0  0  0  0  0
  141.4933   79.7959  224.7939 H   0  0  0  0  0  0  0  0  0  0  0  0
  140.4916   77.6896  223.4477 H   0  0  0  0  0  0  0  0  0  0  0  0
  137.3878   80.7407  225.2820 H   0  0  0  0  0  0  0  0  0  0  0  0
  137.3854   81.0444  220.9551 H   0  0  0  0  0  0  0  0  0  0  0  0
  138.5364   74.0837  220.6866 H   0  0  0  0  0  0  0  0  0  0  0  0
  140.3508   74.4821  220.8010 H   0  0  0  0  0  0  0  0  0  0  0  0
  139.5410   73.9940  223.3680 H   0  0  0  0  0  0  0  0  0  0  0  0
  139.1118   69.5851  222.4571 H   0  0  0  0  0  0  0  0  0  0  0  0
  139.3774   68.2038  224.5215 H   0  0  0  0  0  0  0  0  0  0  0  0
  140.0378   68.0409  226.9214 H   0  0  0  0  0  0  0  0  0  0  0  0
  140.9029   69.1890  228.9335 H   0  0  0  0  0  0  0  0  0  0  0  0
  141.4748   71.5971  228.9023 H   0  0  0  0  0  0  0  0  0  0  0  0
  141.1671   72.8894  226.7750 H   0  0  0  0  0  0  0  0  0  0  0  0
  1  2  1  0
  2  3  1  0
  3  4  1  0
  4  5  2  0
  4  6  1  0
  6  7  1  0
  7  8  1  0
  8  9  1  0
  9 10  1  0
 10 11  1  0
 11 12  2  0
 12 13  1  0
 13 14  2  0
 14 15  1  0
 14 16  1  0
 16 17  2  0
  2 18  1  0
 18 19  2  0
 18 20  1  0
 20 21  1  0
 21 22  1  0
 22 23  2  0
 22 24  1  0
 24 25  2  0
 25 26  1  0
 26 27  2  0
 27 28  1  0
 28 29  2  0
 29 30  1  0
 30 31  2  0
 31 32  1  0
 32 33  2  0
 10  6  1  0
 17 11  1  0
 33 24  1  0
 32 27  1  0
  1 34  1  0
  1 35  1  0
  1 36  1  0
  3 37  1  0
  3 38  1  0
  7 39  1  0
  7 40  1  0
  8 41  1  0
  8 42  1  0
  9 43  1  0
  9 44  1  0
 10 45  1  1
 13 46  1  0
 16 47  1  0
 20 48  1  0
 20 49  1  0
 21 50  1  0
 25 51  1  0
 26 52  1  0
 28 53  1  0
 29 54  1  0
 30 55  1  0
 31 56  1  0
M  END
>  <smiles>  (45) 
CN(CC(=O)N1CCC[C@H]1c1ncc(F)cn1)C(=O)CNC(=O)c1ccc2ccccc2n1

>  <score_type>  (45) 
oracle

>  <origin>  (45) 
autodockgpu

>  <m_score__min__energy>  (45) 
-8.4700000000000006

>  <m_primary>  (45) 
energy

>  <rmsd>  (45) 
2.125990894153035

>  <m_score__min__rmsd>  (45) 
2.125990894153035

>  <meeko>  (45) 
{"free_energy": -7.54, "intermolecular_energy": -9.92, "internal_energy": -2.96, "cluster_size": 9, "cluster_id": 1, "rank_in_cluster": 9}

>  <energy>  (45) 
-5.09

>  <cluster_rmsd>  (45) 
1.9

>  <cluster>  (45) 
5

$$$$

     RDKit          3D

 56 59  0  0  0  0  0  0  0  0999 V2000
  139.2140   77.4070  219.4870 C   0  0  0  0  0  0  0  0  0  0  0  0
  139.1610   77.0700  220.8770 N   0  0  0  0  0  0  0  0  0  0  0  0
  139.3570   78.2220  221.7980 C   0  0  0  0  0  0  0  0  0  0  0  0
  140.6680   78.0640  222.4760 C   0  0  0  0  0  0  0  0  0  0  0  0
  141.0720   76.9110  222.7640 O   0  0  0  0  0  0  0  0  0  0  0  0
  141.4010   79.2510  222.7630 N   0  0  0  0  0  0  0  0  0  0  0  0
  142.8210   79.3890  223.0840 C   0  0  0  0  0  0  0  0  0  0  0  0
  142.9600   80.7920  223.5830 C   0  0  0  0  0  0  0  0  0  0  0  0
  141.5390   81.2760  223.8570 C   0  0  0  0  0  0  0  0  0  0  0  0
  140.7800   80.5700  222.7720 C   0  0  1  0  0  0  0  0  0  0  0  0
  140.9770   81.2740  221.4870 C   0  0  0  0  0  0  0  0  0  0  0  0
  140.5800   82.5560  221.4160 N   0  0  0  0  0  0  0  0  0  0  0  0
  140.7180   83.2880  220.2800 C   0  0  0  0  0  0  0  0  0  0  0  0
  141.2880   82.6620  219.1890 C   0  0  0  0  0  0  0  0  0  0  0  0
  141.4210   83.4000  218.0590 F   0  0  0  0  0  0  0  0  0  0  0  0
  141.7090   81.3410  219.2270 C   0  0  0  0  0  0  0  0  0  0  0  0
  141.5350   80.6810  220.4000 N   0  0  0  0  0  0  0  0  0  0  0  0
  138.9600   75.8190  221.4610 C   0  0  0  0  0  0  0  0  0  0  0  0
  137.9630   75.7590  222.3020 O   0  0  0  0  0  0  0  0  0  0  0  0
  139.6590   74.5530  221.3000 C   0  0  0  0  0  0  0  0  0  0  0  0
  139.5480   73.6020  222.3420 N   0  0  0  0  0  0  0  0  0  0  0  0
  140.4520   72.4930  222.4570 C   0  0  0  0  0  0  0  0  0  0  0  0
  141.4010   72.3220  221.6240 O   0  0  0  0  0  0  0  0  0  0  0  0
  140.2520   71.5550  223.5660 C   0  0  0  0  0  0  0  0  0  0  0  0
  139.5960   70.3710  223.3280 C   0  0  0  0  0  0  0  0  0  0  0  0
  139.4150   69.4920  224.3980 C   0  0  0  0  0  0  0  0  0  0  0  0
  139.8740   69.7840  225.6600 C   0  0  0  0  0  0  0  0  0  0  0  0
  139.7230   68.9560  226.7450 C   0  0  0  0  0  0  0  0  0  0  0  0
  140.2250   69.3480  227.9750 C   0  0  0  0  0  0  0  0  0  0  0  0
  140.8770   70.5530  228.1540 C   0  0  0  0  0  0  0  0  0  0  0  0
  141.0300   71.3900  227.0610 C   0  0  0  0  0  0  0  0  0  0  0  0
  140.5250   70.9850  225.8380 C   0  0  0  0  0  0  0  0  0  0  0  0
  140.6920   71.8210  224.8060 N   0  0  0  0  0  0  0  0  0  0  0  0
  139.3841   78.4883  219.3781 H   0  0  0  0  0  0  0  0  0  0  0  0
  140.0366   76.8563  219.0073 H   0  0  0  0  0  0  0  0  0  0  0  0
  138.2621   77.1354  219.0073 H   0  0  0  0  0  0  0  0  0  0  0  0
  139.3460   79.1611  221.2254 H   0  0  0  0  0  0  0  0  0  0  0  0
  138.5481   78.2514  222.5429 H   0  0  0  0  0  0  0  0  0  0  0  0
  143.1150   78.6691  223.8620 H   0  0  0  0  0  0  0  0  0  0  0  0
  143.4664   79.1890  222.2160 H   0  0  0  0  0  0  0  0  0  0  0  0
  143.5571   80.8131  224.5066 H   0  0  0  0  0  0  0  0  0  0  0  0
  143.4734   81.4338  222.8518 H   0  0  0  0  0  0  0  0  0  0  0  0
  141.1939   80.9702  224.8557 H   0  0  0  0  0  0  0  0  0  0  0  0
  141.4243   82.3700  223.8516 H   0  0  0  0  0  0  0  0  0  0  0  0
  139.6919   80.5271  222.9276 H   0  0  0  0  0  0  0  0  0  0  0  0
  140.3892   84.3366  220.2312 H   0  0  0  0  0  0  0  0  0  0  0  0
  142.1610   80.8531  218.3509 H   0  0  0  0  0  0  0  0  0  0  0  0
  139.2766   74.0812  220.3828 H   0  0  0  0  0  0  0  0  0  0  0  0
  140.7248   74.8245  221.2845 H   0  0  0  0  0  0  0  0  0  0  0  0
  138.7900   73.6970  223.0560 H   0  0  0  0  0  0  0  0  0  0  0  0
  139.2240   70.1227  222.3230 H   0  0  0  0  0  0  0  0  0  0  0  0
  138.8909   68.5403  224.2260 H   0  0  0  0  0  0  0  0  0  0  0  0
  139.2079   67.9899  226.6383 H   0  0  0  0  0  0  0  0  0  0  0  0
  140.1004   68.6776  228.8382 H   0  0  0  0  0  0  0  0  0  0  0  0
  141.2657   70.8410  229.1419 H   0  0  0  0  0  0  0  0  0  0  0  0
  141.5429   72.3577  227.1632 H   0  0  0  0  0  0  0  0  0  0  0  0
  1  2  1  0
  2  3  1  0
  3  4  1  0
  4  5  2  0
  4  6  1  0
  6  7  1  0
  7  8  1  0
  8  9  1  0
  9 10  1  0
 10 11  1  0
 11 12  2  0
 12 13  1  0
 13 14  2  0
 14 15  1  0
 14 16  1  0
 16 17  2  0
  2 18  1  0
 18 19  2  0
 18 20  1  0
 20 21  1  0
 21 22  1  0
 22 23  2  0
 22 24  1  0
 24 25  2  0
 25 26  1  0
 26 27  2  0
 27 28  1  0
 28 29  2  0
 29 30  1  0
 30 31  2  0
 31 32  1  0
 32 33  2  0
 10  6  1  0
 17 11  1  0
 33 24  1  0
 32 27  1  0
  1 34  1  0
  1 35  1  0
  1 36  1  0
  3 37  1  0
  3 38  1  0
  7 39  1  0
  7 40  1  0
  8 41  1  0
  8 42  1  0
  9 43  1  0
  9 44  1  0
 10 45  1  1
 13 46  1  0
 16 47  1  0
 20 48  1  0
 20 49  1  0
 21 50  1  0
 25 51  1  0
 26 52  1  0
 28 53  1  0
 29 54  1  0
 30 55  1  0
 31 56  1  0
M  END
>  <smiles>  (46) 
CN(CC(=O)N1CCC[C@H]1c1ncc(F)cn1)C(=O)CNC(=O)c1ccc2ccccc2n1

>  <score_type>  (46) 
oracle

>  <origin>  (46) 
autodockgpu

>  <m_score__min__energy>  (46) 
-8.4700000000000006

>  <m_primary>  (46) 
energy

>  <rmsd>  (46) 
2.4805461524034014

>  <m_score__min__rmsd>  (46) 
2.4805461524034014

>  <meeko>  (46) 
{"free_energy": -8.21, "intermolecular_energy": -10.6, "internal_energy": -2.14, "cluster_size": 1, "cluster_id": 3, "rank_in_cluster": 1}

>  <energy>  (46) 
-6.56

>  <cluster_rmsd>  (46) 
0.0

>  <cluster>  (46) 
6

$$$$

     RDKit          3D

 56 59  0  0  0  0  0  0  0  0999 V2000
  142.8820   74.2480  220.4470 C   0  0  0  0  0  0  0  0  0  0  0  0
  141.5520   74.7450  220.2690 N   0  0  0  0  0  0  0  0  0  0  0  0
  141.4400   76.2280  220.2970 C   0  0  0  0  0  0  0  0  0  0  0  0
  141.0510   76.6450  221.6670 C   0  0  0  0  0  0  0  0  0  0  0  0
  140.5220   75.8050  222.4350 O   0  0  0  0  0  0  0  0  0  0  0  0
  141.3060   77.9970  222.0350 N   0  0  0  0  0  0  0  0  0  0  0  0
  141.8060   79.0880  221.2010 C   0  0  0  0  0  0  0  0  0  0  0  0
  142.1630   80.1710  222.1700 C   0  0  0  0  0  0  0  0  0  0  0  0
  142.1800   79.5070  223.5430 C   0  0  0  0  0  0  0  0  0  0  0  0
  141.0830   78.4950  223.3870 C   0  0  1  0  0  0  0  0  0  0  0  0
  139.7690   79.1600  223.5140 C   0  0  0  0  0  0  0  0  0  0  0  0
  138.7010   78.5230  223.0060 N   0  0  0  0  0  0  0  0  0  0  0  0
  137.4510   79.0510  223.0730 C   0  0  0  0  0  0  0  0  0  0  0  0
  137.3160   80.2810  223.6870 C   0  0  0  0  0  0  0  0  0  0  0  0
  136.0650   80.8010  223.7490 F   0  0  0  0  0  0  0  0  0  0  0  0
  138.3970   80.9670  224.2220 C   0  0  0  0  0  0  0  0  0  0  0  0
  139.6100   80.3680  224.1140 N   0  0  0  0  0  0  0  0  0  0  0  0
  140.3710   74.0230  220.0850 C   0  0  0  0  0  0  0  0  0  0  0  0
  140.2530   73.4530  218.9170 O   0  0  0  0  0  0  0  0  0  0  0  0
  139.2380   73.7810  220.9660 C   0  0  0  0  0  0  0  0  0  0  0  0
  139.4900   73.1390  222.2010 N   0  0  0  0  0  0  0  0  0  0  0  0
  139.4380   71.7110  222.3390 C   0  0  0  0  0  0  0  0  0  0  0  0
  139.1690   70.9590  221.3460 O   0  0  0  0  0  0  0  0  0  0  0  0
  139.7060   71.1390  223.6620 C   0  0  0  0  0  0  0  0  0  0  0  0
  139.3870   69.8220  223.8950 C   0  0  0  0  0  0  0  0  0  0  0  0
  139.6500   69.2950  225.1620 C   0  0  0  0  0  0  0  0  0  0  0  0
  140.2110   70.0560  226.1590 C   0  0  0  0  0  0  0  0  0  0  0  0
  140.4900   69.5880  227.4200 C   0  0  0  0  0  0  0  0  0  0  0  0
  141.0590   70.4410  228.3510 C   0  0  0  0  0  0  0  0  0  0  0  0
  141.3570   71.7580  228.0580 C   0  0  0  0  0  0  0  0  0  0  0  0
  141.0770   72.2320  226.7880 C   0  0  0  0  0  0  0  0  0  0  0  0
  140.5100   71.3690  225.8660 C   0  0  0  0  0  0  0  0  0  0  0  0
  140.2540   71.8640  224.6500 N   0  0  0  0  0  0  0  0  0  0  0  0
  143.1019   74.1658  221.5217 H   0  0  0  0  0  0  0  0  0  0  0  0
  142.9688   73.2567  219.9781 H   0  0  0  0  0  0  0  0  0  0  0  0
  143.5976   74.9394  219.9781 H   0  0  0  0  0  0  0  0  0  0  0  0
  142.4083   76.6783  220.0329 H   0  0  0  0  0  0  0  0  0  0  0  0
  140.6834   76.5626  219.5721 H   0  0  0  0  0  0  0  0  0  0  0  0
  142.6918   78.7678  220.6328 H   0  0  0  0  0  0  0  0  0  0  0  0
  141.0644   79.4197  220.4594 H   0  0  0  0  0  0  0  0  0  0  0  0
  143.1534   80.5868  221.9327 H   0  0  0  0  0  0  0  0  0  0  0  0
  141.4455   81.0038  222.1306 H   0  0  0  0  0  0  0  0  0  0  0  0
  143.1477   79.0252  223.7465 H   0  0  0  0  0  0  0  0  0  0  0  0
  142.0388   80.2020  224.3839 H   0  0  0  0  0  0  0  0  0  0  0  0
  141.0881   77.6944  224.1413 H   0  0  0  0  0  0  0  0  0  0  0  0
  136.5823   78.5209  222.6555 H   0  0  0  0  0  0  0  0  0  0  0  0
  138.2770   81.9461  224.7087 H   0  0  0  0  0  0  0  0  0  0  0  0
  138.7820   74.7566  221.1901 H   0  0  0  0  0  0  0  0  0  0  0  0
  138.6007   73.0763  220.4117 H   0  0  0  0  0  0  0  0  0  0  0  0
  139.7210   73.7090  223.0470 H   0  0  0  0  0  0  0  0  0  0  0  0
  138.9375   69.2009  223.1063 H   0  0  0  0  0  0  0  0  0  0  0  0
  139.4014   68.2432  225.3667 H   0  0  0  0  0  0  0  0  0  0  0  0
  140.2636   68.5454  227.6878 H   0  0  0  0  0  0  0  0  0  0  0  0
  141.2812   70.0571  229.3576 H   0  0  0  0  0  0  0  0  0  0  0  0
  141.8067   72.4151  228.8170 H   0  0  0  0  0  0  0  0  0  0  0  0
  141.3007   73.2743  226.5166 H   0  0  0  0  0  0  0  0  0  0  0  0
  1  2  1  0
  2  3  1  0
  3  4  1  0
  4  5  2  0
  4  6  1  0
  6  7  1  0
  7  8  1  0
  8  9  1  0
  9 10  1  0
 10 11  1  0
 11 12  2  0
 12 13  1  0
 13 14  2  0
 14 15  1  0
 14 16  1  0
 16 17  2  0
  2 18  1  0
 18 19  2  0
 18 20  1  0
 20 21  1  0
 21 22  1  0
 22 23  2  0
 22 24  1  0
 24 25  2  0
 25 26  1  0
 26 27  2  0
 27 28  1  0
 28 29  2  0
 29 30  1  0
 30 31  2  0
 31 32  1  0
 32 33  2  0
 10  6  1  0
 17 11  1  0
 33 24  1  0
 32 27  1  0
  1 34  1  0
  1 35  1  0
  1 36  1  0
  3 37  1  0
  3 38  1  0
  7 39  1  0
  7 40  1  0
  8 41  1  0
  8 42  1  0
  9 43  1  0
  9 44  1  0
 10 45  1  1
 13 46  1  0
 16 47  1  0
 20 48  1  0
 20 49  1  0
 21 50  1  0
 25 51  1  0
 26 52  1  0
 28 53  1  0
 29 54  1  0
 30 55  1  0
 31 56  1  0
M  END
>  <smiles>  (47) 
CN(CC(=O)N1CCC[C@H]1c1ncc(F)cn1)C(=O)CNC(=O)c1ccc2ccccc2n1

>  <score_type>  (47) 
oracle

>  <origin>  (47) 
autodockgpu

>  <m_score__min__energy>  (47) 
-8.4700000000000006

>  <m_primary>  (47) 
energy

>  <rmsd>  (47) 
2.1916334771176094

>  <m_score__min__rmsd>  (47) 
2.1916334771176094

>  <meeko>  (47) 
{"free_energy": -8.12, "intermolecular_energy": -10.5, "internal_energy": -2.51, "cluster_size": 9, "cluster_id": 1, "rank_in_cluster": 3}

>  <energy>  (47) 
-6.47

>  <cluster_rmsd>  (47) 
0.0

>  <cluster>  (47) 
7

$$$$

     RDKit          3D

 56 59  0  0  0  0  0  0  0  0999 V2000
  145.3570   73.4410  220.5450 C   0  0  0  0  0  0  0  0  0  0  0  0
  144.0140   73.5850  220.0720 N   0  0  0  0  0  0  0  0  0  0  0  0
  143.8890   74.3210  218.7860 C   0  0  0  0  0  0  0  0  0  0  0  0
  143.5200   75.7270  219.0830 C   0  0  0  0  0  0  0  0  0  0  0  0
  143.9930   76.2810  220.1050 O   0  0  0  0  0  0  0  0  0  0  0  0
  142.6370   76.3750  218.1730 N   0  0  0  0  0  0  0  0  0  0  0  0
  141.4320   75.8430  217.5380 C   0  0  0  0  0  0  0  0  0  0  0  0
  141.0960   76.8380  216.4720 C   0  0  0  0  0  0  0  0  0  0  0  0
  142.3370   77.7130  216.3190 C   0  0  0  0  0  0  0  0  0  0  0  0
  142.8400   77.7510  217.7330 C   0  0  1  0  0  0  0  0  0  0  0  0
  142.0310   78.7020  218.5240 C   0  0  0  0  0  0  0  0  0  0  0  0
  142.4980   79.9560  218.6510 N   0  0  0  0  0  0  0  0  0  0  0  0
  141.8280   80.9030  219.3580 C   0  0  0  0  0  0  0  0  0  0  0  0
  140.6380   80.5280  219.9480 C   0  0  0  0  0  0  0  0  0  0  0  0
  139.9760   81.4800  220.6520 F   0  0  0  0  0  0  0  0  0  0  0  0
  140.1260   79.2430  219.8380 C   0  0  0  0  0  0  0  0  0  0  0  0
  140.8570   78.3580  219.1140 N   0  0  0  0  0  0  0  0  0  0  0  0
  142.8310   73.1350  220.6630 C   0  0  0  0  0  0  0  0  0  0  0  0
  142.9030   71.9470  221.1990 O   0  0  0  0  0  0  0  0  0  0  0  0
  141.5220   73.7550  220.7990 C   0  0  0  0  0  0  0  0  0  0  0  0
  141.4660   75.0690  221.3210 N   0  0  0  0  0  0  0  0  0  0  0  0
  140.2520   75.6260  221.8440 C   0  0  0  0  0  0  0  0  0  0  0  0
  139.1690   74.9540  221.8670 O   0  0  0  0  0  0  0  0  0  0  0  0
  140.2910   77.0000  222.3560 C   0  0  0  0  0  0  0  0  0  0  0  0
  139.1140   77.6090  222.7210 C   0  0  0  0  0  0  0  0  0  0  0  0
  139.1730   78.9180  223.2060 C   0  0  0  0  0  0  0  0  0  0  0  0
  140.3640   79.5930  223.3220 C   0  0  0  0  0  0  0  0  0  0  0  0
  140.4770   80.8780  223.7930 C   0  0  0  0  0  0  0  0  0  0  0  0
  141.7290   81.4660  223.8690 C   0  0  0  0  0  0  0  0  0  0  0  0
  142.8790   80.8030  223.4860 C   0  0  0  0  0  0  0  0  0  0  0  0
  142.7670   79.5070  223.0120 C   0  0  0  0  0  0  0  0  0  0  0  0
  141.5110   78.9310  222.9410 C   0  0  0  0  0  0  0  0  0  0  0  0
  141.4430   77.6770  222.4780 N   0  0  0  0  0  0  0  0  0  0  0  0
  145.3603   73.4407  221.6450 H   0  0  0  0  0  0  0  0  0  0  0  0
  145.7757   72.4928  220.1768 H   0  0  0  0  0  0  0  0  0  0  0  0
  145.9672   74.2789  220.1768 H   0  0  0  0  0  0  0  0  0  0  0  0
  144.8484   74.2947  218.2485 H   0  0  0  0  0  0  0  0  0  0  0  0
  143.1171   73.8532  218.1572 H   0  0  0  0  0  0  0  0  0  0  0  0
  141.6292   74.8543  217.0980 H   0  0  0  0  0  0  0  0  0  0  0  0
  140.6089   75.7057  218.2547 H   0  0  0  0  0  0  0  0  0  0  0  0
  140.8694   76.3248  215.5258 H   0  0  0  0  0  0  0  0  0  0  0  0
  140.2094   77.4330  216.7364 H   0  0  0  0  0  0  0  0  0  0  0  0
  143.0725   77.2551  215.6412 H   0  0  0  0  0  0  0  0  0  0  0  0
  142.1414   78.7032  215.8816 H   0  0  0  0  0  0  0  0  0  0  0  0
  143.8832   78.0830  217.8403 H   0  0  0  0  0  0  0  0  0  0  0  0
  142.2180   81.9268  219.4562 H   0  0  0  0  0  0  0  0  0  0  0  0
  139.1763   78.9564  220.3133 H   0  0  0  0  0  0  0  0  0  0  0  0
  141.0649   73.7794  219.7988 H   0  0  0  0  0  0  0  0  0  0  0  0
  140.9990   73.1380  221.5445 H   0  0  0  0  0  0  0  0  0  0  0  0
  142.3270   75.6620  221.3310 H   0  0  0  0  0  0  0  0  0  0  0  0
  138.1530   77.0809  222.6337 H   0  0  0  0  0  0  0  0  0  0  0  0
  138.2411   79.4215  223.5028 H   0  0  0  0  0  0  0  0  0  0  0  0
  139.5819   81.4351  224.1069 H   0  0  0  0  0  0  0  0  0  0  0  0
  141.8103   82.4958  224.2471 H   0  0  0  0  0  0  0  0  0  0  0  0
  143.8611   81.2936  223.5560 H   0  0  0  0  0  0  0  0  0  0  0  0
  143.6595   78.9460  222.6978 H   0  0  0  0  0  0  0  0  0  0  0  0
  1  2  1  0
  2  3  1  0
  3  4  1  0
  4  5  2  0
  4  6  1  0
  6  7  1  0
  7  8  1  0
  8  9  1  0
  9 10  1  0
 10 11  1  0
 11 12  2  0
 12 13  1  0
 13 14  2  0
 14 15  1  0
 14 16  1  0
 16 17  2  0
  2 18  1  0
 18 19  2  0
 18 20  1  0
 20 21  1  0
 21 22  1  0
 22 23  2  0
 22 24  1  0
 24 25  2  0
 25 26  1  0
 26 27  2  0
 27 28  1  0
 28 29  2  0
 29 30  1  0
 30 31  2  0
 31 32  1  0
 32 33  2  0
 10  6  1  0
 17 11  1  0
 33 24  1  0
 32 27  1  0
  1 34  1  0
  1 35  1  0
  1 36  1  0
  3 37  1  0
  3 38  1  0
  7 39  1  0
  7 40  1  0
  8 41  1  0
  8 42  1  0
  9 43  1  0
  9 44  1  0
 10 45  1  6
 13 46  1  0
 16 47  1  0
 20 48  1  0
 20 49  1  0
 21 50  1  0
 25 51  1  0
 26 52  1  0
 28 53  1  0
 29 54  1  0
 30 55  1  0
 31 56  1  0
M  END
>  <smiles>  (48) 
CN(CC(=O)N1CCC[C@H]1c1ncc(F)cn1)C(=O)CNC(=O)c1ccc2ccccc2n1

>  <score_type>  (48) 
oracle

>  <origin>  (48) 
autodockgpu

>  <m_score__min__energy>  (48) 
-8.4700000000000006

>  <m_primary>  (48) 
energy

>  <rmsd>  (48) 
7.56674358519404

>  <m_score__min__rmsd>  (48) 
7.56674358519404

>  <meeko>  (48) 
{"free_energy": -6.4, "intermolecular_energy": -8.79, "internal_energy": -4.26, "cluster_size": 8, "cluster_id": 5, "rank_in_cluster": 2}

>  <energy>  (48) 
-5.63

>  <cluster_rmsd>  (48) 
0.0

>  <cluster>  (48) 
8

$$$$

     RDKit          3D

 56 59  0  0  0  0  0  0  0  0999 V2000
  138.8040   75.5140  219.1670 C   0  0  0  0  0  0  0  0  0  0  0  0
  138.4380   75.3930  220.5460 N   0  0  0  0  0  0  0  0  0  0  0  0
  137.6150   76.5180  221.0650 C   0  0  0  0  0  0  0  0  0  0  0  0
  138.5000   77.4350  221.8260 C   0  0  0  0  0  0  0  0  0  0  0  0
  138.1900   77.7490  223.0000 O   0  0  0  0  0  0  0  0  0  0  0  0
  139.6680   77.9110  221.1650 N   0  0  0  0  0  0  0  0  0  0  0  0
  139.7660   78.6380  219.9010 C   0  0  0  0  0  0  0  0  0  0  0  0
  141.2220   78.6040  219.5570 C   0  0  0  0  0  0  0  0  0  0  0  0
  141.8360   77.5450  220.4700 C   0  0  0  0  0  0  0  0  0  0  0  0
  141.0070   77.7170  221.7090 C   0  0  1  0  0  0  0  0  0  0  0  0
  141.4690   78.9060  222.4570 C   0  0  0  0  0  0  0  0  0  0  0  0
  140.5410   79.6270  223.1070 N   0  0  0  0  0  0  0  0  0  0  0  0
  140.8650   80.7360  223.8230 C   0  0  0  0  0  0  0  0  0  0  0  0
  142.1980   81.0980  223.8590 C   0  0  0  0  0  0  0  0  0  0  0  0
  142.5120   82.2060  224.5750 F   0  0  0  0  0  0  0  0  0  0  0  0
  143.1820   80.3770  223.1990 C   0  0  0  0  0  0  0  0  0  0  0  0
  142.7730   79.2820  222.5080 N   0  0  0  0  0  0  0  0  0  0  0  0
  138.7580   74.3740  221.4440 C   0  0  0  0  0  0  0  0  0  0  0  0
  139.6530   74.6920  222.3400 O   0  0  0  0  0  0  0  0  0  0  0  0
  138.2690   73.0090  221.5730 C   0  0  0  0  0  0  0  0  0  0  0  0
  138.7100   72.2540  222.6860 N   0  0  0  0  0  0  0  0  0  0  0  0
  138.4550   70.8460  222.7960 C   0  0  0  0  0  0  0  0  0  0  0  0
  137.8240   70.2130  221.8880 O   0  0  0  0  0  0  0  0  0  0  0  0
  138.9450   70.1510  223.9910 C   0  0  0  0  0  0  0  0  0  0  0  0
  138.7950   68.7870  224.0770 C   0  0  0  0  0  0  0  0  0  0  0  0
  139.2680   68.1430  225.2230 C   0  0  0  0  0  0  0  0  0  0  0  0
  139.8700   68.8370  226.2450 C   0  0  0  0  0  0  0  0  0  0  0  0
  140.3530   68.2540  227.3910 C   0  0  0  0  0  0  0  0  0  0  0  0
  140.9440   69.0470  228.3610 C   0  0  0  0  0  0  0  0  0  0  0  0
  141.0660   70.4160  228.2180 C   0  0  0  0  0  0  0  0  0  0  0  0
  140.5810   71.0060  227.0630 C   0  0  0  0  0  0  0  0  0  0  0  0
  139.9930   70.2020  226.1020 C   0  0  0  0  0  0  0  0  0  0  0  0
  139.5370   70.8090  225.0000 N   0  0  0  0  0  0  0  0  0  0  0  0
  139.8460   75.8585  219.0931 H   0  0  0  0  0  0  0  0  0  0  0  0
  138.7055   74.5355  218.6743 H   0  0  0  0  0  0  0  0  0  0  0  0
  138.1416   76.2410  218.6743 H   0  0  0  0  0  0  0  0  0  0  0  0
  137.1537   77.0588  220.2255 H   0  0  0  0  0  0  0  0  0  0  0  0
  136.8186   76.1329  221.7188 H   0  0  0  0  0  0  0  0  0  0  0  0
  139.1710   78.1414  219.1204 H   0  0  0  0  0  0  0  0  0  0  0  0
  139.3802   79.6651  219.9799 H   0  0  0  0  0  0  0  0  0  0  0  0
  141.3606   78.3277  218.5013 H   0  0  0  0  0  0  0  0  0  0  0  0
  141.6961   79.5866  219.6977 H   0  0  0  0  0  0  0  0  0  0  0  0
  141.7262   76.5352  220.0478 H   0  0  0  0  0  0  0  0  0  0  0  0
  142.9184   77.6578  220.6302 H   0  0  0  0  0  0  0  0  0  0  0  0
  141.0615   76.8768  222.4168 H   0  0  0  0  0  0  0  0  0  0  0  0
  140.0980   81.3209  224.3517 H   0  0  0  0  0  0  0  0  0  0  0  0
  144.2398   80.6769  223.2336 H   0  0  0  0  0  0  0  0  0  0  0  0
  137.1712   73.0568  221.6228 H   0  0  0  0  0  0  0  0  0  0  0  0
  138.6811   72.4826  220.6994 H   0  0  0  0  0  0  0  0  0  0  0  0
  139.2380   72.7230  223.4570 H   0  0  0  0  0  0  0  0  0  0  0  0
  138.3159   68.2187  223.2661 H   0  0  0  0  0  0  0  0  0  0  0  0
  139.1557   67.0522  225.3095 H   0  0  0  0  0  0  0  0  0  0  0  0
  140.2712   67.1668  227.5373 H   0  0  0  0  0  0  0  0  0  0  0  0
  141.3288   68.5713  229.2751 H   0  0  0  0  0  0  0  0  0  0  0  0
  141.5379   71.0236  229.0042 H   0  0  0  0  0  0  0  0  0  0  0  0
  140.6615   72.0926  226.9121 H   0  0  0  0  0  0  0  0  0  0  0  0
  1  2  1  0
  2  3  1  0
  3  4  1  0
  4  5  2  0
  4  6  1  0
  6  7  1  0
  7  8  1  0
  8  9  1  0
  9 10  1  0
 10 11  1  0
 11 12  2  0
 12 13  1  0
 13 14  2  0
 14 15  1  0
 14 16  1  0
 16 17  2  0
  2 18  1  0
 18 19  2  0
 18 20  1  0
 20 21  1  0
 21 22  1  0
 22 23  2  0
 22 24  1  0
 24 25  2  0
 25 26  1  0
 26 27  2  0
 27 28  1  0
 28 29  2  0
 29 30  1  0
 30 31  2  0
 31 32  1  0
 32 33  2  0
 10  6  1  0
 17 11  1  0
 33 24  1  0
 32 27  1  0
  1 34  1  0
  1 35  1  0
  1 36  1  0
  3 37  1  0
  3 38  1  0
  7 39  1  0
  7 40  1  0
  8 41  1  0
  8 42  1  0
  9 43  1  0
  9 44  1  0
 10 45  1  1
 13 46  1  0
 16 47  1  0
 20 48  1  0
 20 49  1  0
 21 50  1  0
 25 51  1  0
 26 52  1  0
 28 53  1  0
 29 54  1  0
 30 55  1  0
 31 56  1  0
M  END
>  <smiles>  (49) 
CN(CC(=O)N1CCC[C@H]1c1ncc(F)cn1)C(=O)CNC(=O)c1ccc2ccccc2n1

>  <score_type>  (49) 
oracle

>  <origin>  (49) 
autodockgpu

>  <m_score__min__energy>  (49) 
-8.4700000000000006

>  <m_primary>  (49) 
energy

>  <rmsd>  (49) 
1.9817549668103813

>  <m_score__min__rmsd>  (49) 
1.9817549668103813

>  <meeko>  (49) 
{"free_energy": -7.96, "intermolecular_energy": -10.35, "internal_energy": -2.72, "cluster_size": 18, "cluster_id": 4, "rank_in_cluster": 1}

>  <energy>  (49) 
-5.48

>  <cluster_rmsd>  (49) 
0.0

>  <cluster>  (49) 
9

$$$$

     RDKit          3D

 56 59  0  0  0  0  0  0  0  0999 V2000
  137.0810   76.6430  220.8140 C   0  0  0  0  0  0  0  0  0  0  0  0
  137.9990   75.5480  220.7380 N   0  0  0  0  0  0  0  0  0  0  0  0
  139.3780   75.9290  220.3300 C   0  0  0  0  0  0  0  0  0  0  0  0
  140.1860   76.1510  221.5550 C   0  0  0  0  0  0  0  0  0  0  0  0
  140.3960   75.1880  222.3320 O   0  0  0  0  0  0  0  0  0  0  0  0
  140.6840   77.4660  221.7780 N   0  0  0  0  0  0  0  0  0  0  0  0
  141.2240   78.4130  220.8030 C   0  0  0  0  0  0  0  0  0  0  0  0
  141.8620   79.4840  221.6310 C   0  0  0  0  0  0  0  0  0  0  0  0
  141.9630   78.9110  223.0410 C   0  0  0  0  0  0  0  0  0  0  0  0
  140.7180   78.0750  223.1030 C   0  0  1  0  0  0  0  0  0  0  0  0
  139.5440   78.9440  223.3330 C   0  0  0  0  0  0  0  0  0  0  0  0
  138.3430   78.4740  222.9600 N   0  0  0  0  0  0  0  0  0  0  0  0
  137.2050   79.1970  223.1300 C   0  0  0  0  0  0  0  0  0  0  0  0
  137.3290   80.4450  223.7070 C   0  0  0  0  0  0  0  0  0  0  0  0
  136.1880   81.1600  223.8730 F   0  0  0  0  0  0  0  0  0  0  0  0
  138.5530   80.9620  224.1050 C   0  0  0  0  0  0  0  0  0  0  0  0
  139.6400   80.1750  223.8990 N   0  0  0  0  0  0  0  0  0  0  0  0
  137.7620   74.1950  220.9870 C   0  0  0  0  0  0  0  0  0  0  0  0
  136.5090   73.8840  221.1810 O   0  0  0  0  0  0  0  0  0  0  0  0
  138.6610   73.0540  221.0640 C   0  0  0  0  0  0  0  0  0  0  0  0
  139.1140   72.6570  222.3450 N   0  0  0  0  0  0  0  0  0  0  0  0
  139.3410   71.2790  222.6760 C   0  0  0  0  0  0  0  0  0  0  0  0
  139.1510   70.3520  221.8230 O   0  0  0  0  0  0  0  0  0  0  0  0
  139.8020   70.9660  224.0330 C   0  0  0  0  0  0  0  0  0  0  0  0
  140.5700   71.8870  224.7040 C   0  0  0  0  0  0  0  0  0  0  0  0
  141.0000   71.5700  225.9950 C   0  0  0  0  0  0  0  0  0  0  0  0
  140.6720   70.3770  226.5930 C   0  0  0  0  0  0  0  0  0  0  0  0
  141.0670   70.0170  227.8590 C   0  0  0  0  0  0  0  0  0  0  0  0
  140.6810   68.7870  228.3670 C   0  0  0  0  0  0  0  0  0  0  0  0
  139.9060   67.9010  227.6430 C   0  0  0  0  0  0  0  0  0  0  0  0
  139.5070   68.2630  226.3680 C   0  0  0  0  0  0  0  0  0  0  0  0
  139.9000   69.4940  225.8720 C   0  0  0  0  0  0  0  0  0  0  0  0
  139.4940   69.8070  224.6360 N   0  0  0  0  0  0  0  0  0  0  0  0
  136.8811   76.8814  221.8691 H   0  0  0  0  0  0  0  0  0  0  0  0
  137.5163   77.5217  220.3157 H   0  0  0  0  0  0  0  0  0  0  0  0
  136.1398   76.3677  220.3157 H   0  0  0  0  0  0  0  0  0  0  0  0
  139.8248   75.1211  219.7319 H   0  0  0  0  0  0  0  0  0  0  0  0
  139.3522   76.8464  219.7236 H   0  0  0  0  0  0  0  0  0  0  0  0
  141.9696   77.9243  220.1586 H   0  0  0  0  0  0  0  0  0  0  0  0
  140.4474   78.8105  220.1329 H   0  0  0  0  0  0  0  0  0  0  0  0
  142.8625   79.7244  221.2422 H   0  0  0  0  0  0  0  0  0  0  0  0
  141.2760   80.4147  221.6122 H   0  0  0  0  0  0  0  0  0  0  0  0
  142.8677   78.2973  223.1634 H   0  0  0  0  0  0  0  0  0  0  0  0
  142.0382   79.6701  223.8336 H   0  0  0  0  0  0  0  0  0  0  0  0
  140.7055   77.3322  223.9142 H   0  0  0  0  0  0  0  0  0  0  0  0
  136.2253   78.8040  222.8206 H   0  0  0  0  0  0  0  0  0  0  0  0
  138.6386   81.9581  224.5638 H   0  0  0  0  0  0  0  0  0  0  0  0
  138.1387   72.1940  220.6194 H   0  0  0  0  0  0  0  0  0  0  0  0
  139.5698   73.3808  220.5373 H   0  0  0  0  0  0  0  0  0  0  0  0
  139.2910   73.3780  223.0810 H   0  0  0  0  0  0  0  0  0  0  0  0
  140.8386   72.8465  224.2380 H   0  0  0  0  0  0  0  0  0  0  0  0
  141.6171   72.2942  226.5471 H   0  0  0  0  0  0  0  0  0  0  0  0
  141.6836   70.6987  228.4632 H   0  0  0  0  0  0  0  0  0  0  0  0
  141.0023   68.5063  229.3809 H   0  0  0  0  0  0  0  0  0  0  0  0
  139.6130   66.9306  228.0701 H   0  0  0  0  0  0  0  0  0  0  0  0
  138.8893   67.5852  225.7605 H   0  0  0  0  0  0  0  0  0  0  0  0
  1  2  1  0
  2  3  1  0
  3  4  1  0
  4  5  2  0
  4  6  1  0
  6  7  1  0
  7  8  1  0
  8  9  1  0
  9 10  1  0
 10 11  1  0
 11 12  2  0
 12 13  1  0
 13 14  2  0
 14 15  1  0
 14 16  1  0
 16 17  2  0
  2 18  1  0
 18 19  2  0
 18 20  1  0
 20 21  1  0
 21 22  1  0
 22 23  2  0
 22 24  1  0
 24 25  2  0
 25 26  1  0
 26 27  2  0
 27 28  1  0
 28 29  2  0
 29 30  1  0
 30 31  2  0
 31 32  1  0
 32 33  2  0
 10  6  1  0
 17 11  1  0
 33 24  1  0
 32 27  1  0
  1 34  1  0
  1 35  1  0
  1 36  1  0
  3 37  1  0
  3 38  1  0
  7 39  1  0
  7 40  1  0
  8 41  1  0
  8 42  1  0
  9 43  1  0
  9 44  1  0
 10 45  1  1
 13 46  1  0
 16 47  1  0
 20 48  1  0
 20 49  1  0
 21 50  1  0
 25 51  1  0
 26 52  1  0
 28 53  1  0
 29 54  1  0
 30 55  1  0
 31 56  1  0
M  END
>  <smiles>  (50) 
CN(CC(=O)N1CCC[C@H]1c1ncc(F)cn1)C(=O)CNC(=O)c1ccc2ccccc2n1

>  <score_type>  (50) 
oracle

>  <origin>  (50) 
autodockgpu

>  <m_score__min__energy>  (50) 
-8.4700000000000006

>  <m_primary>  (50) 
energy

>  <rmsd>  (50) 
2.9843747804461955

>  <m_score__min__rmsd>  (50) 
2.9843747804461955

>  <meeko>  (50) 
{"free_energy": -7.6, "intermolecular_energy": -9.99, "internal_energy": -2.5, "cluster_size": 9, "cluster_id": 1, "rank_in_cluster": 8}

>  <energy>  (50) 
-5.11

>  <cluster_rmsd>  (50) 
0.0

>  <cluster>  (50) 
10

$$$$
