
     RDKit          3D

 66 70  0  0  0  0  0  0  0  0999 V2000
  139.2040   67.1940  226.3870 N   0  0  0  0  0  0  0  0  0  0  0  0
  140.0520   68.2540  226.9390 C   0  0  0  0  0  0  0  0  0  0  0  0
  139.8210   69.4800  226.0890 C   0  0  0  0  0  0  0  0  0  0  0  0
  139.2950   69.0510  224.7320 C   0  0  0  0  0  0  0  0  0  0  0  0
  138.8380   70.3060  224.0190 C   0  0  0  0  0  0  0  0  0  0  0  0
  139.9390   71.2450  223.9250 N   0  0  0  0  0  0  0  0  0  0  0  0
  140.2740   71.8720  222.6920 C   0  0  0  0  0  0  0  0  0  0  0  0
  140.6560   71.1590  221.6290 N   0  0  0  0  0  0  0  0  0  0  0  0
  140.9800   71.7530  220.4410 C   0  0  0  0  0  0  0  0  0  0  0  0
  141.3850   70.9640  219.3250 N   0  0  0  0  0  0  0  0  0  0  0  0
  142.7880   70.7440  219.1360 C   0  0  0  0  0  0  0  0  0  0  0  0
  143.3210   71.9170  218.3120 C   0  0  0  0  0  0  0  0  0  0  0  0
  144.1410   72.7240  219.2790 C   0  0  0  0  0  0  0  0  0  0  0  0
  145.1940   72.0570  219.8770 C   0  0  0  0  0  0  0  0  0  0  0  0
  145.9840   72.7610  220.7810 C   0  0  0  0  0  0  0  0  0  0  0  0
  145.7100   74.0940  221.0650 C   0  0  0  0  0  0  0  0  0  0  0  0
  144.6420   74.7280  220.4410 C   0  0  0  0  0  0  0  0  0  0  0  0
  143.8420   74.0460  219.5380 C   0  0  0  0  0  0  0  0  0  0  0  0
  140.9000   73.1080  220.3770 N   0  0  0  0  0  0  0  0  0  0  0  0
  140.5200   73.8500  221.4280 C   0  0  0  0  0  0  0  0  0  0  0  0
  140.4550   75.2670  221.3020 N   0  0  0  0  0  0  0  0  0  0  0  0
  140.8680   75.8330  220.0360 C   0  0  0  0  0  0  0  0  0  0  0  0
  141.9210   76.9020  220.2280 C   0  0  0  0  0  0  0  0  0  0  0  0
  141.4100   77.9020  221.2300 C   0  0  0  0  0  0  0  0  0  0  0  0
  141.8680   79.2060  221.1240 C   0  0  0  0  0  0  0  0  0  0  0  0
  141.4210   80.1520  222.0250 C   0  0  0  0  0  0  0  0  0  0  0  0
  140.5300   79.7850  223.0110 C   0  0  0  0  0  0  0  0  0  0  0  0
  140.0790   78.4660  223.1020 C   0  0  0  0  0  0  0  0  0  0  0  0
  140.5210   77.4960  222.1990 C   0  0  0  0  0  0  0  0  0  0  0  0
  140.0090   76.1280  222.3490 C   0  0  0  0  0  0  0  0  0  0  0  0
  140.2090   73.2100  222.5850 N   0  0  0  0  0  0  0  0  0  0  0  0
  140.7010   71.5380  225.1230 C   0  0  0  0  0  0  0  0  0  0  0  0
  141.0820   70.2710  225.8640 C   0  0  0  0  0  0  0  0  0  0  0  0
  138.2150   67.5400  226.4450 H   0  0  0  0  0  0  0  0  0  0  0  0
  139.3110   66.3030  226.9320 H   0  0  0  0  0  0  0  0  0  0  0  0
  139.7724   68.4582  227.9831 H   0  0  0  0  0  0  0  0  0  0  0  0
  141.1117   67.9590  226.9288 H   0  0  0  0  0  0  0  0  0  0  0  0
  139.1018   70.1160  226.6259 H   0  0  0  0  0  0  0  0  0  0  0  0
  140.0922   68.5581  224.1562 H   0  0  0  0  0  0  0  0  0  0  0  0
  138.4660   68.3361  224.8398 H   0  0  0  0  0  0  0  0  0  0  0  0
  138.4920   70.0462  223.0077 H   0  0  0  0  0  0  0  0  0  0  0  0
  138.0148   70.7664  224.5850 H   0  0  0  0  0  0  0  0  0  0  0  0
  140.6630   70.5720  218.6810 H   0  0  0  0  0  0  0  0  0  0  0  0
  143.2981   70.7045  220.1098 H   0  0  0  0  0  0  0  0  0  0  0  0
  142.9682   69.7895  218.6198 H   0  0  0  0  0  0  0  0  0  0  0  0
  143.9456   71.5553  217.4819 H   0  0  0  0  0  0  0  0  0  0  0  0
  142.5114   72.5084  217.8595 H   0  0  0  0  0  0  0  0  0  0  0  0
  145.4012   71.0018  219.6453 H   0  0  0  0  0  0  0  0  0  0  0  0
  146.8302   72.2597  221.2737 H   0  0  0  0  0  0  0  0  0  0  0  0
  146.3366   74.6454  221.7815 H   0  0  0  0  0  0  0  0  0  0  0  0
  144.4293   75.7834  220.6665 H   0  0  0  0  0  0  0  0  0  0  0  0
  142.9948   74.5432  219.0430 H   0  0  0  0  0  0  0  0  0  0  0  0
  141.2808   75.0331  219.4037 H   0  0  0  0  0  0  0  0  0  0  0  0
  139.9900   76.2929  219.5589 H   0  0  0  0  0  0  0  0  0  0  0  0
  142.8498   76.4452  220.6004 H   0  0  0  0  0  0  0  0  0  0  0  0
  142.1298   77.4014  219.2704 H   0  0  0  0  0  0  0  0  0  0  0  0
  142.5788   79.4838  220.3318 H   0  0  0  0  0  0  0  0  0  0  0  0
  141.7735   81.1917  221.9565 H   0  0  0  0  0  0  0  0  0  0  0  0
  140.1719   80.5358  223.7308 H   0  0  0  0  0  0  0  0  0  0  0  0
  139.3677   78.1880  223.8937 H   0  0  0  0  0  0  0  0  0  0  0  0
  140.3554   75.7238  223.3116 H   0  0  0  0  0  0  0  0  0  0  0  0
  138.9108   76.1720  222.3048 H   0  0  0  0  0  0  0  0  0  0  0  0
  141.6179   72.0762  224.8406 H   0  0  0  0  0  0  0  0  0  0  0  0
  140.0755   72.1515  225.7881 H   0  0  0  0  0  0  0  0  0  0  0  0
  141.7913   69.6834  225.2627 H   0  0  0  0  0  0  0  0  0  0  0  0
  141.5628   70.5136  226.8232 H   0  0  0  0  0  0  0  0  0  0  0  0
  1  2  1  0
  2  3  1  0
  3  4  1  0
  4  5  1  0
  5  6  1  0
  6  7  1  0
  7  8  2  0
  8  9  1  0
  9 10  1  0
 10 11  1  0
 11 12  1  0
 12 13  1  0
 13 14  2  0
 14 15  1  0
 15 16  2  0
 16 17  1  0
 17 18  2  0
  9 19  2  0
 19 20  1  0
 20 21  1  0
 21 22  1  0
 22 23  1  0
 23 24  1  0
 24 25  2  0
 25 26  1  0
 26 27  2  0
 27 28  1  0
 28 29  2  0
 29 30  1  0
 20 31  2  0
  6 32  1  0
 32 33  1  0
 33  3  1  0
 31  7  1  0
 18 13  1  0
 30 21  1  0
 29 24  1  0
  1 34  1  0
  1 35  1  0
  2 36  1  0
  2 37  1  0
  3 38  1  0
  4 39  1  0
  4 40  1  0
  5 41  1  0
  5 42  1  0
 10 43  1  0
 11 44  1  0
 11 45  1  0
 12 46  1  0
 12 47  1  0
 14 48  1  0
 15 49  1  0
 16 50  1  0
 17 51  1  0
 18 52  1  0
 22 53  1  0
 22 54  1  0
 23 55  1  0
 23 56  1  0
 25 57  1  0
 26 58  1  0
 27 59  1  0
 28 60  1  0
 30 61  1  0
 30 62  1  0
 32 63  1  0
 32 64  1  0
 33 65  1  0
 33 66  1  0
M  END
>  <smiles>  (1) 
NCC1CCN(c2nc(NCCc3ccccc3)nc(N3CCc4ccccc4C3)n2)CC1

>  <score_type>  (1) 
oracle

>  <origin>  (1) 
autodockgpu

>  <m_score__min__energy>  (1) 
-10.140000000000001

>  <m_primary>  (1) 
energy

>  <rmsd>  (1) 
4.447982886767312

>  <m_score__min__rmsd>  (1) 
4.447982886767312

>  <meeko>  (1) 
{"free_energy": -8.84, "intermolecular_energy": -11.23, "internal_energy": -1.81, "cluster_size": 15, "cluster_id": 4, "rank_in_cluster": 6}

>  <energy>  (1) 
-10.14

>  <cluster_rmsd>  (1) 
0.0

>  <cluster>  (1) 
1

$$$$

     RDKit          3D

 66 70  0  0  0  0  0  0  0  0999 V2000
  139.3830   67.2350  226.2380 N   0  0  0  0  0  0  0  0  0  0  0  0
  140.0390   68.3180  226.9750 C   0  0  0  0  0  0  0  0  0  0  0  0
  139.8160   69.5810  226.1800 C   0  0  0  0  0  0  0  0  0  0  0  0
  139.0760   69.2370  224.9000 C   0  0  0  0  0  0  0  0  0  0  0  0
  138.6520   70.5470  224.2710 C   0  0  0  0  0  0  0  0  0  0  0  0
  139.8150   71.3810  224.0420 N   0  0  0  0  0  0  0  0  0  0  0  0
  140.0430   72.0050  222.7830 C   0  0  0  0  0  0  0  0  0  0  0  0
  140.2400   71.2860  221.6750 N   0  0  0  0  0  0  0  0  0  0  0  0
  140.4600   71.8770  220.4620 C   0  0  0  0  0  0  0  0  0  0  0  0
  140.6680   71.0820  219.2970 N   0  0  0  0  0  0  0  0  0  0  0  0
  141.9630   71.1200  218.6850 C   0  0  0  0  0  0  0  0  0  0  0  0
  142.9910   70.8830  219.7930 C   0  0  0  0  0  0  0  0  0  0  0  0
  143.6420   72.2210  220.0040 C   0  0  0  0  0  0  0  0  0  0  0  0
  144.6160   72.2690  220.9820 C   0  0  0  0  0  0  0  0  0  0  0  0
  145.2490   73.4870  221.2150 C   0  0  0  0  0  0  0  0  0  0  0  0
  144.9000   74.6130  220.4790 C   0  0  0  0  0  0  0  0  0  0  0  0
  143.9140   74.5220  219.5030 C   0  0  0  0  0  0  0  0  0  0  0  0
  143.2710   73.3200  219.2550 C   0  0  0  0  0  0  0  0  0  0  0  0
  140.4720   73.2350  220.4210 N   0  0  0  0  0  0  0  0  0  0  0  0
  140.2780   73.9840  221.5170 C   0  0  0  0  0  0  0  0  0  0  0  0
  140.3000   75.4030  221.4130 N   0  0  0  0  0  0  0  0  0  0  0  0
  140.8140   75.9630  220.1820 C   0  0  0  0  0  0  0  0  0  0  0  0
  141.9150   76.9660  220.4500 C   0  0  0  0  0  0  0  0  0  0  0  0
  141.4080   77.9790  221.4410 C   0  0  0  0  0  0  0  0  0  0  0  0
  141.9460   79.2550  221.3830 C   0  0  0  0  0  0  0  0  0  0  0  0
  141.5060   80.2120  222.2760 C   0  0  0  0  0  0  0  0  0  0  0  0
  140.5430   79.8830  223.2060 C   0  0  0  0  0  0  0  0  0  0  0  0
  140.0120   78.5920  223.2490 C   0  0  0  0  0  0  0  0  0  0  0  0
  140.4460   77.6110  222.3530 C   0  0  0  0  0  0  0  0  0  0  0  0
  139.8490   76.2730  222.4510 C   0  0  0  0  0  0  0  0  0  0  0  0
  140.0630   73.3460  222.6980 N   0  0  0  0  0  0  0  0  0  0  0  0
  140.7540   71.5720  225.1300 C   0  0  0  0  0  0  0  0  0  0  0  0
  141.1060   70.2560  225.7990 C   0  0  0  0  0  0  0  0  0  0  0  0
  139.3690   66.4020  226.8740 H   0  0  0  0  0  0  0  0  0  0  0  0
  139.9040   67.0100  225.3540 H   0  0  0  0  0  0  0  0  0  0  0  0
  139.5958   68.4175  227.9768 H   0  0  0  0  0  0  0  0  0  0  0  0
  141.1126   68.1156  227.1031 H   0  0  0  0  0  0  0  0  0  0  0  0
  139.2382   70.2678  226.8159 H   0  0  0  0  0  0  0  0  0  0  0  0
  139.7388   68.6863  224.2163 H   0  0  0  0  0  0  0  0  0  0  0  0
  138.2037   68.6001  225.1087 H   0  0  0  0  0  0  0  0  0  0  0  0
  138.1518   70.3466  223.3120 H   0  0  0  0  0  0  0  0  0  0  0  0
  137.9594   71.0678  224.9486 H   0  0  0  0  0  0  0  0  0  0  0  0
  139.8860   70.5010  218.9230 H   0  0  0  0  0  0  0  0  0  0  0  0
  142.0428   70.3322  217.9214 H   0  0  0  0  0  0  0  0  0  0  0  0
  142.1349   72.0881  218.1919 H   0  0  0  0  0  0  0  0  0  0  0  0
  142.4961   70.5430  220.7147 H   0  0  0  0  0  0  0  0  0  0  0  0
  143.7197   70.1041  219.5242 H   0  0  0  0  0  0  0  0  0  0  0  0
  144.8836   71.3719  221.5595 H   0  0  0  0  0  0  0  0  0  0  0  0
  146.0300   73.5585  221.9863 H   0  0  0  0  0  0  0  0  0  0  0  0
  145.4023   75.5732  220.6680 H   0  0  0  0  0  0  0  0  0  0  0  0
  143.6412   75.4146  218.9210 H   0  0  0  0  0  0  0  0  0  0  0  0
  142.4890   73.2436  218.4851 H   0  0  0  0  0  0  0  0  0  0  0  0
  141.2143   75.1500  219.5585 H   0  0  0  0  0  0  0  0  0  0  0  0
  139.9915   76.4807  219.6668 H   0  0  0  0  0  0  0  0  0  0  0  0
  142.7941   76.4502  220.8636 H   0  0  0  0  0  0  0  0  0  0  0  0
  142.2044   77.4666  219.5143 H   0  0  0  0  0  0  0  0  0  0  0  0
  142.7138   79.5023  220.6351 H   0  0  0  0  0  0  0  0  0  0  0  0
  141.9212   81.2302  222.2455 H   0  0  0  0  0  0  0  0  0  0  0  0
  140.1904   80.6426  223.9192 H   0  0  0  0  0  0  0  0  0  0  0  0
  139.2437   78.3445  223.9963 H   0  0  0  0  0  0  0  0  0  0  0  0
  140.1198   75.8348  223.4229 H   0  0  0  0  0  0  0  0  0  0  0  0
  138.7590   76.3818  222.3501 H   0  0  0  0  0  0  0  0  0  0  0  0
  141.6729   72.0281  224.7331 H   0  0  0  0  0  0  0  0  0  0  0  0
  140.2846   72.2255  225.8800 H   0  0  0  0  0  0  0  0  0  0  0  0
  141.6707   69.6198  225.1016 H   0  0  0  0  0  0  0  0  0  0  0  0
  141.7294   70.4290  226.6886 H   0  0  0  0  0  0  0  0  0  0  0  0
  1  2  1  0
  2  3  1  0
  3  4  1  0
  4  5  1  0
  5  6  1  0
  6  7  1  0
  7  8  2  0
  8  9  1  0
  9 10  1  0
 10 11  1  0
 11 12  1  0
 12 13  1  0
 13 14  2  0
 14 15  1  0
 15 16  2  0
 16 17  1  0
 17 18  2  0
  9 19  2  0
 19 20  1  0
 20 21  1  0
 21 22  1  0
 22 23  1  0
 23 24  1  0
 24 25  2  0
 25 26  1  0
 26 27  2  0
 27 28  1  0
 28 29  2  0
 29 30  1  0
 20 31  2  0
  6 32  1  0
 32 33  1  0
 33  3  1  0
 31  7  1  0
 18 13  1  0
 30 21  1  0
 29 24  1  0
  1 34  1  0
  1 35  1  0
  2 36  1  0
  2 37  1  0
  3 38  1  0
  4 39  1  0
  4 40  1  0
  5 41  1  0
  5 42  1  0
 10 43  1  0
 11 44  1  0
 11 45  1  0
 12 46  1  0
 12 47  1  0
 14 48  1  0
 15 49  1  0
 16 50  1  0
 17 51  1  0
 18 52  1  0
 22 53  1  0
 22 54  1  0
 23 55  1  0
 23 56  1  0
 25 57  1  0
 26 58  1  0
 27 59  1  0
 28 60  1  0
 30 61  1  0
 30 62  1  0
 32 63  1  0
 32 64  1  0
 33 65  1  0
 33 66  1  0
M  END
>  <smiles>  (2) 
NCC1CCN(c2nc(NCCc3ccccc3)nc(N3CCc4ccccc4C3)n2)CC1

>  <score_type>  (2) 
oracle

>  <origin>  (2) 
autodockgpu

>  <m_score__min__energy>  (2) 
-10.140000000000001

>  <m_primary>  (2) 
energy

>  <rmsd>  (2) 
4.54290455786776

>  <m_score__min__rmsd>  (2) 
4.54290455786776

>  <meeko>  (2) 
{"free_energy": -8.53, "intermolecular_energy": -10.92, "internal_energy": -1.93, "cluster_size": 15, "cluster_id": 4, "rank_in_cluster": 13}

>  <energy>  (2) 
-10.11

>  <cluster_rmsd>  (2) 
0.34

>  <cluster>  (2) 
1

$$$$

     RDKit          3D

 66 70  0  0  0  0  0  0  0  0999 V2000
  139.4630   67.1740  226.2360 N   0  0  0  0  0  0  0  0  0  0  0  0
  139.8850   68.3010  227.0730 C   0  0  0  0  0  0  0  0  0  0  0  0
  139.7380   69.5450  226.2310 C   0  0  0  0  0  0  0  0  0  0  0  0
  139.1470   69.1670  224.8860 C   0  0  0  0  0  0  0  0  0  0  0  0
  138.7800   70.4580  224.1860 C   0  0  0  0  0  0  0  0  0  0  0  0
  139.9520   71.3020  224.0690 N   0  0  0  0  0  0  0  0  0  0  0  0
  140.3100   71.9040  222.8290 C   0  0  0  0  0  0  0  0  0  0  0  0
  140.7250   71.1710  221.7930 N   0  0  0  0  0  0  0  0  0  0  0  0
  141.0710   71.7410  220.6000 C   0  0  0  0  0  0  0  0  0  0  0  0
  141.5100   70.9310  219.5120 N   0  0  0  0  0  0  0  0  0  0  0  0
  142.8900   70.5430  219.4830 C   0  0  0  0  0  0  0  0  0  0  0  0
  143.6000   71.4810  218.5050 C   0  0  0  0  0  0  0  0  0  0  0  0
  144.3420   72.4540  219.3790 C   0  0  0  0  0  0  0  0  0  0  0  0
  145.5570   72.0160  219.8690 C   0  0  0  0  0  0  0  0  0  0  0  0
  146.2830   72.8800  220.6840 C   0  0  0  0  0  0  0  0  0  0  0  0
  145.7870   74.1430  220.9880 C   0  0  0  0  0  0  0  0  0  0  0  0
  144.5590   74.5450  220.4740 C   0  0  0  0  0  0  0  0  0  0  0  0
  143.8200   73.7000  219.6620 C   0  0  0  0  0  0  0  0  0  0  0  0
  140.9780   73.0930  220.5020 N   0  0  0  0  0  0  0  0  0  0  0  0
  140.5660   73.8550  221.5250 C   0  0  0  0  0  0  0  0  0  0  0  0
  140.4880   75.2680  221.3640 N   0  0  0  0  0  0  0  0  0  0  0  0
  140.9150   75.8080  220.0910 C   0  0  0  0  0  0  0  0  0  0  0  0
  141.9550   76.8910  220.2740 C   0  0  0  0  0  0  0  0  0  0  0  0
  141.4180   77.9100  221.2440 C   0  0  0  0  0  0  0  0  0  0  0  0
  141.8660   79.2150  221.1140 C   0  0  0  0  0  0  0  0  0  0  0  0
  141.3950   80.1780  221.9850 C   0  0  0  0  0  0  0  0  0  0  0  0
  140.4930   79.8260  222.9660 C   0  0  0  0  0  0  0  0  0  0  0  0
  140.0530   78.5050  223.0820 C   0  0  0  0  0  0  0  0  0  0  0  0
  140.5180   77.5180  222.2080 C   0  0  0  0  0  0  0  0  0  0  0  0
  140.0180   76.1490  222.3840 C   0  0  0  0  0  0  0  0  0  0  0  0
  140.2330   73.2380  222.6900 N   0  0  0  0  0  0  0  0  0  0  0  0
  140.7640   71.5270  225.2490 C   0  0  0  0  0  0  0  0  0  0  0  0
  141.0540   70.2290  225.9790 C   0  0  0  0  0  0  0  0  0  0  0  0
  139.4940   66.3200  226.8430 H   0  0  0  0  0  0  0  0  0  0  0  0
  140.1020   67.0580  225.4100 H   0  0  0  0  0  0  0  0  0  0  0  0
  139.2465   68.3700  227.9661 H   0  0  0  0  0  0  0  0  0  0  0  0
  140.9232   68.1740  227.4137 H   0  0  0  0  0  0  0  0  0  0  0  0
  139.0868   70.2366  226.7857 H   0  0  0  0  0  0  0  0  0  0  0  0
  139.8868   68.6115  224.2909 H   0  0  0  0  0  0  0  0  0  0  0  0
  138.2637   68.5236  225.0119 H   0  0  0  0  0  0  0  0  0  0  0  0
  138.3911   70.2316  223.1823 H   0  0  0  0  0  0  0  0  0  0  0  0
  138.0107   70.9830  224.7713 H   0  0  0  0  0  0  0  0  0  0  0  0
  140.8300   70.6430  218.7740 H   0  0  0  0  0  0  0  0  0  0  0  0
  143.3305   70.6401  220.4863 H   0  0  0  0  0  0  0  0  0  0  0  0
  142.9956   69.4947  219.1670 H   0  0  0  0  0  0  0  0  0  0  0  0
  144.2998   70.9199  217.8683 H   0  0  0  0  0  0  0  0  0  0  0  0
  142.8960   71.9847  217.8263 H   0  0  0  0  0  0  0  0  0  0  0  0
  145.9394   71.0145  219.6226 H   0  0  0  0  0  0  0  0  0  0  0  0
  147.2546   72.5618  221.0899 H   0  0  0  0  0  0  0  0  0  0  0  0
  146.3641   74.8219  221.6330 H   0  0  0  0  0  0  0  0  0  0  0  0
  144.1699   75.5453  220.7149 H   0  0  0  0  0  0  0  0  0  0  0  0
  142.8469   74.0126  219.2553 H   0  0  0  0  0  0  0  0  0  0  0  0
  141.3448   74.9975  219.4841 H   0  0  0  0  0  0  0  0  0  0  0  0
  140.0403   76.2480  219.5897 H   0  0  0  0  0  0  0  0  0  0  0  0
  142.8817   76.4521  220.6721 H   0  0  0  0  0  0  0  0  0  0  0  0
  142.1751   77.3693  219.3082 H   0  0  0  0  0  0  0  0  0  0  0  0
  142.5875   79.4805  220.3272 H   0  0  0  0  0  0  0  0  0  0  0  0
  141.7377   81.2195  221.8963 H   0  0  0  0  0  0  0  0  0  0  0  0
  140.1171   80.5902  223.6622 H   0  0  0  0  0  0  0  0  0  0  0  0
  139.3328   78.2387  223.8697 H   0  0  0  0  0  0  0  0  0  0  0  0
  140.3548   75.7717  223.3608 H   0  0  0  0  0  0  0  0  0  0  0  0
  138.9201   76.1801  222.3238 H   0  0  0  0  0  0  0  0  0  0  0  0
  141.7160   71.9870  224.9456 H   0  0  0  0  0  0  0  0  0  0  0  0
  140.2088   72.1895  225.9293 H   0  0  0  0  0  0  0  0  0  0  0  0
  141.6982   69.5867  225.3606 H   0  0  0  0  0  0  0  0  0  0  0  0
  141.5742   70.4273  226.9277 H   0  0  0  0  0  0  0  0  0  0  0  0
  1  2  1  0
  2  3  1  0
  3  4  1  0
  4  5  1  0
  5  6  1  0
  6  7  1  0
  7  8  2  0
  8  9  1  0
  9 10  1  0
 10 11  1  0
 11 12  1  0
 12 13  1  0
 13 14  2  0
 14 15  1  0
 15 16  2  0
 16 17  1  0
 17 18  2  0
  9 19  2  0
 19 20  1  0
 20 21  1  0
 21 22  1  0
 22 23  1  0
 23 24  1  0
 24 25  2  0
 25 26  1  0
 26 27  2  0
 27 28  1  0
 28 29  2  0
 29 30  1  0
 20 31  2  0
  6 32  1  0
 32 33  1  0
 33  3  1  0
 31  7  1  0
 18 13  1  0
 30 21  1  0
 29 24  1  0
  1 34  1  0
  1 35  1  0
  2 36  1  0
  2 37  1  0
  3 38  1  0
  4 39  1  0
  4 40  1  0
  5 41  1  0
  5 42  1  0
 10 43  1  0
 11 44  1  0
 11 45  1  0
 12 46  1  0
 12 47  1  0
 14 48  1  0
 15 49  1  0
 16 50  1  0
 17 51  1  0
 18 52  1  0
 22 53  1  0
 22 54  1  0
 23 55  1  0
 23 56  1  0
 25 57  1  0
 26 58  1  0
 27 59  1  0
 28 60  1  0
 30 61  1  0
 30 62  1  0
 32 63  1  0
 32 64  1  0
 33 65  1  0
 33 66  1  0
M  END
>  <smiles>  (3) 
NCC1CCN(c2nc(NCCc3ccccc3)nc(N3CCc4ccccc4C3)n2)CC1

>  <score_type>  (3) 
oracle

>  <origin>  (3) 
autodockgpu

>  <m_score__min__energy>  (3) 
-10.140000000000001

>  <m_primary>  (3) 
energy

>  <rmsd>  (3) 
4.43087824050007

>  <m_score__min__rmsd>  (3) 
4.43087824050007

>  <meeko>  (3) 
{"free_energy": -9.05, "intermolecular_energy": -11.44, "internal_energy": -1.69, "cluster_size": 15, "cluster_id": 4, "rank_in_cluster": 2}

>  <energy>  (3) 
-10.09

>  <cluster_rmsd>  (3) 
0.37

>  <cluster>  (3) 
1

$$$$

     RDKit          3D

 66 70  0  0  0  0  0  0  0  0999 V2000
  146.4220   73.7060  217.4720 N   0  0  0  0  0  0  0  0  0  0  0  0
  145.6300   72.4730  217.4540 C   0  0  0  0  0  0  0  0  0  0  0  0
  144.8400   72.4470  218.7400 C   0  0  0  0  0  0  0  0  0  0  0  0
  143.4690   71.8570  218.4670 C   0  0  0  0  0  0  0  0  0  0  0  0
  142.8180   71.6120  219.8130 C   0  0  0  0  0  0  0  0  0  0  0  0
  142.7590   72.8530  220.5600 N   0  0  0  0  0  0  0  0  0  0  0  0
  141.5530   73.2860  221.1810 C   0  0  0  0  0  0  0  0  0  0  0  0
  140.6600   72.4140  221.6530 N   0  0  0  0  0  0  0  0  0  0  0  0
  139.5000   72.8210  222.2500 C   0  0  0  0  0  0  0  0  0  0  0  0
  138.5650   71.8640  222.7440 N   0  0  0  0  0  0  0  0  0  0  0  0
  138.6870   71.4550  224.1120 C   0  0  0  0  0  0  0  0  0  0  0  0
  139.9980   70.6770  224.2330 C   0  0  0  0  0  0  0  0  0  0  0  0
  140.3980   70.8230  225.6750 C   0  0  0  0  0  0  0  0  0  0  0  0
  140.0310   69.7840  226.5100 C   0  0  0  0  0  0  0  0  0  0  0  0
  140.3790   69.8730  227.8540 C   0  0  0  0  0  0  0  0  0  0  0  0
  141.0730   70.9790  228.3300 C   0  0  0  0  0  0  0  0  0  0  0  0
  141.4230   72.0020  227.4570 C   0  0  0  0  0  0  0  0  0  0  0  0
  141.0870   71.9350  226.1150 C   0  0  0  0  0  0  0  0  0  0  0  0
  139.2830   74.1590  222.3480 N   0  0  0  0  0  0  0  0  0  0  0  0
  140.1620   75.0590  221.8830 C   0  0  0  0  0  0  0  0  0  0  0  0
  139.8820   76.4490  222.0150 N   0  0  0  0  0  0  0  0  0  0  0  0
  140.9940   77.3610  221.8500 C   0  0  0  0  0  0  0  0  0  0  0  0
  141.1190   78.2960  223.0320 C   0  0  0  0  0  0  0  0  0  0  0  0
  139.7870   78.9600  223.2590 C   0  0  0  0  0  0  0  0  0  0  0  0
  139.7900   80.2240  223.8290 C   0  0  0  0  0  0  0  0  0  0  0  0
  138.5880   80.8640  224.0520 C   0  0  0  0  0  0  0  0  0  0  0  0
  137.4090   80.2390  223.7060 C   0  0  0  0  0  0  0  0  0  0  0  0
  137.4250   78.9650  223.1340 C   0  0  0  0  0  0  0  0  0  0  0  0
  138.6330   78.3020  222.9000 C   0  0  0  0  0  0  0  0  0  0  0  0
  138.5810   76.9650  222.2960 C   0  0  0  0  0  0  0  0  0  0  0  0
  141.3000   74.6010  221.2990 N   0  0  0  0  0  0  0  0  0  0  0  0
  143.9630   73.6530  220.6680 C   0  0  0  0  0  0  0  0  0  0  0  0
  144.6420   73.8200  219.3220 C   0  0  0  0  0  0  0  0  0  0  0  0
  146.7240   73.8540  218.4650 H   0  0  0  0  0  0  0  0  0  0  0  0
  145.8560   74.5240  217.1370 H   0  0  0  0  0  0  0  0  0  0  0  0
  144.9488   72.4724  216.5903 H   0  0  0  0  0  0  0  0  0  0  0  0
  146.2774   71.5877  217.3690 H   0  0  0  0  0  0  0  0  0  0  0  0
  145.4114   71.8429  219.4601 H   0  0  0  0  0  0  0  0  0  0  0  0
  142.8646   72.5621  217.8774 H   0  0  0  0  0  0  0  0  0  0  0  0
  143.5504   70.9219  217.8935 H   0  0  0  0  0  0  0  0  0  0  0  0
  141.7986   71.2275  219.6616 H   0  0  0  0  0  0  0  0  0  0  0  0
  143.4106   70.8757  220.3758 H   0  0  0  0  0  0  0  0  0  0  0  0
  137.8260   71.4890  222.1090 H   0  0  0  0  0  0  0  0  0  0  0  0
  138.7095   72.3369  224.7690 H   0  0  0  0  0  0  0  0  0  0  0  0
  137.8321   70.8311  224.4121 H   0  0  0  0  0  0  0  0  0  0  0  0
  139.8452   69.6178  223.9783 H   0  0  0  0  0  0  0  0  0  0  0  0
  140.7705   71.0547  223.5470 H   0  0  0  0  0  0  0  0  0  0  0  0
  139.4807   68.9135  226.1234 H   0  0  0  0  0  0  0  0  0  0  0  0
  140.1030   69.0625  228.5446 H   0  0  0  0  0  0  0  0  0  0  0  0
  141.3443   71.0444  229.3940 H   0  0  0  0  0  0  0  0  0  0  0  0
  141.9735   72.8755  227.8364 H   0  0  0  0  0  0  0  0  0  0  0  0
  141.3609   72.7433  225.4211 H   0  0  0  0  0  0  0  0  0  0  0  0
  141.9228   76.7796  221.7535 H   0  0  0  0  0  0  0  0  0  0  0  0
  140.8166   77.9645  220.9476 H   0  0  0  0  0  0  0  0  0  0  0  0
  141.4066   77.7256  223.9275 H   0  0  0  0  0  0  0  0  0  0  0  0
  141.8894   79.0553  222.8320 H   0  0  0  0  0  0  0  0  0  0  0  0
  140.7386   80.7105  224.1000 H   0  0  0  0  0  0  0  0  0  0  0  0
  138.5707   81.8670  224.5032 H   0  0  0  0  0  0  0  0  0  0  0  0
  136.4493   80.7471  223.8816 H   0  0  0  0  0  0  0  0  0  0  0  0
  136.4762   78.4779  222.8646 H   0  0  0  0  0  0  0  0  0  0  0  0
  138.0716   76.2817  222.9915 H   0  0  0  0  0  0  0  0  0  0  0  0
  138.0369   77.0458  221.3434 H   0  0  0  0  0  0  0  0  0  0  0  0
  143.6984   74.6459  221.0605 H   0  0  0  0  0  0  0  0  0  0  0  0
  144.6603   73.1375  221.3448 H   0  0  0  0  0  0  0  0  0  0  0  0
  144.0087   74.4228  218.6545 H   0  0  0  0  0  0  0  0  0  0  0  0
  145.6076   74.3341  219.4371 H   0  0  0  0  0  0  0  0  0  0  0  0
  1  2  1  0
  2  3  1  0
  3  4  1  0
  4  5  1  0
  5  6  1  0
  6  7  1  0
  7  8  2  0
  8  9  1  0
  9 10  1  0
 10 11  1  0
 11 12  1  0
 12 13  1  0
 13 14  2  0
 14 15  1  0
 15 16  2  0
 16 17  1  0
 17 18  2  0
  9 19  2  0
 19 20  1  0
 20 21  1  0
 21 22  1  0
 22 23  1  0
 23 24  1  0
 24 25  2  0
 25 26  1  0
 26 27  2  0
 27 28  1  0
 28 29  2  0
 29 30  1  0
 20 31  2  0
  6 32  1  0
 32 33  1  0
 33  3  1  0
 31  7  1  0
 18 13  1  0
 30 21  1  0
 29 24  1  0
  1 34  1  0
  1 35  1  0
  2 36  1  0
  2 37  1  0
  3 38  1  0
  4 39  1  0
  4 40  1  0
  5 41  1  0
  5 42  1  0
 10 43  1  0
 11 44  1  0
 11 45  1  0
 12 46  1  0
 12 47  1  0
 14 48  1  0
 15 49  1  0
 16 50  1  0
 17 51  1  0
 18 52  1  0
 22 53  1  0
 22 54  1  0
 23 55  1  0
 23 56  1  0
 25 57  1  0
 26 58  1  0
 27 59  1  0
 28 60  1  0
 30 61  1  0
 30 62  1  0
 32 63  1  0
 32 64  1  0
 33 65  1  0
 33 66  1  0
M  END
>  <smiles>  (4) 
NCC1CCN(c2nc(NCCc3ccccc3)nc(N3CCc4ccccc4C3)n2)CC1

>  <score_type>  (4) 
oracle

>  <origin>  (4) 
autodockgpu

>  <m_score__min__energy>  (4) 
-10.140000000000001

>  <m_primary>  (4) 
energy

>  <rmsd>  (4) 
5.808695565776836

>  <m_score__min__rmsd>  (4) 
5.808695565776836

>  <meeko>  (4) 
{"free_energy": -9.28, "intermolecular_energy": -11.66, "internal_energy": -1.12, "cluster_size": 6, "cluster_id": 2, "rank_in_cluster": 6}

>  <energy>  (4) 
-10.04

>  <cluster_rmsd>  (4) 
0.5

>  <cluster>  (4) 
1

$$$$

     RDKit          3D

 66 70  0  0  0  0  0  0  0  0999 V2000
  139.2980   67.1710  226.2300 N   0  0  0  0  0  0  0  0  0  0  0  0
  139.8640   68.2670  227.0210 C   0  0  0  0  0  0  0  0  0  0  0  0
  139.7200   69.5200  226.1920 C   0  0  0  0  0  0  0  0  0  0  0  0
  139.1250   69.1570  224.8440 C   0  0  0  0  0  0  0  0  0  0  0  0
  138.7610   70.4560  224.1580 C   0  0  0  0  0  0  0  0  0  0  0  0
  139.9370   71.2970  224.0460 N   0  0  0  0  0  0  0  0  0  0  0  0
  140.2960   71.9090  222.8120 C   0  0  0  0  0  0  0  0  0  0  0  0
  140.7100   71.1850  221.7700 N   0  0  0  0  0  0  0  0  0  0  0  0
  141.0560   71.7650  220.5810 C   0  0  0  0  0  0  0  0  0  0  0  0
  141.4960   70.9640  219.4870 N   0  0  0  0  0  0  0  0  0  0  0  0
  142.8580   70.5170  219.4910 C   0  0  0  0  0  0  0  0  0  0  0  0
  143.6250   71.4070  218.5110 C   0  0  0  0  0  0  0  0  0  0  0  0
  144.3460   72.3990  219.3800 C   0  0  0  0  0  0  0  0  0  0  0  0
  145.5670   71.9870  219.8790 C   0  0  0  0  0  0  0  0  0  0  0  0
  146.2730   72.8700  220.6900 C   0  0  0  0  0  0  0  0  0  0  0  0
  145.7550   74.1270  220.9800 C   0  0  0  0  0  0  0  0  0  0  0  0
  144.5230   74.5030  220.4580 C   0  0  0  0  0  0  0  0  0  0  0  0
  143.8020   73.6390  219.6490 C   0  0  0  0  0  0  0  0  0  0  0  0
  140.9640   73.1180  220.4950 N   0  0  0  0  0  0  0  0  0  0  0  0
  140.5510   73.8710  221.5250 C   0  0  0  0  0  0  0  0  0  0  0  0
  140.4730   75.2850  221.3760 N   0  0  0  0  0  0  0  0  0  0  0  0
  140.9790   75.8440  220.1410 C   0  0  0  0  0  0  0  0  0  0  0  0
  141.9970   76.9320  220.4050 C   0  0  0  0  0  0  0  0  0  0  0  0
  141.3890   77.9350  221.3490 C   0  0  0  0  0  0  0  0  0  0  0  0
  141.8340   79.2450  221.2650 C   0  0  0  0  0  0  0  0  0  0  0  0
  141.3000   80.1940  222.1140 C   0  0  0  0  0  0  0  0  0  0  0  0
  140.3370   79.8230  223.0290 C   0  0  0  0  0  0  0  0  0  0  0  0
  139.9010   78.4980  223.1000 C   0  0  0  0  0  0  0  0  0  0  0  0
  140.4310   77.5250  222.2470 C   0  0  0  0  0  0  0  0  0  0  0  0
  139.9300   76.1510  222.3730 C   0  0  0  0  0  0  0  0  0  0  0  0
  140.2180   73.2450  222.6840 N   0  0  0  0  0  0  0  0  0  0  0  0
  140.7520   71.5070  225.2270 C   0  0  0  0  0  0  0  0  0  0  0  0
  141.0390   70.2010  225.9440 C   0  0  0  0  0  0  0  0  0  0  0  0
  139.2880   66.3260  226.8500 H   0  0  0  0  0  0  0  0  0  0  0  0
  139.8770   66.9870  225.3730 H   0  0  0  0  0  0  0  0  0  0  0  0
  139.3148   68.3739  227.9681 H   0  0  0  0  0  0  0  0  0  0  0  0
  140.9188   68.0741  227.2663 H   0  0  0  0  0  0  0  0  0  0  0  0
  139.0727   70.2088  226.7546 H   0  0  0  0  0  0  0  0  0  0  0  0
  139.8618   68.6051  224.2419 H   0  0  0  0  0  0  0  0  0  0  0  0
  138.2400   68.5150  224.9651 H   0  0  0  0  0  0  0  0  0  0  0  0
  138.3683   70.2411  223.1532 H   0  0  0  0  0  0  0  0  0  0  0  0
  137.9953   70.9782  224.7505 H   0  0  0  0  0  0  0  0  0  0  0  0
  140.8280   70.7250  218.7210 H   0  0  0  0  0  0  0  0  0  0  0  0
  143.2838   70.6128  220.5007 H   0  0  0  0  0  0  0  0  0  0  0  0
  142.9245   69.4597  219.1949 H   0  0  0  0  0  0  0  0  0  0  0  0
  144.3411   70.8118  217.9254 H   0  0  0  0  0  0  0  0  0  0  0  0
  142.9592   71.8965  217.7850 H   0  0  0  0  0  0  0  0  0  0  0  0
  145.9688   70.9908  219.6421 H   0  0  0  0  0  0  0  0  0  0  0  0
  147.2473   72.5715  221.1044 H   0  0  0  0  0  0  0  0  0  0  0  0
  146.3183   74.8217  221.6204 H   0  0  0  0  0  0  0  0  0  0  0  0
  144.1154   75.4981  220.6897 H   0  0  0  0  0  0  0  0  0  0  0  0
  142.8264   73.9322  219.2340 H   0  0  0  0  0  0  0  0  0  0  0  0
  141.4539   75.0441  219.5539 H   0  0  0  0  0  0  0  0  0  0  0  0
  140.1359   76.2847  219.5888 H   0  0  0  0  0  0  0  0  0  0  0  0
  142.8987   76.4946  220.8584 H   0  0  0  0  0  0  0  0  0  0  0  0
  142.2772   77.4234  219.4616 H   0  0  0  0  0  0  0  0  0  0  0  0
  142.6035   79.5253  220.5306 H   0  0  0  0  0  0  0  0  0  0  0  0
  141.6403   81.2387  222.0610 H   0  0  0  0  0  0  0  0  0  0  0  0
  139.9094   80.5758  223.7075 H   0  0  0  0  0  0  0  0  0  0  0  0
  139.1323   78.2168  223.8349 H   0  0  0  0  0  0  0  0  0  0  0  0
  140.2037   75.7639  223.3656 H   0  0  0  0  0  0  0  0  0  0  0  0
  138.8384   76.1762  222.2400 H   0  0  0  0  0  0  0  0  0  0  0  0
  141.7051   71.9667  224.9265 H   0  0  0  0  0  0  0  0  0  0  0  0
  140.1999   72.1643  225.9149 H   0  0  0  0  0  0  0  0  0  0  0  0
  141.6794   69.5621  225.3181 H   0  0  0  0  0  0  0  0  0  0  0  0
  141.5624   70.3878  226.8933 H   0  0  0  0  0  0  0  0  0  0  0  0
  1  2  1  0
  2  3  1  0
  3  4  1  0
  4  5  1  0
  5  6  1  0
  6  7  1  0
  7  8  2  0
  8  9  1  0
  9 10  1  0
 10 11  1  0
 11 12  1  0
 12 13  1  0
 13 14  2  0
 14 15  1  0
 15 16  2  0
 16 17  1  0
 17 18  2  0
  9 19  2  0
 19 20  1  0
 20 21  1  0
 21 22  1  0
 22 23  1  0
 23 24  1  0
 24 25  2  0
 25 26  1  0
 26 27  2  0
 27 28  1  0
 28 29  2  0
 29 30  1  0
 20 31  2  0
  6 32  1  0
 32 33  1  0
 33  3  1  0
 31  7  1  0
 18 13  1  0
 30 21  1  0
 29 24  1  0
  1 34  1  0
  1 35  1  0
  2 36  1  0
  2 37  1  0
  3 38  1  0
  4 39  1  0
  4 40  1  0
  5 41  1  0
  5 42  1  0
 10 43  1  0
 11 44  1  0
 11 45  1  0
 12 46  1  0
 12 47  1  0
 14 48  1  0
 15 49  1  0
 16 50  1  0
 17 51  1  0
 18 52  1  0
 22 53  1  0
 22 54  1  0
 23 55  1  0
 23 56  1  0
 25 57  1  0
 26 58  1  0
 27 59  1  0
 28 60  1  0
 30 61  1  0
 30 62  1  0
 32 63  1  0
 32 64  1  0
 33 65  1  0
 33 66  1  0
M  END
>  <smiles>  (5) 
NCC1CCN(c2nc(NCCc3ccccc3)nc(N3CCc4ccccc4C3)n2)CC1

>  <score_type>  (5) 
oracle

>  <origin>  (5) 
autodockgpu

>  <m_score__min__energy>  (5) 
-10.140000000000001

>  <m_primary>  (5) 
energy

>  <rmsd>  (5) 
4.489955625285181

>  <m_score__min__rmsd>  (5) 
4.489955625285181

>  <meeko>  (5) 
{"free_energy": -9.06, "intermolecular_energy": -11.45, "internal_energy": -1.67, "cluster_size": 15, "cluster_id": 4, "rank_in_cluster": 1}

>  <energy>  (5) 
-10.03

>  <cluster_rmsd>  (5) 
0.5

>  <cluster>  (5) 
1

$$$$

     RDKit          3D

 66 70  0  0  0  0  0  0  0  0999 V2000
  145.8990   68.5180  219.7600 N   0  0  0  0  0  0  0  0  0  0  0  0
  146.2260   69.7200  218.9880 C   0  0  0  0  0  0  0  0  0  0  0  0
  144.9910   70.5870  218.9910 C   0  0  0  0  0  0  0  0  0  0  0  0
  145.2770   71.8560  219.7730 C   0  0  0  0  0  0  0  0  0  0  0  0
  144.1140   72.7940  219.5300 C   0  0  0  0  0  0  0  0  0  0  0  0
  142.8770   72.1550  219.9300 N   0  0  0  0  0  0  0  0  0  0  0  0
  141.9370   72.8180  220.7680 C   0  0  0  0  0  0  0  0  0  0  0  0
  141.1250   72.1370  221.5800 N   0  0  0  0  0  0  0  0  0  0  0  0
  140.2190   72.7660  222.3880 C   0  0  0  0  0  0  0  0  0  0  0  0
  139.3660   72.0100  223.2440 N   0  0  0  0  0  0  0  0  0  0  0  0
  139.9450   70.9210  223.9730 C   0  0  0  0  0  0  0  0  0  0  0  0
  140.4400   71.4850  225.3060 C   0  0  0  0  0  0  0  0  0  0  0  0
  140.5290   70.2920  226.2170 C   0  0  0  0  0  0  0  0  0  0  0  0
  140.9570   70.5500  227.5050 C   0  0  0  0  0  0  0  0  0  0  0  0
  141.0560   69.4780  228.3870 C   0  0  0  0  0  0  0  0  0  0  0  0
  140.7310   68.1920  227.9710 C   0  0  0  0  0  0  0  0  0  0  0  0
  140.3040   67.9750  226.6660 C   0  0  0  0  0  0  0  0  0  0  0  0
  140.1990   69.0280  225.7710 C   0  0  0  0  0  0  0  0  0  0  0  0
  140.1720   74.1230  222.3370 N   0  0  0  0  0  0  0  0  0  0  0  0
  140.9740   74.8350  221.5310 C   0  0  0  0  0  0  0  0  0  0  0  0
  140.8800   76.2550  221.5200 N   0  0  0  0  0  0  0  0  0  0  0  0
  140.8960   76.9030  220.2260 C   0  0  0  0  0  0  0  0  0  0  0  0
  141.9640   77.9730  220.1590 C   0  0  0  0  0  0  0  0  0  0  0  0
  141.7830   78.9030  221.3290 C   0  0  0  0  0  0  0  0  0  0  0  0
  142.1950   80.2170  221.1720 C   0  0  0  0  0  0  0  0  0  0  0  0
  142.0440   81.1000  222.2230 C   0  0  0  0  0  0  0  0  0  0  0  0
  141.4890   80.6610  223.4060 C   0  0  0  0  0  0  0  0  0  0  0  0
  141.0790   79.3330  223.5460 C   0  0  0  0  0  0  0  0  0  0  0  0
  141.2240   78.4260  222.4930 C   0  0  0  0  0  0  0  0  0  0  0  0
  140.7750   77.0440  222.7050 C   0  0  0  0  0  0  0  0  0  0  0  0
  141.8570   74.1600  220.7480 N   0  0  0  0  0  0  0  0  0  0  0  0
  142.6080   70.8120  219.4550 C   0  0  0  0  0  0  0  0  0  0  0  0
  143.8120   69.9070  219.6340 C   0  0  0  0  0  0  0  0  0  0  0  0
  146.8070   68.0360  219.9670 H   0  0  0  0  0  0  0  0  0  0  0  0
  145.2650   67.8820  219.2170 H   0  0  0  0  0  0  0  0  0  0  0  0
  147.0655   70.2546  219.4564 H   0  0  0  0  0  0  0  0  0  0  0  0
  146.5253   69.4616  217.9616 H   0  0  0  0  0  0  0  0  0  0  0  0
  144.7413   70.7994  217.9410 H   0  0  0  0  0  0  0  0  0  0  0  0
  145.3614   71.6282  220.8458 H   0  0  0  0  0  0  0  0  0  0  0  0
  146.2246   72.3121  219.4504 H   0  0  0  0  0  0  0  0  0  0  0  0
  144.2570   73.7130  220.1174 H   0  0  0  0  0  0  0  0  0  0  0  0
  144.0651   73.0425  218.4596 H   0  0  0  0  0  0  0  0  0  0  0  0
  138.3560   72.2620  223.3200 H   0  0  0  0  0  0  0  0  0  0  0  0
  139.1894   70.1415  224.1504 H   0  0  0  0  0  0  0  0  0  0  0  0
  140.7729   70.4677  223.4080 H   0  0  0  0  0  0  0  0  0  0  0  0
  141.4271   71.9553  225.1854 H   0  0  0  0  0  0  0  0  0  0  0  0
  139.7703   72.2622  225.7029 H   0  0  0  0  0  0  0  0  0  0  0  0
  141.2117   71.5715  227.8237 H   0  0  0  0  0  0  0  0  0  0  0  0
  141.3935   69.6494  229.4198 H   0  0  0  0  0  0  0  0  0  0  0  0
  140.8115   67.3485  228.6725 H   0  0  0  0  0  0  0  0  0  0  0  0
  140.0466   66.9564  226.3401 H   0  0  0  0  0  0  0  0  0  0  0  0
  139.8630   68.8616  224.7369 H   0  0  0  0  0  0  0  0  0  0  0  0
  141.0953   76.1490  219.4503 H   0  0  0  0  0  0  0  0  0  0  0  0
  139.9176   77.3790  220.0644 H   0  0  0  0  0  0  0  0  0  0  0  0
  142.9594   77.5071  220.2059 H   0  0  0  0  0  0  0  0  0  0  0  0
  141.8779   78.5327  219.2160 H   0  0  0  0  0  0  0  0  0  0  0  0
  142.6368   80.5523  220.2221 H   0  0  0  0  0  0  0  0  0  0  0  0
  142.3645   82.1469  222.1169 H   0  0  0  0  0  0  0  0  0  0  0  0
  141.3681   81.3613  224.2456 H   0  0  0  0  0  0  0  0  0  0  0  0
  140.6370   78.9975  224.4958 H   0  0  0  0  0  0  0  0  0  0  0  0
  141.3943   76.5870  223.4909 H   0  0  0  0  0  0  0  0  0  0  0  0
  139.7150   77.0745  222.9975 H   0  0  0  0  0  0  0  0  0  0  0  0
  141.7610   70.3960  220.0203 H   0  0  0  0  0  0  0  0  0  0  0  0
  142.3738   70.8662  218.3816 H   0  0  0  0  0  0  0  0  0  0  0  0
  144.0075   69.7501  220.7050 H   0  0  0  0  0  0  0  0  0  0  0  0
  143.6309   68.9262  219.1700 H   0  0  0  0  0  0  0  0  0  0  0  0
  1  2  1  0
  2  3  1  0
  3  4  1  0
  4  5  1  0
  5  6  1  0
  6  7  1  0
  7  8  2  0
  8  9  1  0
  9 10  1  0
 10 11  1  0
 11 12  1  0
 12 13  1  0
 13 14  2  0
 14 15  1  0
 15 16  2  0
 16 17  1  0
 17 18  2  0
  9 19  2  0
 19 20  1  0
 20 21  1  0
 21 22  1  0
 22 23  1  0
 23 24  1  0
 24 25  2  0
 25 26  1  0
 26 27  2  0
 27 28  1  0
 28 29  2  0
 29 30  1  0
 20 31  2  0
  6 32  1  0
 32 33  1  0
 33  3  1  0
 31  7  1  0
 18 13  1  0
 30 21  1  0
 29 24  1  0
  1 34  1  0
  1 35  1  0
  2 36  1  0
  2 37  1  0
  3 38  1  0
  4 39  1  0
  4 40  1  0
  5 41  1  0
  5 42  1  0
 10 43  1  0
 11 44  1  0
 11 45  1  0
 12 46  1  0
 12 47  1  0
 14 48  1  0
 15 49  1  0
 16 50  1  0
 17 51  1  0
 18 52  1  0
 22 53  1  0
 22 54  1  0
 23 55  1  0
 23 56  1  0
 25 57  1  0
 26 58  1  0
 27 59  1  0
 28 60  1  0
 30 61  1  0
 30 62  1  0
 32 63  1  0
 32 64  1  0
 33 65  1  0
 33 66  1  0
M  END
>  <smiles>  (6) 
NCC1CCN(c2nc(NCCc3ccccc3)nc(N3CCc4ccccc4C3)n2)CC1

>  <score_type>  (6) 
oracle

>  <origin>  (6) 
autodockgpu

>  <m_score__min__energy>  (6) 
-10.140000000000001

>  <m_primary>  (6) 
energy

>  <rmsd>  (6) 
4.675588264043133

>  <m_score__min__rmsd>  (6) 
4.675588264043133

>  <meeko>  (6) 
{"free_energy": -10.11, "intermolecular_energy": -12.5, "internal_energy": -0.98, "cluster_size": 16, "cluster_id": 1, "rank_in_cluster": 2}

>  <energy>  (6) 
-10.02

>  <cluster_rmsd>  (6) 
0.87

>  <cluster>  (6) 
1

$$$$

     RDKit          3D

 66 70  0  0  0  0  0  0  0  0999 V2000
  139.2400   67.2280  226.3790 N   0  0  0  0  0  0  0  0  0  0  0  0
  139.9020   68.3250  227.0900 C   0  0  0  0  0  0  0  0  0  0  0  0
  139.7380   69.5580  226.2350 C   0  0  0  0  0  0  0  0  0  0  0  0
  139.1940   69.1510  224.8770 C   0  0  0  0  0  0  0  0  0  0  0  0
  138.8060   70.4240  224.1580 C   0  0  0  0  0  0  0  0  0  0  0  0
  139.9540   71.3040  224.0640 N   0  0  0  0  0  0  0  0  0  0  0  0
  140.3260   71.9080  222.8290 C   0  0  0  0  0  0  0  0  0  0  0  0
  140.7650   71.1780  221.8010 N   0  0  0  0  0  0  0  0  0  0  0  0
  141.1240   71.7480  220.6130 C   0  0  0  0  0  0  0  0  0  0  0  0
  141.5900   70.9410  219.5340 N   0  0  0  0  0  0  0  0  0  0  0  0
  142.2160   71.6020  218.4270 C   0  0  0  0  0  0  0  0  0  0  0  0
  143.7070   71.2680  218.4880 C   0  0  0  0  0  0  0  0  0  0  0  0
  144.3130   72.3700  219.3110 C   0  0  0  0  0  0  0  0  0  0  0  0
  145.4450   72.0330  220.0280 C   0  0  0  0  0  0  0  0  0  0  0  0
  146.0430   73.0200  220.8060 C   0  0  0  0  0  0  0  0  0  0  0  0
  145.5070   74.3020  220.8510 C   0  0  0  0  0  0  0  0  0  0  0  0
  144.3670   74.6000  220.1140 C   0  0  0  0  0  0  0  0  0  0  0  0
  143.7550   73.6330  219.3330 C   0  0  0  0  0  0  0  0  0  0  0  0
  141.0180   73.0990  220.5100 N   0  0  0  0  0  0  0  0  0  0  0  0
  140.5810   73.8590  221.5250 C   0  0  0  0  0  0  0  0  0  0  0  0
  140.4900   75.2700  221.3610 N   0  0  0  0  0  0  0  0  0  0  0  0
  140.9040   75.8100  220.0830 C   0  0  0  0  0  0  0  0  0  0  0  0
  141.9360   76.9020  220.2550 C   0  0  0  0  0  0  0  0  0  0  0  0
  141.3980   77.9200  221.2250 C   0  0  0  0  0  0  0  0  0  0  0  0
  141.8340   79.2280  221.0870 C   0  0  0  0  0  0  0  0  0  0  0  0
  141.3620   80.1900  221.9590 C   0  0  0  0  0  0  0  0  0  0  0  0
  140.4690   79.8340  222.9470 C   0  0  0  0  0  0  0  0  0  0  0  0
  140.0410   78.5100  223.0710 C   0  0  0  0  0  0  0  0  0  0  0  0
  140.5090   77.5240  222.1970 C   0  0  0  0  0  0  0  0  0  0  0  0
  140.0200   76.1510  222.3810 C   0  0  0  0  0  0  0  0  0  0  0  0
  140.2360   73.2410  222.6860 N   0  0  0  0  0  0  0  0  0  0  0  0
  140.7260   71.5630  225.2630 C   0  0  0  0  0  0  0  0  0  0  0  0
  141.0380   70.2810  226.0110 C   0  0  0  0  0  0  0  0  0  0  0  0
  138.2120   67.4290  226.4050 H   0  0  0  0  0  0  0  0  0  0  0  0
  139.4430   66.3050  226.8360 H   0  0  0  0  0  0  0  0  0  0  0  0
  139.4308   68.4792  228.0719 H   0  0  0  0  0  0  0  0  0  0  0  0
  140.9652   68.1008  227.2610 H   0  0  0  0  0  0  0  0  0  0  0  0
  139.0517   70.2329  226.7674 H   0  0  0  0  0  0  0  0  0  0  0  0
  139.9660   68.6145  224.3058 H   0  0  0  0  0  0  0  0  0  0  0  0
  138.3283   68.4810  224.9850 H   0  0  0  0  0  0  0  0  0  0  0  0
  138.4504   70.1783  223.1465 H   0  0  0  0  0  0  0  0  0  0  0  0
  138.0062   70.9290  224.7195 H   0  0  0  0  0  0  0  0  0  0  0  0
  141.4680   69.9050  219.5730 H   0  0  0  0  0  0  0  0  0  0  0  0
  141.7870   71.2412  217.4805 H   0  0  0  0  0  0  0  0  0  0  0  0
  142.0560   72.6891  218.4790 H   0  0  0  0  0  0  0  0  0  0  0  0
  143.8662   70.2920  218.9697 H   0  0  0  0  0  0  0  0  0  0  0  0
  144.1589   71.1999  217.4874 H   0  0  0  0  0  0  0  0  0  0  0  0
  145.8609   71.0156  219.9852 H   0  0  0  0  0  0  0  0  0  0  0  0
  146.9455   72.7842  221.3890 H   0  0  0  0  0  0  0  0  0  0  0  0
  145.9837   75.0780  221.4679 H   0  0  0  0  0  0  0  0  0  0  0  0
  143.9457   75.6154  220.1512 H   0  0  0  0  0  0  0  0  0  0  0  0
  142.8524   73.8642  218.7484 H   0  0  0  0  0  0  0  0  0  0  0  0
  141.3363   75.0012  219.4756 H   0  0  0  0  0  0  0  0  0  0  0  0
  140.0221   76.2414  219.5868 H   0  0  0  0  0  0  0  0  0  0  0  0
  142.8691   76.4720  220.6480 H   0  0  0  0  0  0  0  0  0  0  0  0
  142.1450   77.3788  219.2860 H   0  0  0  0  0  0  0  0  0  0  0  0
  142.5467   79.4969  220.2934 H   0  0  0  0  0  0  0  0  0  0  0  0
  141.6967   81.2337  221.8655 H   0  0  0  0  0  0  0  0  0  0  0  0
  140.0908   80.5977  223.6425 H   0  0  0  0  0  0  0  0  0  0  0  0
  139.3284   78.2404  223.8644 H   0  0  0  0  0  0  0  0  0  0  0  0
  140.3659   75.7796  223.3569 H   0  0  0  0  0  0  0  0  0  0  0  0
  138.9215   76.1738  222.3277 H   0  0  0  0  0  0  0  0  0  0  0  0
  141.6705   72.0514  224.9814 H   0  0  0  0  0  0  0  0  0  0  0  0
  140.1313   72.2116  225.9230 H   0  0  0  0  0  0  0  0  0  0  0  0
  141.7178   69.6546  225.4147 H   0  0  0  0  0  0  0  0  0  0  0  0
  141.5274   70.5028  226.9709 H   0  0  0  0  0  0  0  0  0  0  0  0
  1  2  1  0
  2  3  1  0
  3  4  1  0
  4  5  1  0
  5  6  1  0
  6  7  1  0
  7  8  2  0
  8  9  1  0
  9 10  1  0
 10 11  1  0
 11 12  1  0
 12 13  1  0
 13 14  2  0
 14 15  1  0
 15 16  2  0
 16 17  1  0
 17 18  2  0
  9 19  2  0
 19 20  1  0
 20 21  1  0
 21 22  1  0
 22 23  1  0
 23 24  1  0
 24 25  2  0
 25 26  1  0
 26 27  2  0
 27 28  1  0
 28 29  2  0
 29 30  1  0
 20 31  2  0
  6 32  1  0
 32 33  1  0
 33  3  1  0
 31  7  1  0
 18 13  1  0
 30 21  1  0
 29 24  1  0
  1 34  1  0
  1 35  1  0
  2 36  1  0
  2 37  1  0
  3 38  1  0
  4 39  1  0
  4 40  1  0
  5 41  1  0
  5 42  1  0
 10 43  1  0
 11 44  1  0
 11 45  1  0
 12 46  1  0
 12 47  1  0
 14 48  1  0
 15 49  1  0
 16 50  1  0
 17 51  1  0
 18 52  1  0
 22 53  1  0
 22 54  1  0
 23 55  1  0
 23 56  1  0
 25 57  1  0
 26 58  1  0
 27 59  1  0
 28 60  1  0
 30 61  1  0
 30 62  1  0
 32 63  1  0
 32 64  1  0
 33 65  1  0
 33 66  1  0
M  END
>  <smiles>  (7) 
NCC1CCN(c2nc(NCCc3ccccc3)nc(N3CCc4ccccc4C3)n2)CC1

>  <score_type>  (7) 
oracle

>  <origin>  (7) 
autodockgpu

>  <m_score__min__energy>  (7) 
-10.140000000000001

>  <m_primary>  (7) 
energy

>  <rmsd>  (7) 
4.418671301174213

>  <m_score__min__rmsd>  (7) 
4.418671301174213

>  <meeko>  (7) 
{"free_energy": -8.83, "intermolecular_energy": -11.22, "internal_energy": -1.73, "cluster_size": 15, "cluster_id": 4, "rank_in_cluster": 7}

>  <energy>  (7) 
-10.0

>  <cluster_rmsd>  (7) 
0.89

>  <cluster>  (7) 
1

$$$$

     RDKit          3D

 66 70  0  0  0  0  0  0  0  0999 V2000
  132.9260   73.3300  227.5950 N   0  0  0  0  0  0  0  0  0  0  0  0
  132.1960   72.3200  226.8240 C   0  0  0  0  0  0  0  0  0  0  0  0
  133.1500   71.8040  225.7740 C   0  0  0  0  0  0  0  0  0  0  0  0
  133.8660   70.5790  226.3130 C   0  0  0  0  0  0  0  0  0  0  0  0
  134.6050   69.9530  225.1500 C   0  0  0  0  0  0  0  0  0  0  0  0
  135.5110   70.9230  224.5660 N   0  0  0  0  0  0  0  0  0  0  0  0
  136.8730   70.6010  224.3050 C   0  0  0  0  0  0  0  0  0  0  0  0
  137.4040   69.4420  224.7030 N   0  0  0  0  0  0  0  0  0  0  0  0
  138.7100   69.1240  224.4570 C   0  0  0  0  0  0  0  0  0  0  0  0
  139.2470   67.8790  224.8960 N   0  0  0  0  0  0  0  0  0  0  0  0
  139.5450   67.7330  226.2900 C   0  0  0  0  0  0  0  0  0  0  0  0
  141.0070   68.1390  226.4820 C   0  0  0  0  0  0  0  0  0  0  0  0
  140.9570   69.6010  226.8270 C   0  0  0  0  0  0  0  0  0  0  0  0
  140.3000   69.9200  228.0000 C   0  0  0  0  0  0  0  0  0  0  0  0
  140.2260   71.2610  228.3630 C   0  0  0  0  0  0  0  0  0  0  0  0
  140.8000   72.2400  227.5610 C   0  0  0  0  0  0  0  0  0  0  0  0
  141.4530   71.8770  226.3890 C   0  0  0  0  0  0  0  0  0  0  0  0
  141.5380   70.5480  226.0070 C   0  0  0  0  0  0  0  0  0  0  0  0
  139.4600   70.0380  223.7870 N   0  0  0  0  0  0  0  0  0  0  0  0
  138.9550   71.2110  223.3750 C   0  0  0  0  0  0  0  0  0  0  0  0
  139.7890   72.1300  222.6760 N   0  0  0  0  0  0  0  0  0  0  0  0
  139.1910   73.3870  222.2800 C   0  0  0  0  0  0  0  0  0  0  0  0
  139.3730   73.6410  220.8000 C   0  0  0  0  0  0  0  0  0  0  0  0
  140.8360   73.5050  220.4690 C   0  0  0  0  0  0  0  0  0  0  0  0
  141.3210   74.2450  219.4020 C   0  0  0  0  0  0  0  0  0  0  0  0
  142.6580   74.1460  219.0680 C   0  0  0  0  0  0  0  0  0  0  0  0
  143.4830   73.3170  219.7980 C   0  0  0  0  0  0  0  0  0  0  0  0
  142.9750   72.5790  220.8700 C   0  0  0  0  0  0  0  0  0  0  0  0
  141.6250   72.6670  221.2220 C   0  0  0  0  0  0  0  0  0  0  0  0
  141.1550   71.8650  222.3590 C   0  0  0  0  0  0  0  0  0  0  0  0
  137.6500   71.4760  223.6450 N   0  0  0  0  0  0  0  0  0  0  0  0
  135.0010   72.2410  224.2480 C   0  0  0  0  0  0  0  0  0  0  0  0
  134.1960   72.8180  225.3970 C   0  0  0  0  0  0  0  0  0  0  0  0
  133.7450   72.8410  228.0320 H   0  0  0  0  0  0  0  0  0  0  0  0
  132.3150   73.7510  228.3380 H   0  0  0  0  0  0  0  0  0  0  0  0
  131.8759   71.4987  227.4821 H   0  0  0  0  0  0  0  0  0  0  0  0
  131.2941   72.7491  226.3631 H   0  0  0  0  0  0  0  0  0  0  0  0
  132.5525   71.5710  224.8803 H   0  0  0  0  0  0  0  0  0  0  0  0
  134.5773   70.8722  227.0991 H   0  0  0  0  0  0  0  0  0  0  0  0
  133.1515   69.8680  226.7535 H   0  0  0  0  0  0  0  0  0  0  0  0
  135.1791   69.0851  225.5065 H   0  0  0  0  0  0  0  0  0  0  0  0
  133.8791   69.6294  224.3895 H   0  0  0  0  0  0  0  0  0  0  0  0
  139.4090   67.1140  224.2040 H   0  0  0  0  0  0  0  0  0  0  0  0
  138.8906   68.3860  226.8862 H   0  0  0  0  0  0  0  0  0  0  0  0
  139.3799   66.6965  226.6193 H   0  0  0  0  0  0  0  0  0  0  0  0
  141.4649   67.5633  227.2998 H   0  0  0  0  0  0  0  0  0  0  0  0
  141.6133   67.9444  225.5851 H   0  0  0  0  0  0  0  0  0  0  0  0
  139.8491   69.1373  228.6278 H   0  0  0  0  0  0  0  0  0  0  0  0
  139.7098   71.5482  229.2909 H   0  0  0  0  0  0  0  0  0  0  0  0
  140.7378   73.2988  227.8528 H   0  0  0  0  0  0  0  0  0  0  0  0
  141.9078   72.6542  225.7572 H   0  0  0  0  0  0  0  0  0  0  0  0
  142.0523   70.2563  225.0794 H   0  0  0  0  0  0  0  0  0  0  0  0
  138.1155   73.3599  222.5092 H   0  0  0  0  0  0  0  0  0  0  0  0
  139.6872   74.1971  222.8346 H   0  0  0  0  0  0  0  0  0  0  0  0
  138.7920   72.9064  220.2231 H   0  0  0  0  0  0  0  0  0  0  0  0
  139.0207   74.6513  220.5445 H   0  0  0  0  0  0  0  0  0  0  0  0
  140.6505   74.9022  218.8289 H   0  0  0  0  0  0  0  0  0  0  0  0
  143.0619   74.7252  218.2246 H   0  0  0  0  0  0  0  0  0  0  0  0
  144.5480   73.2361  219.5347 H   0  0  0  0  0  0  0  0  0  0  0  0
  143.6448   71.9213  221.4434 H   0  0  0  0  0  0  0  0  0  0  0  0
  141.2605   70.7991  222.1086 H   0  0  0  0  0  0  0  0  0  0  0  0
  141.7636   72.1317  223.2356 H   0  0  0  0  0  0  0  0  0  0  0  0
  135.8477   72.9097  224.0336 H   0  0  0  0  0  0  0  0  0  0  0  0
  134.3398   72.1533  223.3733 H   0  0  0  0  0  0  0  0  0  0  0  0
  134.8551   73.0140  226.2556 H   0  0  0  0  0  0  0  0  0  0  0  0
  133.7251   73.7669  225.1006 H   0  0  0  0  0  0  0  0  0  0  0  0
  1  2  1  0
  2  3  1  0
  3  4  1  0
  4  5  1  0
  5  6  1  0
  6  7  1  0
  7  8  2  0
  8  9  1  0
  9 10  1  0
 10 11  1  0
 11 12  1  0
 12 13  1  0
 13 14  2  0
 14 15  1  0
 15 16  2  0
 16 17  1  0
 17 18  2  0
  9 19  2  0
 19 20  1  0
 20 21  1  0
 21 22  1  0
 22 23  1  0
 23 24  1  0
 24 25  2  0
 25 26  1  0
 26 27  2  0
 27 28  1  0
 28 29  2  0
 29 30  1  0
 20 31  2  0
  6 32  1  0
 32 33  1  0
 33  3  1  0
 31  7  1  0
 18 13  1  0
 30 21  1  0
 29 24  1  0
  1 34  1  0
  1 35  1  0
  2 36  1  0
  2 37  1  0
  3 38  1  0
  4 39  1  0
  4 40  1  0
  5 41  1  0
  5 42  1  0
 10 43  1  0
 11 44  1  0
 11 45  1  0
 12 46  1  0
 12 47  1  0
 14 48  1  0
 15 49  1  0
 16 50  1  0
 17 51  1  0
 18 52  1  0
 22 53  1  0
 22 54  1  0
 23 55  1  0
 23 56  1  0
 25 57  1  0
 26 58  1  0
 27 59  1  0
 28 60  1  0
 30 61  1  0
 30 62  1  0
 32 63  1  0
 32 64  1  0
 33 65  1  0
 33 66  1  0
M  END
>  <smiles>  (8) 
NCC1CCN(c2nc(NCCc3ccccc3)nc(N3CCc4ccccc4C3)n2)CC1

>  <score_type>  (8) 
oracle

>  <origin>  (8) 
autodockgpu

>  <m_score__min__energy>  (8) 
-10.140000000000001

>  <m_primary>  (8) 
energy

>  <rmsd>  (8) 
6.639653704625264

>  <m_score__min__rmsd>  (8) 
6.639653704625264

>  <meeko>  (8) 
{"free_energy": -8.59, "intermolecular_energy": -10.98, "internal_energy": -1.8, "cluster_size": 5, "cluster_id": 5, "rank_in_cluster": 5}

>  <energy>  (8) 
-9.99

>  <cluster_rmsd>  (8) 
1.01

>  <cluster>  (8) 
1

$$$$

     RDKit          3D

 66 70  0  0  0  0  0  0  0  0999 V2000
  146.2210   69.6120  218.2440 N   0  0  0  0  0  0  0  0  0  0  0  0
  146.3160   70.5780  219.3430 C   0  0  0  0  0  0  0  0  0  0  0  0
  145.0600   71.4140  219.2940 C   0  0  0  0  0  0  0  0  0  0  0  0
  145.1500   72.5040  220.3460 C   0  0  0  0  0  0  0  0  0  0  0  0
  144.0050   73.4610  220.0880 C   0  0  0  0  0  0  0  0  0  0  0  0
  142.7470   72.7410  220.1280 N   0  0  0  0  0  0  0  0  0  0  0  0
  141.6470   73.2150  220.8990 C   0  0  0  0  0  0  0  0  0  0  0  0
  140.8280   72.3730  221.5330 N   0  0  0  0  0  0  0  0  0  0  0  0
  139.7690   72.8180  222.2740 C   0  0  0  0  0  0  0  0  0  0  0  0
  138.9110   71.8940  222.9390 N   0  0  0  0  0  0  0  0  0  0  0  0
  139.5220   70.8540  223.7140 C   0  0  0  0  0  0  0  0  0  0  0  0
  140.7160   71.4770  224.4390 C   0  0  0  0  0  0  0  0  0  0  0  0
  140.7190   70.8300  225.7970 C   0  0  0  0  0  0  0  0  0  0  0  0
  140.9770   71.6700  226.8630 C   0  0  0  0  0  0  0  0  0  0  0  0
  140.9910   71.1180  228.1400 C   0  0  0  0  0  0  0  0  0  0  0  0
  140.7520   69.7610  228.3240 C   0  0  0  0  0  0  0  0  0  0  0  0
  140.4960   68.9500  227.2240 C   0  0  0  0  0  0  0  0  0  0  0  0
  140.4780   69.4780  225.9430 C   0  0  0  0  0  0  0  0  0  0  0  0
  139.5770   74.1620  222.3450 N   0  0  0  0  0  0  0  0  0  0  0  0
  140.3830   75.0320  221.7190 C   0  0  0  0  0  0  0  0  0  0  0  0
  140.1330   76.4290  221.8300 N   0  0  0  0  0  0  0  0  0  0  0  0
  141.2410   77.3180  221.5520 C   0  0  0  0  0  0  0  0  0  0  0  0
  141.4700   78.2850  222.6930 C   0  0  0  0  0  0  0  0  0  0  0  0
  140.1690   78.9750  223.0030 C   0  0  0  0  0  0  0  0  0  0  0  0
  140.2340   80.2550  223.5320 C   0  0  0  0  0  0  0  0  0  0  0  0
  139.0610   80.9210  223.8290 C   0  0  0  0  0  0  0  0  0  0  0  0
  137.8510   80.3040  223.5940 C   0  0  0  0  0  0  0  0  0  0  0  0
  137.8050   79.0140  223.0600 C   0  0  0  0  0  0  0  0  0  0  0  0
  138.9820   78.3260  222.7540 C   0  0  0  0  0  0  0  0  0  0  0  0
  138.8650   76.9730  222.1960 C   0  0  0  0  0  0  0  0  0  0  0  0
  141.4210   74.5360  220.9950 N   0  0  0  0  0  0  0  0  0  0  0  0
  142.6250   71.5170  219.3600 C   0  0  0  0  0  0  0  0  0  0  0  0
  143.8210   70.6070  219.5720 C   0  0  0  0  0  0  0  0  0  0  0  0
  147.1940   69.2670  218.0620 H   0  0  0  0  0  0  0  0  0  0  0  0
  145.8260   70.0610  217.3810 H   0  0  0  0  0  0  0  0  0  0  0  0
  146.3836   70.0512  220.3063 H   0  0  0  0  0  0  0  0  0  0  0  0
  147.2138   71.2056  219.2423 H   0  0  0  0  0  0  0  0  0  0  0  0
  144.9843   71.8290  218.2781 H   0  0  0  0  0  0  0  0  0  0  0  0
  145.0587   72.0675  221.3515 H   0  0  0  0  0  0  0  0  0  0  0  0
  146.1176   73.0244  220.2915 H   0  0  0  0  0  0  0  0  0  0  0  0
  144.0025   74.2445  220.8601 H   0  0  0  0  0  0  0  0  0  0  0  0
  144.1305   73.9198  219.0961 H   0  0  0  0  0  0  0  0  0  0  0  0
  137.8760   71.9930  222.8490 H   0  0  0  0  0  0  0  0  0  0  0  0
  138.8027   70.4555  224.4447 H   0  0  0  0  0  0  0  0  0  0  0  0
  139.8449   70.0231  223.0695 H   0  0  0  0  0  0  0  0  0  0  0  0
  141.6518   71.2589  223.9035 H   0  0  0  0  0  0  0  0  0  0  0  0
  140.6398   72.5726  224.5004 H   0  0  0  0  0  0  0  0  0  0  0  0
  141.1656   72.7424  226.7069 H   0  0  0  0  0  0  0  0  0  0  0  0
  141.1926   71.7599  229.0102 H   0  0  0  0  0  0  0  0  0  0  0  0
  140.7654   69.3304  229.3361 H   0  0  0  0  0  0  0  0  0  0  0  0
  140.3056   67.8768  227.3724 H   0  0  0  0  0  0  0  0  0  0  0  0
  140.2780   68.8401  225.0695 H   0  0  0  0  0  0  0  0  0  0  0  0
  142.1515   76.7194  221.4014 H   0  0  0  0  0  0  0  0  0  0  0  0
  141.0024   77.8979  220.6482 H   0  0  0  0  0  0  0  0  0  0  0  0
  141.8194   77.7362  223.5800 H   0  0  0  0  0  0  0  0  0  0  0  0
  142.2320   79.0266  222.4112 H   0  0  0  0  0  0  0  0  0  0  0  0
  141.2075   80.7341  223.7129 H   0  0  0  0  0  0  0  0  0  0  0  0
  139.0922   81.9367  224.2501 H   0  0  0  0  0  0  0  0  0  0  0  0
  136.9146   80.8314  223.8287 H   0  0  0  0  0  0  0  0  0  0  0  0
  136.8317   78.5347  222.8785 H   0  0  0  0  0  0  0  0  0  0  0  0
  138.4026   76.3180  222.9491 H   0  0  0  0  0  0  0  0  0  0  0  0
  138.2490   77.0349  221.2867 H   0  0  0  0  0  0  0  0  0  0  0  0
  141.7130   70.9877  219.6731 H   0  0  0  0  0  0  0  0  0  0  0  0
  142.5769   71.7816  218.2934 H   0  0  0  0  0  0  0  0  0  0  0  0
  143.8357   70.2421  220.6096 H   0  0  0  0  0  0  0  0  0  0  0  0
  143.7681   69.7362  218.9020 H   0  0  0  0  0  0  0  0  0  0  0  0
  1  2  1  0
  2  3  1  0
  3  4  1  0
  4  5  1  0
  5  6  1  0
  6  7  1  0
  7  8  2  0
  8  9  1  0
  9 10  1  0
 10 11  1  0
 11 12  1  0
 12 13  1  0
 13 14  2  0
 14 15  1  0
 15 16  2  0
 16 17  1  0
 17 18  2  0
  9 19  2  0
 19 20  1  0
 20 21  1  0
 21 22  1  0
 22 23  1  0
 23 24  1  0
 24 25  2  0
 25 26  1  0
 26 27  2  0
 27 28  1  0
 28 29  2  0
 29 30  1  0
 20 31  2  0
  6 32  1  0
 32 33  1  0
 33  3  1  0
 31  7  1  0
 18 13  1  0
 30 21  1  0
 29 24  1  0
  1 34  1  0
  1 35  1  0
  2 36  1  0
  2 37  1  0
  3 38  1  0
  4 39  1  0
  4 40  1  0
  5 41  1  0
  5 42  1  0
 10 43  1  0
 11 44  1  0
 11 45  1  0
 12 46  1  0
 12 47  1  0
 14 48  1  0
 15 49  1  0
 16 50  1  0
 17 51  1  0
 18 52  1  0
 22 53  1  0
 22 54  1  0
 23 55  1  0
 23 56  1  0
 25 57  1  0
 26 58  1  0
 27 59  1  0
 28 60  1  0
 30 61  1  0
 30 62  1  0
 32 63  1  0
 32 64  1  0
 33 65  1  0
 33 66  1  0
M  END
>  <smiles>  (9) 
NCC1CCN(c2nc(NCCc3ccccc3)nc(N3CCc4ccccc4C3)n2)CC1

>  <score_type>  (9) 
oracle

>  <origin>  (9) 
autodockgpu

>  <m_score__min__energy>  (9) 
-10.140000000000001

>  <m_primary>  (9) 
energy

>  <rmsd>  (9) 
5.587078236691739

>  <m_score__min__rmsd>  (9) 
5.587078236691739

>  <meeko>  (9) 
{"free_energy": -9.26, "intermolecular_energy": -11.64, "internal_energy": -1.1, "cluster_size": 16, "cluster_id": 1, "rank_in_cluster": 16}

>  <energy>  (9) 
-9.95

>  <cluster_rmsd>  (9) 
1.03

>  <cluster>  (9) 
1

$$$$

     RDKit          3D

 66 70  0  0  0  0  0  0  0  0999 V2000
  146.6720   69.6470  217.5740 N   0  0  0  0  0  0  0  0  0  0  0  0
  146.2980   69.8400  218.9770 C   0  0  0  0  0  0  0  0  0  0  0  0
  145.0690   70.7160  218.9810 C   0  0  0  0  0  0  0  0  0  0  0  0
  145.3440   71.9550  219.8130 C   0  0  0  0  0  0  0  0  0  0  0  0
  144.1950   72.9110  219.5760 C   0  0  0  0  0  0  0  0  0  0  0  0
  142.9430   72.2670  219.9220 N   0  0  0  0  0  0  0  0  0  0  0  0
  141.9870   72.9080  220.7600 C   0  0  0  0  0  0  0  0  0  0  0  0
  141.1840   72.2070  221.5630 N   0  0  0  0  0  0  0  0  0  0  0  0
  140.2640   72.8140  222.3710 C   0  0  0  0  0  0  0  0  0  0  0  0
  139.4200   72.0380  223.2180 N   0  0  0  0  0  0  0  0  0  0  0  0
  139.9690   70.8490  223.8000 C   0  0  0  0  0  0  0  0  0  0  0  0
  138.9140   70.2860  224.7540 C   0  0  0  0  0  0  0  0  0  0  0  0
  139.6680   69.9740  226.0170 C   0  0  0  0  0  0  0  0  0  0  0  0
  140.3270   71.0370  226.6030 C   0  0  0  0  0  0  0  0  0  0  0  0
  141.0400   70.7990  227.7740 C   0  0  0  0  0  0  0  0  0  0  0  0
  141.0790   69.5240  228.3270 C   0  0  0  0  0  0  0  0  0  0  0  0
  140.4020   68.4810  227.7060 C   0  0  0  0  0  0  0  0  0  0  0  0
  139.6870   68.6960  226.5380 C   0  0  0  0  0  0  0  0  0  0  0  0
  140.1910   74.1710  222.3280 N   0  0  0  0  0  0  0  0  0  0  0  0
  140.9840   74.9020  221.5300 C   0  0  0  0  0  0  0  0  0  0  0  0
  140.8650   76.3200  221.5270 N   0  0  0  0  0  0  0  0  0  0  0  0
  140.8320   76.9730  220.2360 C   0  0  0  0  0  0  0  0  0  0  0  0
  141.8780   78.0620  220.1430 C   0  0  0  0  0  0  0  0  0  0  0  0
  141.7130   78.9850  221.3220 C   0  0  0  0  0  0  0  0  0  0  0  0
  142.0970   80.3070  221.1580 C   0  0  0  0  0  0  0  0  0  0  0  0
  141.9600   81.1830  222.2170 C   0  0  0  0  0  0  0  0  0  0  0  0
  141.4460   80.7300  223.4130 C   0  0  0  0  0  0  0  0  0  0  0  0
  141.0660   79.3940  223.5590 C   0  0  0  0  0  0  0  0  0  0  0  0
  141.1970   78.4940  222.4990 C   0  0  0  0  0  0  0  0  0  0  0  0
  140.7780   77.1030  222.7180 C   0  0  0  0  0  0  0  0  0  0  0  0
  141.8830   74.2480  220.7480 N   0  0  0  0  0  0  0  0  0  0  0  0
  142.6760   70.9440  219.3930 C   0  0  0  0  0  0  0  0  0  0  0  0
  143.8690   70.0240  219.5700 C   0  0  0  0  0  0  0  0  0  0  0  0
  145.7990   69.3710  217.0640 H   0  0  0  0  0  0  0  0  0  0  0  0
  147.4020   68.8980  217.4780 H   0  0  0  0  0  0  0  0  0  0  0  0
  146.0744   68.8707  219.4466 H   0  0  0  0  0  0  0  0  0  0  0  0
  147.1174   70.3049  219.5448 H   0  0  0  0  0  0  0  0  0  0  0  0
  144.8472   70.9662  217.9331 H   0  0  0  0  0  0  0  0  0  0  0  0
  145.4007   71.6893  220.8789 H   0  0  0  0  0  0  0  0  0  0  0  0
  146.3021   72.4144  219.5283 H   0  0  0  0  0  0  0  0  0  0  0  0
  144.3301   73.8066  220.2002 H   0  0  0  0  0  0  0  0  0  0  0  0
  144.1747   73.1995  218.5147 H   0  0  0  0  0  0  0  0  0  0  0  0
  138.4380   72.3470  223.3930 H   0  0  0  0  0  0  0  0  0  0  0  0
  140.1967   70.1145  223.0135 H   0  0  0  0  0  0  0  0  0  0  0  0
  140.9030   71.0714  224.3368 H   0  0  0  0  0  0  0  0  0  0  0  0
  138.1276   71.0309  224.9458 H   0  0  0  0  0  0  0  0  0  0  0  0
  138.4102   69.3998  224.3407 H   0  0  0  0  0  0  0  0  0  0  0  0
  140.2893   72.0419  226.1572 H   0  0  0  0  0  0  0  0  0  0  0  0
  141.5760   71.6246  228.2651 H   0  0  0  0  0  0  0  0  0  0  0  0
  141.6438   69.3413  229.2530 H   0  0  0  0  0  0  0  0  0  0  0  0
  140.4339   67.4735  228.1463 H   0  0  0  0  0  0  0  0  0  0  0  0
  139.1513   67.8734  226.0417 H   0  0  0  0  0  0  0  0  0  0  0  0
  141.0223   76.2256  219.4516 H   0  0  0  0  0  0  0  0  0  0  0  0
  139.8410   77.4319  220.1047 H   0  0  0  0  0  0  0  0  0  0  0  0
  142.8825   77.6141  220.1601 H   0  0  0  0  0  0  0  0  0  0  0  0
  141.7555   78.6232  219.2049 H   0  0  0  0  0  0  0  0  0  0  0  0
  142.5054   80.6536  220.1972 H   0  0  0  0  0  0  0  0  0  0  0  0
  142.2593   82.2357  222.1066 H   0  0  0  0  0  0  0  0  0  0  0  0
  141.3343   81.4253  224.2580 H   0  0  0  0  0  0  0  0  0  0  0  0
  140.6588   79.0465  224.5200 H   0  0  0  0  0  0  0  0  0  0  0  0
  141.4262   76.6543  223.4852 H   0  0  0  0  0  0  0  0  0  0  0  0
  139.7260   77.1136  223.0393 H   0  0  0  0  0  0  0  0  0  0  0  0
  141.8121   70.5151  219.9219 H   0  0  0  0  0  0  0  0  0  0  0  0
  142.4688   71.0377  218.3168 H   0  0  0  0  0  0  0  0  0  0  0  0
  144.0363   69.8283  220.6395 H   0  0  0  0  0  0  0  0  0  0  0  0
  143.6926   69.0617  219.0671 H   0  0  0  0  0  0  0  0  0  0  0  0
  1  2  1  0
  2  3  1  0
  3  4  1  0
  4  5  1  0
  5  6  1  0
  6  7  1  0
  7  8  2  0
  8  9  1  0
  9 10  1  0
 10 11  1  0
 11 12  1  0
 12 13  1  0
 13 14  2  0
 14 15  1  0
 15 16  2  0
 16 17  1  0
 17 18  2  0
  9 19  2  0
 19 20  1  0
 20 21  1  0
 21 22  1  0
 22 23  1  0
 23 24  1  0
 24 25  2  0
 25 26  1  0
 26 27  2  0
 27 28  1  0
 28 29  2  0
 29 30  1  0
 20 31  2  0
  6 32  1  0
 32 33  1  0
 33  3  1  0
 31  7  1  0
 18 13  1  0
 30 21  1  0
 29 24  1  0
  1 34  1  0
  1 35  1  0
  2 36  1  0
  2 37  1  0
  3 38  1  0
  4 39  1  0
  4 40  1  0
  5 41  1  0
  5 42  1  0
 10 43  1  0
 11 44  1  0
 11 45  1  0
 12 46  1  0
 12 47  1  0
 14 48  1  0
 15 49  1  0
 16 50  1  0
 17 51  1  0
 18 52  1  0
 22 53  1  0
 22 54  1  0
 23 55  1  0
 23 56  1  0
 25 57  1  0
 26 58  1  0
 27 59  1  0
 28 60  1  0
 30 61  1  0
 30 62  1  0
 32 63  1  0
 32 64  1  0
 33 65  1  0
 33 66  1  0
M  END
>  <smiles>  (10) 
NCC1CCN(c2nc(NCCc3ccccc3)nc(N3CCc4ccccc4C3)n2)CC1

>  <score_type>  (10) 
oracle

>  <origin>  (10) 
autodockgpu

>  <m_score__min__energy>  (10) 
-10.140000000000001

>  <m_primary>  (10) 
energy

>  <rmsd>  (10) 
4.676572111633357

>  <m_score__min__rmsd>  (10) 
4.676572111633357

>  <meeko>  (10) 
{"free_energy": -9.9, "intermolecular_energy": -12.28, "internal_energy": -0.95, "cluster_size": 16, "cluster_id": 1, "rank_in_cluster": 10}

>  <energy>  (10) 
-9.9

>  <cluster_rmsd>  (10) 
0.93

>  <cluster>  (10) 
1

$$$$

     RDKit          3D

 66 70  0  0  0  0  0  0  0  0999 V2000
  142.9760   79.5120  222.5810 N   0  0  0  0  0  0  0  0  0  0  0  0
  141.7710   79.8950  221.8400 C   0  0  0  0  0  0  0  0  0  0  0  0
  141.0760   78.6130  221.4510 C   0  0  0  0  0  0  0  0  0  0  0  0
  140.6630   77.8710  222.7090 C   0  0  0  0  0  0  0  0  0  0  0  0
  139.7540   76.7410  222.2760 C   0  0  0  0  0  0  0  0  0  0  0  0
  140.4450   75.8930  221.3250 N   0  0  0  0  0  0  0  0  0  0  0  0
  140.4700   74.4780  221.4750 C   0  0  0  0  0  0  0  0  0  0  0  0
  139.6800   73.8570  222.3540 N   0  0  0  0  0  0  0  0  0  0  0  0
  139.6970   72.4980  222.5040 C   0  0  0  0  0  0  0  0  0  0  0  0
  138.8420   71.8640  223.4530 N   0  0  0  0  0  0  0  0  0  0  0  0
  139.2870   70.6320  224.0350 C   0  0  0  0  0  0  0  0  0  0  0  0
  140.6780   70.8870  224.6170 C   0  0  0  0  0  0  0  0  0  0  0  0
  140.6550   70.2250  225.9670 C   0  0  0  0  0  0  0  0  0  0  0  0
  140.5670   68.8460  225.9600 C   0  0  0  0  0  0  0  0  0  0  0  0
  140.5420   68.1870  227.1850 C   0  0  0  0  0  0  0  0  0  0  0  0
  140.6040   68.9070  228.3720 C   0  0  0  0  0  0  0  0  0  0  0  0
  140.6930   70.2930  228.3360 C   0  0  0  0  0  0  0  0  0  0  0  0
  140.7180   70.9710  227.1270 C   0  0  0  0  0  0  0  0  0  0  0  0
  140.5550   71.7930  221.7210 N   0  0  0  0  0  0  0  0  0  0  0  0
  141.3610   72.3890  220.8300 C   0  0  0  0  0  0  0  0  0  0  0  0
  142.2390   71.5980  220.0360 N   0  0  0  0  0  0  0  0  0  0  0  0
  141.6470   70.5090  219.2890 C   0  0  0  0  0  0  0  0  0  0  0  0
  142.3470   69.1990  219.5790 C   0  0  0  0  0  0  0  0  0  0  0  0
  143.8240   69.3880  219.3560 C   0  0  0  0  0  0  0  0  0  0  0  0
  144.5600   68.2780  218.9700 C   0  0  0  0  0  0  0  0  0  0  0  0
  145.9180   68.4120  218.7560 C   0  0  0  0  0  0  0  0  0  0  0  0
  146.5160   69.6420  218.9300 C   0  0  0  0  0  0  0  0  0  0  0  0
  145.7580   70.7490  219.3210 C   0  0  0  0  0  0  0  0  0  0  0  0
  144.3830   70.6310  219.5410 C   0  0  0  0  0  0  0  0  0  0  0  0
  143.6450   71.8330  219.9500 C   0  0  0  0  0  0  0  0  0  0  0  0
  141.3030   73.7420  220.7200 N   0  0  0  0  0  0  0  0  0  0  0  0
  141.1180   76.5190  220.2030 C   0  0  0  0  0  0  0  0  0  0  0  0
  141.9610   77.6990  220.6480 C   0  0  0  0  0  0  0  0  0  0  0  0
  143.7930   79.8760  222.0350 H   0  0  0  0  0  0  0  0  0  0  0  0
  143.0410   78.4690  222.6830 H   0  0  0  0  0  0  0  0  0  0  0  0
  141.1128   80.5053  222.4758 H   0  0  0  0  0  0  0  0  0  0  0  0
  142.0254   80.4926  220.9522 H   0  0  0  0  0  0  0  0  0  0  0  0
  140.2085   78.8889  220.8335 H   0  0  0  0  0  0  0  0  0  0  0  0
  141.5505   77.4681  223.2188 H   0  0  0  0  0  0  0  0  0  0  0  0
  140.1477   78.5433  223.4108 H   0  0  0  0  0  0  0  0  0  0  0  0
  139.4671   76.1456  223.1553 H   0  0  0  0  0  0  0  0  0  0  0  0
  138.8537   77.1597  221.8026 H   0  0  0  0  0  0  0  0  0  0  0  0
  137.9280   72.3040  223.6980 H   0  0  0  0  0  0  0  0  0  0  0  0
  138.5959   70.3197  224.8318 H   0  0  0  0  0  0  0  0  0  0  0  0
  139.3184   69.8314  223.2813 H   0  0  0  0  0  0  0  0  0  0  0  0
  141.4536   70.4389  223.9785 H   0  0  0  0  0  0  0  0  0  0  0  0
  140.9105   71.9601  224.6839 H   0  0  0  0  0  0  0  0  0  0  0  0
  140.5182   68.2862  225.0144 H   0  0  0  0  0  0  0  0  0  0  0  0
  140.4728   67.0896  227.2142 H   0  0  0  0  0  0  0  0  0  0  0  0
  140.5827   68.3808  229.3377 H   0  0  0  0  0  0  0  0  0  0  0  0
  140.7442   70.8590  229.2778 H   0  0  0  0  0  0  0  0  0  0  0  0
  140.7859   72.0684  227.0930 H   0  0  0  0  0  0  0  0  0  0  0  0
  140.5867   70.4181  219.5676 H   0  0  0  0  0  0  0  0  0  0  0  0
  141.7500   70.7276  218.2159 H   0  0  0  0  0  0  0  0  0  0  0  0
  142.1640   68.9034  220.6226 H   0  0  0  0  0  0  0  0  0  0  0  0
  141.9630   68.4109  218.9146 H   0  0  0  0  0  0  0  0  0  0  0  0
  144.0686   67.3030  218.8359 H   0  0  0  0  0  0  0  0  0  0  0  0
  146.5184   67.5430  218.4488 H   0  0  0  0  0  0  0  0  0  0  0  0
  147.5971   69.7528  218.7599 H   0  0  0  0  0  0  0  0  0  0  0  0
  146.2490   71.7239  219.4571 H   0  0  0  0  0  0  0  0  0  0  0  0
  144.0114   72.1557  220.9357 H   0  0  0  0  0  0  0  0  0  0  0  0
  143.8124   72.6084  219.1879 H   0  0  0  0  0  0  0  0  0  0  0  0
  141.7694   75.7772  219.7178 H   0  0  0  0  0  0  0  0  0  0  0  0
  140.3530   76.8860  219.5029 H   0  0  0  0  0  0  0  0  0  0  0  0
  142.7993   77.3485  221.2680 H   0  0  0  0  0  0  0  0  0  0  0  0
  142.3746   78.2286  219.7771 H   0  0  0  0  0  0  0  0  0  0  0  0
  1  2  1  0
  2  3  1  0
  3  4  1  0
  4  5  1  0
  5  6  1  0
  6  7  1  0
  7  8  2  0
  8  9  1  0
  9 10  1  0
 10 11  1  0
 11 12  1  0
 12 13  1  0
 13 14  2  0
 14 15  1  0
 15 16  2  0
 16 17  1  0
 17 18  2  0
  9 19  2  0
 19 20  1  0
 20 21  1  0
 21 22  1  0
 22 23  1  0
 23 24  1  0
 24 25  2  0
 25 26  1  0
 26 27  2  0
 27 28  1  0
 28 29  2  0
 29 30  1  0
 20 31  2  0
  6 32  1  0
 32 33  1  0
 33  3  1  0
 31  7  1  0
 18 13  1  0
 30 21  1  0
 29 24  1  0
  1 34  1  0
  1 35  1  0
  2 36  1  0
  2 37  1  0
  3 38  1  0
  4 39  1  0
  4 40  1  0
  5 41  1  0
  5 42  1  0
 10 43  1  0
 11 44  1  0
 11 45  1  0
 12 46  1  0
 12 47  1  0
 14 48  1  0
 15 49  1  0
 16 50  1  0
 17 51  1  0
 18 52  1  0
 22 53  1  0
 22 54  1  0
 23 55  1  0
 23 56  1  0
 25 57  1  0
 26 58  1  0
 27 59  1  0
 28 60  1  0
 30 61  1  0
 30 62  1  0
 32 63  1  0
 32 64  1  0
 33 65  1  0
 33 66  1  0
M  END
>  <smiles>  (11) 
NCC1CCN(c2nc(NCCc3ccccc3)nc(N3CCc4ccccc4C3)n2)CC1

>  <score_type>  (11) 
oracle

>  <origin>  (11) 
autodockgpu

>  <m_score__min__energy>  (11) 
-10.140000000000001

>  <m_primary>  (11) 
energy

>  <rmsd>  (11) 
9.835488508762166

>  <m_score__min__rmsd>  (11) 
9.835488508762166

>  <meeko>  (11) 
{"free_energy": -9.62, "intermolecular_energy": -12.0, "internal_energy": -1.07, "cluster_size": 7, "cluster_id": 3, "rank_in_cluster": 1}

>  <energy>  (11) 
-9.85

>  <cluster_rmsd>  (11) 
0.57

>  <cluster>  (11) 
1

$$$$

     RDKit          3D

 66 70  0  0  0  0  0  0  0  0999 V2000
  145.7570   68.5400  219.6980 N   0  0  0  0  0  0  0  0  0  0  0  0
  146.2100   69.7550  219.0160 C   0  0  0  0  0  0  0  0  0  0  0  0
  145.0390   70.7080  219.0070 C   0  0  0  0  0  0  0  0  0  0  0  0
  145.3400   71.8730  219.9320 C   0  0  0  0  0  0  0  0  0  0  0  0
  144.2690   72.9150  219.6930 C   0  0  0  0  0  0  0  0  0  0  0  0
  142.9610   72.3350  219.9250 N   0  0  0  0  0  0  0  0  0  0  0  0
  141.9970   72.9850  220.7480 C   0  0  0  0  0  0  0  0  0  0  0  0
  141.1610   72.2900  221.5230 N   0  0  0  0  0  0  0  0  0  0  0  0
  140.2330   72.9060  222.3160 C   0  0  0  0  0  0  0  0  0  0  0  0
  139.3540   72.1360  223.1320 N   0  0  0  0  0  0  0  0  0  0  0  0
  139.8880   70.9740  223.7780 C   0  0  0  0  0  0  0  0  0  0  0  0
  140.7030   71.4610  224.9780 C   0  0  0  0  0  0  0  0  0  0  0  0
  140.5500   70.3790  226.0100 C   0  0  0  0  0  0  0  0  0  0  0  0
  140.6860   70.7790  227.3250 C   0  0  0  0  0  0  0  0  0  0  0  0
  140.5540   69.8130  228.3190 C   0  0  0  0  0  0  0  0  0  0  0  0
  140.2920   68.4900  227.9830 C   0  0  0  0  0  0  0  0  0  0  0  0
  140.1620   68.1290  226.6470 C   0  0  0  0  0  0  0  0  0  0  0  0
  140.2910   69.0740  225.6410 C   0  0  0  0  0  0  0  0  0  0  0  0
  140.1890   74.2640  222.2880 N   0  0  0  0  0  0  0  0  0  0  0  0
  141.0160   74.9880  221.5200 C   0  0  0  0  0  0  0  0  0  0  0  0
  140.9250   76.4090  221.5320 N   0  0  0  0  0  0  0  0  0  0  0  0
  140.7780   77.0680  220.2520 C   0  0  0  0  0  0  0  0  0  0  0  0
  141.8320   78.1370  220.0590 C   0  0  0  0  0  0  0  0  0  0  0  0
  141.8020   79.0570  221.2500 C   0  0  0  0  0  0  0  0  0  0  0  0
  142.1930   80.3720  221.0530 C   0  0  0  0  0  0  0  0  0  0  0  0
  142.1790   81.2470  222.1220 C   0  0  0  0  0  0  0  0  0  0  0  0
  141.7770   80.7990  223.3620 C   0  0  0  0  0  0  0  0  0  0  0  0
  141.3860   79.4700  223.5420 C   0  0  0  0  0  0  0  0  0  0  0  0
  141.3940   78.5710  222.4710 C   0  0  0  0  0  0  0  0  0  0  0  0
  140.9720   77.1890  222.7270 C   0  0  0  0  0  0  0  0  0  0  0  0
  141.9210   74.3260  220.7500 N   0  0  0  0  0  0  0  0  0  0  0  0
  142.6450   71.0670  219.2970 C   0  0  0  0  0  0  0  0  0  0  0  0
  143.7660   70.0610  219.4810 C   0  0  0  0  0  0  0  0  0  0  0  0
  146.6200   68.0230  219.9960 H   0  0  0  0  0  0  0  0  0  0  0  0
  145.1770   67.9420  219.0590 H   0  0  0  0  0  0  0  0  0  0  0  0
  147.0575   70.2005  219.5576 H   0  0  0  0  0  0  0  0  0  0  0  0
  146.5478   69.5327  217.9930 H   0  0  0  0  0  0  0  0  0  0  0  0
  144.8961   71.0362  217.9669 H   0  0  0  0  0  0  0  0  0  0  0  0
  145.3156   71.5395  220.9800 H   0  0  0  0  0  0  0  0  0  0  0  0
  146.3403   72.2848  219.7324 H   0  0  0  0  0  0  0  0  0  0  0  0
  144.4213   73.7599  220.3807 H   0  0  0  0  0  0  0  0  0  0  0  0
  144.3310   73.2684  218.6532 H   0  0  0  0  0  0  0  0  0  0  0  0
  138.3580   72.4310  223.2390 H   0  0  0  0  0  0  0  0  0  0  0  0
  139.0700   70.3214  224.1172 H   0  0  0  0  0  0  0  0  0  0  0  0
  140.5176   70.3957  223.0858 H   0  0  0  0  0  0  0  0  0  0  0  0
  141.7605   71.5873  224.7027 H   0  0  0  0  0  0  0  0  0  0  0  0
  140.3570   72.4381  225.3461 H   0  0  0  0  0  0  0  0  0  0  0  0
  140.8924   71.8291  227.5793 H   0  0  0  0  0  0  0  0  0  0  0  0
  140.6576   70.0985  229.3762 H   0  0  0  0  0  0  0  0  0  0  0  0
  140.1878   67.7308  228.7721 H   0  0  0  0  0  0  0  0  0  0  0  0
  139.9543   67.0811  226.3849 H   0  0  0  0  0  0  0  0  0  0  0  0
  140.1902   68.7930  224.5823 H   0  0  0  0  0  0  0  0  0  0  0  0
  140.8751   76.3204  219.4509 H   0  0  0  0  0  0  0  0  0  0  0  0
  139.7882   77.5468  220.2199 H   0  0  0  0  0  0  0  0  0  0  0  0
  142.8242   77.6693  219.9762 H   0  0  0  0  0  0  0  0  0  0  0  0
  141.6294   78.7046  219.1388 H   0  0  0  0  0  0  0  0  0  0  0  0
  142.5107   80.7149  220.0573 H   0  0  0  0  0  0  0  0  0  0  0  0
  142.4866   82.2941  221.9845 H   0  0  0  0  0  0  0  0  0  0  0  0
  141.7640   81.4927  224.2156 H   0  0  0  0  0  0  0  0  0  0  0  0
  141.0682   79.1268  224.5376 H   0  0  0  0  0  0  0  0  0  0  0  0
  141.6841   76.7248  223.4252 H   0  0  0  0  0  0  0  0  0  0  0  0
  139.9573   77.2189  223.1507 H   0  0  0  0  0  0  0  0  0  0  0  0
  141.7258   70.6643  219.7473 H   0  0  0  0  0  0  0  0  0  0  0  0
  142.5096   71.2398  218.2191 H   0  0  0  0  0  0  0  0  0  0  0  0
  143.8560   69.7895  220.5432 H   0  0  0  0  0  0  0  0  0  0  0  0
  143.5612   69.1447  218.9078 H   0  0  0  0  0  0  0  0  0  0  0  0
  1  2  1  0
  2  3  1  0
  3  4  1  0
  4  5  1  0
  5  6  1  0
  6  7  1  0
  7  8  2  0
  8  9  1  0
  9 10  1  0
 10 11  1  0
 11 12  1  0
 12 13  1  0
 13 14  2  0
 14 15  1  0
 15 16  2  0
 16 17  1  0
 17 18  2  0
  9 19  2  0
 19 20  1  0
 20 21  1  0
 21 22  1  0
 22 23  1  0
 23 24  1  0
 24 25  2  0
 25 26  1  0
 26 27  2  0
 27 28  1  0
 28 29  2  0
 29 30  1  0
 20 31  2  0
  6 32  1  0
 32 33  1  0
 33  3  1  0
 31  7  1  0
 18 13  1  0
 30 21  1  0
 29 24  1  0
  1 34  1  0
  1 35  1  0
  2 36  1  0
  2 37  1  0
  3 38  1  0
  4 39  1  0
  4 40  1  0
  5 41  1  0
  5 42  1  0
 10 43  1  0
 11 44  1  0
 11 45  1  0
 12 46  1  0
 12 47  1  0
 14 48  1  0
 15 49  1  0
 16 50  1  0
 17 51  1  0
 18 52  1  0
 22 53  1  0
 22 54  1  0
 23 55  1  0
 23 56  1  0
 25 57  1  0
 26 58  1  0
 27 59  1  0
 28 60  1  0
 30 61  1  0
 30 62  1  0
 32 63  1  0
 32 64  1  0
 33 65  1  0
 33 66  1  0
M  END
>  <smiles>  (12) 
NCC1CCN(c2nc(NCCc3ccccc3)nc(N3CCc4ccccc4C3)n2)CC1

>  <score_type>  (12) 
oracle

>  <origin>  (12) 
autodockgpu

>  <m_score__min__energy>  (12) 
-10.140000000000001

>  <m_primary>  (12) 
energy

>  <rmsd>  (12) 
4.6852100302728665

>  <m_score__min__rmsd>  (12) 
4.6852100302728665

>  <meeko>  (12) 
{"free_energy": -10.09, "intermolecular_energy": -12.47, "internal_energy": -1.01, "cluster_size": 16, "cluster_id": 1, "rank_in_cluster": 3}

>  <energy>  (12) 
-9.84

>  <cluster_rmsd>  (12) 
0.58

>  <cluster>  (12) 
1

$$$$

     RDKit          3D

 66 70  0  0  0  0  0  0  0  0999 V2000
  132.8200   73.2620  227.5850 N   0  0  0  0  0  0  0  0  0  0  0  0
  133.0640   74.2470  226.5280 C   0  0  0  0  0  0  0  0  0  0  0  0
  133.7920   73.5230  225.4220 C   0  0  0  0  0  0  0  0  0  0  0  0
  134.2400   72.1650  225.9290 C   0  0  0  0  0  0  0  0  0  0  0  0
  134.7270   71.3840  224.7270 C   0  0  0  0  0  0  0  0  0  0  0  0
  135.7890   72.1160  224.0640 N   0  0  0  0  0  0  0  0  0  0  0  0
  137.0160   71.4850  223.7130 C   0  0  0  0  0  0  0  0  0  0  0  0
  137.3400   70.2790  224.1860 N   0  0  0  0  0  0  0  0  0  0  0  0
  138.5150   69.6660  223.8540 C   0  0  0  0  0  0  0  0  0  0  0  0
  138.8330   68.3780  224.3760 N   0  0  0  0  0  0  0  0  0  0  0  0
  138.9710   68.2490  225.7960 C   0  0  0  0  0  0  0  0  0  0  0  0
  140.4640   68.3510  226.1140 C   0  0  0  0  0  0  0  0  0  0  0  0
  140.6450   69.7410  226.6580 C   0  0  0  0  0  0  0  0  0  0  0  0
  141.3110   70.6280  225.8350 C   0  0  0  0  0  0  0  0  0  0  0  0
  141.5040   71.9270  226.2950 C   0  0  0  0  0  0  0  0  0  0  0  0
  141.0360   72.3070  227.5470 C   0  0  0  0  0  0  0  0  0  0  0  0
  140.3700   71.3840  228.3450 C   0  0  0  0  0  0  0  0  0  0  0  0
  140.1680   70.0850  227.9080 C   0  0  0  0  0  0  0  0  0  0  0  0
  139.3540   70.3330  223.0170 N   0  0  0  0  0  0  0  0  0  0  0  0
  139.0560   71.5450  222.5260 C   0  0  0  0  0  0  0  0  0  0  0  0
  139.9730   72.1960  221.6530 N   0  0  0  0  0  0  0  0  0  0  0  0
  140.9320   71.3580  220.9650 C   0  0  0  0  0  0  0  0  0  0  0  0
  142.3470   71.8440  221.1880 C   0  0  0  0  0  0  0  0  0  0  0  0
  142.4120   73.3050  220.8270 C   0  0  0  0  0  0  0  0  0  0  0  0
  143.6250   73.7980  220.3730 C   0  0  0  0  0  0  0  0  0  0  0  0
  143.7240   75.1330  220.0330 C   0  0  0  0  0  0  0  0  0  0  0  0
  142.6190   75.9490  220.1500 C   0  0  0  0  0  0  0  0  0  0  0  0
  141.4040   75.4330  220.6100 C   0  0  0  0  0  0  0  0  0  0  0  0
  141.2870   74.0850  220.9590 C   0  0  0  0  0  0  0  0  0  0  0  0
  139.9830   73.6070  221.4350 C   0  0  0  0  0  0  0  0  0  0  0  0
  137.8740   72.1100  222.8880 N   0  0  0  0  0  0  0  0  0  0  0  0
  135.5780   73.5180  223.7610 C   0  0  0  0  0  0  0  0  0  0  0  0
  135.0150   74.2660  224.9550 C   0  0  0  0  0  0  0  0  0  0  0  0
  132.2170   73.7340  228.3020 H   0  0  0  0  0  0  0  0  0  0  0  0
  133.7210   72.9440  228.0200 H   0  0  0  0  0  0  0  0  0  0  0  0
  132.1098   74.6476  226.1552 H   0  0  0  0  0  0  0  0  0  0  0  0
  133.6568   75.0936  226.9046 H   0  0  0  0  0  0  0  0  0  0  0  0
  133.0936   73.4356  224.5767 H   0  0  0  0  0  0  0  0  0  0  0  0
  135.0550   72.2838  226.6582 H   0  0  0  0  0  0  0  0  0  0  0  0
  133.4134   71.6402  226.4302 H   0  0  0  0  0  0  0  0  0  0  0  0
  135.1079   70.4061  225.0566 H   0  0  0  0  0  0  0  0  0  0  0  0
  133.8924   71.2389  224.0253 H   0  0  0  0  0  0  0  0  0  0  0  0
  138.9550   67.5730  223.7240 H   0  0  0  0  0  0  0  0  0  0  0  0
  138.4212   69.0554  226.3033 H   0  0  0  0  0  0  0  0  0  0  0  0
  138.5614   67.2891  226.1436 H   0  0  0  0  0  0  0  0  0  0  0  0
  140.7529   67.6003  226.8643 H   0  0  0  0  0  0  0  0  0  0  0  0
  141.0912   68.1656  225.2296 H   0  0  0  0  0  0  0  0  0  0  0  0
  141.6778   70.3169  224.8457 H   0  0  0  0  0  0  0  0  0  0  0  0
  142.0304   72.6578  225.6635 H   0  0  0  0  0  0  0  0  0  0  0  0
  141.1921   73.3351  227.9055 H   0  0  0  0  0  0  0  0  0  0  0  0
  139.9991   71.6885  229.3348 H   0  0  0  0  0  0  0  0  0  0  0  0
  139.6440   69.3502  228.5369 H   0  0  0  0  0  0  0  0  0  0  0  0
  140.8433   70.3284  221.3418 H   0  0  0  0  0  0  0  0  0  0  0  0
  140.7172   71.3980  219.8869 H   0  0  0  0  0  0  0  0  0  0  0  0
  142.6234   71.7099  222.2442 H   0  0  0  0  0  0  0  0  0  0  0  0
  143.0462   71.2694  220.5628 H   0  0  0  0  0  0  0  0  0  0  0  0
  144.4979   73.1345  220.2845 H   0  0  0  0  0  0  0  0  0  0  0  0
  144.6786   75.5426  219.6711 H   0  0  0  0  0  0  0  0  0  0  0  0
  142.6939   77.0126  219.8797 H   0  0  0  0  0  0  0  0  0  0  0  0
  140.5303   76.0955  220.6982 H   0  0  0  0  0  0  0  0  0  0  0  0
  139.7440   74.1135  222.3817 H   0  0  0  0  0  0  0  0  0  0  0  0
  139.2363   73.8344  220.6599 H   0  0  0  0  0  0  0  0  0  0  0  0
  136.5392   73.9708  223.4763 H   0  0  0  0  0  0  0  0  0  0  0  0
  134.8530   73.5878  222.9367 H   0  0  0  0  0  0  0  0  0  0  0  0
  135.7624   74.3025  225.7613 H   0  0  0  0  0  0  0  0  0  0  0  0
  134.7572   75.2987  224.6774 H   0  0  0  0  0  0  0  0  0  0  0  0
  1  2  1  0
  2  3  1  0
  3  4  1  0
  4  5  1  0
  5  6  1  0
  6  7  1  0
  7  8  2  0
  8  9  1  0
  9 10  1  0
 10 11  1  0
 11 12  1  0
 12 13  1  0
 13 14  2  0
 14 15  1  0
 15 16  2  0
 16 17  1  0
 17 18  2  0
  9 19  2  0
 19 20  1  0
 20 21  1  0
 21 22  1  0
 22 23  1  0
 23 24  1  0
 24 25  2  0
 25 26  1  0
 26 27  2  0
 27 28  1  0
 28 29  2  0
 29 30  1  0
 20 31  2  0
  6 32  1  0
 32 33  1  0
 33  3  1  0
 31  7  1  0
 18 13  1  0
 30 21  1  0
 29 24  1  0
  1 34  1  0
  1 35  1  0
  2 36  1  0
  2 37  1  0
  3 38  1  0
  4 39  1  0
  4 40  1  0
  5 41  1  0
  5 42  1  0
 10 43  1  0
 11 44  1  0
 11 45  1  0
 12 46  1  0
 12 47  1  0
 14 48  1  0
 15 49  1  0
 16 50  1  0
 17 51  1  0
 18 52  1  0
 22 53  1  0
 22 54  1  0
 23 55  1  0
 23 56  1  0
 25 57  1  0
 26 58  1  0
 27 59  1  0
 28 60  1  0
 30 61  1  0
 30 62  1  0
 32 63  1  0
 32 64  1  0
 33 65  1  0
 33 66  1  0
M  END
>  <smiles>  (13) 
NCC1CCN(c2nc(NCCc3ccccc3)nc(N3CCc4ccccc4C3)n2)CC1

>  <score_type>  (13) 
oracle

>  <origin>  (13) 
autodockgpu

>  <m_score__min__energy>  (13) 
-10.140000000000001

>  <m_primary>  (13) 
energy

>  <rmsd>  (13) 
5.706026070570307

>  <m_score__min__rmsd>  (13) 
5.706026070570307

>  <meeko>  (13) 
{"free_energy": -8.82, "intermolecular_energy": -11.21, "internal_energy": -1.63, "cluster_size": 5, "cluster_id": 5, "rank_in_cluster": 4}

>  <energy>  (13) 
-9.71

>  <cluster_rmsd>  (13) 
1.18

>  <cluster>  (13) 
1

$$$$

     RDKit          3D

 66 70  0  0  0  0  0  0  0  0999 V2000
  142.5110   79.0420  222.0880 N   0  0  0  0  0  0  0  0  0  0  0  0
  141.3860   79.2460  221.1710 C   0  0  0  0  0  0  0  0  0  0  0  0
  140.6990   77.9100  221.0230 C   0  0  0  0  0  0  0  0  0  0  0  0
  140.7510   77.1760  222.3500 C   0  0  0  0  0  0  0  0  0  0  0  0
  139.8360   75.9770  222.2260 C   0  0  0  0  0  0  0  0  0  0  0  0
  140.2570   75.1530  221.1110 N   0  0  0  0  0  0  0  0  0  0  0  0
  140.4290   73.7460  221.2520 C   0  0  0  0  0  0  0  0  0  0  0  0
  140.8040   72.9840  220.2220 N   0  0  0  0  0  0  0  0  0  0  0  0
  140.9710   71.6330  220.3480 C   0  0  0  0  0  0  0  0  0  0  0  0
  141.3720   70.8460  219.2290 N   0  0  0  0  0  0  0  0  0  0  0  0
  142.7720   70.7680  218.9330 C   0  0  0  0  0  0  0  0  0  0  0  0
  143.1420   72.0440  218.1760 C   0  0  0  0  0  0  0  0  0  0  0  0
  144.0150   72.8150  219.1270 C   0  0  0  0  0  0  0  0  0  0  0  0
  143.6650   74.1360  219.3290 C   0  0  0  0  0  0  0  0  0  0  0  0
  144.4420   74.8920  220.2010 C   0  0  0  0  0  0  0  0  0  0  0  0
  145.5360   74.3220  220.8430 C   0  0  0  0  0  0  0  0  0  0  0  0
  145.8540   72.9890  220.6120 C   0  0  0  0  0  0  0  0  0  0  0  0
  145.0940   72.2180  219.7470 C   0  0  0  0  0  0  0  0  0  0  0  0
  140.7410   71.0860  221.5710 N   0  0  0  0  0  0  0  0  0  0  0  0
  140.3630   71.8260  222.6230 C   0  0  0  0  0  0  0  0  0  0  0  0
  140.1360   71.1980  223.8810 N   0  0  0  0  0  0  0  0  0  0  0  0
  140.5860   71.9070  225.0590 C   0  0  0  0  0  0  0  0  0  0  0  0
  141.4800   71.0390  225.9160 C   0  0  0  0  0  0  0  0  0  0  0  0
  140.7650   69.7440  226.1940 C   0  0  0  0  0  0  0  0  0  0  0  0
  141.0680   69.0850  227.3750 C   0  0  0  0  0  0  0  0  0  0  0  0
  140.4320   67.8940  227.6650 C   0  0  0  0  0  0  0  0  0  0  0  0
  139.5090   67.3820  226.7780 C   0  0  0  0  0  0  0  0  0  0  0  0
  139.2160   68.0600  225.5910 C   0  0  0  0  0  0  0  0  0  0  0  0
  139.8510   69.2670  225.2830 C   0  0  0  0  0  0  0  0  0  0  0  0
  139.4980   69.9280  224.0200 C   0  0  0  0  0  0  0  0  0  0  0  0
  140.2120   73.1650  222.4430 N   0  0  0  0  0  0  0  0  0  0  0  0
  140.5030   75.7920  219.8330 C   0  0  0  0  0  0  0  0  0  0  0  0
  141.3550   77.0370  219.9880 C   0  0  0  0  0  0  0  0  0  0  0  0
  143.2440   79.7440  221.8270 H   0  0  0  0  0  0  0  0  0  0  0  0
  142.8930   78.0670  222.0050 H   0  0  0  0  0  0  0  0  0  0  0  0
  140.6877   79.9873  221.5867 H   0  0  0  0  0  0  0  0  0  0  0  0
  141.7326   79.6226  220.1973 H   0  0  0  0  0  0  0  0  0  0  0  0
  139.6651   78.1099  220.7049 H   0  0  0  0  0  0  0  0  0  0  0  0
  141.7794   76.8468  222.5600 H   0  0  0  0  0  0  0  0  0  0  0  0
  140.4322   77.8306  223.1745 H   0  0  0  0  0  0  0  0  0  0  0  0
  139.8793   75.3869  223.1533 H   0  0  0  0  0  0  0  0  0  0  0  0
  138.8056   76.3220  222.0547 H   0  0  0  0  0  0  0  0  0  0  0  0
  140.6490   70.3520  218.6610 H   0  0  0  0  0  0  0  0  0  0  0  0
  143.3518   70.7006  219.8653 H   0  0  0  0  0  0  0  0  0  0  0  0
  142.9961   69.8756  218.3302 H   0  0  0  0  0  0  0  0  0  0  0  0
  143.6919   71.8023  217.2545 H   0  0  0  0  0  0  0  0  0  0  0  0
  142.2546   72.6171  217.8693 H   0  0  0  0  0  0  0  0  0  0  0  0
  142.7978   74.5770  218.8157 H   0  0  0  0  0  0  0  0  0  0  0  0
  144.1895   75.9469  220.3837 H   0  0  0  0  0  0  0  0  0  0  0  0
  146.1475   74.9241  221.5312 H   0  0  0  0  0  0  0  0  0  0  0  0
  146.7194   72.5405  221.1219 H   0  0  0  0  0  0  0  0  0  0  0  0
  145.3429   71.1629  219.5603 H   0  0  0  0  0  0  0  0  0  0  0  0
  141.1468   72.8004  224.7469 H   0  0  0  0  0  0  0  0  0  0  0  0
  139.7036   72.1884  225.6525 H   0  0  0  0  0  0  0  0  0  0  0  0
  142.4210   70.8363  225.3837 H   0  0  0  0  0  0  0  0  0  0  0  0
  141.7100   71.5527  226.8611 H   0  0  0  0  0  0  0  0  0  0  0  0
  141.8065   69.5058  228.0732 H   0  0  0  0  0  0  0  0  0  0  0  0
  140.6604   67.3573  228.5976 H   0  0  0  0  0  0  0  0  0  0  0  0
  138.9998   66.4339  227.0057 H   0  0  0  0  0  0  0  0  0  0  0  0
  138.4781   67.6394  224.8920 H   0  0  0  0  0  0  0  0  0  0  0  0
  139.8062   69.2830  223.1840 H   0  0  0  0  0  0  0  0  0  0  0  0
  138.4105   70.0934  224.0170 H   0  0  0  0  0  0  0  0  0  0  0  0
  141.0239   75.0825  219.1732 H   0  0  0  0  0  0  0  0  0  0  0  0
  139.5346   76.0882  219.4036 H   0  0  0  0  0  0  0  0  0  0  0  0
  142.3673   76.7603  220.3175 H   0  0  0  0  0  0  0  0  0  0  0  0
  141.4389   77.5700  219.0294 H   0  0  0  0  0  0  0  0  0  0  0  0
  1  2  1  0
  2  3  1  0
  3  4  1  0
  4  5  1  0
  5  6  1  0
  6  7  1  0
  7  8  2  0
  8  9  1  0
  9 10  1  0
 10 11  1  0
 11 12  1  0
 12 13  1  0
 13 14  2  0
 14 15  1  0
 15 16  2  0
 16 17  1  0
 17 18  2  0
  9 19  2  0
 19 20  1  0
 20 21  1  0
 21 22  1  0
 22 23  1  0
 23 24  1  0
 24 25  2  0
 25 26  1  0
 26 27  2  0
 27 28  1  0
 28 29  2  0
 29 30  1  0
 20 31  2  0
  6 32  1  0
 32 33  1  0
 33  3  1  0
 31  7  1  0
 18 13  1  0
 30 21  1  0
 29 24  1  0
  1 34  1  0
  1 35  1  0
  2 36  1  0
  2 37  1  0
  3 38  1  0
  4 39  1  0
  4 40  1  0
  5 41  1  0
  5 42  1  0
 10 43  1  0
 11 44  1  0
 11 45  1  0
 12 46  1  0
 12 47  1  0
 14 48  1  0
 15 49  1  0
 16 50  1  0
 17 51  1  0
 18 52  1  0
 22 53  1  0
 22 54  1  0
 23 55  1  0
 23 56  1  0
 25 57  1  0
 26 58  1  0
 27 59  1  0
 28 60  1  0
 30 61  1  0
 30 62  1  0
 32 63  1  0
 32 64  1  0
 33 65  1  0
 33 66  1  0
M  END
>  <smiles>  (14) 
NCC1CCN(c2nc(NCCc3ccccc3)nc(N3CCc4ccccc4C3)n2)CC1

>  <score_type>  (14) 
oracle

>  <origin>  (14) 
autodockgpu

>  <m_score__min__energy>  (14) 
-10.140000000000001

>  <m_primary>  (14) 
energy

>  <rmsd>  (14) 
11.97330154893906

>  <m_score__min__rmsd>  (14) 
11.97330154893906

>  <meeko>  (14) 
{"free_energy": -8.83, "intermolecular_energy": -11.22, "internal_energy": -1.83, "cluster_size": 7, "cluster_id": 3, "rank_in_cluster": 6}

>  <energy>  (14) 
-9.62

>  <cluster_rmsd>  (14) 
1.04

>  <cluster>  (14) 
1

$$$$

     RDKit          3D

 66 70  0  0  0  0  0  0  0  0999 V2000
  146.3630   74.0940  216.8300 N   0  0  0  0  0  0  0  0  0  0  0  0
  145.9390   72.6950  216.7290 C   0  0  0  0  0  0  0  0  0  0  0  0
  145.0640   72.4200  217.9270 C   0  0  0  0  0  0  0  0  0  0  0  0
  143.6110   72.6150  217.5350 C   0  0  0  0  0  0  0  0  0  0  0  0
  142.7710   72.0830  218.6760 C   0  0  0  0  0  0  0  0  0  0  0  0
  143.1200   72.7700  219.9040 N   0  0  0  0  0  0  0  0  0  0  0  0
  142.1200   73.3250  220.7520 C   0  0  0  0  0  0  0  0  0  0  0  0
  141.3090   72.5480  221.4730 N   0  0  0  0  0  0  0  0  0  0  0  0
  140.3470   73.0720  222.2900 C   0  0  0  0  0  0  0  0  0  0  0  0
  139.4950   72.2150  223.0480 N   0  0  0  0  0  0  0  0  0  0  0  0
  139.9910   70.9150  223.3920 C   0  0  0  0  0  0  0  0  0  0  0  0
  139.1140   70.3860  224.5290 C   0  0  0  0  0  0  0  0  0  0  0  0
  139.8530   70.7530  225.7850 C   0  0  0  0  0  0  0  0  0  0  0  0
  139.6110   69.9500  226.8830 C   0  0  0  0  0  0  0  0  0  0  0  0
  140.2720   70.2490  228.0700 C   0  0  0  0  0  0  0  0  0  0  0  0
  141.1460   71.3280  228.1360 C   0  0  0  0  0  0  0  0  0  0  0  0
  141.3630   72.1110  227.0080 C   0  0  0  0  0  0  0  0  0  0  0  0
  140.7150   71.8320  225.8160 C   0  0  0  0  0  0  0  0  0  0  0  0
  140.2410   74.4250  222.3440 N   0  0  0  0  0  0  0  0  0  0  0  0
  141.0420   75.2320  221.6320 C   0  0  0  0  0  0  0  0  0  0  0  0
  140.8860   76.6440  221.7290 N   0  0  0  0  0  0  0  0  0  0  0  0
  140.5380   77.3500  220.5150 C   0  0  0  0  0  0  0  0  0  0  0  0
  141.5040   78.4820  220.2400 C   0  0  0  0  0  0  0  0  0  0  0  0
  141.5910   79.3450  221.4700 C   0  0  0  0  0  0  0  0  0  0  0  0
  141.8900   80.6870  221.2910 C   0  0  0  0  0  0  0  0  0  0  0  0
  141.9780   81.5100  222.3960 C   0  0  0  0  0  0  0  0  0  0  0  0
  141.7670   80.9870  223.6540 C   0  0  0  0  0  0  0  0  0  0  0  0
  141.4670   79.6320  223.8150 C   0  0  0  0  0  0  0  0  0  0  0  0
  141.3740   78.7840  222.7080 C   0  0  0  0  0  0  0  0  0  0  0  0
  141.0560   77.3700  222.9460 C   0  0  0  0  0  0  0  0  0  0  0  0
  141.9830   74.6590  220.8350 N   0  0  0  0  0  0  0  0  0  0  0  0
  144.5210   72.8830  220.2580 C   0  0  0  0  0  0  0  0  0  0  0  0
  145.3580   73.3420  219.0790 C   0  0  0  0  0  0  0  0  0  0  0  0
  147.0860   74.1360  217.5880 H   0  0  0  0  0  0  0  0  0  0  0  0
  145.5520   74.7180  217.0650 H   0  0  0  0  0  0  0  0  0  0  0  0
  145.3710   72.5371  215.8003 H   0  0  0  0  0  0  0  0  0  0  0  0
  146.8065   72.0189  216.7089 H   0  0  0  0  0  0  0  0  0  0  0  0
  145.2676   71.3876  218.2474 H   0  0  0  0  0  0  0  0  0  0  0  0
  143.4020   73.6835  217.3779 H   0  0  0  0  0  0  0  0  0  0  0  0
  143.3821   72.0857  216.5983 H   0  0  0  0  0  0  0  0  0  0  0  0
  141.7065   72.2492  218.4543 H   0  0  0  0  0  0  0  0  0  0  0  0
  142.9607   71.0061  218.7955 H   0  0  0  0  0  0  0  0  0  0  0  0
  138.5470   72.5480  223.3300 H   0  0  0  0  0  0  0  0  0  0  0  0
  139.9269   70.2443  222.5225 H   0  0  0  0  0  0  0  0  0  0  0  0
  141.0451   70.9672  223.7020 H   0  0  0  0  0  0  0  0  0  0  0  0
  138.1232   70.8634  224.5086 H   0  0  0  0  0  0  0  0  0  0  0  0
  138.9403   69.3026  224.4504 H   0  0  0  0  0  0  0  0  0  0  0  0
  138.9162   69.0995  226.8204 H   0  0  0  0  0  0  0  0  0  0  0  0
  140.1021   69.6278  228.9618 H   0  0  0  0  0  0  0  0  0  0  0  0
  141.6642   71.5615  229.0778 H   0  0  0  0  0  0  0  0  0  0  0  0
  142.0576   72.9622  227.0627 H   0  0  0  0  0  0  0  0  0  0  0  0
  140.8816   72.4505  224.9217 H   0  0  0  0  0  0  0  0  0  0  0  0
  140.5628   76.6450  219.6710 H   0  0  0  0  0  0  0  0  0  0  0  0
  139.5311   77.7755  220.6378 H   0  0  0  0  0  0  0  0  0  0  0  0
  142.4972   78.0729  220.0028 H   0  0  0  0  0  0  0  0  0  0  0  0
  141.1522   79.0784  219.3853 H   0  0  0  0  0  0  0  0  0  0  0  0
  142.0550   81.0909  220.2812 H   0  0  0  0  0  0  0  0  0  0  0  0
  142.2151   82.5771  222.2733 H   0  0  0  0  0  0  0  0  0  0  0  0
  141.8353   81.6404  224.5363 H   0  0  0  0  0  0  0  0  0  0  0  0
  141.3021   79.2279  224.8247 H   0  0  0  0  0  0  0  0  0  0  0  0
  141.8767   76.9138  223.5191 H   0  0  0  0  0  0  0  0  0  0  0  0
  140.1075   77.3257  223.5013 H   0  0  0  0  0  0  0  0  0  0  0  0
  144.6253   73.6117  221.0754 H   0  0  0  0  0  0  0  0  0  0  0  0
  144.8790   71.8906  220.5694 H   0  0  0  0  0  0  0  0  0  0  0  0
  145.0926   74.3751  218.8100 H   0  0  0  0  0  0  0  0  0  0  0  0
  146.4283   73.3163  219.3314 H   0  0  0  0  0  0  0  0  0  0  0  0
  1  2  1  0
  2  3  1  0
  3  4  1  0
  4  5  1  0
  5  6  1  0
  6  7  1  0
  7  8  2  0
  8  9  1  0
  9 10  1  0
 10 11  1  0
 11 12  1  0
 12 13  1  0
 13 14  2  0
 14 15  1  0
 15 16  2  0
 16 17  1  0
 17 18  2  0
  9 19  2  0
 19 20  1  0
 20 21  1  0
 21 22  1  0
 22 23  1  0
 23 24  1  0
 24 25  2  0
 25 26  1  0
 26 27  2  0
 27 28  1  0
 28 29  2  0
 29 30  1  0
 20 31  2  0
  6 32  1  0
 32 33  1  0
 33  3  1  0
 31  7  1  0
 18 13  1  0
 30 21  1  0
 29 24  1  0
  1 34  1  0
  1 35  1  0
  2 36  1  0
  2 37  1  0
  3 38  1  0
  4 39  1  0
  4 40  1  0
  5 41  1  0
  5 42  1  0
 10 43  1  0
 11 44  1  0
 11 45  1  0
 12 46  1  0
 12 47  1  0
 14 48  1  0
 15 49  1  0
 16 50  1  0
 17 51  1  0
 18 52  1  0
 22 53  1  0
 22 54  1  0
 23 55  1  0
 23 56  1  0
 25 57  1  0
 26 58  1  0
 27 59  1  0
 28 60  1  0
 30 61  1  0
 30 62  1  0
 32 63  1  0
 32 64  1  0
 33 65  1  0
 33 66  1  0
M  END
>  <smiles>  (15) 
NCC1CCN(c2nc(NCCc3ccccc3)nc(N3CCc4ccccc4C3)n2)CC1

>  <score_type>  (15) 
oracle

>  <origin>  (15) 
autodockgpu

>  <m_score__min__energy>  (15) 
-10.140000000000001

>  <m_primary>  (15) 
energy

>  <rmsd>  (15) 
4.850417416862904

>  <m_score__min__rmsd>  (15) 
4.850417416862904

>  <meeko>  (15) 
{"free_energy": -9.85, "intermolecular_energy": -12.24, "internal_energy": -1.02, "cluster_size": 6, "cluster_id": 2, "rank_in_cluster": 4}

>  <energy>  (15) 
-9.56

>  <cluster_rmsd>  (15) 
0.5

>  <cluster>  (15) 
1

$$$$

     RDKit          3D

 66 70  0  0  0  0  0  0  0  0999 V2000
  142.7180   79.1470  222.7260 N   0  0  0  0  0  0  0  0  0  0  0  0
  141.7590   79.3830  221.6440 C   0  0  0  0  0  0  0  0  0  0  0  0
  141.1030   78.0560  221.3500 C   0  0  0  0  0  0  0  0  0  0  0  0
  140.9720   77.2700  222.6410 C   0  0  0  0  0  0  0  0  0  0  0  0
  140.0870   76.0780  222.3440 C   0  0  0  0  0  0  0  0  0  0  0  0
  140.6620   75.2980  221.2660 N   0  0  0  0  0  0  0  0  0  0  0  0
  140.8170   73.8870  221.3730 C   0  0  0  0  0  0  0  0  0  0  0  0
  141.2820   73.1580  220.3570 N   0  0  0  0  0  0  0  0  0  0  0  0
  141.4340   71.8030  220.4510 C   0  0  0  0  0  0  0  0  0  0  0  0
  141.9340   71.0520  219.3470 N   0  0  0  0  0  0  0  0  0  0  0  0
  142.2810   71.7670  218.1550 C   0  0  0  0  0  0  0  0  0  0  0  0
  143.7960   71.6460  217.9830 C   0  0  0  0  0  0  0  0  0  0  0  0
  144.3740   72.5630  219.0250 C   0  0  0  0  0  0  0  0  0  0  0  0
  145.3810   72.0290  219.8050 C   0  0  0  0  0  0  0  0  0  0  0  0
  145.9480   72.8380  220.7850 C   0  0  0  0  0  0  0  0  0  0  0  0
  145.5040   74.1440  220.9630 C   0  0  0  0  0  0  0  0  0  0  0  0
  144.4880   74.6430  220.1560 C   0  0  0  0  0  0  0  0  0  0  0  0
  143.9090   73.8550  219.1750 C   0  0  0  0  0  0  0  0  0  0  0  0
  141.0910   71.2160  221.6280 N   0  0  0  0  0  0  0  0  0  0  0  0
  140.6200   71.9210  222.6660 C   0  0  0  0  0  0  0  0  0  0  0  0
  140.2770   71.2520  223.8750 N   0  0  0  0  0  0  0  0  0  0  0  0
  140.6470   71.9030  225.1130 C   0  0  0  0  0  0  0  0  0  0  0  0
  141.4480   70.9780  226.0040 C   0  0  0  0  0  0  0  0  0  0  0  0
  140.6820   69.6940  226.1700 C   0  0  0  0  0  0  0  0  0  0  0  0
  140.8730   68.9830  227.3450 C   0  0  0  0  0  0  0  0  0  0  0  0
  140.1860   67.7990  227.5340 C   0  0  0  0  0  0  0  0  0  0  0  0
  139.3270   67.3470  226.5560 C   0  0  0  0  0  0  0  0  0  0  0  0
  139.1470   68.0770  225.3790 C   0  0  0  0  0  0  0  0  0  0  0  0
  139.8330   69.2770  225.1710 C   0  0  0  0  0  0  0  0  0  0  0  0
  139.6000   69.9960  223.9120 C   0  0  0  0  0  0  0  0  0  0  0  0
  140.4890   73.2660  222.5190 N   0  0  0  0  0  0  0  0  0  0  0  0
  141.0800   75.9870  220.0610 C   0  0  0  0  0  0  0  0  0  0  0  0
  141.8990   77.2230  220.3820 C   0  0  0  0  0  0  0  0  0  0  0  0
  142.7690   80.0350  223.2820 H   0  0  0  0  0  0  0  0  0  0  0  0
  143.6650   78.9020  222.3440 H   0  0  0  0  0  0  0  0  0  0  0  0
  141.0038   80.1176  221.9601 H   0  0  0  0  0  0  0  0  0  0  0  0
  142.2605   79.7834  220.7506 H   0  0  0  0  0  0  0  0  0  0  0  0
  140.1225   78.2710  220.9002 H   0  0  0  0  0  0  0  0  0  0  0  0
  141.9622   76.9307  222.9791 H   0  0  0  0  0  0  0  0  0  0  0  0
  140.5389   77.8923  223.4380 H   0  0  0  0  0  0  0  0  0  0  0  0
  140.0035   75.4515  223.2443 H   0  0  0  0  0  0  0  0  0  0  0  0
  139.0890   76.4312  222.0454 H   0  0  0  0  0  0  0  0  0  0  0  0
  142.0340   70.0160  219.4300 H   0  0  0  0  0  0  0  0  0  0  0  0
  141.7665   71.3272  217.2879 H   0  0  0  0  0  0  0  0  0  0  0  0
  141.9784   72.8220  218.2291 H   0  0  0  0  0  0  0  0  0  0  0  0
  144.1240   70.6100  218.1533 H   0  0  0  0  0  0  0  0  0  0  0  0
  144.1217   71.9135  216.9670 H   0  0  0  0  0  0  0  0  0  0  0  0
  145.7246   70.9947  219.6559 H   0  0  0  0  0  0  0  0  0  0  0  0
  146.7522   72.4422  221.4227 H   0  0  0  0  0  0  0  0  0  0  0  0
  145.9550   74.7796  221.7393 H   0  0  0  0  0  0  0  0  0  0  0  0
  144.1395   75.6766  220.2983 H   0  0  0  0  0  0  0  0  0  0  0  0
  143.1040   74.2459  218.5354 H   0  0  0  0  0  0  0  0  0  0  0  0
  141.2527   72.7920  224.8831 H   0  0  0  0  0  0  0  0  0  0  0  0
  139.7265   72.1855  225.6448 H   0  0  0  0  0  0  0  0  0  0  0  0
  142.4242   70.7706  225.5415 H   0  0  0  0  0  0  0  0  0  0  0  0
  141.6126   71.4483  226.9847 H   0  0  0  0  0  0  0  0  0  0  0  0
  141.5623   69.3565  228.1166 H   0  0  0  0  0  0  0  0  0  0  0  0
  140.3240   67.2208  228.4596 H   0  0  0  0  0  0  0  0  0  0  0  0
  138.7791   66.4046  226.7033 H   0  0  0  0  0  0  0  0  0  0  0  0
  138.4579   67.7035  224.6072 H   0  0  0  0  0  0  0  0  0  0  0  0
  139.9592   69.3753  223.0779 H   0  0  0  0  0  0  0  0  0  0  0  0
  138.5207   70.1917  223.8297 H   0  0  0  0  0  0  0  0  0  0  0  0
  141.6890   75.3032  219.4515 H   0  0  0  0  0  0  0  0  0  0  0  0
  140.1792   76.3027  219.5143 H   0  0  0  0  0  0  0  0  0  0  0  0
  142.8567   76.9308  220.8375 H   0  0  0  0  0  0  0  0  0  0  0  0
  142.1136   77.7934  219.4663 H   0  0  0  0  0  0  0  0  0  0  0  0
  1  2  1  0
  2  3  1  0
  3  4  1  0
  4  5  1  0
  5  6  1  0
  6  7  1  0
  7  8  2  0
  8  9  1  0
  9 10  1  0
 10 11  1  0
 11 12  1  0
 12 13  1  0
 13 14  2  0
 14 15  1  0
 15 16  2  0
 16 17  1  0
 17 18  2  0
  9 19  2  0
 19 20  1  0
 20 21  1  0
 21 22  1  0
 22 23  1  0
 23 24  1  0
 24 25  2  0
 25 26  1  0
 26 27  2  0
 27 28  1  0
 28 29  2  0
 29 30  1  0
 20 31  2  0
  6 32  1  0
 32 33  1  0
 33  3  1  0
 31  7  1  0
 18 13  1  0
 30 21  1  0
 29 24  1  0
  1 34  1  0
  1 35  1  0
  2 36  1  0
  2 37  1  0
  3 38  1  0
  4 39  1  0
  4 40  1  0
  5 41  1  0
  5 42  1  0
 10 43  1  0
 11 44  1  0
 11 45  1  0
 12 46  1  0
 12 47  1  0
 14 48  1  0
 15 49  1  0
 16 50  1  0
 17 51  1  0
 18 52  1  0
 22 53  1  0
 22 54  1  0
 23 55  1  0
 23 56  1  0
 25 57  1  0
 26 58  1  0
 27 59  1  0
 28 60  1  0
 30 61  1  0
 30 62  1  0
 32 63  1  0
 32 64  1  0
 33 65  1  0
 33 66  1  0
M  END
>  <smiles>  (16) 
NCC1CCN(c2nc(NCCc3ccccc3)nc(N3CCc4ccccc4C3)n2)CC1

>  <score_type>  (16) 
oracle

>  <origin>  (16) 
autodockgpu

>  <m_score__min__energy>  (16) 
-10.140000000000001

>  <m_primary>  (16) 
energy

>  <rmsd>  (16) 
11.94004151044066

>  <m_score__min__rmsd>  (16) 
11.94004151044066

>  <meeko>  (16) 
{"free_energy": -8.5, "intermolecular_energy": -10.89, "internal_energy": -1.8, "cluster_size": 7, "cluster_id": 3, "rank_in_cluster": 7}

>  <energy>  (16) 
-9.26

>  <cluster_rmsd>  (16) 
1.43

>  <cluster>  (16) 
1

$$$$

     RDKit          3D

 66 70  0  0  0  0  0  0  0  0999 V2000
  146.4490   69.5940  217.9190 N   0  0  0  0  0  0  0  0  0  0  0  0
  146.2970   70.1970  219.2460 C   0  0  0  0  0  0  0  0  0  0  0  0
  145.0500   71.0460  219.1960 C   0  0  0  0  0  0  0  0  0  0  0  0
  145.2670   72.2960  220.0280 C   0  0  0  0  0  0  0  0  0  0  0  0
  144.1060   73.2240  219.7400 C   0  0  0  0  0  0  0  0  0  0  0  0
  142.8570   72.5550  220.0440 N   0  0  0  0  0  0  0  0  0  0  0  0
  141.8560   73.1810  220.8410 C   0  0  0  0  0  0  0  0  0  0  0  0
  140.9540   72.4650  221.5160 N   0  0  0  0  0  0  0  0  0  0  0  0
  139.9910   73.0580  222.2830 C   0  0  0  0  0  0  0  0  0  0  0  0
  139.0400   72.2650  222.9910 N   0  0  0  0  0  0  0  0  0  0  0  0
  139.4840   71.0130  223.5300 C   0  0  0  0  0  0  0  0  0  0  0  0
  140.8160   71.2750  224.2360 C   0  0  0  0  0  0  0  0  0  0  0  0
  140.5520   70.9570  225.6810 C   0  0  0  0  0  0  0  0  0  0  0  0
  141.0430   71.8680  226.5970 C   0  0  0  0  0  0  0  0  0  0  0  0
  140.8240   71.6180  227.9490 C   0  0  0  0  0  0  0  0  0  0  0  0
  140.1320   70.4810  228.3510 C   0  0  0  0  0  0  0  0  0  0  0  0
  139.6540   69.5900  227.3970 C   0  0  0  0  0  0  0  0  0  0  0  0
  139.8610   69.8190  226.0460 C   0  0  0  0  0  0  0  0  0  0  0  0
  139.9810   74.4160  222.3360 N   0  0  0  0  0  0  0  0  0  0  0  0
  140.8730   75.1620  221.6690 C   0  0  0  0  0  0  0  0  0  0  0  0
  140.8150   76.5810  221.7620 N   0  0  0  0  0  0  0  0  0  0  0  0
  140.5190   77.3070  220.5460 C   0  0  0  0  0  0  0  0  0  0  0  0
  141.5610   78.3690  220.2710 C   0  0  0  0  0  0  0  0  0  0  0  0
  141.7050   79.2270  221.4990 C   0  0  0  0  0  0  0  0  0  0  0  0
  142.0960   80.5440  221.3170 C   0  0  0  0  0  0  0  0  0  0  0  0
  142.2380   81.3630  222.4210 C   0  0  0  0  0  0  0  0  0  0  0  0
  141.9900   80.8580  223.6790 C   0  0  0  0  0  0  0  0  0  0  0  0
  141.5970   79.5270  223.8430 C   0  0  0  0  0  0  0  0  0  0  0  0
  141.4480   78.6850  222.7370 C   0  0  0  0  0  0  0  0  0  0  0  0
  141.0320   77.2970  222.9780 C   0  0  0  0  0  0  0  0  0  0  0  0
  141.8110   74.5220  220.9210 N   0  0  0  0  0  0  0  0  0  0  0  0
  142.6400   71.2220  219.5170 C   0  0  0  0  0  0  0  0  0  0  0  0
  143.8450   70.3310  219.7460 C   0  0  0  0  0  0  0  0  0  0  0  0
  147.4460   69.2790  217.8440 H   0  0  0  0  0  0  0  0  0  0  0  0
  146.2270   70.2870  217.1620 H   0  0  0  0  0  0  0  0  0  0  0  0
  146.1909   69.4120  220.0093 H   0  0  0  0  0  0  0  0  0  0  0  0
  147.1773   70.8018  219.5091 H   0  0  0  0  0  0  0  0  0  0  0  0
  144.8617   71.2845  218.1388 H   0  0  0  0  0  0  0  0  0  0  0  0
  145.2896   72.0392  221.0974 H   0  0  0  0  0  0  0  0  0  0  0  0
  146.2249   72.7746  219.7764 H   0  0  0  0  0  0  0  0  0  0  0  0
  144.1974   74.1272  220.3613 H   0  0  0  0  0  0  0  0  0  0  0  0
  144.1192   73.5036  218.6762 H   0  0  0  0  0  0  0  0  0  0  0  0
  138.0610   72.6080  223.1000 H   0  0  0  0  0  0  0  0  0  0  0  0
  138.7453   70.6281  224.2485 H   0  0  0  0  0  0  0  0  0  0  0  0
  139.6034   70.2638  222.7335 H   0  0  0  0  0  0  0  0  0  0  0  0
  141.6037   70.6215  223.8328 H   0  0  0  0  0  0  0  0  0  0  0  0
  141.1652   72.3085  224.0948 H   0  0  0  0  0  0  0  0  0  0  0  0
  141.5903   72.7636  226.2678 H   0  0  0  0  0  0  0  0  0  0  0  0
  141.2007   72.3242  228.7036 H   0  0  0  0  0  0  0  0  0  0  0  0
  139.9633   70.2871  229.4206 H   0  0  0  0  0  0  0  0  0  0  0  0
  139.1050   68.6926  227.7183 H   0  0  0  0  0  0  0  0  0  0  0  0
  139.4862   69.1156  225.2878 H   0  0  0  0  0  0  0  0  0  0  0  0
  140.4969   76.6003  219.7034 H   0  0  0  0  0  0  0  0  0  0  0  0
  139.5436   77.8011  220.6659 H   0  0  0  0  0  0  0  0  0  0  0  0
  142.5241   77.8919  220.0368 H   0  0  0  0  0  0  0  0  0  0  0  0
  141.2526   78.9863  219.4143 H   0  0  0  0  0  0  0  0  0  0  0  0
  142.2908   80.9326  220.3065 H   0  0  0  0  0  0  0  0  0  0  0  0
  142.5470   82.4113  222.2964 H   0  0  0  0  0  0  0  0  0  0  0  0
  142.1022   81.5070  224.5600 H   0  0  0  0  0  0  0  0  0  0  0  0
  141.4028   79.1376  224.8533 H   0  0  0  0  0  0  0  0  0  0  0  0
  141.8176   76.7866  223.5545 H   0  0  0  0  0  0  0  0  0  0  0  0
  140.0814   77.3202  223.5309 H   0  0  0  0  0  0  0  0  0  0  0  0
  141.7668   70.7777  220.0171 H   0  0  0  0  0  0  0  0  0  0  0  0
  142.4715   71.3027  218.4330 H   0  0  0  0  0  0  0  0  0  0  0  0
  143.9767   70.1473  220.8225 H   0  0  0  0  0  0  0  0  0  0  0  0
  143.7092   69.3609  219.2454 H   0  0  0  0  0  0  0  0  0  0  0  0
  1  2  1  0
  2  3  1  0
  3  4  1  0
  4  5  1  0
  5  6  1  0
  6  7  1  0
  7  8  2  0
  8  9  1  0
  9 10  1  0
 10 11  1  0
 11 12  1  0
 12 13  1  0
 13 14  2  0
 14 15  1  0
 15 16  2  0
 16 17  1  0
 17 18  2  0
  9 19  2  0
 19 20  1  0
 20 21  1  0
 21 22  1  0
 22 23  1  0
 23 24  1  0
 24 25  2  0
 25 26  1  0
 26 27  2  0
 27 28  1  0
 28 29  2  0
 29 30  1  0
 20 31  2  0
  6 32  1  0
 32 33  1  0
 33  3  1  0
 31  7  1  0
 18 13  1  0
 30 21  1  0
 29 24  1  0
  1 34  1  0
  1 35  1  0
  2 36  1  0
  2 37  1  0
  3 38  1  0
  4 39  1  0
  4 40  1  0
  5 41  1  0
  5 42  1  0
 10 43  1  0
 11 44  1  0
 11 45  1  0
 12 46  1  0
 12 47  1  0
 14 48  1  0
 15 49  1  0
 16 50  1  0
 17 51  1  0
 18 52  1  0
 22 53  1  0
 22 54  1  0
 23 55  1  0
 23 56  1  0
 25 57  1  0
 26 58  1  0
 27 59  1  0
 28 60  1  0
 30 61  1  0
 30 62  1  0
 32 63  1  0
 32 64  1  0
 33 65  1  0
 33 66  1  0
M  END
>  <smiles>  (17) 
NCC1CCN(c2nc(NCCc3ccccc3)nc(N3CCc4ccccc4C3)n2)CC1

>  <score_type>  (17) 
oracle

>  <origin>  (17) 
autodockgpu

>  <m_score__min__energy>  (17) 
-10.140000000000001

>  <m_primary>  (17) 
energy

>  <rmsd>  (17) 
4.867097429727488

>  <m_score__min__rmsd>  (17) 
4.867097429727488

>  <meeko>  (17) 
{"free_energy": -9.99, "intermolecular_energy": -12.38, "internal_energy": -1.11, "cluster_size": 16, "cluster_id": 1, "rank_in_cluster": 8}

>  <energy>  (17) 
-10.03

>  <cluster_rmsd>  (17) 
0.0

>  <cluster>  (17) 
2

$$$$

     RDKit          3D

 66 70  0  0  0  0  0  0  0  0999 V2000
  145.8560   68.6440  219.5840 N   0  0  0  0  0  0  0  0  0  0  0  0
  146.3430   69.9870  219.2580 C   0  0  0  0  0  0  0  0  0  0  0  0
  145.1310   70.8840  219.1960 C   0  0  0  0  0  0  0  0  0  0  0  0
  145.3750   72.1100  220.0570 C   0  0  0  0  0  0  0  0  0  0  0  0
  144.2580   73.0870  219.7600 C   0  0  0  0  0  0  0  0  0  0  0  0
  142.9770   72.4620  220.0220 N   0  0  0  0  0  0  0  0  0  0  0  0
  141.9830   73.1110  220.8070 C   0  0  0  0  0  0  0  0  0  0  0  0
  141.1070   72.4160  221.5360 N   0  0  0  0  0  0  0  0  0  0  0  0
  140.1490   73.0310  222.2930 C   0  0  0  0  0  0  0  0  0  0  0  0
  139.2280   72.2590  223.0610 N   0  0  0  0  0  0  0  0  0  0  0  0
  139.6610   70.9780  223.5350 C   0  0  0  0  0  0  0  0  0  0  0  0
  140.9930   71.1930  224.2570 C   0  0  0  0  0  0  0  0  0  0  0  0
  140.6770   70.9830  225.7120 C   0  0  0  0  0  0  0  0  0  0  0  0
  139.9790   69.8300  226.0150 C   0  0  0  0  0  0  0  0  0  0  0  0
  139.6620   69.5900  227.3490 C   0  0  0  0  0  0  0  0  0  0  0  0
  140.0430   70.4920  228.3360 C   0  0  0  0  0  0  0  0  0  0  0  0
  140.7450   71.6400  227.9880 C   0  0  0  0  0  0  0  0  0  0  0  0
  141.0700   71.9000  226.6660 C   0  0  0  0  0  0  0  0  0  0  0  0
  140.1170   74.3890  222.2770 N   0  0  0  0  0  0  0  0  0  0  0  0
  140.9820   75.1150  221.5540 C   0  0  0  0  0  0  0  0  0  0  0  0
  140.9010   76.5360  221.5770 N   0  0  0  0  0  0  0  0  0  0  0  0
  140.7750   77.2070  220.3010 C   0  0  0  0  0  0  0  0  0  0  0  0
  141.8380   78.2690  220.1300 C   0  0  0  0  0  0  0  0  0  0  0  0
  141.8000   79.1800  221.3280 C   0  0  0  0  0  0  0  0  0  0  0  0
  142.2030   80.4940  221.1460 C   0  0  0  0  0  0  0  0  0  0  0  0
  142.1820   81.3590  222.2220 C   0  0  0  0  0  0  0  0  0  0  0  0
  141.7620   80.9040  223.4530 C   0  0  0  0  0  0  0  0  0  0  0  0
  141.3600   79.5760  223.6180 C   0  0  0  0  0  0  0  0  0  0  0  0
  141.3740   78.6870  222.5400 C   0  0  0  0  0  0  0  0  0  0  0  0
  140.9390   77.3050  222.7790 C   0  0  0  0  0  0  0  0  0  0  0  0
  141.9160   74.4530  220.8200 N   0  0  0  0  0  0  0  0  0  0  0  0
  142.7220   71.1490  219.4630 C   0  0  0  0  0  0  0  0  0  0  0  0
  143.8860   70.2070  219.7030 C   0  0  0  0  0  0  0  0  0  0  0  0
  146.0730   68.4840  220.5970 H   0  0  0  0  0  0  0  0  0  0  0  0
  146.3280   67.9180  218.9900 H   0  0  0  0  0  0  0  0  0  0  0  0
  147.0356   70.3387  220.0369 H   0  0  0  0  0  0  0  0  0  0  0  0
  146.8868   69.9896  218.3018 H   0  0  0  0  0  0  0  0  0  0  0  0
  144.9782   71.1484  218.1392 H   0  0  0  0  0  0  0  0  0  0  0  0
  145.3619   71.8330  221.1215 H   0  0  0  0  0  0  0  0  0  0  0  0
  146.3562   72.5559  219.8370 H   0  0  0  0  0  0  0  0  0  0  0  0
  144.3691   73.9745  220.4003 H   0  0  0  0  0  0  0  0  0  0  0  0
  144.3074   73.3848  218.7022 H   0  0  0  0  0  0  0  0  0  0  0  0
  138.2760   72.6390  223.2570 H   0  0  0  0  0  0  0  0  0  0  0  0
  138.9174   70.5619  224.2307 H   0  0  0  0  0  0  0  0  0  0  0  0
  139.7772   70.2703  222.7009 H   0  0  0  0  0  0  0  0  0  0  0  0
  141.7423   70.4645  223.9137 H   0  0  0  0  0  0  0  0  0  0  0  0
  141.4155   72.1899  224.0626 H   0  0  0  0  0  0  0  0  0  0  0  0
  139.6827   69.1230  225.2261 H   0  0  0  0  0  0  0  0  0  0  0  0
  139.1067   68.6811  227.6239 H   0  0  0  0  0  0  0  0  0  0  0  0
  139.7897   70.2978  229.3887 H   0  0  0  0  0  0  0  0  0  0  0  0
  141.0463   72.3509  228.7714 H   0  0  0  0  0  0  0  0  0  0  0  0
  141.6236   72.8083  226.3859 H   0  0  0  0  0  0  0  0  0  0  0  0
  140.8767   76.4655  219.4949 H   0  0  0  0  0  0  0  0  0  0  0  0
  139.7893   77.6935  220.2610 H   0  0  0  0  0  0  0  0  0  0  0  0
  142.8277   77.7948  220.0557 H   0  0  0  0  0  0  0  0  0  0  0  0
  141.6507   78.8454  219.2120 H   0  0  0  0  0  0  0  0  0  0  0  0
  142.5352   80.8429  220.1571 H   0  0  0  0  0  0  0  0  0  0  0  0
  142.4987   82.4050  222.0973 H   0  0  0  0  0  0  0  0  0  0  0  0
  141.7430   81.5911  224.3118 H   0  0  0  0  0  0  0  0  0  0  0  0
  141.0290   79.2266  224.6071 H   0  0  0  0  0  0  0  0  0  0  0  0
  141.6393   76.8297  223.4816 H   0  0  0  0  0  0  0  0  0  0  0  0
  139.9195   77.3384  223.1908 H   0  0  0  0  0  0  0  0  0  0  0  0
  141.8201   70.7296  219.9327 H   0  0  0  0  0  0  0  0  0  0  0  0
  142.5839   71.2572  218.3771 H   0  0  0  0  0  0  0  0  0  0  0  0
  143.9840   69.9982  220.7785 H   0  0  0  0  0  0  0  0  0  0  0  0
  143.7249   69.2527  219.1802 H   0  0  0  0  0  0  0  0  0  0  0  0
  1  2  1  0
  2  3  1  0
  3  4  1  0
  4  5  1  0
  5  6  1  0
  6  7  1  0
  7  8  2  0
  8  9  1  0
  9 10  1  0
 10 11  1  0
 11 12  1  0
 12 13  1  0
 13 14  2  0
 14 15  1  0
 15 16  2  0
 16 17  1  0
 17 18  2  0
  9 19  2  0
 19 20  1  0
 20 21  1  0
 21 22  1  0
 22 23  1  0
 23 24  1  0
 24 25  2  0
 25 26  1  0
 26 27  2  0
 27 28  1  0
 28 29  2  0
 29 30  1  0
 20 31  2  0
  6 32  1  0
 32 33  1  0
 33  3  1  0
 31  7  1  0
 18 13  1  0
 30 21  1  0
 29 24  1  0
  1 34  1  0
  1 35  1  0
  2 36  1  0
  2 37  1  0
  3 38  1  0
  4 39  1  0
  4 40  1  0
  5 41  1  0
  5 42  1  0
 10 43  1  0
 11 44  1  0
 11 45  1  0
 12 46  1  0
 12 47  1  0
 14 48  1  0
 15 49  1  0
 16 50  1  0
 17 51  1  0
 18 52  1  0
 22 53  1  0
 22 54  1  0
 23 55  1  0
 23 56  1  0
 25 57  1  0
 26 58  1  0
 27 59  1  0
 28 60  1  0
 30 61  1  0
 30 62  1  0
 32 63  1  0
 32 64  1  0
 33 65  1  0
 33 66  1  0
M  END
>  <smiles>  (18) 
NCC1CCN(c2nc(NCCc3ccccc3)nc(N3CCc4ccccc4C3)n2)CC1

>  <score_type>  (18) 
oracle

>  <origin>  (18) 
autodockgpu

>  <m_score__min__energy>  (18) 
-10.140000000000001

>  <m_primary>  (18) 
energy

>  <rmsd>  (18) 
4.750976852110108

>  <m_score__min__rmsd>  (18) 
4.750976852110108

>  <meeko>  (18) 
{"free_energy": -9.84, "intermolecular_energy": -12.22, "internal_energy": -1.11, "cluster_size": 16, "cluster_id": 1, "rank_in_cluster": 12}

>  <energy>  (18) 
-9.89

>  <cluster_rmsd>  (18) 
0.1

>  <cluster>  (18) 
2

$$$$

     RDKit          3D

 66 70  0  0  0  0  0  0  0  0999 V2000
  142.5540   79.0860  222.1670 N   0  0  0  0  0  0  0  0  0  0  0  0
  141.3520   79.3240  221.3630 C   0  0  0  0  0  0  0  0  0  0  0  0
  140.7050   77.9780  221.1430 C   0  0  0  0  0  0  0  0  0  0  0  0
  140.6640   77.2260  222.4600 C   0  0  0  0  0  0  0  0  0  0  0  0
  139.7860   76.0110  222.2460 C   0  0  0  0  0  0  0  0  0  0  0  0
  140.3120   75.2110  221.1580 N   0  0  0  0  0  0  0  0  0  0  0  0
  140.5000   73.8060  221.2940 C   0  0  0  0  0  0  0  0  0  0  0  0
  140.9050   73.0550  220.2670 N   0  0  0  0  0  0  0  0  0  0  0  0
  141.0880   71.7060  220.3890 C   0  0  0  0  0  0  0  0  0  0  0  0
  141.5210   70.9310  219.2730 N   0  0  0  0  0  0  0  0  0  0  0  0
  142.9280   70.6990  219.1280 C   0  0  0  0  0  0  0  0  0  0  0  0
  143.4920   71.8590  218.3060 C   0  0  0  0  0  0  0  0  0  0  0  0
  144.3520   72.6280  219.2690 C   0  0  0  0  0  0  0  0  0  0  0  0
  143.9080   73.8960  219.5930 C   0  0  0  0  0  0  0  0  0  0  0  0
  144.6700   74.6480  220.4810 C   0  0  0  0  0  0  0  0  0  0  0  0
  145.8420   74.1280  221.0190 C   0  0  0  0  0  0  0  0  0  0  0  0
  146.2540   72.8480  220.6670 C   0  0  0  0  0  0  0  0  0  0  0  0
  145.5110   72.0810  219.7840 C   0  0  0  0  0  0  0  0  0  0  0  0
  140.8390   71.1480  221.6030 N   0  0  0  0  0  0  0  0  0  0  0  0
  140.4300   71.8770  222.6520 C   0  0  0  0  0  0  0  0  0  0  0  0
  140.1850   71.2380  223.9010 N   0  0  0  0  0  0  0  0  0  0  0  0
  140.6480   71.9210  225.0890 C   0  0  0  0  0  0  0  0  0  0  0  0
  141.5210   71.0220  225.9370 C   0  0  0  0  0  0  0  0  0  0  0  0
  140.7750   69.7400  226.1960 C   0  0  0  0  0  0  0  0  0  0  0  0
  141.0600   69.0590  227.3700 C   0  0  0  0  0  0  0  0  0  0  0  0
  140.3960   67.8800  227.6420 C   0  0  0  0  0  0  0  0  0  0  0  0
  139.4640   67.4010  226.7460 C   0  0  0  0  0  0  0  0  0  0  0  0
  139.1900   68.1000  225.5680 C   0  0  0  0  0  0  0  0  0  0  0  0
  139.8530   69.2960  225.2770 C   0  0  0  0  0  0  0  0  0  0  0  0
  139.5190   69.9820  224.0220 C   0  0  0  0  0  0  0  0  0  0  0  0
  140.2650   73.2150  222.4770 N   0  0  0  0  0  0  0  0  0  0  0  0
  140.6470   75.8740  219.9120 C   0  0  0  0  0  0  0  0  0  0  0  0
  141.4600   77.1320  220.1530 C   0  0  0  0  0  0  0  0  0  0  0  0
  143.2650   79.7940  221.8610 H   0  0  0  0  0  0  0  0  0  0  0  0
  142.9210   78.1140  222.0180 H   0  0  0  0  0  0  0  0  0  0  0  0
  140.6630   79.9928  221.8997 H   0  0  0  0  0  0  0  0  0  0  0  0
  141.6043   79.8034  220.4057 H   0  0  0  0  0  0  0  0  0  0  0  0
  139.6963   78.1634  220.7453 H   0  0  0  0  0  0  0  0  0  0  0  0
  141.6784   76.9135  222.7488 H   0  0  0  0  0  0  0  0  0  0  0  0
  140.2663   77.8623  223.2643 H   0  0  0  0  0  0  0  0  0  0  0  0
  139.7659   75.4083  223.1660 H   0  0  0  0  0  0  0  0  0  0  0  0
  138.7664   76.3391  221.9957 H   0  0  0  0  0  0  0  0  0  0  0  0
  140.8170   70.5570  218.6000 H   0  0  0  0  0  0  0  0  0  0  0  0
  143.4093   70.6679  220.1167 H   0  0  0  0  0  0  0  0  0  0  0  0
  143.1171   69.7370  218.6292 H   0  0  0  0  0  0  0  0  0  0  0  0
  144.0930   71.4822  217.4652 H   0  0  0  0  0  0  0  0  0  0  0  0
  142.6986   72.4825  217.8680 H   0  0  0  0  0  0  0  0  0  0  0  0
  142.9797   74.2985  219.1615 H   0  0  0  0  0  0  0  0  0  0  0  0
  144.3433   75.6608  220.7595 H   0  0  0  0  0  0  0  0  0  0  0  0
  146.4409   74.7273  221.7205 H   0  0  0  0  0  0  0  0  0  0  0  0
  147.1812   72.4389  221.0947 H   0  0  0  0  0  0  0  0  0  0  0  0
  145.8341   71.0681  219.5020 H   0  0  0  0  0  0  0  0  0  0  0  0
  141.2292   72.8057  224.7898 H   0  0  0  0  0  0  0  0  0  0  0  0
  139.7707   72.2138  225.6844 H   0  0  0  0  0  0  0  0  0  0  0  0
  142.4585   70.8049  225.4042 H   0  0  0  0  0  0  0  0  0  0  0  0
  141.7611   71.5179  226.8890 H   0  0  0  0  0  0  0  0  0  0  0  0
  141.8059   69.4536  228.0756 H   0  0  0  0  0  0  0  0  0  0  0  0
  140.6091   67.3259  228.5680 H   0  0  0  0  0  0  0  0  0  0  0  0
  138.9326   66.4620  226.9602 H   0  0  0  0  0  0  0  0  0  0  0  0
  138.4447   67.7052  224.8618 H   0  0  0  0  0  0  0  0  0  0  0  0
  139.8150   69.3413  223.1783 H   0  0  0  0  0  0  0  0  0  0  0  0
  138.4356   70.1724  224.0190 H   0  0  0  0  0  0  0  0  0  0  0  0
  141.2325   75.1844  219.2863 H   0  0  0  0  0  0  0  0  0  0  0  0
  139.7107   76.1589  219.4099 H   0  0  0  0  0  0  0  0  0  0  0  0
  142.4472   76.8685  220.5605 H   0  0  0  0  0  0  0  0  0  0  0  0
  141.6116   77.6807  219.2118 H   0  0  0  0  0  0  0  0  0  0  0  0
  1  2  1  0
  2  3  1  0
  3  4  1  0
  4  5  1  0
  5  6  1  0
  6  7  1  0
  7  8  2  0
  8  9  1  0
  9 10  1  0
 10 11  1  0
 11 12  1  0
 12 13  1  0
 13 14  2  0
 14 15  1  0
 15 16  2  0
 16 17  1  0
 17 18  2  0
  9 19  2  0
 19 20  1  0
 20 21  1  0
 21 22  1  0
 22 23  1  0
 23 24  1  0
 24 25  2  0
 25 26  1  0
 26 27  2  0
 27 28  1  0
 28 29  2  0
 29 30  1  0
 20 31  2  0
  6 32  1  0
 32 33  1  0
 33  3  1  0
 31  7  1  0
 18 13  1  0
 30 21  1  0
 29 24  1  0
  1 34  1  0
  1 35  1  0
  2 36  1  0
  2 37  1  0
  3 38  1  0
  4 39  1  0
  4 40  1  0
  5 41  1  0
  5 42  1  0
 10 43  1  0
 11 44  1  0
 11 45  1  0
 12 46  1  0
 12 47  1  0
 14 48  1  0
 15 49  1  0
 16 50  1  0
 17 51  1  0
 18 52  1  0
 22 53  1  0
 22 54  1  0
 23 55  1  0
 23 56  1  0
 25 57  1  0
 26 58  1  0
 27 59  1  0
 28 60  1  0
 30 61  1  0
 30 62  1  0
 32 63  1  0
 32 64  1  0
 33 65  1  0
 33 66  1  0
M  END
>  <smiles>  (19) 
NCC1CCN(c2nc(NCCc3ccccc3)nc(N3CCc4ccccc4C3)n2)CC1

>  <score_type>  (19) 
oracle

>  <origin>  (19) 
autodockgpu

>  <m_score__min__energy>  (19) 
-10.140000000000001

>  <m_primary>  (19) 
energy

>  <rmsd>  (19) 
11.954567264272487

>  <m_score__min__rmsd>  (19) 
11.954567264272487

>  <meeko>  (19) 
{"free_energy": -9.03, "intermolecular_energy": -11.42, "internal_energy": -1.72, "cluster_size": 7, "cluster_id": 3, "rank_in_cluster": 5}

>  <energy>  (19) 
-9.88

>  <cluster_rmsd>  (19) 
0.41

>  <cluster>  (19) 
2

$$$$

     RDKit          3D

 66 70  0  0  0  0  0  0  0  0999 V2000
  140.3760   68.2320  227.3330 N   0  0  0  0  0  0  0  0  0  0  0  0
  139.5710   68.0560  226.1220 C   0  0  0  0  0  0  0  0  0  0  0  0
  139.5260   69.3980  225.4320 C   0  0  0  0  0  0  0  0  0  0  0  0
  139.0790   69.2020  223.9950 C   0  0  0  0  0  0  0  0  0  0  0  0
  138.8010   70.5780  223.4290 C   0  0  0  0  0  0  0  0  0  0  0  0
  139.9870   71.4040  223.5420 N   0  0  0  0  0  0  0  0  0  0  0  0
  140.4810   72.1470  222.4330 C   0  0  0  0  0  0  0  0  0  0  0  0
  141.0280   71.5400  221.3770 N   0  0  0  0  0  0  0  0  0  0  0  0
  141.5050   72.2450  220.3070 C   0  0  0  0  0  0  0  0  0  0  0  0
  142.0840   71.5680  219.1940 N   0  0  0  0  0  0  0  0  0  0  0  0
  142.4790   72.3560  218.0640 C   0  0  0  0  0  0  0  0  0  0  0  0
  143.9770   72.1270  217.8580 C   0  0  0  0  0  0  0  0  0  0  0  0
  144.6300   72.7640  219.0530 C   0  0  0  0  0  0  0  0  0  0  0  0
  144.1930   74.0350  219.3710 C   0  0  0  0  0  0  0  0  0  0  0  0
  144.7670   74.6680  220.4700 C   0  0  0  0  0  0  0  0  0  0  0  0
  145.7500   74.0280  221.2150 C   0  0  0  0  0  0  0  0  0  0  0  0
  146.1620   72.7480  220.8620 C   0  0  0  0  0  0  0  0  0  0  0  0
  145.6040   72.1000  219.7710 C   0  0  0  0  0  0  0  0  0  0  0  0
  141.4050   73.5990  220.3560 N   0  0  0  0  0  0  0  0  0  0  0  0
  140.8610   74.2370  221.4040 C   0  0  0  0  0  0  0  0  0  0  0  0
  140.7820   75.6580  221.3990 N   0  0  0  0  0  0  0  0  0  0  0  0
  140.9100   76.3190  220.1180 C   0  0  0  0  0  0  0  0  0  0  0  0
  141.9900   77.3780  220.1500 C   0  0  0  0  0  0  0  0  0  0  0  0
  141.7210   78.2990  221.3110 C   0  0  0  0  0  0  0  0  0  0  0  0
  142.1570   79.6100  221.2010 C   0  0  0  0  0  0  0  0  0  0  0  0
  141.9280   80.4840  222.2450 C   0  0  0  0  0  0  0  0  0  0  0  0
  141.2740   80.0400  223.3740 C   0  0  0  0  0  0  0  0  0  0  0  0
  140.8420   78.7140  223.4670 C   0  0  0  0  0  0  0  0  0  0  0  0
  141.0650   77.8160  222.4190 C   0  0  0  0  0  0  0  0  0  0  0  0
  140.5860   76.4370  222.5790 C   0  0  0  0  0  0  0  0  0  0  0  0
  140.4010   73.4880  222.4410 N   0  0  0  0  0  0  0  0  0  0  0  0
  140.6690   71.4620  224.8200 C   0  0  0  0  0  0  0  0  0  0  0  0
  140.8680   70.0780  225.4080 C   0  0  0  0  0  0  0  0  0  0  0  0
  141.3670   68.3660  227.0190 H   0  0  0  0  0  0  0  0  0  0  0  0
  140.3030   67.3930  227.9600 H   0  0  0  0  0  0  0  0  0  0  0  0
  140.0351   67.3067  225.4638 H   0  0  0  0  0  0  0  0  0  0  0  0
  138.5585   67.7034  226.3678 H   0  0  0  0  0  0  0  0  0  0  0  0
  138.8254   70.0304  225.9970 H   0  0  0  0  0  0  0  0  0  0  0  0
  139.8732   68.7082  223.4159 H   0  0  0  0  0  0  0  0  0  0  0  0
  138.1820   68.5673  223.9450 H   0  0  0  0  0  0  0  0  0  0  0  0
  138.5189   70.4870  222.3697 H   0  0  0  0  0  0  0  0  0  0  0  0
  137.9790   71.0434  223.9927 H   0  0  0  0  0  0  0  0  0  0  0  0
  142.2050   70.5320  219.2260 H   0  0  0  0  0  0  0  0  0  0  0  0
  141.9223   72.0390  217.1698 H   0  0  0  0  0  0  0  0  0  0  0  0
  142.2656   73.4214  218.2357 H   0  0  0  0  0  0  0  0  0  0  0  0
  144.2031   71.0511  217.8203 H   0  0  0  0  0  0  0  0  0  0  0  0
  144.3364   72.5551  216.9106 H   0  0  0  0  0  0  0  0  0  0  0  0
  143.4146   74.5323  218.7737 H   0  0  0  0  0  0  0  0  0  0  0  0
  144.4406   75.6804  220.7502 H   0  0  0  0  0  0  0  0  0  0  0  0
  146.2011   74.5329  222.0819 H   0  0  0  0  0  0  0  0  0  0  0  0
  146.9393   72.2439  221.4550 H   0  0  0  0  0  0  0  0  0  0  0  0
  145.9274   71.0879  219.4863 H   0  0  0  0  0  0  0  0  0  0  0  0
  141.1646   75.5709  219.3529 H   0  0  0  0  0  0  0  0  0  0  0  0
  139.9527   76.8071  219.8826 H   0  0  0  0  0  0  0  0  0  0  0  0
  142.9736   76.9014  220.2744 H   0  0  0  0  0  0  0  0  0  0  0  0
  141.9882   77.9472  219.2087 H   0  0  0  0  0  0  0  0  0  0  0  0
  142.6785   79.9496  220.2940 H   0  0  0  0  0  0  0  0  0  0  0  0
  142.2656   81.5287  222.1761 H   0  0  0  0  0  0  0  0  0  0  0  0
  141.0908   80.7339  224.2076 H   0  0  0  0  0  0  0  0  0  0  0  0
  140.3212   78.3735  224.3741 H   0  0  0  0  0  0  0  0  0  0  0  0
  141.1327   75.9661  223.4093 H   0  0  0  0  0  0  0  0  0  0  0  0
  139.5057   76.4761  222.7823 H   0  0  0  0  0  0  0  0  0  0  0  0
  141.6520   71.9351  224.6793 H   0  0  0  0  0  0  0  0  0  0  0  0
  140.0488   72.0463  225.5156 H   0  0  0  0  0  0  0  0  0  0  0  0
  141.5691   69.5029  224.7853 H   0  0  0  0  0  0  0  0  0  0  0  0
  141.2857   70.1455  226.4234 H   0  0  0  0  0  0  0  0  0  0  0  0
  1  2  1  0
  2  3  1  0
  3  4  1  0
  4  5  1  0
  5  6  1  0
  6  7  1  0
  7  8  2  0
  8  9  1  0
  9 10  1  0
 10 11  1  0
 11 12  1  0
 12 13  1  0
 13 14  2  0
 14 15  1  0
 15 16  2  0
 16 17  1  0
 17 18  2  0
  9 19  2  0
 19 20  1  0
 20 21  1  0
 21 22  1  0
 22 23  1  0
 23 24  1  0
 24 25  2  0
 25 26  1  0
 26 27  2  0
 27 28  1  0
 28 29  2  0
 29 30  1  0
 20 31  2  0
  6 32  1  0
 32 33  1  0
 33  3  1  0
 31  7  1  0
 18 13  1  0
 30 21  1  0
 29 24  1  0
  1 34  1  0
  1 35  1  0
  2 36  1  0
  2 37  1  0
  3 38  1  0
  4 39  1  0
  4 40  1  0
  5 41  1  0
  5 42  1  0
 10 43  1  0
 11 44  1  0
 11 45  1  0
 12 46  1  0
 12 47  1  0
 14 48  1  0
 15 49  1  0
 16 50  1  0
 17 51  1  0
 18 52  1  0
 22 53  1  0
 22 54  1  0
 23 55  1  0
 23 56  1  0
 25 57  1  0
 26 58  1  0
 27 59  1  0
 28 60  1  0
 30 61  1  0
 30 62  1  0
 32 63  1  0
 32 64  1  0
 33 65  1  0
 33 66  1  0
M  END
>  <smiles>  (20) 
NCC1CCN(c2nc(NCCc3ccccc3)nc(N3CCc4ccccc4C3)n2)CC1

>  <score_type>  (20) 
oracle

>  <origin>  (20) 
autodockgpu

>  <m_score__min__energy>  (20) 
-10.140000000000001

>  <m_primary>  (20) 
energy

>  <rmsd>  (20) 
4.608222070432426

>  <m_score__min__rmsd>  (20) 
4.608222070432426

>  <meeko>  (20) 
{"free_energy": -8.39, "intermolecular_energy": -10.77, "internal_energy": -1.71, "cluster_size": 15, "cluster_id": 4, "rank_in_cluster": 15}

>  <energy>  (20) 
-9.85

>  <cluster_rmsd>  (20) 
0.45

>  <cluster>  (20) 
2

$$$$

     RDKit          3D

 66 70  0  0  0  0  0  0  0  0999 V2000
  145.9350   68.4180  219.7310 N   0  0  0  0  0  0  0  0  0  0  0  0
  146.2700   69.6200  218.9620 C   0  0  0  0  0  0  0  0  0  0  0  0
  145.0390   70.4940  218.9660 C   0  0  0  0  0  0  0  0  0  0  0  0
  145.3220   71.7460  219.7750 C   0  0  0  0  0  0  0  0  0  0  0  0
  144.1680   72.6960  219.5360 C   0  0  0  0  0  0  0  0  0  0  0  0
  142.9210   72.0560  219.9070 N   0  0  0  0  0  0  0  0  0  0  0  0
  141.9740   72.7090  220.7450 C   0  0  0  0  0  0  0  0  0  0  0  0
  141.1630   72.0180  221.5490 N   0  0  0  0  0  0  0  0  0  0  0  0
  140.2500   72.6360  222.3570 C   0  0  0  0  0  0  0  0  0  0  0  0
  139.3970   71.8700  223.2040 N   0  0  0  0  0  0  0  0  0  0  0  0
  139.8450   70.5680  223.6020 C   0  0  0  0  0  0  0  0  0  0  0  0
  138.9180   70.0980  224.7250 C   0  0  0  0  0  0  0  0  0  0  0  0
  139.6750   70.3880  225.9920 C   0  0  0  0  0  0  0  0  0  0  0  0
  140.4600   71.5250  225.9770 C   0  0  0  0  0  0  0  0  0  0  0  0
  141.1800   71.8360  227.1260 C   0  0  0  0  0  0  0  0  0  0  0  0
  141.1040   71.0180  228.2480 C   0  0  0  0  0  0  0  0  0  0  0  0
  140.3020   69.8830  228.2210 C   0  0  0  0  0  0  0  0  0  0  0  0
  139.5770   69.5540  227.0880 C   0  0  0  0  0  0  0  0  0  0  0  0
  140.1960   73.9930  222.3150 N   0  0  0  0  0  0  0  0  0  0  0  0
  140.9980   74.7140  221.5180 C   0  0  0  0  0  0  0  0  0  0  0  0
  140.8960   76.1340  221.5160 N   0  0  0  0  0  0  0  0  0  0  0  0
  140.9250   76.7930  220.2270 C   0  0  0  0  0  0  0  0  0  0  0  0
  141.9880   77.8680  220.1820 C   0  0  0  0  0  0  0  0  0  0  0  0
  141.7860   78.7880  221.3560 C   0  0  0  0  0  0  0  0  0  0  0  0
  142.1930   80.1060  221.2140 C   0  0  0  0  0  0  0  0  0  0  0  0
  142.0240   80.9800  222.2700 C   0  0  0  0  0  0  0  0  0  0  0  0
  141.4560   80.5300  223.4420 C   0  0  0  0  0  0  0  0  0  0  0  0
  141.0520   79.1980  223.5670 C   0  0  0  0  0  0  0  0  0  0  0  0
  141.2160   78.3000  222.5090 C   0  0  0  0  0  0  0  0  0  0  0  0
  140.7710   76.9140  222.7050 C   0  0  0  0  0  0  0  0  0  0  0  0
  141.8880   74.0500  220.7340 N   0  0  0  0  0  0  0  0  0  0  0  0
  142.6510   70.7240  219.4020 C   0  0  0  0  0  0  0  0  0  0  0  0
  143.8480   69.8090  219.5800 C   0  0  0  0  0  0  0  0  0  0  0  0
  146.8120   68.1210  220.2220 H   0  0  0  0  0  0  0  0  0  0  0  0
  145.5920   67.6510  219.1010 H   0  0  0  0  0  0  0  0  0  0  0  0
  147.1120   70.1488  219.4326 H   0  0  0  0  0  0  0  0  0  0  0  0
  146.5694   69.3625  217.9353 H   0  0  0  0  0  0  0  0  0  0  0  0
  144.8038   70.7275  217.9171 H   0  0  0  0  0  0  0  0  0  0  0  0
  145.3917   71.4974  220.8443 H   0  0  0  0  0  0  0  0  0  0  0  0
  146.2760   72.2023  219.4723 H   0  0  0  0  0  0  0  0  0  0  0  0
  144.3087   73.6019  220.1439 H   0  0  0  0  0  0  0  0  0  0  0  0
  144.1347   72.9667  218.4703 H   0  0  0  0  0  0  0  0  0  0  0  0
  138.4810   72.2670  223.5100 H   0  0  0  0  0  0  0  0  0  0  0  0
  139.7894   69.8732  222.7510 H   0  0  0  0  0  0  0  0  0  0  0  0
  140.8899   70.6008  223.9443 H   0  0  0  0  0  0  0  0  0  0  0  0
  137.9696   70.6549  224.7037 H   0  0  0  0  0  0  0  0  0  0  0  0
  138.6568   69.0336  224.6308 H   0  0  0  0  0  0  0  0  0  0  0  0
  140.5140   72.1647  225.0838 H   0  0  0  0  0  0  0  0  0  0  0  0
  141.8136   72.7349  227.1472 H   0  0  0  0  0  0  0  0  0  0  0  0
  141.6764   71.2682  229.1534 H   0  0  0  0  0  0  0  0  0  0  0  0
  140.2425   69.2384  229.1103 H   0  0  0  0  0  0  0  0  0  0  0  0
  138.9425   68.6558  227.0620 H   0  0  0  0  0  0  0  0  0  0  0  0
  141.1376   76.0463  219.4477 H   0  0  0  0  0  0  0  0  0  0  0  0
  139.9464   77.2657  220.0572 H   0  0  0  0  0  0  0  0  0  0  0  0
  142.9850   77.4067  220.2392 H   0  0  0  0  0  0  0  0  0  0  0  0
  141.9124   78.4341  219.2419 H   0  0  0  0  0  0  0  0  0  0  0  0
  142.6447   80.4510  220.2723 H   0  0  0  0  0  0  0  0  0  0  0  0
  142.3410   82.0291  222.1760 H   0  0  0  0  0  0  0  0  0  0  0  0
  141.3197   81.2237  224.2847 H   0  0  0  0  0  0  0  0  0  0  0  0
  140.6000   78.8527  224.5085 H   0  0  0  0  0  0  0  0  0  0  0  0
  141.3818   76.4544  223.4960 H   0  0  0  0  0  0  0  0  0  0  0  0
  139.7070   76.9372  222.9832 H   0  0  0  0  0  0  0  0  0  0  0  0
  141.7941   70.3018  219.9474 H   0  0  0  0  0  0  0  0  0  0  0  0
  142.4316   70.8003  218.3268 H   0  0  0  0  0  0  0  0  0  0  0  0
  144.0282   69.6309  220.6504 H   0  0  0  0  0  0  0  0  0  0  0  0
  143.6680   68.8382  219.0951 H   0  0  0  0  0  0  0  0  0  0  0  0
  1  2  1  0
  2  3  1  0
  3  4  1  0
  4  5  1  0
  5  6  1  0
  6  7  1  0
  7  8  2  0
  8  9  1  0
  9 10  1  0
 10 11  1  0
 11 12  1  0
 12 13  1  0
 13 14  2  0
 14 15  1  0
 15 16  2  0
 16 17  1  0
 17 18  2  0
  9 19  2  0
 19 20  1  0
 20 21  1  0
 21 22  1  0
 22 23  1  0
 23 24  1  0
 24 25  2  0
 25 26  1  0
 26 27  2  0
 27 28  1  0
 28 29  2  0
 29 30  1  0
 20 31  2  0
  6 32  1  0
 32 33  1  0
 33  3  1  0
 31  7  1  0
 18 13  1  0
 30 21  1  0
 29 24  1  0
  1 34  1  0
  1 35  1  0
  2 36  1  0
  2 37  1  0
  3 38  1  0
  4 39  1  0
  4 40  1  0
  5 41  1  0
  5 42  1  0
 10 43  1  0
 11 44  1  0
 11 45  1  0
 12 46  1  0
 12 47  1  0
 14 48  1  0
 15 49  1  0
 16 50  1  0
 17 51  1  0
 18 52  1  0
 22 53  1  0
 22 54  1  0
 23 55  1  0
 23 56  1  0
 25 57  1  0
 26 58  1  0
 27 59  1  0
 28 60  1  0
 30 61  1  0
 30 62  1  0
 32 63  1  0
 32 64  1  0
 33 65  1  0
 33 66  1  0
M  END
>  <smiles>  (21) 
NCC1CCN(c2nc(NCCc3ccccc3)nc(N3CCc4ccccc4C3)n2)CC1

>  <score_type>  (21) 
oracle

>  <origin>  (21) 
autodockgpu

>  <m_score__min__energy>  (21) 
-10.140000000000001

>  <m_primary>  (21) 
energy

>  <rmsd>  (21) 
4.68021170446931

>  <m_score__min__rmsd>  (21) 
4.68021170446931

>  <meeko>  (21) 
{"free_energy": -10.03, "intermolecular_energy": -12.42, "internal_energy": -1.02, "cluster_size": 16, "cluster_id": 1, "rank_in_cluster": 5}

>  <energy>  (21) 
-9.33

>  <cluster_rmsd>  (21) 
1.5

>  <cluster>  (21) 
2

$$$$

     RDKit          3D

 66 70  0  0  0  0  0  0  0  0999 V2000
  146.6750   69.6970  217.5490 N   0  0  0  0  0  0  0  0  0  0  0  0
  146.3670   69.9630  218.9570 C   0  0  0  0  0  0  0  0  0  0  0  0
  145.1990   70.9190  218.9720 C   0  0  0  0  0  0  0  0  0  0  0  0
  145.4800   72.0300  219.9670 C   0  0  0  0  0  0  0  0  0  0  0  0
  144.4170   73.0870  219.7600 C   0  0  0  0  0  0  0  0  0  0  0  0
  143.1030   72.5000  219.9290 N   0  0  0  0  0  0  0  0  0  0  0  0
  142.1210   73.1070  220.7620 C   0  0  0  0  0  0  0  0  0  0  0  0
  141.3280   72.3760  221.5500 N   0  0  0  0  0  0  0  0  0  0  0  0
  140.3830   72.9500  222.3540 C   0  0  0  0  0  0  0  0  0  0  0  0
  139.5510   72.1430  223.1830 N   0  0  0  0  0  0  0  0  0  0  0  0
  140.0930   70.9100  223.6750 C   0  0  0  0  0  0  0  0  0  0  0  0
  139.1710   70.4310  224.7970 C   0  0  0  0  0  0  0  0  0  0  0  0
  139.9070   70.7610  226.0650 C   0  0  0  0  0  0  0  0  0  0  0  0
  140.7230   71.8750  226.0150 C   0  0  0  0  0  0  0  0  0  0  0  0
  141.4270   72.2220  227.1630 C   0  0  0  0  0  0  0  0  0  0  0  0
  141.3040   71.4620  228.3210 C   0  0  0  0  0  0  0  0  0  0  0  0
  140.4730   70.3480  228.3300 C   0  0  0  0  0  0  0  0  0  0  0  0
  139.7630   69.9840  227.1970 C   0  0  0  0  0  0  0  0  0  0  0  0
  140.2760   74.3050  222.3230 N   0  0  0  0  0  0  0  0  0  0  0  0
  141.0580   75.0650  221.5430 C   0  0  0  0  0  0  0  0  0  0  0  0
  140.9010   76.4800  221.5530 N   0  0  0  0  0  0  0  0  0  0  0  0
  140.8130   77.1400  220.2680 C   0  0  0  0  0  0  0  0  0  0  0  0
  141.8270   78.2560  220.1520 C   0  0  0  0  0  0  0  0  0  0  0  0
  141.6730   79.1670  221.3410 C   0  0  0  0  0  0  0  0  0  0  0  0
  142.0160   80.5000  221.1750 C   0  0  0  0  0  0  0  0  0  0  0  0
  141.8880   81.3660  222.2430 C   0  0  0  0  0  0  0  0  0  0  0  0
  141.4220   80.8920  223.4510 C   0  0  0  0  0  0  0  0  0  0  0  0
  141.0810   79.5450  223.5990 C   0  0  0  0  0  0  0  0  0  0  0  0
  141.2040   78.6550  222.5290 C   0  0  0  0  0  0  0  0  0  0  0  0
  140.8290   77.2530  222.7510 C   0  0  0  0  0  0  0  0  0  0  0  0
  141.9820   74.4430  220.7630 N   0  0  0  0  0  0  0  0  0  0  0  0
  142.8000   71.2690  219.2240 C   0  0  0  0  0  0  0  0  0  0  0  0
  143.9140   70.2510  219.3790 C   0  0  0  0  0  0  0  0  0  0  0  0
  145.7740   69.4130  217.0930 H   0  0  0  0  0  0  0  0  0  0  0  0
  147.3880   68.9320  217.4560 H   0  0  0  0  0  0  0  0  0  0  0  0
  146.0980   69.0276  219.4696 H   0  0  0  0  0  0  0  0  0  0  0  0
  147.2358   70.3914  219.4782 H   0  0  0  0  0  0  0  0  0  0  0  0
  145.0820   71.3048  217.9485 H   0  0  0  0  0  0  0  0  0  0  0  0
  145.4296   71.6393  220.9940 H   0  0  0  0  0  0  0  0  0  0  0  0
  146.4857   72.4489  219.8148 H   0  0  0  0  0  0  0  0  0  0  0  0
  144.5547   73.8927  220.4961 H   0  0  0  0  0  0  0  0  0  0  0  0
  144.5044   73.4962  218.7427 H   0  0  0  0  0  0  0  0  0  0  0  0
  138.5840   72.4620  223.4100 H   0  0  0  0  0  0  0  0  0  0  0  0
  140.1252   70.1631  222.8681 H   0  0  0  0  0  0  0  0  0  0  0  0
  141.1191   71.0527  224.0448 H   0  0  0  0  0  0  0  0  0  0  0  0
  138.2073   70.9601  224.7593 H   0  0  0  0  0  0  0  0  0  0  0  0
  138.9418   69.3581  224.7169 H   0  0  0  0  0  0  0  0  0  0  0  0
  140.8131   72.4699  225.0941 H   0  0  0  0  0  0  0  0  0  0  0  0
  142.0853   73.1032  227.1550 H   0  0  0  0  0  0  0  0  0  0  0  0
  141.8624   71.7415  229.2266 H   0  0  0  0  0  0  0  0  0  0  0  0
  140.3778   69.7483  229.2472 H   0  0  0  0  0  0  0  0  0  0  0  0
  139.1047   69.1027  227.1995 H   0  0  0  0  0  0  0  0  0  0  0  0
  140.9993   76.4027  219.4732 H   0  0  0  0  0  0  0  0  0  0  0  0
  139.8070   77.5738  220.1690 H   0  0  0  0  0  0  0  0  0  0  0  0
  142.8428   77.8343  220.1368 H   0  0  0  0  0  0  0  0  0  0  0  0
  141.6625   78.8195  219.2217 H   0  0  0  0  0  0  0  0  0  0  0  0
  142.3855   80.8633  220.2047 H   0  0  0  0  0  0  0  0  0  0  0  0
  142.1560   82.4269  222.1307 H   0  0  0  0  0  0  0  0  0  0  0  0
  141.3180   81.5788  224.3039 H   0  0  0  0  0  0  0  0  0  0  0  0
  140.7115   79.1811  224.5691 H   0  0  0  0  0  0  0  0  0  0  0  0
  141.5115   76.8172  223.4955 H   0  0  0  0  0  0  0  0  0  0  0  0
  139.7872   77.2335  223.1037 H   0  0  0  0  0  0  0  0  0  0  0  0
  141.8693   70.8449  219.6290 H   0  0  0  0  0  0  0  0  0  0  0  0
  142.6913   71.5016  218.1544 H   0  0  0  0  0  0  0  0  0  0  0  0
  143.9779   69.9211  220.4264 H   0  0  0  0  0  0  0  0  0  0  0  0
  143.7213   69.3683  218.7515 H   0  0  0  0  0  0  0  0  0  0  0  0
  1  2  1  0
  2  3  1  0
  3  4  1  0
  4  5  1  0
  5  6  1  0
  6  7  1  0
  7  8  2  0
  8  9  1  0
  9 10  1  0
 10 11  1  0
 11 12  1  0
 12 13  1  0
 13 14  2  0
 14 15  1  0
 15 16  2  0
 16 17  1  0
 17 18  2  0
  9 19  2  0
 19 20  1  0
 20 21  1  0
 21 22  1  0
 22 23  1  0
 23 24  1  0
 24 25  2  0
 25 26  1  0
 26 27  2  0
 27 28  1  0
 28 29  2  0
 29 30  1  0
 20 31  2  0
  6 32  1  0
 32 33  1  0
 33  3  1  0
 31  7  1  0
 18 13  1  0
 30 21  1  0
 29 24  1  0
  1 34  1  0
  1 35  1  0
  2 36  1  0
  2 37  1  0
  3 38  1  0
  4 39  1  0
  4 40  1  0
  5 41  1  0
  5 42  1  0
 10 43  1  0
 11 44  1  0
 11 45  1  0
 12 46  1  0
 12 47  1  0
 14 48  1  0
 15 49  1  0
 16 50  1  0
 17 51  1  0
 18 52  1  0
 22 53  1  0
 22 54  1  0
 23 55  1  0
 23 56  1  0
 25 57  1  0
 26 58  1  0
 27 59  1  0
 28 60  1  0
 30 61  1  0
 30 62  1  0
 32 63  1  0
 32 64  1  0
 33 65  1  0
 33 66  1  0
M  END
>  <smiles>  (22) 
NCC1CCN(c2nc(NCCc3ccccc3)nc(N3CCc4ccccc4C3)n2)CC1

>  <score_type>  (22) 
oracle

>  <origin>  (22) 
autodockgpu

>  <m_score__min__energy>  (22) 
-10.140000000000001

>  <m_primary>  (22) 
energy

>  <rmsd>  (22) 
4.719208439382186

>  <m_score__min__rmsd>  (22) 
4.719208439382186

>  <meeko>  (22) 
{"free_energy": -9.95, "intermolecular_energy": -12.33, "internal_energy": -1.03, "cluster_size": 16, "cluster_id": 1, "rank_in_cluster": 9}

>  <energy>  (22) 
-9.28

>  <cluster_rmsd>  (22) 
1.54

>  <cluster>  (22) 
2

$$$$

     RDKit          3D

 66 70  0  0  0  0  0  0  0  0999 V2000
  133.1100   73.6960  227.3390 N   0  0  0  0  0  0  0  0  0  0  0  0
  132.2880   72.5740  226.8760 C   0  0  0  0  0  0  0  0  0  0  0  0
  133.1500   71.7590  225.9440 C   0  0  0  0  0  0  0  0  0  0  0  0
  134.1110   70.9180  226.7650 C   0  0  0  0  0  0  0  0  0  0  0  0
  134.7650   69.9400  225.8130 C   0  0  0  0  0  0  0  0  0  0  0  0
  135.4230   70.6630  224.7430 N   0  0  0  0  0  0  0  0  0  0  0  0
  136.7670   70.3760  224.3720 C   0  0  0  0  0  0  0  0  0  0  0  0
  137.4140   69.3170  224.8640 N   0  0  0  0  0  0  0  0  0  0  0  0
  138.7050   69.0340  224.5140 C   0  0  0  0  0  0  0  0  0  0  0  0
  139.3690   67.8960  225.0580 N   0  0  0  0  0  0  0  0  0  0  0  0
  139.3410   67.7220  226.4800 C   0  0  0  0  0  0  0  0  0  0  0  0
  140.7540   68.0040  226.9950 C   0  0  0  0  0  0  0  0  0  0  0  0
  140.8550   69.5030  227.0320 C   0  0  0  0  0  0  0  0  0  0  0  0
  140.3310   70.1150  228.1540 C   0  0  0  0  0  0  0  0  0  0  0  0
  140.4010   71.5020  228.2350 C   0  0  0  0  0  0  0  0  0  0  0  0
  140.9830   72.2380  227.2100 C   0  0  0  0  0  0  0  0  0  0  0  0
  141.4990   71.5850  226.0970 C   0  0  0  0  0  0  0  0  0  0  0  0
  141.4400   70.2040  225.9950 C   0  0  0  0  0  0  0  0  0  0  0  0
  139.3150   69.8760  223.6390 N   0  0  0  0  0  0  0  0  0  0  0  0
  138.6910   70.9480  223.1280 C   0  0  0  0  0  0  0  0  0  0  0  0
  139.3800   71.7950  222.2150 N   0  0  0  0  0  0  0  0  0  0  0  0
  140.2160   71.1510  221.2250 C   0  0  0  0  0  0  0  0  0  0  0  0
  141.6230   71.7070  221.2470 C   0  0  0  0  0  0  0  0  0  0  0  0
  141.5460   73.2060  221.1290 C   0  0  0  0  0  0  0  0  0  0  0  0
  142.6170   73.8570  220.5370 C   0  0  0  0  0  0  0  0  0  0  0  0
  142.5830   75.2310  220.4110 C   0  0  0  0  0  0  0  0  0  0  0  0
  141.4880   75.9300  220.8740 C   0  0  0  0  0  0  0  0  0  0  0  0
  140.4180   75.2570  221.4680 C   0  0  0  0  0  0  0  0  0  0  0  0
  140.4360   73.8660  221.6030 C   0  0  0  0  0  0  0  0  0  0  0  0
  139.2800   73.2190  222.2370 C   0  0  0  0  0  0  0  0  0  0  0  0
  137.4070   71.1830  223.5090 N   0  0  0  0  0  0  0  0  0  0  0  0
  134.6800   71.6950  224.0460 C   0  0  0  0  0  0  0  0  0  0  0  0
  133.9680   72.6180  225.0170 C   0  0  0  0  0  0  0  0  0  0  0  0
  132.8680   73.8510  228.3470 H   0  0  0  0  0  0  0  0  0  0  0  0
  132.9150   74.5630  226.7790 H   0  0  0  0  0  0  0  0  0  0  0  0
  131.9689   71.9600  227.7311 H   0  0  0  0  0  0  0  0  0  0  0  0
  131.3823   72.9322  226.3647 H   0  0  0  0  0  0  0  0  0  0  0  0
  132.4746   71.1373  225.3380 H   0  0  0  0  0  0  0  0  0  0  0  0
  134.8734   71.5605  227.2298 H   0  0  0  0  0  0  0  0  0  0  0  0
  133.5807   70.3882  227.5701 H   0  0  0  0  0  0  0  0  0  0  0  0
  135.5077   69.3398  226.3590 H   0  0  0  0  0  0  0  0  0  0  0  0
  133.9963   69.2790  225.3861 H   0  0  0  0  0  0  0  0  0  0  0  0
  139.8520   67.2260  224.4190 H   0  0  0  0  0  0  0  0  0  0  0  0
  138.6269   68.4259  226.9324 H   0  0  0  0  0  0  0  0  0  0  0  0
  139.0241   66.7022  226.7438 H   0  0  0  0  0  0  0  0  0  0  0  0
  140.8917   67.5811  228.0011 H   0  0  0  0  0  0  0  0  0  0  0  0
  141.5273   67.5506  226.3575 H   0  0  0  0  0  0  0  0  0  0  0  0
  139.8719   69.5232  228.9596 H   0  0  0  0  0  0  0  0  0  0  0  0
  139.9931   72.0193  229.1159 H   0  0  0  0  0  0  0  0  0  0  0  0
  141.0352   73.3346  227.2794 H   0  0  0  0  0  0  0  0  0  0  0  0
  141.9595   72.1708  225.2878 H   0  0  0  0  0  0  0  0  0  0  0  0
  141.8463   69.6824  225.1159 H   0  0  0  0  0  0  0  0  0  0  0  0
  140.2539   70.0720  221.4354 H   0  0  0  0  0  0  0  0  0  0  0  0
  139.7842   71.3391  220.2310 H   0  0  0  0  0  0  0  0  0  0  0  0
  142.1152   71.4340  222.1921 H   0  0  0  0  0  0  0  0  0  0  0  0
  142.2053   71.2925  220.4109 H   0  0  0  0  0  0  0  0  0  0  0  0
  143.4833   73.2857  220.1722 H   0  0  0  0  0  0  0  0  0  0  0  0
  143.4238   75.7651  219.9443 H   0  0  0  0  0  0  0  0  0  0  0  0
  141.4571   77.0251  220.7748 H   0  0  0  0  0  0  0  0  0  0  0  0
  139.5517   75.8279  221.8336 H   0  0  0  0  0  0  0  0  0  0  0  0
  139.2163   73.5536  223.2829 H   0  0  0  0  0  0  0  0  0  0  0  0
  138.3810   73.5033  221.6704 H   0  0  0  0  0  0  0  0  0  0  0  0
  135.3774   72.2874  223.4355 H   0  0  0  0  0  0  0  0  0  0  0  0
  133.9229   71.2084  223.4135 H   0  0  0  0  0  0  0  0  0  0  0  0
  134.7048   73.1963  225.5938 H   0  0  0  0  0  0  0  0  0  0  0  0
  133.3228   73.3254  224.4754 H   0  0  0  0  0  0  0  0  0  0  0  0
  1  2  1  0
  2  3  1  0
  3  4  1  0
  4  5  1  0
  5  6  1  0
  6  7  1  0
  7  8  2  0
  8  9  1  0
  9 10  1  0
 10 11  1  0
 11 12  1  0
 12 13  1  0
 13 14  2  0
 14 15  1  0
 15 16  2  0
 16 17  1  0
 17 18  2  0
  9 19  2  0
 19 20  1  0
 20 21  1  0
 21 22  1  0
 22 23  1  0
 23 24  1  0
 24 25  2  0
 25 26  1  0
 26 27  2  0
 27 28  1  0
 28 29  2  0
 29 30  1  0
 20 31  2  0
  6 32  1  0
 32 33  1  0
 33  3  1  0
 31  7  1  0
 18 13  1  0
 30 21  1  0
 29 24  1  0
  1 34  1  0
  1 35  1  0
  2 36  1  0
  2 37  1  0
  3 38  1  0
  4 39  1  0
  4 40  1  0
  5 41  1  0
  5 42  1  0
 10 43  1  0
 11 44  1  0
 11 45  1  0
 12 46  1  0
 12 47  1  0
 14 48  1  0
 15 49  1  0
 16 50  1  0
 17 51  1  0
 18 52  1  0
 22 53  1  0
 22 54  1  0
 23 55  1  0
 23 56  1  0
 25 57  1  0
 26 58  1  0
 27 59  1  0
 28 60  1  0
 30 61  1  0
 30 62  1  0
 32 63  1  0
 32 64  1  0
 33 65  1  0
 33 66  1  0
M  END
>  <smiles>  (23) 
NCC1CCN(c2nc(NCCc3ccccc3)nc(N3CCc4ccccc4C3)n2)CC1

>  <score_type>  (23) 
oracle

>  <origin>  (23) 
autodockgpu

>  <m_score__min__energy>  (23) 
-10.140000000000001

>  <m_primary>  (23) 
energy

>  <rmsd>  (23) 
5.707920077398554

>  <m_score__min__rmsd>  (23) 
5.707920077398554

>  <meeko>  (23) 
{"free_energy": -8.98, "intermolecular_energy": -11.37, "internal_energy": -1.76, "cluster_size": 5, "cluster_id": 5, "rank_in_cluster": 3}

>  <energy>  (23) 
-9.62

>  <cluster_rmsd>  (23) 
0.0

>  <cluster>  (23) 
3

$$$$

     RDKit          3D

 66 70  0  0  0  0  0  0  0  0999 V2000
  139.1970   67.1740  226.3060 N   0  0  0  0  0  0  0  0  0  0  0  0
  140.0610   68.2300  226.8420 C   0  0  0  0  0  0  0  0  0  0  0  0
  139.8220   69.4570  225.9960 C   0  0  0  0  0  0  0  0  0  0  0  0
  139.3120   69.0280  224.6330 C   0  0  0  0  0  0  0  0  0  0  0  0
  138.8450   70.2800  223.9220 C   0  0  0  0  0  0  0  0  0  0  0  0
  139.9340   71.2330  223.8420 N   0  0  0  0  0  0  0  0  0  0  0  0
  140.2720   71.8700  222.6140 C   0  0  0  0  0  0  0  0  0  0  0  0
  140.6530   71.1670  221.5460 N   0  0  0  0  0  0  0  0  0  0  0  0
  140.9790   71.7700  220.3640 C   0  0  0  0  0  0  0  0  0  0  0  0
  141.3840   70.9910  219.2410 N   0  0  0  0  0  0  0  0  0  0  0  0
  142.7810   70.7030  219.0960 C   0  0  0  0  0  0  0  0  0  0  0  0
  143.3860   71.8270  218.2530 C   0  0  0  0  0  0  0  0  0  0  0  0
  144.1500   72.6720  219.2340 C   0  0  0  0  0  0  0  0  0  0  0  0
  145.2490   72.0720  219.8170 C   0  0  0  0  0  0  0  0  0  0  0  0
  145.9900   72.8130  220.7330 C   0  0  0  0  0  0  0  0  0  0  0  0
  145.6220   74.1180  221.0420 C   0  0  0  0  0  0  0  0  0  0  0  0
  144.5090   74.6850  220.4330 C   0  0  0  0  0  0  0  0  0  0  0  0
  143.7570   73.9650  219.5190 C   0  0  0  0  0  0  0  0  0  0  0  0
  140.9010   73.1260  220.3110 N   0  0  0  0  0  0  0  0  0  0  0  0
  140.5210   73.8600  221.3680 C   0  0  0  0  0  0  0  0  0  0  0  0
  140.4570   75.2770  221.2540 N   0  0  0  0  0  0  0  0  0  0  0  0
  140.3830   75.8260  219.9170 C   0  0  0  0  0  0  0  0  0  0  0  0
  141.4640   76.8580  219.6840 C   0  0  0  0  0  0  0  0  0  0  0  0
  141.3970   77.8780  220.7890 C   0  0  0  0  0  0  0  0  0  0  0  0
  141.8230   79.1640  220.4990 C   0  0  0  0  0  0  0  0  0  0  0  0
  141.7760   80.1280  221.4880 C   0  0  0  0  0  0  0  0  0  0  0  0
  141.3090   79.7950  222.7410 C   0  0  0  0  0  0  0  0  0  0  0  0
  140.8840   78.4920  223.0150 C   0  0  0  0  0  0  0  0  0  0  0  0
  140.9250   77.5050  222.0260 C   0  0  0  0  0  0  0  0  0  0  0  0
  140.4640   76.1560  222.3790 C   0  0  0  0  0  0  0  0  0  0  0  0
  140.2080   73.2090  222.5190 N   0  0  0  0  0  0  0  0  0  0  0  0
  140.6830   71.5310  225.0470 C   0  0  0  0  0  0  0  0  0  0  0  0
  141.0740   70.2650  225.7860 C   0  0  0  0  0  0  0  0  0  0  0  0
  138.2120   67.5240  226.3840 H   0  0  0  0  0  0  0  0  0  0  0  0
  139.3110   66.2820  226.8480 H   0  0  0  0  0  0  0  0  0  0  0  0
  139.8015   68.4363  227.8909 H   0  0  0  0  0  0  0  0  0  0  0  0
  141.1186   67.9289  226.8125 H   0  0  0  0  0  0  0  0  0  0  0  0
  139.0906   70.0816  226.5298 H   0  0  0  0  0  0  0  0  0  0  0  0
  140.1197   68.5477  224.0613 H   0  0  0  0  0  0  0  0  0  0  0  0
  138.4910   68.3025  224.7312 H   0  0  0  0  0  0  0  0  0  0  0  0
  138.5112   70.0205  222.9065 H   0  0  0  0  0  0  0  0  0  0  0  0
  138.0110   70.7271  224.4828 H   0  0  0  0  0  0  0  0  0  0  0  0
  140.6680   70.6530  218.5610 H   0  0  0  0  0  0  0  0  0  0  0  0
  143.2641   70.6700  220.0837 H   0  0  0  0  0  0  0  0  0  0  0  0
  142.9317   69.7263  218.6129 H   0  0  0  0  0  0  0  0  0  0  0  0
  144.0603   71.4171  217.4867 H   0  0  0  0  0  0  0  0  0  0  0  0
  142.6182   72.4040  217.7167 H   0  0  0  0  0  0  0  0  0  0  0  0
  145.5303   71.0389  219.5648 H   0  0  0  0  0  0  0  0  0  0  0  0
  146.8711   72.3642  221.2149 H   0  0  0  0  0  0  0  0  0  0  0  0
  146.2104   74.6999  221.7667 H   0  0  0  0  0  0  0  0  0  0  0  0
  144.2217   75.7178  220.6796 H   0  0  0  0  0  0  0  0  0  0  0  0
  142.8745   74.4092  219.0354 H   0  0  0  0  0  0  0  0  0  0  0  0
  140.5032   75.0109  219.1882 H   0  0  0  0  0  0  0  0  0  0  0  0
  139.4052   76.3155  219.7972 H   0  0  0  0  0  0  0  0  0  0  0  0
  142.4499   76.3701  219.6887 H   0  0  0  0  0  0  0  0  0  0  0  0
  141.3144   77.3471  218.7101 H   0  0  0  0  0  0  0  0  0  0  0  0
  142.1939   79.4145  219.4942 H   0  0  0  0  0  0  0  0  0  0  0  0
  142.1093   81.1547  221.2764 H   0  0  0  0  0  0  0  0  0  0  0  0
  141.2705   80.5597  223.5308 H   0  0  0  0  0  0  0  0  0  0  0  0
  140.5133   78.2405  224.0197 H   0  0  0  0  0  0  0  0  0  0  0  0
  141.1337   75.7425  223.1475 H   0  0  0  0  0  0  0  0  0  0  0  0
  139.4317   76.2381  222.7499 H   0  0  0  0  0  0  0  0  0  0  0  0
  141.5952   72.0816  224.7738 H   0  0  0  0  0  0  0  0  0  0  0  0
  140.0450   72.1343  225.7096 H   0  0  0  0  0  0  0  0  0  0  0  0
  141.7963   69.6895  225.1884 H   0  0  0  0  0  0  0  0  0  0  0  0
  141.5430   70.5094  226.7505 H   0  0  0  0  0  0  0  0  0  0  0  0
  1  2  1  0
  2  3  1  0
  3  4  1  0
  4  5  1  0
  5  6  1  0
  6  7  1  0
  7  8  2  0
  8  9  1  0
  9 10  1  0
 10 11  1  0
 11 12  1  0
 12 13  1  0
 13 14  2  0
 14 15  1  0
 15 16  2  0
 16 17  1  0
 17 18  2  0
  9 19  2  0
 19 20  1  0
 20 21  1  0
 21 22  1  0
 22 23  1  0
 23 24  1  0
 24 25  2  0
 25 26  1  0
 26 27  2  0
 27 28  1  0
 28 29  2  0
 29 30  1  0
 20 31  2  0
  6 32  1  0
 32 33  1  0
 33  3  1  0
 31  7  1  0
 18 13  1  0
 30 21  1  0
 29 24  1  0
  1 34  1  0
  1 35  1  0
  2 36  1  0
  2 37  1  0
  3 38  1  0
  4 39  1  0
  4 40  1  0
  5 41  1  0
  5 42  1  0
 10 43  1  0
 11 44  1  0
 11 45  1  0
 12 46  1  0
 12 47  1  0
 14 48  1  0
 15 49  1  0
 16 50  1  0
 17 51  1  0
 18 52  1  0
 22 53  1  0
 22 54  1  0
 23 55  1  0
 23 56  1  0
 25 57  1  0
 26 58  1  0
 27 59  1  0
 28 60  1  0
 30 61  1  0
 30 62  1  0
 32 63  1  0
 32 64  1  0
 33 65  1  0
 33 66  1  0
M  END
>  <smiles>  (24) 
NCC1CCN(c2nc(NCCc3ccccc3)nc(N3CCc4ccccc4C3)n2)CC1

>  <score_type>  (24) 
oracle

>  <origin>  (24) 
autodockgpu

>  <m_score__min__energy>  (24) 
-10.140000000000001

>  <m_primary>  (24) 
energy

>  <rmsd>  (24) 
4.2357786275832545

>  <m_score__min__rmsd>  (24) 
4.2357786275832545

>  <meeko>  (24) 
{"free_energy": -8.73, "intermolecular_energy": -11.11, "internal_energy": -1.84, "cluster_size": 15, "cluster_id": 4, "rank_in_cluster": 9}

>  <energy>  (24) 
-9.6

>  <cluster_rmsd>  (24) 
0.3

>  <cluster>  (24) 
3

$$$$

     RDKit          3D

 66 70  0  0  0  0  0  0  0  0999 V2000
  133.1370   73.7140  227.3240 N   0  0  0  0  0  0  0  0  0  0  0  0
  132.3280   72.5590  226.9250 C   0  0  0  0  0  0  0  0  0  0  0  0
  133.1720   71.7470  225.9730 C   0  0  0  0  0  0  0  0  0  0  0  0
  134.1000   70.8510  226.7730 C   0  0  0  0  0  0  0  0  0  0  0  0
  134.7300   69.8830  225.7950 C   0  0  0  0  0  0  0  0  0  0  0  0
  135.4180   70.6180  224.7520 N   0  0  0  0  0  0  0  0  0  0  0  0
  136.7550   70.3010  224.3800 C   0  0  0  0  0  0  0  0  0  0  0  0
  137.3770   69.2250  224.8680 N   0  0  0  0  0  0  0  0  0  0  0  0
  138.6610   68.9130  224.5180 C   0  0  0  0  0  0  0  0  0  0  0  0
  139.2980   67.7570  225.0570 N   0  0  0  0  0  0  0  0  0  0  0  0
  139.5240   67.7180  226.4710 C   0  0  0  0  0  0  0  0  0  0  0  0
  140.9950   68.0720  226.7010 C   0  0  0  0  0  0  0  0  0  0  0  0
  140.9960   69.5540  226.9560 C   0  0  0  0  0  0  0  0  0  0  0  0
  141.4220   70.3450  225.9070 C   0  0  0  0  0  0  0  0  0  0  0  0
  141.4420   71.7230  226.0940 C   0  0  0  0  0  0  0  0  0  0  0  0
  141.0420   72.2750  227.3060 C   0  0  0  0  0  0  0  0  0  0  0  0
  140.6200   71.4440  228.3370 C   0  0  0  0  0  0  0  0  0  0  0  0
  140.5930   70.0680  228.1720 C   0  0  0  0  0  0  0  0  0  0  0  0
  139.2910   69.7450  223.6460 N   0  0  0  0  0  0  0  0  0  0  0  0
  138.6920   70.8330  223.1400 C   0  0  0  0  0  0  0  0  0  0  0  0
  139.4010   71.6670  222.2300 N   0  0  0  0  0  0  0  0  0  0  0  0
  140.2230   71.0070  221.2380 C   0  0  0  0  0  0  0  0  0  0  0  0
  141.6430   71.5300  221.2630 C   0  0  0  0  0  0  0  0  0  0  0  0
  141.6010   73.0310  221.1510 C   0  0  0  0  0  0  0  0  0  0  0  0
  142.6880   73.6590  220.5630 C   0  0  0  0  0  0  0  0  0  0  0  0
  142.6850   75.0350  220.4420 C   0  0  0  0  0  0  0  0  0  0  0  0
  141.6070   75.7570  220.9070 C   0  0  0  0  0  0  0  0  0  0  0  0
  140.5210   75.1060  221.4980 C   0  0  0  0  0  0  0  0  0  0  0  0
  140.5060   73.7150  221.6280 C   0  0  0  0  0  0  0  0  0  0  0  0
  139.3350   73.0930  222.2580 C   0  0  0  0  0  0  0  0  0  0  0  0
  137.4140   71.0970  223.5210 N   0  0  0  0  0  0  0  0  0  0  0  0
  134.7120   71.6940  224.0840 C   0  0  0  0  0  0  0  0  0  0  0  0
  134.0220   72.6080  225.0790 C   0  0  0  0  0  0  0  0  0  0  0  0
  133.0400   73.8040  228.3640 H   0  0  0  0  0  0  0  0  0  0  0  0
  132.8050   74.5890  226.8490 H   0  0  0  0  0  0  0  0  0  0  0  0
  132.0658   71.9568  227.8073 H   0  0  0  0  0  0  0  0  0  0  0  0
  131.3897   72.8787  226.4481 H   0  0  0  0  0  0  0  0  0  0  0  0
  132.4823   71.1659  225.3433 H   0  0  0  0  0  0  0  0  0  0  0  0
  134.8788   71.4543  227.2625 H   0  0  0  0  0  0  0  0  0  0  0  0
  133.5475   70.3133  227.5576 H   0  0  0  0  0  0  0  0  0  0  0  0
  135.4497   69.2432  226.3266 H   0  0  0  0  0  0  0  0  0  0  0  0
  133.9442   69.2600  225.3429 H   0  0  0  0  0  0  0  0  0  0  0  0
  139.5800   66.9790  224.4200 H   0  0  0  0  0  0  0  0  0  0  0  0
  138.8763   68.4491  226.9770 H   0  0  0  0  0  0  0  0  0  0  0  0
  139.2925   66.7224  226.8774 H   0  0  0  0  0  0  0  0  0  0  0  0
  141.3933   67.5286  227.5705 H   0  0  0  0  0  0  0  0  0  0  0  0
  141.6280   67.7968  225.8445 H   0  0  0  0  0  0  0  0  0  0  0  0
  141.7361   69.8984  224.9521 H   0  0  0  0  0  0  0  0  0  0  0  0
  141.7764   72.3804  225.2779 H   0  0  0  0  0  0  0  0  0  0  0  0
  141.0595   73.3656  227.4483 H   0  0  0  0  0  0  0  0  0  0  0  0
  140.3039   71.8832  229.2947 H   0  0  0  0  0  0  0  0  0  0  0  0
  140.2606   69.4060  228.9852 H   0  0  0  0  0  0  0  0  0  0  0  0
  140.2355   69.9266  221.4446 H   0  0  0  0  0  0  0  0  0  0  0  0
  139.7966   71.2088  220.2443 H   0  0  0  0  0  0  0  0  0  0  0  0
  142.1281   71.2417  222.2072 H   0  0  0  0  0  0  0  0  0  0  0  0
  142.2160   71.1053  220.4256 H   0  0  0  0  0  0  0  0  0  0  0  0
  143.5417   73.0693  220.1976 H   0  0  0  0  0  0  0  0  0  0  0  0
  143.5379   75.5514  219.9773 H   0  0  0  0  0  0  0  0  0  0  0  0
  141.6015   76.8529  220.8122 H   0  0  0  0  0  0  0  0  0  0  0  0
  139.6680   75.6955  221.8652 H   0  0  0  0  0  0  0  0  0  0  0  0
  139.2784   73.4245  223.3053 H   0  0  0  0  0  0  0  0  0  0  0  0
  138.4436   73.4009  221.6918 H   0  0  0  0  0  0  0  0  0  0  0  0
  135.4316   72.2833  223.4967 H   0  0  0  0  0  0  0  0  0  0  0  0
  133.9445   71.2510  223.4323 H   0  0  0  0  0  0  0  0  0  0  0  0
  134.7722   73.1450  225.6781 H   0  0  0  0  0  0  0  0  0  0  0  0
  133.4028   73.3516  224.5559 H   0  0  0  0  0  0  0  0  0  0  0  0
  1  2  1  0
  2  3  1  0
  3  4  1  0
  4  5  1  0
  5  6  1  0
  6  7  1  0
  7  8  2  0
  8  9  1  0
  9 10  1  0
 10 11  1  0
 11 12  1  0
 12 13  1  0
 13 14  2  0
 14 15  1  0
 15 16  2  0
 16 17  1  0
 17 18  2  0
  9 19  2  0
 19 20  1  0
 20 21  1  0
 21 22  1  0
 22 23  1  0
 23 24  1  0
 24 25  2  0
 25 26  1  0
 26 27  2  0
 27 28  1  0
 28 29  2  0
 29 30  1  0
 20 31  2  0
  6 32  1  0
 32 33  1  0
 33  3  1  0
 31  7  1  0
 18 13  1  0
 30 21  1  0
 29 24  1  0
  1 34  1  0
  1 35  1  0
  2 36  1  0
  2 37  1  0
  3 38  1  0
  4 39  1  0
  4 40  1  0
  5 41  1  0
  5 42  1  0
 10 43  1  0
 11 44  1  0
 11 45  1  0
 12 46  1  0
 12 47  1  0
 14 48  1  0
 15 49  1  0
 16 50  1  0
 17 51  1  0
 18 52  1  0
 22 53  1  0
 22 54  1  0
 23 55  1  0
 23 56  1  0
 25 57  1  0
 26 58  1  0
 27 59  1  0
 28 60  1  0
 30 61  1  0
 30 62  1  0
 32 63  1  0
 32 64  1  0
 33 65  1  0
 33 66  1  0
M  END
>  <smiles>  (25) 
NCC1CCN(c2nc(NCCc3ccccc3)nc(N3CCc4ccccc4C3)n2)CC1

>  <score_type>  (25) 
oracle

>  <origin>  (25) 
autodockgpu

>  <m_score__min__energy>  (25) 
-10.140000000000001

>  <m_primary>  (25) 
energy

>  <rmsd>  (25) 
5.846030337174798

>  <m_score__min__rmsd>  (25) 
5.846030337174798

>  <meeko>  (25) 
{"free_energy": -9.02, "intermolecular_energy": -11.41, "internal_energy": -1.77, "cluster_size": 5, "cluster_id": 5, "rank_in_cluster": 1}

>  <energy>  (25) 
-9.07

>  <cluster_rmsd>  (25) 
1.83

>  <cluster>  (25) 
3

$$$$

     RDKit          3D

 66 70  0  0  0  0  0  0  0  0999 V2000
  142.9410   79.5780  222.4320 N   0  0  0  0  0  0  0  0  0  0  0  0
  141.7750   79.9120  221.6090 C   0  0  0  0  0  0  0  0  0  0  0  0
  141.0940   78.6080  221.2720 C   0  0  0  0  0  0  0  0  0  0  0  0
  140.7330   77.8900  222.5590 C   0  0  0  0  0  0  0  0  0  0  0  0
  139.8340   76.7320  222.1810 C   0  0  0  0  0  0  0  0  0  0  0  0
  140.5150   75.8740  221.2300 N   0  0  0  0  0  0  0  0  0  0  0  0
  140.5720   74.4640  221.4140 C   0  0  0  0  0  0  0  0  0  0  0  0
  139.8220   73.8500  222.3320 N   0  0  0  0  0  0  0  0  0  0  0  0
  139.8700   72.4960  222.5150 C   0  0  0  0  0  0  0  0  0  0  0  0
  139.0570   71.8700  223.5050 N   0  0  0  0  0  0  0  0  0  0  0  0
  139.5290   70.6450  224.0800 C   0  0  0  0  0  0  0  0  0  0  0  0
  140.7200   70.9980  224.9730 C   0  0  0  0  0  0  0  0  0  0  0  0
  140.5990   70.0750  226.1540 C   0  0  0  0  0  0  0  0  0  0  0  0
  139.9940   70.6090  227.2760 C   0  0  0  0  0  0  0  0  0  0  0  0
  139.8590   69.7950  228.3960 C   0  0  0  0  0  0  0  0  0  0  0  0
  140.3240   68.4850  228.3730 C   0  0  0  0  0  0  0  0  0  0  0  0
  140.9270   67.9860  227.2240 C   0  0  0  0  0  0  0  0  0  0  0  0
  141.0720   68.7790  226.0980 C   0  0  0  0  0  0  0  0  0  0  0  0
  140.7180   71.7880  221.7240 N   0  0  0  0  0  0  0  0  0  0  0  0
  141.4840   72.3770  220.7940 C   0  0  0  0  0  0  0  0  0  0  0  0
  142.3540   71.5830  219.9920 N   0  0  0  0  0  0  0  0  0  0  0  0
  141.7470   70.5220  219.2180 C   0  0  0  0  0  0  0  0  0  0  0  0
  142.4160   69.1920  219.4880 C   0  0  0  0  0  0  0  0  0  0  0  0
  143.8980   69.3530  219.2840 C   0  0  0  0  0  0  0  0  0  0  0  0
  144.6140   68.2360  218.8830 C   0  0  0  0  0  0  0  0  0  0  0  0
  145.9770   68.3450  218.6850 C   0  0  0  0  0  0  0  0  0  0  0  0
  146.5990   69.5580  218.8900 C   0  0  0  0  0  0  0  0  0  0  0  0
  145.8610   70.6730  219.2950 C   0  0  0  0  0  0  0  0  0  0  0  0
  144.4820   70.5810  219.4990 C   0  0  0  0  0  0  0  0  0  0  0  0
  143.7650   71.7890  219.9250 C   0  0  0  0  0  0  0  0  0  0  0  0
  141.3970   73.7260  220.6520 N   0  0  0  0  0  0  0  0  0  0  0  0
  141.1420   76.4840  220.0750 C   0  0  0  0  0  0  0  0  0  0  0  0
  141.9740   77.6910  220.4660 C   0  0  0  0  0  0  0  0  0  0  0  0
  143.7740   80.0060  221.9600 H   0  0  0  0  0  0  0  0  0  0  0  0
  143.0610   78.5380  222.5110 H   0  0  0  0  0  0  0  0  0  0  0  0
  141.0892   80.5639  222.1700 H   0  0  0  0  0  0  0  0  0  0  0  0
  142.0752   80.4488  220.6970 H   0  0  0  0  0  0  0  0  0  0  0  0
  140.2035   78.8518  220.6740 H   0  0  0  0  0  0  0  0  0  0  0  0
  141.6430   77.5169  223.0518 H   0  0  0  0  0  0  0  0  0  0  0  0
  140.2252   78.5696  223.2592 H   0  0  0  0  0  0  0  0  0  0  0  0
  139.5850   76.1531  223.0826 H   0  0  0  0  0  0  0  0  0  0  0  0
  138.9116   77.1209  221.7250 H   0  0  0  0  0  0  0  0  0  0  0  0
  138.1520   72.3100  223.7830 H   0  0  0  0  0  0  0  0  0  0  0  0
  138.7334   70.1779  224.6790 H   0  0  0  0  0  0  0  0  0  0  0  0
  139.8246   69.9323  223.2960 H   0  0  0  0  0  0  0  0  0  0  0  0
  141.6676   70.8258  224.4417 H   0  0  0  0  0  0  0  0  0  0  0  0
  140.7173   72.0570  225.2707 H   0  0  0  0  0  0  0  0  0  0  0  0
  139.6300   71.6470  227.2832 H   0  0  0  0  0  0  0  0  0  0  0  0
  139.3816   70.1900  229.3049 H   0  0  0  0  0  0  0  0  0  0  0  0
  140.2152   67.8453  229.2612 H   0  0  0  0  0  0  0  0  0  0  0  0
  141.2933   66.9489  227.2091 H   0  0  0  0  0  0  0  0  0  0  0  0
  141.5493   68.3885  225.1871 H   0  0  0  0  0  0  0  0  0  0  0  0
  140.6823   70.4481  219.4846 H   0  0  0  0  0  0  0  0  0  0  0  0
  141.8656   70.7597  218.1506 H   0  0  0  0  0  0  0  0  0  0  0  0
  142.2158   68.8794  220.5235 H   0  0  0  0  0  0  0  0  0  0  0  0
  142.0223   68.4262  218.8035 H   0  0  0  0  0  0  0  0  0  0  0  0
  144.1034   67.2747  218.7244 H   0  0  0  0  0  0  0  0  0  0  0  0
  146.5619   67.4697  218.3659 H   0  0  0  0  0  0  0  0  0  0  0  0
  147.6840   69.6487  218.7336 H   0  0  0  0  0  0  0  0  0  0  0  0
  146.3715   71.6341  219.4551 H   0  0  0  0  0  0  0  0  0  0  0  0
  144.1277   72.0836  220.9208 H   0  0  0  0  0  0  0  0  0  0  0  0
  143.9565   72.5757  219.1804 H   0  0  0  0  0  0  0  0  0  0  0  0
  141.7938   75.7429  219.5892 H   0  0  0  0  0  0  0  0  0  0  0  0
  140.3499   76.8187  219.3890 H   0  0  0  0  0  0  0  0  0  0  0  0
  142.8366   77.3724  221.0697 H   0  0  0  0  0  0  0  0  0  0  0  0
  142.3519   78.2063  219.5707 H   0  0  0  0  0  0  0  0  0  0  0  0
  1  2  1  0
  2  3  1  0
  3  4  1  0
  4  5  1  0
  5  6  1  0
  6  7  1  0
  7  8  2  0
  8  9  1  0
  9 10  1  0
 10 11  1  0
 11 12  1  0
 12 13  1  0
 13 14  2  0
 14 15  1  0
 15 16  2  0
 16 17  1  0
 17 18  2  0
  9 19  2  0
 19 20  1  0
 20 21  1  0
 21 22  1  0
 22 23  1  0
 23 24  1  0
 24 25  2  0
 25 26  1  0
 26 27  2  0
 27 28  1  0
 28 29  2  0
 29 30  1  0
 20 31  2  0
  6 32  1  0
 32 33  1  0
 33  3  1  0
 31  7  1  0
 18 13  1  0
 30 21  1  0
 29 24  1  0
  1 34  1  0
  1 35  1  0
  2 36  1  0
  2 37  1  0
  3 38  1  0
  4 39  1  0
  4 40  1  0
  5 41  1  0
  5 42  1  0
 10 43  1  0
 11 44  1  0
 11 45  1  0
 12 46  1  0
 12 47  1  0
 14 48  1  0
 15 49  1  0
 16 50  1  0
 17 51  1  0
 18 52  1  0
 22 53  1  0
 22 54  1  0
 23 55  1  0
 23 56  1  0
 25 57  1  0
 26 58  1  0
 27 59  1  0
 28 60  1  0
 30 61  1  0
 30 62  1  0
 32 63  1  0
 32 64  1  0
 33 65  1  0
 33 66  1  0
M  END
>  <smiles>  (26) 
NCC1CCN(c2nc(NCCc3ccccc3)nc(N3CCc4ccccc4C3)n2)CC1

>  <score_type>  (26) 
oracle

>  <origin>  (26) 
autodockgpu

>  <m_score__min__energy>  (26) 
-10.140000000000001

>  <m_primary>  (26) 
energy

>  <rmsd>  (26) 
9.913740624860196

>  <m_score__min__rmsd>  (26) 
9.913740624860196

>  <meeko>  (26) 
{"free_energy": -9.6, "intermolecular_energy": -11.99, "internal_energy": -1.04, "cluster_size": 7, "cluster_id": 3, "rank_in_cluster": 2}

>  <energy>  (26) 
-9.05

>  <cluster_rmsd>  (26) 
1.86

>  <cluster>  (26) 
3

$$$$

     RDKit          3D

 66 70  0  0  0  0  0  0  0  0999 V2000
  146.4220   73.7790  217.2210 N   0  0  0  0  0  0  0  0  0  0  0  0
  145.8890   72.4250  217.0500 C   0  0  0  0  0  0  0  0  0  0  0  0
  144.9180   72.1950  218.1830 C   0  0  0  0  0  0  0  0  0  0  0  0
  143.5120   72.5030  217.7020 C   0  0  0  0  0  0  0  0  0  0  0  0
  142.5620   72.0160  218.7740 C   0  0  0  0  0  0  0  0  0  0  0  0
  142.8780   72.6550  220.0360 N   0  0  0  0  0  0  0  0  0  0  0  0
  141.8670   73.2680  220.8300 C   0  0  0  0  0  0  0  0  0  0  0  0
  140.9670   72.5400  221.4950 N   0  0  0  0  0  0  0  0  0  0  0  0
  139.9930   73.1190  222.2590 C   0  0  0  0  0  0  0  0  0  0  0  0
  139.0460   72.3140  222.9570 N   0  0  0  0  0  0  0  0  0  0  0  0
  139.4950   71.0580  223.4810 C   0  0  0  0  0  0  0  0  0  0  0  0
  140.8160   71.3200  224.2070 C   0  0  0  0  0  0  0  0  0  0  0  0
  140.5380   70.9770  225.6440 C   0  0  0  0  0  0  0  0  0  0  0  0
  141.0100   71.8780  226.5790 C   0  0  0  0  0  0  0  0  0  0  0  0
  140.7780   71.6050  227.9240 C   0  0  0  0  0  0  0  0  0  0  0  0
  140.0910   70.4560  228.3000 C   0  0  0  0  0  0  0  0  0  0  0  0
  139.6330   69.5750  227.3280 C   0  0  0  0  0  0  0  0  0  0  0  0
  139.8530   69.8270  225.9830 C   0  0  0  0  0  0  0  0  0  0  0  0
  139.9710   74.4770  222.3190 N   0  0  0  0  0  0  0  0  0  0  0  0
  140.8610   75.2350  221.6620 C   0  0  0  0  0  0  0  0  0  0  0  0
  140.7890   76.6530  221.7620 N   0  0  0  0  0  0  0  0  0  0  0  0
  140.4260   77.3780  220.5640 C   0  0  0  0  0  0  0  0  0  0  0  0
  141.4410   78.4540  220.2430 C   0  0  0  0  0  0  0  0  0  0  0  0
  141.6320   79.3100  221.4660 C   0  0  0  0  0  0  0  0  0  0  0  0
  141.9970   80.6330  221.2700 C   0  0  0  0  0  0  0  0  0  0  0  0
  142.1820   81.4500  222.3680 C   0  0  0  0  0  0  0  0  0  0  0  0
  142.0000   80.9390  223.6350 C   0  0  0  0  0  0  0  0  0  0  0  0
  141.6320   79.6030  223.8130 C   0  0  0  0  0  0  0  0  0  0  0  0
  141.4410   78.7620  222.7130 C   0  0  0  0  0  0  0  0  0  0  0  0
  141.0550   77.3690  222.9690 C   0  0  0  0  0  0  0  0  0  0  0  0
  141.8090   74.6070  220.9170 N   0  0  0  0  0  0  0  0  0  0  0  0
  144.2570   72.6590  220.4830 C   0  0  0  0  0  0  0  0  0  0  0  0
  145.2010   73.0750  219.3700 C   0  0  0  0  0  0  0  0  0  0  0  0
  146.8480   73.8160  218.1780 H   0  0  0  0  0  0  0  0  0  0  0  0
  145.6610   74.4980  217.1330 H   0  0  0  0  0  0  0  0  0  0  0  0
  145.3707   72.3408  216.0834 H   0  0  0  0  0  0  0  0  0  0  0  0
  146.6959   71.6775  217.0624 H   0  0  0  0  0  0  0  0  0  0  0  0
  145.0243   71.1452  218.4939 H   0  0  0  0  0  0  0  0  0  0  0  0
  143.3919   73.5864  217.5544 H   0  0  0  0  0  0  0  0  0  0  0  0
  143.3079   72.0072  216.7415 H   0  0  0  0  0  0  0  0  0  0  0  0
  141.5294   72.2642  218.4873 H   0  0  0  0  0  0  0  0  0  0  0  0
  142.6643   70.9262  218.8826 H   0  0  0  0  0  0  0  0  0  0  0  0
  138.0650   72.6520  223.0690 H   0  0  0  0  0  0  0  0  0  0  0  0
  138.7514   70.6550  224.1843 H   0  0  0  0  0  0  0  0  0  0  0  0
  139.6308   70.3230  222.6739 H   0  0  0  0  0  0  0  0  0  0  0  0
  141.6140   70.6797  223.8030 H   0  0  0  0  0  0  0  0  0  0  0  0
  141.1577   72.3586  224.0863 H   0  0  0  0  0  0  0  0  0  0  0  0
  141.5526   72.7835  226.2699 H   0  0  0  0  0  0  0  0  0  0  0  0
  141.1402   72.3022  228.6939 H   0  0  0  0  0  0  0  0  0  0  0  0
  139.9106   70.2450  229.3644 H   0  0  0  0  0  0  0  0  0  0  0  0
  139.0897   68.6673  227.6294 H   0  0  0  0  0  0  0  0  0  0  0  0
  139.4931   69.1325  225.2096 H   0  0  0  0  0  0  0  0  0  0  0  0
  140.3724   76.6732  219.7211 H   0  0  0  0  0  0  0  0  0  0  0  0
  139.4512   77.8594  220.7317 H   0  0  0  0  0  0  0  0  0  0  0  0
  142.3977   77.9897  219.9619 H   0  0  0  0  0  0  0  0  0  0  0  0
  141.0852   79.0696  219.4037 H   0  0  0  0  0  0  0  0  0  0  0  0
  142.1375   81.0271  220.2527 H   0  0  0  0  0  0  0  0  0  0  0  0
  142.4729   82.5021  222.2322 H   0  0  0  0  0  0  0  0  0  0  0  0
  142.1454   81.5872  224.5117 H   0  0  0  0  0  0  0  0  0  0  0  0
  141.4910   79.2086  224.8301 H   0  0  0  0  0  0  0  0  0  0  0  0
  141.8737   76.8673  223.5056 H   0  0  0  0  0  0  0  0  0  0  0  0
  140.1317   77.3785  223.5668 H   0  0  0  0  0  0  0  0  0  0  0  0
  144.3592   73.3645  221.3208 H   0  0  0  0  0  0  0  0  0  0  0  0
  144.5213   71.6382  220.7963 H   0  0  0  0  0  0  0  0  0  0  0  0
  145.0285   74.1287  219.1057 H   0  0  0  0  0  0  0  0  0  0  0  0
  146.2479   72.9679  219.6903 H   0  0  0  0  0  0  0  0  0  0  0  0
  1  2  1  0
  2  3  1  0
  3  4  1  0
  4  5  1  0
  5  6  1  0
  6  7  1  0
  7  8  2  0
  8  9  1  0
  9 10  1  0
 10 11  1  0
 11 12  1  0
 12 13  1  0
 13 14  2  0
 14 15  1  0
 15 16  2  0
 16 17  1  0
 17 18  2  0
  9 19  2  0
 19 20  1  0
 20 21  1  0
 21 22  1  0
 22 23  1  0
 23 24  1  0
 24 25  2  0
 25 26  1  0
 26 27  2  0
 27 28  1  0
 28 29  2  0
 29 30  1  0
 20 31  2  0
  6 32  1  0
 32 33  1  0
 33  3  1  0
 31  7  1  0
 18 13  1  0
 30 21  1  0
 29 24  1  0
  1 34  1  0
  1 35  1  0
  2 36  1  0
  2 37  1  0
  3 38  1  0
  4 39  1  0
  4 40  1  0
  5 41  1  0
  5 42  1  0
 10 43  1  0
 11 44  1  0
 11 45  1  0
 12 46  1  0
 12 47  1  0
 14 48  1  0
 15 49  1  0
 16 50  1  0
 17 51  1  0
 18 52  1  0
 22 53  1  0
 22 54  1  0
 23 55  1  0
 23 56  1  0
 25 57  1  0
 26 58  1  0
 27 59  1  0
 28 60  1  0
 30 61  1  0
 30 62  1  0
 32 63  1  0
 32 64  1  0
 33 65  1  0
 33 66  1  0
M  END
>  <smiles>  (27) 
NCC1CCN(c2nc(NCCc3ccccc3)nc(N3CCc4ccccc4C3)n2)CC1

>  <score_type>  (27) 
oracle

>  <origin>  (27) 
autodockgpu

>  <m_score__min__energy>  (27) 
-10.140000000000001

>  <m_primary>  (27) 
energy

>  <rmsd>  (27) 
4.8547139092619815

>  <m_score__min__rmsd>  (27) 
4.8547139092619815

>  <meeko>  (27) 
{"free_energy": -10.03, "intermolecular_energy": -12.42, "internal_energy": -1.01, "cluster_size": 6, "cluster_id": 2, "rank_in_cluster": 1}

>  <energy>  (27) 
-9.03

>  <cluster_rmsd>  (27) 
1.83

>  <cluster>  (27) 
3

$$$$

     RDKit          3D

 66 70  0  0  0  0  0  0  0  0999 V2000
  146.3680   73.6630  217.4840 N   0  0  0  0  0  0  0  0  0  0  0  0
  145.5840   72.4260  217.4340 C   0  0  0  0  0  0  0  0  0  0  0  0
  144.7810   72.3700  218.7100 C   0  0  0  0  0  0  0  0  0  0  0  0
  143.3880   71.8560  218.3980 C   0  0  0  0  0  0  0  0  0  0  0  0
  142.7140   71.5730  219.7230 C   0  0  0  0  0  0  0  0  0  0  0  0
  142.7020   72.7760  220.5330 N   0  0  0  0  0  0  0  0  0  0  0  0
  141.5100   73.2310  221.1650 C   0  0  0  0  0  0  0  0  0  0  0  0
  140.6060   72.3740  221.6470 N   0  0  0  0  0  0  0  0  0  0  0  0
  139.4600   72.8020  222.2550 C   0  0  0  0  0  0  0  0  0  0  0  0
  138.5130   71.8620  222.7580 N   0  0  0  0  0  0  0  0  0  0  0  0
  138.7040   71.3700  224.0910 C   0  0  0  0  0  0  0  0  0  0  0  0
  140.1370   70.8390  224.1730 C   0  0  0  0  0  0  0  0  0  0  0  0
  140.4620   70.8400  225.6400 C   0  0  0  0  0  0  0  0  0  0  0  0
  140.1060   69.7010  226.3370 C   0  0  0  0  0  0  0  0  0  0  0  0
  140.3860   69.6540  227.6990 C   0  0  0  0  0  0  0  0  0  0  0  0
  141.0060   70.7280  228.3280 C   0  0  0  0  0  0  0  0  0  0  0  0
  141.3480   71.8560  227.5900 C   0  0  0  0  0  0  0  0  0  0  0  0
  141.0780   71.9240  226.2330 C   0  0  0  0  0  0  0  0  0  0  0  0
  139.2670   74.1440  222.3540 N   0  0  0  0  0  0  0  0  0  0  0  0
  140.1570   75.0280  221.8800 C   0  0  0  0  0  0  0  0  0  0  0  0
  139.9030   76.4230  222.0130 N   0  0  0  0  0  0  0  0  0  0  0  0
  141.0290   77.3150  221.8390 C   0  0  0  0  0  0  0  0  0  0  0  0
  141.1800   78.2480  223.0200 C   0  0  0  0  0  0  0  0  0  0  0  0
  139.8620   78.9350  223.2580 C   0  0  0  0  0  0  0  0  0  0  0  0
  139.8920   80.1990  223.8270 C   0  0  0  0  0  0  0  0  0  0  0  0
  138.7030   80.8610  224.0600 C   0  0  0  0  0  0  0  0  0  0  0  0
  137.5100   80.2560  223.7240 C   0  0  0  0  0  0  0  0  0  0  0  0
  137.5000   78.9820  223.1510 C   0  0  0  0  0  0  0  0  0  0  0  0
  138.6940   78.2970  222.9080 C   0  0  0  0  0  0  0  0  0  0  0  0
  138.6130   76.9610  222.3050 C   0  0  0  0  0  0  0  0  0  0  0  0
  141.2810   74.5500  221.2840 N   0  0  0  0  0  0  0  0  0  0  0  0
  143.9380   73.5160  220.6910 C   0  0  0  0  0  0  0  0  0  0  0  0
  144.6380   73.7200  219.3600 C   0  0  0  0  0  0  0  0  0  0  0  0
  146.6480   73.8020  218.4850 H   0  0  0  0  0  0  0  0  0  0  0  0
  145.8040   74.4820  217.1470 H   0  0  0  0  0  0  0  0  0  0  0  0
  144.9119   72.4380  216.5633 H   0  0  0  0  0  0  0  0  0  0  0  0
  146.2379   71.5466  217.3390 H   0  0  0  0  0  0  0  0  0  0  0  0
  145.3182   71.7050  219.4022 H   0  0  0  0  0  0  0  0  0  0  0  0
  142.8210   72.6160  217.8404 H   0  0  0  0  0  0  0  0  0  0  0  0
  143.4341   70.9478  217.7790 H   0  0  0  0  0  0  0  0  0  0  0  0
  141.6802   71.2426  219.5440 H   0  0  0  0  0  0  0  0  0  0  0  0
  143.2682   70.7836  220.2520 H   0  0  0  0  0  0  0  0  0  0  0  0
  137.7160   71.5580  222.1560 H   0  0  0  0  0  0  0  0  0  0  0  0
  138.5607   72.1833  224.8176 H   0  0  0  0  0  0  0  0  0  0  0  0
  137.9783   70.5767  224.3235 H   0  0  0  0  0  0  0  0  0  0  0  0
  140.1969   69.8199  223.7633 H   0  0  0  0  0  0  0  0  0  0  0  0
  140.8412   71.4514  223.5908 H   0  0  0  0  0  0  0  0  0  0  0  0
  139.6159   68.8567  225.8301 H   0  0  0  0  0  0  0  0  0  0  0  0
  140.1152   68.7614  228.2821 H   0  0  0  0  0  0  0  0  0  0  0  0
  141.2251   70.6856  229.4051 H   0  0  0  0  0  0  0  0  0  0  0  0
  141.8387   72.7042  228.0897 H   0  0  0  0  0  0  0  0  0  0  0  0
  141.3462   72.8146  225.6457 H   0  0  0  0  0  0  0  0  0  0  0  0
  141.9466   76.7174  221.7351 H   0  0  0  0  0  0  0  0  0  0  0  0
  140.8549   77.9215  220.9380 H   0  0  0  0  0  0  0  0  0  0  0  0
  141.4651   77.6727  223.9132 H   0  0  0  0  0  0  0  0  0  0  0  0
  141.9617   78.9938  222.8134 H   0  0  0  0  0  0  0  0  0  0  0  0
  140.8514   80.6687  224.0896 H   0  0  0  0  0  0  0  0  0  0  0  0
  138.7072   81.8644  224.5107 H   0  0  0  0  0  0  0  0  0  0  0  0
  136.5605   80.7799  223.9084 H   0  0  0  0  0  0  0  0  0  0  0  0
  136.5408   78.5122  222.8878 H   0  0  0  0  0  0  0  0  0  0  0  0
  138.0980   76.2868  223.0051 H   0  0  0  0  0  0  0  0  0  0  0  0
  138.0616   77.0506  221.3574 H   0  0  0  0  0  0  0  0  0  0  0  0
  143.7125   74.4988  221.1306 H   0  0  0  0  0  0  0  0  0  0  0  0
  144.6053   72.9375  221.3468 H   0  0  0  0  0  0  0  0  0  0  0  0
  144.0391   74.3835  218.7189 H   0  0  0  0  0  0  0  0  0  0  0  0
  145.6243   74.1837  219.5091 H   0  0  0  0  0  0  0  0  0  0  0  0
  1  2  1  0
  2  3  1  0
  3  4  1  0
  4  5  1  0
  5  6  1  0
  6  7  1  0
  7  8  2  0
  8  9  1  0
  9 10  1  0
 10 11  1  0
 11 12  1  0
 12 13  1  0
 13 14  2  0
 14 15  1  0
 15 16  2  0
 16 17  1  0
 17 18  2  0
  9 19  2  0
 19 20  1  0
 20 21  1  0
 21 22  1  0
 22 23  1  0
 23 24  1  0
 24 25  2  0
 25 26  1  0
 26 27  2  0
 27 28  1  0
 28 29  2  0
 29 30  1  0
 20 31  2  0
  6 32  1  0
 32 33  1  0
 33  3  1  0
 31  7  1  0
 18 13  1  0
 30 21  1  0
 29 24  1  0
  1 34  1  0
  1 35  1  0
  2 36  1  0
  2 37  1  0
  3 38  1  0
  4 39  1  0
  4 40  1  0
  5 41  1  0
  5 42  1  0
 10 43  1  0
 11 44  1  0
 11 45  1  0
 12 46  1  0
 12 47  1  0
 14 48  1  0
 15 49  1  0
 16 50  1  0
 17 51  1  0
 18 52  1  0
 22 53  1  0
 22 54  1  0
 23 55  1  0
 23 56  1  0
 25 57  1  0
 26 58  1  0
 27 59  1  0
 28 60  1  0
 30 61  1  0
 30 62  1  0
 32 63  1  0
 32 64  1  0
 33 65  1  0
 33 66  1  0
M  END
>  <smiles>  (28) 
NCC1CCN(c2nc(NCCc3ccccc3)nc(N3CCc4ccccc4C3)n2)CC1

>  <score_type>  (28) 
oracle

>  <origin>  (28) 
autodockgpu

>  <m_score__min__energy>  (28) 
-10.140000000000001

>  <m_primary>  (28) 
energy

>  <rmsd>  (28) 
5.783919719897052

>  <m_score__min__rmsd>  (28) 
5.783919719897052

>  <meeko>  (28) 
{"free_energy": -9.33, "intermolecular_energy": -11.71, "internal_energy": -1.08, "cluster_size": 6, "cluster_id": 2, "rank_in_cluster": 5}

>  <energy>  (28) 
-8.83

>  <cluster_rmsd>  (28) 
1.86

>  <cluster>  (28) 
3

$$$$

     RDKit          3D

 66 70  0  0  0  0  0  0  0  0999 V2000
  142.5700   78.9930  222.4270 N   0  0  0  0  0  0  0  0  0  0  0  0
  141.4870   79.2490  221.4730 C   0  0  0  0  0  0  0  0  0  0  0  0
  140.8800   77.9080  221.1370 C   0  0  0  0  0  0  0  0  0  0  0  0
  140.6310   77.1400  222.4210 C   0  0  0  0  0  0  0  0  0  0  0  0
  139.7950   75.9310  222.0570 C   0  0  0  0  0  0  0  0  0  0  0  0
  140.4840   75.1430  221.0550 N   0  0  0  0  0  0  0  0  0  0  0  0
  140.6450   73.7360  221.2010 C   0  0  0  0  0  0  0  0  0  0  0  0
  141.0490   72.9720  220.1830 N   0  0  0  0  0  0  0  0  0  0  0  0
  141.2070   71.6210  220.3140 C   0  0  0  0  0  0  0  0  0  0  0  0
  141.6390   70.8320  219.2080 N   0  0  0  0  0  0  0  0  0  0  0  0
  143.0500   70.6830  219.0050 C   0  0  0  0  0  0  0  0  0  0  0  0
  143.5310   71.9320  218.2640 C   0  0  0  0  0  0  0  0  0  0  0  0
  144.4180   72.6430  219.2470 C   0  0  0  0  0  0  0  0  0  0  0  0
  144.0450   73.9330  219.5710 C   0  0  0  0  0  0  0  0  0  0  0  0
  144.8350   74.6340  220.4770 C   0  0  0  0  0  0  0  0  0  0  0  0
  145.9630   74.0410  221.0330 C   0  0  0  0  0  0  0  0  0  0  0  0
  146.3040   72.7410  220.6810 C   0  0  0  0  0  0  0  0  0  0  0  0
  145.5330   72.0250  219.7790 C   0  0  0  0  0  0  0  0  0  0  0  0
  140.9340   71.0740  221.5280 N   0  0  0  0  0  0  0  0  0  0  0  0
  140.5260   71.8160  222.5680 C   0  0  0  0  0  0  0  0  0  0  0  0
  140.2560   71.1880  223.8170 N   0  0  0  0  0  0  0  0  0  0  0  0
  140.7010   71.8790  225.0090 C   0  0  0  0  0  0  0  0  0  0  0  0
  141.5530   70.9810  225.8790 C   0  0  0  0  0  0  0  0  0  0  0  0
  140.7960   69.7050  226.1350 C   0  0  0  0  0  0  0  0  0  0  0  0
  141.0570   69.0330  227.3190 C   0  0  0  0  0  0  0  0  0  0  0  0
  140.3810   67.8590  227.5890 C   0  0  0  0  0  0  0  0  0  0  0  0
  139.4620   67.3780  226.6800 C   0  0  0  0  0  0  0  0  0  0  0  0
  139.2130   68.0690  225.4920 C   0  0  0  0  0  0  0  0  0  0  0  0
  139.8880   69.2590  225.2030 C   0  0  0  0  0  0  0  0  0  0  0  0
  139.5800   69.9360  223.9370 C   0  0  0  0  0  0  0  0  0  0  0  0
  140.3860   73.1550  222.3840 N   0  0  0  0  0  0  0  0  0  0  0  0
  141.0120   75.8190  219.8860 C   0  0  0  0  0  0  0  0  0  0  0  0
  141.7790   77.0710  220.2670 C   0  0  0  0  0  0  0  0  0  0  0  0
  143.4460   79.3740  221.9960 H   0  0  0  0  0  0  0  0  0  0  0  0
  142.6730   77.9650  222.6140 H   0  0  0  0  0  0  0  0  0  0  0  0
  140.7295   79.9053  221.9263 H   0  0  0  0  0  0  0  0  0  0  0  0
  141.8651   79.7501  220.5697 H   0  0  0  0  0  0  0  0  0  0  0  0
  139.9468   78.1027  220.5882 H   0  0  0  0  0  0  0  0  0  0  0  0
  141.5868   76.8199  222.8615 H   0  0  0  0  0  0  0  0  0  0  0  0
  140.1128   77.7681  223.1606 H   0  0  0  0  0  0  0  0  0  0  0  0
  139.6300   75.3171  222.9547 H   0  0  0  0  0  0  0  0  0  0  0  0
  138.8275   76.2656  221.6546 H   0  0  0  0  0  0  0  0  0  0  0  0
  140.9320   70.3880  218.5820 H   0  0  0  0  0  0  0  0  0  0  0  0
  143.5638   70.5975  219.9738 H   0  0  0  0  0  0  0  0  0  0  0  0
  143.2688   69.7744  218.4249 H   0  0  0  0  0  0  0  0  0  0  0  0
  144.0964   71.6541  217.3623 H   0  0  0  0  0  0  0  0  0  0  0  0
  142.6952   72.5627  217.9268 H   0  0  0  0  0  0  0  0  0  0  0  0
  143.1501   74.3924  219.1260 H   0  0  0  0  0  0  0  0  0  0  0  0
  144.5654   75.6636  220.7550 H   0  0  0  0  0  0  0  0  0  0  0  0
  146.5835   74.5994  221.7494 H   0  0  0  0  0  0  0  0  0  0  0  0
  147.1965   72.2745  221.1235 H   0  0  0  0  0  0  0  0  0  0  0  0
  145.8007   70.9964  219.4955 H   0  0  0  0  0  0  0  0  0  0  0  0
  141.2926   72.7581  224.7138 H   0  0  0  0  0  0  0  0  0  0  0  0
  139.8149   72.1822  225.5859 H   0  0  0  0  0  0  0  0  0  0  0  0
  142.4985   70.7545  225.3644 H   0  0  0  0  0  0  0  0  0  0  0  0
  141.7782   71.4829  226.8315 H   0  0  0  0  0  0  0  0  0  0  0  0
  141.7928   69.4294  228.0342 H   0  0  0  0  0  0  0  0  0  0  0  0
  140.5744   67.3112  228.5231 H   0  0  0  0  0  0  0  0  0  0  0  0
  138.9215   66.4437  226.8921 H   0  0  0  0  0  0  0  0  0  0  0  0
  138.4779   67.6728  224.7760 H   0  0  0  0  0  0  0  0  0  0  0  0
  139.8868   69.2864  223.1040 H   0  0  0  0  0  0  0  0  0  0  0  0
  138.4980   70.1326  223.9135 H   0  0  0  0  0  0  0  0  0  0  0  0
  141.6876   75.1346  219.3520 H   0  0  0  0  0  0  0  0  0  0  0  0
  140.1669   76.1132  219.2463 H   0  0  0  0  0  0  0  0  0  0  0  0
  142.6898   76.7991  220.8207 H   0  0  0  0  0  0  0  0  0  0  0  0
  142.0768   77.6304  219.3679 H   0  0  0  0  0  0  0  0  0  0  0  0
  1  2  1  0
  2  3  1  0
  3  4  1  0
  4  5  1  0
  5  6  1  0
  6  7  1  0
  7  8  2  0
  8  9  1  0
  9 10  1  0
 10 11  1  0
 11 12  1  0
 12 13  1  0
 13 14  2  0
 14 15  1  0
 15 16  2  0
 16 17  1  0
 17 18  2  0
  9 19  2  0
 19 20  1  0
 20 21  1  0
 21 22  1  0
 22 23  1  0
 23 24  1  0
 24 25  2  0
 25 26  1  0
 26 27  2  0
 27 28  1  0
 28 29  2  0
 29 30  1  0
 20 31  2  0
  6 32  1  0
 32 33  1  0
 33  3  1  0
 31  7  1  0
 18 13  1  0
 30 21  1  0
 29 24  1  0
  1 34  1  0
  1 35  1  0
  2 36  1  0
  2 37  1  0
  3 38  1  0
  4 39  1  0
  4 40  1  0
  5 41  1  0
  5 42  1  0
 10 43  1  0
 11 44  1  0
 11 45  1  0
 12 46  1  0
 12 47  1  0
 14 48  1  0
 15 49  1  0
 16 50  1  0
 17 51  1  0
 18 52  1  0
 22 53  1  0
 22 54  1  0
 23 55  1  0
 23 56  1  0
 25 57  1  0
 26 58  1  0
 27 59  1  0
 28 60  1  0
 30 61  1  0
 30 62  1  0
 32 63  1  0
 32 64  1  0
 33 65  1  0
 33 66  1  0
M  END
>  <smiles>  (29) 
NCC1CCN(c2nc(NCCc3ccccc3)nc(N3CCc4ccccc4C3)n2)CC1

>  <score_type>  (29) 
oracle

>  <origin>  (29) 
autodockgpu

>  <m_score__min__energy>  (29) 
-10.140000000000001

>  <m_primary>  (29) 
energy

>  <rmsd>  (29) 
11.948135387081285

>  <m_score__min__rmsd>  (29) 
11.948135387081285

>  <meeko>  (29) 
{"free_energy": -9.05, "intermolecular_energy": -11.44, "internal_energy": -1.71, "cluster_size": 7, "cluster_id": 3, "rank_in_cluster": 4}

>  <energy>  (29) 
-8.5

>  <cluster_rmsd>  (29) 
1.88

>  <cluster>  (29) 
3

$$$$

     RDKit          3D

 66 70  0  0  0  0  0  0  0  0999 V2000
  146.6740   69.3530  217.9310 N   0  0  0  0  0  0  0  0  0  0  0  0
  145.9340   70.5710  217.5880 C   0  0  0  0  0  0  0  0  0  0  0  0
  145.2340   71.0210  218.8470 C   0  0  0  0  0  0  0  0  0  0  0  0
  143.8500   70.4000  218.8940 C   0  0  0  0  0  0  0  0  0  0  0  0
  143.2940   70.6660  220.2770 C   0  0  0  0  0  0  0  0  0  0  0  0
  143.2800   72.0920  220.5340 N   0  0  0  0  0  0  0  0  0  0  0  0
  142.1180   72.7430  221.0360 C   0  0  0  0  0  0  0  0  0  0  0  0
  141.0790   72.0480  221.5050 N   0  0  0  0  0  0  0  0  0  0  0  0
  139.9590   72.6650  221.9890 C   0  0  0  0  0  0  0  0  0  0  0  0
  138.8650   71.8950  222.4820 N   0  0  0  0  0  0  0  0  0  0  0  0
  138.9450   71.4050  223.8270 C   0  0  0  0  0  0  0  0  0  0  0  0
  140.4270   71.1850  224.1370 C   0  0  0  0  0  0  0  0  0  0  0  0
  140.4730   70.9110  225.6140 C   0  0  0  0  0  0  0  0  0  0  0  0
  141.0680   71.8870  226.3890 C   0  0  0  0  0  0  0  0  0  0  0  0
  141.1350   71.6800  227.7640 C   0  0  0  0  0  0  0  0  0  0  0  0
  140.6150   70.5200  228.3260 C   0  0  0  0  0  0  0  0  0  0  0  0
  140.0230   69.5630  227.5110 C   0  0  0  0  0  0  0  0  0  0  0  0
  139.9460   69.7480  226.1400 C   0  0  0  0  0  0  0  0  0  0  0  0
  139.9380   74.0230  221.9760 N   0  0  0  0  0  0  0  0  0  0  0  0
  140.9660   74.7480  221.5110 C   0  0  0  0  0  0  0  0  0  0  0  0
  140.8890   76.1700  221.5230 N   0  0  0  0  0  0  0  0  0  0  0  0
  140.7640   76.8310  220.2420 C   0  0  0  0  0  0  0  0  0  0  0  0
  141.8300   77.8900  220.0630 C   0  0  0  0  0  0  0  0  0  0  0  0
  141.7940   78.8090  221.2540 C   0  0  0  0  0  0  0  0  0  0  0  0
  142.2010   80.1210  221.0620 C   0  0  0  0  0  0  0  0  0  0  0  0
  142.1820   80.9940  222.1320 C   0  0  0  0  0  0  0  0  0  0  0  0
  141.7610   80.5500  223.3670 C   0  0  0  0  0  0  0  0  0  0  0  0
  141.3550   79.2240  223.5410 C   0  0  0  0  0  0  0  0  0  0  0  0
  141.3670   78.3270  222.4700 C   0  0  0  0  0  0  0  0  0  0  0  0
  140.9290   76.9480  222.7200 C   0  0  0  0  0  0  0  0  0  0  0  0
  142.0560   74.0850  221.0420 N   0  0  0  0  0  0  0  0  0  0  0  0
  144.4850   72.8540  220.2700 C   0  0  0  0  0  0  0  0  0  0  0  0
  145.0700   72.5160  218.9110 C   0  0  0  0  0  0  0  0  0  0  0  0
  147.4260   69.6380  218.6030 H   0  0  0  0  0  0  0  0  0  0  0  0
  147.0960   68.9150  217.0750 H   0  0  0  0  0  0  0  0  0  0  0  0
  146.6275   71.3508  217.2402 H   0  0  0  0  0  0  0  0  0  0  0  0
  145.2124   70.3816  216.7797 H   0  0  0  0  0  0  0  0  0  0  0  0
  145.8559   70.7019  219.6964 H   0  0  0  0  0  0  0  0  0  0  0  0
  143.2034   70.8594  218.1318 H   0  0  0  0  0  0  0  0  0  0  0  0
  143.8964   69.3201  218.6898 H   0  0  0  0  0  0  0  0  0  0  0  0
  142.2684   70.2734  220.3401 H   0  0  0  0  0  0  0  0  0  0  0  0
  143.9279   70.1681  221.0255 H   0  0  0  0  0  0  0  0  0  0  0  0
  138.0440   71.7090  221.8650 H   0  0  0  0  0  0  0  0  0  0  0  0
  138.5191   72.1423  224.5234 H   0  0  0  0  0  0  0  0  0  0  0  0
  138.3782   70.4687  223.9375 H   0  0  0  0  0  0  0  0  0  0  0  0
  140.8181   70.3266  223.5712 H   0  0  0  0  0  0  0  0  0  0  0  0
  141.0434   72.0516  223.8558 H   0  0  0  0  0  0  0  0  0  0  0  0
  141.4769   72.8009  225.9333 H   0  0  0  0  0  0  0  0  0  0  0  0
  141.6020   72.4386  228.4093 H   0  0  0  0  0  0  0  0  0  0  0  0
  140.6720   70.3601  229.4128 H   0  0  0  0  0  0  0  0  0  0  0  0
  139.6104   68.6473  227.9597 H   0  0  0  0  0  0  0  0  0  0  0  0
  139.4797   68.9922  225.4909 H   0  0  0  0  0  0  0  0  0  0  0  0
  140.8641   76.0831  219.4416 H   0  0  0  0  0  0  0  0  0  0  0  0
  139.7792   77.3190  220.1979 H   0  0  0  0  0  0  0  0  0  0  0  0
  142.8187   77.4131  219.9919 H   0  0  0  0  0  0  0  0  0  0  0  0
  141.6440   78.4602  219.1409 H   0  0  0  0  0  0  0  0  0  0  0  0
  142.5345   80.4617  220.0707 H   0  0  0  0  0  0  0  0  0  0  0  0
  142.5012   82.0383  221.9993 H   0  0  0  0  0  0  0  0  0  0  0  0
  141.7444   81.2434  224.2208 H   0  0  0  0  0  0  0  0  0  0  0  0
  141.0222   78.8828  224.5324 H   0  0  0  0  0  0  0  0  0  0  0  0
  141.6285   76.4765  223.4259 H   0  0  0  0  0  0  0  0  0  0  0  0
  139.9099   76.9865  223.1323 H   0  0  0  0  0  0  0  0  0  0  0  0
  144.2430   73.9267  220.2983 H   0  0  0  0  0  0  0  0  0  0  0  0
  145.2294   72.6002  221.0391 H   0  0  0  0  0  0  0  0  0  0  0  0
  144.3898   72.8534  218.1151 H   0  0  0  0  0  0  0  0  0  0  0  0
  146.0387   73.0179  218.7710 H   0  0  0  0  0  0  0  0  0  0  0  0
  1  2  1  0
  2  3  1  0
  3  4  1  0
  4  5  1  0
  5  6  1  0
  6  7  1  0
  7  8  2  0
  8  9  1  0
  9 10  1  0
 10 11  1  0
 11 12  1  0
 12 13  1  0
 13 14  2  0
 14 15  1  0
 15 16  2  0
 16 17  1  0
 17 18  2  0
  9 19  2  0
 19 20  1  0
 20 21  1  0
 21 22  1  0
 22 23  1  0
 23 24  1  0
 24 25  2  0
 25 26  1  0
 26 27  2  0
 27 28  1  0
 28 29  2  0
 29 30  1  0
 20 31  2  0
  6 32  1  0
 32 33  1  0
 33  3  1  0
 31  7  1  0
 18 13  1  0
 30 21  1  0
 29 24  1  0
  1 34  1  0
  1 35  1  0
  2 36  1  0
  2 37  1  0
  3 38  1  0
  4 39  1  0
  4 40  1  0
  5 41  1  0
  5 42  1  0
 10 43  1  0
 11 44  1  0
 11 45  1  0
 12 46  1  0
 12 47  1  0
 14 48  1  0
 15 49  1  0
 16 50  1  0
 17 51  1  0
 18 52  1  0
 22 53  1  0
 22 54  1  0
 23 55  1  0
 23 56  1  0
 25 57  1  0
 26 58  1  0
 27 59  1  0
 28 60  1  0
 30 61  1  0
 30 62  1  0
 32 63  1  0
 32 64  1  0
 33 65  1  0
 33 66  1  0
M  END
>  <smiles>  (30) 
NCC1CCN(c2nc(NCCc3ccccc3)nc(N3CCc4ccccc4C3)n2)CC1

>  <score_type>  (30) 
oracle

>  <origin>  (30) 
autodockgpu

>  <m_score__min__energy>  (30) 
-10.140000000000001

>  <m_primary>  (30) 
energy

>  <rmsd>  (30) 
4.647154634570505

>  <m_score__min__rmsd>  (30) 
4.647154634570505

>  <meeko>  (30) 
{"free_energy": -9.62, "intermolecular_energy": -12.0, "internal_energy": -1.06, "cluster_size": 16, "cluster_id": 1, "rank_in_cluster": 14}

>  <energy>  (30) 
-9.06

>  <cluster_rmsd>  (30) 
0.0

>  <cluster>  (30) 
4

$$$$

     RDKit          3D

 66 70  0  0  0  0  0  0  0  0999 V2000
  142.6470   75.7780  220.1250 N   0  0  0  0  0  0  0  0  0  0  0  0
  143.1030   74.4310  220.4750 C   0  0  0  0  0  0  0  0  0  0  0  0
  141.8670   73.5740  220.6040 C   0  0  0  0  0  0  0  0  0  0  0  0
  140.9180   74.2180  221.5970 C   0  0  0  0  0  0  0  0  0  0  0  0
  139.6030   73.4740  221.4970 C   0  0  0  0  0  0  0  0  0  0  0  0
  139.8180   72.0640  221.7560 N   0  0  0  0  0  0  0  0  0  0  0  0
  139.0020   71.3480  222.6780 C   0  0  0  0  0  0  0  0  0  0  0  0
  139.3850   70.1700  223.1770 N   0  0  0  0  0  0  0  0  0  0  0  0
  138.6090   69.4760  224.0620 C   0  0  0  0  0  0  0  0  0  0  0  0
  139.0450   68.2200  224.5780 N   0  0  0  0  0  0  0  0  0  0  0  0
  139.1220   68.0720  226.0010 C   0  0  0  0  0  0  0  0  0  0  0  0
  140.5910   68.2410  226.3930 C   0  0  0  0  0  0  0  0  0  0  0  0
  140.7130   69.6810  226.8090 C   0  0  0  0  0  0  0  0  0  0  0  0
  141.3240   70.5210  225.8980 C   0  0  0  0  0  0  0  0  0  0  0  0
  141.4610   71.8630  226.2380 C   0  0  0  0  0  0  0  0  0  0  0  0
  140.9930   72.3310  227.4610 C   0  0  0  0  0  0  0  0  0  0  0  0
  140.3850   71.4530  228.3490 C   0  0  0  0  0  0  0  0  0  0  0  0
  140.2380   70.1120  228.0320 C   0  0  0  0  0  0  0  0  0  0  0  0
  137.4210   70.0290  224.4200 N   0  0  0  0  0  0  0  0  0  0  0  0
  137.0090   71.2100  223.9350 C   0  0  0  0  0  0  0  0  0  0  0  0
  135.7540   71.7420  224.3470 N   0  0  0  0  0  0  0  0  0  0  0  0
  135.3830   73.0350  223.8140 C   0  0  0  0  0  0  0  0  0  0  0  0
  135.0250   74.0040  224.9200 C   0  0  0  0  0  0  0  0  0  0  0  0
  133.9850   73.3620  225.7990 C   0  0  0  0  0  0  0  0  0  0  0  0
  133.0980   74.1990  226.4560 C   0  0  0  0  0  0  0  0  0  0  0  0
  132.1290   73.6470  227.2720 C   0  0  0  0  0  0  0  0  0  0  0  0
  132.0630   72.2770  227.4170 C   0  0  0  0  0  0  0  0  0  0  0  0
  132.9670   71.4490  226.7470 C   0  0  0  0  0  0  0  0  0  0  0  0
  133.9520   71.9920  225.9180 C   0  0  0  0  0  0  0  0  0  0  0  0
  134.8710   71.0670  225.2420 C   0  0  0  0  0  0  0  0  0  0  0  0
  137.8200   71.8600  223.0580 N   0  0  0  0  0  0  0  0  0  0  0  0
  140.8880   71.3860  221.0520 C   0  0  0  0  0  0  0  0  0  0  0  0
  142.1770   72.1860  221.0960 C   0  0  0  0  0  0  0  0  0  0  0  0
  142.6270   76.3300  221.0160 H   0  0  0  0  0  0  0  0  0  0  0  0
  141.6900   75.7520  219.6920 H   0  0  0  0  0  0  0  0  0  0  0  0
  143.7578   74.0352  219.6847 H   0  0  0  0  0  0  0  0  0  0  0  0
  143.6781   74.4393  221.4127 H   0  0  0  0  0  0  0  0  0  0  0  0
  141.4205   73.4958  219.6018 H   0  0  0  0  0  0  0  0  0  0  0  0
  141.3232   74.1341  222.6162 H   0  0  0  0  0  0  0  0  0  0  0  0
  140.7828   75.2869  221.3751 H   0  0  0  0  0  0  0  0  0  0  0  0
  138.8970   73.8782  222.2374 H   0  0  0  0  0  0  0  0  0  0  0  0
  139.1897   73.5995  220.4854 H   0  0  0  0  0  0  0  0  0  0  0  0
  139.2950   67.4500  223.9190 H   0  0  0  0  0  0  0  0  0  0  0  0
  138.5092   68.8412  226.4939 H   0  0  0  0  0  0  0  0  0  0  0  0
  138.7449   67.0868  226.3127 H   0  0  0  0  0  0  0  0  0  0  0  0
  140.8488   67.5730  227.2281 H   0  0  0  0  0  0  0  0  0  0  0  0
  141.2732   67.9873  225.5683 H   0  0  0  0  0  0  0  0  0  0  0  0
  141.6909   70.1403  224.9334 H   0  0  0  0  0  0  0  0  0  0  0  0
  141.9426   72.5584  225.5349 H   0  0  0  0  0  0  0  0  0  0  0  0
  141.1040   73.3932  227.7243 H   0  0  0  0  0  0  0  0  0  0  0  0
  140.0157   71.8266  229.3155 H   0  0  0  0  0  0  0  0  0  0  0  0
  139.7580   69.4128  228.7325 H   0  0  0  0  0  0  0  0  0  0  0  0
  136.2289   73.4423  223.2408 H   0  0  0  0  0  0  0  0  0  0  0  0
  134.5020   72.9044  223.1684 H   0  0  0  0  0  0  0  0  0  0  0  0
  135.9210   74.2364  225.5143 H   0  0  0  0  0  0  0  0  0  0  0  0
  134.6319   74.9374  224.4909 H   0  0  0  0  0  0  0  0  0  0  0  0
  133.1642   75.2897  226.3297 H   0  0  0  0  0  0  0  0  0  0  0  0
  131.4157   74.2953  227.8019 H   0  0  0  0  0  0  0  0  0  0  0  0
  131.2929   71.8330  228.0650 H   0  0  0  0  0  0  0  0  0  0  0  0
  132.9027   70.3582  226.8734 H   0  0  0  0  0  0  0  0  0  0  0  0
  135.4693   70.5435  226.0022 H   0  0  0  0  0  0  0  0  0  0  0  0
  134.2669   70.3618  224.6523 H   0  0  0  0  0  0  0  0  0  0  0  0
  141.0595   70.4058  221.5208 H   0  0  0  0  0  0  0  0  0  0  0  0
  140.5896   71.2699  219.9997 H   0  0  0  0  0  0  0  0  0  0  0  0
  142.5566   72.2295  222.1275 H   0  0  0  0  0  0  0  0  0  0  0  0
  142.9460   71.7152  220.4660 H   0  0  0  0  0  0  0  0  0  0  0  0
  1  2  1  0
  2  3  1  0
  3  4  1  0
  4  5  1  0
  5  6  1  0
  6  7  1  0
  7  8  2  0
  8  9  1  0
  9 10  1  0
 10 11  1  0
 11 12  1  0
 12 13  1  0
 13 14  2  0
 14 15  1  0
 15 16  2  0
 16 17  1  0
 17 18  2  0
  9 19  2  0
 19 20  1  0
 20 21  1  0
 21 22  1  0
 22 23  1  0
 23 24  1  0
 24 25  2  0
 25 26  1  0
 26 27  2  0
 27 28  1  0
 28 29  2  0
 29 30  1  0
 20 31  2  0
  6 32  1  0
 32 33  1  0
 33  3  1  0
 31  7  1  0
 18 13  1  0
 30 21  1  0
 29 24  1  0
  1 34  1  0
  1 35  1  0
  2 36  1  0
  2 37  1  0
  3 38  1  0
  4 39  1  0
  4 40  1  0
  5 41  1  0
  5 42  1  0
 10 43  1  0
 11 44  1  0
 11 45  1  0
 12 46  1  0
 12 47  1  0
 14 48  1  0
 15 49  1  0
 16 50  1  0
 17 51  1  0
 18 52  1  0
 22 53  1  0
 22 54  1  0
 23 55  1  0
 23 56  1  0
 25 57  1  0
 26 58  1  0
 27 59  1  0
 28 60  1  0
 30 61  1  0
 30 62  1  0
 32 63  1  0
 32 64  1  0
 33 65  1  0
 33 66  1  0
M  END
>  <smiles>  (31) 
NCC1CCN(c2nc(NCCc3ccccc3)nc(N3CCc4ccccc4C3)n2)CC1

>  <score_type>  (31) 
oracle

>  <origin>  (31) 
autodockgpu

>  <m_score__min__energy>  (31) 
-10.140000000000001

>  <m_primary>  (31) 
energy

>  <rmsd>  (31) 
11.829462597335112

>  <m_score__min__rmsd>  (31) 
11.829462597335112

>  <meeko>  (31) 
{"free_energy": -8.49, "intermolecular_energy": -10.88, "internal_energy": -1.69, "cluster_size": 1, "cluster_id": 6, "rank_in_cluster": 1}

>  <energy>  (31) 
-9.05

>  <cluster_rmsd>  (31) 
0.1

>  <cluster>  (31) 
4

$$$$

     RDKit          3D

 66 70  0  0  0  0  0  0  0  0999 V2000
  139.2670   67.3130  226.4210 N   0  0  0  0  0  0  0  0  0  0  0  0
  140.2060   68.3520  226.8510 C   0  0  0  0  0  0  0  0  0  0  0  0
  139.9240   69.5680  226.0030 C   0  0  0  0  0  0  0  0  0  0  0  0
  139.4110   69.1200  224.6470 C   0  0  0  0  0  0  0  0  0  0  0  0
  138.9030   70.3570  223.9370 C   0  0  0  0  0  0  0  0  0  0  0  0
  139.9650   71.3380  223.8410 N   0  0  0  0  0  0  0  0  0  0  0  0
  140.2720   71.9790  222.6070 C   0  0  0  0  0  0  0  0  0  0  0  0
  140.6000   71.2770  221.5200 N   0  0  0  0  0  0  0  0  0  0  0  0
  140.8950   71.8840  220.3320 C   0  0  0  0  0  0  0  0  0  0  0  0
  141.2430   71.1070  219.1890 N   0  0  0  0  0  0  0  0  0  0  0  0
  142.6120   71.1190  218.7630 C   0  0  0  0  0  0  0  0  0  0  0  0
  142.9580   72.5660  218.4060 C   0  0  0  0  0  0  0  0  0  0  0  0
  144.0740   72.9350  219.3430 C   0  0  0  0  0  0  0  0  0  0  0  0
  143.9650   74.1720  219.9500 C   0  0  0  0  0  0  0  0  0  0  0  0
  144.9740   74.5600  220.8260 C   0  0  0  0  0  0  0  0  0  0  0  0
  146.0530   73.7190  221.0750 C   0  0  0  0  0  0  0  0  0  0  0  0
  146.1230   72.4820  220.4440 C   0  0  0  0  0  0  0  0  0  0  0  0
  145.1310   72.0760  219.5670 C   0  0  0  0  0  0  0  0  0  0  0  0
  140.8440   73.2420  220.2930 N   0  0  0  0  0  0  0  0  0  0  0  0
  140.5180   73.9740  221.3690 C   0  0  0  0  0  0  0  0  0  0  0  0
  140.4800   75.3930  221.2690 N   0  0  0  0  0  0  0  0  0  0  0  0
  140.3830   75.9560  219.9390 C   0  0  0  0  0  0  0  0  0  0  0  0
  141.4790   76.9680  219.6870 C   0  0  0  0  0  0  0  0  0  0  0  0
  141.4610   77.9790  220.8030 C   0  0  0  0  0  0  0  0  0  0  0  0
  141.9050   79.2590  220.5130 C   0  0  0  0  0  0  0  0  0  0  0  0
  141.9030   80.2140  221.5100 C   0  0  0  0  0  0  0  0  0  0  0  0
  141.4620   79.8790  222.7720 C   0  0  0  0  0  0  0  0  0  0  0  0
  141.0180   78.5830  223.0460 C   0  0  0  0  0  0  0  0  0  0  0  0
  141.0120   77.6040  222.0480 C   0  0  0  0  0  0  0  0  0  0  0  0
  140.5340   76.2620  222.4010 C   0  0  0  0  0  0  0  0  0  0  0  0
  140.2330   73.3200  222.5260 N   0  0  0  0  0  0  0  0  0  0  0  0
  140.7190   71.6610  225.0360 C   0  0  0  0  0  0  0  0  0  0  0  0
  141.1520   70.4090  225.7760 C   0  0  0  0  0  0  0  0  0  0  0  0
  139.1990   66.6240  227.2080 H   0  0  0  0  0  0  0  0  0  0  0  0
  139.6040   66.8360  225.5480 H   0  0  0  0  0  0  0  0  0  0  0  0
  140.0508   68.5869  227.9144 H   0  0  0  0  0  0  0  0  0  0  0  0
  141.2474   68.0187  226.7314 H   0  0  0  0  0  0  0  0  0  0  0  0
  139.1813   70.1743  226.5423 H   0  0  0  0  0  0  0  0  0  0  0  0
  140.2251   68.6593  224.0682 H   0  0  0  0  0  0  0  0  0  0  0  0
  138.6110   68.3730  224.7564 H   0  0  0  0  0  0  0  0  0  0  0  0
  138.5645   70.0850  222.9263 H   0  0  0  0  0  0  0  0  0  0  0  0
  138.0641   70.7840  224.5061 H   0  0  0  0  0  0  0  0  0  0  0  0
  140.5070   70.5550  218.6960 H   0  0  0  0  0  0  0  0  0  0  0  0
  143.2633   70.7645  219.5754 H   0  0  0  0  0  0  0  0  0  0  0  0
  142.7592   70.4558  217.8979 H   0  0  0  0  0  0  0  0  0  0  0  0
  143.2902   72.6384  217.3599 H   0  0  0  0  0  0  0  0  0  0  0  0
  142.0923   73.2372  218.5059 H   0  0  0  0  0  0  0  0  0  0  0  0
  143.1069   74.8295  219.7468 H   0  0  0  0  0  0  0  0  0  0  0  0
  144.9177   75.5387  221.3250 H   0  0  0  0  0  0  0  0  0  0  0  0
  146.8479   74.0311  221.7683 H   0  0  0  0  0  0  0  0  0  0  0  0
  146.9767   71.8177  220.6438 H   0  0  0  0  0  0  0  0  0  0  0  0
  145.1838   71.0990  219.0644 H   0  0  0  0  0  0  0  0  0  0  0  0
  140.4674   75.1455  219.2002 H   0  0  0  0  0  0  0  0  0  0  0  0
  139.4128   76.4665  219.8490 H   0  0  0  0  0  0  0  0  0  0  0  0
  142.4545   76.4602  219.6619 H   0  0  0  0  0  0  0  0  0  0  0  0
  141.3149   77.4690  218.7216 H   0  0  0  0  0  0  0  0  0  0  0  0
  142.2547   79.5112  219.5010 H   0  0  0  0  0  0  0  0  0  0  0  0
  142.2512   81.2358  221.2984 H   0  0  0  0  0  0  0  0  0  0  0  0
  141.4596   80.6372  223.5690 H   0  0  0  0  0  0  0  0  0  0  0  0
  140.6693   78.3301  224.0582 H   0  0  0  0  0  0  0  0  0  0  0  0
  141.2152   75.8285  223.1480 H   0  0  0  0  0  0  0  0  0  0  0  0
  139.5134   76.3612  222.7993 H   0  0  0  0  0  0  0  0  0  0  0  0
  141.6131   72.2345  224.7503 H   0  0  0  0  0  0  0  0  0  0  0  0
  140.0725   72.2500  225.7032 H   0  0  0  0  0  0  0  0  0  0  0  0
  141.8831   69.8506  225.1729 H   0  0  0  0  0  0  0  0  0  0  0  0
  141.6245   70.6701  226.7344 H   0  0  0  0  0  0  0  0  0  0  0  0
  1  2  1  0
  2  3  1  0
  3  4  1  0
  4  5  1  0
  5  6  1  0
  6  7  1  0
  7  8  2  0
  8  9  1  0
  9 10  1  0
 10 11  1  0
 11 12  1  0
 12 13  1  0
 13 14  2  0
 14 15  1  0
 15 16  2  0
 16 17  1  0
 17 18  2  0
  9 19  2  0
 19 20  1  0
 20 21  1  0
 21 22  1  0
 22 23  1  0
 23 24  1  0
 24 25  2  0
 25 26  1  0
 26 27  2  0
 27 28  1  0
 28 29  2  0
 29 30  1  0
 20 31  2  0
  6 32  1  0
 32 33  1  0
 33  3  1  0
 31  7  1  0
 18 13  1  0
 30 21  1  0
 29 24  1  0
  1 34  1  0
  1 35  1  0
  2 36  1  0
  2 37  1  0
  3 38  1  0
  4 39  1  0
  4 40  1  0
  5 41  1  0
  5 42  1  0
 10 43  1  0
 11 44  1  0
 11 45  1  0
 12 46  1  0
 12 47  1  0
 14 48  1  0
 15 49  1  0
 16 50  1  0
 17 51  1  0
 18 52  1  0
 22 53  1  0
 22 54  1  0
 23 55  1  0
 23 56  1  0
 25 57  1  0
 26 58  1  0
 27 59  1  0
 28 60  1  0
 30 61  1  0
 30 62  1  0
 32 63  1  0
 32 64  1  0
 33 65  1  0
 33 66  1  0
M  END
>  <smiles>  (32) 
NCC1CCN(c2nc(NCCc3ccccc3)nc(N3CCc4ccccc4C3)n2)CC1

>  <score_type>  (32) 
oracle

>  <origin>  (32) 
autodockgpu

>  <m_score__min__energy>  (32) 
-10.140000000000001

>  <m_primary>  (32) 
energy

>  <rmsd>  (32) 
4.256179447138721

>  <m_score__min__rmsd>  (32) 
4.256179447138721

>  <meeko>  (32) 
{"free_energy": -8.65, "intermolecular_energy": -11.04, "internal_energy": -1.75, "cluster_size": 15, "cluster_id": 4, "rank_in_cluster": 11}

>  <energy>  (32) 
-9.04

>  <cluster_rmsd>  (32) 
0.1

>  <cluster>  (32) 
4

$$$$

     RDKit          3D

 66 70  0  0  0  0  0  0  0  0999 V2000
  145.9690   68.4690  219.8240 N   0  0  0  0  0  0  0  0  0  0  0  0
  146.3410   69.6930  219.1100 C   0  0  0  0  0  0  0  0  0  0  0  0
  145.0970   70.5440  219.0300 C   0  0  0  0  0  0  0  0  0  0  0  0
  145.2930   71.7910  219.8710 C   0  0  0  0  0  0  0  0  0  0  0  0
  144.1420   72.7220  219.5550 C   0  0  0  0  0  0  0  0  0  0  0  0
  142.8840   72.0540  219.8240 N   0  0  0  0  0  0  0  0  0  0  0  0
  141.8630   72.6790  220.5950 C   0  0  0  0  0  0  0  0  0  0  0  0
  140.9350   71.9630  221.2330 N   0  0  0  0  0  0  0  0  0  0  0  0
  139.9520   72.5540  221.9760 C   0  0  0  0  0  0  0  0  0  0  0  0
  138.9740   71.7610  222.6450 N   0  0  0  0  0  0  0  0  0  0  0  0
  139.1800   71.4800  224.0360 C   0  0  0  0  0  0  0  0  0  0  0  0
  140.6800   71.2480  224.2300 C   0  0  0  0  0  0  0  0  0  0  0  0
  140.8170   70.8120  225.6620 C   0  0  0  0  0  0  0  0  0  0  0  0
  140.9430   71.8270  226.5910 C   0  0  0  0  0  0  0  0  0  0  0  0
  141.0730   71.4740  227.9310 C   0  0  0  0  0  0  0  0  0  0  0  0
  141.0760   70.1360  228.3090 C   0  0  0  0  0  0  0  0  0  0  0  0
  140.9470   69.1450  227.3430 C   0  0  0  0  0  0  0  0  0  0  0  0
  140.8160   69.4740  226.0030 C   0  0  0  0  0  0  0  0  0  0  0  0
  139.9500   73.9120  222.0430 N   0  0  0  0  0  0  0  0  0  0  0  0
  140.8690   74.6580  221.4130 C   0  0  0  0  0  0  0  0  0  0  0  0
  140.8180   76.0770  221.5200 N   0  0  0  0  0  0  0  0  0  0  0  0
  140.7190   76.8250  220.2850 C   0  0  0  0  0  0  0  0  0  0  0  0
  141.8060   77.8720  220.1870 C   0  0  0  0  0  0  0  0  0  0  0  0
  141.7760   78.7110  221.4370 C   0  0  0  0  0  0  0  0  0  0  0  0
  142.2090   80.0240  221.3380 C   0  0  0  0  0  0  0  0  0  0  0  0
  142.1950   80.8240  222.4630 C   0  0  0  0  0  0  0  0  0  0  0  0
  141.7530   80.3050  223.6620 C   0  0  0  0  0  0  0  0  0  0  0  0
  141.3200   78.9800  223.7420 C   0  0  0  0  0  0  0  0  0  0  0  0
  141.3270   78.1560  222.6130 C   0  0  0  0  0  0  0  0  0  0  0  0
  140.8600   76.7720  222.7660 C   0  0  0  0  0  0  0  0  0  0  0  0
  141.8250   74.0190  220.6880 N   0  0  0  0  0  0  0  0  0  0  0  0
  142.6790   70.7230  219.2870 C   0  0  0  0  0  0  0  0  0  0  0  0
  143.8770   69.8290  219.5450 C   0  0  0  0  0  0  0  0  0  0  0  0
  146.8630   67.9780  220.0650 H   0  0  0  0  0  0  0  0  0  0  0  0
  145.3630   67.8530  219.2270 H   0  0  0  0  0  0  0  0  0  0  0  0
  147.1308   70.2268  219.6589 H   0  0  0  0  0  0  0  0  0  0  0  0
  146.7283   69.4633  218.1064 H   0  0  0  0  0  0  0  0  0  0  0  0
  144.9375   70.7862  217.9689 H   0  0  0  0  0  0  0  0  0  0  0  0
  145.2863   71.5310  220.9398 H   0  0  0  0  0  0  0  0  0  0  0  0
  146.2580   72.2688  219.6464 H   0  0  0  0  0  0  0  0  0  0  0  0
  144.2184   73.6232  220.1811 H   0  0  0  0  0  0  0  0  0  0  0  0
  144.1839   73.0049  218.4928 H   0  0  0  0  0  0  0  0  0  0  0  0
  138.1450   71.4100  222.1180 H   0  0  0  0  0  0  0  0  0  0  0  0
  138.8478   72.3326  224.6465 H   0  0  0  0  0  0  0  0  0  0  0  0
  138.6034   70.5963  224.3468 H   0  0  0  0  0  0  0  0  0  0  0  0
  141.0423   70.4635  223.5494 H   0  0  0  0  0  0  0  0  0  0  0  0
  141.2721   72.1488  224.0109 H   0  0  0  0  0  0  0  0  0  0  0  0
  140.9406   72.8824  226.2808 H   0  0  0  0  0  0  0  0  0  0  0  0
  141.1740   72.2583  228.6956 H   0  0  0  0  0  0  0  0  0  0  0  0
  141.1802   69.8626  229.3694 H   0  0  0  0  0  0  0  0  0  0  0  0
  140.9489   68.0874  227.6455 H   0  0  0  0  0  0  0  0  0  0  0  0
  140.7143   68.6932  225.2348 H   0  0  0  0  0  0  0  0  0  0  0  0
  140.8131   76.1305  219.4371 H   0  0  0  0  0  0  0  0  0  0  0  0
  139.7442   77.3342  220.2652 H   0  0  0  0  0  0  0  0  0  0  0  0
  142.7861   77.3815  220.0929 H   0  0  0  0  0  0  0  0  0  0  0  0
  141.6397   78.5061  219.3036 H   0  0  0  0  0  0  0  0  0  0  0  0
  142.5594   80.4236  220.3749 H   0  0  0  0  0  0  0  0  0  0  0  0
  142.5342   81.8687  222.4035 H   0  0  0  0  0  0  0  0  0  0  0  0
  141.7416   80.9389  224.5609 H   0  0  0  0  0  0  0  0  0  0  0  0
  140.9693   78.5799  224.7048 H   0  0  0  0  0  0  0  0  0  0  0  0
  141.5428   76.2407  223.4453 H   0  0  0  0  0  0  0  0  0  0  0  0
  139.8375   76.8030  223.1704 H   0  0  0  0  0  0  0  0  0  0  0  0
  141.7922   70.2784  219.7624 H   0  0  0  0  0  0  0  0  0  0  0  0
  142.5392   70.8074  218.1992 H   0  0  0  0  0  0  0  0  0  0  0  0
  143.9796   69.6414  220.6240 H   0  0  0  0  0  0  0  0  0  0  0  0
  143.7533   68.8610  219.0375 H   0  0  0  0  0  0  0  0  0  0  0  0
  1  2  1  0
  2  3  1  0
  3  4  1  0
  4  5  1  0
  5  6  1  0
  6  7  1  0
  7  8  2  0
  8  9  1  0
  9 10  1  0
 10 11  1  0
 11 12  1  0
 12 13  1  0
 13 14  2  0
 14 15  1  0
 15 16  2  0
 16 17  1  0
 17 18  2  0
  9 19  2  0
 19 20  1  0
 20 21  1  0
 21 22  1  0
 22 23  1  0
 23 24  1  0
 24 25  2  0
 25 26  1  0
 26 27  2  0
 27 28  1  0
 28 29  2  0
 29 30  1  0
 20 31  2  0
  6 32  1  0
 32 33  1  0
 33  3  1  0
 31  7  1  0
 18 13  1  0
 30 21  1  0
 29 24  1  0
  1 34  1  0
  1 35  1  0
  2 36  1  0
  2 37  1  0
  3 38  1  0
  4 39  1  0
  4 40  1  0
  5 41  1  0
  5 42  1  0
 10 43  1  0
 11 44  1  0
 11 45  1  0
 12 46  1  0
 12 47  1  0
 14 48  1  0
 15 49  1  0
 16 50  1  0
 17 51  1  0
 18 52  1  0
 22 53  1  0
 22 54  1  0
 23 55  1  0
 23 56  1  0
 25 57  1  0
 26 58  1  0
 27 59  1  0
 28 60  1  0
 30 61  1  0
 30 62  1  0
 32 63  1  0
 32 64  1  0
 33 65  1  0
 33 66  1  0
M  END
>  <smiles>  (33) 
NCC1CCN(c2nc(NCCc3ccccc3)nc(N3CCc4ccccc4C3)n2)CC1

>  <score_type>  (33) 
oracle

>  <origin>  (33) 
autodockgpu

>  <m_score__min__energy>  (33) 
-10.140000000000001

>  <m_primary>  (33) 
energy

>  <rmsd>  (33) 
4.786046699678614

>  <m_score__min__rmsd>  (33) 
4.786046699678614

>  <meeko>  (33) 
{"free_energy": -9.56, "intermolecular_energy": -11.95, "internal_energy": -1.11, "cluster_size": 16, "cluster_id": 1, "rank_in_cluster": 15}

>  <energy>  (33) 
-8.98

>  <cluster_rmsd>  (33) 
0.21

>  <cluster>  (33) 
4

$$$$

     RDKit          3D

 66 70  0  0  0  0  0  0  0  0999 V2000
  139.7540   67.4500  227.0560 N   0  0  0  0  0  0  0  0  0  0  0  0
  140.6370   68.5890  227.3250 C   0  0  0  0  0  0  0  0  0  0  0  0
  140.2250   69.6900  226.3780 C   0  0  0  0  0  0  0  0  0  0  0  0
  139.8440   69.0790  225.0430 C   0  0  0  0  0  0  0  0  0  0  0  0
  139.1990   70.1760  224.2230 C   0  0  0  0  0  0  0  0  0  0  0  0
  140.1140   71.2920  224.0910 N   0  0  0  0  0  0  0  0  0  0  0  0
  140.3830   71.8840  222.8250 C   0  0  0  0  0  0  0  0  0  0  0  0
  140.7150   71.1410  221.7660 N   0  0  0  0  0  0  0  0  0  0  0  0
  140.9760   71.7010  220.5460 C   0  0  0  0  0  0  0  0  0  0  0  0
  141.3290   70.8810  219.4350 N   0  0  0  0  0  0  0  0  0  0  0  0
  142.7120   70.8140  219.0660 C   0  0  0  0  0  0  0  0  0  0  0  0
  143.0560   72.1340  218.3730 C   0  0  0  0  0  0  0  0  0  0  0  0
  144.0660   72.7880  219.2750 C   0  0  0  0  0  0  0  0  0  0  0  0
  143.8040   74.0990  219.6220 C   0  0  0  0  0  0  0  0  0  0  0  0
  144.7090   74.7490  220.4550 C   0  0  0  0  0  0  0  0  0  0  0  0
  145.8410   74.0860  220.9170 C   0  0  0  0  0  0  0  0  0  0  0  0
  146.0680   72.7660  220.5440 C   0  0  0  0  0  0  0  0  0  0  0  0
  145.1800   72.1000  219.7150 C   0  0  0  0  0  0  0  0  0  0  0  0
  140.8850   73.0530  220.4460 N   0  0  0  0  0  0  0  0  0  0  0  0
  140.5540   73.8250  221.4920 C   0  0  0  0  0  0  0  0  0  0  0  0
  140.4740   75.2370  221.3280 N   0  0  0  0  0  0  0  0  0  0  0  0
  140.8570   75.7700  220.0380 C   0  0  0  0  0  0  0  0  0  0  0  0
  141.9050   76.8520  220.1800 C   0  0  0  0  0  0  0  0  0  0  0  0
  141.4040   77.8760  221.1630 C   0  0  0  0  0  0  0  0  0  0  0  0
  141.8500   79.1800  221.0120 C   0  0  0  0  0  0  0  0  0  0  0  0
  141.4120   80.1480  221.8940 C   0  0  0  0  0  0  0  0  0  0  0  0
  140.5430   79.8020  222.9070 C   0  0  0  0  0  0  0  0  0  0  0  0
  140.1050   78.4820  223.0440 C   0  0  0  0  0  0  0  0  0  0  0  0
  140.5380   77.4910  222.1600 C   0  0  0  0  0  0  0  0  0  0  0  0
  140.0410   76.1230  222.3590 C   0  0  0  0  0  0  0  0  0  0  0  0
  140.3050   73.2180  222.6820 N   0  0  0  0  0  0  0  0  0  0  0  0
  140.7580   71.8030  225.2860 C   0  0  0  0  0  0  0  0  0  0  0  0
  141.3290   70.6820  226.1330 C   0  0  0  0  0  0  0  0  0  0  0  0
  139.1830   67.3010  227.9220 H   0  0  0  0  0  0  0  0  0  0  0  0
  140.3090   66.5880  226.8320 H   0  0  0  0  0  0  0  0  0  0  0  0
  140.5200   68.9216  228.3670 H   0  0  0  0  0  0  0  0  0  0  0  0
  141.6922   68.3150  227.1783 H   0  0  0  0  0  0  0  0  0  0  0  0
  139.3799   70.2187  226.8429 H   0  0  0  0  0  0  0  0  0  0  0  0
  140.7411   68.7017  224.5303 H   0  0  0  0  0  0  0  0  0  0  0  0
  139.1536   68.2337  225.1805 H   0  0  0  0  0  0  0  0  0  0  0  0
  138.9503   69.7874  223.2244 H   0  0  0  0  0  0  0  0  0  0  0  0
  138.2822   70.5154  224.7272 H   0  0  0  0  0  0  0  0  0  0  0  0
  140.5850   70.3560  218.9230 H   0  0  0  0  0  0  0  0  0  0  0  0
  143.3361   70.6844  219.9625 H   0  0  0  0  0  0  0  0  0  0  0  0
  142.8985   69.9603  218.3979 H   0  0  0  0  0  0  0  0  0  0  0  0
  143.4871   71.9488  217.3781 H   0  0  0  0  0  0  0  0  0  0  0  0
  142.1686   72.7648  218.2161 H   0  0  0  0  0  0  0  0  0  0  0  0
  142.9059   74.6142  219.2505 H   0  0  0  0  0  0  0  0  0  0  0  0
  144.5283   75.7932  220.7499 H   0  0  0  0  0  0  0  0  0  0  0  0
  146.5541   74.6041  221.5751 H   0  0  0  0  0  0  0  0  0  0  0  0
  146.9637   72.2440  220.9117 H   0  0  0  0  0  0  0  0  0  0  0  0
  145.3565   71.0561  219.4165 H   0  0  0  0  0  0  0  0  0  0  0  0
  141.2638   74.9558  219.4202 H   0  0  0  0  0  0  0  0  0  0  0  0
  139.9662   76.2091  219.5651 H   0  0  0  0  0  0  0  0  0  0  0  0
  142.8442   76.4130  220.5478 H   0  0  0  0  0  0  0  0  0  0  0  0
  142.0924   77.3256  219.2050 H   0  0  0  0  0  0  0  0  0  0  0  0
  142.5443   79.4403  220.1995 H   0  0  0  0  0  0  0  0  0  0  0  0
  141.7541   81.1882  221.7891 H   0  0  0  0  0  0  0  0  0  0  0  0
  140.1921   80.5700  223.6120 H   0  0  0  0  0  0  0  0  0  0  0  0
  139.4116   78.2206  223.8570 H   0  0  0  0  0  0  0  0  0  0  0  0
  140.4100   75.7491  223.3255 H   0  0  0  0  0  0  0  0  0  0  0  0
  138.9417   76.1564  222.3359 H   0  0  0  0  0  0  0  0  0  0  0  0
  141.5740   72.4791  224.9909 H   0  0  0  0  0  0  0  0  0  0  0  0
  140.0037   72.3364  225.8830 H   0  0  0  0  0  0  0  0  0  0  0  0
  142.1594   70.1952  225.6006 H   0  0  0  0  0  0  0  0  0  0  0  0
  141.7139   71.0749  227.0856 H   0  0  0  0  0  0  0  0  0  0  0  0
  1  2  1  0
  2  3  1  0
  3  4  1  0
  4  5  1  0
  5  6  1  0
  6  7  1  0
  7  8  2  0
  8  9  1  0
  9 10  1  0
 10 11  1  0
 11 12  1  0
 12 13  1  0
 13 14  2  0
 14 15  1  0
 15 16  2  0
 16 17  1  0
 17 18  2  0
  9 19  2  0
 19 20  1  0
 20 21  1  0
 21 22  1  0
 22 23  1  0
 23 24  1  0
 24 25  2  0
 25 26  1  0
 26 27  2  0
 27 28  1  0
 28 29  2  0
 29 30  1  0
 20 31  2  0
  6 32  1  0
 32 33  1  0
 33  3  1  0
 31  7  1  0
 18 13  1  0
 30 21  1  0
 29 24  1  0
  1 34  1  0
  1 35  1  0
  2 36  1  0
  2 37  1  0
  3 38  1  0
  4 39  1  0
  4 40  1  0
  5 41  1  0
  5 42  1  0
 10 43  1  0
 11 44  1  0
 11 45  1  0
 12 46  1  0
 12 47  1  0
 14 48  1  0
 15 49  1  0
 16 50  1  0
 17 51  1  0
 18 52  1  0
 22 53  1  0
 22 54  1  0
 23 55  1  0
 23 56  1  0
 25 57  1  0
 26 58  1  0
 27 59  1  0
 28 60  1  0
 30 61  1  0
 30 62  1  0
 32 63  1  0
 32 64  1  0
 33 65  1  0
 33 66  1  0
M  END
>  <smiles>  (34) 
NCC1CCN(c2nc(NCCc3ccccc3)nc(N3CCc4ccccc4C3)n2)CC1

>  <score_type>  (34) 
oracle

>  <origin>  (34) 
autodockgpu

>  <m_score__min__energy>  (34) 
-10.140000000000001

>  <m_primary>  (34) 
energy

>  <rmsd>  (34) 
4.390073267072932

>  <m_score__min__rmsd>  (34) 
4.390073267072932

>  <meeko>  (34) 
{"free_energy": -8.87, "intermolecular_energy": -11.26, "internal_energy": -1.8, "cluster_size": 15, "cluster_id": 4, "rank_in_cluster": 5}

>  <energy>  (34) 
-8.87

>  <cluster_rmsd>  (34) 
0.51

>  <cluster>  (34) 
4

$$$$

     RDKit          3D

 66 70  0  0  0  0  0  0  0  0999 V2000
  146.3160   69.9720  218.0070 N   0  0  0  0  0  0  0  0  0  0  0  0
  146.2700   70.6070  219.3270 C   0  0  0  0  0  0  0  0  0  0  0  0
  145.1160   71.5790  219.3000 C   0  0  0  0  0  0  0  0  0  0  0  0
  145.2740   72.5690  220.4390 C   0  0  0  0  0  0  0  0  0  0  0  0
  144.2530   73.6640  220.2170 C   0  0  0  0  0  0  0  0  0  0  0  0
  142.9240   73.0890  220.1520 N   0  0  0  0  0  0  0  0  0  0  0  0
  141.8480   73.6210  220.9170 C   0  0  0  0  0  0  0  0  0  0  0  0
  140.9250   72.8290  221.4670 N   0  0  0  0  0  0  0  0  0  0  0  0
  139.8890   73.3310  222.2030 C   0  0  0  0  0  0  0  0  0  0  0  0
  138.9190   72.4580  222.7780 N   0  0  0  0  0  0  0  0  0  0  0  0
  139.3800   71.2200  223.3330 C   0  0  0  0  0  0  0  0  0  0  0  0
  140.7040   71.5110  224.0420 C   0  0  0  0  0  0  0  0  0  0  0  0
  140.4800   71.0770  225.4640 C   0  0  0  0  0  0  0  0  0  0  0  0
  141.0400   71.8840  226.4350 C   0  0  0  0  0  0  0  0  0  0  0  0
  140.8610   71.5230  227.7670 C   0  0  0  0  0  0  0  0  0  0  0  0
  140.1380   70.3820  228.0960 C   0  0  0  0  0  0  0  0  0  0  0  0
  139.5910   69.5970  227.0880 C   0  0  0  0  0  0  0  0  0  0  0  0
  139.7570   69.9370  225.7550 C   0  0  0  0  0  0  0  0  0  0  0  0
  139.8270   74.6800  222.3570 N   0  0  0  0  0  0  0  0  0  0  0  0
  140.7390   75.5020  221.8150 C   0  0  0  0  0  0  0  0  0  0  0  0
  140.6240   76.9070  222.0100 N   0  0  0  0  0  0  0  0  0  0  0  0
  139.8050   77.6360  221.0660 C   0  0  0  0  0  0  0  0  0  0  0  0
  140.5650   78.7930  220.4550 C   0  0  0  0  0  0  0  0  0  0  0  0
  141.1380   79.6280  221.5690 C   0  0  0  0  0  0  0  0  0  0  0  0
  141.3260   80.9790  221.3240 C   0  0  0  0  0  0  0  0  0  0  0  0
  141.8500   81.7780  222.3220 C   0  0  0  0  0  0  0  0  0  0  0  0
  142.1760   81.2190  223.5390 C   0  0  0  0  0  0  0  0  0  0  0  0
  141.9800   79.8550  223.7680 C   0  0  0  0  0  0  0  0  0  0  0  0
  141.4500   79.0330  222.7700 C   0  0  0  0  0  0  0  0  0  0  0  0
  141.2690   77.6080  223.0740 C   0  0  0  0  0  0  0  0  0  0  0  0
  141.7500   74.9500  221.0930 N   0  0  0  0  0  0  0  0  0  0  0  0
  142.7060   71.9480  219.2840 C   0  0  0  0  0  0  0  0  0  0  0  0
  143.7850   70.8970  219.4650 C   0  0  0  0  0  0  0  0  0  0  0  0
  145.3950   69.4900  217.8730 H   0  0  0  0  0  0  0  0  0  0  0  0
  147.1030   69.2780  217.9500 H   0  0  0  0  0  0  0  0  0  0  0  0
  146.1088   69.8486  220.1072 H   0  0  0  0  0  0  0  0  0  0  0  0
  147.2158   71.1216  219.5520 H   0  0  0  0  0  0  0  0  0  0  0  0
  145.1336   72.0761  218.3189 H   0  0  0  0  0  0  0  0  0  0  0  0
  145.0897   72.0700  221.4018 H   0  0  0  0  0  0  0  0  0  0  0  0
  146.2935   72.9813  220.4627 H   0  0  0  0  0  0  0  0  0  0  0  0
  144.3002   74.3818  221.0492 H   0  0  0  0  0  0  0  0  0  0  0  0
  144.4728   74.1796  219.2705 H   0  0  0  0  0  0  0  0  0  0  0  0
  137.9130   72.7360  222.7810 H   0  0  0  0  0  0  0  0  0  0  0  0
  138.6440   70.8316  224.0524 H   0  0  0  0  0  0  0  0  0  0  0  0
  139.5152   70.4639  222.5456 H   0  0  0  0  0  0  0  0  0  0  0  0
  141.5229   70.9358  223.5855 H   0  0  0  0  0  0  0  0  0  0  0  0
  140.9896   72.5709  223.9708 H   0  0  0  0  0  0  0  0  0  0  0  0
  141.6102   72.7847  226.1637 H   0  0  0  0  0  0  0  0  0  0  0  0
  141.2943   72.1444  228.5646 H   0  0  0  0  0  0  0  0  0  0  0  0
  139.9994   70.1015  229.1506 H   0  0  0  0  0  0  0  0  0  0  0  0
  139.0194   68.6949  227.3516 H   0  0  0  0  0  0  0  0  0  0  0  0
  139.3264   69.3183  224.9538 H   0  0  0  0  0  0  0  0  0  0  0  0
  139.4882   76.9526  220.2644 H   0  0  0  0  0  0  0  0  0  0  0  0
  138.9332   78.0388  221.6024 H   0  0  0  0  0  0  0  0  0  0  0  0
  141.3788   78.4097  219.8220 H   0  0  0  0  0  0  0  0  0  0  0  0
  139.8907   79.4022  219.8352 H   0  0  0  0  0  0  0  0  0  0  0  0
  141.0613   81.4099  220.3471 H   0  0  0  0  0  0  0  0  0  0  0  0
  142.0059   82.8527  222.1466 H   0  0  0  0  0  0  0  0  0  0  0  0
  142.5937   81.8518  224.3360 H   0  0  0  0  0  0  0  0  0  0  0  0
  142.2457   79.4234  224.7443 H   0  0  0  0  0  0  0  0  0  0  0  0
  142.2559   77.1551  223.2495 H   0  0  0  0  0  0  0  0  0  0  0  0
  140.6291   77.5316  223.9655 H   0  0  0  0  0  0  0  0  0  0  0  0
  141.7288   71.5012  219.5197 H   0  0  0  0  0  0  0  0  0  0  0  0
  142.7359   72.2971  218.2413 H   0  0  0  0  0  0  0  0  0  0  0  0
  143.7124   70.4539  220.4692 H   0  0  0  0  0  0  0  0  0  0  0  0
  143.6687   70.0921  218.7243 H   0  0  0  0  0  0  0  0  0  0  0  0
  1  2  1  0
  2  3  1  0
  3  4  1  0
  4  5  1  0
  5  6  1  0
  6  7  1  0
  7  8  2  0
  8  9  1  0
  9 10  1  0
 10 11  1  0
 11 12  1  0
 12 13  1  0
 13 14  2  0
 14 15  1  0
 15 16  2  0
 16 17  1  0
 17 18  2  0
  9 19  2  0
 19 20  1  0
 20 21  1  0
 21 22  1  0
 22 23  1  0
 23 24  1  0
 24 25  2  0
 25 26  1  0
 26 27  2  0
 27 28  1  0
 28 29  2  0
 29 30  1  0
 20 31  2  0
  6 32  1  0
 32 33  1  0
 33  3  1  0
 31  7  1  0
 18 13  1  0
 30 21  1  0
 29 24  1  0
  1 34  1  0
  1 35  1  0
  2 36  1  0
  2 37  1  0
  3 38  1  0
  4 39  1  0
  4 40  1  0
  5 41  1  0
  5 42  1  0
 10 43  1  0
 11 44  1  0
 11 45  1  0
 12 46  1  0
 12 47  1  0
 14 48  1  0
 15 49  1  0
 16 50  1  0
 17 51  1  0
 18 52  1  0
 22 53  1  0
 22 54  1  0
 23 55  1  0
 23 56  1  0
 25 57  1  0
 26 58  1  0
 27 59  1  0
 28 60  1  0
 30 61  1  0
 30 62  1  0
 32 63  1  0
 32 64  1  0
 33 65  1  0
 33 66  1  0
M  END
>  <smiles>  (35) 
NCC1CCN(c2nc(NCCc3ccccc3)nc(N3CCc4ccccc4C3)n2)CC1

>  <score_type>  (35) 
oracle

>  <origin>  (35) 
autodockgpu

>  <m_score__min__energy>  (35) 
-10.140000000000001

>  <m_primary>  (35) 
energy

>  <rmsd>  (35) 
4.900947466432873

>  <m_score__min__rmsd>  (35) 
4.900947466432873

>  <meeko>  (35) 
{"free_energy": -9.71, "intermolecular_energy": -12.09, "internal_energy": -1.08, "cluster_size": 16, "cluster_id": 1, "rank_in_cluster": 13}

>  <energy>  (35) 
-8.84

>  <cluster_rmsd>  (35) 
0.36

>  <cluster>  (35) 
4

$$$$

     RDKit          3D

 66 70  0  0  0  0  0  0  0  0999 V2000
  139.2470   67.2650  226.2340 N   0  0  0  0  0  0  0  0  0  0  0  0
  139.7640   68.3570  227.0630 C   0  0  0  0  0  0  0  0  0  0  0  0
  139.6800   69.6120  226.2280 C   0  0  0  0  0  0  0  0  0  0  0  0
  139.0800   69.2690  224.8770 C   0  0  0  0  0  0  0  0  0  0  0  0
  138.7780   70.5800  224.1830 C   0  0  0  0  0  0  0  0  0  0  0  0
  139.9890   71.3700  224.0770 N   0  0  0  0  0  0  0  0  0  0  0  0
  140.3830   71.9610  222.8440 C   0  0  0  0  0  0  0  0  0  0  0  0
  140.8460   71.2220  221.8330 N   0  0  0  0  0  0  0  0  0  0  0  0
  141.2260   71.7820  220.6450 C   0  0  0  0  0  0  0  0  0  0  0  0
  141.7180   70.9650  219.5850 N   0  0  0  0  0  0  0  0  0  0  0  0
  142.2570   71.6220  218.4310 C   0  0  0  0  0  0  0  0  0  0  0  0
  143.7680   71.3890  218.4450 C   0  0  0  0  0  0  0  0  0  0  0  0
  144.3200   72.5080  219.2830 C   0  0  0  0  0  0  0  0  0  0  0  0
  145.4240   72.1960  220.0530 C   0  0  0  0  0  0  0  0  0  0  0  0
  145.9720   73.1990  220.8470 C   0  0  0  0  0  0  0  0  0  0  0  0
  145.4150   74.4730  220.8560 C   0  0  0  0  0  0  0  0  0  0  0  0
  144.3040   74.7460  220.0660 C   0  0  0  0  0  0  0  0  0  0  0  0
  143.7420   73.7620  219.2680 C   0  0  0  0  0  0  0  0  0  0  0  0
  141.1160   73.1310  220.5260 N   0  0  0  0  0  0  0  0  0  0  0  0
  140.6540   73.9000  221.5230 C   0  0  0  0  0  0  0  0  0  0  0  0
  140.5590   75.3080  221.3410 N   0  0  0  0  0  0  0  0  0  0  0  0
  140.4310   75.7870  219.9810 C   0  0  0  0  0  0  0  0  0  0  0  0
  141.4850   76.8240  219.6610 C   0  0  0  0  0  0  0  0  0  0  0  0
  141.4340   77.8980  220.7150 C   0  0  0  0  0  0  0  0  0  0  0  0
  141.8260   79.1750  220.3470 C   0  0  0  0  0  0  0  0  0  0  0  0
  141.7930   80.1870  221.2870 C   0  0  0  0  0  0  0  0  0  0  0  0
  141.3740   79.9090  222.5700 C   0  0  0  0  0  0  0  0  0  0  0  0
  140.9830   78.6150  222.9230 C   0  0  0  0  0  0  0  0  0  0  0  0
  141.0090   77.5800  221.9850 C   0  0  0  0  0  0  0  0  0  0  0  0
  140.5860   76.2430  222.4200 C   0  0  0  0  0  0  0  0  0  0  0  0
  140.2890   73.2920  222.6840 N   0  0  0  0  0  0  0  0  0  0  0  0
  140.8030   71.5500  225.2640 C   0  0  0  0  0  0  0  0  0  0  0  0
  141.0280   70.2360  225.9880 C   0  0  0  0  0  0  0  0  0  0  0  0
  139.2280   66.4100  226.8410 H   0  0  0  0  0  0  0  0  0  0  0  0
  139.8600   67.1030  225.3970 H   0  0  0  0  0  0  0  0  0  0  0  0
  139.1538   68.4647  227.9719 H   0  0  0  0  0  0  0  0  0  0  0  0
  140.7994   68.1593  227.3775 H   0  0  0  0  0  0  0  0  0  0  0  0
  139.0585   70.3301  226.7830 H   0  0  0  0  0  0  0  0  0  0  0  0
  139.7967   68.6830  224.2828 H   0  0  0  0  0  0  0  0  0  0  0  0
  138.1672   68.6664  224.9937 H   0  0  0  0  0  0  0  0  0  0  0  0
  138.3845   70.3779  223.1759 H   0  0  0  0  0  0  0  0  0  0  0  0
  138.0311   71.1369  224.7679 H   0  0  0  0  0  0  0  0  0  0  0  0
  141.6760   69.9260  219.6720 H   0  0  0  0  0  0  0  0  0  0  0  0
  141.8183   71.1974  217.5159 H   0  0  0  0  0  0  0  0  0  0  0  0
  142.0268   72.6975  218.4499 H   0  0  0  0  0  0  0  0  0  0  0  0
  144.0058   70.4139  218.8951 H   0  0  0  0  0  0  0  0  0  0  0  0
  144.1964   71.3780  217.4319 H   0  0  0  0  0  0  0  0  0  0  0  0
  145.8569   71.1849  220.0388 H   0  0  0  0  0  0  0  0  0  0  0  0
  146.8514   72.9826  221.4714 H   0  0  0  0  0  0  0  0  0  0  0  0
  145.8518   75.2620  221.4859 H   0  0  0  0  0  0  0  0  0  0  0  0
  143.8658   75.7549  220.0744 H   0  0  0  0  0  0  0  0  0  0  0  0
  142.8626   73.9734  218.6420 H   0  0  0  0  0  0  0  0  0  0  0  0
  140.5424   74.9381  219.2903 H   0  0  0  0  0  0  0  0  0  0  0  0
  139.4409   76.2530  219.8692 H   0  0  0  0  0  0  0  0  0  0  0  0
  142.4794   76.3537  219.6582 H   0  0  0  0  0  0  0  0  0  0  0  0
  141.2957   77.2601  218.6690 H   0  0  0  0  0  0  0  0  0  0  0  0
  142.1594   79.3806  219.3191 H   0  0  0  0  0  0  0  0  0  0  0  0
  142.0990   81.2075  221.0132 H   0  0  0  0  0  0  0  0  0  0  0  0
  141.3472   80.7117  223.3216 H   0  0  0  0  0  0  0  0  0  0  0  0
  140.6509   78.4088  223.9512 H   0  0  0  0  0  0  0  0  0  0  0  0
  141.2884   75.8807  223.1851 H   0  0  0  0  0  0  0  0  0  0  0  0
  139.5649   76.3256  222.8208 H   0  0  0  0  0  0  0  0  0  0  0  0
  141.7772   71.9673  224.9695 H   0  0  0  0  0  0  0  0  0  0  0  0
  140.2742   72.2332  225.9449 H   0  0  0  0  0  0  0  0  0  0  0  0
  141.6458   69.5681  225.3697 H   0  0  0  0  0  0  0  0  0  0  0  0
  141.5507   70.4047  226.9410 H   0  0  0  0  0  0  0  0  0  0  0  0
  1  2  1  0
  2  3  1  0
  3  4  1  0
  4  5  1  0
  5  6  1  0
  6  7  1  0
  7  8  2  0
  8  9  1  0
  9 10  1  0
 10 11  1  0
 11 12  1  0
 12 13  1  0
 13 14  2  0
 14 15  1  0
 15 16  2  0
 16 17  1  0
 17 18  2  0
  9 19  2  0
 19 20  1  0
 20 21  1  0
 21 22  1  0
 22 23  1  0
 23 24  1  0
 24 25  2  0
 25 26  1  0
 26 27  2  0
 27 28  1  0
 28 29  2  0
 29 30  1  0
 20 31  2  0
  6 32  1  0
 32 33  1  0
 33  3  1  0
 31  7  1  0
 18 13  1  0
 30 21  1  0
 29 24  1  0
  1 34  1  0
  1 35  1  0
  2 36  1  0
  2 37  1  0
  3 38  1  0
  4 39  1  0
  4 40  1  0
  5 41  1  0
  5 42  1  0
 10 43  1  0
 11 44  1  0
 11 45  1  0
 12 46  1  0
 12 47  1  0
 14 48  1  0
 15 49  1  0
 16 50  1  0
 17 51  1  0
 18 52  1  0
 22 53  1  0
 22 54  1  0
 23 55  1  0
 23 56  1  0
 25 57  1  0
 26 58  1  0
 27 59  1  0
 28 60  1  0
 30 61  1  0
 30 62  1  0
 32 63  1  0
 32 64  1  0
 33 65  1  0
 33 66  1  0
M  END
>  <smiles>  (36) 
NCC1CCN(c2nc(NCCc3ccccc3)nc(N3CCc4ccccc4C3)n2)CC1

>  <score_type>  (36) 
oracle

>  <origin>  (36) 
autodockgpu

>  <m_score__min__energy>  (36) 
-10.140000000000001

>  <m_primary>  (36) 
energy

>  <rmsd>  (36) 
4.145616292161606

>  <m_score__min__rmsd>  (36) 
4.145616292161606

>  <meeko>  (36) 
{"free_energy": -8.75, "intermolecular_energy": -11.14, "internal_energy": -1.81, "cluster_size": 15, "cluster_id": 4, "rank_in_cluster": 8}

>  <energy>  (36) 
-8.83

>  <cluster_rmsd>  (36) 
0.45

>  <cluster>  (36) 
4

$$$$

     RDKit          3D

 66 70  0  0  0  0  0  0  0  0999 V2000
  146.4480   69.4980  217.9790 N   0  0  0  0  0  0  0  0  0  0  0  0
  146.3420   70.1780  219.2730 C   0  0  0  0  0  0  0  0  0  0  0  0
  145.0960   71.0270  219.2160 C   0  0  0  0  0  0  0  0  0  0  0  0
  145.3080   72.2760  220.0500 C   0  0  0  0  0  0  0  0  0  0  0  0
  144.1500   73.2060  219.7550 C   0  0  0  0  0  0  0  0  0  0  0  0
  142.8980   72.5370  220.0510 N   0  0  0  0  0  0  0  0  0  0  0  0
  141.8920   73.1630  220.8410 C   0  0  0  0  0  0  0  0  0  0  0  0
  140.9920   72.4470  221.5180 N   0  0  0  0  0  0  0  0  0  0  0  0
  140.0240   73.0390  222.2790 C   0  0  0  0  0  0  0  0  0  0  0  0
  139.0760   72.2460  222.9900 N   0  0  0  0  0  0  0  0  0  0  0  0
  139.5150   70.9830  223.5070 C   0  0  0  0  0  0  0  0  0  0  0  0
  140.8420   71.2290  224.2280 C   0  0  0  0  0  0  0  0  0  0  0  0
  140.5520   70.9320  225.6730 C   0  0  0  0  0  0  0  0  0  0  0  0
  141.0120   71.8640  226.5830 C   0  0  0  0  0  0  0  0  0  0  0  0
  140.7700   71.6340  227.9340 C   0  0  0  0  0  0  0  0  0  0  0  0
  140.0840   70.4950  228.3410 C   0  0  0  0  0  0  0  0  0  0  0  0
  139.6370   69.5820  227.3930 C   0  0  0  0  0  0  0  0  0  0  0  0
  139.8690   69.7910  226.0430 C   0  0  0  0  0  0  0  0  0  0  0  0
  140.0070   74.3970  222.3240 N   0  0  0  0  0  0  0  0  0  0  0  0
  140.8980   75.1430  221.6540 C   0  0  0  0  0  0  0  0  0  0  0  0
  140.8320   76.5630  221.7390 N   0  0  0  0  0  0  0  0  0  0  0  0
  140.6000   77.2840  220.5060 C   0  0  0  0  0  0  0  0  0  0  0  0
  141.6530   78.3460  220.2820 C   0  0  0  0  0  0  0  0  0  0  0  0
  141.7300   79.2100  221.5130 C   0  0  0  0  0  0  0  0  0  0  0  0
  142.1280   80.5270  221.3470 C   0  0  0  0  0  0  0  0  0  0  0  0
  142.2100   81.3500  222.4530 C   0  0  0  0  0  0  0  0  0  0  0  0
  141.8960   80.8490  223.6990 C   0  0  0  0  0  0  0  0  0  0  0  0
  141.4970   79.5180  223.8470 C   0  0  0  0  0  0  0  0  0  0  0  0
  141.4080   78.6720  222.7380 C   0  0  0  0  0  0  0  0  0  0  0  0
  140.9830   77.2840  222.9620 C   0  0  0  0  0  0  0  0  0  0  0  0
  141.8400   74.5040  220.9130 N   0  0  0  0  0  0  0  0  0  0  0  0
  142.6830   71.2050  219.5210 C   0  0  0  0  0  0  0  0  0  0  0  0
  143.8870   70.3120  219.7570 C   0  0  0  0  0  0  0  0  0  0  0  0
  145.9100   68.6020  218.0650 H   0  0  0  0  0  0  0  0  0  0  0  0
  147.4500   69.2990  217.7380 H   0  0  0  0  0  0  0  0  0  0  0  0
  146.2606   69.4392  220.0839 H   0  0  0  0  0  0  0  0  0  0  0  0
  147.2317   70.7940  219.4703 H   0  0  0  0  0  0  0  0  0  0  0  0
  144.9146   71.2664  218.1578 H   0  0  0  0  0  0  0  0  0  0  0  0
  145.3229   72.0184  221.1193 H   0  0  0  0  0  0  0  0  0  0  0  0
  146.2680   72.7538  219.8050 H   0  0  0  0  0  0  0  0  0  0  0  0
  144.2383   74.1086  220.3774 H   0  0  0  0  0  0  0  0  0  0  0  0
  144.1703   73.4870  218.6917 H   0  0  0  0  0  0  0  0  0  0  0  0
  138.1010   72.5960  223.1170 H   0  0  0  0  0  0  0  0  0  0  0  0
  138.7706   70.5846  224.2121 H   0  0  0  0  0  0  0  0  0  0  0  0
  139.6398   70.2500  222.6963 H   0  0  0  0  0  0  0  0  0  0  0  0
  141.6231   70.5569  223.8430 H   0  0  0  0  0  0  0  0  0  0  0  0
  141.2123   72.2542  224.0800 H   0  0  0  0  0  0  0  0  0  0  0  0
  141.5536   72.7615  226.2496 H   0  0  0  0  0  0  0  0  0  0  0  0
  141.1233   72.3571  228.6839 H   0  0  0  0  0  0  0  0  0  0  0  0
  139.8956   70.3170  229.4100 H   0  0  0  0  0  0  0  0  0  0  0  0
  139.0927   68.6831  227.7183 H   0  0  0  0  0  0  0  0  0  0  0  0
  139.5197   69.0699  225.2894 H   0  0  0  0  0  0  0  0  0  0  0  0
  140.6234   76.5739  219.6662 H   0  0  0  0  0  0  0  0  0  0  0  0
  139.6191   77.7773  220.5724 H   0  0  0  0  0  0  0  0  0  0  0  0
  142.6279   77.8696  220.1015 H   0  0  0  0  0  0  0  0  0  0  0  0
  141.3899   78.9589  219.4073 H   0  0  0  0  0  0  0  0  0  0  0  0
  142.3755   80.9121  220.3468 H   0  0  0  0  0  0  0  0  0  0  0  0
  142.5237   82.3983  222.3409 H   0  0  0  0  0  0  0  0  0  0  0  0
  141.9601   81.5015  224.5822 H   0  0  0  0  0  0  0  0  0  0  0  0
  141.2503   79.1319  224.8470 H   0  0  0  0  0  0  0  0  0  0  0  0
  141.7382   76.7776  223.5810 H   0  0  0  0  0  0  0  0  0  0  0  0
  140.0045   77.3069  223.4640 H   0  0  0  0  0  0  0  0  0  0  0  0
  141.8062   70.7609  220.0149 H   0  0  0  0  0  0  0  0  0  0  0  0
  142.5213   71.2870  218.4360 H   0  0  0  0  0  0  0  0  0  0  0  0
  144.0114   70.1268  220.8341 H   0  0  0  0  0  0  0  0  0  0  0  0
  143.7539   69.3427  219.2543 H   0  0  0  0  0  0  0  0  0  0  0  0
  1  2  1  0
  2  3  1  0
  3  4  1  0
  4  5  1  0
  5  6  1  0
  6  7  1  0
  7  8  2  0
  8  9  1  0
  9 10  1  0
 10 11  1  0
 11 12  1  0
 12 13  1  0
 13 14  2  0
 14 15  1  0
 15 16  2  0
 16 17  1  0
 17 18  2  0
  9 19  2  0
 19 20  1  0
 20 21  1  0
 21 22  1  0
 22 23  1  0
 23 24  1  0
 24 25  2  0
 25 26  1  0
 26 27  2  0
 27 28  1  0
 28 29  2  0
 29 30  1  0
 20 31  2  0
  6 32  1  0
 32 33  1  0
 33  3  1  0
 31  7  1  0
 18 13  1  0
 30 21  1  0
 29 24  1  0
  1 34  1  0
  1 35  1  0
  2 36  1  0
  2 37  1  0
  3 38  1  0
  4 39  1  0
  4 40  1  0
  5 41  1  0
  5 42  1  0
 10 43  1  0
 11 44  1  0
 11 45  1  0
 12 46  1  0
 12 47  1  0
 14 48  1  0
 15 49  1  0
 16 50  1  0
 17 51  1  0
 18 52  1  0
 22 53  1  0
 22 54  1  0
 23 55  1  0
 23 56  1  0
 25 57  1  0
 26 58  1  0
 27 59  1  0
 28 60  1  0
 30 61  1  0
 30 62  1  0
 32 63  1  0
 32 64  1  0
 33 65  1  0
 33 66  1  0
M  END
>  <smiles>  (37) 
NCC1CCN(c2nc(NCCc3ccccc3)nc(N3CCc4ccccc4C3)n2)CC1

>  <score_type>  (37) 
oracle

>  <origin>  (37) 
autodockgpu

>  <m_score__min__energy>  (37) 
-10.140000000000001

>  <m_primary>  (37) 
energy

>  <rmsd>  (37) 
4.870552600444297

>  <m_score__min__rmsd>  (37) 
4.870552600444297

>  <meeko>  (37) 
{"free_energy": -10.02, "intermolecular_energy": -12.41, "internal_energy": -1.11, "cluster_size": 16, "cluster_id": 1, "rank_in_cluster": 6}

>  <energy>  (37) 
-8.75

>  <cluster_rmsd>  (37) 
0.56

>  <cluster>  (37) 
4

$$$$

     RDKit          3D

 66 70  0  0  0  0  0  0  0  0999 V2000
  145.9340   68.4350  219.7480 N   0  0  0  0  0  0  0  0  0  0  0  0
  146.2870   69.6250  218.9700 C   0  0  0  0  0  0  0  0  0  0  0  0
  145.0730   70.5220  218.9750 C   0  0  0  0  0  0  0  0  0  0  0  0
  145.3630   71.7430  219.8280 C   0  0  0  0  0  0  0  0  0  0  0  0
  144.2320   72.7230  219.5950 C   0  0  0  0  0  0  0  0  0  0  0  0
  142.9660   72.0960  219.9200 N   0  0  0  0  0  0  0  0  0  0  0  0
  142.0140   72.7420  220.7590 C   0  0  0  0  0  0  0  0  0  0  0  0
  141.2040   72.0440  221.5590 N   0  0  0  0  0  0  0  0  0  0  0  0
  140.2870   72.6550  222.3670 C   0  0  0  0  0  0  0  0  0  0  0  0
  139.4360   71.8820  223.2100 N   0  0  0  0  0  0  0  0  0  0  0  0
  139.8990   70.5900  223.6240 C   0  0  0  0  0  0  0  0  0  0  0  0
  138.9590   70.1090  224.7300 C   0  0  0  0  0  0  0  0  0  0  0  0
  139.6890   70.4060  226.0100 C   0  0  0  0  0  0  0  0  0  0  0  0
  140.4860   71.5350  226.0000 C   0  0  0  0  0  0  0  0  0  0  0  0
  141.1830   71.8530  227.1610 C   0  0  0  0  0  0  0  0  0  0  0  0
  141.0720   71.0500  228.2910 C   0  0  0  0  0  0  0  0  0  0  0  0
  140.2590   69.9230  228.2590 C   0  0  0  0  0  0  0  0  0  0  0  0
  139.5560   69.5870  227.1130 C   0  0  0  0  0  0  0  0  0  0  0  0
  140.2260   74.0120  222.3300 N   0  0  0  0  0  0  0  0  0  0  0  0
  141.0260   74.7400  221.5370 C   0  0  0  0  0  0  0  0  0  0  0  0
  140.9180   76.1590  221.5390 N   0  0  0  0  0  0  0  0  0  0  0  0
  140.9650   76.8240  220.2540 C   0  0  0  0  0  0  0  0  0  0  0  0
  142.0230   77.9050  220.2310 C   0  0  0  0  0  0  0  0  0  0  0  0
  141.7980   78.8180  221.4060 C   0  0  0  0  0  0  0  0  0  0  0  0
  142.2010   80.1380  221.2770 C   0  0  0  0  0  0  0  0  0  0  0  0
  142.0100   81.0070  222.3330 C   0  0  0  0  0  0  0  0  0  0  0  0
  141.4260   80.5480  223.4940 C   0  0  0  0  0  0  0  0  0  0  0  0
  141.0260   79.2140  223.6070 C   0  0  0  0  0  0  0  0  0  0  0  0
  141.2110   78.3220  222.5470 C   0  0  0  0  0  0  0  0  0  0  0  0
  140.7700   76.9330  222.7300 C   0  0  0  0  0  0  0  0  0  0  0  0
  141.9210   74.0820  220.7530 N   0  0  0  0  0  0  0  0  0  0  0  0
  142.6820   70.7860  219.3690 C   0  0  0  0  0  0  0  0  0  0  0  0
  143.8570   69.8420  219.5430 C   0  0  0  0  0  0  0  0  0  0  0  0
  146.8220   68.0820  220.1780 H   0  0  0  0  0  0  0  0  0  0  0  0
  145.5070   67.6960  219.1350 H   0  0  0  0  0  0  0  0  0  0  0  0
  147.1414   70.1407  219.4326 H   0  0  0  0  0  0  0  0  0  0  0  0
  146.5757   69.3554  217.9434 H   0  0  0  0  0  0  0  0  0  0  0  0
  144.8640   70.7918  217.9293 H   0  0  0  0  0  0  0  0  0  0  0  0
  145.4056   71.4605  220.8903 H   0  0  0  0  0  0  0  0  0  0  0  0
  146.3317   72.1894  219.5590 H   0  0  0  0  0  0  0  0  0  0  0  0
  144.3768   73.6067  220.2338 H   0  0  0  0  0  0  0  0  0  0  0  0
  144.2264   73.0275  218.5380 H   0  0  0  0  0  0  0  0  0  0  0  0
  138.5100   72.2660  223.5010 H   0  0  0  0  0  0  0  0  0  0  0  0
  139.8729   69.8901  222.7757 H   0  0  0  0  0  0  0  0  0  0  0  0
  140.9360   70.6434  223.9871 H   0  0  0  0  0  0  0  0  0  0  0  0
  138.0048   70.6550  224.6923 H   0  0  0  0  0  0  0  0  0  0  0  0
  138.7124   69.0416  224.6305 H   0  0  0  0  0  0  0  0  0  0  0  0
  140.5667   72.1634  225.1008 H   0  0  0  0  0  0  0  0  0  0  0  0
  141.8260   72.7452  227.1855 H   0  0  0  0  0  0  0  0  0  0  0  0
  141.6255   71.3057  229.2066 H   0  0  0  0  0  0  0  0  0  0  0  0
  140.1726   69.2900  229.1544 H   0  0  0  0  0  0  0  0  0  0  0  0
  138.9122   68.6956  227.0833 H   0  0  0  0  0  0  0  0  0  0  0  0
  141.1944   76.0819  219.4751 H   0  0  0  0  0  0  0  0  0  0  0  0
  139.9869   77.2926  220.0704 H   0  0  0  0  0  0  0  0  0  0  0  0
  143.0214   77.4487  220.3014 H   0  0  0  0  0  0  0  0  0  0  0  0
  141.9589   78.4754  219.2926 H   0  0  0  0  0  0  0  0  0  0  0  0
  142.6674   80.4890  220.3446 H   0  0  0  0  0  0  0  0  0  0  0  0
  142.3218   82.0585  222.2482 H   0  0  0  0  0  0  0  0  0  0  0  0
  141.2737   81.2370  224.3379 H   0  0  0  0  0  0  0  0  0  0  0  0
  140.5608   78.8623  224.5397 H   0  0  0  0  0  0  0  0  0  0  0  0
  141.3706   76.4729  223.5285 H   0  0  0  0  0  0  0  0  0  0  0  0
  139.7017   76.9494  222.9917 H   0  0  0  0  0  0  0  0  0  0  0  0
  141.8058   70.3644  219.8833 H   0  0  0  0  0  0  0  0  0  0  0  0
  142.4875   70.8996  218.2923 H   0  0  0  0  0  0  0  0  0  0  0  0
  144.0113   69.6276  220.6108 H   0  0  0  0  0  0  0  0  0  0  0  0
  143.6686   68.8901  219.0249 H   0  0  0  0  0  0  0  0  0  0  0  0
  1  2  1  0
  2  3  1  0
  3  4  1  0
  4  5  1  0
  5  6  1  0
  6  7  1  0
  7  8  2  0
  8  9  1  0
  9 10  1  0
 10 11  1  0
 11 12  1  0
 12 13  1  0
 13 14  2  0
 14 15  1  0
 15 16  2  0
 16 17  1  0
 17 18  2  0
  9 19  2  0
 19 20  1  0
 20 21  1  0
 21 22  1  0
 22 23  1  0
 23 24  1  0
 24 25  2  0
 25 26  1  0
 26 27  2  0
 27 28  1  0
 28 29  2  0
 29 30  1  0
 20 31  2  0
  6 32  1  0
 32 33  1  0
 33  3  1  0
 31  7  1  0
 18 13  1  0
 30 21  1  0
 29 24  1  0
  1 34  1  0
  1 35  1  0
  2 36  1  0
  2 37  1  0
  3 38  1  0
  4 39  1  0
  4 40  1  0
  5 41  1  0
  5 42  1  0
 10 43  1  0
 11 44  1  0
 11 45  1  0
 12 46  1  0
 12 47  1  0
 14 48  1  0
 15 49  1  0
 16 50  1  0
 17 51  1  0
 18 52  1  0
 22 53  1  0
 22 54  1  0
 23 55  1  0
 23 56  1  0
 25 57  1  0
 26 58  1  0
 27 59  1  0
 28 60  1  0
 30 61  1  0
 30 62  1  0
 32 63  1  0
 32 64  1  0
 33 65  1  0
 33 66  1  0
M  END
>  <smiles>  (38) 
NCC1CCN(c2nc(NCCc3ccccc3)nc(N3CCc4ccccc4C3)n2)CC1

>  <score_type>  (38) 
oracle

>  <origin>  (38) 
autodockgpu

>  <m_score__min__energy>  (38) 
-10.140000000000001

>  <m_primary>  (38) 
energy

>  <rmsd>  (38) 
4.713783399446476

>  <m_score__min__rmsd>  (38) 
4.713783399446476

>  <meeko>  (38) 
{"free_energy": -10.04, "intermolecular_energy": -12.43, "internal_energy": -1.02, "cluster_size": 16, "cluster_id": 1, "rank_in_cluster": 4}

>  <energy>  (38) 
-8.73

>  <cluster_rmsd>  (38) 
0.51

>  <cluster>  (38) 
4

$$$$

     RDKit          3D

 66 70  0  0  0  0  0  0  0  0999 V2000
  145.9110   68.6630  219.4990 N   0  0  0  0  0  0  0  0  0  0  0  0
  146.3060   70.0590  219.2960 C   0  0  0  0  0  0  0  0  0  0  0  0
  145.0310   70.8620  219.2120 C   0  0  0  0  0  0  0  0  0  0  0  0
  145.2350   72.1910  219.9150 C   0  0  0  0  0  0  0  0  0  0  0  0
  144.0370   73.0550  219.5840 C   0  0  0  0  0  0  0  0  0  0  0  0
  142.8200   72.3820  219.9940 N   0  0  0  0  0  0  0  0  0  0  0  0
  141.8270   73.0510  220.7640 C   0  0  0  0  0  0  0  0  0  0  0  0
  140.9260   72.3730  221.4790 N   0  0  0  0  0  0  0  0  0  0  0  0
  139.9690   73.0070  222.2210 C   0  0  0  0  0  0  0  0  0  0  0  0
  139.0190   72.2550  222.9730 N   0  0  0  0  0  0  0  0  0  0  0  0
  139.4370   70.9900  223.5010 C   0  0  0  0  0  0  0  0  0  0  0  0
  140.7830   71.2140  224.1920 C   0  0  0  0  0  0  0  0  0  0  0  0
  140.5170   70.9430  225.6470 C   0  0  0  0  0  0  0  0  0  0  0  0
  141.0170   71.8760  226.5340 C   0  0  0  0  0  0  0  0  0  0  0  0
  140.7970   71.6700  227.8930 C   0  0  0  0  0  0  0  0  0  0  0  0
  140.0930   70.5530  228.3300 C   0  0  0  0  0  0  0  0  0  0  0  0
  139.6060   69.6380  227.4040 C   0  0  0  0  0  0  0  0  0  0  0  0
  139.8140   69.8230  226.0460 C   0  0  0  0  0  0  0  0  0  0  0  0
  139.9650   74.3660  222.2070 N   0  0  0  0  0  0  0  0  0  0  0  0
  140.8570   75.0740  221.4990 C   0  0  0  0  0  0  0  0  0  0  0  0
  140.8050   76.4970  221.5220 N   0  0  0  0  0  0  0  0  0  0  0  0
  140.7500   77.1730  220.2440 C   0  0  0  0  0  0  0  0  0  0  0  0
  141.8420   78.2120  220.1230 C   0  0  0  0  0  0  0  0  0  0  0  0
  141.7710   79.1210  221.3210 C   0  0  0  0  0  0  0  0  0  0  0  0
  142.2100   80.4260  221.1610 C   0  0  0  0  0  0  0  0  0  0  0  0
  142.1590   81.2900  222.2380 C   0  0  0  0  0  0  0  0  0  0  0  0
  141.6750   80.8410  223.4480 C   0  0  0  0  0  0  0  0  0  0  0  0
  141.2370   79.5220  223.5900 C   0  0  0  0  0  0  0  0  0  0  0  0
  141.2810   78.6350  222.5110 C   0  0  0  0  0  0  0  0  0  0  0  0
  140.8060   77.2620  222.7270 C   0  0  0  0  0  0  0  0  0  0  0  0
  141.7880   74.3940  220.7780 N   0  0  0  0  0  0  0  0  0  0  0  0
  142.6280   70.9990  219.6010 C   0  0  0  0  0  0  0  0  0  0  0  0
  143.8690   70.1680  219.8690 C   0  0  0  0  0  0  0  0  0  0  0  0
  145.2250   68.4300  218.7400 H   0  0  0  0  0  0  0  0  0  0  0  0
  145.4690   68.5290  220.4420 H   0  0  0  0  0  0  0  0  0  0  0  0
  146.9181   70.4066  220.1413 H   0  0  0  0  0  0  0  0  0  0  0  0
  146.9059   70.1717  218.3809 H   0  0  0  0  0  0  0  0  0  0  0  0
  144.7999   70.9932  218.1446 H   0  0  0  0  0  0  0  0  0  0  0  0
  145.3010   72.0371  221.0022 H   0  0  0  0  0  0  0  0  0  0  0  0
  146.1682   72.6706  219.5848 H   0  0  0  0  0  0  0  0  0  0  0  0
  144.1206   74.0147  220.1150 H   0  0  0  0  0  0  0  0  0  0  0  0
  144.0061   73.2341  218.4991 H   0  0  0  0  0  0  0  0  0  0  0  0
  138.0580   72.6350  223.1190 H   0  0  0  0  0  0  0  0  0  0  0  0
  138.6972   70.6208  224.2265 H   0  0  0  0  0  0  0  0  0  0  0  0
  139.5278   70.2419  222.6997 H   0  0  0  0  0  0  0  0  0  0  0  0
  141.5402   70.5188  223.8004 H   0  0  0  0  0  0  0  0  0  0  0  0
  141.1731   72.2285  224.0229 H   0  0  0  0  0  0  0  0  0  0  0  0
  141.5726   72.7558  226.1772 H   0  0  0  0  0  0  0  0  0  0  0  0
  141.1821   72.3948  228.6254 H   0  0  0  0  0  0  0  0  0  0  0  0
  139.9222   70.3942  229.4050 H   0  0  0  0  0  0  0  0  0  0  0  0
  139.0487   68.7562  227.7530 H   0  0  0  0  0  0  0  0  0  0  0  0
  139.4314   69.1009  225.3097 H   0  0  0  0  0  0  0  0  0  0  0  0
  140.8711   76.4310  219.4410 H   0  0  0  0  0  0  0  0  0  0  0  0
  139.7777   77.6809  220.1621 H   0  0  0  0  0  0  0  0  0  0  0  0
  142.8236   77.7166  220.0907 H   0  0  0  0  0  0  0  0  0  0  0  0
  141.7077   78.7943  219.1995 H   0  0  0  0  0  0  0  0  0  0  0  0
  142.5941   80.7693  220.1891 H   0  0  0  0  0  0  0  0  0  0  0  0
  142.5024   82.3295  222.1305 H   0  0  0  0  0  0  0  0  0  0  0  0
  141.6333   81.5259  224.3077 H   0  0  0  0  0  0  0  0  0  0  0  0
  140.8533   79.1779  224.5618 H   0  0  0  0  0  0  0  0  0  0  0  0
  141.4641   76.7702  223.4585 H   0  0  0  0  0  0  0  0  0  0  0  0
  139.7704   77.3163  223.0939 H   0  0  0  0  0  0  0  0  0  0  0  0
  141.7863   70.5788  220.1711 H   0  0  0  0  0  0  0  0  0  0  0  0
  142.4211   70.9724  218.5210 H   0  0  0  0  0  0  0  0  0  0  0  0
  144.0420   70.0907  220.9526 H   0  0  0  0  0  0  0  0  0  0  0  0
  143.7480   69.1515  219.4664 H   0  0  0  0  0  0  0  0  0  0  0  0
  1  2  1  0
  2  3  1  0
  3  4  1  0
  4  5  1  0
  5  6  1  0
  6  7  1  0
  7  8  2  0
  8  9  1  0
  9 10  1  0
 10 11  1  0
 11 12  1  0
 12 13  1  0
 13 14  2  0
 14 15  1  0
 15 16  2  0
 16 17  1  0
 17 18  2  0
  9 19  2  0
 19 20  1  0
 20 21  1  0
 21 22  1  0
 22 23  1  0
 23 24  1  0
 24 25  2  0
 25 26  1  0
 26 27  2  0
 27 28  1  0
 28 29  2  0
 29 30  1  0
 20 31  2  0
  6 32  1  0
 32 33  1  0
 33  3  1  0
 31  7  1  0
 18 13  1  0
 30 21  1  0
 29 24  1  0
  1 34  1  0
  1 35  1  0
  2 36  1  0
  2 37  1  0
  3 38  1  0
  4 39  1  0
  4 40  1  0
  5 41  1  0
  5 42  1  0
 10 43  1  0
 11 44  1  0
 11 45  1  0
 12 46  1  0
 12 47  1  0
 14 48  1  0
 15 49  1  0
 16 50  1  0
 17 51  1  0
 18 52  1  0
 22 53  1  0
 22 54  1  0
 23 55  1  0
 23 56  1  0
 25 57  1  0
 26 58  1  0
 27 59  1  0
 28 60  1  0
 30 61  1  0
 30 62  1  0
 32 63  1  0
 32 64  1  0
 33 65  1  0
 33 66  1  0
M  END
>  <smiles>  (39) 
NCC1CCN(c2nc(NCCc3ccccc3)nc(N3CCc4ccccc4C3)n2)CC1

>  <score_type>  (39) 
oracle

>  <origin>  (39) 
autodockgpu

>  <m_score__min__energy>  (39) 
-10.140000000000001

>  <m_primary>  (39) 
energy

>  <rmsd>  (39) 
4.729829450917536

>  <m_score__min__rmsd>  (39) 
4.729829450917536

>  <meeko>  (39) 
{"free_energy": -9.85, "intermolecular_energy": -12.23, "internal_energy": -1.08, "cluster_size": 16, "cluster_id": 1, "rank_in_cluster": 11}

>  <energy>  (39) 
-8.69

>  <cluster_rmsd>  (39) 
0.57

>  <cluster>  (39) 
4

$$$$

     RDKit          3D

 66 70  0  0  0  0  0  0  0  0999 V2000
  146.4720   73.7720  217.1620 N   0  0  0  0  0  0  0  0  0  0  0  0
  145.9380   72.4130  217.0340 C   0  0  0  0  0  0  0  0  0  0  0  0
  145.0100   72.2010  218.2060 C   0  0  0  0  0  0  0  0  0  0  0  0
  143.5770   72.3950  217.7460 C   0  0  0  0  0  0  0  0  0  0  0  0
  142.6840   71.9230  218.8730 C   0  0  0  0  0  0  0  0  0  0  0  0
  142.9910   72.6600  220.0830 N   0  0  0  0  0  0  0  0  0  0  0  0
  141.9650   73.2630  220.8640 C   0  0  0  0  0  0  0  0  0  0  0  0
  141.0730   72.5260  221.5300 N   0  0  0  0  0  0  0  0  0  0  0  0
  140.0840   73.0960  222.2820 C   0  0  0  0  0  0  0  0  0  0  0  0
  139.1450   72.2810  222.9810 N   0  0  0  0  0  0  0  0  0  0  0  0
  139.6280   71.0770  223.5890 C   0  0  0  0  0  0  0  0  0  0  0  0
  140.7120   71.4820  224.5890 C   0  0  0  0  0  0  0  0  0  0  0  0
  140.5180   70.5580  225.7600 C   0  0  0  0  0  0  0  0  0  0  0  0
  140.0860   69.2820  225.4530 C   0  0  0  0  0  0  0  0  0  0  0  0
  139.8900   68.3890  226.5030 C   0  0  0  0  0  0  0  0  0  0  0  0
  140.1260   68.7830  227.8150 C   0  0  0  0  0  0  0  0  0  0  0  0
  140.5600   70.0770  228.0800 C   0  0  0  0  0  0  0  0  0  0  0  0
  140.7610   70.9830  227.0510 C   0  0  0  0  0  0  0  0  0  0  0  0
  140.0380   74.4530  222.3300 N   0  0  0  0  0  0  0  0  0  0  0  0
  140.9200   75.2200  221.6720 C   0  0  0  0  0  0  0  0  0  0  0  0
  140.8240   76.6370  221.7590 N   0  0  0  0  0  0  0  0  0  0  0  0
  140.4430   77.3450  220.5560 C   0  0  0  0  0  0  0  0  0  0  0  0
  141.4380   78.4350  220.2190 C   0  0  0  0  0  0  0  0  0  0  0  0
  141.6190   79.3060  221.4330 C   0  0  0  0  0  0  0  0  0  0  0  0
  141.9610   80.6330  221.2230 C   0  0  0  0  0  0  0  0  0  0  0  0
  142.1360   81.4640  222.3120 C   0  0  0  0  0  0  0  0  0  0  0  0
  141.9690   80.9620  223.5850 C   0  0  0  0  0  0  0  0  0  0  0  0
  141.6250   79.6210  223.7770 C   0  0  0  0  0  0  0  0  0  0  0  0
  141.4440   78.7670  222.6870 C   0  0  0  0  0  0  0  0  0  0  0  0
  141.0830   77.3690  222.9570 C   0  0  0  0  0  0  0  0  0  0  0  0
  141.8840   74.6020  220.9390 N   0  0  0  0  0  0  0  0  0  0  0  0
  144.3780   72.7730  220.4900 C   0  0  0  0  0  0  0  0  0  0  0  0
  145.2680   73.1710  219.3280 C   0  0  0  0  0  0  0  0  0  0  0  0
  146.9730   73.8130  218.0820 H   0  0  0  0  0  0  0  0  0  0  0  0
  145.7020   74.4850  217.1340 H   0  0  0  0  0  0  0  0  0  0  0  0
  145.3849   72.3102  216.0887 H   0  0  0  0  0  0  0  0  0  0  0  0
  146.7473   71.6680  217.0295 H   0  0  0  0  0  0  0  0  0  0  0  0
  145.1869   71.1815  218.5792 H   0  0  0  0  0  0  0  0  0  0  0  0
  143.3886   73.4579  217.5343 H   0  0  0  0  0  0  0  0  0  0  0  0
  143.3798   71.8277  216.8244 H   0  0  0  0  0  0  0  0  0  0  0  0
  141.6317   72.0907  218.6001 H   0  0  0  0  0  0  0  0  0  0  0  0
  142.8547   70.8504  219.0474 H   0  0  0  0  0  0  0  0  0  0  0  0
  138.1450   72.5750  223.0330 H   0  0  0  0  0  0  0  0  0  0  0  0
  138.8075   70.5619  224.1099 H   0  0  0  0  0  0  0  0  0  0  0  0
  140.0317   70.3900  222.8307 H   0  0  0  0  0  0  0  0  0  0  0  0
  141.7124   71.3485  224.1515 H   0  0  0  0  0  0  0  0  0  0  0  0
  140.6361   72.5406  224.8780 H   0  0  0  0  0  0  0  0  0  0  0  0
  139.9026   68.9809  224.4110 H   0  0  0  0  0  0  0  0  0  0  0  0
  139.5463   67.3654  226.2931 H   0  0  0  0  0  0  0  0  0  0  0  0
  139.9699   68.0733  228.6408 H   0  0  0  0  0  0  0  0  0  0  0  0
  140.7461   70.3854  229.1194 H   0  0  0  0  0  0  0  0  0  0  0  0
  141.1032   72.0081  227.2561 H   0  0  0  0  0  0  0  0  0  0  0  0
  140.3968   76.6315  219.7201 H   0  0  0  0  0  0  0  0  0  0  0  0
  139.4614   77.8119  220.7249 H   0  0  0  0  0  0  0  0  0  0  0  0
  142.4014   77.9845  219.9382 H   0  0  0  0  0  0  0  0  0  0  0  0
  141.0685   79.0358  219.3749 H   0  0  0  0  0  0  0  0  0  0  0  0
  142.0914   81.0193  220.2014 H   0  0  0  0  0  0  0  0  0  0  0  0
  142.4070   82.5199  222.1646 H   0  0  0  0  0  0  0  0  0  0  0  0
  142.1073   81.6208  224.4550 H   0  0  0  0  0  0  0  0  0  0  0  0
  141.4953   79.2338  224.7984 H   0  0  0  0  0  0  0  0  0  0  0  0
  141.9127   76.8865  223.4944 H   0  0  0  0  0  0  0  0  0  0  0  0
  140.1619   77.3686  223.5583 H   0  0  0  0  0  0  0  0  0  0  0  0
  144.4580   73.5354  221.2789 H   0  0  0  0  0  0  0  0  0  0  0  0
  144.7104   71.7914  220.8587 H   0  0  0  0  0  0  0  0  0  0  0  0
  145.0262   74.1937  219.0031 H   0  0  0  0  0  0  0  0  0  0  0  0
  146.3268   73.1461  219.6253 H   0  0  0  0  0  0  0  0  0  0  0  0
  1  2  1  0
  2  3  1  0
  3  4  1  0
  4  5  1  0
  5  6  1  0
  6  7  1  0
  7  8  2  0
  8  9  1  0
  9 10  1  0
 10 11  1  0
 11 12  1  0
 12 13  1  0
 13 14  2  0
 14 15  1  0
 15 16  2  0
 16 17  1  0
 17 18  2  0
  9 19  2  0
 19 20  1  0
 20 21  1  0
 21 22  1  0
 22 23  1  0
 23 24  1  0
 24 25  2  0
 25 26  1  0
 26 27  2  0
 27 28  1  0
 28 29  2  0
 29 30  1  0
 20 31  2  0
  6 32  1  0
 32 33  1  0
 33  3  1  0
 31  7  1  0
 18 13  1  0
 30 21  1  0
 29 24  1  0
  1 34  1  0
  1 35  1  0
  2 36  1  0
  2 37  1  0
  3 38  1  0
  4 39  1  0
  4 40  1  0
  5 41  1  0
  5 42  1  0
 10 43  1  0
 11 44  1  0
 11 45  1  0
 12 46  1  0
 12 47  1  0
 14 48  1  0
 15 49  1  0
 16 50  1  0
 17 51  1  0
 18 52  1  0
 22 53  1  0
 22 54  1  0
 23 55  1  0
 23 56  1  0
 25 57  1  0
 26 58  1  0
 27 59  1  0
 28 60  1  0
 30 61  1  0
 30 62  1  0
 32 63  1  0
 32 64  1  0
 33 65  1  0
 33 66  1  0
M  END
>  <smiles>  (40) 
NCC1CCN(c2nc(NCCc3ccccc3)nc(N3CCc4ccccc4C3)n2)CC1

>  <score_type>  (40) 
oracle

>  <origin>  (40) 
autodockgpu

>  <m_score__min__energy>  (40) 
-10.140000000000001

>  <m_primary>  (40) 
energy

>  <rmsd>  (40) 
4.8249904893398154

>  <m_score__min__rmsd>  (40) 
4.8249904893398154

>  <meeko>  (40) 
{"free_energy": -9.88, "intermolecular_energy": -12.27, "internal_energy": -0.99, "cluster_size": 6, "cluster_id": 2, "rank_in_cluster": 3}

>  <energy>  (40) 
-8.65

>  <cluster_rmsd>  (40) 
0.57

>  <cluster>  (40) 
4

$$$$

     RDKit          3D

 66 70  0  0  0  0  0  0  0  0999 V2000
  146.4070   73.7970  217.2050 N   0  0  0  0  0  0  0  0  0  0  0  0
  145.9310   72.4140  217.1060 C   0  0  0  0  0  0  0  0  0  0  0  0
  144.9780   72.2010  218.2570 C   0  0  0  0  0  0  0  0  0  0  0  0
  143.5590   72.4430  217.7780 C   0  0  0  0  0  0  0  0  0  0  0  0
  142.6350   71.9700  218.8790 C   0  0  0  0  0  0  0  0  0  0  0  0
  142.9400   72.6710  220.1100 N   0  0  0  0  0  0  0  0  0  0  0  0
  141.9160   73.2840  220.8870 C   0  0  0  0  0  0  0  0  0  0  0  0
  141.0120   72.5560  221.5460 N   0  0  0  0  0  0  0  0  0  0  0  0
  140.0260   73.1350  222.2940 C   0  0  0  0  0  0  0  0  0  0  0  0
  139.0740   72.3290  222.9850 N   0  0  0  0  0  0  0  0  0  0  0  0
  139.5300   71.0950  223.5530 C   0  0  0  0  0  0  0  0  0  0  0  0
  140.8420   71.3930  224.2800 C   0  0  0  0  0  0  0  0  0  0  0  0
  140.5730   71.0390  225.7160 C   0  0  0  0  0  0  0  0  0  0  0  0
  139.8970   69.8520  225.9270 C   0  0  0  0  0  0  0  0  0  0  0  0
  139.6230   69.4800  227.2390 C   0  0  0  0  0  0  0  0  0  0  0  0
  140.0240   70.2880  228.2980 C   0  0  0  0  0  0  0  0  0  0  0  0
  140.7020   71.4740  228.0430 C   0  0  0  0  0  0  0  0  0  0  0  0
  140.9840   71.8650  226.7440 C   0  0  0  0  0  0  0  0  0  0  0  0
  139.9960   74.4920  222.3450 N   0  0  0  0  0  0  0  0  0  0  0  0
  140.8900   75.2510  221.6950 C   0  0  0  0  0  0  0  0  0  0  0  0
  140.8100   76.6690  221.7860 N   0  0  0  0  0  0  0  0  0  0  0  0
  140.4390   77.3840  220.5830 C   0  0  0  0  0  0  0  0  0  0  0  0
  141.4460   78.4630  220.2510 C   0  0  0  0  0  0  0  0  0  0  0  0
  141.6360   79.3300  221.4670 C   0  0  0  0  0  0  0  0  0  0  0  0
  141.9920   80.6530  221.2610 C   0  0  0  0  0  0  0  0  0  0  0  0
  142.1750   81.4790  222.3520 C   0  0  0  0  0  0  0  0  0  0  0  0
  142.0010   80.9760  223.6240 C   0  0  0  0  0  0  0  0  0  0  0  0
  141.6420   79.6390  223.8120 C   0  0  0  0  0  0  0  0  0  0  0  0
  141.4520   78.7890  222.7190 C   0  0  0  0  0  0  0  0  0  0  0  0
  141.0760   77.3950  222.9860 C   0  0  0  0  0  0  0  0  0  0  0  0
  141.8510   74.6240  220.9650 N   0  0  0  0  0  0  0  0  0  0  0  0
  144.3220   72.7390  220.5430 C   0  0  0  0  0  0  0  0  0  0  0  0
  145.2420   73.1380  219.4050 C   0  0  0  0  0  0  0  0  0  0  0  0
  147.0190   73.8450  218.0540 H   0  0  0  0  0  0  0  0  0  0  0  0
  145.6030   74.4670  217.2960 H   0  0  0  0  0  0  0  0  0  0  0  0
  145.4107   72.2595  216.1492 H   0  0  0  0  0  0  0  0  0  0  0  0
  146.7690   71.7027  217.1487 H   0  0  0  0  0  0  0  0  0  0  0  0
  145.1217   71.1691  218.6098 H   0  0  0  0  0  0  0  0  0  0  0  0
  143.4021   73.5149  217.5873 H   0  0  0  0  0  0  0  0  0  0  0  0
  143.3629   71.9018  216.8407 H   0  0  0  0  0  0  0  0  0  0  0  0
  141.5923   72.1716  218.5925 H   0  0  0  0  0  0  0  0  0  0  0  0
  142.7748   70.8897  219.0317 H   0  0  0  0  0  0  0  0  0  0  0  0
  138.0840   72.6510  223.0610 H   0  0  0  0  0  0  0  0  0  0  0  0
  138.7844   70.7081  224.2632 H   0  0  0  0  0  0  0  0  0  0  0  0
  139.6790   70.3354  222.7715 H   0  0  0  0  0  0  0  0  0  0  0  0
  141.6582   70.7767  223.8751 H   0  0  0  0  0  0  0  0  0  0  0  0
  141.1540   72.4412  224.1617 H   0  0  0  0  0  0  0  0  0  0  0  0
  139.5849   69.2202  225.0823 H   0  0  0  0  0  0  0  0  0  0  0  0
  139.0860   68.5413  227.4403 H   0  0  0  0  0  0  0  0  0  0  0  0
  139.8052   69.9892  229.3338 H   0  0  0  0  0  0  0  0  0  0  0  0
  141.0186   72.1101  228.8827 H   0  0  0  0  0  0  0  0  0  0  0  0
  141.5185   72.8040  226.5378 H   0  0  0  0  0  0  0  0  0  0  0  0
  140.3868   76.6729  219.7454 H   0  0  0  0  0  0  0  0  0  0  0  0
  139.4621   77.8611  220.7505 H   0  0  0  0  0  0  0  0  0  0  0  0
  142.4046   78.0022  219.9705 H   0  0  0  0  0  0  0  0  0  0  0  0
  141.0837   79.0701  219.4083 H   0  0  0  0  0  0  0  0  0  0  0  0
  142.1272   81.0406  220.2405 H   0  0  0  0  0  0  0  0  0  0  0  0
  142.4579   82.5321  222.2074 H   0  0  0  0  0  0  0  0  0  0  0  0
  142.1457   81.6312  224.4957 H   0  0  0  0  0  0  0  0  0  0  0  0
  141.5073   79.2507  224.8323 H   0  0  0  0  0  0  0  0  0  0  0  0
  141.9001   76.9024  223.5228 H   0  0  0  0  0  0  0  0  0  0  0  0
  140.1549   77.4029  223.5872 H   0  0  0  0  0  0  0  0  0  0  0  0
  144.4078   73.4822  221.3494 H   0  0  0  0  0  0  0  0  0  0  0  0
  144.6225   71.7416  220.8963 H   0  0  0  0  0  0  0  0  0  0  0  0
  145.0333   74.1739  219.0994 H   0  0  0  0  0  0  0  0  0  0  0  0
  146.2944   73.0772  219.7193 H   0  0  0  0  0  0  0  0  0  0  0  0
  1  2  1  0
  2  3  1  0
  3  4  1  0
  4  5  1  0
  5  6  1  0
  6  7  1  0
  7  8  2  0
  8  9  1  0
  9 10  1  0
 10 11  1  0
 11 12  1  0
 12 13  1  0
 13 14  2  0
 14 15  1  0
 15 16  2  0
 16 17  1  0
 17 18  2  0
  9 19  2  0
 19 20  1  0
 20 21  1  0
 21 22  1  0
 22 23  1  0
 23 24  1  0
 24 25  2  0
 25 26  1  0
 26 27  2  0
 27 28  1  0
 28 29  2  0
 29 30  1  0
 20 31  2  0
  6 32  1  0
 32 33  1  0
 33  3  1  0
 31  7  1  0
 18 13  1  0
 30 21  1  0
 29 24  1  0
  1 34  1  0
  1 35  1  0
  2 36  1  0
  2 37  1  0
  3 38  1  0
  4 39  1  0
  4 40  1  0
  5 41  1  0
  5 42  1  0
 10 43  1  0
 11 44  1  0
 11 45  1  0
 12 46  1  0
 12 47  1  0
 14 48  1  0
 15 49  1  0
 16 50  1  0
 17 51  1  0
 18 52  1  0
 22 53  1  0
 22 54  1  0
 23 55  1  0
 23 56  1  0
 25 57  1  0
 26 58  1  0
 27 59  1  0
 28 60  1  0
 30 61  1  0
 30 62  1  0
 32 63  1  0
 32 64  1  0
 33 65  1  0
 33 66  1  0
M  END
>  <smiles>  (41) 
NCC1CCN(c2nc(NCCc3ccccc3)nc(N3CCc4ccccc4C3)n2)CC1

>  <score_type>  (41) 
oracle

>  <origin>  (41) 
autodockgpu

>  <m_score__min__energy>  (41) 
-10.140000000000001

>  <m_primary>  (41) 
energy

>  <rmsd>  (41) 
4.853353973438765

>  <m_score__min__rmsd>  (41) 
4.853353973438765

>  <meeko>  (41) 
{"free_energy": -9.89, "intermolecular_energy": -12.28, "internal_energy": -1.05, "cluster_size": 6, "cluster_id": 2, "rank_in_cluster": 2}

>  <energy>  (41) 
-8.64

>  <cluster_rmsd>  (41) 
0.57

>  <cluster>  (41) 
4

$$$$

     RDKit          3D

 66 70  0  0  0  0  0  0  0  0999 V2000
  132.8740   73.6350  227.4060 N   0  0  0  0  0  0  0  0  0  0  0  0
  132.4550   72.2460  227.1980 C   0  0  0  0  0  0  0  0  0  0  0  0
  133.2980   71.7040  226.0690 C   0  0  0  0  0  0  0  0  0  0  0  0
  134.0380   70.4700  226.5510 C   0  0  0  0  0  0  0  0  0  0  0  0
  134.6550   69.8210  225.3310 C   0  0  0  0  0  0  0  0  0  0  0  0
  135.5200   70.7690  224.6570 N   0  0  0  0  0  0  0  0  0  0  0  0
  136.8460   70.4190  224.2740 C   0  0  0  0  0  0  0  0  0  0  0  0
  137.4380   69.3170  224.7400 N   0  0  0  0  0  0  0  0  0  0  0  0
  138.7100   68.9730  224.3780 C   0  0  0  0  0  0  0  0  0  0  0  0
  139.3150   67.7890  224.8940 N   0  0  0  0  0  0  0  0  0  0  0  0
  139.5730   67.7300  226.3020 C   0  0  0  0  0  0  0  0  0  0  0  0
  141.0330   68.1340  226.5090 C   0  0  0  0  0  0  0  0  0  0  0  0
  140.9860   69.6120  226.7840 C   0  0  0  0  0  0  0  0  0  0  0  0
  140.4430   69.9810  227.9990 C   0  0  0  0  0  0  0  0  0  0  0  0
  140.3760   71.3370  228.3000 C   0  0  0  0  0  0  0  0  0  0  0  0
  140.8470   72.2830  227.3960 C   0  0  0  0  0  0  0  0  0  0  0  0
  141.3870   71.8700  226.1840 C   0  0  0  0  0  0  0  0  0  0  0  0
  141.4620   70.5240  225.8630 C   0  0  0  0  0  0  0  0  0  0  0  0
  139.3610   69.8010  223.5190 N   0  0  0  0  0  0  0  0  0  0  0  0
  138.7930   70.9150  223.0340 C   0  0  0  0  0  0  0  0  0  0  0  0
  139.5230   71.7440  222.1360 N   0  0  0  0  0  0  0  0  0  0  0  0
  140.3690   71.0780  221.1690 C   0  0  0  0  0  0  0  0  0  0  0  0
  141.7870   71.6030  221.2240 C   0  0  0  0  0  0  0  0  0  0  0  0
  141.7460   73.1030  221.1010 C   0  0  0  0  0  0  0  0  0  0  0  0
  142.8460   73.7280  220.5340 C   0  0  0  0  0  0  0  0  0  0  0  0
  142.8450   75.1030  220.4040 C   0  0  0  0  0  0  0  0  0  0  0  0
  141.7550   75.8270  220.8380 C   0  0  0  0  0  0  0  0  0  0  0  0
  140.6560   75.1790  221.4070 C   0  0  0  0  0  0  0  0  0  0  0  0
  140.6400   73.7890  221.5460 C   0  0  0  0  0  0  0  0  0  0  0  0
  139.4550   73.1700  222.1520 C   0  0  0  0  0  0  0  0  0  0  0  0
  137.5250   71.2100  223.4260 N   0  0  0  0  0  0  0  0  0  0  0  0
  135.0070   72.0940  224.3740 C   0  0  0  0  0  0  0  0  0  0  0  0
  134.3220   72.6960  225.5870 C   0  0  0  0  0  0  0  0  0  0  0  0
  132.5100   73.9210  228.3460 H   0  0  0  0  0  0  0  0  0  0  0  0
  132.4860   74.2620  226.6590 H   0  0  0  0  0  0  0  0  0  0  0  0
  132.6228   71.6583  228.1126 H   0  0  0  0  0  0  0  0  0  0  0  0
  131.3836   72.1876  226.9556 H   0  0  0  0  0  0  0  0  0  0  0  0
  132.6168   71.4750  225.2363 H   0  0  0  0  0  0  0  0  0  0  0  0
  134.8241   70.7556  227.2655 H   0  0  0  0  0  0  0  0  0  0  0  0
  133.3542   69.7761  227.0619 H   0  0  0  0  0  0  0  0  0  0  0  0
  135.2440   68.9454  225.6413 H   0  0  0  0  0  0  0  0  0  0  0  0
  133.8563   69.5048  224.6439 H   0  0  0  0  0  0  0  0  0  0  0  0
  139.5520   67.0060  224.2460 H   0  0  0  0  0  0  0  0  0  0  0  0
  138.9096   68.4257  226.8366 H   0  0  0  0  0  0  0  0  0  0  0  0
  139.3878   66.7182  226.6919 H   0  0  0  0  0  0  0  0  0  0  0  0
  141.4672   67.5943  227.3635 H   0  0  0  0  0  0  0  0  0  0  0  0
  141.6587   67.8931  225.6370 H   0  0  0  0  0  0  0  0  0  0  0  0
  140.0744   69.2247  228.7076 H   0  0  0  0  0  0  0  0  0  0  0  0
  139.9478   71.6634  229.2592 H   0  0  0  0  0  0  0  0  0  0  0  0
  140.7923   73.3543  227.6394 H   0  0  0  0  0  0  0  0  0  0  0  0
  141.7593   72.6204  225.4710 H   0  0  0  0  0  0  0  0  0  0  0  0
  141.8875   70.1924  224.9044 H   0  0  0  0  0  0  0  0  0  0  0  0
  140.3779   69.9992  221.3838 H   0  0  0  0  0  0  0  0  0  0  0  0
  139.9661   71.2719  220.1640 H   0  0  0  0  0  0  0  0  0  0  0  0
  142.2500   71.3217  222.1813 H   0  0  0  0  0  0  0  0  0  0  0  0
  142.3801   71.1735  220.4031 H   0  0  0  0  0  0  0  0  0  0  0  0
  143.7082   73.1366  220.1922 H   0  0  0  0  0  0  0  0  0  0  0  0
  143.7085   75.6172  219.9570 H   0  0  0  0  0  0  0  0  0  0  0  0
  141.7507   76.9222  220.7355 H   0  0  0  0  0  0  0  0  0  0  0  0
  139.7936   75.7698  221.7494 H   0  0  0  0  0  0  0  0  0  0  0  0
  139.3728   73.5089  223.1952 H   0  0  0  0  0  0  0  0  0  0  0  0
  138.5773   73.4726  221.5621 H   0  0  0  0  0  0  0  0  0  0  0  0
  135.8424   72.7445  224.0757 H   0  0  0  0  0  0  0  0  0  0  0  0
  134.2664   72.0118  223.5648 H   0  0  0  0  0  0  0  0  0  0  0  0
  135.0611   72.8872  226.3790 H   0  0  0  0  0  0  0  0  0  0  0  0
  133.8425   73.6510  225.3261 H   0  0  0  0  0  0  0  0  0  0  0  0
  1  2  1  0
  2  3  1  0
  3  4  1  0
  4  5  1  0
  5  6  1  0
  6  7  1  0
  7  8  2  0
  8  9  1  0
  9 10  1  0
 10 11  1  0
 11 12  1  0
 12 13  1  0
 13 14  2  0
 14 15  1  0
 15 16  2  0
 16 17  1  0
 17 18  2  0
  9 19  2  0
 19 20  1  0
 20 21  1  0
 21 22  1  0
 22 23  1  0
 23 24  1  0
 24 25  2  0
 25 26  1  0
 26 27  2  0
 27 28  1  0
 28 29  2  0
 29 30  1  0
 20 31  2  0
  6 32  1  0
 32 33  1  0
 33  3  1  0
 31  7  1  0
 18 13  1  0
 30 21  1  0
 29 24  1  0
  1 34  1  0
  1 35  1  0
  2 36  1  0
  2 37  1  0
  3 38  1  0
  4 39  1  0
  4 40  1  0
  5 41  1  0
  5 42  1  0
 10 43  1  0
 11 44  1  0
 11 45  1  0
 12 46  1  0
 12 47  1  0
 14 48  1  0
 15 49  1  0
 16 50  1  0
 17 51  1  0
 18 52  1  0
 22 53  1  0
 22 54  1  0
 23 55  1  0
 23 56  1  0
 25 57  1  0
 26 58  1  0
 27 59  1  0
 28 60  1  0
 30 61  1  0
 30 62  1  0
 32 63  1  0
 32 64  1  0
 33 65  1  0
 33 66  1  0
M  END
>  <smiles>  (42) 
NCC1CCN(c2nc(NCCc3ccccc3)nc(N3CCc4ccccc4C3)n2)CC1

>  <score_type>  (42) 
oracle

>  <origin>  (42) 
autodockgpu

>  <m_score__min__energy>  (42) 
-10.140000000000001

>  <m_primary>  (42) 
energy

>  <rmsd>  (42) 
5.799850260339289

>  <m_score__min__rmsd>  (42) 
5.799850260339289

>  <meeko>  (42) 
{"free_energy": -9.02, "intermolecular_energy": -11.41, "internal_energy": -1.8, "cluster_size": 5, "cluster_id": 5, "rank_in_cluster": 2}

>  <energy>  (42) 
-8.53

>  <cluster_rmsd>  (42) 
0.55

>  <cluster>  (42) 
4

$$$$

     RDKit          3D

 66 70  0  0  0  0  0  0  0  0999 V2000
  139.2740   67.3660  226.3800 N   0  0  0  0  0  0  0  0  0  0  0  0
  140.2670   68.3800  226.7420 C   0  0  0  0  0  0  0  0  0  0  0  0
  139.9460   69.6110  225.9290 C   0  0  0  0  0  0  0  0  0  0  0  0
  139.3770   69.1850  224.5880 C   0  0  0  0  0  0  0  0  0  0  0  0
  138.8350   70.4320  223.9230 C   0  0  0  0  0  0  0  0  0  0  0  0
  139.8900   71.4180  223.7990 N   0  0  0  0  0  0  0  0  0  0  0  0
  140.1420   72.0820  222.5650 C   0  0  0  0  0  0  0  0  0  0  0  0
  140.3860   71.4000  221.4440 N   0  0  0  0  0  0  0  0  0  0  0  0
  140.6290   72.0290  220.2550 C   0  0  0  0  0  0  0  0  0  0  0  0
  140.8880   71.2710  219.0750 N   0  0  0  0  0  0  0  0  0  0  0  0
  142.0690   71.5850  218.3260 C   0  0  0  0  0  0  0  0  0  0  0  0
  143.2660   71.1280  219.1610 C   0  0  0  0  0  0  0  0  0  0  0  0
  143.8960   72.4000  219.6550 C   0  0  0  0  0  0  0  0  0  0  0  0
  143.4700   73.5610  219.0400 C   0  0  0  0  0  0  0  0  0  0  0  0
  144.0250   74.7660  219.4620 C   0  0  0  0  0  0  0  0  0  0  0  0
  144.9780   74.7850  220.4730 C   0  0  0  0  0  0  0  0  0  0  0  0
  145.3790   73.5940  221.0670 C   0  0  0  0  0  0  0  0  0  0  0  0
  144.8410   72.3830  220.6620 C   0  0  0  0  0  0  0  0  0  0  0  0
  140.6140   73.3870  220.2520 N   0  0  0  0  0  0  0  0  0  0  0  0
  140.3710   74.1000  221.3610 C   0  0  0  0  0  0  0  0  0  0  0  0
  140.3670   75.5230  221.2980 N   0  0  0  0  0  0  0  0  0  0  0  0
  140.8350   76.1260  220.0690 C   0  0  0  0  0  0  0  0  0  0  0  0
  141.9270   77.1400  220.3340 C   0  0  0  0  0  0  0  0  0  0  0  0
  141.4310   78.1160  221.3680 C   0  0  0  0  0  0  0  0  0  0  0  0
  141.9450   79.4030  221.3310 C   0  0  0  0  0  0  0  0  0  0  0  0
  141.5140   80.3260  222.2630 C   0  0  0  0  0  0  0  0  0  0  0  0
  140.5830   79.9540  223.2100 C   0  0  0  0  0  0  0  0  0  0  0  0
  140.0760   78.6530  223.2310 C   0  0  0  0  0  0  0  0  0  0  0  0
  140.5010   77.7050  222.2950 C   0  0  0  0  0  0  0  0  0  0  0  0
  139.9300   76.3550  222.3720 C   0  0  0  0  0  0  0  0  0  0  0  0
  140.1350   73.4250  222.5170 N   0  0  0  0  0  0  0  0  0  0  0  0
  140.6930   71.7230  224.9670 C   0  0  0  0  0  0  0  0  0  0  0  0
  141.1600   70.4590  225.6650 C   0  0  0  0  0  0  0  0  0  0  0  0
  139.2960   66.6400  227.1360 H   0  0  0  0  0  0  0  0  0  0  0  0
  139.4990   66.9310  225.4510 H   0  0  0  0  0  0  0  0  0  0  0  0
  140.2022   68.6076  227.8162 H   0  0  0  0  0  0  0  0  0  0  0  0
  141.2878   68.0253  226.5367 H   0  0  0  0  0  0  0  0  0  0  0  0
  139.2259   70.2055  226.5104 H   0  0  0  0  0  0  0  0  0  0  0  0
  140.1672   68.7382  223.9667 H   0  0  0  0  0  0  0  0  0  0  0  0
  138.5851   68.4327  224.7179 H   0  0  0  0  0  0  0  0  0  0  0  0
  138.4538   70.1768  222.9232 H   0  0  0  0  0  0  0  0  0  0  0  0
  138.0200   70.8459  224.5349 H   0  0  0  0  0  0  0  0  0  0  0  0
  140.2240   70.5180  218.7890 H   0  0  0  0  0  0  0  0  0  0  0  0
  142.0567   71.0547  217.3623 H   0  0  0  0  0  0  0  0  0  0  0  0
  142.1256   72.6637  218.1184 H   0  0  0  0  0  0  0  0  0  0  0  0
  142.9347   70.5060  220.0056 H   0  0  0  0  0  0  0  0  0  0  0  0
  143.9693   70.5147  218.5785 H   0  0  0  0  0  0  0  0  0  0  0  0
  142.7148   73.5343  218.2406 H   0  0  0  0  0  0  0  0  0  0  0  0
  143.7072   75.7086  218.9923 H   0  0  0  0  0  0  0  0  0  0  0  0
  145.4138   75.7398  220.8023 H   0  0  0  0  0  0  0  0  0  0  0  0
  146.1325   73.6131  221.8682 H   0  0  0  0  0  0  0  0  0  0  0  0
  145.1567   71.4378  221.1279 H   0  0  0  0  0  0  0  0  0  0  0  0
  141.2300   75.3379  219.4111 H   0  0  0  0  0  0  0  0  0  0  0  0
  139.9893   76.6435  219.5926 H   0  0  0  0  0  0  0  0  0  0  0  0
  142.8261   76.6282  220.7078 H   0  0  0  0  0  0  0  0  0  0  0  0
  142.1818   77.6714  219.4052 H   0  0  0  0  0  0  0  0  0  0  0  0
  142.6865   79.6851  220.5691 H   0  0  0  0  0  0  0  0  0  0  0  0
  141.9108   81.3519  222.2503 H   0  0  0  0  0  0  0  0  0  0  0  0
  140.2374   80.6870  223.9538 H   0  0  0  0  0  0  0  0  0  0  0  0
  139.3340   78.3707  223.9924 H   0  0  0  0  0  0  0  0  0  0  0  0
  140.2353   75.8949  223.3234 H   0  0  0  0  0  0  0  0  0  0  0  0
  138.8359   76.4467  222.3046 H   0  0  0  0  0  0  0  0  0  0  0  0
  141.5727   72.3047  224.6543 H   0  0  0  0  0  0  0  0  0  0  0  0
  140.0741   72.2982  225.6713 H   0  0  0  0  0  0  0  0  0  0  0  0
  141.8658   69.9137  225.0211 H   0  0  0  0  0  0  0  0  0  0  0  0
  141.6725   70.7043  226.6069 H   0  0  0  0  0  0  0  0  0  0  0  0
  1  2  1  0
  2  3  1  0
  3  4  1  0
  4  5  1  0
  5  6  1  0
  6  7  1  0
  7  8  2  0
  8  9  1  0
  9 10  1  0
 10 11  1  0
 11 12  1  0
 12 13  1  0
 13 14  2  0
 14 15  1  0
 15 16  2  0
 16 17  1  0
 17 18  2  0
  9 19  2  0
 19 20  1  0
 20 21  1  0
 21 22  1  0
 22 23  1  0
 23 24  1  0
 24 25  2  0
 25 26  1  0
 26 27  2  0
 27 28  1  0
 28 29  2  0
 29 30  1  0
 20 31  2  0
  6 32  1  0
 32 33  1  0
 33  3  1  0
 31  7  1  0
 18 13  1  0
 30 21  1  0
 29 24  1  0
  1 34  1  0
  1 35  1  0
  2 36  1  0
  2 37  1  0
  3 38  1  0
  4 39  1  0
  4 40  1  0
  5 41  1  0
  5 42  1  0
 10 43  1  0
 11 44  1  0
 11 45  1  0
 12 46  1  0
 12 47  1  0
 14 48  1  0
 15 49  1  0
 16 50  1  0
 17 51  1  0
 18 52  1  0
 22 53  1  0
 22 54  1  0
 23 55  1  0
 23 56  1  0
 25 57  1  0
 26 58  1  0
 27 59  1  0
 28 60  1  0
 30 61  1  0
 30 62  1  0
 32 63  1  0
 32 64  1  0
 33 65  1  0
 33 66  1  0
M  END
>  <smiles>  (43) 
NCC1CCN(c2nc(NCCc3ccccc3)nc(N3CCc4ccccc4C3)n2)CC1

>  <score_type>  (43) 
oracle

>  <origin>  (43) 
autodockgpu

>  <m_score__min__energy>  (43) 
-10.140000000000001

>  <m_primary>  (43) 
energy

>  <rmsd>  (43) 
4.541320960065558

>  <m_score__min__rmsd>  (43) 
4.541320960065558

>  <meeko>  (43) 
{"free_energy": -8.46, "intermolecular_energy": -10.84, "internal_energy": -1.91, "cluster_size": 15, "cluster_id": 4, "rank_in_cluster": 14}

>  <energy>  (43) 
-8.46

>  <cluster_rmsd>  (43) 
0.56

>  <cluster>  (43) 
4

$$$$

     RDKit          3D

 66 70  0  0  0  0  0  0  0  0999 V2000
  146.6550   69.8430  217.7770 N   0  0  0  0  0  0  0  0  0  0  0  0
  146.1940   69.9870  219.1600 C   0  0  0  0  0  0  0  0  0  0  0  0
  144.9480   70.8380  219.1150 C   0  0  0  0  0  0  0  0  0  0  0  0
  145.1970   72.1220  219.8840 C   0  0  0  0  0  0  0  0  0  0  0  0
  144.0300   73.0420  219.5950 C   0  0  0  0  0  0  0  0  0  0  0  0
  142.7890   72.3930  219.9690 N   0  0  0  0  0  0  0  0  0  0  0  0
  141.8180   73.0570  220.7710 C   0  0  0  0  0  0  0  0  0  0  0  0
  140.9400   72.3750  221.5090 N   0  0  0  0  0  0  0  0  0  0  0  0
  140.0040   73.0040  222.2810 C   0  0  0  0  0  0  0  0  0  0  0  0
  139.0790   72.2470  223.0590 N   0  0  0  0  0  0  0  0  0  0  0  0
  139.5250   70.9940  223.5940 C   0  0  0  0  0  0  0  0  0  0  0  0
  140.8070   71.2730  224.3800 C   0  0  0  0  0  0  0  0  0  0  0  0
  140.5270   70.7600  225.7650 C   0  0  0  0  0  0  0  0  0  0  0  0
  140.7380   71.6580  226.7930 C   0  0  0  0  0  0  0  0  0  0  0  0
  140.4930   71.2310  228.0950 C   0  0  0  0  0  0  0  0  0  0  0  0
  140.0500   69.9360  228.3380 C   0  0  0  0  0  0  0  0  0  0  0  0
  139.8490   69.0630  227.2750 C   0  0  0  0  0  0  0  0  0  0  0  0
  140.0880   69.4680  225.9710 C   0  0  0  0  0  0  0  0  0  0  0  0
  139.9960   74.3630  222.2710 N   0  0  0  0  0  0  0  0  0  0  0  0
  140.8650   75.0750  221.5400 C   0  0  0  0  0  0  0  0  0  0  0  0
  140.8100   76.4980  221.5690 N   0  0  0  0  0  0  0  0  0  0  0  0
  140.7350   77.1780  220.2940 C   0  0  0  0  0  0  0  0  0  0  0  0
  141.8230   78.2210  220.1610 C   0  0  0  0  0  0  0  0  0  0  0  0
  141.7670   79.1250  221.3630 C   0  0  0  0  0  0  0  0  0  0  0  0
  142.2010   80.4320  221.2020 C   0  0  0  0  0  0  0  0  0  0  0  0
  142.1640   81.2920  222.2820 C   0  0  0  0  0  0  0  0  0  0  0  0
  141.7000   80.8370  223.4980 C   0  0  0  0  0  0  0  0  0  0  0  0
  141.2670   79.5170  223.6420 C   0  0  0  0  0  0  0  0  0  0  0  0
  141.2960   78.6340  222.5590 C   0  0  0  0  0  0  0  0  0  0  0  0
  140.8280   77.2590  222.7770 C   0  0  0  0  0  0  0  0  0  0  0  0
  141.7760   74.4000  220.7900 N   0  0  0  0  0  0  0  0  0  0  0  0
  142.5500   71.0390  219.5080 C   0  0  0  0  0  0  0  0  0  0  0  0
  143.7600   70.1530  219.7350 C   0  0  0  0  0  0  0  0  0  0  0  0
  145.8260   69.5340  217.2140 H   0  0  0  0  0  0  0  0  0  0  0  0
  147.4270   69.1340  217.7080 H   0  0  0  0  0  0  0  0  0  0  0  0
  145.9639   69.0000  219.5877 H   0  0  0  0  0  0  0  0  0  0  0  0
  146.9679   70.4512  219.7890 H   0  0  0  0  0  0  0  0  0  0  0  0
  144.7244   71.0308  218.0554 H   0  0  0  0  0  0  0  0  0  0  0  0
  145.2549   71.9119  220.9622 H   0  0  0  0  0  0  0  0  0  0  0  0
  146.1474   72.5847  219.5798 H   0  0  0  0  0  0  0  0  0  0  0  0
  144.1452   73.9707  220.1732 H   0  0  0  0  0  0  0  0  0  0  0  0
  144.0086   73.2749  218.5202 H   0  0  0  0  0  0  0  0  0  0  0  0
  138.1150   72.6150  223.2180 H   0  0  0  0  0  0  0  0  0  0  0  0
  138.7575   70.5734  224.2604 H   0  0  0  0  0  0  0  0  0  0  0  0
  139.7089   70.2672  222.7891 H   0  0  0  0  0  0  0  0  0  0  0  0
  141.6591   70.7392  223.9339 H   0  0  0  0  0  0  0  0  0  0  0  0
  141.0714   72.3407  224.3781 H   0  0  0  0  0  0  0  0  0  0  0  0
  141.0892   72.6802  226.5889 H   0  0  0  0  0  0  0  0  0  0  0  0
  140.6508   71.9221  228.9362 H   0  0  0  0  0  0  0  0  0  0  0  0
  139.8590   69.6029  229.3688 H   0  0  0  0  0  0  0  0  0  0  0  0
  139.4964   68.0396  227.4708 H   0  0  0  0  0  0  0  0  0  0  0  0
  139.9325   68.7807  225.1264 H   0  0  0  0  0  0  0  0  0  0  0  0
  140.8468   76.4390  219.4869 H   0  0  0  0  0  0  0  0  0  0  0  0
  139.7603   77.6834  220.2275 H   0  0  0  0  0  0  0  0  0  0  0  0
  142.8054   77.7284  220.1125 H   0  0  0  0  0  0  0  0  0  0  0  0
  141.6738   78.8064  219.2417 H   0  0  0  0  0  0  0  0  0  0  0  0
  142.5703   80.7797  220.2259 H   0  0  0  0  0  0  0  0  0  0  0  0
  142.5024   82.3329  222.1728 H   0  0  0  0  0  0  0  0  0  0  0  0
  141.6706   81.5185  224.3609 H   0  0  0  0  0  0  0  0  0  0  0  0
  140.8992   79.1685  224.6184 H   0  0  0  0  0  0  0  0  0  0  0  0
  141.4987   76.7662  223.4962 H   0  0  0  0  0  0  0  0  0  0  0  0
  139.7981   77.3093  223.1600 H   0  0  0  0  0  0  0  0  0  0  0  0
  141.6929   70.6208  220.0561 H   0  0  0  0  0  0  0  0  0  0  0  0
  142.3450   71.0732  218.4278 H   0  0  0  0  0  0  0  0  0  0  0  0
  143.9270   70.0152  220.8135 H   0  0  0  0  0  0  0  0  0  0  0  0
  143.6046   69.1630  219.2814 H   0  0  0  0  0  0  0  0  0  0  0  0
  1  2  1  0
  2  3  1  0
  3  4  1  0
  4  5  1  0
  5  6  1  0
  6  7  1  0
  7  8  2  0
  8  9  1  0
  9 10  1  0
 10 11  1  0
 11 12  1  0
 12 13  1  0
 13 14  2  0
 14 15  1  0
 15 16  2  0
 16 17  1  0
 17 18  2  0
  9 19  2  0
 19 20  1  0
 20 21  1  0
 21 22  1  0
 22 23  1  0
 23 24  1  0
 24 25  2  0
 25 26  1  0
 26 27  2  0
 27 28  1  0
 28 29  2  0
 29 30  1  0
 20 31  2  0
  6 32  1  0
 32 33  1  0
 33  3  1  0
 31  7  1  0
 18 13  1  0
 30 21  1  0
 29 24  1  0
  1 34  1  0
  1 35  1  0
  2 36  1  0
  2 37  1  0
  3 38  1  0
  4 39  1  0
  4 40  1  0
  5 41  1  0
  5 42  1  0
 10 43  1  0
 11 44  1  0
 11 45  1  0
 12 46  1  0
 12 47  1  0
 14 48  1  0
 15 49  1  0
 16 50  1  0
 17 51  1  0
 18 52  1  0
 22 53  1  0
 22 54  1  0
 23 55  1  0
 23 56  1  0
 25 57  1  0
 26 58  1  0
 27 59  1  0
 28 60  1  0
 30 61  1  0
 30 62  1  0
 32 63  1  0
 32 64  1  0
 33 65  1  0
 33 66  1  0
M  END
>  <smiles>  (44) 
NCC1CCN(c2nc(NCCc3ccccc3)nc(N3CCc4ccccc4C3)n2)CC1

>  <score_type>  (44) 
oracle

>  <origin>  (44) 
autodockgpu

>  <m_score__min__energy>  (44) 
-10.140000000000001

>  <m_primary>  (44) 
energy

>  <rmsd>  (44) 
4.753872749892138

>  <m_score__min__rmsd>  (44) 
4.753872749892138

>  <meeko>  (44) 
{"free_energy": -10.0, "intermolecular_energy": -12.39, "internal_energy": -1.09, "cluster_size": 16, "cluster_id": 1, "rank_in_cluster": 7}

>  <energy>  (44) 
-8.39

>  <cluster_rmsd>  (44) 
0.94

>  <cluster>  (44) 
4

$$$$

     RDKit          3D

 66 70  0  0  0  0  0  0  0  0999 V2000
  142.5780   79.1380  222.3330 N   0  0  0  0  0  0  0  0  0  0  0  0
  141.3950   79.3800  221.5010 C   0  0  0  0  0  0  0  0  0  0  0  0
  140.7610   78.0340  221.2470 C   0  0  0  0  0  0  0  0  0  0  0  0
  140.7060   77.2580  222.5500 C   0  0  0  0  0  0  0  0  0  0  0  0
  139.8390   76.0420  222.3030 C   0  0  0  0  0  0  0  0  0  0  0  0
  140.3860   75.2650  221.2080 N   0  0  0  0  0  0  0  0  0  0  0  0
  140.5810   73.8590  221.3210 C   0  0  0  0  0  0  0  0  0  0  0  0
  141.0180   73.1310  220.2910 N   0  0  0  0  0  0  0  0  0  0  0  0
  141.2080   71.7810  220.3910 C   0  0  0  0  0  0  0  0  0  0  0  0
  141.6750   71.0310  219.2730 N   0  0  0  0  0  0  0  0  0  0  0  0
  142.4840   71.7100  218.3040 C   0  0  0  0  0  0  0  0  0  0  0  0
  143.9290   71.2630  218.5320 C   0  0  0  0  0  0  0  0  0  0  0  0
  144.5420   72.3570  219.3600 C   0  0  0  0  0  0  0  0  0  0  0  0
  143.8680   73.5630  219.3580 C   0  0  0  0  0  0  0  0  0  0  0  0
  144.3960   74.6080  220.1100 C   0  0  0  0  0  0  0  0  0  0  0  0
  145.5680   74.4300  220.8370 C   0  0  0  0  0  0  0  0  0  0  0  0
  146.2160   73.2000  220.8120 C   0  0  0  0  0  0  0  0  0  0  0  0
  145.7080   72.1460  220.0700 C   0  0  0  0  0  0  0  0  0  0  0  0
  140.9330   71.1980  221.5880 N   0  0  0  0  0  0  0  0  0  0  0  0
  140.4930   71.9030  222.6400 C   0  0  0  0  0  0  0  0  0  0  0  0
  140.2220   71.2390  223.8700 N   0  0  0  0  0  0  0  0  0  0  0  0
  140.6460   71.9040  225.0830 C   0  0  0  0  0  0  0  0  0  0  0  0
  141.5050   70.9970  225.9370 C   0  0  0  0  0  0  0  0  0  0  0  0
  140.7660   69.7030  226.1520 C   0  0  0  0  0  0  0  0  0  0  0  0
  141.0280   69.0040  227.3200 C   0  0  0  0  0  0  0  0  0  0  0  0
  140.3690   67.8130  227.5530 C   0  0  0  0  0  0  0  0  0  0  0  0
  139.4660   67.3410  226.6230 C   0  0  0  0  0  0  0  0  0  0  0  0
  139.2160   68.0600  225.4520 C   0  0  0  0  0  0  0  0  0  0  0  0
  139.8730   69.2670  225.2000 C   0  0  0  0  0  0  0  0  0  0  0  0
  139.5660   69.9740  223.9500 C   0  0  0  0  0  0  0  0  0  0  0  0
  140.3220   73.2430  222.4870 N   0  0  0  0  0  0  0  0  0  0  0  0
  140.7350   75.9520  219.9790 C   0  0  0  0  0  0  0  0  0  0  0  0
  141.5360   77.2110  220.2540 C   0  0  0  0  0  0  0  0  0  0  0  0
  143.3470   79.7340  221.9430 H   0  0  0  0  0  0  0  0  0  0  0  0
  142.8540   78.1250  222.3100 H   0  0  0  0  0  0  0  0  0  0  0  0
  140.6889   80.0383  222.0283 H   0  0  0  0  0  0  0  0  0  0  0  0
  141.6694   79.8728  220.5566 H   0  0  0  0  0  0  0  0  0  0  0  0
  139.7573   78.2200  220.8372 H   0  0  0  0  0  0  0  0  0  0  0  0
  141.7182   76.9465  222.8475 H   0  0  0  0  0  0  0  0  0  0  0  0
  140.2927   77.8777  223.3595 H   0  0  0  0  0  0  0  0  0  0  0  0
  139.8103   75.4229  223.2118 H   0  0  0  0  0  0  0  0  0  0  0  0
  138.8205   76.3676  222.0449 H   0  0  0  0  0  0  0  0  0  0  0  0
  141.4220   70.0220  219.1860 H   0  0  0  0  0  0  0  0  0  0  0  0
  142.1615   71.4402  217.2875 H   0  0  0  0  0  0  0  0  0  0  0  0
  142.3901   72.8008  218.4108 H   0  0  0  0  0  0  0  0  0  0  0  0
  143.9579   70.3053  219.0724 H   0  0  0  0  0  0  0  0  0  0  0  0
  144.4691   71.1047  217.5869 H   0  0  0  0  0  0  0  0  0  0  0  0
  142.9417   73.6932  218.7793 H   0  0  0  0  0  0  0  0  0  0  0  0
  143.8831   75.5809  220.1295 H   0  0  0  0  0  0  0  0  0  0  0  0
  145.9810   75.2594  221.4298 H   0  0  0  0  0  0  0  0  0  0  0  0
  147.1429   73.0622  221.3881 H   0  0  0  0  0  0  0  0  0  0  0  0
  146.2174   71.1713  220.0470 H   0  0  0  0  0  0  0  0  0  0  0  0
  141.2261   72.7998  224.8163 H   0  0  0  0  0  0  0  0  0  0  0  0
  139.7502   72.1773  225.6599 H   0  0  0  0  0  0  0  0  0  0  0  0
  142.4585   70.7992  225.4254 H   0  0  0  0  0  0  0  0  0  0  0  0
  141.7141   71.4770  226.9044 H   0  0  0  0  0  0  0  0  0  0  0  0
  141.7514   69.3929  228.0517 H   0  0  0  0  0  0  0  0  0  0  0  0
  140.5629   67.2442  228.4744 H   0  0  0  0  0  0  0  0  0  0  0  0
  138.9396   66.3924  226.8048 H   0  0  0  0  0  0  0  0  0  0  0  0
  138.4933   67.6714  224.7195 H   0  0  0  0  0  0  0  0  0  0  0  0
  139.8910   69.3524  223.1026 H   0  0  0  0  0  0  0  0  0  0  0  0
  138.4812   70.1542  223.9221 H   0  0  0  0  0  0  0  0  0  0  0  0
  141.3343   75.2773  219.3501 H   0  0  0  0  0  0  0  0  0  0  0  0
  139.8043   76.2397  219.4682 H   0  0  0  0  0  0  0  0  0  0  0  0
  142.5189   76.9468  220.6713 H   0  0  0  0  0  0  0  0  0  0  0  0
  141.6978   77.7772  219.3249 H   0  0  0  0  0  0  0  0  0  0  0  0
  1  2  1  0
  2  3  1  0
  3  4  1  0
  4  5  1  0
  5  6  1  0
  6  7  1  0
  7  8  2  0
  8  9  1  0
  9 10  1  0
 10 11  1  0
 11 12  1  0
 12 13  1  0
 13 14  2  0
 14 15  1  0
 15 16  2  0
 16 17  1  0
 17 18  2  0
  9 19  2  0
 19 20  1  0
 20 21  1  0
 21 22  1  0
 22 23  1  0
 23 24  1  0
 24 25  2  0
 25 26  1  0
 26 27  2  0
 27 28  1  0
 28 29  2  0
 29 30  1  0
 20 31  2  0
  6 32  1  0
 32 33  1  0
 33  3  1  0
 31  7  1  0
 18 13  1  0
 30 21  1  0
 29 24  1  0
  1 34  1  0
  1 35  1  0
  2 36  1  0
  2 37  1  0
  3 38  1  0
  4 39  1  0
  4 40  1  0
  5 41  1  0
  5 42  1  0
 10 43  1  0
 11 44  1  0
 11 45  1  0
 12 46  1  0
 12 47  1  0
 14 48  1  0
 15 49  1  0
 16 50  1  0
 17 51  1  0
 18 52  1  0
 22 53  1  0
 22 54  1  0
 23 55  1  0
 23 56  1  0
 25 57  1  0
 26 58  1  0
 27 59  1  0
 28 60  1  0
 30 61  1  0
 30 62  1  0
 32 63  1  0
 32 64  1  0
 33 65  1  0
 33 66  1  0
M  END
>  <smiles>  (45) 
NCC1CCN(c2nc(NCCc3ccccc3)nc(N3CCc4ccccc4C3)n2)CC1

>  <score_type>  (45) 
oracle

>  <origin>  (45) 
autodockgpu

>  <m_score__min__energy>  (45) 
-10.140000000000001

>  <m_primary>  (45) 
energy

>  <rmsd>  (45) 
11.946716082989399

>  <m_score__min__rmsd>  (45) 
11.946716082989399

>  <meeko>  (45) 
{"free_energy": -9.07, "intermolecular_energy": -11.46, "internal_energy": -1.67, "cluster_size": 7, "cluster_id": 3, "rank_in_cluster": 3}

>  <energy>  (45) 
-9.02

>  <cluster_rmsd>  (45) 
0.0

>  <cluster>  (45) 
5

$$$$

     RDKit          3D

 66 70  0  0  0  0  0  0  0  0999 V2000
  145.8490   68.4760  219.8840 N   0  0  0  0  0  0  0  0  0  0  0  0
  146.1310   69.6380  219.0370 C   0  0  0  0  0  0  0  0  0  0  0  0
  144.8800   70.4830  219.0310 C   0  0  0  0  0  0  0  0  0  0  0  0
  145.1560   71.7850  219.7600 C   0  0  0  0  0  0  0  0  0  0  0  0
  143.9730   72.6940  219.5040 C   0  0  0  0  0  0  0  0  0  0  0  0
  142.7540   72.0470  219.9490 N   0  0  0  0  0  0  0  0  0  0  0  0
  141.8170   72.7250  220.7790 C   0  0  0  0  0  0  0  0  0  0  0  0
  140.9850   72.0560  221.5800 N   0  0  0  0  0  0  0  0  0  0  0  0
  140.0820   72.6980  222.3800 C   0  0  0  0  0  0  0  0  0  0  0  0
  139.2060   71.9550  223.2250 N   0  0  0  0  0  0  0  0  0  0  0  0
  139.7080   70.7470  223.8110 C   0  0  0  0  0  0  0  0  0  0  0  0
  140.9190   71.1320  224.6630 C   0  0  0  0  0  0  0  0  0  0  0  0
  140.7150   70.4110  225.9660 C   0  0  0  0  0  0  0  0  0  0  0  0
  140.6940   71.2050  227.0970 C   0  0  0  0  0  0  0  0  0  0  0  0
  140.5080   70.5840  228.3280 C   0  0  0  0  0  0  0  0  0  0  0  0
  140.3510   69.2050  228.4040 C   0  0  0  0  0  0  0  0  0  0  0  0
  140.3780   68.4420  227.2420 C   0  0  0  0  0  0  0  0  0  0  0  0
  140.5630   69.0390  226.0060 C   0  0  0  0  0  0  0  0  0  0  0  0
  140.0580   74.0560  222.3320 N   0  0  0  0  0  0  0  0  0  0  0  0
  140.8810   74.7550  221.5380 C   0  0  0  0  0  0  0  0  0  0  0  0
  140.8120   76.1770  221.5290 N   0  0  0  0  0  0  0  0  0  0  0  0
  140.8540   76.8290  220.2380 C   0  0  0  0  0  0  0  0  0  0  0  0
  141.9410   77.8800  220.1860 C   0  0  0  0  0  0  0  0  0  0  0  0
  141.7620   78.8100  221.3570 C   0  0  0  0  0  0  0  0  0  0  0  0
  142.1990   80.1170  221.2080 C   0  0  0  0  0  0  0  0  0  0  0  0
  142.0520   80.9990  222.2600 C   0  0  0  0  0  0  0  0  0  0  0  0
  141.4760   80.5670  223.4360 C   0  0  0  0  0  0  0  0  0  0  0  0
  141.0420   79.2460  223.5670 C   0  0  0  0  0  0  0  0  0  0  0  0
  141.1830   78.3390  222.5130 C   0  0  0  0  0  0  0  0  0  0  0  0
  140.7070   76.9650  222.7150 C   0  0  0  0  0  0  0  0  0  0  0  0
  141.7610   74.0670  220.7620 N   0  0  0  0  0  0  0  0  0  0  0  0
  142.5010   70.6830  219.5280 C   0  0  0  0  0  0  0  0  0  0  0  0
  143.7250   69.8070  219.7180 C   0  0  0  0  0  0  0  0  0  0  0  0
  146.7580   67.9700  220.0130 H   0  0  0  0  0  0  0  0  0  0  0  0
  145.1410   67.8440  219.4340 H   0  0  0  0  0  0  0  0  0  0  0  0
  146.9743   70.2118  219.4488 H   0  0  0  0  0  0  0  0  0  0  0  0
  146.4045   69.3281  218.0176 H   0  0  0  0  0  0  0  0  0  0  0  0
  144.6085   70.6520  217.9785 H   0  0  0  0  0  0  0  0  0  0  0  0
  145.2630   71.5987  220.8388 H   0  0  0  0  0  0  0  0  0  0  0  0
  146.0893   72.2449  219.4031 H   0  0  0  0  0  0  0  0  0  0  0  0
  144.1095   73.6358  220.0557 H   0  0  0  0  0  0  0  0  0  0  0  0
  143.9015   72.9040  218.4266 H   0  0  0  0  0  0  0  0  0  0  0  0
  138.2350   72.3000  223.3940 H   0  0  0  0  0  0  0  0  0  0  0  0
  138.9349   70.2834  224.4413 H   0  0  0  0  0  0  0  0  0  0  0  0
  139.9899   70.0216  223.0336 H   0  0  0  0  0  0  0  0  0  0  0  0
  141.8520   70.8049  224.1808 H   0  0  0  0  0  0  0  0  0  0  0  0
  141.0027   72.2204  224.7988 H   0  0  0  0  0  0  0  0  0  0  0  0
  140.8206   72.2954  227.0260 H   0  0  0  0  0  0  0  0  0  0  0  0
  140.4850   71.1881  229.2470 H   0  0  0  0  0  0  0  0  0  0  0  0
  140.2059   68.7190  229.3801 H   0  0  0  0  0  0  0  0  0  0  0  0
  140.2509   67.3512  227.3051 H   0  0  0  0  0  0  0  0  0  0  0  0
  140.5881   68.4387  225.0846 H   0  0  0  0  0  0  0  0  0  0  0  0
  141.0485   76.0741  219.4619 H   0  0  0  0  0  0  0  0  0  0  0  0
  139.8861   77.3231  220.0678 H   0  0  0  0  0  0  0  0  0  0  0  0
  142.9275   77.3968  220.2432 H   0  0  0  0  0  0  0  0  0  0  0  0
  141.8761   78.4434  219.2435 H   0  0  0  0  0  0  0  0  0  0  0  0
  142.6569   80.4472  220.2639 H   0  0  0  0  0  0  0  0  0  0  0  0
  142.3924   82.0403  222.1606 H   0  0  0  0  0  0  0  0  0  0  0  0
  141.3576   81.2671  224.2761 H   0  0  0  0  0  0  0  0  0  0  0  0
  140.5838   78.9155  224.5108 H   0  0  0  0  0  0  0  0  0  0  0  0
  141.3085   76.4948  223.5069 H   0  0  0  0  0  0  0  0  0  0  0  0
  139.6442   77.0139  222.9944 H   0  0  0  0  0  0  0  0  0  0  0  0
  141.6720   70.2730  220.1234 H   0  0  0  0  0  0  0  0  0  0  0  0
  142.2465   70.6934  218.4579 H   0  0  0  0  0  0  0  0  0  0  0  0
  143.9414   69.6926  220.7904 H   0  0  0  0  0  0  0  0  0  0  0  0
  143.5541   68.8072  219.2922 H   0  0  0  0  0  0  0  0  0  0  0  0
  1  2  1  0
  2  3  1  0
  3  4  1  0
  4  5  1  0
  5  6  1  0
  6  7  1  0
  7  8  2  0
  8  9  1  0
  9 10  1  0
 10 11  1  0
 11 12  1  0
 12 13  1  0
 13 14  2  0
 14 15  1  0
 15 16  2  0
 16 17  1  0
 17 18  2  0
  9 19  2  0
 19 20  1  0
 20 21  1  0
 21 22  1  0
 22 23  1  0
 23 24  1  0
 24 25  2  0
 25 26  1  0
 26 27  2  0
 27 28  1  0
 28 29  2  0
 29 30  1  0
 20 31  2  0
  6 32  1  0
 32 33  1  0
 33  3  1  0
 31  7  1  0
 18 13  1  0
 30 21  1  0
 29 24  1  0
  1 34  1  0
  1 35  1  0
  2 36  1  0
  2 37  1  0
  3 38  1  0
  4 39  1  0
  4 40  1  0
  5 41  1  0
  5 42  1  0
 10 43  1  0
 11 44  1  0
 11 45  1  0
 12 46  1  0
 12 47  1  0
 14 48  1  0
 15 49  1  0
 16 50  1  0
 17 51  1  0
 18 52  1  0
 22 53  1  0
 22 54  1  0
 23 55  1  0
 23 56  1  0
 25 57  1  0
 26 58  1  0
 27 59  1  0
 28 60  1  0
 30 61  1  0
 30 62  1  0
 32 63  1  0
 32 64  1  0
 33 65  1  0
 33 66  1  0
M  END
>  <smiles>  (46) 
NCC1CCN(c2nc(NCCc3ccccc3)nc(N3CCc4ccccc4C3)n2)CC1

>  <score_type>  (46) 
oracle

>  <origin>  (46) 
autodockgpu

>  <m_score__min__energy>  (46) 
-10.140000000000001

>  <m_primary>  (46) 
energy

>  <rmsd>  (46) 
4.672617946653578

>  <m_score__min__rmsd>  (46) 
4.672617946653578

>  <meeko>  (46) 
{"free_energy": -10.14, "intermolecular_energy": -12.53, "internal_energy": -1.06, "cluster_size": 16, "cluster_id": 1, "rank_in_cluster": 1}

>  <energy>  (46) 
-9.02

>  <cluster_rmsd>  (46) 
0.28

>  <cluster>  (46) 
5

$$$$

     RDKit          3D

 66 70  0  0  0  0  0  0  0  0999 V2000
  139.2650   67.2660  226.1880 N   0  0  0  0  0  0  0  0  0  0  0  0
  140.0270   68.3290  226.8500 C   0  0  0  0  0  0  0  0  0  0  0  0
  139.8010   69.5880  226.0480 C   0  0  0  0  0  0  0  0  0  0  0  0
  139.1820   69.2210  224.7120 C   0  0  0  0  0  0  0  0  0  0  0  0
  138.7400   70.5140  224.0610 C   0  0  0  0  0  0  0  0  0  0  0  0
  139.8720   71.4090  223.9300 N   0  0  0  0  0  0  0  0  0  0  0  0
  140.1650   72.0580  222.6970 C   0  0  0  0  0  0  0  0  0  0  0  0
  140.4720   71.3630  221.6000 N   0  0  0  0  0  0  0  0  0  0  0  0
  140.7540   71.9780  220.4120 C   0  0  0  0  0  0  0  0  0  0  0  0
  141.0790   71.2070  219.2570 N   0  0  0  0  0  0  0  0  0  0  0  0
  142.4620   71.0880  218.9020 C   0  0  0  0  0  0  0  0  0  0  0  0
  142.8720   72.4050  218.2400 C   0  0  0  0  0  0  0  0  0  0  0  0
  143.8000   73.0560  219.2260 C   0  0  0  0  0  0  0  0  0  0  0  0
  144.7650   72.2350  219.7780 C   0  0  0  0  0  0  0  0  0  0  0  0
  145.6490   72.7920  220.6970 C   0  0  0  0  0  0  0  0  0  0  0  0
  145.5520   74.1350  221.0420 C   0  0  0  0  0  0  0  0  0  0  0  0
  144.5670   74.9270  220.4640 C   0  0  0  0  0  0  0  0  0  0  0  0
  143.6760   74.3940  219.5470 C   0  0  0  0  0  0  0  0  0  0  0  0
  140.7120   73.3360  220.3850 N   0  0  0  0  0  0  0  0  0  0  0  0
  140.4080   74.0610  221.4720 C   0  0  0  0  0  0  0  0  0  0  0  0
  140.3780   75.4820  221.3840 N   0  0  0  0  0  0  0  0  0  0  0  0
  140.2190   76.0550  220.0650 C   0  0  0  0  0  0  0  0  0  0  0  0
  141.3100   77.0590  219.7650 C   0  0  0  0  0  0  0  0  0  0  0  0
  141.3590   78.0610  220.8870 C   0  0  0  0  0  0  0  0  0  0  0  0
  141.8010   79.3400  220.5840 C   0  0  0  0  0  0  0  0  0  0  0  0
  141.8590   80.2870  221.5870 C   0  0  0  0  0  0  0  0  0  0  0  0
  141.4790   79.9460  222.8680 C   0  0  0  0  0  0  0  0  0  0  0  0
  141.0370   78.6530  223.1540 C   0  0  0  0  0  0  0  0  0  0  0  0
  140.9710   77.6820  222.1510 C   0  0  0  0  0  0  0  0  0  0  0  0
  140.4980   76.3410  222.5180 C   0  0  0  0  0  0  0  0  0  0  0  0
  140.1340   73.4000  222.6270 N   0  0  0  0  0  0  0  0  0  0  0  0
  140.7120   71.6360  225.0900 C   0  0  0  0  0  0  0  0  0  0  0  0
  141.0790   70.3330  225.7740 C   0  0  0  0  0  0  0  0  0  0  0  0
  139.2570   66.4490  226.8440 H   0  0  0  0  0  0  0  0  0  0  0  0
  139.7080   66.9970  225.2750 H   0  0  0  0  0  0  0  0  0  0  0  0
  139.6688   68.4667  227.8809 H   0  0  0  0  0  0  0  0  0  0  0  0
  141.0967   68.0775  226.8991 H   0  0  0  0  0  0  0  0  0  0  0  0
  139.1403   70.2368  226.6418 H   0  0  0  0  0  0  0  0  0  0  0  0
  139.9239   68.7130  224.0784 H   0  0  0  0  0  0  0  0  0  0  0  0
  138.3306   68.5378  224.8474 H   0  0  0  0  0  0  0  0  0  0  0  0
  138.3273   70.2987  223.0643 H   0  0  0  0  0  0  0  0  0  0  0  0
  137.9702   70.9907  224.6856 H   0  0  0  0  0  0  0  0  0  0  0  0
  140.3160   70.7560  218.7070 H   0  0  0  0  0  0  0  0  0  0  0  0
  143.0690   70.9135  219.8026 H   0  0  0  0  0  0  0  0  0  0  0  0
  142.6190   70.2408  218.2181 H   0  0  0  0  0  0  0  0  0  0  0  0
  143.3889   72.2158  217.2876 H   0  0  0  0  0  0  0  0  0  0  0  0
  142.0048   73.0393  218.0039 H   0  0  0  0  0  0  0  0  0  0  0  0
  144.8322   71.1730  219.4992 H   0  0  0  0  0  0  0  0  0  0  0  0
  146.4295   72.1655  221.1534 H   0  0  0  0  0  0  0  0  0  0  0  0
  146.2526   74.5696  221.7702 H   0  0  0  0  0  0  0  0  0  0  0  0
  144.4941   75.9898  220.7380 H   0  0  0  0  0  0  0  0  0  0  0  0
  142.8938   75.0169  219.0885 H   0  0  0  0  0  0  0  0  0  0  0  0
  140.2586   75.2491  219.3174 H   0  0  0  0  0  0  0  0  0  0  0  0
  139.2501   76.5745  220.0274 H   0  0  0  0  0  0  0  0  0  0  0  0
  142.2780   76.5425  219.6863 H   0  0  0  0  0  0  0  0  0  0  0  0
  141.1012   77.5692  218.8131 H   0  0  0  0  0  0  0  0  0  0  0  0
  142.1016   79.5968  219.5575 H   0  0  0  0  0  0  0  0  0  0  0  0
  142.2061   81.3071  221.3657 H   0  0  0  0  0  0  0  0  0  0  0  0
  141.5245   80.6977  223.6698 H   0  0  0  0  0  0  0  0  0  0  0  0
  140.7373   78.3955  224.1806 H   0  0  0  0  0  0  0  0  0  0  0  0
  141.2120   75.8951  223.2261 H   0  0  0  0  0  0  0  0  0  0  0  0
  139.5001   76.4466  222.9685 H   0  0  0  0  0  0  0  0  0  0  0  0
  141.6339   72.1437  224.7699 H   0  0  0  0  0  0  0  0  0  0  0  0
  140.1520   72.2557  225.8057 H   0  0  0  0  0  0  0  0  0  0  0  0
  141.7287   69.7349  225.1181 H   0  0  0  0  0  0  0  0  0  0  0  0
  141.6214   70.5277  226.7110 H   0  0  0  0  0  0  0  0  0  0  0  0
  1  2  1  0
  2  3  1  0
  3  4  1  0
  4  5  1  0
  5  6  1  0
  6  7  1  0
  7  8  2  0
  8  9  1  0
  9 10  1  0
 10 11  1  0
 11 12  1  0
 12 13  1  0
 13 14  2  0
 14 15  1  0
 15 16  2  0
 16 17  1  0
 17 18  2  0
  9 19  2  0
 19 20  1  0
 20 21  1  0
 21 22  1  0
 22 23  1  0
 23 24  1  0
 24 25  2  0
 25 26  1  0
 26 27  2  0
 27 28  1  0
 28 29  2  0
 29 30  1  0
 20 31  2  0
  6 32  1  0
 32 33  1  0
 33  3  1  0
 31  7  1  0
 18 13  1  0
 30 21  1  0
 29 24  1  0
  1 34  1  0
  1 35  1  0
  2 36  1  0
  2 37  1  0
  3 38  1  0
  4 39  1  0
  4 40  1  0
  5 41  1  0
  5 42  1  0
 10 43  1  0
 11 44  1  0
 11 45  1  0
 12 46  1  0
 12 47  1  0
 14 48  1  0
 15 49  1  0
 16 50  1  0
 17 51  1  0
 18 52  1  0
 22 53  1  0
 22 54  1  0
 23 55  1  0
 23 56  1  0
 25 57  1  0
 26 58  1  0
 27 59  1  0
 28 60  1  0
 30 61  1  0
 30 62  1  0
 32 63  1  0
 32 64  1  0
 33 65  1  0
 33 66  1  0
M  END
>  <smiles>  (47) 
NCC1CCN(c2nc(NCCc3ccccc3)nc(N3CCc4ccccc4C3)n2)CC1

>  <score_type>  (47) 
oracle

>  <origin>  (47) 
autodockgpu

>  <m_score__min__energy>  (47) 
-10.140000000000001

>  <m_primary>  (47) 
energy

>  <rmsd>  (47) 
4.276624629710878

>  <m_score__min__rmsd>  (47) 
4.276624629710878

>  <meeko>  (47) 
{"free_energy": -8.64, "intermolecular_energy": -11.03, "internal_energy": -1.88, "cluster_size": 15, "cluster_id": 4, "rank_in_cluster": 12}

>  <energy>  (47) 
-8.98

>  <cluster_rmsd>  (47) 
0.17

>  <cluster>  (47) 
5

$$$$

     RDKit          3D

 66 70  0  0  0  0  0  0  0  0999 V2000
  139.4920   67.1800  226.2520 N   0  0  0  0  0  0  0  0  0  0  0  0
  139.8960   68.3130  227.0900 C   0  0  0  0  0  0  0  0  0  0  0  0
  139.7430   69.5540  226.2440 C   0  0  0  0  0  0  0  0  0  0  0  0
  139.1550   69.1680  224.9000 C   0  0  0  0  0  0  0  0  0  0  0  0
  138.7820   70.4550  224.1960 C   0  0  0  0  0  0  0  0  0  0  0  0
  139.9500   71.3050  224.0770 N   0  0  0  0  0  0  0  0  0  0  0  0
  140.3060   71.9050  222.8360 C   0  0  0  0  0  0  0  0  0  0  0  0
  140.7250   71.1710  221.8020 N   0  0  0  0  0  0  0  0  0  0  0  0
  141.0690   71.7390  220.6070 C   0  0  0  0  0  0  0  0  0  0  0  0
  141.5130   70.9280  219.5220 N   0  0  0  0  0  0  0  0  0  0  0  0
  142.8830   70.5040  219.5210 C   0  0  0  0  0  0  0  0  0  0  0  0
  143.6280   71.3960  218.5270 C   0  0  0  0  0  0  0  0  0  0  0  0
  144.3440   72.4060  219.3800 C   0  0  0  0  0  0  0  0  0  0  0  0
  145.5710   72.0110  219.8770 C   0  0  0  0  0  0  0  0  0  0  0  0
  146.2730   72.9110  220.6730 C   0  0  0  0  0  0  0  0  0  0  0  0
  145.7440   74.1660  220.9520 C   0  0  0  0  0  0  0  0  0  0  0  0
  144.5060   74.5240  220.4310 C   0  0  0  0  0  0  0  0  0  0  0  0
  143.7890   73.6440  219.6370 C   0  0  0  0  0  0  0  0  0  0  0  0
  140.9710   73.0900  220.5050 N   0  0  0  0  0  0  0  0  0  0  0  0
  140.5540   73.8540  221.5260 C   0  0  0  0  0  0  0  0  0  0  0  0
  140.4690   75.2650  221.3610 N   0  0  0  0  0  0  0  0  0  0  0  0
  140.8930   75.8040  220.0860 C   0  0  0  0  0  0  0  0  0  0  0  0
  141.9280   76.8920  220.2650 C   0  0  0  0  0  0  0  0  0  0  0  0
  141.3870   77.9110  221.2320 C   0  0  0  0  0  0  0  0  0  0  0  0
  141.8290   79.2180  221.0970 C   0  0  0  0  0  0  0  0  0  0  0  0
  141.3550   80.1820  221.9660 C   0  0  0  0  0  0  0  0  0  0  0  0
  140.4550   79.8280  222.9490 C   0  0  0  0  0  0  0  0  0  0  0  0
  140.0210   78.5060  223.0690 C   0  0  0  0  0  0  0  0  0  0  0  0
  140.4900   77.5180  222.1980 C   0  0  0  0  0  0  0  0  0  0  0  0
  139.9960   76.1480  222.3790 C   0  0  0  0  0  0  0  0  0  0  0  0
  140.2230   73.2390  222.6920 N   0  0  0  0  0  0  0  0  0  0  0  0
  140.7590   71.5380  225.2570 C   0  0  0  0  0  0  0  0  0  0  0  0
  141.0560   70.2440  225.9920 C   0  0  0  0  0  0  0  0  0  0  0  0
  139.5070   66.3310  226.8670 H   0  0  0  0  0  0  0  0  0  0  0  0
  140.1500   67.0560  225.4430 H   0  0  0  0  0  0  0  0  0  0  0  0
  139.2498   68.3773  227.9779 H   0  0  0  0  0  0  0  0  0  0  0  0
  140.9327   68.1973  227.4392 H   0  0  0  0  0  0  0  0  0  0  0  0
  139.0876   70.2445  226.7951 H   0  0  0  0  0  0  0  0  0  0  0  0
  139.8981   68.6144  224.3072 H   0  0  0  0  0  0  0  0  0  0  0  0
  138.2752   68.5201  225.0271 H   0  0  0  0  0  0  0  0  0  0  0  0
  138.3948   70.2236  223.1927 H   0  0  0  0  0  0  0  0  0  0  0  0
  138.0098   70.9779  224.7794 H   0  0  0  0  0  0  0  0  0  0  0  0
  140.8440   70.6650  218.7660 H   0  0  0  0  0  0  0  0  0  0  0  0
  143.3140   70.6175  220.5267 H   0  0  0  0  0  0  0  0  0  0  0  0
  142.9653   69.4449  219.2353 H   0  0  0  0  0  0  0  0  0  0  0  0
  144.3467   70.8057  217.9396 H   0  0  0  0  0  0  0  0  0  0  0  0
  142.9482   71.8702  217.8039 H   0  0  0  0  0  0  0  0  0  0  0  0
  145.9805   71.0155  219.6504 H   0  0  0  0  0  0  0  0  0  0  0  0
  147.2531   72.6275  221.0842 H   0  0  0  0  0  0  0  0  0  0  0  0
  146.3030   74.8730  221.5826 H   0  0  0  0  0  0  0  0  0  0  0  0
  144.0906   75.5183  220.6519 H   0  0  0  0  0  0  0  0  0  0  0  0
  142.8082   73.9227  219.2241 H   0  0  0  0  0  0  0  0  0  0  0  0
  141.3260   74.9939  219.4809 H   0  0  0  0  0  0  0  0  0  0  0  0
  140.0159   76.2389  219.5845 H   0  0  0  0  0  0  0  0  0  0  0  0
  142.8570   76.4585  220.6638 H   0  0  0  0  0  0  0  0  0  0  0  0
  142.1454   77.3684  219.2976 H   0  0  0  0  0  0  0  0  0  0  0  0
  142.5479   79.4842  220.3081 H   0  0  0  0  0  0  0  0  0  0  0  0
  141.6932   81.2247  221.8743 H   0  0  0  0  0  0  0  0  0  0  0  0
  140.0762   80.5923  223.6435 H   0  0  0  0  0  0  0  0  0  0  0  0
  139.3021   78.2391  223.8576 H   0  0  0  0  0  0  0  0  0  0  0  0
  140.3353   75.7754  223.3568 H   0  0  0  0  0  0  0  0  0  0  0  0
  138.8979   76.1744  222.3196 H   0  0  0  0  0  0  0  0  0  0  0  0
  141.7087   72.0026  224.9533 H   0  0  0  0  0  0  0  0  0  0  0  0
  140.1987   72.1991  225.9346 H   0  0  0  0  0  0  0  0  0  0  0  0
  141.7047   69.6032  225.3767 H   0  0  0  0  0  0  0  0  0  0  0  0
  141.5742   70.4480  226.9406 H   0  0  0  0  0  0  0  0  0  0  0  0
  1  2  1  0
  2  3  1  0
  3  4  1  0
  4  5  1  0
  5  6  1  0
  6  7  1  0
  7  8  2  0
  8  9  1  0
  9 10  1  0
 10 11  1  0
 11 12  1  0
 12 13  1  0
 13 14  2  0
 14 15  1  0
 15 16  2  0
 16 17  1  0
 17 18  2  0
  9 19  2  0
 19 20  1  0
 20 21  1  0
 21 22  1  0
 22 23  1  0
 23 24  1  0
 24 25  2  0
 25 26  1  0
 26 27  2  0
 27 28  1  0
 28 29  2  0
 29 30  1  0
 20 31  2  0
  6 32  1  0
 32 33  1  0
 33  3  1  0
 31  7  1  0
 18 13  1  0
 30 21  1  0
 29 24  1  0
  1 34  1  0
  1 35  1  0
  2 36  1  0
  2 37  1  0
  3 38  1  0
  4 39  1  0
  4 40  1  0
  5 41  1  0
  5 42  1  0
 10 43  1  0
 11 44  1  0
 11 45  1  0
 12 46  1  0
 12 47  1  0
 14 48  1  0
 15 49  1  0
 16 50  1  0
 17 51  1  0
 18 52  1  0
 22 53  1  0
 22 54  1  0
 23 55  1  0
 23 56  1  0
 25 57  1  0
 26 58  1  0
 27 59  1  0
 28 60  1  0
 30 61  1  0
 30 62  1  0
 32 63  1  0
 32 64  1  0
 33 65  1  0
 33 66  1  0
M  END
>  <smiles>  (48) 
NCC1CCN(c2nc(NCCc3ccccc3)nc(N3CCc4ccccc4C3)n2)CC1

>  <score_type>  (48) 
oracle

>  <origin>  (48) 
autodockgpu

>  <m_score__min__energy>  (48) 
-10.140000000000001

>  <m_primary>  (48) 
energy

>  <rmsd>  (48) 
4.420623140704791

>  <m_score__min__rmsd>  (48) 
4.420623140704791

>  <meeko>  (48) 
{"free_energy": -9.04, "intermolecular_energy": -11.43, "internal_energy": -1.69, "cluster_size": 15, "cluster_id": 4, "rank_in_cluster": 3}

>  <energy>  (48) 
-8.82

>  <cluster_rmsd>  (48) 
1.05

>  <cluster>  (48) 
5

$$$$

     RDKit          3D

 66 70  0  0  0  0  0  0  0  0999 V2000
  139.3640   67.1650  226.2360 N   0  0  0  0  0  0  0  0  0  0  0  0
  139.9750   68.2600  226.9950 C   0  0  0  0  0  0  0  0  0  0  0  0
  139.8050   69.5090  226.1650 C   0  0  0  0  0  0  0  0  0  0  0  0
  139.1920   69.1370  224.8280 C   0  0  0  0  0  0  0  0  0  0  0  0
  138.8050   70.4310  224.1450 C   0  0  0  0  0  0  0  0  0  0  0  0
  139.9700   71.2830  224.0110 N   0  0  0  0  0  0  0  0  0  0  0  0
  140.3030   71.8950  222.7700 C   0  0  0  0  0  0  0  0  0  0  0  0
  140.6850   71.1710  221.7160 N   0  0  0  0  0  0  0  0  0  0  0  0
  141.0060   71.7500  220.5210 C   0  0  0  0  0  0  0  0  0  0  0  0
  141.4120   70.9490  219.4140 N   0  0  0  0  0  0  0  0  0  0  0  0
  142.8180   70.7720  219.1970 C   0  0  0  0  0  0  0  0  0  0  0  0
  143.2950   71.9590  218.3570 C   0  0  0  0  0  0  0  0  0  0  0  0
  144.1880   72.7450  219.2770 C   0  0  0  0  0  0  0  0  0  0  0  0
  145.2890   72.0710  219.7680 C   0  0  0  0  0  0  0  0  0  0  0  0
  146.1460   72.7550  220.6240 C   0  0  0  0  0  0  0  0  0  0  0  0
  145.8890   74.0780  220.9670 C   0  0  0  0  0  0  0  0  0  0  0  0
  144.7690   74.7200  220.4510 C   0  0  0  0  0  0  0  0  0  0  0  0
  143.9020   74.0570  219.5970 C   0  0  0  0  0  0  0  0  0  0  0  0
  140.9220   73.1040  220.4390 N   0  0  0  0  0  0  0  0  0  0  0  0
  140.5410   73.8580  221.4810 C   0  0  0  0  0  0  0  0  0  0  0  0
  140.4700   75.2730  221.3370 N   0  0  0  0  0  0  0  0  0  0  0  0
  140.8700   75.8240  220.0600 C   0  0  0  0  0  0  0  0  0  0  0  0
  141.9230   76.8980  220.2290 C   0  0  0  0  0  0  0  0  0  0  0  0
  141.4170   77.9100  221.2230 C   0  0  0  0  0  0  0  0  0  0  0  0
  141.8720   79.2130  221.0950 C   0  0  0  0  0  0  0  0  0  0  0  0
  141.4300   80.1700  221.9880 C   0  0  0  0  0  0  0  0  0  0  0  0
  140.5490   79.8140  222.9860 C   0  0  0  0  0  0  0  0  0  0  0  0
  140.1020   78.4950  223.0990 C   0  0  0  0  0  0  0  0  0  0  0  0
  140.5380   77.5140  222.2040 C   0  0  0  0  0  0  0  0  0  0  0  0
  140.0310   76.1470  222.3770 C   0  0  0  0  0  0  0  0  0  0  0  0
  140.2320   73.2320  222.6470 N   0  0  0  0  0  0  0  0  0  0  0  0
  140.8020   71.5040  225.1780 C   0  0  0  0  0  0  0  0  0  0  0  0
  141.1130   70.2020  225.8940 C   0  0  0  0  0  0  0  0  0  0  0  0
  139.3750   66.3240  226.8620 H   0  0  0  0  0  0  0  0  0  0  0  0
  139.9010   66.9710  225.3550 H   0  0  0  0  0  0  0  0  0  0  0  0
  139.4696   68.3774  227.9650 H   0  0  0  0  0  0  0  0  0  0  0  0
  141.0378   68.0588  227.1949 H   0  0  0  0  0  0  0  0  0  0  0  0
  139.1597   70.1927  226.7361 H   0  0  0  0  0  0  0  0  0  0  0  0
  139.9242   68.5905  224.2154 H   0  0  0  0  0  0  0  0  0  0  0  0
  138.3152   68.4870  224.9647 H   0  0  0  0  0  0  0  0  0  0  0  0
  138.3977   70.2098  223.1474 H   0  0  0  0  0  0  0  0  0  0  0  0
  138.0449   70.9475  224.7495 H   0  0  0  0  0  0  0  0  0  0  0  0
  140.6900   70.5160  218.7970 H   0  0  0  0  0  0  0  0  0  0  0  0
  143.3493   70.7532  220.1600 H   0  0  0  0  0  0  0  0  0  0  0  0
  143.0186   69.8211  218.6817 H   0  0  0  0  0  0  0  0  0  0  0  0
  143.8554   71.6108  217.4768 H   0  0  0  0  0  0  0  0  0  0  0  0
  142.4575   72.5616  217.9756 H   0  0  0  0  0  0  0  0  0  0  0  0
  145.4825   71.0243  219.4904 H   0  0  0  0  0  0  0  0  0  0  0  0
  147.0320   72.2465  221.0319 H   0  0  0  0  0  0  0  0  0  0  0  0
  146.5696   74.6147  221.6443 H   0  0  0  0  0  0  0  0  0  0  0  0
  144.5686   75.7666  220.7238 H   0  0  0  0  0  0  0  0  0  0  0  0
  143.0139   74.5603  219.1871 H   0  0  0  0  0  0  0  0  0  0  0  0
  141.2787   75.0171  219.4340 H   0  0  0  0  0  0  0  0  0  0  0  0
  139.9866   76.2760  219.5853 H   0  0  0  0  0  0  0  0  0  0  0  0
  142.8559   76.4481  220.5995 H   0  0  0  0  0  0  0  0  0  0  0  0
  142.1233   77.3852  219.2633 H   0  0  0  0  0  0  0  0  0  0  0  0
  142.5755   79.4815  220.2932 H   0  0  0  0  0  0  0  0  0  0  0  0
  141.7791   81.2096  221.9029 H   0  0  0  0  0  0  0  0  0  0  0  0
  140.1951   80.5735  223.6987 H   0  0  0  0  0  0  0  0  0  0  0  0
  139.3992   78.2257  223.9012 H   0  0  0  0  0  0  0  0  0  0  0  0
  140.3873   75.7566  223.3417 H   0  0  0  0  0  0  0  0  0  0  0  0
  138.9323   76.1876  222.3425 H   0  0  0  0  0  0  0  0  0  0  0  0
  141.7457   71.9718  224.8608 H   0  0  0  0  0  0  0  0  0  0  0  0
  140.2551   72.1580  225.8730 H   0  0  0  0  0  0  0  0  0  0  0  0
  141.7494   69.5676  225.2595 H   0  0  0  0  0  0  0  0  0  0  0  0
  141.6496   70.3965  226.8343 H   0  0  0  0  0  0  0  0  0  0  0  0
  1  2  1  0
  2  3  1  0
  3  4  1  0
  4  5  1  0
  5  6  1  0
  6  7  1  0
  7  8  2  0
  8  9  1  0
  9 10  1  0
 10 11  1  0
 11 12  1  0
 12 13  1  0
 13 14  2  0
 14 15  1  0
 15 16  2  0
 16 17  1  0
 17 18  2  0
  9 19  2  0
 19 20  1  0
 20 21  1  0
 21 22  1  0
 22 23  1  0
 23 24  1  0
 24 25  2  0
 25 26  1  0
 26 27  2  0
 27 28  1  0
 28 29  2  0
 29 30  1  0
 20 31  2  0
  6 32  1  0
 32 33  1  0
 33  3  1  0
 31  7  1  0
 18 13  1  0
 30 21  1  0
 29 24  1  0
  1 34  1  0
  1 35  1  0
  2 36  1  0
  2 37  1  0
  3 38  1  0
  4 39  1  0
  4 40  1  0
  5 41  1  0
  5 42  1  0
 10 43  1  0
 11 44  1  0
 11 45  1  0
 12 46  1  0
 12 47  1  0
 14 48  1  0
 15 49  1  0
 16 50  1  0
 17 51  1  0
 18 52  1  0
 22 53  1  0
 22 54  1  0
 23 55  1  0
 23 56  1  0
 25 57  1  0
 26 58  1  0
 27 59  1  0
 28 60  1  0
 30 61  1  0
 30 62  1  0
 32 63  1  0
 32 64  1  0
 33 65  1  0
 33 66  1  0
M  END
>  <smiles>  (49) 
NCC1CCN(c2nc(NCCc3ccccc3)nc(N3CCc4ccccc4C3)n2)CC1

>  <score_type>  (49) 
oracle

>  <origin>  (49) 
autodockgpu

>  <m_score__min__energy>  (49) 
-10.140000000000001

>  <m_primary>  (49) 
energy

>  <rmsd>  (49) 
4.43096946121347

>  <m_score__min__rmsd>  (49) 
4.43096946121347

>  <meeko>  (49) 
{"free_energy": -8.98, "intermolecular_energy": -11.36, "internal_energy": -1.75, "cluster_size": 15, "cluster_id": 4, "rank_in_cluster": 4}

>  <energy>  (49) 
-8.59

>  <cluster_rmsd>  (49) 
0.75

>  <cluster>  (49) 
5

$$$$

     RDKit          3D

 66 70  0  0  0  0  0  0  0  0999 V2000
  139.1970   67.3790  226.1300 N   0  0  0  0  0  0  0  0  0  0  0  0
  140.1530   68.4050  226.5550 C   0  0  0  0  0  0  0  0  0  0  0  0
  139.8760   69.6280  225.7150 C   0  0  0  0  0  0  0  0  0  0  0  0
  139.5070   69.1920  224.3090 C   0  0  0  0  0  0  0  0  0  0  0  0
  138.9920   70.4190  223.5870 C   0  0  0  0  0  0  0  0  0  0  0  0
  140.0020   71.4580  223.6060 N   0  0  0  0  0  0  0  0  0  0  0  0
  140.3760   72.1500  222.4190 C   0  0  0  0  0  0  0  0  0  0  0  0
  140.7640   71.4930  221.3240 N   0  0  0  0  0  0  0  0  0  0  0  0
  141.1250   72.1490  220.1800 C   0  0  0  0  0  0  0  0  0  0  0  0
  141.5360   71.4190  219.0260 N   0  0  0  0  0  0  0  0  0  0  0  0
  142.1680   72.1460  217.9660 C   0  0  0  0  0  0  0  0  0  0  0  0
  143.6450   71.7490  217.9670 C   0  0  0  0  0  0  0  0  0  0  0  0
  144.2790   72.6360  219.0030 C   0  0  0  0  0  0  0  0  0  0  0  0
  145.2940   72.0630  219.7450 C   0  0  0  0  0  0  0  0  0  0  0  0
  145.9120   72.8430  220.7180 C   0  0  0  0  0  0  0  0  0  0  0  0
  145.5090   74.1580  220.9260 C   0  0  0  0  0  0  0  0  0  0  0  0
  144.4840   74.6960  220.1570 C   0  0  0  0  0  0  0  0  0  0  0  0
  143.8540   73.9370  219.1840 C   0  0  0  0  0  0  0  0  0  0  0  0
  141.0760   73.5070  220.1960 N   0  0  0  0  0  0  0  0  0  0  0  0
  140.6910   74.1940  221.2810 C   0  0  0  0  0  0  0  0  0  0  0  0
  140.6580   75.6170  221.2390 N   0  0  0  0  0  0  0  0  0  0  0  0
  141.0290   76.2450  219.9890 C   0  0  0  0  0  0  0  0  0  0  0  0
  142.1190   77.2740  220.1920 C   0  0  0  0  0  0  0  0  0  0  0  0
  141.6810   78.2270  221.2720 C   0  0  0  0  0  0  0  0  0  0  0  0
  142.1700   79.5230  221.2190 C   0  0  0  0  0  0  0  0  0  0  0  0
  141.7900   80.4260  222.1920 C   0  0  0  0  0  0  0  0  0  0  0  0
  140.9350   80.0250  223.1960 C   0  0  0  0  0  0  0  0  0  0  0  0
  140.4530   78.7150  223.2340 C   0  0  0  0  0  0  0  0  0  0  0  0
  140.8260   77.7880  222.2570 C   0  0  0  0  0  0  0  0  0  0  0  0
  140.2840   76.4270  222.3540 C   0  0  0  0  0  0  0  0  0  0  0  0
  140.3420   73.4930  222.3920 N   0  0  0  0  0  0  0  0  0  0  0  0
  140.6310   71.7870  224.8700 C   0  0  0  0  0  0  0  0  0  0  0  0
  141.0690   70.5400  225.6150 C   0  0  0  0  0  0  0  0  0  0  0  0
  139.2520   66.6060  226.8370 H   0  0  0  0  0  0  0  0  0  0  0  0
  139.4340   67.0150  225.1740 H   0  0  0  0  0  0  0  0  0  0  0  0
  140.0118   68.6369  227.6210 H   0  0  0  0  0  0  0  0  0  0  0  0
  141.1892   68.0601  226.4234 H   0  0  0  0  0  0  0  0  0  0  0  0
  139.0570   70.1772  226.2025 H   0  0  0  0  0  0  0  0  0  0  0  0
  140.3925   68.7933  223.7923 H   0  0  0  0  0  0  0  0  0  0  0  0
  138.7442   68.3997  224.3307 H   0  0  0  0  0  0  0  0  0  0  0  0
  138.7561   70.1577  222.5449 H   0  0  0  0  0  0  0  0  0  0  0  0
  138.0851   70.7840  224.0912 H   0  0  0  0  0  0  0  0  0  0  0  0
  141.3700   70.3890  218.9810 H   0  0  0  0  0  0  0  0  0  0  0  0
  141.7075   71.8842  217.0020 H   0  0  0  0  0  0  0  0  0  0  0  0
  142.0538   73.2302  218.1124 H   0  0  0  0  0  0  0  0  0  0  0  0
  143.7616   70.6897  218.2396 H   0  0  0  0  0  0  0  0  0  0  0  0
  144.1086   71.8692  216.9767 H   0  0  0  0  0  0  0  0  0  0  0  0
  145.6042   71.0219  219.5719 H   0  0  0  0  0  0  0  0  0  0  0  0
  146.7238   72.4171  221.3260 H   0  0  0  0  0  0  0  0  0  0  0  0
  146.0001   74.7702  221.6968 H   0  0  0  0  0  0  0  0  0  0  0  0
  144.1691   75.7368  220.3228 H   0  0  0  0  0  0  0  0  0  0  0  0
  143.0406   74.3579  218.5747 H   0  0  0  0  0  0  0  0  0  0  0  0
  141.3903   75.4730  219.2937 H   0  0  0  0  0  0  0  0  0  0  0  0
  140.1435   76.7538  219.5803 H   0  0  0  0  0  0  0  0  0  0  0  0
  143.0505   76.7731  220.4945 H   0  0  0  0  0  0  0  0  0  0  0  0
  142.2988   77.8224  219.2556 H   0  0  0  0  0  0  0  0  0  0  0  0
  142.8522   79.8282  220.4119 H   0  0  0  0  0  0  0  0  0  0  0  0
  142.1672   81.4590  222.1661 H   0  0  0  0  0  0  0  0  0  0  0  0
  140.6303   80.7419  223.9727 H   0  0  0  0  0  0  0  0  0  0  0  0
  139.7721   78.4093  224.0420 H   0  0  0  0  0  0  0  0  0  0  0  0
  140.6632   75.9594  223.2746 H   0  0  0  0  0  0  0  0  0  0  0  0
  139.1865   76.5004  222.3652 H   0  0  0  0  0  0  0  0  0  0  0  0
  141.5124   72.4163  224.6774 H   0  0  0  0  0  0  0  0  0  0  0  0
  139.8970   72.3204  225.4919 H   0  0  0  0  0  0  0  0  0  0  0  0
  141.8791   70.0392  225.0646 H   0  0  0  0  0  0  0  0  0  0  0  0
  141.4425   70.7992  226.6166 H   0  0  0  0  0  0  0  0  0  0  0  0
  1  2  1  0
  2  3  1  0
  3  4  1  0
  4  5  1  0
  5  6  1  0
  6  7  1  0
  7  8  2  0
  8  9  1  0
  9 10  1  0
 10 11  1  0
 11 12  1  0
 12 13  1  0
 13 14  2  0
 14 15  1  0
 15 16  2  0
 16 17  1  0
 17 18  2  0
  9 19  2  0
 19 20  1  0
 20 21  1  0
 21 22  1  0
 22 23  1  0
 23 24  1  0
 24 25  2  0
 25 26  1  0
 26 27  2  0
 27 28  1  0
 28 29  2  0
 29 30  1  0
 20 31  2  0
  6 32  1  0
 32 33  1  0
 33  3  1  0
 31  7  1  0
 18 13  1  0
 30 21  1  0
 29 24  1  0
  1 34  1  0
  1 35  1  0
  2 36  1  0
  2 37  1  0
  3 38  1  0
  4 39  1  0
  4 40  1  0
  5 41  1  0
  5 42  1  0
 10 43  1  0
 11 44  1  0
 11 45  1  0
 12 46  1  0
 12 47  1  0
 14 48  1  0
 15 49  1  0
 16 50  1  0
 17 51  1  0
 18 52  1  0
 22 53  1  0
 22 54  1  0
 23 55  1  0
 23 56  1  0
 25 57  1  0
 26 58  1  0
 27 59  1  0
 28 60  1  0
 30 61  1  0
 30 62  1  0
 32 63  1  0
 32 64  1  0
 33 65  1  0
 33 66  1  0
M  END
>  <smiles>  (50) 
NCC1CCN(c2nc(NCCc3ccccc3)nc(N3CCc4ccccc4C3)n2)CC1

>  <score_type>  (50) 
oracle

>  <origin>  (50) 
autodockgpu

>  <m_score__min__energy>  (50) 
-10.140000000000001

>  <m_primary>  (50) 
energy

>  <rmsd>  (50) 
4.5486055464113155

>  <m_score__min__rmsd>  (50) 
4.5486055464113155

>  <meeko>  (50) 
{"free_energy": -8.69, "intermolecular_energy": -11.07, "internal_energy": -1.77, "cluster_size": 15, "cluster_id": 4, "rank_in_cluster": 10}

>  <energy>  (50) 
-8.49

>  <cluster_rmsd>  (50) 
0.0

>  <cluster>  (50) 
6

$$$$
