
     RDKit          3D

 55 57  0  0  0  0  0  0  0  0999 V2000
  138.4030   80.1550  220.6300 C   0  0  0  0  0  0  0  0  0  0  0  0
  139.0580   78.9990  221.1490 N   0  0  0  0  0  0  0  0  0  0  0  0
  138.4460   77.7390  220.8060 C   0  0  0  0  0  0  0  0  0  0  0  0
  137.6050   77.1300  221.8760 C   0  0  0  0  0  0  0  0  0  0  0  0
  138.3110   76.0720  222.6990 C   0  0  0  0  0  0  0  0  0  0  0  0
  139.7290   76.1170  222.5780 N   0  0  0  0  0  0  0  0  0  0  0  0
  140.3290   75.1930  221.8870 C   0  0  0  0  0  0  0  0  0  0  0  0
  139.8460   73.9040  222.0350 O   0  0  0  0  0  0  0  0  0  0  0  0
  141.4670   75.5520  221.0010 C   0  0  0  0  0  0  0  0  0  0  0  0
  141.4410   76.8920  220.5050 N   0  0  0  0  0  0  0  0  0  0  0  0
  142.2990   77.4020  219.4910 C   0  0  0  0  0  0  0  0  0  0  0  0
  143.1700   76.6520  218.9570 O   0  0  0  0  0  0  0  0  0  0  0  0
  142.1840   78.7980  219.0520 C   0  0  0  0  0  0  0  0  0  0  0  0
  142.6140   79.1430  217.7730 C   0  0  0  0  0  0  0  0  0  0  0  0
  142.4820   80.4600  217.4190 C   0  0  0  0  0  0  0  0  0  0  0  0
  141.9540   81.4290  218.2600 C   0  0  0  0  0  0  0  0  0  0  0  0
  141.8300   82.7450  217.8840 C   0  0  0  0  0  0  0  0  0  0  0  0
  141.2910   83.6760  218.7700 C   0  0  0  0  0  0  0  0  0  0  0  0
  141.1730   84.9860  218.3810 F   0  0  0  0  0  0  0  0  0  0  0  0
  140.8700   83.3060  220.0390 C   0  0  0  0  0  0  0  0  0  0  0  0
  141.0080   81.9770  220.3930 C   0  0  0  0  0  0  0  0  0  0  0  0
  141.5420   81.0380  219.5220 C   0  0  0  0  0  0  0  0  0  0  0  0
  141.6740   79.7390  219.8650 N   0  0  0  0  0  0  0  0  0  0  0  0
  139.1850   79.1130  222.5800 C   0  0  0  0  0  0  0  0  0  0  0  0
  140.5600   79.6130  222.9240 C   0  0  0  0  0  0  0  0  0  0  0  0
  140.6120   80.9010  223.4500 C   0  0  0  0  0  0  0  0  0  0  0  0
  141.8360   81.4330  223.7910 C   0  0  0  0  0  0  0  0  0  0  0  0
  142.9880   80.6860  223.6080 C   0  0  0  0  0  0  0  0  0  0  0  0
  142.9010   79.4000  223.0800 C   0  0  0  0  0  0  0  0  0  0  0  0
  141.6890   78.8510  222.7320 C   0  0  0  0  0  0  0  0  0  0  0  0
  138.0486   80.7804  221.4626 H   0  0  0  0  0  0  0  0  0  0  0  0
  139.1091   80.7308  220.0136 H   0  0  0  0  0  0  0  0  0  0  0  0
  137.5462   79.8452  220.0136 H   0  0  0  0  0  0  0  0  0  0  0  0
  137.8101   77.8987  219.9228 H   0  0  0  0  0  0  0  0  0  0  0  0
  139.2732   77.0355  220.6302 H   0  0  0  0  0  0  0  0  0  0  0  0
  137.2769   77.9316  222.5541 H   0  0  0  0  0  0  0  0  0  0  0  0
  136.7673   76.6277  221.3700 H   0  0  0  0  0  0  0  0  0  0  0  0
  138.0461   76.2181  223.7566 H   0  0  0  0  0  0  0  0  0  0  0  0
  137.9829   75.0926  222.3207 H   0  0  0  0  0  0  0  0  0  0  0  0
  139.1760   73.7550  222.7960 H   0  0  0  0  0  0  0  0  0  0  0  0
  142.3991   75.4154  221.5689 H   0  0  0  0  0  0  0  0  0  0  0  0
  141.3941   74.8950  220.1218 H   0  0  0  0  0  0  0  0  0  0  0  0
  140.7440   77.6010  220.8920 H   0  0  0  0  0  0  0  0  0  0  0  0
  143.0372   78.3976  217.0836 H   0  0  0  0  0  0  0  0  0  0  0  0
  142.8120   80.7652  216.4151 H   0  0  0  0  0  0  0  0  0  0  0  0
  142.1564   83.0638  216.8831 H   0  0  0  0  0  0  0  0  0  0  0  0
  140.4429   84.0417  220.7364 H   0  0  0  0  0  0  0  0  0  0  0  0
  140.6852   81.6545  221.3939 H   0  0  0  0  0  0  0  0  0  0  0  0
  138.4325   79.8199  222.9595 H   0  0  0  0  0  0  0  0  0  0  0  0
  139.0281   78.1268  223.0412 H   0  0  0  0  0  0  0  0  0  0  0  0
  139.6903   81.4846  223.5910 H   0  0  0  0  0  0  0  0  0  0  0  0
  141.8984   82.4491  224.2078 H   0  0  0  0  0  0  0  0  0  0  0  0
  143.9677   81.1067  223.8786 H   0  0  0  0  0  0  0  0  0  0  0  0
  143.8198   78.8119  222.9386 H   0  0  0  0  0  0  0  0  0  0  0  0
  141.6245   77.8357  222.3138 H   0  0  0  0  0  0  0  0  0  0  0  0
  1  2  1  0
  2  3  1  0
  3  4  1  0
  4  5  1  0
  5  6  1  0
  6  7  2  0
  7  8  1  0
  7  9  1  0
  9 10  1  0
 10 11  1  0
 11 12  2  0
 11 13  1  0
 13 14  2  0
 14 15  1  0
 15 16  2  0
 16 17  1  0
 17 18  2  0
 18 19  1  0
 18 20  1  0
 20 21  2  0
 21 22  1  0
 22 23  2  0
  2 24  1  0
 24 25  1  0
 25 26  2  0
 26 27  1  0
 27 28  2  0
 28 29  1  0
 29 30  2  0
 23 13  1  0
 30 25  1  0
 22 16  1  0
  1 31  1  0
  1 32  1  0
  1 33  1  0
  3 34  1  0
  3 35  1  0
  4 36  1  0
  4 37  1  0
  5 38  1  0
  5 39  1  0
  8 40  1  0
  9 41  1  0
  9 42  1  0
 10 43  1  0
 14 44  1  0
 15 45  1  0
 17 46  1  0
 20 47  1  0
 21 48  1  0
 24 49  1  0
 24 50  1  0
 26 51  1  0
 27 52  1  0
 28 53  1  0
 29 54  1  0
 30 55  1  0
M  END
>  <smiles>  (1) 
CN(CCCN=C(O)CNC(=O)c1ccc2cc(F)ccc2n1)Cc1ccccc1

>  <score_type>  (1) 
oracle

>  <origin>  (1) 
autodockgpu

>  <m_score__min__energy>  (1) 
-8.4000000000000004

>  <m_primary>  (1) 
energy

>  <rmsd>  (1) 
12.140055958044298

>  <m_score__min__rmsd>  (1) 
12.140055958044298

>  <meeko>  (1) 
{"free_energy": -5.44, "intermolecular_energy": -8.72, "internal_energy": -3.94, "cluster_size": 4, "cluster_id": 6, "rank_in_cluster": 3}

>  <energy>  (1) 
-8.4

>  <cluster_rmsd>  (1) 
0.0

>  <cluster>  (1) 
1

$$$$

     RDKit          3D

 55 57  0  0  0  0  0  0  0  0999 V2000
  142.3800   77.0660  218.9590 C   0  0  0  0  0  0  0  0  0  0  0  0
  141.4090   77.6740  219.8080 N   0  0  0  0  0  0  0  0  0  0  0  0
  140.0490   77.6060  219.3340 C   0  0  0  0  0  0  0  0  0  0  0  0
  139.0320   77.2630  220.3680 C   0  0  0  0  0  0  0  0  0  0  0  0
  139.2980   75.9630  221.0990 C   0  0  0  0  0  0  0  0  0  0  0  0
  140.0250   75.0170  220.3200 N   0  0  0  0  0  0  0  0  0  0  0  0
  141.0950   74.4790  220.8270 C   0  0  0  0  0  0  0  0  0  0  0  0
  141.8780   75.2980  221.6220 O   0  0  0  0  0  0  0  0  0  0  0  0
  141.4160   73.0560  220.5370 C   0  0  0  0  0  0  0  0  0  0  0  0
  141.2300   72.1640  221.6370 N   0  0  0  0  0  0  0  0  0  0  0  0
  140.2770   72.3440  222.6790 C   0  0  0  0  0  0  0  0  0  0  0  0
  139.5140   73.3560  222.6770 O   0  0  0  0  0  0  0  0  0  0  0  0
  140.1660   71.3600  223.7640 C   0  0  0  0  0  0  0  0  0  0  0  0
  139.5700   70.1290  223.5030 C   0  0  0  0  0  0  0  0  0  0  0  0
  139.4950   69.2530  224.5530 C   0  0  0  0  0  0  0  0  0  0  0  0
  139.9750   69.5380  225.8230 C   0  0  0  0  0  0  0  0  0  0  0  0
  139.8910   68.6430  226.8620 C   0  0  0  0  0  0  0  0  0  0  0  0
  140.3910   68.9820  228.1180 C   0  0  0  0  0  0  0  0  0  0  0  0
  140.3000   68.0790  229.1460 F   0  0  0  0  0  0  0  0  0  0  0  0
  140.9810   70.2160  228.3520 C   0  0  0  0  0  0  0  0  0  0  0  0
  141.0520   71.0980  227.2890 C   0  0  0  0  0  0  0  0  0  0  0  0
  140.5590   70.7750  226.0330 C   0  0  0  0  0  0  0  0  0  0  0  0
  140.6300   71.6350  224.9950 N   0  0  0  0  0  0  0  0  0  0  0  0
  141.7750   79.0460  220.0610 C   0  0  0  0  0  0  0  0  0  0  0  0
  141.8710   79.2750  221.5420 C   0  0  0  0  0  0  0  0  0  0  0  0
  142.4040   80.5030  221.9240 C   0  0  0  0  0  0  0  0  0  0  0  0
  142.5260   80.7900  223.2660 C   0  0  0  0  0  0  0  0  0  0  0  0
  142.1190   79.8610  224.2090 C   0  0  0  0  0  0  0  0  0  0  0  0
  141.5900   78.6410  223.7950 C   0  0  0  0  0  0  0  0  0  0  0  0
  141.4610   78.3350  222.4600 C   0  0  0  0  0  0  0  0  0  0  0  0
  143.1530   76.5820  219.5739 H   0  0  0  0  0  0  0  0  0  0  0  0
  141.8914   76.3123  218.3241 H   0  0  0  0  0  0  0  0  0  0  0  0
  142.8447   77.8347  218.3241 H   0  0  0  0  0  0  0  0  0  0  0  0
  139.7867   78.5871  218.9113 H   0  0  0  0  0  0  0  0  0  0  0  0
  140.0232   76.7887  218.5982 H   0  0  0  0  0  0  0  0  0  0  0  0
  139.0068   78.0756  221.1089 H   0  0  0  0  0  0  0  0  0  0  0  0
  138.0760   77.1362  219.8388 H   0  0  0  0  0  0  0  0  0  0  0  0
  139.8767   76.1854  222.0076 H   0  0  0  0  0  0  0  0  0  0  0  0
  138.3211   75.5131  221.3296 H   0  0  0  0  0  0  0  0  0  0  0  0
  142.1680   76.1900  221.2090 H   0  0  0  0  0  0  0  0  0  0  0  0
  140.7706   72.7209  219.7117 H   0  0  0  0  0  0  0  0  0  0  0  0
  142.4875   73.0243  220.2902 H   0  0  0  0  0  0  0  0  0  0  0  0
  141.8250   71.2830  221.7300 H   0  0  0  0  0  0  0  0  0  0  0  0
  139.1802   69.8737  222.5066 H   0  0  0  0  0  0  0  0  0  0  0  0
  139.0295   68.2714  224.3802 H   0  0  0  0  0  0  0  0  0  0  0  0
  139.4286   67.6578  226.7024 H   0  0  0  0  0  0  0  0  0  0  0  0
  141.3764   70.4821  229.3434 H   0  0  0  0  0  0  0  0  0  0  0  0
  141.5129   72.0847  227.4440 H   0  0  0  0  0  0  0  0  0  0  0  0
  142.7480   79.2578  219.5937 H   0  0  0  0  0  0  0  0  0  0  0  0
  141.0104   79.7131  219.6362 H   0  0  0  0  0  0  0  0  0  0  0  0
  142.7230   81.2333  221.1657 H   0  0  0  0  0  0  0  0  0  0  0  0
  142.9456   81.7546  223.5876 H   0  0  0  0  0  0  0  0  0  0  0  0
  142.2133   80.0860  225.2816 H   0  0  0  0  0  0  0  0  0  0  0  0
  141.2692   77.9081  224.5499 H   0  0  0  0  0  0  0  0  0  0  0  0
  141.0436   77.3700  222.1366 H   0  0  0  0  0  0  0  0  0  0  0  0
  1  2  1  0
  2  3  1  0
  3  4  1  0
  4  5  1  0
  5  6  1  0
  6  7  2  0
  7  8  1  0
  7  9  1  0
  9 10  1  0
 10 11  1  0
 11 12  2  0
 11 13  1  0
 13 14  2  0
 14 15  1  0
 15 16  2  0
 16 17  1  0
 17 18  2  0
 18 19  1  0
 18 20  1  0
 20 21  2  0
 21 22  1  0
 22 23  2  0
  2 24  1  0
 24 25  1  0
 25 26  2  0
 26 27  1  0
 27 28  2  0
 28 29  1  0
 29 30  2  0
 23 13  1  0
 30 25  1  0
 22 16  1  0
  1 31  1  0
  1 32  1  0
  1 33  1  0
  3 34  1  0
  3 35  1  0
  4 36  1  0
  4 37  1  0
  5 38  1  0
  5 39  1  0
  8 40  1  0
  9 41  1  0
  9 42  1  0
 10 43  1  0
 14 44  1  0
 15 45  1  0
 17 46  1  0
 20 47  1  0
 21 48  1  0
 24 49  1  0
 24 50  1  0
 26 51  1  0
 27 52  1  0
 28 53  1  0
 29 54  1  0
 30 55  1  0
M  END
>  <smiles>  (2) 
CN(CCCN=C(O)CNC(=O)c1ccc2cc(F)ccc2n1)Cc1ccccc1

>  <score_type>  (2) 
oracle

>  <origin>  (2) 
autodockgpu

>  <m_score__min__energy>  (2) 
-8.4000000000000004

>  <m_primary>  (2) 
energy

>  <rmsd>  (2) 
1.9737024666868124

>  <m_score__min__rmsd>  (2) 
1.9737024666868124

>  <meeko>  (2) 
{"free_energy": -7.18, "intermolecular_energy": -10.46, "internal_energy": -1.91, "cluster_size": 26, "cluster_id": 1, "rank_in_cluster": 23}

>  <energy>  (2) 
-8.27

>  <cluster_rmsd>  (2) 
0.51

>  <cluster>  (2) 
1

$$$$

     RDKit          3D

 55 57  0  0  0  0  0  0  0  0999 V2000
  137.1800   69.3480  224.7060 C   0  0  0  0  0  0  0  0  0  0  0  0
  138.5680   69.1210  224.4660 N   0  0  0  0  0  0  0  0  0  0  0  0
  138.8650   68.2360  223.3670 C   0  0  0  0  0  0  0  0  0  0  0  0
  139.4770   68.8880  222.1740 C   0  0  0  0  0  0  0  0  0  0  0  0
  138.8890   70.2420  221.8320 C   0  0  0  0  0  0  0  0  0  0  0  0
  139.7160   71.3310  222.2280 N   0  0  0  0  0  0  0  0  0  0  0  0
  139.2940   72.5450  222.0240 C   0  0  0  0  0  0  0  0  0  0  0  0
  138.1560   72.9250  222.7150 O   0  0  0  0  0  0  0  0  0  0  0  0
  140.0310   73.4370  221.0890 C   0  0  0  0  0  0  0  0  0  0  0  0
  140.2910   74.7480  221.5930 N   0  0  0  0  0  0  0  0  0  0  0  0
  139.2990   75.7400  221.8320 C   0  0  0  0  0  0  0  0  0  0  0  0
  138.0790   75.4920  221.5960 O   0  0  0  0  0  0  0  0  0  0  0  0
  139.6770   77.0590  222.3560 C   0  0  0  0  0  0  0  0  0  0  0  0
  138.6820   77.9060  222.8360 C   0  0  0  0  0  0  0  0  0  0  0  0
  139.0940   79.1230  223.3130 C   0  0  0  0  0  0  0  0  0  0  0  0
  140.4210   79.5270  223.3320 C   0  0  0  0  0  0  0  0  0  0  0  0
  140.8130   80.7520  223.8160 C   0  0  0  0  0  0  0  0  0  0  0  0
  142.1610   81.1060  223.8130 C   0  0  0  0  0  0  0  0  0  0  0  0
  142.5370   82.3310  224.2990 F   0  0  0  0  0  0  0  0  0  0  0  0
  143.1330   80.2420  223.3290 C   0  0  0  0  0  0  0  0  0  0  0  0
  142.7120   79.0170  222.8470 C   0  0  0  0  0  0  0  0  0  0  0  0
  141.3740   78.6500  222.8430 C   0  0  0  0  0  0  0  0  0  0  0  0
  140.9620   77.4530  222.3760 N   0  0  0  0  0  0  0  0  0  0  0  0
  139.1970   68.6390  225.6710 C   0  0  0  0  0  0  0  0  0  0  0  0
  139.9270   69.7680  226.3410 C   0  0  0  0  0  0  0  0  0  0  0  0
  140.3500   70.7910  225.4960 C   0  0  0  0  0  0  0  0  0  0  0  0
  141.0270   71.8640  226.0340 C   0  0  0  0  0  0  0  0  0  0  0  0
  141.2760   71.9100  227.3950 C   0  0  0  0  0  0  0  0  0  0  0  0
  140.8400   70.8700  228.2140 C   0  0  0  0  0  0  0  0  0  0  0  0
  140.1630   69.7900  227.6970 C   0  0  0  0  0  0  0  0  0  0  0  0
  136.9955   69.3782  225.7900 H   0  0  0  0  0  0  0  0  0  0  0  0
  136.8822   70.3068  224.2565 H   0  0  0  0  0  0  0  0  0  0  0  0
  136.5922   68.5340  224.2565 H   0  0  0  0  0  0  0  0  0  0  0  0
  139.5622   67.4660  223.7291 H   0  0  0  0  0  0  0  0  0  0  0  0
  137.8988   67.8313  223.0314 H   0  0  0  0  0  0  0  0  0  0  0  0
  140.5522   69.0182  222.3664 H   0  0  0  0  0  0  0  0  0  0  0  0
  139.2722   68.2304  221.3163 H   0  0  0  0  0  0  0  0  0  0  0  0
  138.7413   70.2936  220.7432 H   0  0  0  0  0  0  0  0  0  0  0  0
  137.9418   70.3347  222.3835 H   0  0  0  0  0  0  0  0  0  0  0  0
  138.0830   73.9180  222.9580 H   0  0  0  0  0  0  0  0  0  0  0  0
  140.9954   72.9635  220.8527 H   0  0  0  0  0  0  0  0  0  0  0  0
  139.3841   73.5659  220.2087 H   0  0  0  0  0  0  0  0  0  0  0  0
  141.2870   75.0550  221.8210 H   0  0  0  0  0  0  0  0  0  0  0  0
  137.6215   77.6140  222.8326 H   0  0  0  0  0  0  0  0  0  0  0  0
  138.3326   79.8156  223.7011 H   0  0  0  0  0  0  0  0  0  0  0  0
  140.0617   81.4542  224.2064 H   0  0  0  0  0  0  0  0  0  0  0  0
  144.1970   80.5211  223.3289 H   0  0  0  0  0  0  0  0  0  0  0  0
  143.4599   78.3121  222.4549 H   0  0  0  0  0  0  0  0  0  0  0  0
  138.4293   68.2433  226.3522 H   0  0  0  0  0  0  0  0  0  0  0  0
  139.9099   67.8403  225.4182 H   0  0  0  0  0  0  0  0  0  0  0  0
  140.1469   70.7433  224.4160 H   0  0  0  0  0  0  0  0  0  0  0  0
  141.3689   72.6823  225.3833 H   0  0  0  0  0  0  0  0  0  0  0  0
  141.8162   72.7645  227.8286 H   0  0  0  0  0  0  0  0  0  0  0  0
  141.0411   70.9137  229.2946 H   0  0  0  0  0  0  0  0  0  0  0  0
  139.8212   68.9704  228.3462 H   0  0  0  0  0  0  0  0  0  0  0  0
  1  2  1  0
  2  3  1  0
  3  4  1  0
  4  5  1  0
  5  6  1  0
  6  7  2  0
  7  8  1  0
  7  9  1  0
  9 10  1  0
 10 11  1  0
 11 12  2  0
 11 13  1  0
 13 14  2  0
 14 15  1  0
 15 16  2  0
 16 17  1  0
 17 18  2  0
 18 19  1  0
 18 20  1  0
 20 21  2  0
 21 22  1  0
 22 23  2  0
  2 24  1  0
 24 25  1  0
 25 26  2  0
 26 27  1  0
 27 28  2  0
 28 29  1  0
 29 30  2  0
 23 13  1  0
 30 25  1  0
 22 16  1  0
  1 31  1  0
  1 32  1  0
  1 33  1  0
  3 34  1  0
  3 35  1  0
  4 36  1  0
  4 37  1  0
  5 38  1  0
  5 39  1  0
  8 40  1  0
  9 41  1  0
  9 42  1  0
 10 43  1  0
 14 44  1  0
 15 45  1  0
 17 46  1  0
 20 47  1  0
 21 48  1  0
 24 49  1  0
 24 50  1  0
 26 51  1  0
 27 52  1  0
 28 53  1  0
 29 54  1  0
 30 55  1  0
M  END
>  <smiles>  (3) 
CN(CCCN=C(O)CNC(=O)c1ccc2cc(F)ccc2n1)Cc1ccccc1

>  <score_type>  (3) 
oracle

>  <origin>  (3) 
autodockgpu

>  <m_score__min__energy>  (3) 
-8.4000000000000004

>  <m_primary>  (3) 
energy

>  <rmsd>  (3) 
8.90192984068751

>  <m_score__min__rmsd>  (3) 
8.90192984068751

>  <meeko>  (3) 
{"free_energy": -7.13, "intermolecular_energy": -10.41, "internal_energy": -2.26, "cluster_size": 10, "cluster_id": 2, "rank_in_cluster": 10}

>  <energy>  (3) 
-8.0

>  <cluster_rmsd>  (3) 
1.09

>  <cluster>  (3) 
1

$$$$

     RDKit          3D

 55 57  0  0  0  0  0  0  0  0999 V2000
  142.6040   79.2940  218.1870 C   0  0  0  0  0  0  0  0  0  0  0  0
  142.2010   78.6870  219.4130 N   0  0  0  0  0  0  0  0  0  0  0  0
  141.7700   77.3150  219.3080 C   0  0  0  0  0  0  0  0  0  0  0  0
  140.8060   76.8690  220.3540 C   0  0  0  0  0  0  0  0  0  0  0  0
  139.4960   76.3380  219.8100 C   0  0  0  0  0  0  0  0  0  0  0  0
  139.2970   74.9530  220.0740 N   0  0  0  0  0  0  0  0  0  0  0  0
  139.6950   74.4680  221.2140 C   0  0  0  0  0  0  0  0  0  0  0  0
  139.0330   74.9250  222.3400 O   0  0  0  0  0  0  0  0  0  0  0  0
  140.8030   73.4780  221.2500 C   0  0  0  0  0  0  0  0  0  0  0  0
  140.7450   72.5530  222.3380 N   0  0  0  0  0  0  0  0  0  0  0  0
  139.5620   71.9070  222.7940 C   0  0  0  0  0  0  0  0  0  0  0  0
  138.4520   72.1370  222.2290 O   0  0  0  0  0  0  0  0  0  0  0  0
  139.6160   70.9680  223.9220 C   0  0  0  0  0  0  0  0  0  0  0  0
  138.9470   69.7510  223.8220 C   0  0  0  0  0  0  0  0  0  0  0  0
  139.0320   68.9160  224.9040 C   0  0  0  0  0  0  0  0  0  0  0  0
  139.7360   69.2290  226.0580 C   0  0  0  0  0  0  0  0  0  0  0  0
  139.8100   68.3760  227.1320 C   0  0  0  0  0  0  0  0  0  0  0  0
  140.5340   68.7410  228.2660 C   0  0  0  0  0  0  0  0  0  0  0  0
  140.5990   67.8800  229.3300 F   0  0  0  0  0  0  0  0  0  0  0  0
  141.1920   69.9610  228.3400 C   0  0  0  0  0  0  0  0  0  0  0  0
  141.1010   70.8010  227.2460 C   0  0  0  0  0  0  0  0  0  0  0  0
  140.3850   70.4510  226.1110 C   0  0  0  0  0  0  0  0  0  0  0  0
  140.2970   71.2690  225.0410 N   0  0  0  0  0  0  0  0  0  0  0  0
  141.1700   79.4820  220.0330 C   0  0  0  0  0  0  0  0  0  0  0  0
  141.6300   79.9300  221.3910 C   0  0  0  0  0  0  0  0  0  0  0  0
  141.4270   81.2770  221.6760 C   0  0  0  0  0  0  0  0  0  0  0  0
  141.8220   81.7670  222.9020 C   0  0  0  0  0  0  0  0  0  0  0  0
  142.4100   80.9190  223.8260 C   0  0  0  0  0  0  0  0  0  0  0  0
  142.5990   79.5760  223.5100 C   0  0  0  0  0  0  0  0  0  0  0  0
  142.2120   79.0670  222.2920 C   0  0  0  0  0  0  0  0  0  0  0  0
  143.2007   80.1928  218.4016 H   0  0  0  0  0  0  0  0  0  0  0  0
  143.2093   78.5819  217.6069 H   0  0  0  0  0  0  0  0  0  0  0  0
  141.7128   79.5755  217.6069 H   0  0  0  0  0  0  0  0  0  0  0  0
  141.2916   77.1831  218.3263 H   0  0  0  0  0  0  0  0  0  0  0  0
  142.6725   76.7010  219.4440 H   0  0  0  0  0  0  0  0  0  0  0  0
  141.2823   76.0719  220.9438 H   0  0  0  0  0  0  0  0  0  0  0  0
  140.5602   77.7572  220.9545 H   0  0  0  0  0  0  0  0  0  0  0  0
  138.6721   76.9031  220.2702 H   0  0  0  0  0  0  0  0  0  0  0  0
  139.5231   76.4609  218.7172 H   0  0  0  0  0  0  0  0  0  0  0  0
  138.5520   74.2170  222.9030 H   0  0  0  0  0  0  0  0  0  0  0  0
  140.7801   72.9045  220.3116 H   0  0  0  0  0  0  0  0  0  0  0  0
  141.7299   74.0552  221.3833 H   0  0  0  0  0  0  0  0  0  0  0  0
  141.6270   72.2950  222.8800 H   0  0  0  0  0  0  0  0  0  0  0  0
  138.3798   69.4747  222.9209 H   0  0  0  0  0  0  0  0  0  0  0  0
  138.5150   67.9462  224.8558 H   0  0  0  0  0  0  0  0  0  0  0  0
  139.2972   67.4034  227.0973 H   0  0  0  0  0  0  0  0  0  0  0  0
  141.7638   70.2482  229.2347 H   0  0  0  0  0  0  0  0  0  0  0  0
  141.6111   71.7751  227.2765 H   0  0  0  0  0  0  0  0  0  0  0  0
  140.9607   80.3627  219.4080 H   0  0  0  0  0  0  0  0  0  0  0  0
  140.2556   78.8794  220.1365 H   0  0  0  0  0  0  0  0  0  0  0  0
  140.9585   81.9404  220.9341 H   0  0  0  0  0  0  0  0  0  0  0  0
  141.6707   82.8288  223.1462 H   0  0  0  0  0  0  0  0  0  0  0  0
  142.7266   81.3051  224.8061 H   0  0  0  0  0  0  0  0  0  0  0  0
  143.0670   78.9090  224.2489 H   0  0  0  0  0  0  0  0  0  0  0  0
  142.3626   78.0055  222.0461 H   0  0  0  0  0  0  0  0  0  0  0  0
  1  2  1  0
  2  3  1  0
  3  4  1  0
  4  5  1  0
  5  6  1  0
  6  7  2  0
  7  8  1  0
  7  9  1  0
  9 10  1  0
 10 11  1  0
 11 12  2  0
 11 13  1  0
 13 14  2  0
 14 15  1  0
 15 16  2  0
 16 17  1  0
 17 18  2  0
 18 19  1  0
 18 20  1  0
 20 21  2  0
 21 22  1  0
 22 23  2  0
  2 24  1  0
 24 25  1  0
 25 26  2  0
 26 27  1  0
 27 28  2  0
 28 29  1  0
 29 30  2  0
 23 13  1  0
 30 25  1  0
 22 16  1  0
  1 31  1  0
  1 32  1  0
  1 33  1  0
  3 34  1  0
  3 35  1  0
  4 36  1  0
  4 37  1  0
  5 38  1  0
  5 39  1  0
  8 40  1  0
  9 41  1  0
  9 42  1  0
 10 43  1  0
 14 44  1  0
 15 45  1  0
 17 46  1  0
 20 47  1  0
 21 48  1  0
 24 49  1  0
 24 50  1  0
 26 51  1  0
 27 52  1  0
 28 53  1  0
 29 54  1  0
 30 55  1  0
M  END
>  <smiles>  (4) 
CN(CCCN=C(O)CNC(=O)c1ccc2cc(F)ccc2n1)Cc1ccccc1

>  <score_type>  (4) 
oracle

>  <origin>  (4) 
autodockgpu

>  <m_score__min__energy>  (4) 
-8.4000000000000004

>  <m_primary>  (4) 
energy

>  <rmsd>  (4) 
1.584361857126244

>  <m_score__min__rmsd>  (4) 
1.584361857126244

>  <meeko>  (4) 
{"free_energy": -7.2, "intermolecular_energy": -10.48, "internal_energy": -1.8, "cluster_size": 26, "cluster_id": 1, "rank_in_cluster": 22}

>  <energy>  (4) 
-7.9

>  <cluster_rmsd>  (4) 
0.89

>  <cluster>  (4) 
1

$$$$

     RDKit          3D

 55 57  0  0  0  0  0  0  0  0999 V2000
  138.7800   79.7460  219.7870 C   0  0  0  0  0  0  0  0  0  0  0  0
  138.8800   78.7770  220.8280 N   0  0  0  0  0  0  0  0  0  0  0  0
  137.9950   77.6450  220.7030 C   0  0  0  0  0  0  0  0  0  0  0  0
  137.5200   77.0640  221.9900 C   0  0  0  0  0  0  0  0  0  0  0  0
  138.1530   75.7350  222.3480 C   0  0  0  0  0  0  0  0  0  0  0  0
  139.5680   75.8070  222.4930 N   0  0  0  0  0  0  0  0  0  0  0  0
  140.3000   74.8650  221.9730 C   0  0  0  0  0  0  0  0  0  0  0  0
  139.9630   73.5660  222.3130 O   0  0  0  0  0  0  0  0  0  0  0  0
  141.4260   75.2180  221.0680 C   0  0  0  0  0  0  0  0  0  0  0  0
  141.3600   76.5330  220.5150 N   0  0  0  0  0  0  0  0  0  0  0  0
  142.3580   77.1180  219.6860 C   0  0  0  0  0  0  0  0  0  0  0  0
  143.4030   76.4650  219.3880 O   0  0  0  0  0  0  0  0  0  0  0  0
  142.1880   78.4810  219.1650 C   0  0  0  0  0  0  0  0  0  0  0  0
  142.3520   78.7100  217.8020 C   0  0  0  0  0  0  0  0  0  0  0  0
  142.1810   80.0000  217.3740 C   0  0  0  0  0  0  0  0  0  0  0  0
  141.8620   81.0500  218.2220 C   0  0  0  0  0  0  0  0  0  0  0  0
  141.6940   82.3380  217.7720 C   0  0  0  0  0  0  0  0  0  0  0  0
  141.3720   83.3550  218.6690 C   0  0  0  0  0  0  0  0  0  0  0  0
  141.2070   84.6350  218.2060 F   0  0  0  0  0  0  0  0  0  0  0  0
  141.2140   83.1000  220.0240 C   0  0  0  0  0  0  0  0  0  0  0  0
  141.3900   81.7970  220.4510 C   0  0  0  0  0  0  0  0  0  0  0  0
  141.7100   80.7730  219.5700 C   0  0  0  0  0  0  0  0  0  0  0  0
  141.8790   79.5000  219.9850 N   0  0  0  0  0  0  0  0  0  0  0  0
  138.6870   79.4150  222.1070 C   0  0  0  0  0  0  0  0  0  0  0  0
  140.0220   79.6850  222.7400 C   0  0  0  0  0  0  0  0  0  0  0  0
  140.9010   78.6050  222.7630 C   0  0  0  0  0  0  0  0  0  0  0  0
  142.1470   78.7710  223.3270 C   0  0  0  0  0  0  0  0  0  0  0  0
  142.5050   79.9990  223.8580 C   0  0  0  0  0  0  0  0  0  0  0  0
  141.6030   81.0600  223.8190 C   0  0  0  0  0  0  0  0  0  0  0  0
  140.3540   80.9150  223.2610 C   0  0  0  0  0  0  0  0  0  0  0  0
  138.6765   80.7485  220.2279 H   0  0  0  0  0  0  0  0  0  0  0  0
  139.6865   79.7108  219.1650 H   0  0  0  0  0  0  0  0  0  0  0  0
  137.8997   79.5264  219.1650 H   0  0  0  0  0  0  0  0  0  0  0  0
  137.1132   77.9647  220.1283 H   0  0  0  0  0  0  0  0  0  0  0  0
  138.5794   76.8546  220.2094 H   0  0  0  0  0  0  0  0  0  0  0  0
  137.7447   77.7799  222.7944 H   0  0  0  0  0  0  0  0  0  0  0  0
  136.4426   76.8767  221.8713 H   0  0  0  0  0  0  0  0  0  0  0  0
  137.7217   75.3873  223.2983 H   0  0  0  0  0  0  0  0  0  0  0  0
  137.9447   75.0409  221.5204 H   0  0  0  0  0  0  0  0  0  0  0  0
  139.3110   73.4560  223.0950 H   0  0  0  0  0  0  0  0  0  0  0  0
  142.3629   75.1331  221.6382 H   0  0  0  0  0  0  0  0  0  0  0  0
  141.3705   74.5216  220.2184 H   0  0  0  0  0  0  0  0  0  0  0  0
  140.5210   77.1630  220.7080 H   0  0  0  0  0  0  0  0  0  0  0  0
  142.6056   77.8977  217.1050 H   0  0  0  0  0  0  0  0  0  0  0  0
  142.3030   80.2142  216.3020 H   0  0  0  0  0  0  0  0  0  0  0  0
  141.8138   82.5663  216.7027 H   0  0  0  0  0  0  0  0  0  0  0  0
  140.9587   83.9034  220.7307 H   0  0  0  0  0  0  0  0  0  0  0  0
  141.2731   81.5649  221.5199 H   0  0  0  0  0  0  0  0  0  0  0  0
  138.1499   80.3645  221.9655 H   0  0  0  0  0  0  0  0  0  0  0  0
  138.0989   78.7541  222.7607 H   0  0  0  0  0  0  0  0  0  0  0  0
  140.6051   77.6347  222.3376 H   0  0  0  0  0  0  0  0  0  0  0  0
  142.8558   77.9303  223.3555 H   0  0  0  0  0  0  0  0  0  0  0  0
  143.4987   80.1362  224.3093 H   0  0  0  0  0  0  0  0  0  0  0  0
  141.8951   82.0323  224.2425 H   0  0  0  0  0  0  0  0  0  0  0  0
  139.6438   81.7545  223.2321 H   0  0  0  0  0  0  0  0  0  0  0  0
  1  2  1  0
  2  3  1  0
  3  4  1  0
  4  5  1  0
  5  6  1  0
  6  7  2  0
  7  8  1  0
  7  9  1  0
  9 10  1  0
 10 11  1  0
 11 12  2  0
 11 13  1  0
 13 14  2  0
 14 15  1  0
 15 16  2  0
 16 17  1  0
 17 18  2  0
 18 19  1  0
 18 20  1  0
 20 21  2  0
 21 22  1  0
 22 23  2  0
  2 24  1  0
 24 25  1  0
 25 26  2  0
 26 27  1  0
 27 28  2  0
 28 29  1  0
 29 30  2  0
 23 13  1  0
 30 25  1  0
 22 16  1  0
  1 31  1  0
  1 32  1  0
  1 33  1  0
  3 34  1  0
  3 35  1  0
  4 36  1  0
  4 37  1  0
  5 38  1  0
  5 39  1  0
  8 40  1  0
  9 41  1  0
  9 42  1  0
 10 43  1  0
 14 44  1  0
 15 45  1  0
 17 46  1  0
 20 47  1  0
 21 48  1  0
 24 49  1  0
 24 50  1  0
 26 51  1  0
 27 52  1  0
 28 53  1  0
 29 54  1  0
 30 55  1  0
M  END
>  <smiles>  (5) 
CN(CCCN=C(O)CNC(=O)c1ccc2cc(F)ccc2n1)Cc1ccccc1

>  <score_type>  (5) 
oracle

>  <origin>  (5) 
autodockgpu

>  <m_score__min__energy>  (5) 
-8.4000000000000004

>  <m_primary>  (5) 
energy

>  <rmsd>  (5) 
11.88437888782168

>  <m_score__min__rmsd>  (5) 
11.88437888782168

>  <meeko>  (5) 
{"free_energy": -5.18, "intermolecular_energy": -8.46, "internal_energy": -3.86, "cluster_size": 4, "cluster_id": 6, "rank_in_cluster": 4}

>  <energy>  (5) 
-7.86

>  <cluster_rmsd>  (5) 
1.05

>  <cluster>  (5) 
1

$$$$

     RDKit          3D

 55 57  0  0  0  0  0  0  0  0999 V2000
  137.6270   80.4630  222.2970 C   0  0  0  0  0  0  0  0  0  0  0  0
  138.6060   79.4490  222.0830 N   0  0  0  0  0  0  0  0  0  0  0  0
  138.1310   78.2710  221.4000 C   0  0  0  0  0  0  0  0  0  0  0  0
  137.3320   77.3310  222.2360 C   0  0  0  0  0  0  0  0  0  0  0  0
  138.0150   76.0080  222.5170 C   0  0  0  0  0  0  0  0  0  0  0  0
  139.4350   76.1080  222.5680 N   0  0  0  0  0  0  0  0  0  0  0  0
  140.1490   75.1980  221.9720 C   0  0  0  0  0  0  0  0  0  0  0  0
  139.9180   73.8870  222.3540 O   0  0  0  0  0  0  0  0  0  0  0  0
  141.1450   75.5960  220.9420 C   0  0  0  0  0  0  0  0  0  0  0  0
  141.1240   76.9810  220.5930 N   0  0  0  0  0  0  0  0  0  0  0  0
  141.9850   77.5920  219.6390 C   0  0  0  0  0  0  0  0  0  0  0  0
  142.8520   76.9000  219.0270 O   0  0  0  0  0  0  0  0  0  0  0  0
  141.8770   79.0280  219.3520 C   0  0  0  0  0  0  0  0  0  0  0  0
  142.5340   79.5480  218.2390 C   0  0  0  0  0  0  0  0  0  0  0  0
  142.3970   80.8930  218.0220 C   0  0  0  0  0  0  0  0  0  0  0  0
  141.6520   81.7280  218.8420 C   0  0  0  0  0  0  0  0  0  0  0  0
  141.5270   83.0760  218.6050 C   0  0  0  0  0  0  0  0  0  0  0  0
  140.7650   83.8680  219.4610 C   0  0  0  0  0  0  0  0  0  0  0  0
  140.6480   85.2110  219.2120 F   0  0  0  0  0  0  0  0  0  0  0  0
  140.1190   83.3250  220.5640 C   0  0  0  0  0  0  0  0  0  0  0  0
  140.2630   81.9680  220.7800 C   0  0  0  0  0  0  0  0  0  0  0  0
  141.0180   81.1660  219.9360 C   0  0  0  0  0  0  0  0  0  0  0  0
  141.1560   79.8400  220.1450 N   0  0  0  0  0  0  0  0  0  0  0  0
  139.2090   79.0820  223.3390 C   0  0  0  0  0  0  0  0  0  0  0  0
  140.6210   79.5960  223.3880 C   0  0  0  0  0  0  0  0  0  0  0  0
  140.7640   80.9060  223.8380 C   0  0  0  0  0  0  0  0  0  0  0  0
  142.0270   81.4520  223.9110 C   0  0  0  0  0  0  0  0  0  0  0  0
  143.1270   80.6960  223.5390 C   0  0  0  0  0  0  0  0  0  0  0  0
  142.9490   79.3890  223.0940 C   0  0  0  0  0  0  0  0  0  0  0  0
  141.6970   78.8250  223.0120 C   0  0  0  0  0  0  0  0  0  0  0  0
  137.4833   80.6118  223.3774 H   0  0  0  0  0  0  0  0  0  0  0  0
  137.9673   81.4036  221.8394 H   0  0  0  0  0  0  0  0  0  0  0  0
  136.6750   80.1560  221.8394 H   0  0  0  0  0  0  0  0  0  0  0  0
  137.5021   78.5962  220.5582 H   0  0  0  0  0  0  0  0  0  0  0  0
  139.0284   77.7157  221.0896 H   0  0  0  0  0  0  0  0  0  0  0  0
  137.1212   77.8205  223.1982 H   0  0  0  0  0  0  0  0  0  0  0  0
  136.4213   77.0990  221.6643 H   0  0  0  0  0  0  0  0  0  0  0  0
  137.6565   75.6284  223.4852 H   0  0  0  0  0  0  0  0  0  0  0  0
  137.7652   75.3292  221.6882 H   0  0  0  0  0  0  0  0  0  0  0  0
  139.1540   73.7360  223.0200 H   0  0  0  0  0  0  0  0  0  0  0  0
  142.1478   75.3544  221.3241 H   0  0  0  0  0  0  0  0  0  0  0  0
  140.8841   75.0421  220.0282 H   0  0  0  0  0  0  0  0  0  0  0  0
  140.4310   77.6480  221.0540 H   0  0  0  0  0  0  0  0  0  0  0  0
  143.1314   78.9115  217.5697 H   0  0  0  0  0  0  0  0  0  0  0  0
  142.9044   81.3347  217.1517 H   0  0  0  0  0  0  0  0  0  0  0  0
  142.0293   83.5301  217.7382 H   0  0  0  0  0  0  0  0  0  0  0  0
  139.5165   83.9506  221.2390 H   0  0  0  0  0  0  0  0  0  0  0  0
  139.7643   81.5097  221.6468 H   0  0  0  0  0  0  0  0  0  0  0  0
  138.6305   79.5209  224.1653 H   0  0  0  0  0  0  0  0  0  0  0  0
  139.2148   77.9863  223.4359 H   0  0  0  0  0  0  0  0  0  0  0  0
  139.8827   81.4956  224.1306 H   0  0  0  0  0  0  0  0  0  0  0  0
  142.1616   82.4852  224.2636 H   0  0  0  0  0  0  0  0  0  0  0  0
  144.1374   81.1271  223.5951 H   0  0  0  0  0  0  0  0  0  0  0  0
  143.8276   78.7950  222.8019 H   0  0  0  0  0  0  0  0  0  0  0  0
  141.5606   77.7925  222.6578 H   0  0  0  0  0  0  0  0  0  0  0  0
  1  2  1  0
  2  3  1  0
  3  4  1  0
  4  5  1  0
  5  6  1  0
  6  7  2  0
  7  8  1  0
  7  9  1  0
  9 10  1  0
 10 11  1  0
 11 12  2  0
 11 13  1  0
 13 14  2  0
 14 15  1  0
 15 16  2  0
 16 17  1  0
 17 18  2  0
 18 19  1  0
 18 20  1  0
 20 21  2  0
 21 22  1  0
 22 23  2  0
  2 24  1  0
 24 25  1  0
 25 26  2  0
 26 27  1  0
 27 28  2  0
 28 29  1  0
 29 30  2  0
 23 13  1  0
 30 25  1  0
 22 16  1  0
  1 31  1  0
  1 32  1  0
  1 33  1  0
  3 34  1  0
  3 35  1  0
  4 36  1  0
  4 37  1  0
  5 38  1  0
  5 39  1  0
  8 40  1  0
  9 41  1  0
  9 42  1  0
 10 43  1  0
 14 44  1  0
 15 45  1  0
 17 46  1  0
 20 47  1  0
 21 48  1  0
 24 49  1  0
 24 50  1  0
 26 51  1  0
 27 52  1  0
 28 53  1  0
 29 54  1  0
 30 55  1  0
M  END
>  <smiles>  (6) 
CN(CCCN=C(O)CNC(=O)c1ccc2cc(F)ccc2n1)Cc1ccccc1

>  <score_type>  (6) 
oracle

>  <origin>  (6) 
autodockgpu

>  <m_score__min__energy>  (6) 
-8.4000000000000004

>  <m_primary>  (6) 
energy

>  <rmsd>  (6) 
12.05743693635194

>  <m_score__min__rmsd>  (6) 
12.05743693635194

>  <meeko>  (6) 
{"free_energy": -5.71, "intermolecular_energy": -8.99, "internal_energy": -3.78, "cluster_size": 4, "cluster_id": 6, "rank_in_cluster": 1}

>  <energy>  (6) 
-7.8

>  <cluster_rmsd>  (6) 
1.4

>  <cluster>  (6) 
1

$$$$

     RDKit          3D

 55 57  0  0  0  0  0  0  0  0999 V2000
  137.0340   79.2160  223.1290 C   0  0  0  0  0  0  0  0  0  0  0  0
  138.0570   80.0950  222.6660 N   0  0  0  0  0  0  0  0  0  0  0  0
  138.9000   79.5610  221.6250 C   0  0  0  0  0  0  0  0  0  0  0  0
  138.2040   78.7170  220.6130 C   0  0  0  0  0  0  0  0  0  0  0  0
  138.6950   77.2860  220.5490 C   0  0  0  0  0  0  0  0  0  0  0  0
  139.5090   76.9190  221.6580 N   0  0  0  0  0  0  0  0  0  0  0  0
  140.0690   75.7440  221.6640 C   0  0  0  0  0  0  0  0  0  0  0  0
  141.4150   75.7070  221.9880 O   0  0  0  0  0  0  0  0  0  0  0  0
  139.2640   74.5390  221.3340 C   0  0  0  0  0  0  0  0  0  0  0  0
  139.2490   73.5330  222.3490 N   0  0  0  0  0  0  0  0  0  0  0  0
  140.3250   72.6450  222.6290 C   0  0  0  0  0  0  0  0  0  0  0  0
  141.3980   72.7100  221.9570 O   0  0  0  0  0  0  0  0  0  0  0  0
  140.2060   71.6470  223.7000 C   0  0  0  0  0  0  0  0  0  0  0  0
  139.6030   70.4230  223.4200 C   0  0  0  0  0  0  0  0  0  0  0  0
  139.5200   69.5320  224.4570 C   0  0  0  0  0  0  0  0  0  0  0  0
  139.9990   69.7960  225.7320 C   0  0  0  0  0  0  0  0  0  0  0  0
  139.9070   68.8860  226.7580 C   0  0  0  0  0  0  0  0  0  0  0  0
  140.4060   69.2030  228.0200 C   0  0  0  0  0  0  0  0  0  0  0  0
  140.3080   68.2860  229.0340 F   0  0  0  0  0  0  0  0  0  0  0  0
  141.0040   70.4310  228.2720 C   0  0  0  0  0  0  0  0  0  0  0  0
  141.0820   71.3270  227.2230 C   0  0  0  0  0  0  0  0  0  0  0  0
  140.5900   71.0260  225.9620 C   0  0  0  0  0  0  0  0  0  0  0  0
  140.6690   71.9000  224.9360 N   0  0  0  0  0  0  0  0  0  0  0  0
  138.8640   80.5310  223.7780 C   0  0  0  0  0  0  0  0  0  0  0  0
  140.3170   80.3410  223.4500 C   0  0  0  0  0  0  0  0  0  0  0  0
  140.8610   79.1170  223.8340 C   0  0  0  0  0  0  0  0  0  0  0  0
  142.1890   78.8640  223.5680 C   0  0  0  0  0  0  0  0  0  0  0  0
  142.9590   79.8220  222.9290 C   0  0  0  0  0  0  0  0  0  0  0  0
  142.3850   81.0360  222.5580 C   0  0  0  0  0  0  0  0  0  0  0  0
  141.0610   81.3080  222.8140 C   0  0  0  0  0  0  0  0  0  0  0  0
  137.0264   79.2094  224.2290 H   0  0  0  0  0  0  0  0  0  0  0  0
  136.0579   79.5615  222.7576 H   0  0  0  0  0  0  0  0  0  0  0  0
  137.2286   78.1990  222.7576 H   0  0  0  0  0  0  0  0  0  0  0  0
  139.3675   80.4064  221.0990 H   0  0  0  0  0  0  0  0  0  0  0  0
  139.6225   78.9008  222.1270 H   0  0  0  0  0  0  0  0  0  0  0  0
  137.1313   78.7023  220.8561 H   0  0  0  0  0  0  0  0  0  0  0  0
  138.4145   79.1658  219.6310 H   0  0  0  0  0  0  0  0  0  0  0  0
  137.8214   76.6182  220.5212 H   0  0  0  0  0  0  0  0  0  0  0  0
  139.3157   77.1950  219.6454 H   0  0  0  0  0  0  0  0  0  0  0  0
  141.8890   74.8090  221.8530 H   0  0  0  0  0  0  0  0  0  0  0  0
  138.2271   74.8588  221.1535 H   0  0  0  0  0  0  0  0  0  0  0  0
  139.7366   74.0824  220.4518 H   0  0  0  0  0  0  0  0  0  0  0  0
  138.3910   73.3970  222.9680 H   0  0  0  0  0  0  0  0  0  0  0  0
  139.2140   70.1845  222.4191 H   0  0  0  0  0  0  0  0  0  0  0  0
  139.0489   68.5559  224.2690 H   0  0  0  0  0  0  0  0  0  0  0  0
  139.4388   67.9061  226.5827 H   0  0  0  0  0  0  0  0  0  0  0  0
  141.3999   70.6805  229.2675 H   0  0  0  0  0  0  0  0  0  0  0  0
  141.5484   72.3086  227.3934 H   0  0  0  0  0  0  0  0  0  0  0  0
  138.6695   81.5953  223.9766 H   0  0  0  0  0  0  0  0  0  0  0  0
  138.6097   79.9381  224.6690 H   0  0  0  0  0  0  0  0  0  0  0  0
  140.2398   78.3644  224.3416 H   0  0  0  0  0  0  0  0  0  0  0  0
  142.6368   77.9034  223.8624 H   0  0  0  0  0  0  0  0  0  0  0  0
  144.0199   79.6249  222.7153 H   0  0  0  0  0  0  0  0  0  0  0  0
  143.0025   81.7918  222.0505 H   0  0  0  0  0  0  0  0  0  0  0  0
  140.6115   82.2679  222.5196 H   0  0  0  0  0  0  0  0  0  0  0  0
  1  2  1  0
  2  3  1  0
  3  4  1  0
  4  5  1  0
  5  6  1  0
  6  7  2  0
  7  8  1  0
  7  9  1  0
  9 10  1  0
 10 11  1  0
 11 12  2  0
 11 13  1  0
 13 14  2  0
 14 15  1  0
 15 16  2  0
 16 17  1  0
 17 18  2  0
 18 19  1  0
 18 20  1  0
 20 21  2  0
 21 22  1  0
 22 23  2  0
  2 24  1  0
 24 25  1  0
 25 26  2  0
 26 27  1  0
 27 28  2  0
 28 29  1  0
 29 30  2  0
 23 13  1  0
 30 25  1  0
 22 16  1  0
  1 31  1  0
  1 32  1  0
  1 33  1  0
  3 34  1  0
  3 35  1  0
  4 36  1  0
  4 37  1  0
  5 38  1  0
  5 39  1  0
  8 40  1  0
  9 41  1  0
  9 42  1  0
 10 43  1  0
 14 44  1  0
 15 45  1  0
 17 46  1  0
 20 47  1  0
 21 48  1  0
 24 49  1  0
 24 50  1  0
 26 51  1  0
 27 52  1  0
 28 53  1  0
 29 54  1  0
 30 55  1  0
M  END
>  <smiles>  (7) 
CN(CCCN=C(O)CNC(=O)c1ccc2cc(F)ccc2n1)Cc1ccccc1

>  <score_type>  (7) 
oracle

>  <origin>  (7) 
autodockgpu

>  <m_score__min__energy>  (7) 
-8.4000000000000004

>  <m_primary>  (7) 
energy

>  <rmsd>  (7) 
1.3521513140424166

>  <m_score__min__rmsd>  (7) 
1.3521513140424166

>  <meeko>  (7) 
{"free_energy": -7.23, "intermolecular_energy": -10.51, "internal_energy": -1.84, "cluster_size": 26, "cluster_id": 1, "rank_in_cluster": 21}

>  <energy>  (7) 
-7.79

>  <cluster_rmsd>  (7) 
1.16

>  <cluster>  (7) 
1

$$$$

     RDKit          3D

 55 57  0  0  0  0  0  0  0  0999 V2000
  137.1870   69.2650  224.9380 C   0  0  0  0  0  0  0  0  0  0  0  0
  138.5670   69.4550  224.6310 N   0  0  0  0  0  0  0  0  0  0  0  0
  139.0010   68.8940  223.3760 C   0  0  0  0  0  0  0  0  0  0  0  0
  138.7020   69.7210  222.1730 C   0  0  0  0  0  0  0  0  0  0  0  0
  139.8980   70.4610  221.6100 C   0  0  0  0  0  0  0  0  0  0  0  0
  140.1070   71.7340  222.2120 N   0  0  0  0  0  0  0  0  0  0  0  0
  139.3850   72.7420  221.8150 C   0  0  0  0  0  0  0  0  0  0  0  0
  138.1160   72.8410  222.3600 O   0  0  0  0  0  0  0  0  0  0  0  0
  139.9390   73.7060  220.8290 C   0  0  0  0  0  0  0  0  0  0  0  0
  140.2180   75.0060  221.3530 N   0  0  0  0  0  0  0  0  0  0  0  0
  139.2430   75.8930  221.8900 C   0  0  0  0  0  0  0  0  0  0  0  0
  138.0230   75.5530  221.9270 O   0  0  0  0  0  0  0  0  0  0  0  0
  139.6390   77.2090  222.4080 C   0  0  0  0  0  0  0  0  0  0  0  0
  138.6570   78.0690  222.8920 C   0  0  0  0  0  0  0  0  0  0  0  0
  139.0860   79.2820  223.3620 C   0  0  0  0  0  0  0  0  0  0  0  0
  140.4180   79.6710  223.3720 C   0  0  0  0  0  0  0  0  0  0  0  0
  140.8270   80.8930  223.8490 C   0  0  0  0  0  0  0  0  0  0  0  0
  142.1790   81.2310  223.8370 C   0  0  0  0  0  0  0  0  0  0  0  0
  142.5730   82.4530  224.3170 F   0  0  0  0  0  0  0  0  0  0  0  0
  143.1380   80.3540  223.3490 C   0  0  0  0  0  0  0  0  0  0  0  0
  142.7000   79.1330  222.8730 C   0  0  0  0  0  0  0  0  0  0  0  0
  141.3580   78.7810  222.8790 C   0  0  0  0  0  0  0  0  0  0  0  0
  140.9290   77.5880  222.4180 N   0  0  0  0  0  0  0  0  0  0  0  0
  139.3790   68.9440  225.7080 C   0  0  0  0  0  0  0  0  0  0  0  0
  140.0140   70.0890  226.4440 C   0  0  0  0  0  0  0  0  0  0  0  0
  140.8370   70.9100  225.6770 C   0  0  0  0  0  0  0  0  0  0  0  0
  141.4570   71.9830  226.2790 C   0  0  0  0  0  0  0  0  0  0  0  0
  141.2560   72.2280  227.6270 C   0  0  0  0  0  0  0  0  0  0  0  0
  140.4270   71.3880  228.3670 C   0  0  0  0  0  0  0  0  0  0  0  0
  139.7990   70.3120  227.7850 C   0  0  0  0  0  0  0  0  0  0  0  0
  137.0534   69.2466  226.0297 H   0  0  0  0  0  0  0  0  0  0  0  0
  136.5992   70.0907  224.5105 H   0  0  0  0  0  0  0  0  0  0  0  0
  136.8442   68.3112  224.5105 H   0  0  0  0  0  0  0  0  0  0  0  0
  140.0902   68.7490  223.4269 H   0  0  0  0  0  0  0  0  0  0  0  0
  138.4379   67.9575  223.2498 H   0  0  0  0  0  0  0  0  0  0  0  0
  138.3073   69.0580  221.3890 H   0  0  0  0  0  0  0  0  0  0  0  0
  137.9793   70.4872  222.4902 H   0  0  0  0  0  0  0  0  0  0  0  0
  140.7962   69.8468  221.7713 H   0  0  0  0  0  0  0  0  0  0  0  0
  139.7007   70.6342  220.5418 H   0  0  0  0  0  0  0  0  0  0  0  0
  137.9220   73.6830  222.9100 H   0  0  0  0  0  0  0  0  0  0  0  0
  140.8762   73.2888  220.4320 H   0  0  0  0  0  0  0  0  0  0  0  0
  139.1642   73.8420  220.0601 H   0  0  0  0  0  0  0  0  0  0  0  0
  141.2150   75.3850  221.3660 H   0  0  0  0  0  0  0  0  0  0  0  0
  137.5932   77.7893  222.8967 H   0  0  0  0  0  0  0  0  0  0  0  0
  138.3350   79.9848  223.7521 H   0  0  0  0  0  0  0  0  0  0  0  0
  140.0862   81.6055  224.2409 H   0  0  0  0  0  0  0  0  0  0  0  0
  144.2052   80.6207  223.3415 H   0  0  0  0  0  0  0  0  0  0  0  0
  143.4372   78.4188  222.4775 H   0  0  0  0  0  0  0  0  0  0  0  0
  138.7484   68.3676  226.4008 H   0  0  0  0  0  0  0  0  0  0  0  0
  140.1640   68.2920  225.2974 H   0  0  0  0  0  0  0  0  0  0  0  0
  140.9896   70.7049  224.6071 H   0  0  0  0  0  0  0  0  0  0  0  0
  142.1103   72.6437  225.6901 H   0  0  0  0  0  0  0  0  0  0  0  0
  141.7494   73.0832  228.1119 H   0  0  0  0  0  0  0  0  0  0  0  0
  140.2718   71.5892  229.4372 H   0  0  0  0  0  0  0  0  0  0  0  0
  139.1455   69.6504  228.3726 H   0  0  0  0  0  0  0  0  0  0  0  0
  1  2  1  0
  2  3  1  0
  3  4  1  0
  4  5  1  0
  5  6  1  0
  6  7  2  0
  7  8  1  0
  7  9  1  0
  9 10  1  0
 10 11  1  0
 11 12  2  0
 11 13  1  0
 13 14  2  0
 14 15  1  0
 15 16  2  0
 16 17  1  0
 17 18  2  0
 18 19  1  0
 18 20  1  0
 20 21  2  0
 21 22  1  0
 22 23  2  0
  2 24  1  0
 24 25  1  0
 25 26  2  0
 26 27  1  0
 27 28  2  0
 28 29  1  0
 29 30  2  0
 23 13  1  0
 30 25  1  0
 22 16  1  0
  1 31  1  0
  1 32  1  0
  1 33  1  0
  3 34  1  0
  3 35  1  0
  4 36  1  0
  4 37  1  0
  5 38  1  0
  5 39  1  0
  8 40  1  0
  9 41  1  0
  9 42  1  0
 10 43  1  0
 14 44  1  0
 15 45  1  0
 17 46  1  0
 20 47  1  0
 21 48  1  0
 24 49  1  0
 24 50  1  0
 26 51  1  0
 27 52  1  0
 28 53  1  0
 29 54  1  0
 30 55  1  0
M  END
>  <smiles>  (8) 
CN(CCCN=C(O)CNC(=O)c1ccc2cc(F)ccc2n1)Cc1ccccc1

>  <score_type>  (8) 
oracle

>  <origin>  (8) 
autodockgpu

>  <m_score__min__energy>  (8) 
-8.4000000000000004

>  <m_primary>  (8) 
energy

>  <rmsd>  (8) 
9.005444127857876

>  <m_score__min__rmsd>  (8) 
9.005444127857876

>  <meeko>  (8) 
{"free_energy": -7.41, "intermolecular_energy": -10.69, "internal_energy": -2.22, "cluster_size": 10, "cluster_id": 2, "rank_in_cluster": 7}

>  <energy>  (8) 
-7.77

>  <cluster_rmsd>  (8) 
1.2

>  <cluster>  (8) 
1

$$$$

     RDKit          3D

 55 57  0  0  0  0  0  0  0  0999 V2000
  137.4570   69.2670  224.9680 C   0  0  0  0  0  0  0  0  0  0  0  0
  138.7460   69.1360  224.3710 N   0  0  0  0  0  0  0  0  0  0  0  0
  138.7970   68.2970  223.1990 C   0  0  0  0  0  0  0  0  0  0  0  0
  138.8330   69.0240  221.8980 C   0  0  0  0  0  0  0  0  0  0  0  0
  138.7620   70.5320  222.0230 C   0  0  0  0  0  0  0  0  0  0  0  0
  139.8500   71.2020  221.3950 N   0  0  0  0  0  0  0  0  0  0  0  0
  140.1450   72.4110  221.7740 C   0  0  0  0  0  0  0  0  0  0  0  0
  139.9530   72.6990  223.1150 O   0  0  0  0  0  0  0  0  0  0  0  0
  140.6590   73.3930  220.7830 C   0  0  0  0  0  0  0  0  0  0  0  0
  140.8050   74.7250  221.2790 N   0  0  0  0  0  0  0  0  0  0  0  0
  139.7640   75.4890  221.8780 C   0  0  0  0  0  0  0  0  0  0  0  0
  138.6030   74.9970  222.0020 O   0  0  0  0  0  0  0  0  0  0  0  0
  140.0250   76.8520  222.3590 C   0  0  0  0  0  0  0  0  0  0  0  0
  138.9510   77.6490  222.7460 C   0  0  0  0  0  0  0  0  0  0  0  0
  139.2540   78.9110  223.1860 C   0  0  0  0  0  0  0  0  0  0  0  0
  140.5490   79.4050  223.2570 C   0  0  0  0  0  0  0  0  0  0  0  0
  140.8310   80.6730  223.7030 C   0  0  0  0  0  0  0  0  0  0  0  0
  142.1510   81.1180  223.7550 C   0  0  0  0  0  0  0  0  0  0  0  0
  142.4180   82.3860  224.2020 F   0  0  0  0  0  0  0  0  0  0  0  0
  143.2040   80.3020  223.3640 C   0  0  0  0  0  0  0  0  0  0  0  0
  142.8920   79.0310  222.9180 C   0  0  0  0  0  0  0  0  0  0  0  0
  141.5830   78.5740  222.8600 C   0  0  0  0  0  0  0  0  0  0  0  0
  141.2780   77.3330  222.4280 N   0  0  0  0  0  0  0  0  0  0  0  0
  139.6920   68.6690  225.3530 C   0  0  0  0  0  0  0  0  0  0  0  0
  140.1940   69.8330  226.1590 C   0  0  0  0  0  0  0  0  0  0  0  0
  139.8180   69.8390  227.5000 C   0  0  0  0  0  0  0  0  0  0  0  0
  140.2380   70.8730  228.3070 C   0  0  0  0  0  0  0  0  0  0  0  0
  141.0220   71.8850  227.7780 C   0  0  0  0  0  0  0  0  0  0  0  0
  141.3820   71.8500  226.4320 C   0  0  0  0  0  0  0  0  0  0  0  0
  140.9720   70.8270  225.6100 C   0  0  0  0  0  0  0  0  0  0  0  0
  137.5575   69.2568  226.0634 H   0  0  0  0  0  0  0  0  0  0  0  0
  137.0006   70.2162  224.6505 H   0  0  0  0  0  0  0  0  0  0  0  0
  136.8190   68.4291  224.6505 H   0  0  0  0  0  0  0  0  0  0  0  0
  139.7012   67.6741  223.2657 H   0  0  0  0  0  0  0  0  0  0  0  0
  137.8623   67.7170  223.1984 H   0  0  0  0  0  0  0  0  0  0  0  0
  139.7707   68.7649  221.3847 H   0  0  0  0  0  0  0  0  0  0  0  0
  137.9385   68.7124  221.3388 H   0  0  0  0  0  0  0  0  0  0  0  0
  137.8257   70.8768  221.5599 H   0  0  0  0  0  0  0  0  0  0  0  0
  138.8075   70.7720  223.0955 H   0  0  0  0  0  0  0  0  0  0  0  0
  139.2330   73.3960  223.3310 H   0  0  0  0  0  0  0  0  0  0  0  0
  141.6443   73.0467  220.4376 H   0  0  0  0  0  0  0  0  0  0  0  0
  139.9097   73.4425  219.9792 H   0  0  0  0  0  0  0  0  0  0  0  0
  141.7440   75.2270  221.2190 H   0  0  0  0  0  0  0  0  0  0  0  0
  137.9140   77.2849  222.7010 H   0  0  0  0  0  0  0  0  0  0  0  0
  138.4279   79.5664  223.4991 H   0  0  0  0  0  0  0  0  0  0  0  0
  140.0142   81.3383  224.0196 H   0  0  0  0  0  0  0  0  0  0  0  0
  144.2456   80.6529  223.4073 H   0  0  0  0  0  0  0  0  0  0  0  0
  143.7054   78.3623  222.5998 H   0  0  0  0  0  0  0  0  0  0  0  0
  139.2006   67.9458  226.0204 H   0  0  0  0  0  0  0  0  0  0  0  0
  140.5380   68.1833  224.8447 H   0  0  0  0  0  0  0  0  0  0  0  0
  139.1948   69.0299  227.9085 H   0  0  0  0  0  0  0  0  0  0  0  0
  139.9516   70.8951  229.3688 H   0  0  0  0  0  0  0  0  0  0  0  0
  141.3594   72.7135  228.4181 H   0  0  0  0  0  0  0  0  0  0  0  0
  142.0062   72.6563  226.0194 H   0  0  0  0  0  0  0  0  0  0  0  0
  141.2566   70.8036  224.5477 H   0  0  0  0  0  0  0  0  0  0  0  0
  1  2  1  0
  2  3  1  0
  3  4  1  0
  4  5  1  0
  5  6  1  0
  6  7  2  0
  7  8  1  0
  7  9  1  0
  9 10  1  0
 10 11  1  0
 11 12  2  0
 11 13  1  0
 13 14  2  0
 14 15  1  0
 15 16  2  0
 16 17  1  0
 17 18  2  0
 18 19  1  0
 18 20  1  0
 20 21  2  0
 21 22  1  0
 22 23  2  0
  2 24  1  0
 24 25  1  0
 25 26  2  0
 26 27  1  0
 27 28  2  0
 28 29  1  0
 29 30  2  0
 23 13  1  0
 30 25  1  0
 22 16  1  0
  1 31  1  0
  1 32  1  0
  1 33  1  0
  3 34  1  0
  3 35  1  0
  4 36  1  0
  4 37  1  0
  5 38  1  0
  5 39  1  0
  8 40  1  0
  9 41  1  0
  9 42  1  0
 10 43  1  0
 14 44  1  0
 15 45  1  0
 17 46  1  0
 20 47  1  0
 21 48  1  0
 24 49  1  0
 24 50  1  0
 26 51  1  0
 27 52  1  0
 28 53  1  0
 29 54  1  0
 30 55  1  0
M  END
>  <smiles>  (9) 
CN(CCCN=C(O)CNC(=O)c1ccc2cc(F)ccc2n1)Cc1ccccc1

>  <score_type>  (9) 
oracle

>  <origin>  (9) 
autodockgpu

>  <m_score__min__energy>  (9) 
-8.4000000000000004

>  <m_primary>  (9) 
energy

>  <rmsd>  (9) 
8.874332012380481

>  <m_score__min__rmsd>  (9) 
8.874332012380481

>  <meeko>  (9) 
{"free_energy": -7.77, "intermolecular_energy": -11.06, "internal_energy": -2.25, "cluster_size": 10, "cluster_id": 2, "rank_in_cluster": 2}

>  <energy>  (9) 
-7.75

>  <cluster_rmsd>  (9) 
1.04

>  <cluster>  (9) 
1

$$$$

     RDKit          3D

 55 57  0  0  0  0  0  0  0  0999 V2000
  139.1980   67.8260  224.0990 C   0  0  0  0  0  0  0  0  0  0  0  0
  138.7240   68.2970  225.3590 N   0  0  0  0  0  0  0  0  0  0  0  0
  138.2140   69.6450  225.3600 C   0  0  0  0  0  0  0  0  0  0  0  0
  136.9750   69.8560  224.5590 C   0  0  0  0  0  0  0  0  0  0  0  0
  137.1870   70.6200  223.2690 C   0  0  0  0  0  0  0  0  0  0  0  0
  138.5570   70.7210  222.8930 N   0  0  0  0  0  0  0  0  0  0  0  0
  139.1010   71.9000  222.8120 C   0  0  0  0  0  0  0  0  0  0  0  0
  140.2370   72.1060  223.5760 O   0  0  0  0  0  0  0  0  0  0  0  0
  138.4960   72.9360  221.9340 C   0  0  0  0  0  0  0  0  0  0  0  0
  139.0900   74.2310  222.0380 N   0  0  0  0  0  0  0  0  0  0  0  0
  140.0290   74.7720  221.1150 C   0  0  0  0  0  0  0  0  0  0  0  0
  140.4000   74.0930  220.1120 O   0  0  0  0  0  0  0  0  0  0  0  0
  140.5760   76.1200  221.3150 C   0  0  0  0  0  0  0  0  0  0  0  0
  141.6110   76.5590  220.4940 C   0  0  0  0  0  0  0  0  0  0  0  0
  142.0810   77.8250  220.7270 C   0  0  0  0  0  0  0  0  0  0  0  0
  141.5790   78.6560  221.7180 C   0  0  0  0  0  0  0  0  0  0  0  0
  142.0640   79.9230  221.9340 C   0  0  0  0  0  0  0  0  0  0  0  0
  141.5220   80.7160  222.9430 C   0  0  0  0  0  0  0  0  0  0  0  0
  142.0160   81.9790  223.1470 F   0  0  0  0  0  0  0  0  0  0  0  0
  140.4900   80.2550  223.7480 C   0  0  0  0  0  0  0  0  0  0  0  0
  140.0210   78.9760  223.5110 C   0  0  0  0  0  0  0  0  0  0  0  0
  140.5510   78.1750  222.5100 C   0  0  0  0  0  0  0  0  0  0  0  0
  140.0920   76.9270  222.2750 N   0  0  0  0  0  0  0  0  0  0  0  0
  139.7630   68.1610  226.3500 C   0  0  0  0  0  0  0  0  0  0  0  0
  140.2050   69.5240  226.8030 C   0  0  0  0  0  0  0  0  0  0  0  0
  141.0430   70.2030  225.9230 C   0  0  0  0  0  0  0  0  0  0  0  0
  141.4930   71.4590  226.2650 C   0  0  0  0  0  0  0  0  0  0  0  0
  141.1090   72.0250  227.4690 C   0  0  0  0  0  0  0  0  0  0  0  0
  140.2690   71.3190  228.3280 C   0  0  0  0  0  0  0  0  0  0  0  0
  139.8090   70.0640  228.0050 C   0  0  0  0  0  0  0  0  0  0  0  0
  139.9698   67.0591  224.2610 H   0  0  0  0  0  0  0  0  0  0  0  0
  138.3618   67.3907  223.5321 H   0  0  0  0  0  0  0  0  0  0  0  0
  139.6280   68.6649  223.5321 H   0  0  0  0  0  0  0  0  0  0  0  0
  137.9979   69.9262  226.4013 H   0  0  0  0  0  0  0  0  0  0  0  0
  138.9909   70.2653  224.8891 H   0  0  0  0  0  0  0  0  0  0  0  0
  136.5542   68.8706  224.3101 H   0  0  0  0  0  0  0  0  0  0  0  0
  136.3009   70.4661  225.1782 H   0  0  0  0  0  0  0  0  0  0  0  0
  136.6412   70.1053  222.4646 H   0  0  0  0  0  0  0  0  0  0  0  0
  136.8174   71.6432  223.4317 H   0  0  0  0  0  0  0  0  0  0  0  0
  140.2170   72.9080  224.2130 H   0  0  0  0  0  0  0  0  0  0  0  0
  138.5910   72.5987  220.8913 H   0  0  0  0  0  0  0  0  0  0  0  0
  137.4516   73.0473  222.2609 H   0  0  0  0  0  0  0  0  0  0  0  0
  138.8430   74.8790  222.8490 H   0  0  0  0  0  0  0  0  0  0  0  0
  142.0295   75.9231  219.7000 H   0  0  0  0  0  0  0  0  0  0  0  0
  142.8989   78.2019  220.0954 H   0  0  0  0  0  0  0  0  0  0  0  0
  142.8816   80.3120  221.3093 H   0  0  0  0  0  0  0  0  0  0  0  0
  140.0618   80.8825  224.5436 H   0  0  0  0  0  0  0  0  0  0  0  0
  139.2043   78.5824  224.1340 H   0  0  0  0  0  0  0  0  0  0  0  0
  139.3767   67.5959  227.2111 H   0  0  0  0  0  0  0  0  0  0  0  0
  140.6183   67.6247  225.9132 H   0  0  0  0  0  0  0  0  0  0  0  0
  141.3412   69.7435  224.9691 H   0  0  0  0  0  0  0  0  0  0  0  0
  142.1561   72.0114  225.5830 H   0  0  0  0  0  0  0  0  0  0  0  0
  141.4656   73.0280  227.7463 H   0  0  0  0  0  0  0  0  0  0  0  0
  139.9681   71.7745  229.2830 H   0  0  0  0  0  0  0  0  0  0  0  0
  139.1459   69.5097  228.6855 H   0  0  0  0  0  0  0  0  0  0  0  0
  1  2  1  0
  2  3  1  0
  3  4  1  0
  4  5  1  0
  5  6  1  0
  6  7  2  0
  7  8  1  0
  7  9  1  0
  9 10  1  0
 10 11  1  0
 11 12  2  0
 11 13  1  0
 13 14  2  0
 14 15  1  0
 15 16  2  0
 16 17  1  0
 17 18  2  0
 18 19  1  0
 18 20  1  0
 20 21  2  0
 21 22  1  0
 22 23  2  0
  2 24  1  0
 24 25  1  0
 25 26  2  0
 26 27  1  0
 27 28  2  0
 28 29  1  0
 29 30  2  0
 23 13  1  0
 30 25  1  0
 22 16  1  0
  1 31  1  0
  1 32  1  0
  1 33  1  0
  3 34  1  0
  3 35  1  0
  4 36  1  0
  4 37  1  0
  5 38  1  0
  5 39  1  0
  8 40  1  0
  9 41  1  0
  9 42  1  0
 10 43  1  0
 14 44  1  0
 15 45  1  0
 17 46  1  0
 20 47  1  0
 21 48  1  0
 24 49  1  0
 24 50  1  0
 26 51  1  0
 27 52  1  0
 28 53  1  0
 29 54  1  0
 30 55  1  0
M  END
>  <smiles>  (10) 
CN(CCCN=C(O)CNC(=O)c1ccc2cc(F)ccc2n1)Cc1ccccc1

>  <score_type>  (10) 
oracle

>  <origin>  (10) 
autodockgpu

>  <m_score__min__energy>  (10) 
-8.4000000000000004

>  <m_primary>  (10) 
energy

>  <rmsd>  (10) 
8.60410690231693

>  <m_score__min__rmsd>  (10) 
8.60410690231693

>  <meeko>  (10) 
{"free_energy": -7.68, "intermolecular_energy": -10.96, "internal_energy": -1.54, "cluster_size": 10, "cluster_id": 2, "rank_in_cluster": 3}

>  <energy>  (10) 
-7.71

>  <cluster_rmsd>  (10) 
0.84

>  <cluster>  (10) 
1

$$$$

     RDKit          3D

 55 57  0  0  0  0  0  0  0  0999 V2000
  138.0320   70.7540  224.4570 C   0  0  0  0  0  0  0  0  0  0  0  0
  138.9910   69.8730  223.8760 N   0  0  0  0  0  0  0  0  0  0  0  0
  138.4710   68.9650  222.8850 C   0  0  0  0  0  0  0  0  0  0  0  0
  139.1500   69.0150  221.5590 C   0  0  0  0  0  0  0  0  0  0  0  0
  139.3830   70.4150  221.0290 C   0  0  0  0  0  0  0  0  0  0  0  0
  140.5490   71.0330  221.5640 N   0  0  0  0  0  0  0  0  0  0  0  0
  140.5050   72.2980  221.8660 C   0  0  0  0  0  0  0  0  0  0  0  0
  140.0290   72.6120  223.1280 O   0  0  0  0  0  0  0  0  0  0  0  0
  140.9540   73.3110  220.8760 C   0  0  0  0  0  0  0  0  0  0  0  0
  141.0250   74.6480  221.3760 N   0  0  0  0  0  0  0  0  0  0  0  0
  139.9180   75.3920  221.8700 C   0  0  0  0  0  0  0  0  0  0  0  0
  138.7600   74.8760  221.8880 O   0  0  0  0  0  0  0  0  0  0  0  0
  140.1030   76.7620  222.3660 C   0  0  0  0  0  0  0  0  0  0  0  0
  138.9850   77.5060  222.7320 C   0  0  0  0  0  0  0  0  0  0  0  0
  139.2180   78.7770  223.1870 C   0  0  0  0  0  0  0  0  0  0  0  0
  140.4870   79.3300  223.2920 C   0  0  0  0  0  0  0  0  0  0  0  0
  140.7000   80.6070  223.7520 C   0  0  0  0  0  0  0  0  0  0  0  0
  141.9960   81.1110  223.8390 C   0  0  0  0  0  0  0  0  0  0  0  0
  142.1930   82.3870  224.3010 F   0  0  0  0  0  0  0  0  0  0  0  0
  143.0940   80.3480  223.4680 C   0  0  0  0  0  0  0  0  0  0  0  0
  142.8520   79.0670  223.0070 C   0  0  0  0  0  0  0  0  0  0  0  0
  141.5680   78.5510  222.9150 C   0  0  0  0  0  0  0  0  0  0  0  0
  141.3310   77.3000  222.4680 N   0  0  0  0  0  0  0  0  0  0  0  0
  139.6660   69.1360  224.9150 C   0  0  0  0  0  0  0  0  0  0  0  0
  140.1350   70.0850  225.9810 C   0  0  0  0  0  0  0  0  0  0  0  0
  139.6320   69.8470  227.2570 C   0  0  0  0  0  0  0  0  0  0  0  0
  140.0140   70.6740  228.2910 C   0  0  0  0  0  0  0  0  0  0  0  0
  140.8870   71.7220  228.0480 C   0  0  0  0  0  0  0  0  0  0  0  0
  141.3730   71.9330  226.7590 C   0  0  0  0  0  0  0  0  0  0  0  0
  141.0030   71.1200  225.7140 C   0  0  0  0  0  0  0  0  0  0  0  0
  138.0966   70.6947  225.5535 H   0  0  0  0  0  0  0  0  0  0  0  0
  138.2374   71.7849  224.1328 H   0  0  0  0  0  0  0  0  0  0  0  0
  137.0222   70.4621  224.1328 H   0  0  0  0  0  0  0  0  0  0  0  0
  138.5664   67.9419  223.2777 H   0  0  0  0  0  0  0  0  0  0  0  0
  137.4300   69.2722  222.7063 H   0  0  0  0  0  0  0  0  0  0  0  0
  140.1256   68.5156  221.6527 H   0  0  0  0  0  0  0  0  0  0  0  0
  138.4802   68.5153  220.8437 H   0  0  0  0  0  0  0  0  0  0  0  0
  139.4868   70.3615  219.9352 H   0  0  0  0  0  0  0  0  0  0  0  0
  138.5210   71.0265  221.3341 H   0  0  0  0  0  0  0  0  0  0  0  0
  139.2220   73.2430  223.1650 H   0  0  0  0  0  0  0  0  0  0  0  0
  141.9556   73.0241  220.5232 H   0  0  0  0  0  0  0  0  0  0  0  0
  140.1979   73.3192  220.0771 H   0  0  0  0  0  0  0  0  0  0  0  0
  141.9550   75.1700  221.4010 H   0  0  0  0  0  0  0  0  0  0  0  0
  137.9673   77.0948  222.6597 H   0  0  0  0  0  0  0  0  0  0  0  0
  138.3551   79.3910  223.4844 H   0  0  0  0  0  0  0  0  0  0  0  0
  139.8462   81.2323  224.0520 H   0  0  0  0  0  0  0  0  0  0  0  0
  144.1169   80.7466  223.5379 H   0  0  0  0  0  0  0  0  0  0  0  0
  143.7028   78.4388  222.7044 H   0  0  0  0  0  0  0  0  0  0  0  0
  138.9723   68.4046  225.3551 H   0  0  0  0  0  0  0  0  0  0  0  0
  140.5320   68.6099  224.4868 H   0  0  0  0  0  0  0  0  0  0  0  0
  138.9399   69.0112  227.4372 H   0  0  0  0  0  0  0  0  0  0  0  0
  139.6270   70.5026  229.3063 H   0  0  0  0  0  0  0  0  0  0  0  0
  141.1954   72.3852  228.8696 H   0  0  0  0  0  0  0  0  0  0  0  0
  142.0664   72.7666  226.5741 H   0  0  0  0  0  0  0  0  0  0  0  0
  141.3878   71.2907  224.6977 H   0  0  0  0  0  0  0  0  0  0  0  0
  1  2  1  0
  2  3  1  0
  3  4  1  0
  4  5  1  0
  5  6  1  0
  6  7  2  0
  7  8  1  0
  7  9  1  0
  9 10  1  0
 10 11  1  0
 11 12  2  0
 11 13  1  0
 13 14  2  0
 14 15  1  0
 15 16  2  0
 16 17  1  0
 17 18  2  0
 18 19  1  0
 18 20  1  0
 20 21  2  0
 21 22  1  0
 22 23  2  0
  2 24  1  0
 24 25  1  0
 25 26  2  0
 26 27  1  0
 27 28  2  0
 28 29  1  0
 29 30  2  0
 23 13  1  0
 30 25  1  0
 22 16  1  0
  1 31  1  0
  1 32  1  0
  1 33  1  0
  3 34  1  0
  3 35  1  0
  4 36  1  0
  4 37  1  0
  5 38  1  0
  5 39  1  0
  8 40  1  0
  9 41  1  0
  9 42  1  0
 10 43  1  0
 14 44  1  0
 15 45  1  0
 17 46  1  0
 20 47  1  0
 21 48  1  0
 24 49  1  0
 24 50  1  0
 26 51  1  0
 27 52  1  0
 28 53  1  0
 29 54  1  0
 30 55  1  0
M  END
>  <smiles>  (11) 
CN(CCCN=C(O)CNC(=O)c1ccc2cc(F)ccc2n1)Cc1ccccc1

>  <score_type>  (11) 
oracle

>  <origin>  (11) 
autodockgpu

>  <m_score__min__energy>  (11) 
-8.4000000000000004

>  <m_primary>  (11) 
energy

>  <rmsd>  (11) 
8.827347052777963

>  <m_score__min__rmsd>  (11) 
8.827347052777963

>  <meeko>  (11) 
{"free_energy": -7.46, "intermolecular_energy": -10.75, "internal_energy": -2.33, "cluster_size": 10, "cluster_id": 2, "rank_in_cluster": 6}

>  <energy>  (11) 
-7.67

>  <cluster_rmsd>  (11) 
1.1

>  <cluster>  (11) 
1

$$$$

     RDKit          3D

 55 57  0  0  0  0  0  0  0  0999 V2000
  137.4590   80.7440  222.4230 C   0  0  0  0  0  0  0  0  0  0  0  0
  138.2860   79.5830  222.3490 N   0  0  0  0  0  0  0  0  0  0  0  0
  137.6080   78.3690  221.9680 C   0  0  0  0  0  0  0  0  0  0  0  0
  137.9690   77.1630  222.7660 C   0  0  0  0  0  0  0  0  0  0  0  0
  138.5670   76.0320  221.9540 C   0  0  0  0  0  0  0  0  0  0  0  0
  139.8600   75.6390  222.4020 N   0  0  0  0  0  0  0  0  0  0  0  0
  140.7410   75.2630  221.5220 C   0  0  0  0  0  0  0  0  0  0  0  0
  141.5530   76.2570  221.0010 O   0  0  0  0  0  0  0  0  0  0  0  0
  140.8320   73.8320  221.1310 C   0  0  0  0  0  0  0  0  0  0  0  0
  140.7450   72.9070  222.2170 N   0  0  0  0  0  0  0  0  0  0  0  0
  139.6450   72.0380  222.4590 C   0  0  0  0  0  0  0  0  0  0  0  0
  138.6420   72.0470  221.6840 O   0  0  0  0  0  0  0  0  0  0  0  0
  139.6600   71.1210  223.6060 C   0  0  0  0  0  0  0  0  0  0  0  0
  139.0050   69.8960  223.5020 C   0  0  0  0  0  0  0  0  0  0  0  0
  139.0530   69.0830  224.6030 C   0  0  0  0  0  0  0  0  0  0  0  0
  139.7080   69.4240  225.7780 C   0  0  0  0  0  0  0  0  0  0  0  0
  139.7450   68.5920  226.8710 C   0  0  0  0  0  0  0  0  0  0  0  0
  140.4190   68.9860  228.0260 C   0  0  0  0  0  0  0  0  0  0  0  0
  140.4480   68.1450  229.1090 F   0  0  0  0  0  0  0  0  0  0  0  0
  141.0640   70.2120  228.1030 C   0  0  0  0  0  0  0  0  0  0  0  0
  141.0100   71.0300  226.9900 C   0  0  0  0  0  0  0  0  0  0  0  0
  140.3440   70.6530  225.8340 C   0  0  0  0  0  0  0  0  0  0  0  0
  140.2930   71.4490  224.7460 N   0  0  0  0  0  0  0  0  0  0  0  0
  138.9710   79.3940  223.6030 C   0  0  0  0  0  0  0  0  0  0  0  0
  140.4170   79.7720  223.4470 C   0  0  0  0  0  0  0  0  0  0  0  0
  141.2310   78.7970  222.8760 C   0  0  0  0  0  0  0  0  0  0  0  0
  142.5700   79.0660  222.6990 C   0  0  0  0  0  0  0  0  0  0  0  0
  143.0840   80.2920  223.0880 C   0  0  0  0  0  0  0  0  0  0  0  0
  142.2430   81.2460  223.6560 C   0  0  0  0  0  0  0  0  0  0  0  0
  140.9030   80.9970  223.8420 C   0  0  0  0  0  0  0  0  0  0  0  0
  137.2778   80.9984  223.4777 H   0  0  0  0  0  0  0  0  0  0  0  0
  137.9625   81.5852  221.9242 H   0  0  0  0  0  0  0  0  0  0  0  0
  136.4994   80.5431  221.9242 H   0  0  0  0  0  0  0  0  0  0  0  0
  136.5259   78.5359  222.0742 H   0  0  0  0  0  0  0  0  0  0  0  0
  137.9206   78.1562  220.9351 H   0  0  0  0  0  0  0  0  0  0  0  0
  138.7012   77.4625  223.5303 H   0  0  0  0  0  0  0  0  0  0  0  0
  137.0324   76.7794  223.1970 H   0  0  0  0  0  0  0  0  0  0  0  0
  137.8959   75.1628  222.0190 H   0  0  0  0  0  0  0  0  0  0  0  0
  138.6766   76.3950  220.9214 H   0  0  0  0  0  0  0  0  0  0  0  0
  142.4080   76.4650  221.5250 H   0  0  0  0  0  0  0  0  0  0  0  0
  140.0116   73.6158  220.4308 H   0  0  0  0  0  0  0  0  0  0  0  0
  141.8291   73.6952  220.6870 H   0  0  0  0  0  0  0  0  0  0  0  0
  141.5380   72.8240  222.9250 H   0  0  0  0  0  0  0  0  0  0  0  0
  138.4772   69.5975  222.5842 H   0  0  0  0  0  0  0  0  0  0  0  0
  138.5456   68.1083  224.5534 H   0  0  0  0  0  0  0  0  0  0  0  0
  139.2424   67.6142  226.8346 H   0  0  0  0  0  0  0  0  0  0  0  0
  141.5974   70.5210  229.0140 H   0  0  0  0  0  0  0  0  0  0  0  0
  141.5103   72.0091  227.0225 H   0  0  0  0  0  0  0  0  0  0  0  0
  138.5074   80.0282  224.3730 H   0  0  0  0  0  0  0  0  0  0  0  0
  138.8988   78.3385  223.9043 H   0  0  0  0  0  0  0  0  0  0  0  0
  140.8110   77.8271  222.5711 H   0  0  0  0  0  0  0  0  0  0  0  0
  143.2297   78.3091  222.2498 H   0  0  0  0  0  0  0  0  0  0  0  0
  144.1529   80.5115  222.9488 H   0  0  0  0  0  0  0  0  0  0  0  0
  142.6585   82.2175  223.9618 H   0  0  0  0  0  0  0  0  0  0  0  0
  140.2418   81.7524  224.2917 H   0  0  0  0  0  0  0  0  0  0  0  0
  1  2  1  0
  2  3  1  0
  3  4  1  0
  4  5  1  0
  5  6  1  0
  6  7  2  0
  7  8  1  0
  7  9  1  0
  9 10  1  0
 10 11  1  0
 11 12  2  0
 11 13  1  0
 13 14  2  0
 14 15  1  0
 15 16  2  0
 16 17  1  0
 17 18  2  0
 18 19  1  0
 18 20  1  0
 20 21  2  0
 21 22  1  0
 22 23  2  0
  2 24  1  0
 24 25  1  0
 25 26  2  0
 26 27  1  0
 27 28  2  0
 28 29  1  0
 29 30  2  0
 23 13  1  0
 30 25  1  0
 22 16  1  0
  1 31  1  0
  1 32  1  0
  1 33  1  0
  3 34  1  0
  3 35  1  0
  4 36  1  0
  4 37  1  0
  5 38  1  0
  5 39  1  0
  8 40  1  0
  9 41  1  0
  9 42  1  0
 10 43  1  0
 14 44  1  0
 15 45  1  0
 17 46  1  0
 20 47  1  0
 21 48  1  0
 24 49  1  0
 24 50  1  0
 26 51  1  0
 27 52  1  0
 28 53  1  0
 29 54  1  0
 30 55  1  0
M  END
>  <smiles>  (12) 
CN(CCCN=C(O)CNC(=O)c1ccc2cc(F)ccc2n1)Cc1ccccc1

>  <score_type>  (12) 
oracle

>  <origin>  (12) 
autodockgpu

>  <m_score__min__energy>  (12) 
-8.4000000000000004

>  <m_primary>  (12) 
energy

>  <rmsd>  (12) 
1.4890580370805173

>  <m_score__min__rmsd>  (12) 
1.4890580370805173

>  <meeko>  (12) 
{"free_energy": -7.5, "intermolecular_energy": -10.79, "internal_energy": -1.58, "cluster_size": 6, "cluster_id": 3, "rank_in_cluster": 2}

>  <energy>  (12) 
-7.63

>  <cluster_rmsd>  (12) 
0.88

>  <cluster>  (12) 
1

$$$$

     RDKit          3D

 55 57  0  0  0  0  0  0  0  0999 V2000
  142.2550   78.2900  218.1730 C   0  0  0  0  0  0  0  0  0  0  0  0
  142.5350   77.9160  219.5200 N   0  0  0  0  0  0  0  0  0  0  0  0
  143.0650   76.5860  219.6910 C   0  0  0  0  0  0  0  0  0  0  0  0
  142.6630   75.6020  218.6470 C   0  0  0  0  0  0  0  0  0  0  0  0
  141.5880   74.6290  219.0860 C   0  0  0  0  0  0  0  0  0  0  0  0
  140.5450   75.2430  219.8370 N   0  0  0  0  0  0  0  0  0  0  0  0
  140.3190   74.8310  221.0500 C   0  0  0  0  0  0  0  0  0  0  0  0
  141.1940   75.2790  222.0240 O   0  0  0  0  0  0  0  0  0  0  0  0
  139.1700   73.9280  221.3230 C   0  0  0  0  0  0  0  0  0  0  0  0
  139.3670   73.0180  222.4070 N   0  0  0  0  0  0  0  0  0  0  0  0
  139.1200   71.6180  222.3490 C   0  0  0  0  0  0  0  0  0  0  0  0
  138.6910   71.0900  221.2800 O   0  0  0  0  0  0  0  0  0  0  0  0
  139.3600   70.7710  223.5240 C   0  0  0  0  0  0  0  0  0  0  0  0
  138.9770   69.4330  223.4830 C   0  0  0  0  0  0  0  0  0  0  0  0
  139.2270   68.6910  224.6080 C   0  0  0  0  0  0  0  0  0  0  0  0
  139.8270   69.2090  225.7470 C   0  0  0  0  0  0  0  0  0  0  0  0
  140.0690   68.4470  226.8650 C   0  0  0  0  0  0  0  0  0  0  0  0
  140.6760   69.0180  227.9810 C   0  0  0  0  0  0  0  0  0  0  0  0
  140.9120   68.2460  229.0890 F   0  0  0  0  0  0  0  0  0  0  0  0
  141.0490   70.3550  227.9960 C   0  0  0  0  0  0  0  0  0  0  0  0
  140.7930   71.0990  226.8600 C   0  0  0  0  0  0  0  0  0  0  0  0
  140.1890   70.5450  225.7400 C   0  0  0  0  0  0  0  0  0  0  0  0
  139.9410   71.2700  224.6290 N   0  0  0  0  0  0  0  0  0  0  0  0
  141.3510   78.0830  220.3270 C   0  0  0  0  0  0  0  0  0  0  0  0
  141.6810   78.9130  221.5350 C   0  0  0  0  0  0  0  0  0  0  0  0
  141.4510   78.2970  222.7630 C   0  0  0  0  0  0  0  0  0  0  0  0
  141.7270   78.9920  223.9200 C   0  0  0  0  0  0  0  0  0  0  0  0
  142.2260   80.2830  223.8470 C   0  0  0  0  0  0  0  0  0  0  0  0
  142.4460   80.8700  222.6030 C   0  0  0  0  0  0  0  0  0  0  0  0
  142.1750   80.1930  221.4360 C   0  0  0  0  0  0  0  0  0  0  0  0
  141.5958   79.1706  218.1664 H   0  0  0  0  0  0  0  0  0  0  0  0
  143.1956   78.5323  217.6567 H   0  0  0  0  0  0  0  0  0  0  0  0
  141.7576   77.4557  217.6567 H   0  0  0  0  0  0  0  0  0  0  0  0
  144.1629   76.6546  219.6887 H   0  0  0  0  0  0  0  0  0  0  0  0
  142.6491   76.2120  220.6382 H   0  0  0  0  0  0  0  0  0  0  0  0
  142.2882   76.1587  217.7754 H   0  0  0  0  0  0  0  0  0  0  0  0
  143.5565   75.0018  218.4202 H   0  0  0  0  0  0  0  0  0  0  0  0
  141.1478   74.1674  218.1898 H   0  0  0  0  0  0  0  0  0  0  0  0
  142.0679   73.8871  219.7411 H   0  0  0  0  0  0  0  0  0  0  0  0
  141.8560   76.0080  221.7400 H   0  0  0  0  0  0  0  0  0  0  0  0
  138.2930   74.5505  221.5539 H   0  0  0  0  0  0  0  0  0  0  0  0
  139.0397   73.3117  220.4213 H   0  0  0  0  0  0  0  0  0  0  0  0
  139.7250   73.3650  223.3500 H   0  0  0  0  0  0  0  0  0  0  0  0
  138.4990   68.9945  222.5946 H   0  0  0  0  0  0  0  0  0  0  0  0
  138.9370   67.6299  224.6080 H   0  0  0  0  0  0  0  0  0  0  0  0
  139.7829   67.3849  226.8784 H   0  0  0  0  0  0  0  0  0  0  0  0
  141.5295   70.8046  228.8775 H   0  0  0  0  0  0  0  0  0  0  0  0
  141.0763   72.1617  226.8429 H   0  0  0  0  0  0  0  0  0  0  0  0
  140.5729   78.5886  219.7362 H   0  0  0  0  0  0  0  0  0  0  0  0
  140.9846   77.0970  220.6487 H   0  0  0  0  0  0  0  0  0  0  0  0
  141.0552   77.2717  222.8082 H   0  0  0  0  0  0  0  0  0  0  0  0
  141.5517   78.5234  224.8996 H   0  0  0  0  0  0  0  0  0  0  0  0
  142.4475   80.8421  224.7681 H   0  0  0  0  0  0  0  0  0  0  0  0
  142.8439   81.8943  222.5526 H   0  0  0  0  0  0  0  0  0  0  0  0
  142.3479   80.6604  220.4554 H   0  0  0  0  0  0  0  0  0  0  0  0
  1  2  1  0
  2  3  1  0
  3  4  1  0
  4  5  1  0
  5  6  1  0
  6  7  2  0
  7  8  1  0
  7  9  1  0
  9 10  1  0
 10 11  1  0
 11 12  2  0
 11 13  1  0
 13 14  2  0
 14 15  1  0
 15 16  2  0
 16 17  1  0
 17 18  2  0
 18 19  1  0
 18 20  1  0
 20 21  2  0
 21 22  1  0
 22 23  2  0
  2 24  1  0
 24 25  1  0
 25 26  2  0
 26 27  1  0
 27 28  2  0
 28 29  1  0
 29 30  2  0
 23 13  1  0
 30 25  1  0
 22 16  1  0
  1 31  1  0
  1 32  1  0
  1 33  1  0
  3 34  1  0
  3 35  1  0
  4 36  1  0
  4 37  1  0
  5 38  1  0
  5 39  1  0
  8 40  1  0
  9 41  1  0
  9 42  1  0
 10 43  1  0
 14 44  1  0
 15 45  1  0
 17 46  1  0
 20 47  1  0
 21 48  1  0
 24 49  1  0
 24 50  1  0
 26 51  1  0
 27 52  1  0
 28 53  1  0
 29 54  1  0
 30 55  1  0
M  END
>  <smiles>  (13) 
CN(CCCN=C(O)CNC(=O)c1ccc2cc(F)ccc2n1)Cc1ccccc1

>  <score_type>  (13) 
oracle

>  <origin>  (13) 
autodockgpu

>  <m_score__min__energy>  (13) 
-8.4000000000000004

>  <m_primary>  (13) 
energy

>  <rmsd>  (13) 
0.7575944500265918

>  <m_score__min__rmsd>  (13) 
0.7575944500265918

>  <meeko>  (13) 
{"free_energy": -7.63, "intermolecular_energy": -10.91, "internal_energy": -1.72, "cluster_size": 26, "cluster_id": 1, "rank_in_cluster": 12}

>  <energy>  (13) 
-7.59

>  <cluster_rmsd>  (13) 
1.24

>  <cluster>  (13) 
1

$$$$

     RDKit          3D

 55 57  0  0  0  0  0  0  0  0999 V2000
  139.0680   67.1930  226.5030 C   0  0  0  0  0  0  0  0  0  0  0  0
  139.3290   68.3170  225.6660 N   0  0  0  0  0  0  0  0  0  0  0  0
  138.9480   68.1570  224.2840 C   0  0  0  0  0  0  0  0  0  0  0  0
  138.5060   69.4040  223.5980 C   0  0  0  0  0  0  0  0  0  0  0  0
  139.5860   70.0870  222.7850 C   0  0  0  0  0  0  0  0  0  0  0  0
  139.7920   71.4470  223.1510 N   0  0  0  0  0  0  0  0  0  0  0  0
  139.2210   72.3800  222.4460 C   0  0  0  0  0  0  0  0  0  0  0  0
  137.8650   72.5650  222.6540 O   0  0  0  0  0  0  0  0  0  0  0  0
  140.0260   73.1760  221.4820 C   0  0  0  0  0  0  0  0  0  0  0  0
  140.2330   74.5390  221.8570 N   0  0  0  0  0  0  0  0  0  0  0  0
  139.1970   75.4910  222.0700 C   0  0  0  0  0  0  0  0  0  0  0  0
  137.9840   75.1550  221.9270 O   0  0  0  0  0  0  0  0  0  0  0  0
  139.5220   76.8700  222.4580 C   0  0  0  0  0  0  0  0  0  0  0  0
  138.4840   77.7600  222.7240 C   0  0  0  0  0  0  0  0  0  0  0  0
  138.8470   79.0320  223.0810 C   0  0  0  0  0  0  0  0  0  0  0  0
  140.1660   79.4500  223.1830 C   0  0  0  0  0  0  0  0  0  0  0  0
  140.5090   80.7310  223.5440 C   0  0  0  0  0  0  0  0  0  0  0  0
  141.8500   81.0970  223.6330 C   0  0  0  0  0  0  0  0  0  0  0  0
  142.1770   82.3780  223.9950 F   0  0  0  0  0  0  0  0  0  0  0  0
  142.8660   80.1900  223.3620 C   0  0  0  0  0  0  0  0  0  0  0  0
  142.4940   78.9090  223.0000 C   0  0  0  0  0  0  0  0  0  0  0  0
  141.1630   78.5290  222.9080 C   0  0  0  0  0  0  0  0  0  0  0  0
  140.7990   77.2780  222.5570 N   0  0  0  0  0  0  0  0  0  0  0  0
  140.7230   68.6760  225.7550 C   0  0  0  0  0  0  0  0  0  0  0  0
  140.8540   70.0150  226.4250 C   0  0  0  0  0  0  0  0  0  0  0  0
  140.2630   70.1140  227.6810 C   0  0  0  0  0  0  0  0  0  0  0  0
  140.3390   71.3100  228.3620 C   0  0  0  0  0  0  0  0  0  0  0  0
  140.9970   72.3870  227.7920 C   0  0  0  0  0  0  0  0  0  0  0  0
  141.5780   72.2550  226.5330 C   0  0  0  0  0  0  0  0  0  0  0  0
  141.5130   71.0700  225.8360 C   0  0  0  0  0  0  0  0  0  0  0  0
  139.1386   67.4971  227.5578 H   0  0  0  0  0  0  0  0  0  0  0  0
  138.0571   66.8105  226.2986 H   0  0  0  0  0  0  0  0  0  0  0  0
  139.8069   66.4042  226.2986 H   0  0  0  0  0  0  0  0  0  0  0  0
  139.8140   67.7565  223.7367 H   0  0  0  0  0  0  0  0  0  0  0  0
  138.0777   67.4842  224.2838 H   0  0  0  0  0  0  0  0  0  0  0  0
  137.6760   69.1494  222.9225 H   0  0  0  0  0  0  0  0  0  0  0  0
  138.2139   70.1107  224.3887 H   0  0  0  0  0  0  0  0  0  0  0  0
  140.5295   69.5401  222.9288 H   0  0  0  0  0  0  0  0  0  0  0  0
  139.2575   70.0786  221.7352 H   0  0  0  0  0  0  0  0  0  0  0  0
  137.5930   73.4250  223.1390 H   0  0  0  0  0  0  0  0  0  0  0  0
  141.0104   72.6959  221.3796 H   0  0  0  0  0  0  0  0  0  0  0  0
  139.4536   73.1965  220.5429 H   0  0  0  0  0  0  0  0  0  0  0  0
  141.2190   74.9200  222.0000 H   0  0  0  0  0  0  0  0  0  0  0  0
  137.4289   77.4576  222.6513 H   0  0  0  0  0  0  0  0  0  0  0  0
  138.0512   79.7597  223.2980 H   0  0  0  0  0  0  0  0  0  0  0  0
  139.7230   81.4687  223.7631 H   0  0  0  0  0  0  0  0  0  0  0  0
  143.9249   80.4795  223.4326 H   0  0  0  0  0  0  0  0  0  0  0  0
  143.2768   78.1687  222.7782 H   0  0  0  0  0  0  0  0  0  0  0  0
  141.2601   67.9175  226.3434 H   0  0  0  0  0  0  0  0  0  0  0  0
  141.1533   68.7283  224.7440 H   0  0  0  0  0  0  0  0  0  0  0  0
  139.7433   69.2513  228.1234 H   0  0  0  0  0  0  0  0  0  0  0  0
  139.8781   71.4087  229.3559 H   0  0  0  0  0  0  0  0  0  0  0  0
  141.0606   73.3434  228.3317 H   0  0  0  0  0  0  0  0  0  0  0  0
  142.0991   73.1149  226.0869 H   0  0  0  0  0  0  0  0  0  0  0  0
  141.9723   70.9695  224.8416 H   0  0  0  0  0  0  0  0  0  0  0  0
  1  2  1  0
  2  3  1  0
  3  4  1  0
  4  5  1  0
  5  6  1  0
  6  7  2  0
  7  8  1  0
  7  9  1  0
  9 10  1  0
 10 11  1  0
 11 12  2  0
 11 13  1  0
 13 14  2  0
 14 15  1  0
 15 16  2  0
 16 17  1  0
 17 18  2  0
 18 19  1  0
 18 20  1  0
 20 21  2  0
 21 22  1  0
 22 23  2  0
  2 24  1  0
 24 25  1  0
 25 26  2  0
 26 27  1  0
 27 28  2  0
 28 29  1  0
 29 30  2  0
 23 13  1  0
 30 25  1  0
 22 16  1  0
  1 31  1  0
  1 32  1  0
  1 33  1  0
  3 34  1  0
  3 35  1  0
  4 36  1  0
  4 37  1  0
  5 38  1  0
  5 39  1  0
  8 40  1  0
  9 41  1  0
  9 42  1  0
 10 43  1  0
 14 44  1  0
 15 45  1  0
 17 46  1  0
 20 47  1  0
 21 48  1  0
 24 49  1  0
 24 50  1  0
 26 51  1  0
 27 52  1  0
 28 53  1  0
 29 54  1  0
 30 55  1  0
M  END
>  <smiles>  (14) 
CN(CCCN=C(O)CNC(=O)c1ccc2cc(F)ccc2n1)Cc1ccccc1

>  <score_type>  (14) 
oracle

>  <origin>  (14) 
autodockgpu

>  <m_score__min__energy>  (14) 
-8.4000000000000004

>  <m_primary>  (14) 
energy

>  <rmsd>  (14) 
8.839113539898804

>  <m_score__min__rmsd>  (14) 
8.839113539898804

>  <meeko>  (14) 
{"free_energy": -7.3, "intermolecular_energy": -10.58, "internal_energy": -2.26, "cluster_size": 10, "cluster_id": 2, "rank_in_cluster": 9}

>  <energy>  (14) 
-7.56

>  <cluster_rmsd>  (14) 
0.92

>  <cluster>  (14) 
1

$$$$

     RDKit          3D

 55 57  0  0  0  0  0  0  0  0999 V2000
  139.4020   78.1540  220.2110 C   0  0  0  0  0  0  0  0  0  0  0  0
  140.7810   78.4070  220.4750 N   0  0  0  0  0  0  0  0  0  0  0  0
  141.7040   77.8180  219.5380 C   0  0  0  0  0  0  0  0  0  0  0  0
  142.5570   76.7260  220.0880 C   0  0  0  0  0  0  0  0  0  0  0  0
  141.9600   75.3400  219.9550 C   0  0  0  0  0  0  0  0  0  0  0  0
  140.6150   75.2600  220.4150 N   0  0  0  0  0  0  0  0  0  0  0  0
  140.2850   74.2950  221.2230 C   0  0  0  0  0  0  0  0  0  0  0  0
  139.5240   74.6500  222.3240 O   0  0  0  0  0  0  0  0  0  0  0  0
  140.7260   72.9050  220.9360 C   0  0  0  0  0  0  0  0  0  0  0  0
  140.7060   72.0250  222.0620 N   0  0  0  0  0  0  0  0  0  0  0  0
  139.5280   71.5500  222.7030 C   0  0  0  0  0  0  0  0  0  0  0  0
  138.3860   71.9050  222.2830 O   0  0  0  0  0  0  0  0  0  0  0  0
  139.6220   70.6430  223.8540 C   0  0  0  0  0  0  0  0  0  0  0  0
  139.0610   69.3720  223.7620 C   0  0  0  0  0  0  0  0  0  0  0  0
  139.1790   68.5700  224.8660 C   0  0  0  0  0  0  0  0  0  0  0  0
  139.8160   68.9670  226.0340 C   0  0  0  0  0  0  0  0  0  0  0  0
  139.9240   68.1460  227.1310 C   0  0  0  0  0  0  0  0  0  0  0  0
  140.5760   68.5950  228.2780 C   0  0  0  0  0  0  0  0  0  0  0  0
  140.6780   67.7660  229.3640 F   0  0  0  0  0  0  0  0  0  0  0  0
  141.1270   69.8680  228.3440 C   0  0  0  0  0  0  0  0  0  0  0  0
  141.0030   70.6730  227.2270 C   0  0  0  0  0  0  0  0  0  0  0  0
  140.3570   70.2400  226.0780 C   0  0  0  0  0  0  0  0  0  0  0  0
  140.2380   71.0250  224.9870 N   0  0  0  0  0  0  0  0  0  0  0  0
  141.1040   77.9880  221.8170 C   0  0  0  0  0  0  0  0  0  0  0  0
  141.5940   79.1690  222.6070 C   0  0  0  0  0  0  0  0  0  0  0  0
  140.6000   80.0080  223.1040 C   0  0  0  0  0  0  0  0  0  0  0  0
  140.9670   81.1140  223.8400 C   0  0  0  0  0  0  0  0  0  0  0  0
  142.3080   81.3730  224.0720 C   0  0  0  0  0  0  0  0  0  0  0  0
  143.2770   80.5130  223.5610 C   0  0  0  0  0  0  0  0  0  0  0  0
  142.9320   79.4040  222.8240 C   0  0  0  0  0  0  0  0  0  0  0  0
  138.8588   78.0543  221.1623 H   0  0  0  0  0  0  0  0  0  0  0  0
  138.9799   78.9897  219.6336 H   0  0  0  0  0  0  0  0  0  0  0  0
  139.3040   77.2229  219.6336 H   0  0  0  0  0  0  0  0  0  0  0  0
  141.1220   77.4060  218.7004 H   0  0  0  0  0  0  0  0  0  0  0  0
  142.3925   78.6228  219.2410 H   0  0  0  0  0  0  0  0  0  0  0  0
  143.5191   76.7390  219.5549 H   0  0  0  0  0  0  0  0  0  0  0  0
  142.6618   76.9212  221.1654 H   0  0  0  0  0  0  0  0  0  0  0  0
  141.9842   75.0497  218.8943 H   0  0  0  0  0  0  0  0  0  0  0  0
  142.5600   74.6650  220.5830 H   0  0  0  0  0  0  0  0  0  0  0  0
  139.0230   73.8900  222.7940 H   0  0  0  0  0  0  0  0  0  0  0  0
  140.0625   72.4880  220.1641 H   0  0  0  0  0  0  0  0  0  0  0  0
  141.7760   72.9734  220.6152 H   0  0  0  0  0  0  0  0  0  0  0  0
  141.6160   71.6700  222.4900 H   0  0  0  0  0  0  0  0  0  0  0  0
  138.5497   69.0298  222.8502 H   0  0  0  0  0  0  0  0  0  0  0  0
  138.7468   67.5593  224.8251 H   0  0  0  0  0  0  0  0  0  0  0  0
  139.4953   67.1333  227.1036 H   0  0  0  0  0  0  0  0  0  0  0  0
  141.6418   70.2219  229.2494 H   0  0  0  0  0  0  0  0  0  0  0  0
  141.4291   71.6868  227.2498 H   0  0  0  0  0  0  0  0  0  0  0  0
  140.2059   77.5727  222.2975 H   0  0  0  0  0  0  0  0  0  0  0  0
  141.8900   77.2193  221.7816 H   0  0  0  0  0  0  0  0  0  0  0  0
  139.5387   79.7915  222.9123 H   0  0  0  0  0  0  0  0  0  0  0  0
  140.1973   81.7892  224.2421 H   0  0  0  0  0  0  0  0  0  0  0  0
  142.6064   82.2549  224.6578 H   0  0  0  0  0  0  0  0  0  0  0  0
  144.3396   80.7249  223.7506 H   0  0  0  0  0  0  0  0  0  0  0  0
  143.7004   78.7275  222.4215 H   0  0  0  0  0  0  0  0  0  0  0  0
  1  2  1  0
  2  3  1  0
  3  4  1  0
  4  5  1  0
  5  6  1  0
  6  7  2  0
  7  8  1  0
  7  9  1  0
  9 10  1  0
 10 11  1  0
 11 12  2  0
 11 13  1  0
 13 14  2  0
 14 15  1  0
 15 16  2  0
 16 17  1  0
 17 18  2  0
 18 19  1  0
 18 20  1  0
 20 21  2  0
 21 22  1  0
 22 23  2  0
  2 24  1  0
 24 25  1  0
 25 26  2  0
 26 27  1  0
 27 28  2  0
 28 29  1  0
 29 30  2  0
 23 13  1  0
 30 25  1  0
 22 16  1  0
  1 31  1  0
  1 32  1  0
  1 33  1  0
  3 34  1  0
  3 35  1  0
  4 36  1  0
  4 37  1  0
  5 38  1  0
  5 39  1  0
  8 40  1  0
  9 41  1  0
  9 42  1  0
 10 43  1  0
 14 44  1  0
 15 45  1  0
 17 46  1  0
 20 47  1  0
 21 48  1  0
 24 49  1  0
 24 50  1  0
 26 51  1  0
 27 52  1  0
 28 53  1  0
 29 54  1  0
 30 55  1  0
M  END
>  <smiles>  (15) 
CN(CCCN=C(O)CNC(=O)c1ccc2cc(F)ccc2n1)Cc1ccccc1

>  <score_type>  (15) 
oracle

>  <origin>  (15) 
autodockgpu

>  <m_score__min__energy>  (15) 
-8.4000000000000004

>  <m_primary>  (15) 
energy

>  <rmsd>  (15) 
1.5830152672540911

>  <m_score__min__rmsd>  (15) 
1.5830152672540911

>  <meeko>  (15) 
{"free_energy": -7.8, "intermolecular_energy": -11.08, "internal_energy": -1.92, "cluster_size": 26, "cluster_id": 1, "rank_in_cluster": 6}

>  <energy>  (15) 
-7.55

>  <cluster_rmsd>  (15) 
1.99

>  <cluster>  (15) 
1

$$$$

     RDKit          3D

 55 57  0  0  0  0  0  0  0  0999 V2000
  138.9060   80.0200  221.0680 C   0  0  0  0  0  0  0  0  0  0  0  0
  138.8590   78.7460  221.7070 N   0  0  0  0  0  0  0  0  0  0  0  0
  137.6220   78.0220  221.5450 C   0  0  0  0  0  0  0  0  0  0  0  0
  137.3260   77.0230  222.6100 C   0  0  0  0  0  0  0  0  0  0  0  0
  137.8760   75.6380  222.3390 C   0  0  0  0  0  0  0  0  0  0  0  0
  138.9410   75.6310  221.3930 N   0  0  0  0  0  0  0  0  0  0  0  0
  140.0260   74.9690  221.6760 C   0  0  0  0  0  0  0  0  0  0  0  0
  139.8550   73.7500  222.3090 O   0  0  0  0  0  0  0  0  0  0  0  0
  141.3530   75.5360  221.3170 C   0  0  0  0  0  0  0  0  0  0  0  0
  141.3090   76.8340  220.7230 N   0  0  0  0  0  0  0  0  0  0  0  0
  142.3090   77.3700  219.8640 C   0  0  0  0  0  0  0  0  0  0  0  0
  143.3350   76.6850  219.5760 O   0  0  0  0  0  0  0  0  0  0  0  0
  142.1630   78.7190  219.3030 C   0  0  0  0  0  0  0  0  0  0  0  0
  142.4390   78.9240  217.9540 C   0  0  0  0  0  0  0  0  0  0  0  0
  142.2850   80.2030  217.4860 C   0  0  0  0  0  0  0  0  0  0  0  0
  141.8770   81.2640  218.2820 C   0  0  0  0  0  0  0  0  0  0  0  0
  141.7280   82.5390  217.7920 C   0  0  0  0  0  0  0  0  0  0  0  0
  141.3140   83.5680  218.6360 C   0  0  0  0  0  0  0  0  0  0  0  0
  141.1690   84.8350  218.1340 F   0  0  0  0  0  0  0  0  0  0  0  0
  141.0450   83.3360  219.9780 C   0  0  0  0  0  0  0  0  0  0  0  0
  141.2050   82.0450  220.4450 C   0  0  0  0  0  0  0  0  0  0  0  0
  141.6150   81.0110  219.6170 C   0  0  0  0  0  0  0  0  0  0  0  0
  141.7690   79.7490  220.0720 N   0  0  0  0  0  0  0  0  0  0  0  0
  139.1630   78.8930  223.1090 C   0  0  0  0  0  0  0  0  0  0  0  0
  140.4850   79.5910  223.2640 C   0  0  0  0  0  0  0  0  0  0  0  0
  141.6060   78.8200  222.9660 C   0  0  0  0  0  0  0  0  0  0  0  0
  142.8560   79.3870  223.0840 C   0  0  0  0  0  0  0  0  0  0  0  0
  142.9800   80.7050  223.4930 C   0  0  0  0  0  0  0  0  0  0  0  0
  141.8380   81.4490  223.7830 C   0  0  0  0  0  0  0  0  0  0  0  0
  140.5810   80.9020  223.6730 C   0  0  0  0  0  0  0  0  0  0  0  0
  138.9352   80.8120  221.8308 H   0  0  0  0  0  0  0  0  0  0  0  0
  139.8071   80.0822  220.4401 H   0  0  0  0  0  0  0  0  0  0  0  0
  138.0120   80.1485  220.4401 H   0  0  0  0  0  0  0  0  0  0  0  0
  136.8001   78.7529  221.5265 H   0  0  0  0  0  0  0  0  0  0  0  0
  137.7237   77.4503  220.6108 H   0  0  0  0  0  0  0  0  0  0  0  0
  137.7596   77.3869  223.5532 H   0  0  0  0  0  0  0  0  0  0  0  0
  136.2313   76.9235  222.6516 H   0  0  0  0  0  0  0  0  0  0  0  0
  138.2468   75.2180  223.2856 H   0  0  0  0  0  0  0  0  0  0  0  0
  137.0573   75.0394  221.9131 H   0  0  0  0  0  0  0  0  0  0  0  0
  139.1990   73.7350  223.0970 H   0  0  0  0  0  0  0  0  0  0  0  0
  141.9573   75.5996  222.2339 H   0  0  0  0  0  0  0  0  0  0  0  0
  141.7824   74.8635  220.5599 H   0  0  0  0  0  0  0  0  0  0  0  0
  140.4860   77.4890  220.9050 H   0  0  0  0  0  0  0  0  0  0  0  0
  142.7636   78.1027  217.2982 H   0  0  0  0  0  0  0  0  0  0  0  0
  142.4958   80.3986  216.4242 H   0  0  0  0  0  0  0  0  0  0  0  0
  141.9357   82.7479  216.7322 H   0  0  0  0  0  0  0  0  0  0  0  0
  140.7173   84.1480  220.6438 H   0  0  0  0  0  0  0  0  0  0  0  0
  141.0011   81.8315  221.5047 H   0  0  0  0  0  0  0  0  0  0  0  0
  138.3752   79.4875  223.5947 H   0  0  0  0  0  0  0  0  0  0  0  0
  139.2151   77.8999  223.5792 H   0  0  0  0  0  0  0  0  0  0  0  0
  141.4950   77.7748  222.6415 H   0  0  0  0  0  0  0  0  0  0  0  0
  143.7538   78.7946  222.8540 H   0  0  0  0  0  0  0  0  0  0  0  0
  143.9759   81.1622  223.5884 H   0  0  0  0  0  0  0  0  0  0  0  0
  141.9441   82.4950  224.1065 H   0  0  0  0  0  0  0  0  0  0  0  0
  139.6821   81.4924  223.9042 H   0  0  0  0  0  0  0  0  0  0  0  0
  1  2  1  0
  2  3  1  0
  3  4  1  0
  4  5  1  0
  5  6  1  0
  6  7  2  0
  7  8  1  0
  7  9  1  0
  9 10  1  0
 10 11  1  0
 11 12  2  0
 11 13  1  0
 13 14  2  0
 14 15  1  0
 15 16  2  0
 16 17  1  0
 17 18  2  0
 18 19  1  0
 18 20  1  0
 20 21  2  0
 21 22  1  0
 22 23  2  0
  2 24  1  0
 24 25  1  0
 25 26  2  0
 26 27  1  0
 27 28  2  0
 28 29  1  0
 29 30  2  0
 23 13  1  0
 30 25  1  0
 22 16  1  0
  1 31  1  0
  1 32  1  0
  1 33  1  0
  3 34  1  0
  3 35  1  0
  4 36  1  0
  4 37  1  0
  5 38  1  0
  5 39  1  0
  8 40  1  0
  9 41  1  0
  9 42  1  0
 10 43  1  0
 14 44  1  0
 15 45  1  0
 17 46  1  0
 20 47  1  0
 21 48  1  0
 24 49  1  0
 24 50  1  0
 26 51  1  0
 27 52  1  0
 28 53  1  0
 29 54  1  0
 30 55  1  0
M  END
>  <smiles>  (16) 
CN(CCCN=C(O)CNC(=O)c1ccc2cc(F)ccc2n1)Cc1ccccc1

>  <score_type>  (16) 
oracle

>  <origin>  (16) 
autodockgpu

>  <m_score__min__energy>  (16) 
-8.4000000000000004

>  <m_primary>  (16) 
energy

>  <rmsd>  (16) 
12.039576927436698

>  <m_score__min__rmsd>  (16) 
12.039576927436698

>  <meeko>  (16) 
{"free_energy": -5.62, "intermolecular_energy": -8.9, "internal_energy": -3.72, "cluster_size": 4, "cluster_id": 6, "rank_in_cluster": 2}

>  <energy>  (16) 
-7.48

>  <cluster_rmsd>  (16) 
1.77

>  <cluster>  (16) 
1

$$$$

     RDKit          3D

 55 57  0  0  0  0  0  0  0  0999 V2000
  138.0610   71.1220  224.0990 C   0  0  0  0  0  0  0  0  0  0  0  0
  139.4150   70.8230  223.7660 N   0  0  0  0  0  0  0  0  0  0  0  0
  139.6350   70.4070  222.4030 C   0  0  0  0  0  0  0  0  0  0  0  0
  140.4330   71.3510  221.5700 C   0  0  0  0  0  0  0  0  0  0  0  0
  139.6650   71.9710  220.4200 C   0  0  0  0  0  0  0  0  0  0  0  0
  139.7180   73.3940  220.4100 N   0  0  0  0  0  0  0  0  0  0  0  0
  138.9770   74.0560  221.2510 C   0  0  0  0  0  0  0  0  0  0  0  0
  139.5780   74.4210  222.4440 O   0  0  0  0  0  0  0  0  0  0  0  0
  137.5680   74.3770  220.9020 C   0  0  0  0  0  0  0  0  0  0  0  0
  136.6340   74.2150  221.9720 N   0  0  0  0  0  0  0  0  0  0  0  0
  136.4920   75.1090  223.0690 C   0  0  0  0  0  0  0  0  0  0  0  0
  137.2250   76.1390  223.1520 O   0  0  0  0  0  0  0  0  0  0  0  0
  135.4940   74.8490  224.1150 C   0  0  0  0  0  0  0  0  0  0  0  0
  135.0250   75.9130  224.8810 C   0  0  0  0  0  0  0  0  0  0  0  0
  134.0950   75.6110  225.8420 C   0  0  0  0  0  0  0  0  0  0  0  0
  133.6230   74.3270  226.0700 C   0  0  0  0  0  0  0  0  0  0  0  0
  132.6890   74.0450  227.0390 C   0  0  0  0  0  0  0  0  0  0  0  0
  132.2480   72.7360  227.2240 C   0  0  0  0  0  0  0  0  0  0  0  0
  131.3150   72.4700  228.1940 F   0  0  0  0  0  0  0  0  0  0  0  0
  132.7320   71.6940  226.4460 C   0  0  0  0  0  0  0  0  0  0  0  0
  133.6710   72.0040  225.4810 C   0  0  0  0  0  0  0  0  0  0  0  0
  134.1200   73.3020  225.2840 C   0  0  0  0  0  0  0  0  0  0  0  0
  135.0350   73.6060  224.3390 N   0  0  0  0  0  0  0  0  0  0  0  0
  139.9330   69.8310  224.6750 C   0  0  0  0  0  0  0  0  0  0  0  0
  140.2390   70.4740  225.9980 C   0  0  0  0  0  0  0  0  0  0  0  0
  141.0590   71.5980  225.9400 C   0  0  0  0  0  0  0  0  0  0  0  0
  141.3860   72.2460  227.1110 C   0  0  0  0  0  0  0  0  0  0  0  0
  140.9000   71.7740  228.3190 C   0  0  0  0  0  0  0  0  0  0  0  0
  140.0820   70.6460  228.3430 C   0  0  0  0  0  0  0  0  0  0  0  0
  139.7440   69.9850  227.1850 C   0  0  0  0  0  0  0  0  0  0  0  0
  137.9493   71.1467  225.1930 H   0  0  0  0  0  0  0  0  0  0  0  0
  137.7883   72.1020  223.6804 H   0  0  0  0  0  0  0  0  0  0  0  0
  137.4010   70.3480  223.6804 H   0  0  0  0  0  0  0  0  0  0  0  0
  140.1627   69.4420  222.4231 H   0  0  0  0  0  0  0  0  0  0  0  0
  138.6403   70.3556  221.9362 H   0  0  0  0  0  0  0  0  0  0  0  0
  140.7949   72.1618  222.2193 H   0  0  0  0  0  0  0  0  0  0  0  0
  141.2491   70.7640  221.1234 H   0  0  0  0  0  0  0  0  0  0  0  0
  140.0895   71.5991  219.4758 H   0  0  0  0  0  0  0  0  0  0  0  0
  138.6097   71.6849  220.5409 H   0  0  0  0  0  0  0  0  0  0  0  0
  138.9780   74.8890  223.1300 H   0  0  0  0  0  0  0  0  0  0  0  0
  137.5281   75.4245  220.5685 H   0  0  0  0  0  0  0  0  0  0  0  0
  137.2715   73.6615  220.1209 H   0  0  0  0  0  0  0  0  0  0  0  0
  135.9730   73.3790  221.9940 H   0  0  0  0  0  0  0  0  0  0  0  0
  135.3818   76.9415  224.7234 H   0  0  0  0  0  0  0  0  0  0  0  0
  133.7031   76.4291  226.4642 H   0  0  0  0  0  0  0  0  0  0  0  0
  132.2895   74.8535  227.6688 H   0  0  0  0  0  0  0  0  0  0  0  0
  132.3818   70.6615  226.5918 H   0  0  0  0  0  0  0  0  0  0  0  0
  134.0745   71.1981  224.8504 H   0  0  0  0  0  0  0  0  0  0  0  0
  139.1843   69.0378  224.8174 H   0  0  0  0  0  0  0  0  0  0  0  0
  140.8532   69.3964  224.2574 H   0  0  0  0  0  0  0  0  0  0  0  0
  141.4396   71.9627  224.9745 H   0  0  0  0  0  0  0  0  0  0  0  0
  142.0316   73.1363  227.0866 H   0  0  0  0  0  0  0  0  0  0  0  0
  141.1589   72.2879  229.2565 H   0  0  0  0  0  0  0  0  0  0  0  0
  139.6994   70.2773  229.3062 H   0  0  0  0  0  0  0  0  0  0  0  0
  139.0989   69.0943  227.2072 H   0  0  0  0  0  0  0  0  0  0  0  0
  1  2  1  0
  2  3  1  0
  3  4  1  0
  4  5  1  0
  5  6  1  0
  6  7  2  0
  7  8  1  0
  7  9  1  0
  9 10  1  0
 10 11  1  0
 11 12  2  0
 11 13  1  0
 13 14  2  0
 14 15  1  0
 15 16  2  0
 16 17  1  0
 17 18  2  0
 18 19  1  0
 18 20  1  0
 20 21  2  0
 21 22  1  0
 22 23  2  0
  2 24  1  0
 24 25  1  0
 25 26  2  0
 26 27  1  0
 27 28  2  0
 28 29  1  0
 29 30  2  0
 23 13  1  0
 30 25  1  0
 22 16  1  0
  1 31  1  0
  1 32  1  0
  1 33  1  0
  3 34  1  0
  3 35  1  0
  4 36  1  0
  4 37  1  0
  5 38  1  0
  5 39  1  0
  8 40  1  0
  9 41  1  0
  9 42  1  0
 10 43  1  0
 14 44  1  0
 15 45  1  0
 17 46  1  0
 20 47  1  0
 21 48  1  0
 24 49  1  0
 24 50  1  0
 26 51  1  0
 27 52  1  0
 28 53  1  0
 29 54  1  0
 30 55  1  0
M  END
>  <smiles>  (17) 
CN(CCCN=C(O)CNC(=O)c1ccc2cc(F)ccc2n1)Cc1ccccc1

>  <score_type>  (17) 
oracle

>  <origin>  (17) 
autodockgpu

>  <m_score__min__energy>  (17) 
-8.4000000000000004

>  <m_primary>  (17) 
energy

>  <rmsd>  (17) 
7.130110460261079

>  <m_score__min__rmsd>  (17) 
7.130110460261079

>  <meeko>  (17) 
{"free_energy": -6.52, "intermolecular_energy": -9.8, "internal_energy": -2.39, "cluster_size": 3, "cluster_id": 4, "rank_in_cluster": 3}

>  <energy>  (17) 
-7.37

>  <cluster_rmsd>  (17) 
1.84

>  <cluster>  (17) 
1

$$$$

     RDKit          3D

 55 57  0  0  0  0  0  0  0  0999 V2000
  142.5550   81.2420  218.1350 C   0  0  0  0  0  0  0  0  0  0  0  0
  142.2070   80.3310  219.1770 N   0  0  0  0  0  0  0  0  0  0  0  0
  141.5920   79.1020  218.7390 C   0  0  0  0  0  0  0  0  0  0  0  0
  142.1740   77.8590  219.3190 C   0  0  0  0  0  0  0  0  0  0  0  0
  141.1480   76.8390  219.7690 C   0  0  0  0  0  0  0  0  0  0  0  0
  141.5810   75.4930  219.6040 N   0  0  0  0  0  0  0  0  0  0  0  0
  141.3610   74.6410  220.5620 C   0  0  0  0  0  0  0  0  0  0  0  0
  142.4270   73.8350  220.9250 O   0  0  0  0  0  0  0  0  0  0  0  0
  140.0200   74.5770  221.2020 C   0  0  0  0  0  0  0  0  0  0  0  0
  139.9170   73.6490  222.2840 N   0  0  0  0  0  0  0  0  0  0  0  0
  140.2470   72.2670  222.2050 C   0  0  0  0  0  0  0  0  0  0  0  0
  140.6680   71.7730  221.1170 O   0  0  0  0  0  0  0  0  0  0  0  0
  140.1060   71.4010  223.3830 C   0  0  0  0  0  0  0  0  0  0  0  0
  139.5380   70.1390  223.2300 C   0  0  0  0  0  0  0  0  0  0  0  0
  139.4320   69.3750  224.3620 C   0  0  0  0  0  0  0  0  0  0  0  0
  139.8570   69.8000  225.6130 C   0  0  0  0  0  0  0  0  0  0  0  0
  139.7430   69.0180  226.7370 C   0  0  0  0  0  0  0  0  0  0  0  0
  140.1880   69.4950  227.9680 C   0  0  0  0  0  0  0  0  0  0  0  0
  140.0680   68.7020  229.0810 F   0  0  0  0  0  0  0  0  0  0  0  0
  140.7510   70.7570  228.0930 C   0  0  0  0  0  0  0  0  0  0  0  0
  140.8530   71.5240  226.9480 C   0  0  0  0  0  0  0  0  0  0  0  0
  140.4150   71.0630  225.7150 C   0  0  0  0  0  0  0  0  0  0  0  0
  140.5160   71.8100  224.5960 N   0  0  0  0  0  0  0  0  0  0  0  0
  141.3590   80.9920  220.1370 C   0  0  0  0  0  0  0  0  0  0  0  0
  141.4280   80.2660  221.4510 C   0  0  0  0  0  0  0  0  0  0  0  0
  142.5750   80.5010  222.2040 C   0  0  0  0  0  0  0  0  0  0  0  0
  142.7150   79.8720  223.4210 C   0  0  0  0  0  0  0  0  0  0  0  0
  141.7210   79.0210  223.8760 C   0  0  0  0  0  0  0  0  0  0  0  0
  140.5840   78.8080  223.0990 C   0  0  0  0  0  0  0  0  0  0  0  0
  140.4260   79.4250  221.8800 C   0  0  0  0  0  0  0  0  0  0  0  0
  142.9146   82.1834  218.5759 H   0  0  0  0  0  0  0  0  0  0  0  0
  143.3483   80.8019  217.5130 H   0  0  0  0  0  0  0  0  0  0  0  0
  141.6703   81.4429  217.5130 H   0  0  0  0  0  0  0  0  0  0  0  0
  140.5270   79.1384  219.0118 H   0  0  0  0  0  0  0  0  0  0  0  0
  141.7663   79.0432  217.6545 H   0  0  0  0  0  0  0  0  0  0  0  0
  142.8138   77.3904  218.5568 H   0  0  0  0  0  0  0  0  0  0  0  0
  142.7306   78.1625  220.2180 H   0  0  0  0  0  0  0  0  0  0  0  0
  140.9319   77.0080  220.8342 H   0  0  0  0  0  0  0  0  0  0  0  0
  140.2569   76.9738  219.1383 H   0  0  0  0  0  0  0  0  0  0  0  0
  142.2950   72.8260  220.8040 H   0  0  0  0  0  0  0  0  0  0  0  0
  139.7755   75.5786  221.5855 H   0  0  0  0  0  0  0  0  0  0  0  0
  139.3226   74.2277  220.4264 H   0  0  0  0  0  0  0  0  0  0  0  0
  139.5710   73.9670  223.2410 H   0  0  0  0  0  0  0  0  0  0  0  0
  139.1925   69.7746  222.2513 H   0  0  0  0  0  0  0  0  0  0  0  0
  138.9870   68.3728  224.2750 H   0  0  0  0  0  0  0  0  0  0  0  0
  139.2997   68.0139  226.6648 H   0  0  0  0  0  0  0  0  0  0  0  0
  141.1024   71.1323  229.0655 H   0  0  0  0  0  0  0  0  0  0  0  0
  141.2943   72.5293  227.0162 H   0  0  0  0  0  0  0  0  0  0  0  0
  141.6986   82.0294  220.2731 H   0  0  0  0  0  0  0  0  0  0  0  0
  140.3214   80.9905  219.7716 H   0  0  0  0  0  0  0  0  0  0  0  0
  143.3576   81.1788  221.8325 H   0  0  0  0  0  0  0  0  0  0  0  0
  143.6142   80.0449  224.0306 H   0  0  0  0  0  0  0  0  0  0  0  0
  141.8288   78.5154  224.8469 H   0  0  0  0  0  0  0  0  0  0  0  0
  139.7975   78.1332  223.4678 H   0  0  0  0  0  0  0  0  0  0  0  0
  139.5285   79.2522  221.2679 H   0  0  0  0  0  0  0  0  0  0  0  0
  1  2  1  0
  2  3  1  0
  3  4  1  0
  4  5  1  0
  5  6  1  0
  6  7  2  0
  7  8  1  0
  7  9  1  0
  9 10  1  0
 10 11  1  0
 11 12  2  0
 11 13  1  0
 13 14  2  0
 14 15  1  0
 15 16  2  0
 16 17  1  0
 17 18  2  0
 18 19  1  0
 18 20  1  0
 20 21  2  0
 21 22  1  0
 22 23  2  0
  2 24  1  0
 24 25  1  0
 25 26  2  0
 26 27  1  0
 27 28  2  0
 28 29  1  0
 29 30  2  0
 23 13  1  0
 30 25  1  0
 22 16  1  0
  1 31  1  0
  1 32  1  0
  1 33  1  0
  3 34  1  0
  3 35  1  0
  4 36  1  0
  4 37  1  0
  5 38  1  0
  5 39  1  0
  8 40  1  0
  9 41  1  0
  9 42  1  0
 10 43  1  0
 14 44  1  0
 15 45  1  0
 17 46  1  0
 20 47  1  0
 21 48  1  0
 24 49  1  0
 24 50  1  0
 26 51  1  0
 27 52  1  0
 28 53  1  0
 29 54  1  0
 30 55  1  0
M  END
>  <smiles>  (18) 
CN(CCCN=C(O)CNC(=O)c1ccc2cc(F)ccc2n1)Cc1ccccc1

>  <score_type>  (18) 
oracle

>  <origin>  (18) 
autodockgpu

>  <m_score__min__energy>  (18) 
-8.4000000000000004

>  <m_primary>  (18) 
energy

>  <rmsd>  (18) 
1.3239882629366204

>  <m_score__min__rmsd>  (18) 
1.3239882629366204

>  <meeko>  (18) 
{"free_energy": -7.01, "intermolecular_energy": -10.29, "internal_energy": -2.04, "cluster_size": 26, "cluster_id": 1, "rank_in_cluster": 24}

>  <energy>  (18) 
-7.37

>  <cluster_rmsd>  (18) 
1.14

>  <cluster>  (18) 
1

$$$$

     RDKit          3D

 55 57  0  0  0  0  0  0  0  0999 V2000
  140.7000   76.4730  222.2530 C   0  0  0  0  0  0  0  0  0  0  0  0
  139.3810   77.0110  222.1780 N   0  0  0  0  0  0  0  0  0  0  0  0
  138.9360   77.3630  220.8520 C   0  0  0  0  0  0  0  0  0  0  0  0
  139.4430   76.4880  219.7580 C   0  0  0  0  0  0  0  0  0  0  0  0
  138.3860   75.6140  219.1150 C   0  0  0  0  0  0  0  0  0  0  0  0
  137.4550   75.0770  220.0490 N   0  0  0  0  0  0  0  0  0  0  0  0
  137.8870   74.2620  220.9680 C   0  0  0  0  0  0  0  0  0  0  0  0
  137.8690   74.7370  222.2680 O   0  0  0  0  0  0  0  0  0  0  0  0
  138.3640   72.9060  220.5890 C   0  0  0  0  0  0  0  0  0  0  0  0
  138.6050   72.0260  221.6890 N   0  0  0  0  0  0  0  0  0  0  0  0
  139.5540   72.2590  222.7240 C   0  0  0  0  0  0  0  0  0  0  0  0
  140.2640   73.3090  222.7130 O   0  0  0  0  0  0  0  0  0  0  0  0
  139.7190   71.2890  223.8130 C   0  0  0  0  0  0  0  0  0  0  0  0
  139.3530   69.9620  223.5990 C   0  0  0  0  0  0  0  0  0  0  0  0
  139.5300   69.1020  224.6510 C   0  0  0  0  0  0  0  0  0  0  0  0
  140.0430   69.4930  225.8800 C   0  0  0  0  0  0  0  0  0  0  0  0
  140.2140   68.6140  226.9220 C   0  0  0  0  0  0  0  0  0  0  0  0
  140.7350   69.0600  228.1340 C   0  0  0  0  0  0  0  0  0  0  0  0
  140.9000   68.1720  229.1650 F   0  0  0  0  0  0  0  0  0  0  0  0
  141.0920   70.3880  228.3220 C   0  0  0  0  0  0  0  0  0  0  0  0
  140.9090   71.2520  227.2580 C   0  0  0  0  0  0  0  0  0  0  0  0
  140.3920   70.8230  226.0440 C   0  0  0  0  0  0  0  0  0  0  0  0
  140.2160   71.6640  225.0050 N   0  0  0  0  0  0  0  0  0  0  0  0
  139.2690   78.1490  223.0550 C   0  0  0  0  0  0  0  0  0  0  0  0
  140.5290   78.9650  222.9820 C   0  0  0  0  0  0  0  0  0  0  0  0
  140.6980   79.6990  221.8110 C   0  0  0  0  0  0  0  0  0  0  0  0
  141.8290   80.4730  221.6660 C   0  0  0  0  0  0  0  0  0  0  0  0
  142.7730   80.5100  222.6790 C   0  0  0  0  0  0  0  0  0  0  0  0
  142.5740   79.7640  223.8380 C   0  0  0  0  0  0  0  0  0  0  0  0
  141.4530   78.9840  224.0020 C   0  0  0  0  0  0  0  0  0  0  0  0
  140.9885   76.3553  223.3079 H   0  0  0  0  0  0  0  0  0  0  0  0
  140.7251   75.4928  221.7545 H   0  0  0  0  0  0  0  0  0  0  0  0
  141.4035   77.1560  221.7545 H   0  0  0  0  0  0  0  0  0  0  0  0
  137.8369   77.3204  220.8397 H   0  0  0  0  0  0  0  0  0  0  0  0
  139.3400   78.3663  220.6515 H   0  0  0  0  0  0  0  0  0  0  0  0
  139.8795   77.1298  218.9785 H   0  0  0  0  0  0  0  0  0  0  0  0
  140.1773   75.8081  220.2146 H   0  0  0  0  0  0  0  0  0  0  0  0
  137.8340   76.2175  218.3794 H   0  0  0  0  0  0  0  0  0  0  0  0
  138.9056   74.7645  218.6477 H   0  0  0  0  0  0  0  0  0  0  0  0
  138.7810   74.9020  222.7040 H   0  0  0  0  0  0  0  0  0  0  0  0
  137.6037   72.4444  219.9418 H   0  0  0  0  0  0  0  0  0  0  0  0
  139.3329   73.0476  220.0879 H   0  0  0  0  0  0  0  0  0  0  0  0
  138.0590   71.1160  221.7870 H   0  0  0  0  0  0  0  0  0  0  0  0
  138.9435   69.6224  222.6362 H   0  0  0  0  0  0  0  0  0  0  0  0
  139.2510   68.0468  224.5144 H   0  0  0  0  0  0  0  0  0  0  0  0
  139.9389   67.5561  226.7987 H   0  0  0  0  0  0  0  0  0  0  0  0
  141.5042   70.7393  229.2795 H   0  0  0  0  0  0  0  0  0  0  0  0
  141.1814   72.3110  227.3776 H   0  0  0  0  0  0  0  0  0  0  0  0
  138.4135   78.7674  222.7456 H   0  0  0  0  0  0  0  0  0  0  0  0
  139.1168   77.8020  224.0876 H   0  0  0  0  0  0  0  0  0  0  0  0
  139.9407   79.6617  221.0141 H   0  0  0  0  0  0  0  0  0  0  0  0
  141.9817   81.0599  220.7482 H   0  0  0  0  0  0  0  0  0  0  0  0
  143.6771   81.1268  222.5683 H   0  0  0  0  0  0  0  0  0  0  0  0
  143.3281   79.7992  224.6380 H   0  0  0  0  0  0  0  0  0  0  0  0
  141.3000   78.3948  224.9182 H   0  0  0  0  0  0  0  0  0  0  0  0
  1  2  1  0
  2  3  1  0
  3  4  1  0
  4  5  1  0
  5  6  1  0
  6  7  2  0
  7  8  1  0
  7  9  1  0
  9 10  1  0
 10 11  1  0
 11 12  2  0
 11 13  1  0
 13 14  2  0
 14 15  1  0
 15 16  2  0
 16 17  1  0
 17 18  2  0
 18 19  1  0
 18 20  1  0
 20 21  2  0
 21 22  1  0
 22 23  2  0
  2 24  1  0
 24 25  1  0
 25 26  2  0
 26 27  1  0
 27 28  2  0
 28 29  1  0
 29 30  2  0
 23 13  1  0
 30 25  1  0
 22 16  1  0
  1 31  1  0
  1 32  1  0
  1 33  1  0
  3 34  1  0
  3 35  1  0
  4 36  1  0
  4 37  1  0
  5 38  1  0
  5 39  1  0
  8 40  1  0
  9 41  1  0
  9 42  1  0
 10 43  1  0
 14 44  1  0
 15 45  1  0
 17 46  1  0
 20 47  1  0
 21 48  1  0
 24 49  1  0
 24 50  1  0
 26 51  1  0
 27 52  1  0
 28 53  1  0
 29 54  1  0
 30 55  1  0
M  END
>  <smiles>  (19) 
CN(CCCN=C(O)CNC(=O)c1ccc2cc(F)ccc2n1)Cc1ccccc1

>  <score_type>  (19) 
oracle

>  <origin>  (19) 
autodockgpu

>  <m_score__min__energy>  (19) 
-8.4000000000000004

>  <m_primary>  (19) 
energy

>  <rmsd>  (19) 
1.2642267687960178

>  <m_score__min__rmsd>  (19) 
1.2642267687960178

>  <meeko>  (19) 
{"free_energy": -6.82, "intermolecular_energy": -10.1, "internal_energy": -2.4, "cluster_size": 26, "cluster_id": 1, "rank_in_cluster": 25}

>  <energy>  (19) 
-7.25

>  <cluster_rmsd>  (19) 
0.92

>  <cluster>  (19) 
1

$$$$

     RDKit          3D

 55 57  0  0  0  0  0  0  0  0999 V2000
  142.2030   79.1920  218.2630 C   0  0  0  0  0  0  0  0  0  0  0  0
  142.2460   78.2640  219.3450 N   0  0  0  0  0  0  0  0  0  0  0  0
  142.3470   76.8770  218.9620 C   0  0  0  0  0  0  0  0  0  0  0  0
  142.4950   75.9160  220.0910 C   0  0  0  0  0  0  0  0  0  0  0  0
  141.4650   74.8060  220.1070 C   0  0  0  0  0  0  0  0  0  0  0  0
  140.1720   75.2430  220.5140 N   0  0  0  0  0  0  0  0  0  0  0  0
  139.6090   74.6690  221.5380 C   0  0  0  0  0  0  0  0  0  0  0  0
  139.5740   75.4040  222.7110 O   0  0  0  0  0  0  0  0  0  0  0  0
  139.0500   73.2980  221.4030 C   0  0  0  0  0  0  0  0  0  0  0  0
  139.2630   72.4510  222.5330 N   0  0  0  0  0  0  0  0  0  0  0  0
  139.0750   71.0400  222.5390 C   0  0  0  0  0  0  0  0  0  0  0  0
  138.6900   70.4440  221.4890 O   0  0  0  0  0  0  0  0  0  0  0  0
  139.3260   70.2610  223.7590 C   0  0  0  0  0  0  0  0  0  0  0  0
  138.9410   68.9240  223.7990 C   0  0  0  0  0  0  0  0  0  0  0  0
  139.2010   68.2480  224.9610 C   0  0  0  0  0  0  0  0  0  0  0  0
  139.8130   68.8290  226.0630 C   0  0  0  0  0  0  0  0  0  0  0  0
  140.0660   68.1320  227.2200 C   0  0  0  0  0  0  0  0  0  0  0  0
  140.6860   68.7650  228.2960 C   0  0  0  0  0  0  0  0  0  0  0  0
  140.9320   68.0580  229.4440 F   0  0  0  0  0  0  0  0  0  0  0  0
  141.0610   70.1000  228.2290 C   0  0  0  0  0  0  0  0  0  0  0  0
  140.7940   70.7780  227.0550 C   0  0  0  0  0  0  0  0  0  0  0  0
  140.1780   70.1620  225.9750 C   0  0  0  0  0  0  0  0  0  0  0  0
  139.9190   70.8220  224.8270 N   0  0  0  0  0  0  0  0  0  0  0  0
  141.1000   78.4590  220.1980 C   0  0  0  0  0  0  0  0  0  0  0  0
  141.5500   78.9940  221.5280 C   0  0  0  0  0  0  0  0  0  0  0  0
  142.1530   80.2490  221.4930 C   0  0  0  0  0  0  0  0  0  0  0  0
  142.5940   80.8100  222.6720 C   0  0  0  0  0  0  0  0  0  0  0  0
  142.4330   80.1250  223.8640 C   0  0  0  0  0  0  0  0  0  0  0  0
  141.8250   78.8710  223.8650 C   0  0  0  0  0  0  0  0  0  0  0  0
  141.3790   78.2930  222.7000 C   0  0  0  0  0  0  0  0  0  0  0  0
  142.1555   80.2166  218.6604 H   0  0  0  0  0  0  0  0  0  0  0  0
  143.1073   79.0792  217.6470 H   0  0  0  0  0  0  0  0  0  0  0  0
  141.3130   78.9960  217.6470 H   0  0  0  0  0  0  0  0  0  0  0  0
  141.4363   76.6105  218.4055 H   0  0  0  0  0  0  0  0  0  0  0  0
  143.2674   76.7913  218.3657 H   0  0  0  0  0  0  0  0  0  0  0  0
  143.4930   75.4583  220.0245 H   0  0  0  0  0  0  0  0  0  0  0  0
  142.3486   76.4933  221.0158 H   0  0  0  0  0  0  0  0  0  0  0  0
  141.3885   74.3861  219.0932 H   0  0  0  0  0  0  0  0  0  0  0  0
  141.8024   74.0591  220.8407 H   0  0  0  0  0  0  0  0  0  0  0  0
  138.9510   75.0560  223.4460 H   0  0  0  0  0  0  0  0  0  0  0  0
  137.9656   73.3850  221.2400 H   0  0  0  0  0  0  0  0  0  0  0  0
  139.5791   72.8292  220.5602 H   0  0  0  0  0  0  0  0  0  0  0  0
  139.5870   72.8570  223.4650 H   0  0  0  0  0  0  0  0  0  0  0  0
  138.4535   68.4361  222.9421 H   0  0  0  0  0  0  0  0  0  0  0  0
  138.9097   67.1892  225.0245 H   0  0  0  0  0  0  0  0  0  0  0  0
  139.7788   67.0730  227.2971 H   0  0  0  0  0  0  0  0  0  0  0  0
  141.5517   70.5988  229.0778 H   0  0  0  0  0  0  0  0  0  0  0  0
  141.0783   71.8376  226.9742 H   0  0  0  0  0  0  0  0  0  0  0  0
  140.4113   79.1766  219.7282 H   0  0  0  0  0  0  0  0  0  0  0  0
  140.5849   77.4982  220.3449 H   0  0  0  0  0  0  0  0  0  0  0  0
  142.2753   80.7838  220.5396 H   0  0  0  0  0  0  0  0  0  0  0  0
  143.0730   81.8002  222.6658 H   0  0  0  0  0  0  0  0  0  0  0  0
  142.7838   80.5690  224.8073 H   0  0  0  0  0  0  0  0  0  0  0  0
  141.6995   78.3332  224.8163 H   0  0  0  0  0  0  0  0  0  0  0  0
  140.9009   77.3023  222.7045 H   0  0  0  0  0  0  0  0  0  0  0  0
  1  2  1  0
  2  3  1  0
  3  4  1  0
  4  5  1  0
  5  6  1  0
  6  7  2  0
  7  8  1  0
  7  9  1  0
  9 10  1  0
 10 11  1  0
 11 12  2  0
 11 13  1  0
 13 14  2  0
 14 15  1  0
 15 16  2  0
 16 17  1  0
 17 18  2  0
 18 19  1  0
 18 20  1  0
 20 21  2  0
 21 22  1  0
 22 23  2  0
  2 24  1  0
 24 25  1  0
 25 26  2  0
 26 27  1  0
 27 28  2  0
 28 29  1  0
 29 30  2  0
 23 13  1  0
 30 25  1  0
 22 16  1  0
  1 31  1  0
  1 32  1  0
  1 33  1  0
  3 34  1  0
  3 35  1  0
  4 36  1  0
  4 37  1  0
  5 38  1  0
  5 39  1  0
  8 40  1  0
  9 41  1  0
  9 42  1  0
 10 43  1  0
 14 44  1  0
 15 45  1  0
 17 46  1  0
 20 47  1  0
 21 48  1  0
 24 49  1  0
 24 50  1  0
 26 51  1  0
 27 52  1  0
 28 53  1  0
 29 54  1  0
 30 55  1  0
M  END
>  <smiles>  (20) 
CN(CCCN=C(O)CNC(=O)c1ccc2cc(F)ccc2n1)Cc1ccccc1

>  <score_type>  (20) 
oracle

>  <origin>  (20) 
autodockgpu

>  <m_score__min__energy>  (20) 
-8.4000000000000004

>  <m_primary>  (20) 
energy

>  <rmsd>  (20) 
0.8987843342068311

>  <m_score__min__rmsd>  (20) 
0.8987843342068311

>  <meeko>  (20) 
{"free_energy": -7.86, "intermolecular_energy": -11.14, "internal_energy": -1.74, "cluster_size": 26, "cluster_id": 1, "rank_in_cluster": 5}

>  <energy>  (20) 
-7.24

>  <cluster_rmsd>  (20) 
1.11

>  <cluster>  (20) 
1

$$$$

     RDKit          3D

 55 57  0  0  0  0  0  0  0  0999 V2000
  142.0020   77.8980  218.1460 C   0  0  0  0  0  0  0  0  0  0  0  0
  142.2770   77.8530  219.5450 N   0  0  0  0  0  0  0  0  0  0  0  0
  142.6900   76.5670  220.0490 C   0  0  0  0  0  0  0  0  0  0  0  0
  142.5420   75.4320  219.0940 C   0  0  0  0  0  0  0  0  0  0  0  0
  141.1720   74.7850  219.1010 C   0  0  0  0  0  0  0  0  0  0  0  0
  140.3810   75.1530  220.2270 N   0  0  0  0  0  0  0  0  0  0  0  0
  140.1010   74.2490  221.1200 C   0  0  0  0  0  0  0  0  0  0  0  0
  139.6860   74.7140  222.3560 O   0  0  0  0  0  0  0  0  0  0  0  0
  140.2370   72.8080  220.7810 C   0  0  0  0  0  0  0  0  0  0  0  0
  140.3150   71.9320  221.9080 N   0  0  0  0  0  0  0  0  0  0  0  0
  139.2400   71.6530  222.7970 C   0  0  0  0  0  0  0  0  0  0  0  0
  138.1090   72.1980  222.6220 O   0  0  0  0  0  0  0  0  0  0  0  0
  139.4280   70.7320  223.9250 C   0  0  0  0  0  0  0  0  0  0  0  0
  138.9530   69.4270  223.8200 C   0  0  0  0  0  0  0  0  0  0  0  0
  139.1570   68.6130  224.9030 C   0  0  0  0  0  0  0  0  0  0  0  0
  139.7980   69.0290  226.0610 C   0  0  0  0  0  0  0  0  0  0  0  0
  139.9930   68.1950  227.1360 C   0  0  0  0  0  0  0  0  0  0  0  0
  140.6450   68.6650  228.2740 C   0  0  0  0  0  0  0  0  0  0  0  0
  140.8340   67.8220  229.3390 F   0  0  0  0  0  0  0  0  0  0  0  0
  141.1100   69.9700  228.3540 C   0  0  0  0  0  0  0  0  0  0  0  0
  140.9000   70.7880  227.2590 C   0  0  0  0  0  0  0  0  0  0  0  0
  140.2520   70.3350  226.1190 C   0  0  0  0  0  0  0  0  0  0  0  0
  140.0490   71.1320  225.0490 N   0  0  0  0  0  0  0  0  0  0  0  0
  141.1320   78.3270  220.2820 C   0  0  0  0  0  0  0  0  0  0  0  0
  141.5910   78.9980  221.5450 C   0  0  0  0  0  0  0  0  0  0  0  0
  141.4000   78.2650  222.7140 C   0  0  0  0  0  0  0  0  0  0  0  0
  141.7950   78.8110  223.9160 C   0  0  0  0  0  0  0  0  0  0  0  0
  142.3700   80.0710  223.9450 C   0  0  0  0  0  0  0  0  0  0  0  0
  142.5470   80.7780  222.7580 C   0  0  0  0  0  0  0  0  0  0  0  0
  142.1600   80.2510  221.5480 C   0  0  0  0  0  0  0  0  0  0  0  0
  140.9276   78.0738  217.9890 H   0  0  0  0  0  0  0  0  0  0  0  0
  142.5783   78.7138  217.6851 H   0  0  0  0  0  0  0  0  0  0  0  0
  142.2881   76.9411  217.6851 H   0  0  0  0  0  0  0  0  0  0  0  0
  143.7507   76.6373  220.3318 H   0  0  0  0  0  0  0  0  0  0  0  0
  142.0229   76.3427  220.8944 H   0  0  0  0  0  0  0  0  0  0  0  0
  142.7403   75.8076  218.0793 H   0  0  0  0  0  0  0  0  0  0  0  0
  143.2569   74.6585  219.4112 H   0  0  0  0  0  0  0  0  0  0  0  0
  140.6392   75.0856  218.1868 H   0  0  0  0  0  0  0  0  0  0  0  0
  141.3257   73.6970  219.1523 H   0  0  0  0  0  0  0  0  0  0  0  0
  138.9510   74.1730  222.8210 H   0  0  0  0  0  0  0  0  0  0  0  0
  139.3645   72.5142  220.1789 H   0  0  0  0  0  0  0  0  0  0  0  0
  141.1905   72.7052  220.2422 H   0  0  0  0  0  0  0  0  0  0  0  0
  141.2240   71.4260  222.1410 H   0  0  0  0  0  0  0  0  0  0  0  0
  138.4408   69.0686  222.9149 H   0  0  0  0  0  0  0  0  0  0  0  0
  138.7938   67.5760  224.8517 H   0  0  0  0  0  0  0  0  0  0  0  0
  139.6341   67.1559  227.0978 H   0  0  0  0  0  0  0  0  0  0  0  0
  141.6253   70.3392  229.2530 H   0  0  0  0  0  0  0  0  0  0  0  0
  141.2570   71.8279  227.2928 H   0  0  0  0  0  0  0  0  0  0  0  0
  140.5727   79.0472  219.6668 H   0  0  0  0  0  0  0  0  0  0  0  0
  140.4814   77.4767  220.5346 H   0  0  0  0  0  0  0  0  0  0  0  0
  140.9410   77.2660  222.6782 H   0  0  0  0  0  0  0  0  0  0  0  0
  141.6541   78.2477  224.8502 H   0  0  0  0  0  0  0  0  0  0  0  0
  142.6857   80.5117  224.9022 H   0  0  0  0  0  0  0  0  0  0  0  0
  143.0053   81.7775  222.7890 H   0  0  0  0  0  0  0  0  0  0  0  0
  142.3008   80.8129  220.6129 H   0  0  0  0  0  0  0  0  0  0  0  0
  1  2  1  0
  2  3  1  0
  3  4  1  0
  4  5  1  0
  5  6  1  0
  6  7  2  0
  7  8  1  0
  7  9  1  0
  9 10  1  0
 10 11  1  0
 11 12  2  0
 11 13  1  0
 13 14  2  0
 14 15  1  0
 15 16  2  0
 16 17  1  0
 17 18  2  0
 18 19  1  0
 18 20  1  0
 20 21  2  0
 21 22  1  0
 22 23  2  0
  2 24  1  0
 24 25  1  0
 25 26  2  0
 26 27  1  0
 27 28  2  0
 28 29  1  0
 29 30  2  0
 23 13  1  0
 30 25  1  0
 22 16  1  0
  1 31  1  0
  1 32  1  0
  1 33  1  0
  3 34  1  0
  3 35  1  0
  4 36  1  0
  4 37  1  0
  5 38  1  0
  5 39  1  0
  8 40  1  0
  9 41  1  0
  9 42  1  0
 10 43  1  0
 14 44  1  0
 15 45  1  0
 17 46  1  0
 20 47  1  0
 21 48  1  0
 24 49  1  0
 24 50  1  0
 26 51  1  0
 27 52  1  0
 28 53  1  0
 29 54  1  0
 30 55  1  0
M  END
>  <smiles>  (21) 
CN(CCCN=C(O)CNC(=O)c1ccc2cc(F)ccc2n1)Cc1ccccc1

>  <score_type>  (21) 
oracle

>  <origin>  (21) 
autodockgpu

>  <m_score__min__energy>  (21) 
-8.4000000000000004

>  <m_primary>  (21) 
energy

>  <rmsd>  (21) 
1.4708448464823691

>  <m_score__min__rmsd>  (21) 
1.4708448464823691

>  <meeko>  (21) 
{"free_energy": -7.59, "intermolecular_energy": -10.87, "internal_energy": -1.94, "cluster_size": 26, "cluster_id": 1, "rank_in_cluster": 13}

>  <energy>  (21) 
-7.23

>  <cluster_rmsd>  (21) 
1.93

>  <cluster>  (21) 
1

$$$$

     RDKit          3D

 55 57  0  0  0  0  0  0  0  0999 V2000
  138.2300   77.4500  222.8170 C   0  0  0  0  0  0  0  0  0  0  0  0
  138.3800   78.6790  222.1090 N   0  0  0  0  0  0  0  0  0  0  0  0
  139.4160   78.6870  221.1050 C   0  0  0  0  0  0  0  0  0  0  0  0
  140.1830   77.4160  220.9740 C   0  0  0  0  0  0  0  0  0  0  0  0
  139.4410   76.3100  220.2520 C   0  0  0  0  0  0  0  0  0  0  0  0
  140.2110   75.1210  220.1010 N   0  0  0  0  0  0  0  0  0  0  0  0
  140.3530   74.3310  221.1250 C   0  0  0  0  0  0  0  0  0  0  0  0
  139.7890   74.7610  222.3140 O   0  0  0  0  0  0  0  0  0  0  0  0
  141.0880   73.0480  220.9740 C   0  0  0  0  0  0  0  0  0  0  0  0
  140.9910   72.1660  222.0940 N   0  0  0  0  0  0  0  0  0  0  0  0
  139.7710   71.7180  222.6730 C   0  0  0  0  0  0  0  0  0  0  0  0
  138.6610   72.1020  222.1970 O   0  0  0  0  0  0  0  0  0  0  0  0
  139.7840   70.8060  223.8240 C   0  0  0  0  0  0  0  0  0  0  0  0
  139.1420   69.5750  223.7190 C   0  0  0  0  0  0  0  0  0  0  0  0
  139.1880   68.7660  224.8240 C   0  0  0  0  0  0  0  0  0  0  0  0
  139.8290   69.1190  226.0030 C   0  0  0  0  0  0  0  0  0  0  0  0
  139.8640   68.2910  227.1000 C   0  0  0  0  0  0  0  0  0  0  0  0
  140.5250   68.6960  228.2580 C   0  0  0  0  0  0  0  0  0  0  0  0
  140.5520   67.8600  229.3450 F   0  0  0  0  0  0  0  0  0  0  0  0
  141.1580   69.9280  228.3370 C   0  0  0  0  0  0  0  0  0  0  0  0
  141.1060   70.7410  227.2200 C   0  0  0  0  0  0  0  0  0  0  0  0
  140.4530   70.3530  226.0590 C   0  0  0  0  0  0  0  0  0  0  0  0
  140.4040   71.1450  224.9670 N   0  0  0  0  0  0  0  0  0  0  0  0
  138.5900   79.7560  223.0430 C   0  0  0  0  0  0  0  0  0  0  0  0
  140.0640   79.9720  223.2380 C   0  0  0  0  0  0  0  0  0  0  0  0
  140.5540   81.1930  222.7820 C   0  0  0  0  0  0  0  0  0  0  0  0
  141.8970   81.4680  222.9240 C   0  0  0  0  0  0  0  0  0  0  0  0
  142.7330   80.5340  223.5130 C   0  0  0  0  0  0  0  0  0  0  0  0
  142.2110   79.3220  223.9590 C   0  0  0  0  0  0  0  0  0  0  0  0
  140.8740   79.0280  223.8260 C   0  0  0  0  0  0  0  0  0  0  0  0
  138.2538   77.6451  223.8993 H   0  0  0  0  0  0  0  0  0  0  0  0
  137.2687   76.9873  222.5489 H   0  0  0  0  0  0  0  0  0  0  0  0
  139.0518   76.7697  222.5489 H   0  0  0  0  0  0  0  0  0  0  0  0
  138.9469   78.9029  220.1338 H   0  0  0  0  0  0  0  0  0  0  0  0
  140.1420   79.4502  221.4219 H   0  0  0  0  0  0  0  0  0  0  0  0
  141.1089   77.6283  220.4194 H   0  0  0  0  0  0  0  0  0  0  0  0
  140.3692   77.0545  221.9961 H   0  0  0  0  0  0  0  0  0  0  0  0
  138.5329   76.0678  220.8235 H   0  0  0  0  0  0  0  0  0  0  0  0
  139.2087   76.6785  219.2419 H   0  0  0  0  0  0  0  0  0  0  0  0
  139.1310   74.1160  222.7640 H   0  0  0  0  0  0  0  0  0  0  0  0
  140.6880   72.5263  220.0921 H   0  0  0  0  0  0  0  0  0  0  0  0
  142.1519   73.3103  220.8779 H   0  0  0  0  0  0  0  0  0  0  0  0
  141.8690   71.7880  222.5660 H   0  0  0  0  0  0  0  0  0  0  0  0
  138.6252   69.2681  222.7977 H   0  0  0  0  0  0  0  0  0  0  0  0
  138.6911   67.7859  224.7739 H   0  0  0  0  0  0  0  0  0  0  0  0
  139.3702   67.3087  227.0636 H   0  0  0  0  0  0  0  0  0  0  0  0
  141.6803   70.2452  229.2517 H   0  0  0  0  0  0  0  0  0  0  0  0
  141.5970   71.7248  227.2527 H   0  0  0  0  0  0  0  0  0  0  0  0
  138.1338   80.6763  222.6495 H   0  0  0  0  0  0  0  0  0  0  0  0
  138.1271   79.4995  224.0073 H   0  0  0  0  0  0  0  0  0  0  0  0
  139.8798   81.9265  222.3158 H   0  0  0  0  0  0  0  0  0  0  0  0
  142.3039   82.4269  222.5704 H   0  0  0  0  0  0  0  0  0  0  0  0
  143.8057   80.7486  223.6282 H   0  0  0  0  0  0  0  0  0  0  0  0
  142.8811   78.5857  224.4267 H   0  0  0  0  0  0  0  0  0  0  0  0
  140.4656   78.0693  224.1783 H   0  0  0  0  0  0  0  0  0  0  0  0
  1  2  1  0
  2  3  1  0
  3  4  1  0
  4  5  1  0
  5  6  1  0
  6  7  2  0
  7  8  1  0
  7  9  1  0
  9 10  1  0
 10 11  1  0
 11 12  2  0
 11 13  1  0
 13 14  2  0
 14 15  1  0
 15 16  2  0
 16 17  1  0
 17 18  2  0
 18 19  1  0
 18 20  1  0
 20 21  2  0
 21 22  1  0
 22 23  2  0
  2 24  1  0
 24 25  1  0
 25 26  2  0
 26 27  1  0
 27 28  2  0
 28 29  1  0
 29 30  2  0
 23 13  1  0
 30 25  1  0
 22 16  1  0
  1 31  1  0
  1 32  1  0
  1 33  1  0
  3 34  1  0
  3 35  1  0
  4 36  1  0
  4 37  1  0
  5 38  1  0
  5 39  1  0
  8 40  1  0
  9 41  1  0
  9 42  1  0
 10 43  1  0
 14 44  1  0
 15 45  1  0
 17 46  1  0
 20 47  1  0
 21 48  1  0
 24 49  1  0
 24 50  1  0
 26 51  1  0
 27 52  1  0
 28 53  1  0
 29 54  1  0
 30 55  1  0
M  END
>  <smiles>  (22) 
CN(CCCN=C(O)CNC(=O)c1ccc2cc(F)ccc2n1)Cc1ccccc1

>  <score_type>  (22) 
oracle

>  <origin>  (22) 
autodockgpu

>  <m_score__min__energy>  (22) 
-8.4000000000000004

>  <m_primary>  (22) 
energy

>  <rmsd>  (22) 
1.7018984763829883

>  <m_score__min__rmsd>  (22) 
1.7018984763829883

>  <meeko>  (22) 
{"free_energy": -7.37, "intermolecular_energy": -10.65, "internal_energy": -1.7, "cluster_size": 26, "cluster_id": 1, "rank_in_cluster": 17}

>  <energy>  (22) 
-7.2

>  <cluster_rmsd>  (22) 
1.31

>  <cluster>  (22) 
1

$$$$

     RDKit          3D

 55 57  0  0  0  0  0  0  0  0999 V2000
  136.7440   81.3220  223.4210 C   0  0  0  0  0  0  0  0  0  0  0  0
  137.7800   80.3710  223.1840 N   0  0  0  0  0  0  0  0  0  0  0  0
  137.3420   79.0020  223.0660 C   0  0  0  0  0  0  0  0  0  0  0  0
  137.8970   78.2550  221.9010 C   0  0  0  0  0  0  0  0  0  0  0  0
  139.0890   77.3800  222.2310 C   0  0  0  0  0  0  0  0  0  0  0  0
  139.4330   76.4800  221.1830 N   0  0  0  0  0  0  0  0  0  0  0  0
  139.8180   75.2750  221.4920 C   0  0  0  0  0  0  0  0  0  0  0  0
  141.1130   75.1460  221.9640 O   0  0  0  0  0  0  0  0  0  0  0  0
  138.8790   74.1340  221.3290 C   0  0  0  0  0  0  0  0  0  0  0  0
  138.9490   73.1490  222.3620 N   0  0  0  0  0  0  0  0  0  0  0  0
  140.0860   72.3400  222.6390 C   0  0  0  0  0  0  0  0  0  0  0  0
  141.1400   72.4620  221.9450 O   0  0  0  0  0  0  0  0  0  0  0  0
  140.0520   71.3570  223.7290 C   0  0  0  0  0  0  0  0  0  0  0  0
  139.5040   70.1000  223.4900 C   0  0  0  0  0  0  0  0  0  0  0  0
  139.5000   69.2240  224.5440 C   0  0  0  0  0  0  0  0  0  0  0  0
  140.0050   69.5360  225.7980 C   0  0  0  0  0  0  0  0  0  0  0  0
  139.9920   68.6430  226.8420 C   0  0  0  0  0  0  0  0  0  0  0  0
  140.5140   69.0090  228.0810 C   0  0  0  0  0  0  0  0  0  0  0  0
  140.4950   68.1070  229.1140 F   0  0  0  0  0  0  0  0  0  0  0  0
  141.0550   70.2690  228.2940 C   0  0  0  0  0  0  0  0  0  0  0  0
  141.0540   71.1490  227.2270 C   0  0  0  0  0  0  0  0  0  0  0  0
  140.5390   70.7990  225.9880 C   0  0  0  0  0  0  0  0  0  0  0  0
  140.5400   71.6570  224.9450 N   0  0  0  0  0  0  0  0  0  0  0  0
  138.7860   80.4810  224.2110 C   0  0  0  0  0  0  0  0  0  0  0  0
  140.1500   80.4110  223.5860 C   0  0  0  0  0  0  0  0  0  0  0  0
  140.9250   79.3180  223.9650 C   0  0  0  0  0  0  0  0  0  0  0  0
  142.1900   79.1820  223.4370 C   0  0  0  0  0  0  0  0  0  0  0  0
  142.6690   80.1260  222.5430 C   0  0  0  0  0  0  0  0  0  0  0  0
  141.8690   81.2070  222.1840 C   0  0  0  0  0  0  0  0  0  0  0  0
  140.6030   81.3620  222.7010 C   0  0  0  0  0  0  0  0  0  0  0  0
  136.6046   81.4500  224.5046 H   0  0  0  0  0  0  0  0  0  0  0  0
  137.0215   82.2864  222.9706 H   0  0  0  0  0  0  0  0  0  0  0  0
  135.8068   80.9631  222.9706 H   0  0  0  0  0  0  0  0  0  0  0  0
  137.6369   78.4703  223.9827 H   0  0  0  0  0  0  0  0  0  0  0  0
  136.2536   79.0424  222.9117 H   0  0  0  0  0  0  0  0  0  0  0  0
  137.1019   77.6140  221.4925 H   0  0  0  0  0  0  0  0  0  0  0  0
  138.2498   79.0095  221.1825 H   0  0  0  0  0  0  0  0  0  0  0  0
  139.9540   78.0292  222.4319 H   0  0  0  0  0  0  0  0  0  0  0  0
  138.8154   76.7724  223.1062 H   0  0  0  0  0  0  0  0  0  0  0  0
  141.5910   74.2670  221.7440 H   0  0  0  0  0  0  0  0  0  0  0  0
  137.8546   74.5342  221.3064 H   0  0  0  0  0  0  0  0  0  0  0  0
  139.1668   73.6264  220.3965 H   0  0  0  0  0  0  0  0  0  0  0  0
  138.1130   72.9690  222.9990 H   0  0  0  0  0  0  0  0  0  0  0  0
  139.0955   69.8242  222.5066 H   0  0  0  0  0  0  0  0  0  0  0  0
  139.0744   68.2218  224.3877 H   0  0  0  0  0  0  0  0  0  0  0  0
  139.5689   67.6377  226.6996 H   0  0  0  0  0  0  0  0  0  0  0  0
  141.4680   70.5564  229.2722 H   0  0  0  0  0  0  0  0  0  0  0  0
  141.4741   72.1562  227.3653 H   0  0  0  0  0  0  0  0  0  0  0  0
  138.6716   81.4415  224.7348 H   0  0  0  0  0  0  0  0  0  0  0  0
  138.6689   79.6555  224.9286 H   0  0  0  0  0  0  0  0  0  0  0  0
  140.5332   78.5747  224.6750 H   0  0  0  0  0  0  0  0  0  0  0  0
  142.8183   78.3261  223.7244 H   0  0  0  0  0  0  0  0  0  0  0  0
  143.6783   80.0215  222.1183 H   0  0  0  0  0  0  0  0  0  0  0  0
  142.2562   81.9519  221.4732 H   0  0  0  0  0  0  0  0  0  0  0  0
  139.9739   82.2182  222.4160 H   0  0  0  0  0  0  0  0  0  0  0  0
  1  2  1  0
  2  3  1  0
  3  4  1  0
  4  5  1  0
  5  6  1  0
  6  7  2  0
  7  8  1  0
  7  9  1  0
  9 10  1  0
 10 11  1  0
 11 12  2  0
 11 13  1  0
 13 14  2  0
 14 15  1  0
 15 16  2  0
 16 17  1  0
 17 18  2  0
 18 19  1  0
 18 20  1  0
 20 21  2  0
 21 22  1  0
 22 23  2  0
  2 24  1  0
 24 25  1  0
 25 26  2  0
 26 27  1  0
 27 28  2  0
 28 29  1  0
 29 30  2  0
 23 13  1  0
 30 25  1  0
 22 16  1  0
  1 31  1  0
  1 32  1  0
  1 33  1  0
  3 34  1  0
  3 35  1  0
  4 36  1  0
  4 37  1  0
  5 38  1  0
  5 39  1  0
  8 40  1  0
  9 41  1  0
  9 42  1  0
 10 43  1  0
 14 44  1  0
 15 45  1  0
 17 46  1  0
 20 47  1  0
 21 48  1  0
 24 49  1  0
 24 50  1  0
 26 51  1  0
 27 52  1  0
 28 53  1  0
 29 54  1  0
 30 55  1  0
M  END
>  <smiles>  (23) 
CN(CCCN=C(O)CNC(=O)c1ccc2cc(F)ccc2n1)Cc1ccccc1

>  <score_type>  (23) 
oracle

>  <origin>  (23) 
autodockgpu

>  <m_score__min__energy>  (23) 
-8.4000000000000004

>  <m_primary>  (23) 
energy

>  <rmsd>  (23) 
1.1286266843623691

>  <m_score__min__rmsd>  (23) 
1.1286266843623691

>  <meeko>  (23) 
{"free_energy": -7.45, "intermolecular_energy": -10.73, "internal_energy": -1.9, "cluster_size": 6, "cluster_id": 3, "rank_in_cluster": 3}

>  <energy>  (23) 
-7.18

>  <cluster_rmsd>  (23) 
1.27

>  <cluster>  (23) 
1

$$$$

     RDKit          3D

 55 57  0  0  0  0  0  0  0  0999 V2000
  140.3090   67.0420  225.7290 C   0  0  0  0  0  0  0  0  0  0  0  0
  139.3660   67.6950  226.5770 N   0  0  0  0  0  0  0  0  0  0  0  0
  138.5590   68.7040  225.9360 C   0  0  0  0  0  0  0  0  0  0  0  0
  138.4600   68.5910  224.4530 C   0  0  0  0  0  0  0  0  0  0  0  0
  139.2430   69.6420  223.6930 C   0  0  0  0  0  0  0  0  0  0  0  0
  138.4940   70.2570  222.6490 N   0  0  0  0  0  0  0  0  0  0  0  0
  138.4390   71.5560  222.5980 C   0  0  0  0  0  0  0  0  0  0  0  0
  137.2440   72.1370  222.9860 O   0  0  0  0  0  0  0  0  0  0  0  0
  139.6230   72.3290  222.1400 C   0  0  0  0  0  0  0  0  0  0  0  0
  139.5100   73.7450  222.2920 N   0  0  0  0  0  0  0  0  0  0  0  0
  140.4470   74.6940  221.7950 C   0  0  0  0  0  0  0  0  0  0  0  0
  141.4760   74.3050  221.1660 O   0  0  0  0  0  0  0  0  0  0  0  0
  140.2320   76.1320  222.0050 C   0  0  0  0  0  0  0  0  0  0  0  0
  138.9440   76.5920  222.2650 C   0  0  0  0  0  0  0  0  0  0  0  0
  138.8040   77.9420  222.4520 C   0  0  0  0  0  0  0  0  0  0  0  0
  139.8640   78.8360  222.3940 C   0  0  0  0  0  0  0  0  0  0  0  0
  139.7010   80.1870  222.5860 C   0  0  0  0  0  0  0  0  0  0  0  0
  140.8020   81.0390  222.5180 C   0  0  0  0  0  0  0  0  0  0  0  0
  140.6250   82.3850  222.7130 F   0  0  0  0  0  0  0  0  0  0  0  0
  142.0760   80.5540  222.2590 C   0  0  0  0  0  0  0  0  0  0  0  0
  142.2110   79.1920  222.0680 C   0  0  0  0  0  0  0  0  0  0  0  0
  141.1250   78.3300  222.1320 C   0  0  0  0  0  0  0  0  0  0  0  0
  141.2570   77.0000  221.9490 N   0  0  0  0  0  0  0  0  0  0  0  0
  140.0440   68.2560  227.7190 C   0  0  0  0  0  0  0  0  0  0  0  0
  140.4820   69.6580  227.4030 C   0  0  0  0  0  0  0  0  0  0  0  0
  140.0400   70.6360  228.2900 C   0  0  0  0  0  0  0  0  0  0  0  0
  140.3990   71.9480  228.0700 C   0  0  0  0  0  0  0  0  0  0  0  0
  141.1870   72.2730  226.9780 C   0  0  0  0  0  0  0  0  0  0  0  0
  141.6140   71.2710  226.1100 C   0  0  0  0  0  0  0  0  0  0  0  0
  141.2660   69.9550  226.3110 C   0  0  0  0  0  0  0  0  0  0  0  0
  141.0583   66.5232  226.3450 H   0  0  0  0  0  0  0  0  0  0  0  0
  139.7867   66.3112  225.0941 H   0  0  0  0  0  0  0  0  0  0  0  0
  140.8093   67.7880  225.0941 H   0  0  0  0  0  0  0  0  0  0  0  0
  137.5421   68.6403  226.3506 H   0  0  0  0  0  0  0  0  0  0  0  0
  139.0562   69.6646  226.1361 H   0  0  0  0  0  0  0  0  0  0  0  0
  138.8362   67.6006  224.1573 H   0  0  0  0  0  0  0  0  0  0  0  0
  137.4010   68.7408  224.1961 H   0  0  0  0  0  0  0  0  0  0  0  0
  139.5598   70.4216  224.4014 H   0  0  0  0  0  0  0  0  0  0  0  0
  140.0994   69.1350  223.2245 H   0  0  0  0  0  0  0  0  0  0  0  0
  137.3130   72.9460  223.6100 H   0  0  0  0  0  0  0  0  0  0  0  0
  140.4962   71.9915  222.7176 H   0  0  0  0  0  0  0  0  0  0  0  0
  139.7171   72.1402  221.0604 H   0  0  0  0  0  0  0  0  0  0  0  0
  138.6800   74.1720  222.8080 H   0  0  0  0  0  0  0  0  0  0  0  0
  138.0843   75.9078  222.3175 H   0  0  0  0  0  0  0  0  0  0  0  0
  137.7989   78.3381  222.6589 H   0  0  0  0  0  0  0  0  0  0  0  0
  138.7012   80.5961  222.7934 H   0  0  0  0  0  0  0  0  0  0  0  0
  142.9444   81.2272  222.2077 H   0  0  0  0  0  0  0  0  0  0  0  0
  143.2088   78.7787  221.8590 H   0  0  0  0  0  0  0  0  0  0  0  0
  139.3602   68.2709  228.5805 H   0  0  0  0  0  0  0  0  0  0  0  0
  140.9246   67.6425  227.9602 H   0  0  0  0  0  0  0  0  0  0  0  0
  139.4139   70.3655  229.1530 H   0  0  0  0  0  0  0  0  0  0  0  0
  140.0608   72.7353  228.7597 H   0  0  0  0  0  0  0  0  0  0  0  0
  141.4746   73.3192  226.7970 H   0  0  0  0  0  0  0  0  0  0  0  0
  142.2418   71.5369  225.2468 H   0  0  0  0  0  0  0  0  0  0  0  0
  141.6030   69.1665  225.6221 H   0  0  0  0  0  0  0  0  0  0  0  0
  1  2  1  0
  2  3  1  0
  3  4  1  0
  4  5  1  0
  5  6  1  0
  6  7  2  0
  7  8  1  0
  7  9  1  0
  9 10  1  0
 10 11  1  0
 11 12  2  0
 11 13  1  0
 13 14  2  0
 14 15  1  0
 15 16  2  0
 16 17  1  0
 17 18  2  0
 18 19  1  0
 18 20  1  0
 20 21  2  0
 21 22  1  0
 22 23  2  0
  2 24  1  0
 24 25  1  0
 25 26  2  0
 26 27  1  0
 27 28  2  0
 28 29  1  0
 29 30  2  0
 23 13  1  0
 30 25  1  0
 22 16  1  0
  1 31  1  0
  1 32  1  0
  1 33  1  0
  3 34  1  0
  3 35  1  0
  4 36  1  0
  4 37  1  0
  5 38  1  0
  5 39  1  0
  8 40  1  0
  9 41  1  0
  9 42  1  0
 10 43  1  0
 14 44  1  0
 15 45  1  0
 17 46  1  0
 20 47  1  0
 21 48  1  0
 24 49  1  0
 24 50  1  0
 26 51  1  0
 27 52  1  0
 28 53  1  0
 29 54  1  0
 30 55  1  0
M  END
>  <smiles>  (24) 
CN(CCCN=C(O)CNC(=O)c1ccc2cc(F)ccc2n1)Cc1ccccc1

>  <score_type>  (24) 
oracle

>  <origin>  (24) 
autodockgpu

>  <m_score__min__energy>  (24) 
-8.4000000000000004

>  <m_primary>  (24) 
energy

>  <rmsd>  (24) 
8.7213402153512

>  <m_score__min__rmsd>  (24) 
8.7213402153512

>  <meeko>  (24) 
{"free_energy": -7.86, "intermolecular_energy": -11.14, "internal_energy": -1.33, "cluster_size": 10, "cluster_id": 2, "rank_in_cluster": 1}

>  <energy>  (24) 
-7.01

>  <cluster_rmsd>  (24) 
1.15

>  <cluster>  (24) 
1

$$$$

     RDKit          3D

 55 57  0  0  0  0  0  0  0  0999 V2000
  142.0570   79.3830  218.2240 C   0  0  0  0  0  0  0  0  0  0  0  0
  142.2090   78.3880  219.2340 N   0  0  0  0  0  0  0  0  0  0  0  0
  142.3570   77.0380  218.7500 C   0  0  0  0  0  0  0  0  0  0  0  0
  142.4250   75.9870  219.8050 C   0  0  0  0  0  0  0  0  0  0  0  0
  141.3560   74.9190  219.6920 C   0  0  0  0  0  0  0  0  0  0  0  0
  140.0800   75.3480  220.1560 N   0  0  0  0  0  0  0  0  0  0  0  0
  139.4890   74.6610  221.0910 C   0  0  0  0  0  0  0  0  0  0  0  0
  139.4470   75.2430  222.3470 O   0  0  0  0  0  0  0  0  0  0  0  0
  138.9080   73.3300  220.7760 C   0  0  0  0  0  0  0  0  0  0  0  0
  138.9620   72.3840  221.8450 N   0  0  0  0  0  0  0  0  0  0  0  0
  140.0290   72.2750  222.7810 C   0  0  0  0  0  0  0  0  0  0  0  0
  141.0290   73.0490  222.7010 O   0  0  0  0  0  0  0  0  0  0  0  0
  139.9820   71.2660  223.8470 C   0  0  0  0  0  0  0  0  0  0  0  0
  139.3720   70.0400  223.5930 C   0  0  0  0  0  0  0  0  0  0  0  0
  139.3590   69.1390  224.6240 C   0  0  0  0  0  0  0  0  0  0  0  0
  139.9130   69.3950  225.8700 C   0  0  0  0  0  0  0  0  0  0  0  0
  139.8900   68.4760  226.8910 C   0  0  0  0  0  0  0  0  0  0  0  0
  140.4640   68.7850  228.1230 C   0  0  0  0  0  0  0  0  0  0  0  0
  140.4340   67.8580  229.1330 F   0  0  0  0  0  0  0  0  0  0  0  0
  141.0670   70.0150  228.3500 C   0  0  0  0  0  0  0  0  0  0  0  0
  141.0750   70.9210  227.3070 C   0  0  0  0  0  0  0  0  0  0  0  0
  140.5080   70.6280  226.0750 C   0  0  0  0  0  0  0  0  0  0  0  0
  140.5180   71.5110  225.0550 N   0  0  0  0  0  0  0  0  0  0  0  0
  141.1070   78.4620  220.1600 C   0  0  0  0  0  0  0  0  0  0  0  0
  141.5800   79.0550  221.4570 C   0  0  0  0  0  0  0  0  0  0  0  0
  141.3850   78.2590  222.5840 C   0  0  0  0  0  0  0  0  0  0  0  0
  141.7910   78.7320  223.8120 C   0  0  0  0  0  0  0  0  0  0  0  0
  142.3830   79.9800  223.9100 C   0  0  0  0  0  0  0  0  0  0  0  0
  142.5640   80.7510  222.7640 C   0  0  0  0  0  0  0  0  0  0  0  0
  142.1640   80.2980  221.5280 C   0  0  0  0  0  0  0  0  0  0  0  0
  141.9070   80.3650  218.6964 H   0  0  0  0  0  0  0  0  0  0  0  0
  142.9612   79.4114  217.5982 H   0  0  0  0  0  0  0  0  0  0  0  0
  141.1855   79.1402  217.5982 H   0  0  0  0  0  0  0  0  0  0  0  0
  141.4974   76.8134  218.1014 H   0  0  0  0  0  0  0  0  0  0  0  0
  143.3240   77.0067  218.2267 H   0  0  0  0  0  0  0  0  0  0  0  0
  143.4083   75.4981  219.7412 H   0  0  0  0  0  0  0  0  0  0  0  0
  142.2615   76.4954  220.7667 H   0  0  0  0  0  0  0  0  0  0  0  0
  141.2635   74.6280  218.6352 H   0  0  0  0  0  0  0  0  0  0  0  0
  141.6678   74.0773  220.3279 H   0  0  0  0  0  0  0  0  0  0  0  0
  139.5580   74.6100  223.1440 H   0  0  0  0  0  0  0  0  0  0  0  0
  137.8531   73.4740  220.4996 H   0  0  0  0  0  0  0  0  0  0  0  0
  139.5172   72.9114  219.9614 H   0  0  0  0  0  0  0  0  0  0  0  0
  138.1690   71.6870  221.9950 H   0  0  0  0  0  0  0  0  0  0  0  0
  138.9242   69.8077  222.6155 H   0  0  0  0  0  0  0  0  0  0  0  0
  138.8845   68.1610  224.4555 H   0  0  0  0  0  0  0  0  0  0  0  0
  139.4178   67.4947  226.7359 H   0  0  0  0  0  0  0  0  0  0  0  0
  141.5205   70.2585  229.3221 H   0  0  0  0  0  0  0  0  0  0  0  0
  141.5449   71.9041  227.4578 H   0  0  0  0  0  0  0  0  0  0  0  0
  140.3136   79.0947  219.7356 H   0  0  0  0  0  0  0  0  0  0  0  0
  140.7129   77.4512  220.3417 H   0  0  0  0  0  0  0  0  0  0  0  0
  140.9144   77.2688  222.4942 H   0  0  0  0  0  0  0  0  0  0  0  0
  141.6452   78.1193  224.7138 H   0  0  0  0  0  0  0  0  0  0  0  0
  142.7091   80.3611  224.8890 H   0  0  0  0  0  0  0  0  0  0  0  0
  143.0358   81.7410  222.8489 H   0  0  0  0  0  0  0  0  0  0  0  0
  142.3068   80.9105  220.6255 H   0  0  0  0  0  0  0  0  0  0  0  0
  1  2  1  0
  2  3  1  0
  3  4  1  0
  4  5  1  0
  5  6  1  0
  6  7  2  0
  7  8  1  0
  7  9  1  0
  9 10  1  0
 10 11  1  0
 11 12  2  0
 11 13  1  0
 13 14  2  0
 14 15  1  0
 15 16  2  0
 16 17  1  0
 17 18  2  0
 18 19  1  0
 18 20  1  0
 20 21  2  0
 21 22  1  0
 22 23  2  0
  2 24  1  0
 24 25  1  0
 25 26  2  0
 26 27  1  0
 27 28  2  0
 28 29  1  0
 29 30  2  0
 23 13  1  0
 30 25  1  0
 22 16  1  0
  1 31  1  0
  1 32  1  0
  1 33  1  0
  3 34  1  0
  3 35  1  0
  4 36  1  0
  4 37  1  0
  5 38  1  0
  5 39  1  0
  8 40  1  0
  9 41  1  0
  9 42  1  0
 10 43  1  0
 14 44  1  0
 15 45  1  0
 17 46  1  0
 20 47  1  0
 21 48  1  0
 24 49  1  0
 24 50  1  0
 26 51  1  0
 27 52  1  0
 28 53  1  0
 29 54  1  0
 30 55  1  0
M  END
>  <smiles>  (25) 
CN(CCCN=C(O)CNC(=O)c1ccc2cc(F)ccc2n1)Cc1ccccc1

>  <score_type>  (25) 
oracle

>  <origin>  (25) 
autodockgpu

>  <m_score__min__energy>  (25) 
-8.4000000000000004

>  <m_primary>  (25) 
energy

>  <rmsd>  (25) 
1.2585518394828008

>  <m_score__min__rmsd>  (25) 
1.2585518394828008

>  <meeko>  (25) 
{"free_energy": -7.71, "intermolecular_energy": -10.99, "internal_energy": -1.89, "cluster_size": 26, "cluster_id": 1, "rank_in_cluster": 10}

>  <energy>  (25) 
-6.82

>  <cluster_rmsd>  (25) 
1.76

>  <cluster>  (25) 
1

$$$$

     RDKit          3D

 55 57  0  0  0  0  0  0  0  0999 V2000
  136.8280   80.0180  222.9270 C   0  0  0  0  0  0  0  0  0  0  0  0
  138.1370   79.5450  222.6130 N   0  0  0  0  0  0  0  0  0  0  0  0
  138.1840   78.2880  221.9080 C   0  0  0  0  0  0  0  0  0  0  0  0
  139.0490   78.2720  220.6950 C   0  0  0  0  0  0  0  0  0  0  0  0
  139.2020   76.9080  220.0540 C   0  0  0  0  0  0  0  0  0  0  0  0
  138.2960   75.9390  220.5710 N   0  0  0  0  0  0  0  0  0  0  0  0
  138.7680   74.9500  221.2730 C   0  0  0  0  0  0  0  0  0  0  0  0
  139.5910   75.2880  222.3330 O   0  0  0  0  0  0  0  0  0  0  0  0
  138.4130   73.5520  220.9140 C   0  0  0  0  0  0  0  0  0  0  0  0
  138.5440   72.6080  221.9800 N   0  0  0  0  0  0  0  0  0  0  0  0
  139.7400   72.3730  222.7150 C   0  0  0  0  0  0  0  0  0  0  0  0
  140.7940   73.0210  222.4430 O   0  0  0  0  0  0  0  0  0  0  0  0
  139.7640   71.3800  223.7970 C   0  0  0  0  0  0  0  0  0  0  0  0
  139.1750   70.1360  223.5860 C   0  0  0  0  0  0  0  0  0  0  0  0
  139.2290   69.2500  224.6300 C   0  0  0  0  0  0  0  0  0  0  0  0
  139.8280   69.5390  225.8480 C   0  0  0  0  0  0  0  0  0  0  0  0
  139.8710   68.6350  226.8820 C   0  0  0  0  0  0  0  0  0  0  0  0
  140.4880   68.9780  228.0830 C   0  0  0  0  0  0  0  0  0  0  0  0
  140.5250   68.0660  229.1060 F   0  0  0  0  0  0  0  0  0  0  0  0
  141.0690   70.2250  228.2670 C   0  0  0  0  0  0  0  0  0  0  0  0
  141.0090   71.1160  227.2120 C   0  0  0  0  0  0  0  0  0  0  0  0
  140.3990   70.7890  226.0090 C   0  0  0  0  0  0  0  0  0  0  0  0
  140.3440   71.6570  224.9770 N   0  0  0  0  0  0  0  0  0  0  0  0
  138.9270   79.4650  223.8170 C   0  0  0  0  0  0  0  0  0  0  0  0
  140.3670   79.7430  223.4910 C   0  0  0  0  0  0  0  0  0  0  0  0
  140.7080   81.0890  223.3890 C   0  0  0  0  0  0  0  0  0  0  0  0
  142.0100   81.4280  223.0930 C   0  0  0  0  0  0  0  0  0  0  0  0
  142.9540   80.4320  222.9020 C   0  0  0  0  0  0  0  0  0  0  0  0
  142.5810   79.0950  223.0120 C   0  0  0  0  0  0  0  0  0  0  0  0
  141.2870   78.7360  223.3060 C   0  0  0  0  0  0  0  0  0  0  0  0
  136.7063   80.0620  224.0194 H   0  0  0  0  0  0  0  0  0  0  0  0
  136.6895   81.0230  222.5019 H   0  0  0  0  0  0  0  0  0  0  0  0
  136.0791   79.3336  222.5019 H   0  0  0  0  0  0  0  0  0  0  0  0
  138.5586   77.5220  222.6030 H   0  0  0  0  0  0  0  0  0  0  0  0
  137.1598   78.0982  221.5546 H   0  0  0  0  0  0  0  0  0  0  0  0
  138.6117   78.9546  219.9515 H   0  0  0  0  0  0  0  0  0  0  0  0
  140.0533   78.5802  221.0213 H   0  0  0  0  0  0  0  0  0  0  0  0
  139.0265   77.0085  218.9728 H   0  0  0  0  0  0  0  0  0  0  0  0
  140.2196   76.5549  220.2772 H   0  0  0  0  0  0  0  0  0  0  0  0
  139.5660   74.6630  223.1450 H   0  0  0  0  0  0  0  0  0  0  0  0
  137.3670   73.5411  220.5737 H   0  0  0  0  0  0  0  0  0  0  0  0
  139.1256   73.2414  220.1357 H   0  0  0  0  0  0  0  0  0  0  0  0
  137.7140   72.0120  222.2840 H   0  0  0  0  0  0  0  0  0  0  0  0
  138.6920   69.8782  222.6319 H   0  0  0  0  0  0  0  0  0  0  0  0
  138.7737   68.2577  224.4955 H   0  0  0  0  0  0  0  0  0  0  0  0
  139.4180   67.6399  226.7613 H   0  0  0  0  0  0  0  0  0  0  0  0
  141.5579   70.4936  229.2150 H   0  0  0  0  0  0  0  0  0  0  0  0
  141.4578   72.1134  227.3293 H   0  0  0  0  0  0  0  0  0  0  0  0
  138.5654   80.2082  224.5428 H   0  0  0  0  0  0  0  0  0  0  0  0
  138.8368   78.4571  224.2482 H   0  0  0  0  0  0  0  0  0  0  0  0
  139.9490   81.8702  223.5425 H   0  0  0  0  0  0  0  0  0  0  0  0
  142.2992   82.4859  223.0086 H   0  0  0  0  0  0  0  0  0  0  0  0
  143.9949   80.6966  222.6642 H   0  0  0  0  0  0  0  0  0  0  0  0
  143.3369   78.3103  222.8606 H   0  0  0  0  0  0  0  0  0  0  0  0
  140.9963   77.6785  223.3907 H   0  0  0  0  0  0  0  0  0  0  0  0
  1  2  1  0
  2  3  1  0
  3  4  1  0
  4  5  1  0
  5  6  1  0
  6  7  2  0
  7  8  1  0
  7  9  1  0
  9 10  1  0
 10 11  1  0
 11 12  2  0
 11 13  1  0
 13 14  2  0
 14 15  1  0
 15 16  2  0
 16 17  1  0
 17 18  2  0
 18 19  1  0
 18 20  1  0
 20 21  2  0
 21 22  1  0
 22 23  2  0
  2 24  1  0
 24 25  1  0
 25 26  2  0
 26 27  1  0
 27 28  2  0
 28 29  1  0
 29 30  2  0
 23 13  1  0
 30 25  1  0
 22 16  1  0
  1 31  1  0
  1 32  1  0
  1 33  1  0
  3 34  1  0
  3 35  1  0
  4 36  1  0
  4 37  1  0
  5 38  1  0
  5 39  1  0
  8 40  1  0
  9 41  1  0
  9 42  1  0
 10 43  1  0
 14 44  1  0
 15 45  1  0
 17 46  1  0
 20 47  1  0
 21 48  1  0
 24 49  1  0
 24 50  1  0
 26 51  1  0
 27 52  1  0
 28 53  1  0
 29 54  1  0
 30 55  1  0
M  END
>  <smiles>  (26) 
CN(CCCN=C(O)CNC(=O)c1ccc2cc(F)ccc2n1)Cc1ccccc1

>  <score_type>  (26) 
oracle

>  <origin>  (26) 
autodockgpu

>  <m_score__min__energy>  (26) 
-8.4000000000000004

>  <m_primary>  (26) 
energy

>  <rmsd>  (26) 
1.1448816187185058

>  <m_score__min__rmsd>  (26) 
1.1448816187185058

>  <meeko>  (26) 
{"free_energy": -7.55, "intermolecular_energy": -10.83, "internal_energy": -1.76, "cluster_size": 26, "cluster_id": 1, "rank_in_cluster": 15}

>  <energy>  (26) 
-6.81

>  <cluster_rmsd>  (26) 
1.7

>  <cluster>  (26) 
1

$$$$

     RDKit          3D

 55 57  0  0  0  0  0  0  0  0999 V2000
  136.9490   80.4360  223.1950 C   0  0  0  0  0  0  0  0  0  0  0  0
  138.2080   79.9530  222.7300 N   0  0  0  0  0  0  0  0  0  0  0  0
  138.1370   78.8990  221.7490 C   0  0  0  0  0  0  0  0  0  0  0  0
  137.3540   77.6990  222.1590 C   0  0  0  0  0  0  0  0  0  0  0  0
  137.0750   76.7210  221.0370 C   0  0  0  0  0  0  0  0  0  0  0  0
  138.2190   75.9660  220.6510 N   0  0  0  0  0  0  0  0  0  0  0  0
  138.6070   74.9820  221.4090 C   0  0  0  0  0  0  0  0  0  0  0  0
  139.3590   75.3230  222.5200 O   0  0  0  0  0  0  0  0  0  0  0  0
  138.2360   73.5860  221.0570 C   0  0  0  0  0  0  0  0  0  0  0  0
  138.4410   72.6310  222.1000 N   0  0  0  0  0  0  0  0  0  0  0  0
  139.6900   72.3720  222.7330 C   0  0  0  0  0  0  0  0  0  0  0  0
  140.7270   73.0080  222.3790 O   0  0  0  0  0  0  0  0  0  0  0  0
  139.7890   71.3690  223.8000 C   0  0  0  0  0  0  0  0  0  0  0  0
  139.3480   70.0720  223.5520 C   0  0  0  0  0  0  0  0  0  0  0  0
  139.4650   69.1780  224.5840 C   0  0  0  0  0  0  0  0  0  0  0  0
  139.9900   69.5100  225.8250 C   0  0  0  0  0  0  0  0  0  0  0  0
  140.1000   68.5980  226.8470 C   0  0  0  0  0  0  0  0  0  0  0  0
  140.6370   68.9840  228.0740 C   0  0  0  0  0  0  0  0  0  0  0  0
  140.7410   68.0640  229.0840 F   0  0  0  0  0  0  0  0  0  0  0  0
  141.0700   70.2840  228.2950 C   0  0  0  0  0  0  0  0  0  0  0  0
  140.9470   71.1820  227.2510 C   0  0  0  0  0  0  0  0  0  0  0  0
  140.4150   70.8120  226.0240 C   0  0  0  0  0  0  0  0  0  0  0  0
  140.2970   71.6870  225.0030 N   0  0  0  0  0  0  0  0  0  0  0  0
  139.0110   79.5300  223.8510 C   0  0  0  0  0  0  0  0  0  0  0  0
  140.4530   79.8580  223.5870 C   0  0  0  0  0  0  0  0  0  0  0  0
  141.2220   78.8110  223.0870 C   0  0  0  0  0  0  0  0  0  0  0  0
  142.5550   79.0300  222.8180 C   0  0  0  0  0  0  0  0  0  0  0  0
  143.1080   80.2790  223.0480 C   0  0  0  0  0  0  0  0  0  0  0  0
  142.3110   81.3070  223.5490 C   0  0  0  0  0  0  0  0  0  0  0  0
  140.9790   81.1080  223.8240 C   0  0  0  0  0  0  0  0  0  0  0  0
  136.9410   80.4391  224.2950 H   0  0  0  0  0  0  0  0  0  0  0  0
  136.7892   81.4593  222.8243 H   0  0  0  0  0  0  0  0  0  0  0  0
  136.1458   79.7822  222.8243 H   0  0  0  0  0  0  0  0  0  0  0  0
  137.6754   79.3116  220.8397 H   0  0  0  0  0  0  0  0  0  0  0  0
  139.1701   78.5518  221.6002 H   0  0  0  0  0  0  0  0  0  0  0  0
  137.9176   77.1717  222.9428 H   0  0  0  0  0  0  0  0  0  0  0  0
  136.3767   78.0654  222.5065 H   0  0  0  0  0  0  0  0  0  0  0  0
  136.2918   76.0234  221.3685 H   0  0  0  0  0  0  0  0  0  0  0  0
  136.7623   77.3095  220.1618 H   0  0  0  0  0  0  0  0  0  0  0  0
  139.5010   74.5850  223.2170 H   0  0  0  0  0  0  0  0  0  0  0  0
  137.1700   73.5731  220.7857 H   0  0  0  0  0  0  0  0  0  0  0  0
  138.8976   73.2886  220.2300 H   0  0  0  0  0  0  0  0  0  0  0  0
  137.6300   72.0440  222.4670 H   0  0  0  0  0  0  0  0  0  0  0  0
  138.9276   69.7800  222.5784 H   0  0  0  0  0  0  0  0  0  0  0  0
  139.1255   68.1446  224.4204 H   0  0  0  0  0  0  0  0  0  0  0  0
  139.7637   67.5615  226.6965 H   0  0  0  0  0  0  0  0  0  0  0  0
  141.4946   70.5880  229.2632 H   0  0  0  0  0  0  0  0  0  0  0  0
  141.2806   72.2199  227.3973 H   0  0  0  0  0  0  0  0  0  0  0  0
  138.6766   80.0526  224.7593 H   0  0  0  0  0  0  0  0  0  0  0  0
  138.9019   78.4444  223.9909 H   0  0  0  0  0  0  0  0  0  0  0  0
  140.7718   77.8232  222.9093 H   0  0  0  0  0  0  0  0  0  0  0  0
  143.1787   78.2152  222.4216 H   0  0  0  0  0  0  0  0  0  0  0  0
  144.1723   80.4590  222.8361 H   0  0  0  0  0  0  0  0  0  0  0  0
  142.7566   82.2967  223.7277 H   0  0  0  0  0  0  0  0  0  0  0  0
  140.3535   81.9213  224.2207 H   0  0  0  0  0  0  0  0  0  0  0  0
  1  2  1  0
  2  3  1  0
  3  4  1  0
  4  5  1  0
  5  6  1  0
  6  7  2  0
  7  8  1  0
  7  9  1  0
  9 10  1  0
 10 11  1  0
 11 12  2  0
 11 13  1  0
 13 14  2  0
 14 15  1  0
 15 16  2  0
 16 17  1  0
 17 18  2  0
 18 19  1  0
 18 20  1  0
 20 21  2  0
 21 22  1  0
 22 23  2  0
  2 24  1  0
 24 25  1  0
 25 26  2  0
 26 27  1  0
 27 28  2  0
 28 29  1  0
 29 30  2  0
 23 13  1  0
 30 25  1  0
 22 16  1  0
  1 31  1  0
  1 32  1  0
  1 33  1  0
  3 34  1  0
  3 35  1  0
  4 36  1  0
  4 37  1  0
  5 38  1  0
  5 39  1  0
  8 40  1  0
  9 41  1  0
  9 42  1  0
 10 43  1  0
 14 44  1  0
 15 45  1  0
 17 46  1  0
 20 47  1  0
 21 48  1  0
 24 49  1  0
 24 50  1  0
 26 51  1  0
 27 52  1  0
 28 53  1  0
 29 54  1  0
 30 55  1  0
M  END
>  <smiles>  (27) 
CN(CCCN=C(O)CNC(=O)c1ccc2cc(F)ccc2n1)Cc1ccccc1

>  <score_type>  (27) 
oracle

>  <origin>  (27) 
autodockgpu

>  <m_score__min__energy>  (27) 
-8.4000000000000004

>  <m_primary>  (27) 
energy

>  <rmsd>  (27) 
1.1261363507420072

>  <m_score__min__rmsd>  (27) 
1.1261363507420072

>  <meeko>  (27) 
{"free_energy": -7.6, "intermolecular_energy": -10.88, "internal_energy": -1.71, "cluster_size": 6, "cluster_id": 3, "rank_in_cluster": 1}

>  <energy>  (27) 
-7.86

>  <cluster_rmsd>  (27) 
0.0

>  <cluster>  (27) 
2

$$$$

     RDKit          3D

 55 57  0  0  0  0  0  0  0  0999 V2000
  141.9180   79.6280  218.4750 C   0  0  0  0  0  0  0  0  0  0  0  0
  142.1090   78.5480  219.3870 N   0  0  0  0  0  0  0  0  0  0  0  0
  142.3050   77.2560  218.7770 C   0  0  0  0  0  0  0  0  0  0  0  0
  143.3400   76.4000  219.4220 C   0  0  0  0  0  0  0  0  0  0  0  0
  142.7920   75.1610  220.1000 C   0  0  0  0  0  0  0  0  0  0  0  0
  141.3710   75.0780  220.0590 N   0  0  0  0  0  0  0  0  0  0  0  0
  140.7120   75.0510  221.1810 C   0  0  0  0  0  0  0  0  0  0  0  0
  141.2580   75.7670  222.2320 O   0  0  0  0  0  0  0  0  0  0  0  0
  139.4460   74.2770  221.2760 C   0  0  0  0  0  0  0  0  0  0  0  0
  139.4030   73.3280  222.3430 N   0  0  0  0  0  0  0  0  0  0  0  0
  140.3510   72.2860  222.5430 C   0  0  0  0  0  0  0  0  0  0  0  0
  141.3240   72.1470  221.7420 O   0  0  0  0  0  0  0  0  0  0  0  0
  140.2150   71.3630  223.6770 C   0  0  0  0  0  0  0  0  0  0  0  0
  139.5930   70.1340  223.4780 C   0  0  0  0  0  0  0  0  0  0  0  0
  139.4940   69.3150  224.5720 C   0  0  0  0  0  0  0  0  0  0  0  0
  139.9750   69.6560  225.8280 C   0  0  0  0  0  0  0  0  0  0  0  0
  139.8670   68.8190  226.9120 C   0  0  0  0  0  0  0  0  0  0  0  0
  140.3700   69.2120  228.1510 C   0  0  0  0  0  0  0  0  0  0  0  0
  140.2550   68.3660  229.2240 F   0  0  0  0  0  0  0  0  0  0  0  0
  140.9870   70.4440  228.3230 C   0  0  0  0  0  0  0  0  0  0  0  0
  141.0810   71.2670  227.2160 C   0  0  0  0  0  0  0  0  0  0  0  0
  140.5860   70.8900  225.9760 C   0  0  0  0  0  0  0  0  0  0  0  0
  140.6800   71.6910  224.8950 N   0  0  0  0  0  0  0  0  0  0  0  0
  141.0060   78.4940  220.3140 C   0  0  0  0  0  0  0  0  0  0  0  0
  141.4280   79.0860  221.6290 C   0  0  0  0  0  0  0  0  0  0  0  0
  142.1500   80.2740  221.5460 C   0  0  0  0  0  0  0  0  0  0  0  0
  142.5740   80.8800  222.7080 C   0  0  0  0  0  0  0  0  0  0  0  0
  142.2780   80.3060  223.9330 C   0  0  0  0  0  0  0  0  0  0  0  0
  141.5530   79.1180  223.9820 C   0  0  0  0  0  0  0  0  0  0  0  0
  141.1210   78.4960  222.8340 C   0  0  0  0  0  0  0  0  0  0  0  0
  141.7534   80.5586  219.0380 H   0  0  0  0  0  0  0  0  0  0  0  0
  142.8111   79.7356  217.8419 H   0  0  0  0  0  0  0  0  0  0  0  0
  141.0422   79.4227  217.8419 H   0  0  0  0  0  0  0  0  0  0  0  0
  141.3476   76.7154  218.8100 H   0  0  0  0  0  0  0  0  0  0  0  0
  142.6642   77.4520  217.7559 H   0  0  0  0  0  0  0  0  0  0  0  0
  144.0544   76.0817  218.6485 H   0  0  0  0  0  0  0  0  0  0  0  0
  143.8058   77.0098  220.2102 H   0  0  0  0  0  0  0  0  0  0  0  0
  143.2081   74.2753  219.5977 H   0  0  0  0  0  0  0  0  0  0  0  0
  143.0848   75.2128  221.1591 H   0  0  0  0  0  0  0  0  0  0  0  0
  142.0820   76.3370  222.0140 H   0  0  0  0  0  0  0  0  0  0  0  0
  138.6194   74.9889  221.4176 H   0  0  0  0  0  0  0  0  0  0  0  0
  139.3657   73.6988  220.3437 H   0  0  0  0  0  0  0  0  0  0  0  0
  138.6220   73.3600  223.0690 H   0  0  0  0  0  0  0  0  0  0  0  0
  139.2015   69.8358  222.4942 H   0  0  0  0  0  0  0  0  0  0  0  0
  139.0078   68.3361  224.4481 H   0  0  0  0  0  0  0  0  0  0  0  0
  139.3829   67.8374  226.8020 H   0  0  0  0  0  0  0  0  0  0  0  0
  141.3851   70.7528  229.3008 H   0  0  0  0  0  0  0  0  0  0  0  0
  141.5627   72.2502  227.3216 H   0  0  0  0  0  0  0  0  0  0  0  0
  140.1584   79.0665  219.9092 H   0  0  0  0  0  0  0  0  0  0  0  0
  140.7032   77.4471  220.4633 H   0  0  0  0  0  0  0  0  0  0  0  0
  142.3782   80.7216  220.5674 H   0  0  0  0  0  0  0  0  0  0  0  0
  143.1467   81.8181  222.6630 H   0  0  0  0  0  0  0  0  0  0  0  0
  142.6142   80.7865  224.8636 H   0  0  0  0  0  0  0  0  0  0  0  0
  141.3212   78.6680  224.9586 H   0  0  0  0  0  0  0  0  0  0  0  0
  140.5488   77.5576  222.8774 H   0  0  0  0  0  0  0  0  0  0  0  0
  1  2  1  0
  2  3  1  0
  3  4  1  0
  4  5  1  0
  5  6  1  0
  6  7  2  0
  7  8  1  0
  7  9  1  0
  9 10  1  0
 10 11  1  0
 11 12  2  0
 11 13  1  0
 13 14  2  0
 14 15  1  0
 15 16  2  0
 16 17  1  0
 17 18  2  0
 18 19  1  0
 18 20  1  0
 20 21  2  0
 21 22  1  0
 22 23  2  0
  2 24  1  0
 24 25  1  0
 25 26  2  0
 26 27  1  0
 27 28  2  0
 28 29  1  0
 29 30  2  0
 23 13  1  0
 30 25  1  0
 22 16  1  0
  1 31  1  0
  1 32  1  0
  1 33  1  0
  3 34  1  0
  3 35  1  0
  4 36  1  0
  4 37  1  0
  5 38  1  0
  5 39  1  0
  8 40  1  0
  9 41  1  0
  9 42  1  0
 10 43  1  0
 14 44  1  0
 15 45  1  0
 17 46  1  0
 20 47  1  0
 21 48  1  0
 24 49  1  0
 24 50  1  0
 26 51  1  0
 27 52  1  0
 28 53  1  0
 29 54  1  0
 30 55  1  0
M  END
>  <smiles>  (28) 
CN(CCCN=C(O)CNC(=O)c1ccc2cc(F)ccc2n1)Cc1ccccc1

>  <score_type>  (28) 
oracle

>  <origin>  (28) 
autodockgpu

>  <m_score__min__energy>  (28) 
-8.4000000000000004

>  <m_primary>  (28) 
energy

>  <rmsd>  (28) 
1.239261094316906

>  <m_score__min__rmsd>  (28) 
1.239261094316906

>  <meeko>  (28) 
{"free_energy": -8.4, "intermolecular_energy": -11.68, "internal_energy": -1.28, "cluster_size": 26, "cluster_id": 1, "rank_in_cluster": 1}

>  <energy>  (28) 
-7.77

>  <cluster_rmsd>  (28) 
1.58

>  <cluster>  (28) 
2

$$$$

     RDKit          3D

 55 57  0  0  0  0  0  0  0  0999 V2000
  142.1260   78.3940  218.0650 C   0  0  0  0  0  0  0  0  0  0  0  0
  142.4630   78.0160  219.3990 N   0  0  0  0  0  0  0  0  0  0  0  0
  143.0590   76.7100  219.5360 C   0  0  0  0  0  0  0  0  0  0  0  0
  142.1510   75.5640  219.2490 C   0  0  0  0  0  0  0  0  0  0  0  0
  141.5570   74.9130  220.4820 C   0  0  0  0  0  0  0  0  0  0  0  0
  140.1330   74.9380  220.5020 N   0  0  0  0  0  0  0  0  0  0  0  0
  139.5130   74.4910  221.5550 C   0  0  0  0  0  0  0  0  0  0  0  0
  139.5310   75.3090  222.6720 O   0  0  0  0  0  0  0  0  0  0  0  0
  138.8370   73.1680  221.5090 C   0  0  0  0  0  0  0  0  0  0  0  0
  139.1170   72.3130  222.6200 N   0  0  0  0  0  0  0  0  0  0  0  0
  138.8710   70.9120  222.6510 C   0  0  0  0  0  0  0  0  0  0  0  0
  138.3650   70.3320  221.6440 O   0  0  0  0  0  0  0  0  0  0  0  0
  139.2010   70.1250  223.8450 C   0  0  0  0  0  0  0  0  0  0  0  0
  138.8990   68.7660  223.8650 C   0  0  0  0  0  0  0  0  0  0  0  0
  139.2300   68.0830  225.0050 C   0  0  0  0  0  0  0  0  0  0  0  0
  139.8340   68.6770  226.1040 C   0  0  0  0  0  0  0  0  0  0  0  0
  140.1590   67.9730  227.2390 C   0  0  0  0  0  0  0  0  0  0  0  0
  140.7670   68.6200  228.3120 C   0  0  0  0  0  0  0  0  0  0  0  0
  141.0860   67.9050  229.4380 F   0  0  0  0  0  0  0  0  0  0  0  0
  141.0580   69.9770  228.2670 C   0  0  0  0  0  0  0  0  0  0  0  0
  140.7200   70.6610  227.1150 C   0  0  0  0  0  0  0  0  0  0  0  0
  140.1140   70.0310  226.0370 C   0  0  0  0  0  0  0  0  0  0  0  0
  139.7860   70.6980  224.9110 N   0  0  0  0  0  0  0  0  0  0  0  0
  141.2970   78.1170  220.2420 C   0  0  0  0  0  0  0  0  0  0  0  0
  141.6410   78.8940  221.4820 C   0  0  0  0  0  0  0  0  0  0  0  0
  141.4000   78.2350  222.6850 C   0  0  0  0  0  0  0  0  0  0  0  0
  141.6880   78.8790  223.8680 C   0  0  0  0  0  0  0  0  0  0  0  0
  142.2100   80.1620  223.8440 C   0  0  0  0  0  0  0  0  0  0  0  0
  142.4390   80.7940  222.6240 C   0  0  0  0  0  0  0  0  0  0  0  0
  142.1570   80.1680  221.4320 C   0  0  0  0  0  0  0  0  0  0  0  0
  141.3942   79.2149  218.0903 H   0  0  0  0  0  0  0  0  0  0  0  0
  143.0324   78.7269  217.5382 H   0  0  0  0  0  0  0  0  0  0  0  0
  141.6916   77.5316  217.5382 H   0  0  0  0  0  0  0  0  0  0  0  0
  143.9111   76.6506  218.8429 H   0  0  0  0  0  0  0  0  0  0  0  0
  143.3449   76.6149  220.5939 H   0  0  0  0  0  0  0  0  0  0  0  0
  141.3251   75.9283  218.6204 H   0  0  0  0  0  0  0  0  0  0  0  0
  142.7616   74.7962  218.7514 H   0  0  0  0  0  0  0  0  0  0  0  0
  141.8883   73.8647  220.5172 H   0  0  0  0  0  0  0  0  0  0  0  0
  141.9051   75.4873  221.3532 H   0  0  0  0  0  0  0  0  0  0  0  0
  138.9340   75.0220  223.4540 H   0  0  0  0  0  0  0  0  0  0  0  0
  137.7510   73.3396  221.4744 H   0  0  0  0  0  0  0  0  0  0  0  0
  139.2237   72.6534  220.6170 H   0  0  0  0  0  0  0  0  0  0  0  0
  139.5430   72.7070  223.5150 H   0  0  0  0  0  0  0  0  0  0  0  0
  138.4196   68.2670  223.0099 H   0  0  0  0  0  0  0  0  0  0  0  0
  139.0053   67.0072  225.0519 H   0  0  0  0  0  0  0  0  0  0  0  0
  139.9385   66.8970  227.2999 H   0  0  0  0  0  0  0  0  0  0  0  0
  141.5385   70.4872  229.1148 H   0  0  0  0  0  0  0  0  0  0  0  0
  140.9378   71.7373  227.0503 H   0  0  0  0  0  0  0  0  0  0  0  0
  140.4938   78.6339  219.6964 H   0  0  0  0  0  0  0  0  0  0  0  0
  140.9593   77.1086  220.5231 H   0  0  0  0  0  0  0  0  0  0  0  0
  140.9860   77.2159  222.6903 H   0  0  0  0  0  0  0  0  0  0  0  0
  141.5041   78.3761  224.8289 H   0  0  0  0  0  0  0  0  0  0  0  0
  142.4430   80.6803  224.7859 H   0  0  0  0  0  0  0  0  0  0  0  0
  142.8532   81.8130  222.6135 H   0  0  0  0  0  0  0  0  0  0  0  0
  142.3383   80.6700  220.4701 H   0  0  0  0  0  0  0  0  0  0  0  0
  1  2  1  0
  2  3  1  0
  3  4  1  0
  4  5  1  0
  5  6  1  0
  6  7  2  0
  7  8  1  0
  7  9  1  0
  9 10  1  0
 10 11  1  0
 11 12  2  0
 11 13  1  0
 13 14  2  0
 14 15  1  0
 15 16  2  0
 16 17  1  0
 17 18  2  0
 18 19  1  0
 18 20  1  0
 20 21  2  0
 21 22  1  0
 22 23  2  0
  2 24  1  0
 24 25  1  0
 25 26  2  0
 26 27  1  0
 27 28  2  0
 28 29  1  0
 29 30  2  0
 23 13  1  0
 30 25  1  0
 22 16  1  0
  1 31  1  0
  1 32  1  0
  1 33  1  0
  3 34  1  0
  3 35  1  0
  4 36  1  0
  4 37  1  0
  5 38  1  0
  5 39  1  0
  8 40  1  0
  9 41  1  0
  9 42  1  0
 10 43  1  0
 14 44  1  0
 15 45  1  0
 17 46  1  0
 20 47  1  0
 21 48  1  0
 24 49  1  0
 24 50  1  0
 26 51  1  0
 27 52  1  0
 28 53  1  0
 29 54  1  0
 30 55  1  0
M  END
>  <smiles>  (29) 
CN(CCCN=C(O)CNC(=O)c1ccc2cc(F)ccc2n1)Cc1ccccc1

>  <score_type>  (29) 
oracle

>  <origin>  (29) 
autodockgpu

>  <m_score__min__energy>  (29) 
-8.4000000000000004

>  <m_primary>  (29) 
energy

>  <rmsd>  (29) 
0.9835033959064579

>  <m_score__min__rmsd>  (29) 
0.9835033959064579

>  <meeko>  (29) 
{"free_energy": -7.79, "intermolecular_energy": -11.07, "internal_energy": -1.62, "cluster_size": 26, "cluster_id": 1, "rank_in_cluster": 7}

>  <energy>  (29) 
-7.68

>  <cluster_rmsd>  (29) 
1.31

>  <cluster>  (29) 
2

$$$$

     RDKit          3D

 55 57  0  0  0  0  0  0  0  0999 V2000
  139.2000   67.6880  224.2690 C   0  0  0  0  0  0  0  0  0  0  0  0
  138.8090   68.0940  225.5790 N   0  0  0  0  0  0  0  0  0  0  0  0
  138.1250   69.3610  225.6520 C   0  0  0  0  0  0  0  0  0  0  0  0
  137.1590   69.6260  224.5480 C   0  0  0  0  0  0  0  0  0  0  0  0
  137.6000   70.7020  223.5770 C   0  0  0  0  0  0  0  0  0  0  0  0
  139.0110   70.7460  223.3880 N   0  0  0  0  0  0  0  0  0  0  0  0
  139.5420   71.8190  222.8770 C   0  0  0  0  0  0  0  0  0  0  0  0
  140.9110   71.9580  223.0290 O   0  0  0  0  0  0  0  0  0  0  0  0
  138.6820   72.8100  222.1790 C   0  0  0  0  0  0  0  0  0  0  0  0
  139.2030   74.1400  222.1500 N   0  0  0  0  0  0  0  0  0  0  0  0
  140.3210   74.5590  221.3740 C   0  0  0  0  0  0  0  0  0  0  0  0
  140.9350   73.7280  220.6410 O   0  0  0  0  0  0  0  0  0  0  0  0
  140.7730   75.9560  221.4150 C   0  0  0  0  0  0  0  0  0  0  0  0
  141.6660   76.4060  220.4470 C   0  0  0  0  0  0  0  0  0  0  0  0
  142.0520   77.7180  220.5350 C   0  0  0  0  0  0  0  0  0  0  0  0
  141.6010   78.5830  221.5210 C   0  0  0  0  0  0  0  0  0  0  0  0
  142.0000   79.8960  221.5910 C   0  0  0  0  0  0  0  0  0  0  0  0
  141.5140   80.7210  222.6030 C   0  0  0  0  0  0  0  0  0  0  0  0
  141.9200   82.0290  222.6590 F   0  0  0  0  0  0  0  0  0  0  0  0
  140.6230   80.2470  223.5560 C   0  0  0  0  0  0  0  0  0  0  0  0
  140.2390   78.9220  223.4640 C   0  0  0  0  0  0  0  0  0  0  0  0
  140.7140   78.0880  222.4620 C   0  0  0  0  0  0  0  0  0  0  0  0
  140.3370   76.7960  222.3700 N   0  0  0  0  0  0  0  0  0  0  0  0
  139.9590   68.1030  226.4490 C   0  0  0  0  0  0  0  0  0  0  0  0
  140.3290   69.5220  226.7760 C   0  0  0  0  0  0  0  0  0  0  0  0
  141.0630   70.1890  225.7980 C   0  0  0  0  0  0  0  0  0  0  0  0
  141.4420   71.4940  226.0220 C   0  0  0  0  0  0  0  0  0  0  0  0
  141.0900   72.1210  227.2060 C   0  0  0  0  0  0  0  0  0  0  0  0
  140.3540   71.4260  228.1640 C   0  0  0  0  0  0  0  0  0  0  0  0
  139.9670   70.1220  227.9610 C   0  0  0  0  0  0  0  0  0  0  0  0
  139.9613   66.8974  224.3421 H   0  0  0  0  0  0  0  0  0  0  0  0
  138.3232   67.3037  223.7272 H   0  0  0  0  0  0  0  0  0  0  0  0
  139.6170   68.5497  223.7272 H   0  0  0  0  0  0  0  0  0  0  0  0
  137.5728   69.3952  226.6027 H   0  0  0  0  0  0  0  0  0  0  0  0
  138.9038   70.1333  225.5677 H   0  0  0  0  0  0  0  0  0  0  0  0
  137.0151   68.6921  223.9849 H   0  0  0  0  0  0  0  0  0  0  0  0
  136.2338   69.9883  225.0199 H   0  0  0  0  0  0  0  0  0  0  0  0
  137.1232   70.5112  222.6042 H   0  0  0  0  0  0  0  0  0  0  0  0
  137.2980   71.6698  224.0038 H   0  0  0  0  0  0  0  0  0  0  0  0
  141.4170   72.3670  222.2370 H   0  0  0  0  0  0  0  0  0  0  0  0
  138.5453   72.4733  221.1408 H   0  0  0  0  0  0  0  0  0  0  0  0
  137.7413   72.8582  222.7470 H   0  0  0  0  0  0  0  0  0  0  0  0
  138.7570   74.9120  222.7340 H   0  0  0  0  0  0  0  0  0  0  0  0
  142.0421   75.7437  219.6534 H   0  0  0  0  0  0  0  0  0  0  0  0
  142.7565   78.1054  219.7843 H   0  0  0  0  0  0  0  0  0  0  0  0
  142.7042   80.2964  220.8468 H   0  0  0  0  0  0  0  0  0  0  0  0
  140.2376   80.8999  224.3530 H   0  0  0  0  0  0  0  0  0  0  0  0
  139.5362   78.5171  224.2071 H   0  0  0  0  0  0  0  0  0  0  0  0
  139.7207   67.5631  227.3773 H   0  0  0  0  0  0  0  0  0  0  0  0
  140.8038   67.6108  225.9449 H   0  0  0  0  0  0  0  0  0  0  0  0
  141.3358   69.6812  224.8611 H   0  0  0  0  0  0  0  0  0  0  0  0
  142.0230   72.0373  225.2623 H   0  0  0  0  0  0  0  0  0  0  0  0
  141.3902   73.1633  227.3894 H   0  0  0  0  0  0  0  0  0  0  0  0
  140.0771   71.9306  229.1014 H   0  0  0  0  0  0  0  0  0  0  0  0
  139.3874   69.5765  228.7203 H   0  0  0  0  0  0  0  0  0  0  0  0
  1  2  1  0
  2  3  1  0
  3  4  1  0
  4  5  1  0
  5  6  1  0
  6  7  2  0
  7  8  1  0
  7  9  1  0
  9 10  1  0
 10 11  1  0
 11 12  2  0
 11 13  1  0
 13 14  2  0
 14 15  1  0
 15 16  2  0
 16 17  1  0
 17 18  2  0
 18 19  1  0
 18 20  1  0
 20 21  2  0
 21 22  1  0
 22 23  2  0
  2 24  1  0
 24 25  1  0
 25 26  2  0
 26 27  1  0
 27 28  2  0
 28 29  1  0
 29 30  2  0
 23 13  1  0
 30 25  1  0
 22 16  1  0
  1 31  1  0
  1 32  1  0
  1 33  1  0
  3 34  1  0
  3 35  1  0
  4 36  1  0
  4 37  1  0
  5 38  1  0
  5 39  1  0
  8 40  1  0
  9 41  1  0
  9 42  1  0
 10 43  1  0
 14 44  1  0
 15 45  1  0
 17 46  1  0
 20 47  1  0
 21 48  1  0
 24 49  1  0
 24 50  1  0
 26 51  1  0
 27 52  1  0
 28 53  1  0
 29 54  1  0
 30 55  1  0
M  END
>  <smiles>  (30) 
CN(CCCN=C(O)CNC(=O)c1ccc2cc(F)ccc2n1)Cc1ccccc1

>  <score_type>  (30) 
oracle

>  <origin>  (30) 
autodockgpu

>  <m_score__min__energy>  (30) 
-8.4000000000000004

>  <m_primary>  (30) 
energy

>  <rmsd>  (30) 
8.626881522053761

>  <m_score__min__rmsd>  (30) 
8.626881522053761

>  <meeko>  (30) 
{"free_energy": -7.67, "intermolecular_energy": -10.95, "internal_energy": -2.33, "cluster_size": 10, "cluster_id": 2, "rank_in_cluster": 4}

>  <energy>  (30) 
-7.67

>  <cluster_rmsd>  (30) 
1.3

>  <cluster>  (30) 
2

$$$$

     RDKit          3D

 55 57  0  0  0  0  0  0  0  0999 V2000
  142.5750   77.6210  218.6490 C   0  0  0  0  0  0  0  0  0  0  0  0
  141.5280   78.0600  219.5130 N   0  0  0  0  0  0  0  0  0  0  0  0
  140.1990   77.9740  218.9600 C   0  0  0  0  0  0  0  0  0  0  0  0
  139.0910   78.2080  219.9300 C   0  0  0  0  0  0  0  0  0  0  0  0
  138.3150   76.9610  220.3030 C   0  0  0  0  0  0  0  0  0  0  0  0
  139.0830   75.7670  220.2000 N   0  0  0  0  0  0  0  0  0  0  0  0
  139.0090   74.8890  221.1570 C   0  0  0  0  0  0  0  0  0  0  0  0
  139.4700   75.2920  222.3990 O   0  0  0  0  0  0  0  0  0  0  0  0
  138.4500   73.5390  220.8810 C   0  0  0  0  0  0  0  0  0  0  0  0
  138.6080   72.5960  221.9440 N   0  0  0  0  0  0  0  0  0  0  0  0
  139.8220   72.3610  222.6490 C   0  0  0  0  0  0  0  0  0  0  0  0
  140.8690   73.0090  222.3490 O   0  0  0  0  0  0  0  0  0  0  0  0
  139.8740   71.3690  223.7300 C   0  0  0  0  0  0  0  0  0  0  0  0
  139.3990   70.0820  223.4900 C   0  0  0  0  0  0  0  0  0  0  0  0
  139.4720   69.1990  224.5350 C   0  0  0  0  0  0  0  0  0  0  0  0
  139.9860   69.5310  225.7810 C   0  0  0  0  0  0  0  0  0  0  0  0
  140.0520   68.6290  226.8160 C   0  0  0  0  0  0  0  0  0  0  0  0
  140.5790   69.0160  228.0470 C   0  0  0  0  0  0  0  0  0  0  0  0
  140.6390   68.1050  229.0700 F   0  0  0  0  0  0  0  0  0  0  0  0
  141.0460   70.3050  228.2590 C   0  0  0  0  0  0  0  0  0  0  0  0
  140.9670   71.1920  227.2020 C   0  0  0  0  0  0  0  0  0  0  0  0
  140.4450   70.8230  225.9710 C   0  0  0  0  0  0  0  0  0  0  0  0
  140.3700   71.6870  224.9380 N   0  0  0  0  0  0  0  0  0  0  0  0
  141.7930   79.4070  219.9530 C   0  0  0  0  0  0  0  0  0  0  0  0
  141.8840   79.4360  221.4520 C   0  0  0  0  0  0  0  0  0  0  0  0
  142.4360   80.5940  221.9950 C   0  0  0  0  0  0  0  0  0  0  0  0
  142.5550   80.6990  223.3630 C   0  0  0  0  0  0  0  0  0  0  0  0
  142.1280   79.6600  224.1740 C   0  0  0  0  0  0  0  0  0  0  0  0
  141.5800   78.5150  223.6000 C   0  0  0  0  0  0  0  0  0  0  0  0
  141.4530   78.3900  222.2360 C   0  0  0  0  0  0  0  0  0  0  0  0
  143.4233   77.2653  219.2522 H   0  0  0  0  0  0  0  0  0  0  0  0
  142.2072   76.8013  218.0143 H   0  0  0  0  0  0  0  0  0  0  0  0
  142.9018   78.4579  218.0143 H   0  0  0  0  0  0  0  0  0  0  0  0
  140.1144   78.7237  218.1595 H   0  0  0  0  0  0  0  0  0  0  0  0
  140.0819   76.9388  218.6070 H   0  0  0  0  0  0  0  0  0  0  0  0
  139.5214   78.6336  220.8485 H   0  0  0  0  0  0  0  0  0  0  0  0
  138.3790   78.8865  219.4373 H   0  0  0  0  0  0  0  0  0  0  0  0
  137.9675   77.0639  221.3416 H   0  0  0  0  0  0  0  0  0  0  0  0
  137.4797   76.8729  219.5927 H   0  0  0  0  0  0  0  0  0  0  0  0
  139.5630   74.5600  223.1090 H   0  0  0  0  0  0  0  0  0  0  0  0
  137.3745   73.6489  220.6780 H   0  0  0  0  0  0  0  0  0  0  0  0
  139.0143   73.1390  220.0257 H   0  0  0  0  0  0  0  0  0  0  0  0
  137.7860   72.0010  222.2690 H   0  0  0  0  0  0  0  0  0  0  0  0
  138.9869   69.7898  222.5129 H   0  0  0  0  0  0  0  0  0  0  0  0
  139.1044   68.1741  224.3786 H   0  0  0  0  0  0  0  0  0  0  0  0
  139.6886   67.6007  226.6727 H   0  0  0  0  0  0  0  0  0  0  0  0
  141.4629   70.6092  229.2304 H   0  0  0  0  0  0  0  0  0  0  0  0
  141.3289   72.2214  227.3411 H   0  0  0  0  0  0  0  0  0  0  0  0
  142.7436   79.7533  219.5213 H   0  0  0  0  0  0  0  0  0  0  0  0
  140.9777   80.0674  219.6226 H   0  0  0  0  0  0  0  0  0  0  0  0
  142.7718   81.4122  221.3410 H   0  0  0  0  0  0  0  0  0  0  0  0
  142.9880   81.6056  223.8107 H   0  0  0  0  0  0  0  0  0  0  0  0
  142.2214   79.7389  225.2672 H   0  0  0  0  0  0  0  0  0  0  0  0
  141.2422   77.6947  224.2504 H   0  0  0  0  0  0  0  0  0  0  0  0
  141.0211   77.4837  221.7865 H   0  0  0  0  0  0  0  0  0  0  0  0
  1  2  1  0
  2  3  1  0
  3  4  1  0
  4  5  1  0
  5  6  1  0
  6  7  2  0
  7  8  1  0
  7  9  1  0
  9 10  1  0
 10 11  1  0
 11 12  2  0
 11 13  1  0
 13 14  2  0
 14 15  1  0
 15 16  2  0
 16 17  1  0
 17 18  2  0
 18 19  1  0
 18 20  1  0
 20 21  2  0
 21 22  1  0
 22 23  2  0
  2 24  1  0
 24 25  1  0
 25 26  2  0
 26 27  1  0
 27 28  2  0
 28 29  1  0
 29 30  2  0
 23 13  1  0
 30 25  1  0
 22 16  1  0
  1 31  1  0
  1 32  1  0
  1 33  1  0
  3 34  1  0
  3 35  1  0
  4 36  1  0
  4 37  1  0
  5 38  1  0
  5 39  1  0
  8 40  1  0
  9 41  1  0
  9 42  1  0
 10 43  1  0
 14 44  1  0
 15 45  1  0
 17 46  1  0
 20 47  1  0
 21 48  1  0
 24 49  1  0
 24 50  1  0
 26 51  1  0
 27 52  1  0
 28 53  1  0
 29 54  1  0
 30 55  1  0
M  END
>  <smiles>  (31) 
CN(CCCN=C(O)CNC(=O)c1ccc2cc(F)ccc2n1)Cc1ccccc1

>  <score_type>  (31) 
oracle

>  <origin>  (31) 
autodockgpu

>  <m_score__min__energy>  (31) 
-8.4000000000000004

>  <m_primary>  (31) 
energy

>  <rmsd>  (31) 
1.1284521604454887

>  <m_score__min__rmsd>  (31) 
1.1284521604454887

>  <meeko>  (31) 
{"free_energy": -7.37, "intermolecular_energy": -10.65, "internal_energy": -1.81, "cluster_size": 26, "cluster_id": 1, "rank_in_cluster": 18}

>  <energy>  (31) 
-7.48

>  <cluster_rmsd>  (31) 
1.7

>  <cluster>  (31) 
2

$$$$

     RDKit          3D

 55 57  0  0  0  0  0  0  0  0999 V2000
  141.9170   79.5810  218.1380 C   0  0  0  0  0  0  0  0  0  0  0  0
  142.2010   78.7130  219.2340 N   0  0  0  0  0  0  0  0  0  0  0  0
  142.5710   77.3670  218.8720 C   0  0  0  0  0  0  0  0  0  0  0  0
  142.5770   76.3870  219.9950 C   0  0  0  0  0  0  0  0  0  0  0  0
  141.4740   75.3500  219.9250 C   0  0  0  0  0  0  0  0  0  0  0  0
  140.2890   75.7410  220.6100 N   0  0  0  0  0  0  0  0  0  0  0  0
  139.7910   74.9420  221.5090 C   0  0  0  0  0  0  0  0  0  0  0  0
  139.4230   75.5230  222.7100 O   0  0  0  0  0  0  0  0  0  0  0  0
  139.6460   73.4930  221.2110 C   0  0  0  0  0  0  0  0  0  0  0  0
  139.6490   72.6430  222.3600 N   0  0  0  0  0  0  0  0  0  0  0  0
  139.7480   71.2240  222.3210 C   0  0  0  0  0  0  0  0  0  0  0  0
  139.8410   70.6210  221.2100 O   0  0  0  0  0  0  0  0  0  0  0  0
  139.7450   70.4440  223.5650 C   0  0  0  0  0  0  0  0  0  0  0  0
  139.1460   69.1870  223.5750 C   0  0  0  0  0  0  0  0  0  0  0  0
  139.1750   68.5050  224.7630 C   0  0  0  0  0  0  0  0  0  0  0  0
  139.7580   69.0060  225.9180 C   0  0  0  0  0  0  0  0  0  0  0  0
  139.7760   68.3060  227.0990 C   0  0  0  0  0  0  0  0  0  0  0  0
  140.3780   68.8570  228.2290 C   0  0  0  0  0  0  0  0  0  0  0  0
  140.3890   68.1460  229.4010 F   0  0  0  0  0  0  0  0  0  0  0  0
  140.9690   70.1120  228.1930 C   0  0  0  0  0  0  0  0  0  0  0  0
  140.9350   70.7960  226.9920 C   0  0  0  0  0  0  0  0  0  0  0  0
  140.3400   70.2610  225.8590 C   0  0  0  0  0  0  0  0  0  0  0  0
  140.3100   70.9270  224.6860 N   0  0  0  0  0  0  0  0  0  0  0  0
  141.0790   78.6910  220.1390 C   0  0  0  0  0  0  0  0  0  0  0  0
  141.5270   79.1320  221.5040 C   0  0  0  0  0  0  0  0  0  0  0  0
  142.1280   80.3860  221.5580 C   0  0  0  0  0  0  0  0  0  0  0  0
  142.5670   80.8640  222.7740 C   0  0  0  0  0  0  0  0  0  0  0  0
  142.4050   80.0960  223.9150 C   0  0  0  0  0  0  0  0  0  0  0  0
  141.7990   78.8450  223.8270 C   0  0  0  0  0  0  0  0  0  0  0  0
  141.3550   78.3500  222.6230 C   0  0  0  0  0  0  0  0  0  0  0  0
  141.5963   80.5613  218.5202 H   0  0  0  0  0  0  0  0  0  0  0  0
  142.8215   79.7048  217.5244 H   0  0  0  0  0  0  0  0  0  0  0  0
  141.1143   79.1462  217.5244 H   0  0  0  0  0  0  0  0  0  0  0  0
  141.8589   77.0107  218.1131 H   0  0  0  0  0  0  0  0  0  0  0  0
  143.6081   77.4224  218.5095 H   0  0  0  0  0  0  0  0  0  0  0  0
  143.5438   75.8623  219.9889 H   0  0  0  0  0  0  0  0  0  0  0  0
  142.4087   76.9636  220.9165 H   0  0  0  0  0  0  0  0  0  0  0  0
  141.2249   75.1761  218.8678 H   0  0  0  0  0  0  0  0  0  0  0  0
  141.8499   74.4410  220.4173 H   0  0  0  0  0  0  0  0  0  0  0  0
  138.8380   74.9540  223.3300 H   0  0  0  0  0  0  0  0  0  0  0  0
  138.6945   73.3463  220.6790 H   0  0  0  0  0  0  0  0  0  0  0  0
  140.5248   73.2097  220.6131 H   0  0  0  0  0  0  0  0  0  0  0  0
  139.5740   73.0540  223.3410 H   0  0  0  0  0  0  0  0  0  0  0  0
  138.6741   68.7636  222.6760 H   0  0  0  0  0  0  0  0  0  0  0  0
  138.7118   67.5081  224.8031 H   0  0  0  0  0  0  0  0  0  0  0  0
  139.3147   67.3089  227.1535 H   0  0  0  0  0  0  0  0  0  0  0  0
  141.4456   70.5454  229.0846 H   0  0  0  0  0  0  0  0  0  0  0  0
  141.3934   71.7942  226.9332 H   0  0  0  0  0  0  0  0  0  0  0  0
  140.2981   79.3730  219.7714 H   0  0  0  0  0  0  0  0  0  0  0  0
  140.6758   77.6693  220.1980 H   0  0  0  0  0  0  0  0  0  0  0  0
  142.2508   80.9864  220.6445 H   0  0  0  0  0  0  0  0  0  0  0  0
  143.0447   81.8528  222.8380 H   0  0  0  0  0  0  0  0  0  0  0  0
  142.7538   80.4728  224.8878 H   0  0  0  0  0  0  0  0  0  0  0  0
  141.6731   78.2413  224.7379 H   0  0  0  0  0  0  0  0  0  0  0  0
  140.8779   77.3611  222.5568 H   0  0  0  0  0  0  0  0  0  0  0  0
  1  2  1  0
  2  3  1  0
  3  4  1  0
  4  5  1  0
  5  6  1  0
  6  7  2  0
  7  8  1  0
  7  9  1  0
  9 10  1  0
 10 11  1  0
 11 12  2  0
 11 13  1  0
 13 14  2  0
 14 15  1  0
 15 16  2  0
 16 17  1  0
 17 18  2  0
 18 19  1  0
 18 20  1  0
 20 21  2  0
 21 22  1  0
 22 23  2  0
  2 24  1  0
 24 25  1  0
 25 26  2  0
 26 27  1  0
 27 28  2  0
 28 29  1  0
 29 30  2  0
 23 13  1  0
 30 25  1  0
 22 16  1  0
  1 31  1  0
  1 32  1  0
  1 33  1  0
  3 34  1  0
  3 35  1  0
  4 36  1  0
  4 37  1  0
  5 38  1  0
  5 39  1  0
  8 40  1  0
  9 41  1  0
  9 42  1  0
 10 43  1  0
 14 44  1  0
 15 45  1  0
 17 46  1  0
 20 47  1  0
 21 48  1  0
 24 49  1  0
 24 50  1  0
 26 51  1  0
 27 52  1  0
 28 53  1  0
 29 54  1  0
 30 55  1  0
M  END
>  <smiles>  (32) 
CN(CCCN=C(O)CNC(=O)c1ccc2cc(F)ccc2n1)Cc1ccccc1

>  <score_type>  (32) 
oracle

>  <origin>  (32) 
autodockgpu

>  <m_score__min__energy>  (32) 
-8.4000000000000004

>  <m_primary>  (32) 
energy

>  <rmsd>  (32) 
0.9617518083170954

>  <m_score__min__rmsd>  (32) 
0.9617518083170954

>  <meeko>  (32) 
{"free_energy": -7.9, "intermolecular_energy": -11.18, "internal_energy": -1.67, "cluster_size": 26, "cluster_id": 1, "rank_in_cluster": 4}

>  <energy>  (32) 
-7.46

>  <cluster_rmsd>  (32) 
1.63

>  <cluster>  (32) 
2

$$$$

     RDKit          3D

 55 57  0  0  0  0  0  0  0  0999 V2000
  139.2050   67.7480  224.0010 C   0  0  0  0  0  0  0  0  0  0  0  0
  138.7990   68.1240  225.3150 N   0  0  0  0  0  0  0  0  0  0  0  0
  138.1650   69.4150  225.4170 C   0  0  0  0  0  0  0  0  0  0  0  0
  137.4180   69.8540  224.2040 C   0  0  0  0  0  0  0  0  0  0  0  0
  137.9150   71.1510  223.6000 C   0  0  0  0  0  0  0  0  0  0  0  0
  137.9750   71.1240  222.1780 N   0  0  0  0  0  0  0  0  0  0  0  0
  138.0000   72.2510  221.5290 C   0  0  0  0  0  0  0  0  0  0  0  0
  138.7060   72.2600  220.3380 O   0  0  0  0  0  0  0  0  0  0  0  0
  137.2930   73.4370  222.0800 C   0  0  0  0  0  0  0  0  0  0  0  0
  138.0140   74.6660  221.9780 N   0  0  0  0  0  0  0  0  0  0  0  0
  139.4330   74.7810  221.9960 C   0  0  0  0  0  0  0  0  0  0  0  0
  140.1540   73.7460  222.1110 O   0  0  0  0  0  0  0  0  0  0  0  0
  140.0740   76.0970  221.8800 C   0  0  0  0  0  0  0  0  0  0  0  0
  141.0780   76.2790  220.9330 C   0  0  0  0  0  0  0  0  0  0  0  0
  141.6390   77.5270  220.8700 C   0  0  0  0  0  0  0  0  0  0  0  0
  141.2570   78.5790  221.6900 C   0  0  0  0  0  0  0  0  0  0  0  0
  141.8330   79.8240  221.6100 C   0  0  0  0  0  0  0  0  0  0  0  0
  141.4090   80.8460  222.4580 C   0  0  0  0  0  0  0  0  0  0  0  0
  141.9920   82.0830  222.3670 F   0  0  0  0  0  0  0  0  0  0  0  0
  140.4060   80.6380  223.3940 C   0  0  0  0  0  0  0  0  0  0  0  0
  139.8440   79.3760  223.4550 C   0  0  0  0  0  0  0  0  0  0  0  0
  140.2550   78.3490  222.6170 C   0  0  0  0  0  0  0  0  0  0  0  0
  139.7060   77.1180  222.6740 N   0  0  0  0  0  0  0  0  0  0  0  0
  139.9260   68.0550  226.2110 C   0  0  0  0  0  0  0  0  0  0  0  0
  140.3020   69.4420  226.6520 C   0  0  0  0  0  0  0  0  0  0  0  0
  141.0420   70.1800  225.7320 C   0  0  0  0  0  0  0  0  0  0  0  0
  141.4270   71.4620  226.0610 C   0  0  0  0  0  0  0  0  0  0  0  0
  141.0740   71.9930  227.2900 C   0  0  0  0  0  0  0  0  0  0  0  0
  140.3320   71.2280  228.1880 C   0  0  0  0  0  0  0  0  0  0  0  0
  139.9400   69.9470  227.8790 C   0  0  0  0  0  0  0  0  0  0  0  0
  140.0107   67.0019  224.0656 H   0  0  0  0  0  0  0  0  0  0  0  0
  138.3485   67.3171  223.4618 H   0  0  0  0  0  0  0  0  0  0  0  0
  139.5691   68.6350  223.4618 H   0  0  0  0  0  0  0  0  0  0  0  0
  137.4573   69.3808  226.2584 H   0  0  0  0  0  0  0  0  0  0  0  0
  138.9775   70.1435  225.5549 H   0  0  0  0  0  0  0  0  0  0  0  0
  137.5034   69.0647  223.4426 H   0  0  0  0  0  0  0  0  0  0  0  0
  136.3799   70.0322  224.5213 H   0  0  0  0  0  0  0  0  0  0  0  0
  137.2362   71.9609  223.9054 H   0  0  0  0  0  0  0  0  0  0  0  0
  138.9402   71.3088  223.9662 H   0  0  0  0  0  0  0  0  0  0  0  0
  139.3970   73.0080  220.2250 H   0  0  0  0  0  0  0  0  0  0  0  0
  136.3431   73.5516  221.5373 H   0  0  0  0  0  0  0  0  0  0  0  0
  137.1588   73.2454  223.1548 H   0  0  0  0  0  0  0  0  0  0  0  0
  137.4970   75.5940  221.8790 H   0  0  0  0  0  0  0  0  0  0  0  0
  141.4036   75.4636  220.2703 H   0  0  0  0  0  0  0  0  0  0  0  0
  142.4339   77.7045  220.1307 H   0  0  0  0  0  0  0  0  0  0  0  0
  142.6297   80.0145  220.8759 H   0  0  0  0  0  0  0  0  0  0  0  0
  140.0710   81.4456  224.0615 H   0  0  0  0  0  0  0  0  0  0  0  0
  139.0482   79.1805  224.1889 H   0  0  0  0  0  0  0  0  0  0  0  0
  139.6587   67.4506  227.0904 H   0  0  0  0  0  0  0  0  0  0  0  0
  140.7784   67.5917  225.6926 H   0  0  0  0  0  0  0  0  0  0  0  0
  141.3150   69.7470  224.7584 H   0  0  0  0  0  0  0  0  0  0  0  0
  142.0131   72.0616  225.3490 H   0  0  0  0  0  0  0  0  0  0  0  0
  141.3784   73.0158  227.5569 H   0  0  0  0  0  0  0  0  0  0  0  0
  140.0548   71.6571  229.1622 H   0  0  0  0  0  0  0  0  0  0  0  0
  139.3555   69.3452  228.5904 H   0  0  0  0  0  0  0  0  0  0  0  0
  1  2  1  0
  2  3  1  0
  3  4  1  0
  4  5  1  0
  5  6  1  0
  6  7  2  0
  7  8  1  0
  7  9  1  0
  9 10  1  0
 10 11  1  0
 11 12  2  0
 11 13  1  0
 13 14  2  0
 14 15  1  0
 15 16  2  0
 16 17  1  0
 17 18  2  0
 18 19  1  0
 18 20  1  0
 20 21  2  0
 21 22  1  0
 22 23  2  0
  2 24  1  0
 24 25  1  0
 25 26  2  0
 26 27  1  0
 27 28  2  0
 28 29  1  0
 29 30  2  0
 23 13  1  0
 30 25  1  0
 22 16  1  0
  1 31  1  0
  1 32  1  0
  1 33  1  0
  3 34  1  0
  3 35  1  0
  4 36  1  0
  4 37  1  0
  5 38  1  0
  5 39  1  0
  8 40  1  0
  9 41  1  0
  9 42  1  0
 10 43  1  0
 14 44  1  0
 15 45  1  0
 17 46  1  0
 20 47  1  0
 21 48  1  0
 24 49  1  0
 24 50  1  0
 26 51  1  0
 27 52  1  0
 28 53  1  0
 29 54  1  0
 30 55  1  0
M  END
>  <smiles>  (33) 
CN(CCCN=C(O)CNC(=O)c1ccc2cc(F)ccc2n1)Cc1ccccc1

>  <score_type>  (33) 
oracle

>  <origin>  (33) 
autodockgpu

>  <m_score__min__energy>  (33) 
-8.4000000000000004

>  <m_primary>  (33) 
energy

>  <rmsd>  (33) 
8.651687054037195

>  <m_score__min__rmsd>  (33) 
8.651687054037195

>  <meeko>  (33) 
{"free_energy": -7.36, "intermolecular_energy": -10.65, "internal_energy": -1.74, "cluster_size": 10, "cluster_id": 2, "rank_in_cluster": 8}

>  <energy>  (33) 
-7.41

>  <cluster_rmsd>  (33) 
1.56

>  <cluster>  (33) 
2

$$$$

     RDKit          3D

 55 57  0  0  0  0  0  0  0  0999 V2000
  141.7200   79.0660  217.9780 C   0  0  0  0  0  0  0  0  0  0  0  0
  142.0700   79.0680  219.3600 N   0  0  0  0  0  0  0  0  0  0  0  0
  142.2010   77.7650  219.9640 C   0  0  0  0  0  0  0  0  0  0  0  0
  142.4080   76.6400  219.0080 C   0  0  0  0  0  0  0  0  0  0  0  0
  141.5870   75.4040  219.3120 C   0  0  0  0  0  0  0  0  0  0  0  0
  140.3940   75.6830  220.0370 N   0  0  0  0  0  0  0  0  0  0  0  0
  140.2010   75.0890  221.1790 C   0  0  0  0  0  0  0  0  0  0  0  0
  140.9710   75.5320  222.2410 O   0  0  0  0  0  0  0  0  0  0  0  0
  139.1960   73.9980  221.2840 C   0  0  0  0  0  0  0  0  0  0  0  0
  139.4000   73.0990  222.3750 N   0  0  0  0  0  0  0  0  0  0  0  0
  139.1350   71.7010  222.3380 C   0  0  0  0  0  0  0  0  0  0  0  0
  138.6800   71.1670  221.2820 O   0  0  0  0  0  0  0  0  0  0  0  0
  139.3850   70.8640  223.5180 C   0  0  0  0  0  0  0  0  0  0  0  0
  139.0330   69.5180  223.4800 C   0  0  0  0  0  0  0  0  0  0  0  0
  139.2910   68.7870  224.6100 C   0  0  0  0  0  0  0  0  0  0  0  0
  139.8690   69.3230  225.7520 C   0  0  0  0  0  0  0  0  0  0  0  0
  140.1190   68.5710  226.8740 C   0  0  0  0  0  0  0  0  0  0  0  0
  140.7040   69.1610  227.9930 C   0  0  0  0  0  0  0  0  0  0  0  0
  140.9490   68.3980  229.1060 F   0  0  0  0  0  0  0  0  0  0  0  0
  141.0460   70.5060  228.0050 C   0  0  0  0  0  0  0  0  0  0  0  0
  140.7820   71.2390  226.8640 C   0  0  0  0  0  0  0  0  0  0  0  0
  140.2000   70.6670  225.7420 C   0  0  0  0  0  0  0  0  0  0  0  0
  139.9450   71.3810  224.6260 N   0  0  0  0  0  0  0  0  0  0  0  0
  141.1200   79.8610  220.1010 C   0  0  0  0  0  0  0  0  0  0  0  0
  141.4480   79.7980  221.5660 C   0  0  0  0  0  0  0  0  0  0  0  0
  142.5700   80.5230  221.9590 C   0  0  0  0  0  0  0  0  0  0  0  0
  142.9380   80.5160  223.2870 C   0  0  0  0  0  0  0  0  0  0  0  0
  142.1930   79.7940  224.2040 C   0  0  0  0  0  0  0  0  0  0  0  0
  141.0750   79.0790  223.7790 C   0  0  0  0  0  0  0  0  0  0  0  0
  140.6920   79.0730  222.4580 C   0  0  0  0  0  0  0  0  0  0  0  0
  140.6246   79.0597  217.8772 H   0  0  0  0  0  0  0  0  0  0  0  0
  142.1275   79.9665  217.4952 H   0  0  0  0  0  0  0  0  0  0  0  0
  142.1378   78.1702  217.4952 H   0  0  0  0  0  0  0  0  0  0  0  0
  143.0614   77.7923  220.6488 H   0  0  0  0  0  0  0  0  0  0  0  0
  141.2441   77.5648  220.4683 H   0  0  0  0  0  0  0  0  0  0  0  0
  142.1416   76.9911  218.0001 H   0  0  0  0  0  0  0  0  0  0  0  0
  143.4643   76.3450  219.0930 H   0  0  0  0  0  0  0  0  0  0  0  0
  141.3130   74.9245  218.3607 H   0  0  0  0  0  0  0  0  0  0  0  0
  142.2059   74.7498  219.9437 H   0  0  0  0  0  0  0  0  0  0  0  0
  141.8420   76.0140  222.0000 H   0  0  0  0  0  0  0  0  0  0  0  0
  138.2032   74.4572  221.4000 H   0  0  0  0  0  0  0  0  0  0  0  0
  139.2924   73.3987  220.3666 H   0  0  0  0  0  0  0  0  0  0  0  0
  139.7790   73.4510  223.3080 H   0  0  0  0  0  0  0  0  0  0  0  0
  138.5721   69.0649  222.5899 H   0  0  0  0  0  0  0  0  0  0  0  0
  139.0260   67.7194  224.6119 H   0  0  0  0  0  0  0  0  0  0  0  0
  139.8574   67.5027  226.8893 H   0  0  0  0  0  0  0  0  0  0  0  0
  141.5091   70.9702  228.8882 H   0  0  0  0  0  0  0  0  0  0  0  0
  141.0410   72.3079  226.8446 H   0  0  0  0  0  0  0  0  0  0  0  0
  141.1687   80.9054  219.7591 H   0  0  0  0  0  0  0  0  0  0  0  0
  140.1063   79.4674  219.9354 H   0  0  0  0  0  0  0  0  0  0  0  0
  143.1536   81.0926  221.2208 H   0  0  0  0  0  0  0  0  0  0  0  0
  143.8211   81.0824  223.6176 H   0  0  0  0  0  0  0  0  0  0  0  0
  142.4829   79.7849  225.2651 H   0  0  0  0  0  0  0  0  0  0  0  0
  140.4877   78.5087  224.5138 H   0  0  0  0  0  0  0  0  0  0  0  0
  139.8096   78.5067  222.1254 H   0  0  0  0  0  0  0  0  0  0  0  0
  1  2  1  0
  2  3  1  0
  3  4  1  0
  4  5  1  0
  5  6  1  0
  6  7  2  0
  7  8  1  0
  7  9  1  0
  9 10  1  0
 10 11  1  0
 11 12  2  0
 11 13  1  0
 13 14  2  0
 14 15  1  0
 15 16  2  0
 16 17  1  0
 17 18  2  0
 18 19  1  0
 18 20  1  0
 20 21  2  0
 21 22  1  0
 22 23  2  0
  2 24  1  0
 24 25  1  0
 25 26  2  0
 26 27  1  0
 27 28  2  0
 28 29  1  0
 29 30  2  0
 23 13  1  0
 30 25  1  0
 22 16  1  0
  1 31  1  0
  1 32  1  0
  1 33  1  0
  3 34  1  0
  3 35  1  0
  4 36  1  0
  4 37  1  0
  5 38  1  0
  5 39  1  0
  8 40  1  0
  9 41  1  0
  9 42  1  0
 10 43  1  0
 14 44  1  0
 15 45  1  0
 17 46  1  0
 20 47  1  0
 21 48  1  0
 24 49  1  0
 24 50  1  0
 26 51  1  0
 27 52  1  0
 28 53  1  0
 29 54  1  0
 30 55  1  0
M  END
>  <smiles>  (34) 
CN(CCCN=C(O)CNC(=O)c1ccc2cc(F)ccc2n1)Cc1ccccc1

>  <score_type>  (34) 
oracle

>  <origin>  (34) 
autodockgpu

>  <m_score__min__energy>  (34) 
-8.4000000000000004

>  <m_primary>  (34) 
energy

>  <rmsd>  (34) 
0.7787197062125382

>  <m_score__min__rmsd>  (34) 
0.7787197062125382

>  <meeko>  (34) 
{"free_energy": -7.56, "intermolecular_energy": -10.84, "internal_energy": -1.71, "cluster_size": 26, "cluster_id": 1, "rank_in_cluster": 14}

>  <energy>  (34) 
-7.36

>  <cluster_rmsd>  (34) 
1.41

>  <cluster>  (34) 
2

$$$$

     RDKit          3D

 55 57  0  0  0  0  0  0  0  0999 V2000
  137.0280   81.1320  223.5760 C   0  0  0  0  0  0  0  0  0  0  0  0
  138.0180   80.1980  223.1500 N   0  0  0  0  0  0  0  0  0  0  0  0
  137.5090   78.9250  222.7020 C   0  0  0  0  0  0  0  0  0  0  0  0
  138.4040   78.1730  221.7760 C   0  0  0  0  0  0  0  0  0  0  0  0
  139.0680   76.9620  222.3960 C   0  0  0  0  0  0  0  0  0  0  0  0
  140.3230   76.6420  221.8030 N   0  0  0  0  0  0  0  0  0  0  0  0
  140.5240   75.4310  221.3730 C   0  0  0  0  0  0  0  0  0  0  0  0
  141.8220   75.1150  221.0090 O   0  0  0  0  0  0  0  0  0  0  0  0
  139.3880   74.4750  221.2970 C   0  0  0  0  0  0  0  0  0  0  0  0
  139.3570   73.4960  222.3370 N   0  0  0  0  0  0  0  0  0  0  0  0
  140.3730   72.5270  222.5730 C   0  0  0  0  0  0  0  0  0  0  0  0
  141.4000   72.4870  221.8320 O   0  0  0  0  0  0  0  0  0  0  0  0
  140.2430   71.5670  223.6760 C   0  0  0  0  0  0  0  0  0  0  0  0
  139.6370   70.3370  223.4340 C   0  0  0  0  0  0  0  0  0  0  0  0
  139.5430   69.4810  224.5000 C   0  0  0  0  0  0  0  0  0  0  0  0
  140.0150   69.7870  225.7690 C   0  0  0  0  0  0  0  0  0  0  0  0
  139.9120   68.9130  226.8240 C   0  0  0  0  0  0  0  0  0  0  0  0
  140.4050   69.2720  228.0780 C   0  0  0  0  0  0  0  0  0  0  0  0
  140.2960   68.3900  229.1220 F   0  0  0  0  0  0  0  0  0  0  0  0
  141.0050   70.5050  228.2930 C   0  0  0  0  0  0  0  0  0  0  0  0
  141.0940   71.3650  227.2140 C   0  0  0  0  0  0  0  0  0  0  0  0
  140.6090   71.0230  225.9600 C   0  0  0  0  0  0  0  0  0  0  0  0
  140.6980   71.8600  224.9060 N   0  0  0  0  0  0  0  0  0  0  0  0
  138.9850   80.0010  224.2000 C   0  0  0  0  0  0  0  0  0  0  0  0
  140.3720   80.1030  223.6300 C   0  0  0  0  0  0  0  0  0  0  0  0
  140.6150   81.2300  222.8490 C   0  0  0  0  0  0  0  0  0  0  0  0
  141.8620   81.3980  222.2900 C   0  0  0  0  0  0  0  0  0  0  0  0
  142.8500   80.4520  222.5100 C   0  0  0  0  0  0  0  0  0  0  0  0
  142.5750   79.3360  223.2970 C   0  0  0  0  0  0  0  0  0  0  0  0
  141.3360   79.1490  223.8640 C   0  0  0  0  0  0  0  0  0  0  0  0
  136.9988   81.1595  224.6753 H   0  0  0  0  0  0  0  0  0  0  0  0
  137.2771   82.1317  223.1907 H   0  0  0  0  0  0  0  0  0  0  0  0
  136.0445   80.8251  223.1907 H   0  0  0  0  0  0  0  0  0  0  0  0
  137.3326   78.2981  223.5885 H   0  0  0  0  0  0  0  0  0  0  0  0
  136.5953   79.1458  222.1307 H   0  0  0  0  0  0  0  0  0  0  0  0
  137.8054   77.8354  220.9171 H   0  0  0  0  0  0  0  0  0  0  0  0
  139.2118   78.8627  221.4902 H   0  0  0  0  0  0  0  0  0  0  0  0
  139.2281   77.1611  223.4659 H   0  0  0  0  0  0  0  0  0  0  0  0
  138.4007   76.1036  222.2294 H   0  0  0  0  0  0  0  0  0  0  0  0
  142.0680   74.1210  221.0210 H   0  0  0  0  0  0  0  0  0  0  0  0
  138.4523   75.0515  221.3420 H   0  0  0  0  0  0  0  0  0  0  0  0
  139.5124   73.9213  220.3547 H   0  0  0  0  0  0  0  0  0  0  0  0
  138.5340   73.4470  223.0140 H   0  0  0  0  0  0  0  0  0  0  0  0
  139.2537   70.0665  222.4391 H   0  0  0  0  0  0  0  0  0  0  0  0
  139.0691   68.5010  224.3419 H   0  0  0  0  0  0  0  0  0  0  0  0
  139.4405   67.9297  226.6794 H   0  0  0  0  0  0  0  0  0  0  0  0
  141.3943   70.7868  229.2825 H   0  0  0  0  0  0  0  0  0  0  0  0
  141.5634   72.3499  227.3541 H   0  0  0  0  0  0  0  0  0  0  0  0
  138.8488   80.7716  224.9731 H   0  0  0  0  0  0  0  0  0  0  0  0
  138.8443   79.0052  224.6457 H   0  0  0  0  0  0  0  0  0  0  0  0
  139.8229   81.9746  222.6812 H   0  0  0  0  0  0  0  0  0  0  0  0
  142.0734   82.2816  221.6699 H   0  0  0  0  0  0  0  0  0  0  0  0
  143.8476   80.5817  222.0650 H   0  0  0  0  0  0  0  0  0  0  0  0
  143.3645   78.5894  223.4684 H   0  0  0  0  0  0  0  0  0  0  0  0
  141.1225   78.2659  224.4842 H   0  0  0  0  0  0  0  0  0  0  0  0
  1  2  1  0
  2  3  1  0
  3  4  1  0
  4  5  1  0
  5  6  1  0
  6  7  2  0
  7  8  1  0
  7  9  1  0
  9 10  1  0
 10 11  1  0
 11 12  2  0
 11 13  1  0
 13 14  2  0
 14 15  1  0
 15 16  2  0
 16 17  1  0
 17 18  2  0
 18 19  1  0
 18 20  1  0
 20 21  2  0
 21 22  1  0
 22 23  2  0
  2 24  1  0
 24 25  1  0
 25 26  2  0
 26 27  1  0
 27 28  2  0
 28 29  1  0
 29 30  2  0
 23 13  1  0
 30 25  1  0
 22 16  1  0
  1 31  1  0
  1 32  1  0
  1 33  1  0
  3 34  1  0
  3 35  1  0
  4 36  1  0
  4 37  1  0
  5 38  1  0
  5 39  1  0
  8 40  1  0
  9 41  1  0
  9 42  1  0
 10 43  1  0
 14 44  1  0
 15 45  1  0
 17 46  1  0
 20 47  1  0
 21 48  1  0
 24 49  1  0
 24 50  1  0
 26 51  1  0
 27 52  1  0
 28 53  1  0
 29 54  1  0
 30 55  1  0
M  END
>  <smiles>  (35) 
CN(CCCN=C(O)CNC(=O)c1ccc2cc(F)ccc2n1)Cc1ccccc1

>  <score_type>  (35) 
oracle

>  <origin>  (35) 
autodockgpu

>  <m_score__min__energy>  (35) 
-8.4000000000000004

>  <m_primary>  (35) 
energy

>  <rmsd>  (35) 
1.3283393580870921

>  <m_score__min__rmsd>  (35) 
1.3283393580870921

>  <meeko>  (35) 
{"free_energy": -7.42, "intermolecular_energy": -10.7, "internal_energy": -2.03, "cluster_size": 6, "cluster_id": 3, "rank_in_cluster": 4}

>  <energy>  (35) 
-7.3

>  <cluster_rmsd>  (35) 
1.3

>  <cluster>  (35) 
2

$$$$

     RDKit          3D

 55 57  0  0  0  0  0  0  0  0999 V2000
  142.0250   79.9260  218.2920 C   0  0  0  0  0  0  0  0  0  0  0  0
  142.2010   78.8500  219.2110 N   0  0  0  0  0  0  0  0  0  0  0  0
  142.4110   77.5560  218.6100 C   0  0  0  0  0  0  0  0  0  0  0  0
  143.0420   76.5380  219.4970 C   0  0  0  0  0  0  0  0  0  0  0  0
  142.1500   75.3590  219.8270 C   0  0  0  0  0  0  0  0  0  0  0  0
  141.1820   75.6470  220.8310 N   0  0  0  0  0  0  0  0  0  0  0  0
  140.5820   74.6580  221.4270 C   0  0  0  0  0  0  0  0  0  0  0  0
  139.6010   74.9970  222.3430 O   0  0  0  0  0  0  0  0  0  0  0  0
  140.9650   73.2580  221.1040 C   0  0  0  0  0  0  0  0  0  0  0  0
  140.8790   72.3460  222.2010 N   0  0  0  0  0  0  0  0  0  0  0  0
  139.6650   71.8290  222.7350 C   0  0  0  0  0  0  0  0  0  0  0  0
  138.5520   72.1740  222.2390 O   0  0  0  0  0  0  0  0  0  0  0  0
  139.6900   70.8910  223.8650 C   0  0  0  0  0  0  0  0  0  0  0  0
  139.0520   69.6610  223.7370 C   0  0  0  0  0  0  0  0  0  0  0  0
  139.1080   68.8270  224.8230 C   0  0  0  0  0  0  0  0  0  0  0  0
  139.7570   69.1550  226.0050 C   0  0  0  0  0  0  0  0  0  0  0  0
  139.8030   68.3030  227.0820 C   0  0  0  0  0  0  0  0  0  0  0  0
  140.4700   68.6830  228.2450 C   0  0  0  0  0  0  0  0  0  0  0  0
  140.5090   67.8220  229.3120 F   0  0  0  0  0  0  0  0  0  0  0  0
  141.1000   69.9160  228.3470 C   0  0  0  0  0  0  0  0  0  0  0  0
  141.0370   70.7540  227.2490 C   0  0  0  0  0  0  0  0  0  0  0  0
  140.3770   70.3900  226.0840 C   0  0  0  0  0  0  0  0  0  0  0  0
  140.3180   71.2060  225.0120 N   0  0  0  0  0  0  0  0  0  0  0  0
  141.0820   78.7970  220.1190 C   0  0  0  0  0  0  0  0  0  0  0  0
  141.5360   79.1840  221.4980 C   0  0  0  0  0  0  0  0  0  0  0  0
  142.1430   80.4340  221.5980 C   0  0  0  0  0  0  0  0  0  0  0  0
  142.5880   80.8630  222.8300 C   0  0  0  0  0  0  0  0  0  0  0  0
  142.4260   80.0520  223.9410 C   0  0  0  0  0  0  0  0  0  0  0  0
  141.8150   78.8080  223.8070 C   0  0  0  0  0  0  0  0  0  0  0  0
  141.3650   78.3610  222.5870 C   0  0  0  0  0  0  0  0  0  0  0  0
  141.8718   80.8623  218.8487 H   0  0  0  0  0  0  0  0  0  0  0  0
  142.9200   80.0179  217.6592 H   0  0  0  0  0  0  0  0  0  0  0  0
  141.1473   79.7279  217.6592 H   0  0  0  0  0  0  0  0  0  0  0  0
  141.4333   77.1677  218.2884 H   0  0  0  0  0  0  0  0  0  0  0  0
  143.1154   77.7160  217.7804 H   0  0  0  0  0  0  0  0  0  0  0  0
  143.9447   76.1574  218.9967 H   0  0  0  0  0  0  0  0  0  0  0  0
  143.2613   77.0430  220.4493 H   0  0  0  0  0  0  0  0  0  0  0  0
  141.6226   75.0535  218.9113 H   0  0  0  0  0  0  0  0  0  0  0  0
  142.7976   74.5610  220.2191 H   0  0  0  0  0  0  0  0  0  0  0  0
  139.0480   74.2230  222.7240 H   0  0  0  0  0  0  0  0  0  0  0  0
  140.3003   72.8967  220.3054 H   0  0  0  0  0  0  0  0  0  0  0  0
  142.0237   73.2868  220.8068 H   0  0  0  0  0  0  0  0  0  0  0  0
  141.7610   71.9960  222.6880 H   0  0  0  0  0  0  0  0  0  0  0  0
  138.5300   69.3732  222.8125 H   0  0  0  0  0  0  0  0  0  0  0  0
  138.6130   67.8471  224.7542 H   0  0  0  0  0  0  0  0  0  0  0  0
  139.3128   67.3199  227.0261 H   0  0  0  0  0  0  0  0  0  0  0  0
  141.6282   70.2143  229.2646 H   0  0  0  0  0  0  0  0  0  0  0  0
  141.5247   71.7386  227.3006 H   0  0  0  0  0  0  0  0  0  0  0  0
  140.3020   79.4950  219.7806 H   0  0  0  0  0  0  0  0  0  0  0  0
  140.6759   77.7749  220.1405 H   0  0  0  0  0  0  0  0  0  0  0  0
  142.2652   81.0686  220.7078 H   0  0  0  0  0  0  0  0  0  0  0  0
  143.0703   81.8465  222.9305 H   0  0  0  0  0  0  0  0  0  0  0  0
  142.7791   80.3897  224.9265 H   0  0  0  0  0  0  0  0  0  0  0  0
  141.6899   78.1703  224.6945 H   0  0  0  0  0  0  0  0  0  0  0  0
  140.8838   77.3771  222.4851 H   0  0  0  0  0  0  0  0  0  0  0  0
  1  2  1  0
  2  3  1  0
  3  4  1  0
  4  5  1  0
  5  6  1  0
  6  7  2  0
  7  8  1  0
  7  9  1  0
  9 10  1  0
 10 11  1  0
 11 12  2  0
 11 13  1  0
 13 14  2  0
 14 15  1  0
 15 16  2  0
 16 17  1  0
 17 18  2  0
 18 19  1  0
 18 20  1  0
 20 21  2  0
 21 22  1  0
 22 23  2  0
  2 24  1  0
 24 25  1  0
 25 26  2  0
 26 27  1  0
 27 28  2  0
 28 29  1  0
 29 30  2  0
 23 13  1  0
 30 25  1  0
 22 16  1  0
  1 31  1  0
  1 32  1  0
  1 33  1  0
  3 34  1  0
  3 35  1  0
  4 36  1  0
  4 37  1  0
  5 38  1  0
  5 39  1  0
  8 40  1  0
  9 41  1  0
  9 42  1  0
 10 43  1  0
 14 44  1  0
 15 45  1  0
 17 46  1  0
 20 47  1  0
 21 48  1  0
 24 49  1  0
 24 50  1  0
 26 51  1  0
 27 52  1  0
 28 53  1  0
 29 54  1  0
 30 55  1  0
M  END
>  <smiles>  (36) 
CN(CCCN=C(O)CNC(=O)c1ccc2cc(F)ccc2n1)Cc1ccccc1

>  <score_type>  (36) 
oracle

>  <origin>  (36) 
autodockgpu

>  <m_score__min__energy>  (36) 
-8.4000000000000004

>  <m_primary>  (36) 
energy

>  <rmsd>  (36) 
1.642054558299243

>  <m_score__min__rmsd>  (36) 
1.642054558299243

>  <meeko>  (36) 
{"free_energy": -8.0, "intermolecular_energy": -11.28, "internal_energy": -2.06, "cluster_size": 26, "cluster_id": 1, "rank_in_cluster": 3}

>  <energy>  (36) 
-7.13

>  <cluster_rmsd>  (36) 
1.5

>  <cluster>  (36) 
2

$$$$

     RDKit          3D

 55 57  0  0  0  0  0  0  0  0999 V2000
  142.3080   80.7040  218.3040 C   0  0  0  0  0  0  0  0  0  0  0  0
  142.2210   79.4850  219.0400 N   0  0  0  0  0  0  0  0  0  0  0  0
  142.2180   78.2840  218.2420 C   0  0  0  0  0  0  0  0  0  0  0  0
  143.0070   77.1490  218.7990 C   0  0  0  0  0  0  0  0  0  0  0  0
  142.2530   75.8370  218.8660 C   0  0  0  0  0  0  0  0  0  0  0  0
  141.1120   75.8850  219.7170 N   0  0  0  0  0  0  0  0  0  0  0  0
  140.9810   74.9790  220.6420 C   0  0  0  0  0  0  0  0  0  0  0  0
  142.1530   74.4690  221.1720 O   0  0  0  0  0  0  0  0  0  0  0  0
  139.6240   74.5500  221.0700 C   0  0  0  0  0  0  0  0  0  0  0  0
  139.6030   73.6350  222.1670 N   0  0  0  0  0  0  0  0  0  0  0  0
  140.1790   72.3340  222.1520 C   0  0  0  0  0  0  0  0  0  0  0  0
  140.7630   71.9070  221.1120 O   0  0  0  0  0  0  0  0  0  0  0  0
  140.1030   71.4740  223.3400 C   0  0  0  0  0  0  0  0  0  0  0  0
  139.5450   70.2030  223.2210 C   0  0  0  0  0  0  0  0  0  0  0  0
  139.5020   69.4460  224.3620 C   0  0  0  0  0  0  0  0  0  0  0  0
  139.9780   69.8850  225.5890 C   0  0  0  0  0  0  0  0  0  0  0  0
  139.9250   69.1080  226.7210 C   0  0  0  0  0  0  0  0  0  0  0  0
  140.4200   69.5990  227.9280 C   0  0  0  0  0  0  0  0  0  0  0  0
  140.3620   68.8120  229.0500 F   0  0  0  0  0  0  0  0  0  0  0  0
  140.9720   70.8690  228.0200 C   0  0  0  0  0  0  0  0  0  0  0  0
  141.0110   71.6300  226.8660 C   0  0  0  0  0  0  0  0  0  0  0  0
  140.5230   71.1550  225.6570 C   0  0  0  0  0  0  0  0  0  0  0  0
  140.5630   71.8960  224.5300 N   0  0  0  0  0  0  0  0  0  0  0  0
  141.0580   79.5140  219.8920 C   0  0  0  0  0  0  0  0  0  0  0  0
  141.4870   79.6900  221.3210 C   0  0  0  0  0  0  0  0  0  0  0  0
  141.4110   78.5470  222.1130 C   0  0  0  0  0  0  0  0  0  0  0  0
  141.7870   78.6260  223.4360 C   0  0  0  0  0  0  0  0  0  0  0  0
  142.2310   79.8310  223.9560 C   0  0  0  0  0  0  0  0  0  0  0  0
  142.2950   80.9560  223.1370 C   0  0  0  0  0  0  0  0  0  0  0  0
  141.9240   80.8980  221.8140 C   0  0  0  0  0  0  0  0  0  0  0  0
  142.3685   81.5510  219.0033 H   0  0  0  0  0  0  0  0  0  0  0  0
  143.2072   80.6865  217.6706 H   0  0  0  0  0  0  0  0  0  0  0  0
  141.4154   80.8144  217.6706 H   0  0  0  0  0  0  0  0  0  0  0  0
  141.1753   77.9516  218.1317 H   0  0  0  0  0  0  0  0  0  0  0  0
  142.6981   78.5502  217.2888 H   0  0  0  0  0  0  0  0  0  0  0  0
  143.8949   77.0038  218.1661 H   0  0  0  0  0  0  0  0  0  0  0  0
  143.2589   77.4199  219.8349 H   0  0  0  0  0  0  0  0  0  0  0  0
  141.9206   75.5733  217.8511 H   0  0  0  0  0  0  0  0  0  0  0  0
  142.9404   75.0876  219.2853 H   0  0  0  0  0  0  0  0  0  0  0  0
  142.2420   73.4480  221.1800 H   0  0  0  0  0  0  0  0  0  0  0  0
  139.0577   75.4468  221.3616 H   0  0  0  0  0  0  0  0  0  0  0  0
  139.1833   74.0175  220.2143 H   0  0  0  0  0  0  0  0  0  0  0  0
  139.1330   73.9000  223.0870 H   0  0  0  0  0  0  0  0  0  0  0  0
  139.1594   69.8272  222.2618 H   0  0  0  0  0  0  0  0  0  0  0  0
  139.0673   68.4373  224.3022 H   0  0  0  0  0  0  0  0  0  0  0  0
  139.4917   68.0980  226.6747 H   0  0  0  0  0  0  0  0  0  0  0  0
  141.3630   71.2549  228.9730 H   0  0  0  0  0  0  0  0  0  0  0  0
  141.4415   72.6414  226.9077 H   0  0  0  0  0  0  0  0  0  0  0  0
  140.4093   80.3524  219.5982 H   0  0  0  0  0  0  0  0  0  0  0  0
  140.5052   78.5685  219.7894 H   0  0  0  0  0  0  0  0  0  0  0  0
  141.0563   77.5960  221.6889 H   0  0  0  0  0  0  0  0  0  0  0  0
  141.7348   77.7344  224.0781 H   0  0  0  0  0  0  0  0  0  0  0  0
  142.5319   79.8991  225.0118 H   0  0  0  0  0  0  0  0  0  0  0  0
  142.6491   81.9092  223.5566 H   0  0  0  0  0  0  0  0  0  0  0  0
  141.9750   81.7887  221.1706 H   0  0  0  0  0  0  0  0  0  0  0  0
  1  2  1  0
  2  3  1  0
  3  4  1  0
  4  5  1  0
  5  6  1  0
  6  7  2  0
  7  8  1  0
  7  9  1  0
  9 10  1  0
 10 11  1  0
 11 12  2  0
 11 13  1  0
 13 14  2  0
 14 15  1  0
 15 16  2  0
 16 17  1  0
 17 18  2  0
 18 19  1  0
 18 20  1  0
 20 21  2  0
 21 22  1  0
 22 23  2  0
  2 24  1  0
 24 25  1  0
 25 26  2  0
 26 27  1  0
 27 28  2  0
 28 29  1  0
 29 30  2  0
 23 13  1  0
 30 25  1  0
 22 16  1  0
  1 31  1  0
  1 32  1  0
  1 33  1  0
  3 34  1  0
  3 35  1  0
  4 36  1  0
  4 37  1  0
  5 38  1  0
  5 39  1  0
  8 40  1  0
  9 41  1  0
  9 42  1  0
 10 43  1  0
 14 44  1  0
 15 45  1  0
 17 46  1  0
 20 47  1  0
 21 48  1  0
 24 49  1  0
 24 50  1  0
 26 51  1  0
 27 52  1  0
 28 53  1  0
 29 54  1  0
 30 55  1  0
M  END
>  <smiles>  (37) 
CN(CCCN=C(O)CNC(=O)c1ccc2cc(F)ccc2n1)Cc1ccccc1

>  <score_type>  (37) 
oracle

>  <origin>  (37) 
autodockgpu

>  <m_score__min__energy>  (37) 
-8.4000000000000004

>  <m_primary>  (37) 
energy

>  <rmsd>  (37) 
1.2353956992494113

>  <m_score__min__rmsd>  (37) 
1.2353956992494113

>  <meeko>  (37) 
{"free_energy": -7.25, "intermolecular_energy": -10.53, "internal_energy": -2.07, "cluster_size": 26, "cluster_id": 1, "rank_in_cluster": 19}

>  <energy>  (37) 
-7.6

>  <cluster_rmsd>  (37) 
0.0

>  <cluster>  (37) 
3

$$$$

     RDKit          3D

 55 57  0  0  0  0  0  0  0  0999 V2000
  142.5410   79.1840  218.2050 C   0  0  0  0  0  0  0  0  0  0  0  0
  142.4380   78.2660  219.2920 N   0  0  0  0  0  0  0  0  0  0  0  0
  142.4740   76.8720  218.9250 C   0  0  0  0  0  0  0  0  0  0  0  0
  142.6260   75.9190  220.0610 C   0  0  0  0  0  0  0  0  0  0  0  0
  141.4000   75.0730  220.3350 C   0  0  0  0  0  0  0  0  0  0  0  0
  140.4580   75.7070  221.1930 N   0  0  0  0  0  0  0  0  0  0  0  0
  139.5620   74.9760  221.7910 C   0  0  0  0  0  0  0  0  0  0  0  0
  138.7640   75.6210  222.7210 O   0  0  0  0  0  0  0  0  0  0  0  0
  139.4430   73.5320  221.4590 C   0  0  0  0  0  0  0  0  0  0  0  0
  139.5750   72.6480  222.5730 N   0  0  0  0  0  0  0  0  0  0  0  0
  139.3490   71.2440  222.5290 C   0  0  0  0  0  0  0  0  0  0  0  0
  139.0010   70.6880  221.4440 O   0  0  0  0  0  0  0  0  0  0  0  0
  139.5170   70.4250  223.7360 C   0  0  0  0  0  0  0  0  0  0  0  0
  139.0790   69.1030  223.7230 C   0  0  0  0  0  0  0  0  0  0  0  0
  139.2620   68.3880  224.8770 C   0  0  0  0  0  0  0  0  0  0  0  0
  139.8480   68.9150  226.0190 C   0  0  0  0  0  0  0  0  0  0  0  0
  140.0240   68.1800  227.1660 C   0  0  0  0  0  0  0  0  0  0  0  0
  140.6200   68.7600  228.2840 C   0  0  0  0  0  0  0  0  0  0  0  0
  140.7900   68.0140  229.4210 F   0  0  0  0  0  0  0  0  0  0  0  0
  141.0490   70.0800  228.2700 C   0  0  0  0  0  0  0  0  0  0  0  0
  140.8600   70.7980  227.1040 C   0  0  0  0  0  0  0  0  0  0  0  0
  140.2670   70.2340  225.9830 C   0  0  0  0  0  0  0  0  0  0  0  0
  140.0850   70.9340  224.8430 N   0  0  0  0  0  0  0  0  0  0  0  0
  141.2460   78.5450  220.0530 C   0  0  0  0  0  0  0  0  0  0  0  0
  141.6280   79.0450  221.4180 C   0  0  0  0  0  0  0  0  0  0  0  0
  142.1850   80.3210  221.4530 C   0  0  0  0  0  0  0  0  0  0  0  0
  142.5620   80.8510  222.6670 C   0  0  0  0  0  0  0  0  0  0  0  0
  142.3840   80.1140  223.8260 C   0  0  0  0  0  0  0  0  0  0  0  0
  141.8240   78.8410  223.7570 C   0  0  0  0  0  0  0  0  0  0  0  0
  141.4410   78.2930  222.5550 C   0  0  0  0  0  0  0  0  0  0  0  0
  142.6556   80.2053  218.5972 H   0  0  0  0  0  0  0  0  0  0  0  0
  143.4160   78.9271  217.5898 H   0  0  0  0  0  0  0  0  0  0  0  0
  141.6309   79.1274  217.5898 H   0  0  0  0  0  0  0  0  0  0  0  0
  141.5350   76.6332  218.4041 H   0  0  0  0  0  0  0  0  0  0  0  0
  143.3694   76.7449  218.2988 H   0  0  0  0  0  0  0  0  0  0  0  0
  143.4657   75.2453  219.8351 H   0  0  0  0  0  0  0  0  0  0  0  0
  142.7956   76.5277  220.9614 H   0  0  0  0  0  0  0  0  0  0  0  0
  140.9065   74.8530  219.3768 H   0  0  0  0  0  0  0  0  0  0  0  0
  141.7417   74.1602  220.8449 H   0  0  0  0  0  0  0  0  0  0  0  0
  138.1930   75.0210  223.3240 H   0  0  0  0  0  0  0  0  0  0  0  0
  138.4548   73.3656  221.0054 H   0  0  0  0  0  0  0  0  0  0  0  0
  140.2770   73.3008  220.7800 H   0  0  0  0  0  0  0  0  0  0  0  0
  139.8630   73.0190  223.5310 H   0  0  0  0  0  0  0  0  0  0  0  0
  138.6109   68.6567  222.8332 H   0  0  0  0  0  0  0  0  0  0  0  0
  138.9266   67.3406  224.8995 H   0  0  0  0  0  0  0  0  0  0  0  0
  139.6938   67.1314  227.2020 H   0  0  0  0  0  0  0  0  0  0  0  0
  141.5209   70.5369  229.1523 H   0  0  0  0  0  0  0  0  0  0  0  0
  141.1891   71.8468  227.0634 H   0  0  0  0  0  0  0  0  0  0  0  0
  140.6514   79.3118  219.5349 H   0  0  0  0  0  0  0  0  0  0  0  0
  140.6513   77.6250  220.1529 H   0  0  0  0  0  0  0  0  0  0  0  0
  142.3217   80.8965  220.5256 H   0  0  0  0  0  0  0  0  0  0  0  0
  143.0035   81.8573  222.7160 H   0  0  0  0  0  0  0  0  0  0  0  0
  142.6840   80.5329  224.7979 H   0  0  0  0  0  0  0  0  0  0  0  0
  141.6852   78.2622  224.6821 H   0  0  0  0  0  0  0  0  0  0  0  0
  140.9997   77.2867  222.5043 H   0  0  0  0  0  0  0  0  0  0  0  0
  1  2  1  0
  2  3  1  0
  3  4  1  0
  4  5  1  0
  5  6  1  0
  6  7  2  0
  7  8  1  0
  7  9  1  0
  9 10  1  0
 10 11  1  0
 11 12  2  0
 11 13  1  0
 13 14  2  0
 14 15  1  0
 15 16  2  0
 16 17  1  0
 17 18  2  0
 18 19  1  0
 18 20  1  0
 20 21  2  0
 21 22  1  0
 22 23  2  0
  2 24  1  0
 24 25  1  0
 25 26  2  0
 26 27  1  0
 27 28  2  0
 28 29  1  0
 29 30  2  0
 23 13  1  0
 30 25  1  0
 22 16  1  0
  1 31  1  0
  1 32  1  0
  1 33  1  0
  3 34  1  0
  3 35  1  0
  4 36  1  0
  4 37  1  0
  5 38  1  0
  5 39  1  0
  8 40  1  0
  9 41  1  0
  9 42  1  0
 10 43  1  0
 14 44  1  0
 15 45  1  0
 17 46  1  0
 20 47  1  0
 21 48  1  0
 24 49  1  0
 24 50  1  0
 26 51  1  0
 27 52  1  0
 28 53  1  0
 29 54  1  0
 30 55  1  0
M  END
>  <smiles>  (38) 
CN(CCCN=C(O)CNC(=O)c1ccc2cc(F)ccc2n1)Cc1ccccc1

>  <score_type>  (38) 
oracle

>  <origin>  (38) 
autodockgpu

>  <m_score__min__energy>  (38) 
-8.4000000000000004

>  <m_primary>  (38) 
energy

>  <rmsd>  (38) 
0.9558247844421544

>  <m_score__min__rmsd>  (38) 
0.9558247844421544

>  <meeko>  (38) 
{"free_energy": -7.75, "intermolecular_energy": -11.03, "internal_energy": -1.64, "cluster_size": 26, "cluster_id": 1, "rank_in_cluster": 9}

>  <energy>  (38) 
-7.5

>  <cluster_rmsd>  (38) 
1.41

>  <cluster>  (38) 
3

$$$$

     RDKit          3D

 55 57  0  0  0  0  0  0  0  0999 V2000
  141.9530   79.5160  218.1070 C   0  0  0  0  0  0  0  0  0  0  0  0
  142.2090   78.8270  219.3300 N   0  0  0  0  0  0  0  0  0  0  0  0
  142.5780   77.4410  219.1890 C   0  0  0  0  0  0  0  0  0  0  0  0
  141.4370   76.4860  219.0930 C   0  0  0  0  0  0  0  0  0  0  0  0
  141.1590   75.7150  220.3670 C   0  0  0  0  0  0  0  0  0  0  0  0
  139.8820   75.0840  220.3760 N   0  0  0  0  0  0  0  0  0  0  0  0
  139.4640   74.5300  221.4770 C   0  0  0  0  0  0  0  0  0  0  0  0
  139.6690   75.2490  222.6420 O   0  0  0  0  0  0  0  0  0  0  0  0
  138.8070   73.1980  221.4320 C   0  0  0  0  0  0  0  0  0  0  0  0
  139.0690   72.3620  222.5610 N   0  0  0  0  0  0  0  0  0  0  0  0
  138.9510   70.9440  222.5690 C   0  0  0  0  0  0  0  0  0  0  0  0
  138.5880   70.3290  221.5220 O   0  0  0  0  0  0  0  0  0  0  0  0
  139.2490   70.1790  223.7870 C   0  0  0  0  0  0  0  0  0  0  0  0
  138.9110   68.8300  223.8370 C   0  0  0  0  0  0  0  0  0  0  0  0
  139.2130   68.1680  224.9980 C   0  0  0  0  0  0  0  0  0  0  0  0
  139.8220   68.7740  226.0880 C   0  0  0  0  0  0  0  0  0  0  0  0
  140.1170   68.0910  227.2430 C   0  0  0  0  0  0  0  0  0  0  0  0
  140.7310   68.7500  228.3060 C   0  0  0  0  0  0  0  0  0  0  0  0
  141.0200   68.0560  229.4530 F   0  0  0  0  0  0  0  0  0  0  0  0
  141.0580   70.0970  228.2300 C   0  0  0  0  0  0  0  0  0  0  0  0
  140.7480   70.7600  227.0570 C   0  0  0  0  0  0  0  0  0  0  0  0
  140.1380   70.1180  225.9900 C   0  0  0  0  0  0  0  0  0  0  0  0
  139.8380   70.7650  224.8440 N   0  0  0  0  0  0  0  0  0  0  0  0
  141.0680   78.9480  220.2040 C   0  0  0  0  0  0  0  0  0  0  0  0
  141.5340   79.2810  221.5930 C   0  0  0  0  0  0  0  0  0  0  0  0
  142.1600   80.5170  221.7320 C   0  0  0  0  0  0  0  0  0  0  0  0
  142.6170   80.8980  222.9750 C   0  0  0  0  0  0  0  0  0  0  0  0
  142.4480   80.0530  224.0600 C   0  0  0  0  0  0  0  0  0  0  0  0
  141.8170   78.8230  223.8870 C   0  0  0  0  0  0  0  0  0  0  0  0
  141.3550   78.4240  222.6550 C   0  0  0  0  0  0  0  0  0  0  0  0
  141.5776   80.5263  218.3269 H   0  0  0  0  0  0  0  0  0  0  0  0
  142.8839   79.5892  217.5256 H   0  0  0  0  0  0  0  0  0  0  0  0
  141.2001   78.9636  217.5256 H   0  0  0  0  0  0  0  0  0  0  0  0
  143.1828   77.3413  218.2756 H   0  0  0  0  0  0  0  0  0  0  0  0
  143.1215   77.1752  220.1077 H   0  0  0  0  0  0  0  0  0  0  0  0
  140.5329   77.0550  218.8307 H   0  0  0  0  0  0  0  0  0  0  0  0
  141.7119   75.7433  218.3296 H   0  0  0  0  0  0  0  0  0  0  0  0
  141.9319   74.9408  220.4824 H   0  0  0  0  0  0  0  0  0  0  0  0
  141.1708   76.4388  221.1952 H   0  0  0  0  0  0  0  0  0  0  0  0
  139.0790   74.9980  223.4410 H   0  0  0  0  0  0  0  0  0  0  0  0
  137.7201   73.3546  221.3670 H   0  0  0  0  0  0  0  0  0  0  0  0
  139.2235   72.6767  220.5575 H   0  0  0  0  0  0  0  0  0  0  0  0
  139.3790   72.7850  223.4900 H   0  0  0  0  0  0  0  0  0  0  0  0
  138.4272   68.3222  222.9896 H   0  0  0  0  0  0  0  0  0  0  0  0
  138.9594   67.1000  225.0700 H   0  0  0  0  0  0  0  0  0  0  0  0
  139.8682   67.0229  227.3286 H   0  0  0  0  0  0  0  0  0  0  0  0
  141.5442   70.6160  229.0692 H   0  0  0  0  0  0  0  0  0  0  0  0
  140.9926   71.8287  226.9675 H   0  0  0  0  0  0  0  0  0  0  0  0
  140.4082   79.7480  219.8370 H   0  0  0  0  0  0  0  0  0  0  0  0
  140.5164   77.9964  220.2206 H   0  0  0  0  0  0  0  0  0  0  0  0
  142.2878   81.1791  220.8629 H   0  0  0  0  0  0  0  0  0  0  0  0
  143.1146   81.8703  223.1055 H   0  0  0  0  0  0  0  0  0  0  0  0
  142.8107   80.3522  225.0544 H   0  0  0  0  0  0  0  0  0  0  0  0
  141.6858   78.1579  224.7532 H   0  0  0  0  0  0  0  0  0  0  0  0
  140.8584   77.4515  222.5224 H   0  0  0  0  0  0  0  0  0  0  0  0
  1  2  1  0
  2  3  1  0
  3  4  1  0
  4  5  1  0
  5  6  1  0
  6  7  2  0
  7  8  1  0
  7  9  1  0
  9 10  1  0
 10 11  1  0
 11 12  2  0
 11 13  1  0
 13 14  2  0
 14 15  1  0
 15 16  2  0
 16 17  1  0
 17 18  2  0
 18 19  1  0
 18 20  1  0
 20 21  2  0
 21 22  1  0
 22 23  2  0
  2 24  1  0
 24 25  1  0
 25 26  2  0
 26 27  1  0
 27 28  2  0
 28 29  1  0
 29 30  2  0
 23 13  1  0
 30 25  1  0
 22 16  1  0
  1 31  1  0
  1 32  1  0
  1 33  1  0
  3 34  1  0
  3 35  1  0
  4 36  1  0
  4 37  1  0
  5 38  1  0
  5 39  1  0
  8 40  1  0
  9 41  1  0
  9 42  1  0
 10 43  1  0
 14 44  1  0
 15 45  1  0
 17 46  1  0
 20 47  1  0
 21 48  1  0
 24 49  1  0
 24 50  1  0
 26 51  1  0
 27 52  1  0
 28 53  1  0
 29 54  1  0
 30 55  1  0
M  END
>  <smiles>  (39) 
CN(CCCN=C(O)CNC(=O)c1ccc2cc(F)ccc2n1)Cc1ccccc1

>  <score_type>  (39) 
oracle

>  <origin>  (39) 
autodockgpu

>  <m_score__min__energy>  (39) 
-8.4000000000000004

>  <m_primary>  (39) 
energy

>  <rmsd>  (39) 
0.9058608234415091

>  <m_score__min__rmsd>  (39) 
0.9058608234415091

>  <meeko>  (39) 
{"free_energy": -7.67, "intermolecular_energy": -10.95, "internal_energy": -1.61, "cluster_size": 26, "cluster_id": 1, "rank_in_cluster": 11}

>  <energy>  (39) 
-7.45

>  <cluster_rmsd>  (39) 
0.99

>  <cluster>  (39) 
3

$$$$

     RDKit          3D

 55 57  0  0  0  0  0  0  0  0999 V2000
  137.7880   80.3290  221.4470 C   0  0  0  0  0  0  0  0  0  0  0  0
  138.1030   79.4250  222.5040 N   0  0  0  0  0  0  0  0  0  0  0  0
  136.9960   78.6380  222.9900 C   0  0  0  0  0  0  0  0  0  0  0  0
  136.5860   77.5070  222.1090 C   0  0  0  0  0  0  0  0  0  0  0  0
  137.1860   76.1700  222.4900 C   0  0  0  0  0  0  0  0  0  0  0  0
  138.6010   76.2120  222.6490 N   0  0  0  0  0  0  0  0  0  0  0  0
  139.3550   76.0670  221.5980 C   0  0  0  0  0  0  0  0  0  0  0  0
  139.5670   77.2010  220.8330 O   0  0  0  0  0  0  0  0  0  0  0  0
  139.9330   74.7350  221.2810 C   0  0  0  0  0  0  0  0  0  0  0  0
  139.8190   73.7670  222.3260 N   0  0  0  0  0  0  0  0  0  0  0  0
  140.4280   72.4810  222.3140 C   0  0  0  0  0  0  0  0  0  0  0  0
  141.1320   72.1180  221.3250 O   0  0  0  0  0  0  0  0  0  0  0  0
  140.2480   71.5620  223.4460 C   0  0  0  0  0  0  0  0  0  0  0  0
  139.6050   70.3450  223.2340 C   0  0  0  0  0  0  0  0  0  0  0  0
  139.4660   69.5300  224.3250 C   0  0  0  0  0  0  0  0  0  0  0  0
  139.9270   69.8620  225.5910 C   0  0  0  0  0  0  0  0  0  0  0  0
  139.7780   69.0280  226.6730 C   0  0  0  0  0  0  0  0  0  0  0  0
  140.2620   69.4120  227.9230 C   0  0  0  0  0  0  0  0  0  0  0  0
  140.1070   68.5700  228.9930 F   0  0  0  0  0  0  0  0  0  0  0  0
  140.8990   70.6310  228.1070 C   0  0  0  0  0  0  0  0  0  0  0  0
  141.0340   71.4510  227.0030 C   0  0  0  0  0  0  0  0  0  0  0  0
  140.5590   71.0830  225.7530 C   0  0  0  0  0  0  0  0  0  0  0  0
  140.6930   71.8820  224.6730 N   0  0  0  0  0  0  0  0  0  0  0  0
  138.7120   80.1450  223.5950 C   0  0  0  0  0  0  0  0  0  0  0  0
  140.2060   80.1130  223.4440 C   0  0  0  0  0  0  0  0  0  0  0  0
  140.7840   78.8470  223.4860 C   0  0  0  0  0  0  0  0  0  0  0  0
  142.1510   78.7330  223.3560 C   0  0  0  0  0  0  0  0  0  0  0  0
  142.9250   79.8690  223.1850 C   0  0  0  0  0  0  0  0  0  0  0  0
  142.3160   81.1210  223.1470 C   0  0  0  0  0  0  0  0  0  0  0  0
  140.9530   81.2570  223.2760 C   0  0  0  0  0  0  0  0  0  0  0  0
  137.4541   81.2873  221.8714 H   0  0  0  0  0  0  0  0  0  0  0  0
  138.6816   80.4940  220.8271 H   0  0  0  0  0  0  0  0  0  0  0  0
  136.9853   79.9030  220.8271 H   0  0  0  0  0  0  0  0  0  0  0  0
  137.2778   78.2222  223.9686 H   0  0  0  0  0  0  0  0  0  0  0  0
  136.1333   79.3190  223.0339 H   0  0  0  0  0  0  0  0  0  0  0  0
  135.4905   77.4173  222.1512 H   0  0  0  0  0  0  0  0  0  0  0  0
  136.9576   77.7428  221.1009 H   0  0  0  0  0  0  0  0  0  0  0  0
  136.7375   75.8441  223.4401 H   0  0  0  0  0  0  0  0  0  0  0  0
  136.9711   75.4706  221.6686 H   0  0  0  0  0  0  0  0  0  0  0  0
  139.1810   78.0760  221.2010 H   0  0  0  0  0  0  0  0  0  0  0  0
  139.4177   74.3413  220.3925 H   0  0  0  0  0  0  0  0  0  0  0  0
  141.0099   74.8948  221.1238 H   0  0  0  0  0  0  0  0  0  0  0  0
  139.2460   73.9770  223.2010 H   0  0  0  0  0  0  0  0  0  0  0  0
  139.2287   70.0540  222.2422 H   0  0  0  0  0  0  0  0  0  0  0  0
  138.9625   68.5612  224.1911 H   0  0  0  0  0  0  0  0  0  0  0  0
  139.2764   68.0564  226.5528 H   0  0  0  0  0  0  0  0  0  0  0  0
  141.2816   70.9328  229.0932 H   0  0  0  0  0  0  0  0  0  0  0  0
  141.5330   72.4244  227.1190 H   0  0  0  0  0  0  0  0  0  0  0  0
  138.3647   81.1887  223.5847 H   0  0  0  0  0  0  0  0  0  0  0  0
  138.4297   79.6739  224.5481 H   0  0  0  0  0  0  0  0  0  0  0  0
  140.1591   77.9518  223.6208 H   0  0  0  0  0  0  0  0  0  0  0  0
  142.6268   77.7417  223.3880 H   0  0  0  0  0  0  0  0  0  0  0  0
  144.0165   79.7826  223.0796 H   0  0  0  0  0  0  0  0  0  0  0  0
  142.9370   82.0187  223.0112 H   0  0  0  0  0  0  0  0  0  0  0  0
  140.4757   82.2476  223.2459 H   0  0  0  0  0  0  0  0  0  0  0  0
  1  2  1  0
  2  3  1  0
  3  4  1  0
  4  5  1  0
  5  6  1  0
  6  7  2  0
  7  8  1  0
  7  9  1  0
  9 10  1  0
 10 11  1  0
 11 12  2  0
 11 13  1  0
 13 14  2  0
 14 15  1  0
 15 16  2  0
 16 17  1  0
 17 18  2  0
 18 19  1  0
 18 20  1  0
 20 21  2  0
 21 22  1  0
 22 23  2  0
  2 24  1  0
 24 25  1  0
 25 26  2  0
 26 27  1  0
 27 28  2  0
 28 29  1  0
 29 30  2  0
 23 13  1  0
 30 25  1  0
 22 16  1  0
  1 31  1  0
  1 32  1  0
  1 33  1  0
  3 34  1  0
  3 35  1  0
  4 36  1  0
  4 37  1  0
  5 38  1  0
  5 39  1  0
  8 40  1  0
  9 41  1  0
  9 42  1  0
 10 43  1  0
 14 44  1  0
 15 45  1  0
 17 46  1  0
 20 47  1  0
 21 48  1  0
 24 49  1  0
 24 50  1  0
 26 51  1  0
 27 52  1  0
 28 53  1  0
 29 54  1  0
 30 55  1  0
M  END
>  <smiles>  (40) 
CN(CCCN=C(O)CNC(=O)c1ccc2cc(F)ccc2n1)Cc1ccccc1

>  <score_type>  (40) 
oracle

>  <origin>  (40) 
autodockgpu

>  <m_score__min__energy>  (40) 
-8.4000000000000004

>  <m_primary>  (40) 
energy

>  <rmsd>  (40) 
1.426440632231741

>  <m_score__min__rmsd>  (40) 
1.426440632231741

>  <meeko>  (40) 
{"free_energy": -7.03, "intermolecular_energy": -10.31, "internal_energy": -2.48, "cluster_size": 6, "cluster_id": 3, "rank_in_cluster": 5}

>  <energy>  (40) 
-7.42

>  <cluster_rmsd>  (40) 
1.23

>  <cluster>  (40) 
3

$$$$

     RDKit          3D

 55 57  0  0  0  0  0  0  0  0999 V2000
  138.0000   76.7420  222.5800 C   0  0  0  0  0  0  0  0  0  0  0  0
  139.1510   77.4980  222.2110 N   0  0  0  0  0  0  0  0  0  0  0  0
  140.4160   76.8470  222.4460 C   0  0  0  0  0  0  0  0  0  0  0  0
  141.1480   76.4170  221.2210 C   0  0  0  0  0  0  0  0  0  0  0  0
  141.4520   74.9350  221.1630 C   0  0  0  0  0  0  0  0  0  0  0  0
  140.9490   74.3020  219.9910 N   0  0  0  0  0  0  0  0  0  0  0  0
  139.8080   73.6800  220.0540 C   0  0  0  0  0  0  0  0  0  0  0  0
  139.5150   72.8260  219.0050 O   0  0  0  0  0  0  0  0  0  0  0  0
  138.9040   73.9080  221.2120 C   0  0  0  0  0  0  0  0  0  0  0  0
  139.1240   73.0400  222.3250 N   0  0  0  0  0  0  0  0  0  0  0  0
  139.0740   71.6190  222.2710 C   0  0  0  0  0  0  0  0  0  0  0  0
  138.8170   71.0310  221.1770 O   0  0  0  0  0  0  0  0  0  0  0  0
  139.3210   70.8190  223.4770 C   0  0  0  0  0  0  0  0  0  0  0  0
  138.9620   69.4740  223.4820 C   0  0  0  0  0  0  0  0  0  0  0  0
  139.2160   68.7780  224.6350 C   0  0  0  0  0  0  0  0  0  0  0  0
  139.7980   69.3470  225.7590 C   0  0  0  0  0  0  0  0  0  0  0  0
  140.0450   68.6310  226.9050 C   0  0  0  0  0  0  0  0  0  0  0  0
  140.6340   69.2530  228.0040 C   0  0  0  0  0  0  0  0  0  0  0  0
  140.8750   68.5260  229.1410 F   0  0  0  0  0  0  0  0  0  0  0  0
  140.9830   70.5960  227.9730 C   0  0  0  0  0  0  0  0  0  0  0  0
  140.7220   71.2940  226.8080 C   0  0  0  0  0  0  0  0  0  0  0  0
  140.1370   70.6890  225.7060 C   0  0  0  0  0  0  0  0  0  0  0  0
  139.8840   71.3680  224.5670 N   0  0  0  0  0  0  0  0  0  0  0  0
  139.1240   78.7790  222.8720 C   0  0  0  0  0  0  0  0  0  0  0  0
  140.5050   79.3730  222.8710 C   0  0  0  0  0  0  0  0  0  0  0  0
  140.9210   79.9140  221.6580 C   0  0  0  0  0  0  0  0  0  0  0  0
  142.1760   80.4780  221.5740 C   0  0  0  0  0  0  0  0  0  0  0  0
  142.9970   80.4990  222.6890 C   0  0  0  0  0  0  0  0  0  0  0  0
  142.5500   79.9500  223.8890 C   0  0  0  0  0  0  0  0  0  0  0  0
  141.3020   79.3820  223.9930 C   0  0  0  0  0  0  0  0  0  0  0  0
  137.9283   76.6949  223.6767 H   0  0  0  0  0  0  0  0  0  0  0  0
  137.0987   77.2246  222.1740 H   0  0  0  0  0  0  0  0  0  0  0  0
  138.0849   75.7232  222.1740 H   0  0  0  0  0  0  0  0  0  0  0  0
  141.0604   77.5461  222.9992 H   0  0  0  0  0  0  0  0  0  0  0  0
  140.1857   75.9261  223.0019 H   0  0  0  0  0  0  0  0  0  0  0  0
  140.5357   76.6773  220.3450 H   0  0  0  0  0  0  0  0  0  0  0  0
  142.1175   76.9364  221.2356 H   0  0  0  0  0  0  0  0  0  0  0  0
  142.5435   74.8012  221.1909 H   0  0  0  0  0  0  0  0  0  0  0  0
  140.9546   74.4666  222.0251 H   0  0  0  0  0  0  0  0  0  0  0  0
  139.2090   71.8810  219.2590 H   0  0  0  0  0  0  0  0  0  0  0  0
  139.0413   74.9444  221.5542 H   0  0  0  0  0  0  0  0  0  0  0  0
  137.8848   73.6998  220.8543 H   0  0  0  0  0  0  0  0  0  0  0  0
  139.3460   73.4380  223.2890 H   0  0  0  0  0  0  0  0  0  0  0  0
  138.4989   68.9951  222.6067 H   0  0  0  0  0  0  0  0  0  0  0  0
  138.9443   67.7127  224.6714 H   0  0  0  0  0  0  0  0  0  0  0  0
  139.7775   67.5652  226.9552 H   0  0  0  0  0  0  0  0  0  0  0  0
  141.4488   71.0858  228.8408 H   0  0  0  0  0  0  0  0  0  0  0  0
  140.9862   72.3604  226.7540 H   0  0  0  0  0  0  0  0  0  0  0  0
  138.4352   79.4516  222.3399 H   0  0  0  0  0  0  0  0  0  0  0  0
  138.7816   78.6491  223.9093 H   0  0  0  0  0  0  0  0  0  0  0  0
  140.2587   79.8919  220.7801 H   0  0  0  0  0  0  0  0  0  0  0  0
  142.5242   80.9100  220.6242 H   0  0  0  0  0  0  0  0  0  0  0  0
  143.9993   80.9479  222.6274 H   0  0  0  0  0  0  0  0  0  0  0  0
  143.2081   79.9713  224.7702 H   0  0  0  0  0  0  0  0  0  0  0  0
  140.9522   78.9491  224.9418 H   0  0  0  0  0  0  0  0  0  0  0  0
  1  2  1  0
  2  3  1  0
  3  4  1  0
  4  5  1  0
  5  6  1  0
  6  7  2  0
  7  8  1  0
  7  9  1  0
  9 10  1  0
 10 11  1  0
 11 12  2  0
 11 13  1  0
 13 14  2  0
 14 15  1  0
 15 16  2  0
 16 17  1  0
 17 18  2  0
 18 19  1  0
 18 20  1  0
 20 21  2  0
 21 22  1  0
 22 23  2  0
  2 24  1  0
 24 25  1  0
 25 26  2  0
 26 27  1  0
 27 28  2  0
 28 29  1  0
 29 30  2  0
 23 13  1  0
 30 25  1  0
 22 16  1  0
  1 31  1  0
  1 32  1  0
  1 33  1  0
  3 34  1  0
  3 35  1  0
  4 36  1  0
  4 37  1  0
  5 38  1  0
  5 39  1  0
  8 40  1  0
  9 41  1  0
  9 42  1  0
 10 43  1  0
 14 44  1  0
 15 45  1  0
 17 46  1  0
 20 47  1  0
 21 48  1  0
 24 49  1  0
 24 50  1  0
 26 51  1  0
 27 52  1  0
 28 53  1  0
 29 54  1  0
 30 55  1  0
M  END
>  <smiles>  (41) 
CN(CCCN=C(O)CNC(=O)c1ccc2cc(F)ccc2n1)Cc1ccccc1

>  <score_type>  (41) 
oracle

>  <origin>  (41) 
autodockgpu

>  <m_score__min__energy>  (41) 
-8.4000000000000004

>  <m_primary>  (41) 
energy

>  <rmsd>  (41) 
0.7065643987903424

>  <m_score__min__rmsd>  (41) 
0.7065643987903424

>  <meeko>  (41) 
{"free_energy": -6.81, "intermolecular_energy": -10.09, "internal_energy": -2.21, "cluster_size": 26, "cluster_id": 1, "rank_in_cluster": 26}

>  <energy>  (41) 
-7.03

>  <cluster_rmsd>  (41) 
1.25

>  <cluster>  (41) 
3

$$$$

     RDKit          3D

 55 57  0  0  0  0  0  0  0  0999 V2000
  143.0500   80.1100  222.7210 C   0  0  0  0  0  0  0  0  0  0  0  0
  142.1920   79.0150  222.4050 N   0  0  0  0  0  0  0  0  0  0  0  0
  141.3090   79.2290  221.2850 C   0  0  0  0  0  0  0  0  0  0  0  0
  141.8010   78.7050  219.9790 C   0  0  0  0  0  0  0  0  0  0  0  0
  141.5830   77.2190  219.7800 C   0  0  0  0  0  0  0  0  0  0  0  0
  140.3850   76.7400  220.3840 N   0  0  0  0  0  0  0  0  0  0  0  0
  140.4650   75.7880  221.2670 C   0  0  0  0  0  0  0  0  0  0  0  0
  141.2660   76.0380  222.3690 O   0  0  0  0  0  0  0  0  0  0  0  0
  139.7170   74.5200  221.0590 C   0  0  0  0  0  0  0  0  0  0  0  0
  139.7220   73.6310  222.1770 N   0  0  0  0  0  0  0  0  0  0  0  0
  139.9240   72.2240  222.0970 C   0  0  0  0  0  0  0  0  0  0  0  0
  140.1160   71.6710  220.9740 O   0  0  0  0  0  0  0  0  0  0  0  0
  139.9140   71.4010  223.3130 C   0  0  0  0  0  0  0  0  0  0  0  0
  139.3760   70.1180  223.2570 C   0  0  0  0  0  0  0  0  0  0  0  0
  139.3940   69.3970  224.4220 C   0  0  0  0  0  0  0  0  0  0  0  0
  139.9100   69.8830  225.6140 C   0  0  0  0  0  0  0  0  0  0  0  0
  139.9190   69.1420  226.7710 C   0  0  0  0  0  0  0  0  0  0  0  0
  140.4520   69.6800  227.9410 C   0  0  0  0  0  0  0  0  0  0  0  0
  140.4550   68.9290  229.0880 F   0  0  0  0  0  0  0  0  0  0  0  0
  140.9830   70.9620  227.9700 C   0  0  0  0  0  0  0  0  0  0  0  0
  140.9600   71.6860  226.7930 C   0  0  0  0  0  0  0  0  0  0  0  0
  140.4330   71.1650  225.6200 C   0  0  0  0  0  0  0  0  0  0  0  0
  140.4130   71.8700  224.4700 N   0  0  0  0  0  0  0  0  0  0  0  0
  141.4290   78.6440  223.5710 C   0  0  0  0  0  0  0  0  0  0  0  0
  140.0590   79.2560  223.4900 C   0  0  0  0  0  0  0  0  0  0  0  0
  139.0410   78.3920  223.0950 C   0  0  0  0  0  0  0  0  0  0  0  0
  137.7550   78.8760  222.9960 C   0  0  0  0  0  0  0  0  0  0  0  0
  137.4950   80.2050  223.2880 C   0  0  0  0  0  0  0  0  0  0  0  0
  138.5360   81.0440  223.6810 C   0  0  0  0  0  0  0  0  0  0  0  0
  139.8260   80.5800  223.7850 C   0  0  0  0  0  0  0  0  0  0  0  0
  143.1288   80.2106  223.8135 H   0  0  0  0  0  0  0  0  0  0  0  0
  144.0483   79.9279  222.2965 H   0  0  0  0  0  0  0  0  0  0  0  0
  142.6344   81.0358  222.2965 H   0  0  0  0  0  0  0  0  0  0  0  0
  140.3503   78.7383  221.5090 H   0  0  0  0  0  0  0  0  0  0  0  0
  141.2274   80.3194  221.1649 H   0  0  0  0  0  0  0  0  0  0  0  0
  141.2770   79.2407  219.1737 H   0  0  0  0  0  0  0  0  0  0  0  0
  142.8888   78.8679  219.9645 H   0  0  0  0  0  0  0  0  0  0  0  0
  141.5357   77.0145  218.7002 H   0  0  0  0  0  0  0  0  0  0  0  0
  142.4227   76.6986  220.2637 H   0  0  0  0  0  0  0  0  0  0  0  0
  141.9130   76.8290  222.2900 H   0  0  0  0  0  0  0  0  0  0  0  0
  138.6718   74.7733  220.8280 H   0  0  0  0  0  0  0  0  0  0  0  0
  140.2266   73.9907  220.2404 H   0  0  0  0  0  0  0  0  0  0  0  0
  139.5680   74.0000  223.1660 H   0  0  0  0  0  0  0  0  0  0  0  0
  138.9587   69.7051  222.3268 H   0  0  0  0  0  0  0  0  0  0  0  0
  138.9772   68.3791  224.4113 H   0  0  0  0  0  0  0  0  0  0  0  0
  139.5050   68.1229  226.7739 H   0  0  0  0  0  0  0  0  0  0  0  0
  141.4055   71.3851  228.8933 H   0  0  0  0  0  0  0  0  0  0  0  0
  141.3719   72.7059  226.7859 H   0  0  0  0  0  0  0  0  0  0  0  0
  141.3389   77.5486  223.6168 H   0  0  0  0  0  0  0  0  0  0  0  0
  141.9401   79.0085  224.4743 H   0  0  0  0  0  0  0  0  0  0  0  0
  139.2603   77.3388  222.8655 H   0  0  0  0  0  0  0  0  0  0  0  0
  136.9370   78.2091  222.6860 H   0  0  0  0  0  0  0  0  0  0  0  0
  136.4701   80.5968  223.2099 H   0  0  0  0  0  0  0  0  0  0  0  0
  138.3215   82.0978  223.9125 H   0  0  0  0  0  0  0  0  0  0  0  0
  140.6455   81.2455  224.0940 H   0  0  0  0  0  0  0  0  0  0  0  0
  1  2  1  0
  2  3  1  0
  3  4  1  0
  4  5  1  0
  5  6  1  0
  6  7  2  0
  7  8  1  0
  7  9  1  0
  9 10  1  0
 10 11  1  0
 11 12  2  0
 11 13  1  0
 13 14  2  0
 14 15  1  0
 15 16  2  0
 16 17  1  0
 17 18  2  0
 18 19  1  0
 18 20  1  0
 20 21  2  0
 21 22  1  0
 22 23  2  0
  2 24  1  0
 24 25  1  0
 25 26  2  0
 26 27  1  0
 27 28  2  0
 28 29  1  0
 29 30  2  0
 23 13  1  0
 30 25  1  0
 22 16  1  0
  1 31  1  0
  1 32  1  0
  1 33  1  0
  3 34  1  0
  3 35  1  0
  4 36  1  0
  4 37  1  0
  5 38  1  0
  5 39  1  0
  8 40  1  0
  9 41  1  0
  9 42  1  0
 10 43  1  0
 14 44  1  0
 15 45  1  0
 17 46  1  0
 20 47  1  0
 21 48  1  0
 24 49  1  0
 24 50  1  0
 26 51  1  0
 27 52  1  0
 28 53  1  0
 29 54  1  0
 30 55  1  0
M  END
>  <smiles>  (42) 
CN(CCCN=C(O)CNC(=O)c1ccc2cc(F)ccc2n1)Cc1ccccc1

>  <score_type>  (42) 
oracle

>  <origin>  (42) 
autodockgpu

>  <m_score__min__energy>  (42) 
-8.4000000000000004

>  <m_primary>  (42) 
energy

>  <rmsd>  (42) 
1.1801867446148842

>  <m_score__min__rmsd>  (42) 
1.1801867446148842

>  <meeko>  (42) 
{"free_energy": -7.48, "intermolecular_energy": -10.76, "internal_energy": -2.09, "cluster_size": 26, "cluster_id": 1, "rank_in_cluster": 16}

>  <energy>  (42) 
-6.97

>  <cluster_rmsd>  (42) 
1.07

>  <cluster>  (42) 
3

$$$$

     RDKit          3D

 55 57  0  0  0  0  0  0  0  0999 V2000
  137.5500   70.2650  224.2820 C   0  0  0  0  0  0  0  0  0  0  0  0
  138.7190   71.0240  223.9800 N   0  0  0  0  0  0  0  0  0  0  0  0
  138.8510   71.4270  222.6020 C   0  0  0  0  0  0  0  0  0  0  0  0
  140.2510   71.5020  222.0930 C   0  0  0  0  0  0  0  0  0  0  0  0
  140.6560   72.8690  221.5800 C   0  0  0  0  0  0  0  0  0  0  0  0
  140.1070   73.9410  222.3390 N   0  0  0  0  0  0  0  0  0  0  0  0
  140.0790   75.1310  221.8130 C   0  0  0  0  0  0  0  0  0  0  0  0
  141.2860   75.6270  221.3510 O   0  0  0  0  0  0  0  0  0  0  0  0
  138.7950   75.8770  221.7370 C   0  0  0  0  0  0  0  0  0  0  0  0
  137.7860   75.4270  222.6440 N   0  0  0  0  0  0  0  0  0  0  0  0
  136.6550   76.1910  223.0470 C   0  0  0  0  0  0  0  0  0  0  0  0
  136.4850   77.3640  222.5960 O   0  0  0  0  0  0  0  0  0  0  0  0
  135.6740   75.6300  223.9840 C   0  0  0  0  0  0  0  0  0  0  0  0
  134.7980   76.4900  224.6410 C   0  0  0  0  0  0  0  0  0  0  0  0
  133.9050   75.9100  225.5040 C   0  0  0  0  0  0  0  0  0  0  0  0
  133.8460   74.5440  225.7380 C   0  0  0  0  0  0  0  0  0  0  0  0
  132.9410   73.9830  226.6070 C   0  0  0  0  0  0  0  0  0  0  0  0
  132.9240   72.6030  226.8030 C   0  0  0  0  0  0  0  0  0  0  0  0
  132.0160   72.0570  227.6720 F   0  0  0  0  0  0  0  0  0  0  0  0
  133.8090   71.7680  226.1340 C   0  0  0  0  0  0  0  0  0  0  0  0
  134.7090   72.3580  225.2670 C   0  0  0  0  0  0  0  0  0  0  0  0
  134.7380   73.7300  225.0610 C   0  0  0  0  0  0  0  0  0  0  0  0
  135.6150   74.3070  224.2130 N   0  0  0  0  0  0  0  0  0  0  0  0
  139.8920   70.2970  224.3960 C   0  0  0  0  0  0  0  0  0  0  0  0
  140.3110   70.7610  225.7630 C   0  0  0  0  0  0  0  0  0  0  0  0
  139.8860   69.9620  226.8210 C   0  0  0  0  0  0  0  0  0  0  0  0
  140.2280   70.3190  228.1070 C   0  0  0  0  0  0  0  0  0  0  0  0
  140.9850   71.4580  228.3270 C   0  0  0  0  0  0  0  0  0  0  0  0
  141.3950   72.2360  227.2470 C   0  0  0  0  0  0  0  0  0  0  0  0
  141.0630   71.8970  225.9560 C   0  0  0  0  0  0  0  0  0  0  0  0
  137.4336   70.1895  225.3732 H   0  0  0  0  0  0  0  0  0  0  0  0
  136.6682   70.7633  223.8529 H   0  0  0  0  0  0  0  0  0  0  0  0
  137.6464   69.2568  223.8529 H   0  0  0  0  0  0  0  0  0  0  0  0
  138.3019   70.7033  221.9818 H   0  0  0  0  0  0  0  0  0  0  0  0
  138.4500   72.4497  222.5436 H   0  0  0  0  0  0  0  0  0  0  0  0
  140.9308   71.2265  222.9128 H   0  0  0  0  0  0  0  0  0  0  0  0
  140.3121   70.8137  221.2371 H   0  0  0  0  0  0  0  0  0  0  0  0
  141.7530   72.9435  221.6135 H   0  0  0  0  0  0  0  0  0  0  0  0
  140.2652   72.9614  220.5559 H   0  0  0  0  0  0  0  0  0  0  0  0
  141.8880   76.0790  222.0460 H   0  0  0  0  0  0  0  0  0  0  0  0
  139.0011   76.9359  221.9523 H   0  0  0  0  0  0  0  0  0  0  0  0
  138.3987   75.7092  220.7247 H   0  0  0  0  0  0  0  0  0  0  0  0
  137.8400   74.4550  223.0790 H   0  0  0  0  0  0  0  0  0  0  0  0
  134.8214   77.5773  224.4762 H   0  0  0  0  0  0  0  0  0  0  0  0
  133.1984   76.5616  226.0388 H   0  0  0  0  0  0  0  0  0  0  0  0
  132.2293   74.6236  227.1484 H   0  0  0  0  0  0  0  0  0  0  0  0
  133.7943   70.6790  226.2882 H   0  0  0  0  0  0  0  0  0  0  0  0
  135.4233   71.7214  224.7243 H   0  0  0  0  0  0  0  0  0  0  0  0
  139.6645   69.2213  224.4278 H   0  0  0  0  0  0  0  0  0  0  0  0
  140.7082   70.4784  223.6812 H   0  0  0  0  0  0  0  0  0  0  0  0
  139.2862   69.0593  226.6330 H   0  0  0  0  0  0  0  0  0  0  0  0
  139.9009   69.7014  228.9565 H   0  0  0  0  0  0  0  0  0  0  0  0
  141.2615   71.7472  229.3517 H   0  0  0  0  0  0  0  0  0  0  0  0
  141.9959   73.1390  227.4300 H   0  0  0  0  0  0  0  0  0  0  0  0
  141.3881   72.5141  225.1054 H   0  0  0  0  0  0  0  0  0  0  0  0
  1  2  1  0
  2  3  1  0
  3  4  1  0
  4  5  1  0
  5  6  1  0
  6  7  2  0
  7  8  1  0
  7  9  1  0
  9 10  1  0
 10 11  1  0
 11 12  2  0
 11 13  1  0
 13 14  2  0
 14 15  1  0
 15 16  2  0
 16 17  1  0
 17 18  2  0
 18 19  1  0
 18 20  1  0
 20 21  2  0
 21 22  1  0
 22 23  2  0
  2 24  1  0
 24 25  1  0
 25 26  2  0
 26 27  1  0
 27 28  2  0
 28 29  1  0
 29 30  2  0
 23 13  1  0
 30 25  1  0
 22 16  1  0
  1 31  1  0
  1 32  1  0
  1 33  1  0
  3 34  1  0
  3 35  1  0
  4 36  1  0
  4 37  1  0
  5 38  1  0
  5 39  1  0
  8 40  1  0
  9 41  1  0
  9 42  1  0
 10 43  1  0
 14 44  1  0
 15 45  1  0
 17 46  1  0
 20 47  1  0
 21 48  1  0
 24 49  1  0
 24 50  1  0
 26 51  1  0
 27 52  1  0
 28 53  1  0
 29 54  1  0
 30 55  1  0
M  END
>  <smiles>  (43) 
CN(CCCN=C(O)CNC(=O)c1ccc2cc(F)ccc2n1)Cc1ccccc1

>  <score_type>  (43) 
oracle

>  <origin>  (43) 
autodockgpu

>  <m_score__min__energy>  (43) 
-8.4000000000000004

>  <m_primary>  (43) 
energy

>  <rmsd>  (43) 
7.049648806462926

>  <m_score__min__rmsd>  (43) 
7.049648806462926

>  <meeko>  (43) 
{"free_energy": -7.51, "intermolecular_energy": -10.79, "internal_energy": -2.12, "cluster_size": 3, "cluster_id": 4, "rank_in_cluster": 1}

>  <energy>  (43) 
-7.51

>  <cluster_rmsd>  (43) 
0.0

>  <cluster>  (43) 
4

$$$$

     RDKit          3D

 55 57  0  0  0  0  0  0  0  0999 V2000
  142.1590   80.2810  218.1240 C   0  0  0  0  0  0  0  0  0  0  0  0
  142.2900   79.2020  219.0480 N   0  0  0  0  0  0  0  0  0  0  0  0
  142.5690   77.9170  218.4560 C   0  0  0  0  0  0  0  0  0  0  0  0
  142.8140   76.8110  219.4250 C   0  0  0  0  0  0  0  0  0  0  0  0
  141.9080   75.6110  219.2460 C   0  0  0  0  0  0  0  0  0  0  0  0
  140.6390   75.7640  219.8730 N   0  0  0  0  0  0  0  0  0  0  0  0
  140.4170   75.1490  220.9980 C   0  0  0  0  0  0  0  0  0  0  0  0
  141.4040   75.2590  221.9630 O   0  0  0  0  0  0  0  0  0  0  0  0
  139.1570   74.3840  221.1880 C   0  0  0  0  0  0  0  0  0  0  0  0
  139.1870   73.4340  222.2540 N   0  0  0  0  0  0  0  0  0  0  0  0
  140.1700   72.4170  222.4100 C   0  0  0  0  0  0  0  0  0  0  0  0
  141.1090   72.3030  221.5660 O   0  0  0  0  0  0  0  0  0  0  0  0
  140.1100   71.4920  223.5490 C   0  0  0  0  0  0  0  0  0  0  0  0
  139.5550   70.2280  223.3650 C   0  0  0  0  0  0  0  0  0  0  0  0
  139.5260   69.4080  224.4630 C   0  0  0  0  0  0  0  0  0  0  0  0
  140.0120   69.7800  225.7080 C   0  0  0  0  0  0  0  0  0  0  0  0
  139.9730   68.9420  226.7960 C   0  0  0  0  0  0  0  0  0  0  0  0
  140.4770   69.3670  228.0240 C   0  0  0  0  0  0  0  0  0  0  0  0
  140.4330   68.5200  229.1000 F   0  0  0  0  0  0  0  0  0  0  0  0
  141.0260   70.6330  228.1800 C   0  0  0  0  0  0  0  0  0  0  0  0
  141.0500   71.4560  227.0700 C   0  0  0  0  0  0  0  0  0  0  0  0
  140.5530   71.0480  225.8410 C   0  0  0  0  0  0  0  0  0  0  0  0
  140.5800   71.8500  224.7570 N   0  0  0  0  0  0  0  0  0  0  0  0
  141.1090   79.1210  219.8710 C   0  0  0  0  0  0  0  0  0  0  0  0
  141.4890   79.3080  221.3130 C   0  0  0  0  0  0  0  0  0  0  0  0
  142.1630   80.4910  221.6040 C   0  0  0  0  0  0  0  0  0  0  0  0
  142.5460   80.7380  222.9040 C   0  0  0  0  0  0  0  0  0  0  0  0
  142.2590   79.8140  223.8950 C   0  0  0  0  0  0  0  0  0  0  0  0
  141.5830   78.6400  223.5710 C   0  0  0  0  0  0  0  0  0  0  0  0
  141.1920   78.3740  222.2790 C   0  0  0  0  0  0  0  0  0  0  0  0
  142.0444   81.2251  218.6767 H   0  0  0  0  0  0  0  0  0  0  0  0
  143.0574   80.3332  217.4914 H   0  0  0  0  0  0  0  0  0  0  0  0
  141.2742   80.1167  217.4914 H   0  0  0  0  0  0  0  0  0  0  0  0
  141.7089   77.6367  217.8302 H   0  0  0  0  0  0  0  0  0  0  0  0
  143.5039   78.0387  217.8893 H   0  0  0  0  0  0  0  0  0  0  0  0
  143.8554   76.4763  219.3091 H   0  0  0  0  0  0  0  0  0  0  0  0
  142.6033   77.2173  220.4253 H   0  0  0  0  0  0  0  0  0  0  0  0
  141.7484   75.4518  218.1694 H   0  0  0  0  0  0  0  0  0  0  0  0
  142.4054   74.7536  219.7230 H   0  0  0  0  0  0  0  0  0  0  0  0
  142.0130   76.0800  221.8980 H   0  0  0  0  0  0  0  0  0  0  0  0
  138.3487   75.1016  221.3921 H   0  0  0  0  0  0  0  0  0  0  0  0
  139.0031   73.8073  220.2641 H   0  0  0  0  0  0  0  0  0  0  0  0
  138.4400   73.4460  223.0150 H   0  0  0  0  0  0  0  0  0  0  0  0
  139.1608   69.9048  222.3902 H   0  0  0  0  0  0  0  0  0  0  0  0
  139.0948   68.4022  224.3511 H   0  0  0  0  0  0  0  0  0  0  0  0
  139.5434   67.9341  226.6978 H   0  0  0  0  0  0  0  0  0  0  0  0
  141.4259   70.9675  229.1486 H   0  0  0  0  0  0  0  0  0  0  0  0
  141.4764   72.4656  227.1641 H   0  0  0  0  0  0  0  0  0  0  0  0
  140.4003   79.9079  219.5736 H   0  0  0  0  0  0  0  0  0  0  0  0
  140.6385   78.1353  219.7408 H   0  0  0  0  0  0  0  0  0  0  0  0
  142.3862   81.2170  220.8083 H   0  0  0  0  0  0  0  0  0  0  0  0
  143.0787   81.6672  223.1545 H   0  0  0  0  0  0  0  0  0  0  0  0
  142.5638   80.0066  224.9342 H   0  0  0  0  0  0  0  0  0  0  0  0
  141.3574   77.9114  224.3636 H   0  0  0  0  0  0  0  0  0  0  0  0
  140.6595   77.4452  222.0265 H   0  0  0  0  0  0  0  0  0  0  0  0
  1  2  1  0
  2  3  1  0
  3  4  1  0
  4  5  1  0
  5  6  1  0
  6  7  2  0
  7  8  1  0
  7  9  1  0
  9 10  1  0
 10 11  1  0
 11 12  2  0
 11 13  1  0
 13 14  2  0
 14 15  1  0
 15 16  2  0
 16 17  1  0
 17 18  2  0
 18 19  1  0
 18 20  1  0
 20 21  2  0
 21 22  1  0
 22 23  2  0
  2 24  1  0
 24 25  1  0
 25 26  2  0
 26 27  1  0
 27 28  2  0
 28 29  1  0
 29 30  2  0
 23 13  1  0
 30 25  1  0
 22 16  1  0
  1 31  1  0
  1 32  1  0
  1 33  1  0
  3 34  1  0
  3 35  1  0
  4 36  1  0
  4 37  1  0
  5 38  1  0
  5 39  1  0
  8 40  1  0
  9 41  1  0
  9 42  1  0
 10 43  1  0
 14 44  1  0
 15 45  1  0
 17 46  1  0
 20 47  1  0
 21 48  1  0
 24 49  1  0
 24 50  1  0
 26 51  1  0
 27 52  1  0
 28 53  1  0
 29 54  1  0
 30 55  1  0
M  END
>  <smiles>  (44) 
CN(CCCN=C(O)CNC(=O)c1ccc2cc(F)ccc2n1)Cc1ccccc1

>  <score_type>  (44) 
oracle

>  <origin>  (44) 
autodockgpu

>  <m_score__min__energy>  (44) 
-8.4000000000000004

>  <m_primary>  (44) 
energy

>  <rmsd>  (44) 
1.1733639728153842

>  <m_score__min__rmsd>  (44) 
1.1733639728153842

>  <meeko>  (44) 
{"free_energy": -8.27, "intermolecular_energy": -11.55, "internal_energy": -1.4, "cluster_size": 26, "cluster_id": 1, "rank_in_cluster": 2}

>  <energy>  (44) 
-7.24

>  <cluster_rmsd>  (44) 
0.53

>  <cluster>  (44) 
4

$$$$

     RDKit          3D

 55 57  0  0  0  0  0  0  0  0999 V2000
  142.6280   80.4840  218.2620 C   0  0  0  0  0  0  0  0  0  0  0  0
  142.2060   79.5740  219.2760 N   0  0  0  0  0  0  0  0  0  0  0  0
  141.6960   78.3130  218.7970 C   0  0  0  0  0  0  0  0  0  0  0  0
  142.3450   77.1030  219.3770 C   0  0  0  0  0  0  0  0  0  0  0  0
  141.3950   75.9550  219.6500 C   0  0  0  0  0  0  0  0  0  0  0  0
  140.6390   76.1210  220.8450 N   0  0  0  0  0  0  0  0  0  0  0  0
  140.3550   75.0700  221.5590 C   0  0  0  0  0  0  0  0  0  0  0  0
  139.4840   75.2640  222.6180 O   0  0  0  0  0  0  0  0  0  0  0  0
  140.9590   73.7560  221.2140 C   0  0  0  0  0  0  0  0  0  0  0  0
  140.9140   72.7840  222.2600 N   0  0  0  0  0  0  0  0  0  0  0  0
  139.7240   72.2090  222.7860 C   0  0  0  0  0  0  0  0  0  0  0  0
  138.5930   72.5540  222.3280 O   0  0  0  0  0  0  0  0  0  0  0  0
  139.7910   71.2110  223.8610 C   0  0  0  0  0  0  0  0  0  0  0  0
  139.2650   69.9410  223.6400 C   0  0  0  0  0  0  0  0  0  0  0  0
  139.3570   69.0530  224.6790 C   0  0  0  0  0  0  0  0  0  0  0  0
  139.9350   69.3630  225.9020 C   0  0  0  0  0  0  0  0  0  0  0  0
  140.0170   68.4560  226.9300 C   0  0  0  0  0  0  0  0  0  0  0  0
  140.6100   68.8220  228.1380 C   0  0  0  0  0  0  0  0  0  0  0  0
  140.6860   67.9060  229.1550 F   0  0  0  0  0  0  0  0  0  0  0  0
  141.1280   70.0950  228.3320 C   0  0  0  0  0  0  0  0  0  0  0  0
  141.0300   70.9880  227.2820 C   0  0  0  0  0  0  0  0  0  0  0  0
  140.4430   70.6390  226.0740 C   0  0  0  0  0  0  0  0  0  0  0  0
  140.3500   71.5100  225.0470 N   0  0  0  0  0  0  0  0  0  0  0  0
  141.2290   80.2100  220.1250 C   0  0  0  0  0  0  0  0  0  0  0  0
  141.6040   80.0020  221.5650 C   0  0  0  0  0  0  0  0  0  0  0  0
  141.1130   78.8360  222.1470 C   0  0  0  0  0  0  0  0  0  0  0  0
  141.4120   78.5710  223.4650 C   0  0  0  0  0  0  0  0  0  0  0  0
  142.1910   79.4600  224.1870 C   0  0  0  0  0  0  0  0  0  0  0  0
  142.6680   80.6170  223.5750 C   0  0  0  0  0  0  0  0  0  0  0  0
  142.3800   80.9010  222.2600 C   0  0  0  0  0  0  0  0  0  0  0  0
  143.0467   81.3868  218.7307 H   0  0  0  0  0  0  0  0  0  0  0  0
  143.3962   80.0056  217.6366 H   0  0  0  0  0  0  0  0  0  0  0  0
  141.7666   80.7614  217.6366 H   0  0  0  0  0  0  0  0  0  0  0  0
  140.6224   78.2689  219.0324 H   0  0  0  0  0  0  0  0  0  0  0  0
  141.9115   78.2870  217.7186 H   0  0  0  0  0  0  0  0  0  0  0  0
  143.1139   76.7535  218.6722 H   0  0  0  0  0  0  0  0  0  0  0  0
  142.7611   77.4049  220.3495 H   0  0  0  0  0  0  0  0  0  0  0  0
  140.6968   75.8710  218.8041 H   0  0  0  0  0  0  0  0  0  0  0  0
  142.0064   75.0491  219.7747 H   0  0  0  0  0  0  0  0  0  0  0  0
  138.8220   74.5050  222.8060 H   0  0  0  0  0  0  0  0  0  0  0  0
  140.4207   73.3492  220.3452 H   0  0  0  0  0  0  0  0  0  0  0  0
  142.0236   73.9470  221.0137 H   0  0  0  0  0  0  0  0  0  0  0  0
  141.8130   72.4300  222.7120 H   0  0  0  0  0  0  0  0  0  0  0  0
  138.8002   69.6653  222.6819 H   0  0  0  0  0  0  0  0  0  0  0  0
  138.9512   68.0406  224.5364 H   0  0  0  0  0  0  0  0  0  0  0  0
  139.6148   67.4404  226.8005 H   0  0  0  0  0  0  0  0  0  0  0  0
  141.5981   70.3818  229.2842 H   0  0  0  0  0  0  0  0  0  0  0  0
  141.4290   72.0054  227.4074 H   0  0  0  0  0  0  0  0  0  0  0  0
  141.1993   81.2876  219.9060 H   0  0  0  0  0  0  0  0  0  0  0  0
  140.2386   79.7696  219.9372 H   0  0  0  0  0  0  0  0  0  0  0  0
  140.4959   78.1374  221.5630 H   0  0  0  0  0  0  0  0  0  0  0  0
  141.0331   77.6556  223.9431 H   0  0  0  0  0  0  0  0  0  0  0  0
  142.4322   79.2531  225.2401 H   0  0  0  0  0  0  0  0  0  0  0  0
  143.2872   81.3174  224.1547 H   0  0  0  0  0  0  0  0  0  0  0  0
  142.7574   81.8161  221.7803 H   0  0  0  0  0  0  0  0  0  0  0  0
  1  2  1  0
  2  3  1  0
  3  4  1  0
  4  5  1  0
  5  6  1  0
  6  7  2  0
  7  8  1  0
  7  9  1  0
  9 10  1  0
 10 11  1  0
 11 12  2  0
 11 13  1  0
 13 14  2  0
 14 15  1  0
 15 16  2  0
 16 17  1  0
 17 18  2  0
 18 19  1  0
 18 20  1  0
 20 21  2  0
 21 22  1  0
 22 23  2  0
  2 24  1  0
 24 25  1  0
 25 26  2  0
 26 27  1  0
 27 28  2  0
 28 29  1  0
 29 30  2  0
 23 13  1  0
 30 25  1  0
 22 16  1  0
  1 31  1  0
  1 32  1  0
  1 33  1  0
  3 34  1  0
  3 35  1  0
  4 36  1  0
  4 37  1  0
  5 38  1  0
  5 39  1  0
  8 40  1  0
  9 41  1  0
  9 42  1  0
 10 43  1  0
 14 44  1  0
 15 45  1  0
 17 46  1  0
 20 47  1  0
 21 48  1  0
 24 49  1  0
 24 50  1  0
 26 51  1  0
 27 52  1  0
 28 53  1  0
 29 54  1  0
 30 55  1  0
M  END
>  <smiles>  (45) 
CN(CCCN=C(O)CNC(=O)c1ccc2cc(F)ccc2n1)Cc1ccccc1

>  <score_type>  (45) 
oracle

>  <origin>  (45) 
autodockgpu

>  <m_score__min__energy>  (45) 
-8.4000000000000004

>  <m_primary>  (45) 
energy

>  <rmsd>  (45) 
1.6530631088080514

>  <m_score__min__rmsd>  (45) 
1.6530631088080514

>  <meeko>  (45) 
{"free_energy": -7.77, "intermolecular_energy": -11.05, "internal_energy": -2.05, "cluster_size": 26, "cluster_id": 1, "rank_in_cluster": 8}

>  <energy>  (45) 
-6.52

>  <cluster_rmsd>  (45) 
1.19

>  <cluster>  (45) 
4

$$$$

     RDKit          3D

 55 57  0  0  0  0  0  0  0  0999 V2000
  137.4190   80.3770  222.1620 C   0  0  0  0  0  0  0  0  0  0  0  0
  138.3780   79.4020  222.5660 N   0  0  0  0  0  0  0  0  0  0  0  0
  137.8560   78.0740  222.7720 C   0  0  0  0  0  0  0  0  0  0  0  0
  137.2670   77.4280  221.5640 C   0  0  0  0  0  0  0  0  0  0  0  0
  138.2770   76.7410  220.6680 C   0  0  0  0  0  0  0  0  0  0  0  0
  139.2880   76.0450  221.3900 N   0  0  0  0  0  0  0  0  0  0  0  0
  139.1080   74.7860  221.6660 C   0  0  0  0  0  0  0  0  0  0  0  0
  137.8250   74.4150  222.0320 O   0  0  0  0  0  0  0  0  0  0  0  0
  140.2500   73.8380  221.5780 C   0  0  0  0  0  0  0  0  0  0  0  0
  140.3020   72.8640  222.6230 N   0  0  0  0  0  0  0  0  0  0  0  0
  139.3440   71.8320  222.8220 C   0  0  0  0  0  0  0  0  0  0  0  0
  138.3500   71.7260  222.0420 O   0  0  0  0  0  0  0  0  0  0  0  0
  139.4960   70.8790  223.9280 C   0  0  0  0  0  0  0  0  0  0  0  0
  138.9550   69.6020  223.8000 C   0  0  0  0  0  0  0  0  0  0  0  0
  139.1280   68.7560  224.8640 C   0  0  0  0  0  0  0  0  0  0  0  0
  139.8000   69.1140  226.0240 C   0  0  0  0  0  0  0  0  0  0  0  0
  139.9630   68.2490  227.0800 C   0  0  0  0  0  0  0  0  0  0  0  0
  140.6480   68.6620  228.2210 C   0  0  0  0  0  0  0  0  0  0  0  0
  140.8040   67.7880  229.2660 F   0  0  0  0  0  0  0  0  0  0  0  0
  141.1780   69.9410  228.3230 C   0  0  0  0  0  0  0  0  0  0  0  0
  140.9980   70.7910  227.2480 C   0  0  0  0  0  0  0  0  0  0  0  0
  140.3190   70.3950  226.1040 C   0  0  0  0  0  0  0  0  0  0  0  0
  140.1460   71.2230  225.0530 N   0  0  0  0  0  0  0  0  0  0  0  0
  139.0600   79.8540  223.7540 C   0  0  0  0  0  0  0  0  0  0  0  0
  140.5380   79.9180  223.4900 C   0  0  0  0  0  0  0  0  0  0  0  0
  141.1510   81.1240  223.8220 C   0  0  0  0  0  0  0  0  0  0  0  0
  142.5050   81.2640  223.6110 C   0  0  0  0  0  0  0  0  0  0  0  0
  143.2320   80.2120  223.0760 C   0  0  0  0  0  0  0  0  0  0  0  0
  142.5880   79.0190  222.7550 C   0  0  0  0  0  0  0  0  0  0  0  0
  141.2370   78.8600  222.9580 C   0  0  0  0  0  0  0  0  0  0  0  0
  136.9664   80.8372  223.0527 H   0  0  0  0  0  0  0  0  0  0  0  0
  137.9158   81.1528  221.5608 H   0  0  0  0  0  0  0  0  0  0  0  0
  136.6351   79.8932  221.5608 H   0  0  0  0  0  0  0  0  0  0  0  0
  138.6779   77.4374  223.1315 H   0  0  0  0  0  0  0  0  0  0  0  0
  137.0326   78.1786  223.4939 H   0  0  0  0  0  0  0  0  0  0  0  0
  136.5355   76.6771  221.8972 H   0  0  0  0  0  0  0  0  0  0  0  0
  136.8129   78.2326  220.9669 H   0  0  0  0  0  0  0  0  0  0  0  0
  137.7446   76.0203  220.0299 H   0  0  0  0  0  0  0  0  0  0  0  0
  138.7771   77.5245  220.0797 H   0  0  0  0  0  0  0  0  0  0  0  0
  137.7500   73.6850  222.7480 H   0  0  0  0  0  0  0  0  0  0  0  0
  140.1801   73.3062  220.6176 H   0  0  0  0  0  0  0  0  0  0  0  0
  141.1634   74.4435  221.6732 H   0  0  0  0  0  0  0  0  0  0  0  0
  141.1000   72.8690  223.3310 H   0  0  0  0  0  0  0  0  0  0  0  0
  138.4173   69.2891  222.8928 H   0  0  0  0  0  0  0  0  0  0  0  0
  138.7124   67.7399  224.7949 H   0  0  0  0  0  0  0  0  0  0  0  0
  139.5523   67.2301  227.0242 H   0  0  0  0  0  0  0  0  0  0  0  0
  141.7198   70.2652  229.2237 H   0  0  0  0  0  0  0  0  0  0  0  0
  141.4050   71.8116  227.3007 H   0  0  0  0  0  0  0  0  0  0  0  0
  138.6932   80.8538  224.0293 H   0  0  0  0  0  0  0  0  0  0  0  0
  138.8650   79.1519  224.5780 H   0  0  0  0  0  0  0  0  0  0  0  0
  140.5631   81.9514  224.2460 H   0  0  0  0  0  0  0  0  0  0  0  0
  143.0081   82.2083  223.8664 H   0  0  0  0  0  0  0  0  0  0  0  0
  144.3135   80.3187  222.9055 H   0  0  0  0  0  0  0  0  0  0  0  0
  143.1712   78.1883  222.3311 H   0  0  0  0  0  0  0  0  0  0  0  0
  140.7318   77.9167  222.7029 H   0  0  0  0  0  0  0  0  0  0  0  0
  1  2  1  0
  2  3  1  0
  3  4  1  0
  4  5  1  0
  5  6  1  0
  6  7  2  0
  7  8  1  0
  7  9  1  0
  9 10  1  0
 10 11  1  0
 11 12  2  0
 11 13  1  0
 13 14  2  0
 14 15  1  0
 15 16  2  0
 16 17  1  0
 17 18  2  0
 18 19  1  0
 18 20  1  0
 20 21  2  0
 21 22  1  0
 22 23  2  0
  2 24  1  0
 24 25  1  0
 25 26  2  0
 26 27  1  0
 27 28  2  0
 28 29  1  0
 29 30  2  0
 23 13  1  0
 30 25  1  0
 22 16  1  0
  1 31  1  0
  1 32  1  0
  1 33  1  0
  3 34  1  0
  3 35  1  0
  4 36  1  0
  4 37  1  0
  5 38  1  0
  5 39  1  0
  8 40  1  0
  9 41  1  0
  9 42  1  0
 10 43  1  0
 14 44  1  0
 15 45  1  0
 17 46  1  0
 20 47  1  0
 21 48  1  0
 24 49  1  0
 24 50  1  0
 26 51  1  0
 27 52  1  0
 28 53  1  0
 29 54  1  0
 30 55  1  0
M  END
>  <smiles>  (46) 
CN(CCCN=C(O)CNC(=O)c1ccc2cc(F)ccc2n1)Cc1ccccc1

>  <score_type>  (46) 
oracle

>  <origin>  (46) 
autodockgpu

>  <m_score__min__energy>  (46) 
-8.4000000000000004

>  <m_primary>  (46) 
energy

>  <rmsd>  (46) 
1.3550002772503935

>  <m_score__min__rmsd>  (46) 
1.3550002772503935

>  <meeko>  (46) 
{"free_energy": -6.97, "intermolecular_energy": -10.26, "internal_energy": -2.01, "cluster_size": 6, "cluster_id": 3, "rank_in_cluster": 6}

>  <energy>  (46) 
-7.18

>  <cluster_rmsd>  (46) 
0.0

>  <cluster>  (46) 
5

$$$$

     RDKit          3D

 55 57  0  0  0  0  0  0  0  0999 V2000
  136.6810   69.6150  224.6440 C   0  0  0  0  0  0  0  0  0  0  0  0
  138.0020   70.0840  224.3800 N   0  0  0  0  0  0  0  0  0  0  0  0
  138.3550   70.1720  222.9850 C   0  0  0  0  0  0  0  0  0  0  0  0
  137.6910   71.2710  222.2290 C   0  0  0  0  0  0  0  0  0  0  0  0
  138.2470   71.4990  220.8380 C   0  0  0  0  0  0  0  0  0  0  0  0
  139.6500   71.7440  220.8270 N   0  0  0  0  0  0  0  0  0  0  0  0
  140.1020   72.8320  221.3800 C   0  0  0  0  0  0  0  0  0  0  0  0
  139.8230   72.9970  222.7260 O   0  0  0  0  0  0  0  0  0  0  0  0
  140.8710   73.8110  220.5680 C   0  0  0  0  0  0  0  0  0  0  0  0
  141.0120   75.1030  221.1630 N   0  0  0  0  0  0  0  0  0  0  0  0
  139.9420   75.8730  221.6980 C   0  0  0  0  0  0  0  0  0  0  0  0
  138.7570   75.4260  221.6680 O   0  0  0  0  0  0  0  0  0  0  0  0
  140.2000   77.1920  222.2920 C   0  0  0  0  0  0  0  0  0  0  0  0
  139.1330   77.9190  222.8140 C   0  0  0  0  0  0  0  0  0  0  0  0
  139.4330   79.1410  223.3550 C   0  0  0  0  0  0  0  0  0  0  0  0
  140.7180   79.6620  223.3990 C   0  0  0  0  0  0  0  0  0  0  0  0
  140.9980   80.8910  223.9480 C   0  0  0  0  0  0  0  0  0  0  0  0
  142.3080   81.3650  223.9670 C   0  0  0  0  0  0  0  0  0  0  0  0
  142.5720   82.5920  224.5180 F   0  0  0  0  0  0  0  0  0  0  0  0
  143.3540   80.6200  223.4410 C   0  0  0  0  0  0  0  0  0  0  0  0
  143.0450   79.3890  222.8940 C   0  0  0  0  0  0  0  0  0  0  0  0
  141.7460   78.9020  222.8670 C   0  0  0  0  0  0  0  0  0  0  0  0
  141.4440   77.6990  222.3360 N   0  0  0  0  0  0  0  0  0  0  0  0
  138.9580   69.2640  225.0800 C   0  0  0  0  0  0  0  0  0  0  0  0
  139.7270   70.1110  226.0540 C   0  0  0  0  0  0  0  0  0  0  0  0
  139.6930   69.6800  227.3780 C   0  0  0  0  0  0  0  0  0  0  0  0
  140.3730   70.4030  228.3330 C   0  0  0  0  0  0  0  0  0  0  0  0
  141.0760   71.5390  227.9670 C   0  0  0  0  0  0  0  0  0  0  0  0
  141.0910   71.9430  226.6340 C   0  0  0  0  0  0  0  0  0  0  0  0
  140.4180   71.2360  225.6650 C   0  0  0  0  0  0  0  0  0  0  0  0
  136.5223   69.5587  225.7310 H   0  0  0  0  0  0  0  0  0  0  0  0
  135.9505   70.3087  224.2023 H   0  0  0  0  0  0  0  0  0  0  0  0
  136.5515   68.6159  224.2023 H   0  0  0  0  0  0  0  0  0  0  0  0
  139.4426   70.3223  222.9184 H   0  0  0  0  0  0  0  0  0  0  0  0
  138.0110   69.2343  222.5241 H   0  0  0  0  0  0  0  0  0  0  0  0
  136.6221   71.0281  222.1367 H   0  0  0  0  0  0  0  0  0  0  0  0
  137.8732   72.1962  222.7954 H   0  0  0  0  0  0  0  0  0  0  0  0
  138.0435   70.6055  220.2295 H   0  0  0  0  0  0  0  0  0  0  0  0
  137.7557   72.3959  220.4329 H   0  0  0  0  0  0  0  0  0  0  0  0
  139.1370   73.7210  222.9620 H   0  0  0  0  0  0  0  0  0  0  0  0
  141.8774   73.4002  220.3992 H   0  0  0  0  0  0  0  0  0  0  0  0
  140.3012   73.9583  219.6387 H   0  0  0  0  0  0  0  0  0  0  0  0
  141.9700   75.5660  221.2350 H   0  0  0  0  0  0  0  0  0  0  0  0
  138.1035   77.5322  222.7929 H   0  0  0  0  0  0  0  0  0  0  0  0
  138.6125   79.7404  223.7764 H   0  0  0  0  0  0  0  0  0  0  0  0
  140.1869   81.5007  224.3727 H   0  0  0  0  0  0  0  0  0  0  0  0
  144.3882   80.9944  223.4587 H   0  0  0  0  0  0  0  0  0  0  0  0
  143.8532   78.7769  222.4672 H   0  0  0  0  0  0  0  0  0  0  0  0
  138.4290   68.4679  225.6245 H   0  0  0  0  0  0  0  0  0  0  0  0
  139.6539   68.8139  224.3567 H   0  0  0  0  0  0  0  0  0  0  0  0
  139.1316   68.7760  227.6567 H   0  0  0  0  0  0  0  0  0  0  0  0
  140.3578   70.0790  229.3841 H   0  0  0  0  0  0  0  0  0  0  0  0
  141.6204   72.1199  228.7261 H   0  0  0  0  0  0  0  0  0  0  0  0
  141.6523   72.8456  226.3506 H   0  0  0  0  0  0  0  0  0  0  0  0
  140.4316   71.5591  224.6136 H   0  0  0  0  0  0  0  0  0  0  0  0
  1  2  1  0
  2  3  1  0
  3  4  1  0
  4  5  1  0
  5  6  1  0
  6  7  2  0
  7  8  1  0
  7  9  1  0
  9 10  1  0
 10 11  1  0
 11 12  2  0
 11 13  1  0
 13 14  2  0
 14 15  1  0
 15 16  2  0
 16 17  1  0
 17 18  2  0
 18 19  1  0
 18 20  1  0
 20 21  2  0
 21 22  1  0
 22 23  2  0
  2 24  1  0
 24 25  1  0
 25 26  2  0
 26 27  1  0
 27 28  2  0
 28 29  1  0
 29 30  2  0
 23 13  1  0
 30 25  1  0
 22 16  1  0
  1 31  1  0
  1 32  1  0
  1 33  1  0
  3 34  1  0
  3 35  1  0
  4 36  1  0
  4 37  1  0
  5 38  1  0
  5 39  1  0
  8 40  1  0
  9 41  1  0
  9 42  1  0
 10 43  1  0
 14 44  1  0
 15 45  1  0
 17 46  1  0
 20 47  1  0
 21 48  1  0
 24 49  1  0
 24 50  1  0
 26 51  1  0
 27 52  1  0
 28 53  1  0
 29 54  1  0
 30 55  1  0
M  END
>  <smiles>  (47) 
CN(CCCN=C(O)CNC(=O)c1ccc2cc(F)ccc2n1)Cc1ccccc1

>  <score_type>  (47) 
oracle

>  <origin>  (47) 
autodockgpu

>  <m_score__min__energy>  (47) 
-8.4000000000000004

>  <m_primary>  (47) 
energy

>  <rmsd>  (47) 
9.097036467889874

>  <m_score__min__rmsd>  (47) 
9.097036467889874

>  <meeko>  (47) 
{"free_energy": -7.48, "intermolecular_energy": -10.76, "internal_energy": -2.14, "cluster_size": 10, "cluster_id": 2, "rank_in_cluster": 5}

>  <energy>  (47) 
-5.71

>  <cluster_rmsd>  (47) 
0.0

>  <cluster>  (47) 
6

$$$$

     RDKit          3D

 55 57  0  0  0  0  0  0  0  0999 V2000
  142.5770   81.2800  218.1730 C   0  0  0  0  0  0  0  0  0  0  0  0
  142.1950   80.2430  219.0750 N   0  0  0  0  0  0  0  0  0  0  0  0
  141.6860   79.0450  218.4550 C   0  0  0  0  0  0  0  0  0  0  0  0
  142.4440   77.7990  218.7630 C   0  0  0  0  0  0  0  0  0  0  0  0
  141.5770   76.6260  219.1740 C   0  0  0  0  0  0  0  0  0  0  0  0
  141.8630   76.1460  220.4840 N   0  0  0  0  0  0  0  0  0  0  0  0
  141.5350   74.9250  220.7900 C   0  0  0  0  0  0  0  0  0  0  0  0
  142.5580   73.9930  220.7820 O   0  0  0  0  0  0  0  0  0  0  0  0
  140.1230   74.6000  221.1230 C   0  0  0  0  0  0  0  0  0  0  0  0
  139.9580   73.6850  222.2080 N   0  0  0  0  0  0  0  0  0  0  0  0
  140.4340   72.3440  222.2220 C   0  0  0  0  0  0  0  0  0  0  0  0
  141.0540   71.8780  221.2200 O   0  0  0  0  0  0  0  0  0  0  0  0
  140.2140   71.4880  223.3940 C   0  0  0  0  0  0  0  0  0  0  0  0
  139.5490   70.2760  223.2310 C   0  0  0  0  0  0  0  0  0  0  0  0
  139.3730   69.5190  224.3600 C   0  0  0  0  0  0  0  0  0  0  0  0
  139.8170   69.9060  225.6160 C   0  0  0  0  0  0  0  0  0  0  0  0
  139.6300   69.1310  226.7360 C   0  0  0  0  0  0  0  0  0  0  0  0
  140.0990   69.5680  227.9740 C   0  0  0  0  0  0  0  0  0  0  0  0
  139.9060   68.7850  229.0820 F   0  0  0  0  0  0  0  0  0  0  0  0
  140.7590   70.7820  228.1090 C   0  0  0  0  0  0  0  0  0  0  0  0
  140.9320   71.5420  226.9670 C   0  0  0  0  0  0  0  0  0  0  0  0
  140.4720   71.1210  225.7280 C   0  0  0  0  0  0  0  0  0  0  0  0
  140.6430   71.8610  224.6130 N   0  0  0  0  0  0  0  0  0  0  0  0
  141.2360   80.7530  220.0240 C   0  0  0  0  0  0  0  0  0  0  0  0
  141.5160   80.1730  221.3810 C   0  0  0  0  0  0  0  0  0  0  0  0
  140.8110   79.0130  221.6920 C   0  0  0  0  0  0  0  0  0  0  0  0
  141.0110   78.4190  222.9180 C   0  0  0  0  0  0  0  0  0  0  0  0
  141.9040   78.9780  223.8180 C   0  0  0  0  0  0  0  0  0  0  0  0
  142.5940   80.1390  223.4760 C   0  0  0  0  0  0  0  0  0  0  0  0
  142.4080   80.7480  222.2570 C   0  0  0  0  0  0  0  0  0  0  0  0
  142.9019   82.1619  218.7446 H   0  0  0  0  0  0  0  0  0  0  0  0
  143.4046   80.9284  217.5394 H   0  0  0  0  0  0  0  0  0  0  0  0
  141.7191   81.5493  217.5394 H   0  0  0  0  0  0  0  0  0  0  0  0
  140.6479   78.9033  218.7901 H   0  0  0  0  0  0  0  0  0  0  0  0
  141.7807   79.1993  217.3700 H   0  0  0  0  0  0  0  0  0  0  0  0
  143.0111   77.5103  217.8658 H   0  0  0  0  0  0  0  0  0  0  0  0
  143.0907   78.0286  219.6227 H   0  0  0  0  0  0  0  0  0  0  0  0
  140.5237   76.9414  219.1399 H   0  0  0  0  0  0  0  0  0  0  0  0
  141.7865   75.8046  218.4730 H   0  0  0  0  0  0  0  0  0  0  0  0
  142.2760   73.0090  220.7420 H   0  0  0  0  0  0  0  0  0  0  0  0
  139.6088   75.5367  221.3842 H   0  0  0  0  0  0  0  0  0  0  0  0
  139.7015   74.1062  220.2350 H   0  0  0  0  0  0  0  0  0  0  0  0
  139.4490   73.9820  223.0970 H   0  0  0  0  0  0  0  0  0  0  0  0
  139.1840   69.9434  222.2481 H   0  0  0  0  0  0  0  0  0  0  0  0
  138.8527   68.5545  224.2652 H   0  0  0  0  0  0  0  0  0  0  0  0
  139.1098   68.1651  226.6552 H   0  0  0  0  0  0  0  0  0  0  0  0
  141.1297   71.1256  229.0860 H   0  0  0  0  0  0  0  0  0  0  0  0
  141.4499   72.5094  227.0433 H   0  0  0  0  0  0  0  0  0  0  0  0
  141.3140   81.8492  220.0708 H   0  0  0  0  0  0  0  0  0  0  0  0
  140.2212   80.4704  219.7071 H   0  0  0  0  0  0  0  0  0  0  0  0
  140.1051   78.5779  220.9692 H   0  0  0  0  0  0  0  0  0  0  0  0
  140.4630   77.5026  223.1824 H   0  0  0  0  0  0  0  0  0  0  0  0
  142.0675   78.5070  224.7985 H   0  0  0  0  0  0  0  0  0  0  0  0
  143.3016   80.5773  224.1952 H   0  0  0  0  0  0  0  0  0  0  0  0
  142.9545   81.6648  221.9909 H   0  0  0  0  0  0  0  0  0  0  0  0
  1  2  1  0
  2  3  1  0
  3  4  1  0
  4  5  1  0
  5  6  1  0
  6  7  2  0
  7  8  1  0
  7  9  1  0
  9 10  1  0
 10 11  1  0
 11 12  2  0
 11 13  1  0
 13 14  2  0
 14 15  1  0
 15 16  2  0
 16 17  1  0
 17 18  2  0
 18 19  1  0
 18 20  1  0
 20 21  2  0
 21 22  1  0
 22 23  2  0
  2 24  1  0
 24 25  1  0
 25 26  2  0
 26 27  1  0
 27 28  2  0
 28 29  1  0
 29 30  2  0
 23 13  1  0
 30 25  1  0
 22 16  1  0
  1 31  1  0
  1 32  1  0
  1 33  1  0
  3 34  1  0
  3 35  1  0
  4 36  1  0
  4 37  1  0
  5 38  1  0
  5 39  1  0
  8 40  1  0
  9 41  1  0
  9 42  1  0
 10 43  1  0
 14 44  1  0
 15 45  1  0
 17 46  1  0
 20 47  1  0
 21 48  1  0
 24 49  1  0
 24 50  1  0
 26 51  1  0
 27 52  1  0
 28 53  1  0
 29 54  1  0
 30 55  1  0
M  END
>  <smiles>  (48) 
CN(CCCN=C(O)CNC(=O)c1ccc2cc(F)ccc2n1)Cc1ccccc1

>  <score_type>  (48) 
oracle

>  <origin>  (48) 
autodockgpu

>  <m_score__min__energy>  (48) 
-8.4000000000000004

>  <m_primary>  (48) 
energy

>  <rmsd>  (48) 
1.4323950046577254

>  <m_score__min__rmsd>  (48) 
1.4323950046577254

>  <meeko>  (48) 
{"free_energy": -7.24, "intermolecular_energy": -10.52, "internal_energy": -2.11, "cluster_size": 26, "cluster_id": 1, "rank_in_cluster": 20}

>  <energy>  (48) 
-5.62

>  <cluster_rmsd>  (48) 
0.7

>  <cluster>  (48) 
6

$$$$

     RDKit          3D

 55 57  0  0  0  0  0  0  0  0999 V2000
  138.0080   69.0030  224.4570 C   0  0  0  0  0  0  0  0  0  0  0  0
  138.6110   70.2640  224.1710 N   0  0  0  0  0  0  0  0  0  0  0  0
  138.3710   70.7720  222.8430 C   0  0  0  0  0  0  0  0  0  0  0  0
  138.4990   72.2490  222.6950 C   0  0  0  0  0  0  0  0  0  0  0  0
  139.5560   72.6890  221.7030 C   0  0  0  0  0  0  0  0  0  0  0  0
  140.3970   73.7270  222.1980 N   0  0  0  0  0  0  0  0  0  0  0  0
  140.3920   74.8790  221.5940 C   0  0  0  0  0  0  0  0  0  0  0  0
  141.5830   75.2700  221.0070 O   0  0  0  0  0  0  0  0  0  0  0  0
  139.1490   75.6940  221.5650 C   0  0  0  0  0  0  0  0  0  0  0  0
  138.1410   75.2830  222.4900 N   0  0  0  0  0  0  0  0  0  0  0  0
  136.9180   75.9720  222.7200 C   0  0  0  0  0  0  0  0  0  0  0  0
  136.6570   77.0370  222.0840 O   0  0  0  0  0  0  0  0  0  0  0  0
  135.9460   75.4590  223.6930 C   0  0  0  0  0  0  0  0  0  0  0  0
  135.1350   76.3590  224.3800 C   0  0  0  0  0  0  0  0  0  0  0  0
  134.2470   75.8220  225.2750 C   0  0  0  0  0  0  0  0  0  0  0  0
  134.1320   74.4600  225.5130 C   0  0  0  0  0  0  0  0  0  0  0  0
  133.2340   73.9420  226.4150 C   0  0  0  0  0  0  0  0  0  0  0  0
  133.1590   72.5650  226.6140 C   0  0  0  0  0  0  0  0  0  0  0  0
  132.2580   72.0620  227.5170 F   0  0  0  0  0  0  0  0  0  0  0  0
  133.9790   71.6890  225.9160 C   0  0  0  0  0  0  0  0  0  0  0  0
  134.8740   72.2360  225.0170 C   0  0  0  0  0  0  0  0  0  0  0  0
  134.9600   73.6050  224.8070 C   0  0  0  0  0  0  0  0  0  0  0  0
  135.8320   74.1390  223.9270 N   0  0  0  0  0  0  0  0  0  0  0  0
  140.0280   70.1940  224.4240 C   0  0  0  0  0  0  0  0  0  0  0  0
  140.3090   70.6420  225.8300 C   0  0  0  0  0  0  0  0  0  0  0  0
  141.0790   71.7960  225.9470 C   0  0  0  0  0  0  0  0  0  0  0  0
  141.3810   72.2730  227.2040 C   0  0  0  0  0  0  0  0  0  0  0  0
  140.9190   71.6030  228.3240 C   0  0  0  0  0  0  0  0  0  0  0  0
  140.1510   70.4510  228.1740 C   0  0  0  0  0  0  0  0  0  0  0  0
  139.8390   69.9580  226.9280 C   0  0  0  0  0  0  0  0  0  0  0  0
  137.9427   68.8665  225.5465 H   0  0  0  0  0  0  0  0  0  0  0  0
  136.9979   68.9726  224.0225 H   0  0  0  0  0  0  0  0  0  0  0  0
  138.6185   68.1977  224.0225 H   0  0  0  0  0  0  0  0  0  0  0  0
  139.0932   70.2981  222.1619 H   0  0  0  0  0  0  0  0  0  0  0  0
  137.3232   70.5320  222.6096 H   0  0  0  0  0  0  0  0  0  0  0  0
  137.5287   72.6469  222.3631 H   0  0  0  0  0  0  0  0  0  0  0  0
  138.8084   72.6373  223.6766 H   0  0  0  0  0  0  0  0  0  0  0  0
  140.1834   71.8206  221.4534 H   0  0  0  0  0  0  0  0  0  0  0  0
  139.0304   73.0878  220.8228 H   0  0  0  0  0  0  0  0  0  0  0  0
  142.2290   75.8020  221.5980 H   0  0  0  0  0  0  0  0  0  0  0  0
  139.4178   76.7361  221.7926 H   0  0  0  0  0  0  0  0  0  0  0  0
  138.7184   75.5660  220.5609 H   0  0  0  0  0  0  0  0  0  0  0  0
  138.2670   74.3990  223.0740 H   0  0  0  0  0  0  0  0  0  0  0  0
  135.2037   77.4441  224.2130 H   0  0  0  0  0  0  0  0  0  0  0  0
  133.5914   76.5062  225.8336 H   0  0  0  0  0  0  0  0  0  0  0  0
  132.5734   74.6154  226.9807 H   0  0  0  0  0  0  0  0  0  0  0  0
  133.9185   70.6019  226.0726 H   0  0  0  0  0  0  0  0  0  0  0  0
  135.5382   71.5665  224.4508 H   0  0  0  0  0  0  0  0  0  0  0  0
  140.3729   69.1576  224.2937 H   0  0  0  0  0  0  0  0  0  0  0  0
  140.5591   70.8490  223.7177 H   0  0  0  0  0  0  0  0  0  0  0  0
  141.4408   72.3191  225.0495 H   0  0  0  0  0  0  0  0  0  0  0  0
  141.9875   73.1837  227.3172 H   0  0  0  0  0  0  0  0  0  0  0  0
  141.1579   71.9795  229.3296 H   0  0  0  0  0  0  0  0  0  0  0  0
  139.7868   69.9251  229.0689 H   0  0  0  0  0  0  0  0  0  0  0  0
  139.2336   69.0468  226.8131 H   0  0  0  0  0  0  0  0  0  0  0  0
  1  2  1  0
  2  3  1  0
  3  4  1  0
  4  5  1  0
  5  6  1  0
  6  7  2  0
  7  8  1  0
  7  9  1  0
  9 10  1  0
 10 11  1  0
 11 12  2  0
 11 13  1  0
 13 14  2  0
 14 15  1  0
 15 16  2  0
 16 17  1  0
 17 18  2  0
 18 19  1  0
 18 20  1  0
 20 21  2  0
 21 22  1  0
 22 23  2  0
  2 24  1  0
 24 25  1  0
 25 26  2  0
 26 27  1  0
 27 28  2  0
 28 29  1  0
 29 30  2  0
 23 13  1  0
 30 25  1  0
 22 16  1  0
  1 31  1  0
  1 32  1  0
  1 33  1  0
  3 34  1  0
  3 35  1  0
  4 36  1  0
  4 37  1  0
  5 38  1  0
  5 39  1  0
  8 40  1  0
  9 41  1  0
  9 42  1  0
 10 43  1  0
 14 44  1  0
 15 45  1  0
 17 46  1  0
 20 47  1  0
 21 48  1  0
 24 49  1  0
 24 50  1  0
 26 51  1  0
 27 52  1  0
 28 53  1  0
 29 54  1  0
 30 55  1  0
M  END
>  <smiles>  (49) 
CN(CCCN=C(O)CNC(=O)c1ccc2cc(F)ccc2n1)Cc1ccccc1

>  <score_type>  (49) 
oracle

>  <origin>  (49) 
autodockgpu

>  <m_score__min__energy>  (49) 
-8.4000000000000004

>  <m_primary>  (49) 
energy

>  <rmsd>  (49) 
6.837122832919335

>  <m_score__min__rmsd>  (49) 
6.837122832919335

>  <meeko>  (49) 
{"free_energy": -7.24, "intermolecular_energy": -10.52, "internal_energy": -2.1, "cluster_size": 3, "cluster_id": 4, "rank_in_cluster": 2}

>  <energy>  (49) 
-5.44

>  <cluster_rmsd>  (49) 
0.66

>  <cluster>  (49) 
6

$$$$

     RDKit          3D

 55 57  0  0  0  0  0  0  0  0999 V2000
  137.6470   69.7750  224.4390 C   0  0  0  0  0  0  0  0  0  0  0  0
  138.7580   70.5960  224.0850 N   0  0  0  0  0  0  0  0  0  0  0  0
  138.8820   70.8880  222.6780 C   0  0  0  0  0  0  0  0  0  0  0  0
  139.3970   72.2490  222.3550 C   0  0  0  0  0  0  0  0  0  0  0  0
  138.5250   73.0360  221.3980 C   0  0  0  0  0  0  0  0  0  0  0  0
  137.1320   72.8000  221.5810 N   0  0  0  0  0  0  0  0  0  0  0  0
  136.5440   73.2980  222.6300 C   0  0  0  0  0  0  0  0  0  0  0  0
  136.5010   72.4880  223.7520 O   0  0  0  0  0  0  0  0  0  0  0  0
  135.9670   74.6670  222.5740 C   0  0  0  0  0  0  0  0  0  0  0  0
  136.8860   75.7170  222.8800 N   0  0  0  0  0  0  0  0  0  0  0  0
  136.8310   77.0310  222.3350 C   0  0  0  0  0  0  0  0  0  0  0  0
  135.9200   77.3410  221.5120 O   0  0  0  0  0  0  0  0  0  0  0  0
  137.8270   78.0390  222.7220 C   0  0  0  0  0  0  0  0  0  0  0  0
  137.3920   79.2970  223.1300 C   0  0  0  0  0  0  0  0  0  0  0  0
  138.3650   80.1960  223.4780 C   0  0  0  0  0  0  0  0  0  0  0  0
  139.7220   79.9070  223.4410 C   0  0  0  0  0  0  0  0  0  0  0  0
  140.6820   80.8230  223.7960 C   0  0  0  0  0  0  0  0  0  0  0  0
  142.0310   80.4780  223.7410 C   0  0  0  0  0  0  0  0  0  0  0  0
  142.9790   81.4020  224.0990 F   0  0  0  0  0  0  0  0  0  0  0  0
  142.4380   79.2160  223.3310 C   0  0  0  0  0  0  0  0  0  0  0  0
  141.4520   78.3140  222.9780 C   0  0  0  0  0  0  0  0  0  0  0  0
  140.1050   78.6420  223.0280 C   0  0  0  0  0  0  0  0  0  0  0  0
  139.1410   77.7610  222.6860 N   0  0  0  0  0  0  0  0  0  0  0  0
  139.9780   70.0030  224.5750 C   0  0  0  0  0  0  0  0  0  0  0  0
  140.2900   70.5530  225.9380 C   0  0  0  0  0  0  0  0  0  0  0  0
  141.0670   71.7090  225.9510 C   0  0  0  0  0  0  0  0  0  0  0  0
  141.3980   72.2760  227.1630 C   0  0  0  0  0  0  0  0  0  0  0  0
  140.9570   71.6940  228.3400 C   0  0  0  0  0  0  0  0  0  0  0  0
  140.1810   70.5380  228.2920 C   0  0  0  0  0  0  0  0  0  0  0  0
  139.8410   69.9550  227.0930 C   0  0  0  0  0  0  0  0  0  0  0  0
  137.5684   69.7169  225.5346 H   0  0  0  0  0  0  0  0  0  0  0  0
  136.7240   70.2097  224.0277 H   0  0  0  0  0  0  0  0  0  0  0  0
  137.7916   68.7651  224.0277 H   0  0  0  0  0  0  0  0  0  0  0  0
  139.5688   70.1507  222.2367 H   0  0  0  0  0  0  0  0  0  0  0  0
  137.8632   70.8415  222.2658 H   0  0  0  0  0  0  0  0  0  0  0  0
  139.4789   72.8177  223.2930 H   0  0  0  0  0  0  0  0  0  0  0  0
  140.3660   72.1078  221.8539 H   0  0  0  0  0  0  0  0  0  0  0  0
  138.7203   74.1080  221.5489 H   0  0  0  0  0  0  0  0  0  0  0  0
  138.7801   72.7075  220.3796 H   0  0  0  0  0  0  0  0  0  0  0  0
  137.3990   72.2870  224.2020 H   0  0  0  0  0  0  0  0  0  0  0  0
  135.5818   74.8348  221.5574 H   0  0  0  0  0  0  0  0  0  0  0  0
  135.1845   74.7053  223.3462 H   0  0  0  0  0  0  0  0  0  0  0  0
  137.6900   75.5550  223.5620 H   0  0  0  0  0  0  0  0  0  0  0  0
  136.3235   79.5553  223.1707 H   0  0  0  0  0  0  0  0  0  0  0  0
  138.0547   81.1997  223.8039 H   0  0  0  0  0  0  0  0  0  0  0  0
  140.3856   81.8302  224.1242 H   0  0  0  0  0  0  0  0  0  0  0  0
  143.5031   78.9444  223.2887 H   0  0  0  0  0  0  0  0  0  0  0  0
  141.7440   77.3062  222.6476 H   0  0  0  0  0  0  0  0  0  0  0  0
  139.8553   68.9118  224.6392 H   0  0  0  0  0  0  0  0  0  0  0  0
  140.8028   70.2393  223.8866 H   0  0  0  0  0  0  0  0  0  0  0  0
  141.4109   72.1620  225.0094 H   0  0  0  0  0  0  0  0  0  0  0  0
  142.0111   73.1887  227.1954 H   0  0  0  0  0  0  0  0  0  0  0  0
  141.2186   72.1431  229.3095 H   0  0  0  0  0  0  0  0  0  0  0  0
  139.8333   70.0825  229.2310 H   0  0  0  0  0  0  0  0  0  0  0  0
  139.2302   69.0408  227.0589 H   0  0  0  0  0  0  0  0  0  0  0  0
  1  2  1  0
  2  3  1  0
  3  4  1  0
  4  5  1  0
  5  6  1  0
  6  7  2  0
  7  8  1  0
  7  9  1  0
  9 10  1  0
 10 11  1  0
 11 12  2  0
 11 13  1  0
 13 14  2  0
 14 15  1  0
 15 16  2  0
 16 17  1  0
 17 18  2  0
 18 19  1  0
 18 20  1  0
 20 21  2  0
 21 22  1  0
 22 23  2  0
  2 24  1  0
 24 25  1  0
 25 26  2  0
 26 27  1  0
 27 28  2  0
 28 29  1  0
 29 30  2  0
 23 13  1  0
 30 25  1  0
 22 16  1  0
  1 31  1  0
  1 32  1  0
  1 33  1  0
  3 34  1  0
  3 35  1  0
  4 36  1  0
  4 37  1  0
  5 38  1  0
  5 39  1  0
  8 40  1  0
  9 41  1  0
  9 42  1  0
 10 43  1  0
 14 44  1  0
 15 45  1  0
 17 46  1  0
 20 47  1  0
 21 48  1  0
 24 49  1  0
 24 50  1  0
 26 51  1  0
 27 52  1  0
 28 53  1  0
 29 54  1  0
 30 55  1  0
M  END
>  <smiles>  (50) 
CN(CCCN=C(O)CNC(=O)c1ccc2cc(F)ccc2n1)Cc1ccccc1

>  <score_type>  (50) 
oracle

>  <origin>  (50) 
autodockgpu

>  <m_score__min__energy>  (50) 
-8.4000000000000004

>  <m_primary>  (50) 
energy

>  <rmsd>  (50) 
9.16801833748402

>  <m_score__min__rmsd>  (50) 
9.16801833748402

>  <meeko>  (50) 
{"free_energy": -7.18, "intermolecular_energy": -10.46, "internal_energy": -1.93, "cluster_size": 1, "cluster_id": 5, "rank_in_cluster": 1}

>  <energy>  (50) 
-5.18

>  <cluster_rmsd>  (50) 
0.89

>  <cluster>  (50) 
6

$$$$

     RDKit          3D

 55 57  0  0  0  0  0  0  0  0999 V2000
  142.8680   80.4220  222.9320 C   0  0  0  0  0  0  0  0  0  0  0  0
  141.6500   79.7450  222.6540 N   0  0  0  0  0  0  0  0  0  0  0  0
  141.8320   78.6740  221.7120 C   0  0  0  0  0  0  0  0  0  0  0  0
  140.9820   78.9030  220.4760 C   0  0  0  0  0  0  0  0  0  0  0  0
  140.1310   77.6280  220.3530 C   0  0  0  0  0  0  0  0  0  0  0  0
  140.8560   76.5910  221.0470 N   0  0  0  0  0  0  0  0  0  0  0  0
  140.2070   75.6230  221.5670 C   0  0  0  0  0  0  0  0  0  0  0  0
  139.5500   75.8760  222.7770 O   0  0  0  0  0  0  0  0  0  0  0  0
  140.0810   74.2590  221.0170 C   0  0  0  0  0  0  0  0  0  0  0  0
  139.9180   73.3670  222.1780 N   0  0  0  0  0  0  0  0  0  0  0  0
  140.1880   71.9690  222.0790 C   0  0  0  0  0  0  0  0  0  0  0  0
  140.5720   71.4220  221.0220 O   0  0  0  0  0  0  0  0  0  0  0  0
  140.0090   71.1270  223.2730 C   0  0  0  0  0  0  0  0  0  0  0  0
  139.4330   69.8850  223.2190 C   0  0  0  0  0  0  0  0  0  0  0  0
  139.2820   69.1170  224.3790 C   0  0  0  0  0  0  0  0  0  0  0  0
  139.7200   69.6190  225.6000 C   0  0  0  0  0  0  0  0  0  0  0  0
  139.5920   68.8930  226.7780 C   0  0  0  0  0  0  0  0  0  0  0  0
  140.0650   69.4870  227.9530 C   0  0  0  0  0  0  0  0  0  0  0  0
  139.9720   68.8360  229.1380 F   0  0  0  0  0  0  0  0  0  0  0  0
  140.6370   70.7400  227.9600 C   0  0  0  0  0  0  0  0  0  0  0  0
  140.7520   71.4380  226.7770 C   0  0  0  0  0  0  0  0  0  0  0  0
  140.2870   70.8560  225.6180 C   0  0  0  0  0  0  0  0  0  0  0  0
  140.4180   71.5700  224.4860 N   0  0  0  0  0  0  0  0  0  0  0  0
  140.9050   79.2790  223.7810 C   0  0  0  0  0  0  0  0  0  0  0  0
  139.4680   79.6750  223.6890 C   0  0  0  0  0  0  0  0  0  0  0  0
  138.9860   80.8740  224.1440 C   0  0  0  0  0  0  0  0  0  0  0  0
  137.6300   81.1660  224.0200 C   0  0  0  0  0  0  0  0  0  0  0  0
  136.7580   80.2610  223.4430 C   0  0  0  0  0  0  0  0  0  0  0  0
  137.2290   79.0510  222.9810 C   0  0  0  0  0  0  0  0  0  0  0  0
  138.5760   78.7720  223.1100 C   0  0  0  0  0  0  0  0  0  0  0  0
  143.0049   80.4981  224.0208 H   0  0  0  0  0  0  0  0  0  0  0  0
  143.7073   79.8609  222.4952 H   0  0  0  0  0  0  0  0  0  0  0  0
  142.8346   81.4310  222.4952 H   0  0  0  0  0  0  0  0  0  0  0  0
  142.8912   78.6257  221.4191 H   0  0  0  0  0  0  0  0  0  0  0  0
  141.5256   77.7290  222.1843 H   0  0  0  0  0  0  0  0  0  0  0  0
  140.3409   79.7877  220.6034 H   0  0  0  0  0  0  0  0  0  0  0  0
  141.5901   79.0885  219.5783 H   0  0  0  0  0  0  0  0  0  0  0  0
  139.1458   77.7809  220.8178 H   0  0  0  0  0  0  0  0  0  0  0  0
  139.9595   77.3608  219.2998 H   0  0  0  0  0  0  0  0  0  0  0  0
  138.8370   75.2540  223.1170 H   0  0  0  0  0  0  0  0  0  0  0  0
  139.2032   74.1923  220.3575 H   0  0  0  0  0  0  0  0  0  0  0  0
  140.9609   73.9833  220.4173 H   0  0  0  0  0  0  0  0  0  0  0  0
  139.6030   73.7150  223.1060 H   0  0  0  0  0  0  0  0  0  0  0  0
  139.0857   69.4875  222.2539 H   0  0  0  0  0  0  0  0  0  0  0  0
  138.8189   68.1206  224.3255 H   0  0  0  0  0  0  0  0  0  0  0  0
  139.1370   67.8915  226.7863 H   0  0  0  0  0  0  0  0  0  0  0  0
  140.9987   71.1797  228.9012 H   0  0  0  0  0  0  0  0  0  0  0  0
  141.2060   72.4398  226.7586 H   0  0  0  0  0  0  0  0  0  0  0  0
  140.9713   78.1819  223.8244 H   0  0  0  0  0  0  0  0  0  0  0  0
  141.3307   79.7333  224.6879 H   0  0  0  0  0  0  0  0  0  0  0  0
  139.6677   81.6035  224.6057 H   0  0  0  0  0  0  0  0  0  0  0  0
  137.2472   82.1300  224.3862 H   0  0  0  0  0  0  0  0  0  0  0  0
  135.6896   80.5066  223.3529 H   0  0  0  0  0  0  0  0  0  0  0  0
  136.5466   78.3224  222.5191 H   0  0  0  0  0  0  0  0  0  0  0  0
  138.9573   77.8071  222.7445 H   0  0  0  0  0  0  0  0  0  0  0  0
  1  2  1  0
  2  3  1  0
  3  4  1  0
  4  5  1  0
  5  6  1  0
  6  7  2  0
  7  8  1  0
  7  9  1  0
  9 10  1  0
 10 11  1  0
 11 12  2  0
 11 13  1  0
 13 14  2  0
 14 15  1  0
 15 16  2  0
 16 17  1  0
 17 18  2  0
 18 19  1  0
 18 20  1  0
 20 21  2  0
 21 22  1  0
 22 23  2  0
  2 24  1  0
 24 25  1  0
 25 26  2  0
 26 27  1  0
 27 28  2  0
 28 29  1  0
 29 30  2  0
 23 13  1  0
 30 25  1  0
 22 16  1  0
  1 31  1  0
  1 32  1  0
  1 33  1  0
  3 34  1  0
  3 35  1  0
  4 36  1  0
  4 37  1  0
  5 38  1  0
  5 39  1  0
  8 40  1  0
  9 41  1  0
  9 42  1  0
 10 43  1  0
 14 44  1  0
 15 45  1  0
 17 46  1  0
 20 47  1  0
 21 48  1  0
 24 49  1  0
 24 50  1  0
 26 51  1  0
 27 52  1  0
 28 53  1  0
 29 54  1  0
 30 55  1  0
M  END
>  <smiles>  (51) 
CN(CCCN=C(O)CNC(=O)c1ccc2cc(F)ccc2n1)Cc1ccccc1

>  <score_type>  (51) 
oracle

>  <origin>  (51) 
autodockgpu

>  <m_score__min__energy>  (51) 
-8.0199999999999996

>  <m_primary>  (51) 
energy

>  <rmsd>  (51) 
1.1950406679975105

>  <m_score__min__rmsd>  (51) 
1.1950406679975105

>  <meeko>  (51) 
{"free_energy": -7.38, "intermolecular_energy": -10.66, "internal_energy": -2.13, "cluster_size": 1, "cluster_id": 8, "rank_in_cluster": 1}

>  <energy>  (51) 
-8.02

>  <cluster_rmsd>  (51) 
0.0

>  <cluster>  (51) 
1

$$$$

     RDKit          3D

 55 57  0  0  0  0  0  0  0  0999 V2000
  142.1760   79.0480  218.5290 C   0  0  0  0  0  0  0  0  0  0  0  0
  141.3240   78.2410  219.3310 N   0  0  0  0  0  0  0  0  0  0  0  0
  142.0520   77.2180  220.0310 C   0  0  0  0  0  0  0  0  0  0  0  0
  141.2370   75.9420  220.1070 C   0  0  0  0  0  0  0  0  0  0  0  0
  141.4320   75.4450  221.5500 C   0  0  0  0  0  0  0  0  0  0  0  0
  140.1080   75.2390  222.0870 N   0  0  0  0  0  0  0  0  0  0  0  0
  139.4510   74.2030  221.7350 C   0  0  0  0  0  0  0  0  0  0  0  0
  138.0670   74.2290  221.9430 O   0  0  0  0  0  0  0  0  0  0  0  0
  140.0080   72.9780  221.1300 C   0  0  0  0  0  0  0  0  0  0  0  0
  140.1880   72.0240  222.2380 N   0  0  0  0  0  0  0  0  0  0  0  0
  139.0660   71.4450  222.9040 C   0  0  0  0  0  0  0  0  0  0  0  0
  137.8820   71.7040  222.5950 O   0  0  0  0  0  0  0  0  0  0  0  0
  139.3060   70.4970  224.0040 C   0  0  0  0  0  0  0  0  0  0  0  0
  138.9090   69.1870  223.9480 C   0  0  0  0  0  0  0  0  0  0  0  0
  139.1570   68.3190  225.0170 C   0  0  0  0  0  0  0  0  0  0  0  0
  139.8150   68.7910  226.1490 C   0  0  0  0  0  0  0  0  0  0  0  0
  140.0840   67.9650  227.2340 C   0  0  0  0  0  0  0  0  0  0  0  0
  140.7510   68.5370  228.3240 C   0  0  0  0  0  0  0  0  0  0  0  0
  141.0460   67.7920  229.4160 F   0  0  0  0  0  0  0  0  0  0  0  0
  141.1320   69.8600  228.3370 C   0  0  0  0  0  0  0  0  0  0  0  0
  140.8520   70.6550  227.2460 C   0  0  0  0  0  0  0  0  0  0  0  0
  140.1960   70.0970  226.1720 C   0  0  0  0  0  0  0  0  0  0  0  0
  139.9420   70.9060  225.1280 N   0  0  0  0  0  0  0  0  0  0  0  0
  140.4580   78.9290  220.2370 C   0  0  0  0  0  0  0  0  0  0  0  0
  141.1490   79.2370  221.5250 C   0  0  0  0  0  0  0  0  0  0  0  0
  140.8600   78.6050  222.7050 C   0  0  0  0  0  0  0  0  0  0  0  0
  141.5510   78.9520  223.8640 C   0  0  0  0  0  0  0  0  0  0  0  0
  142.5270   79.9310  223.8420 C   0  0  0  0  0  0  0  0  0  0  0  0
  142.8290   80.5750  222.6610 C   0  0  0  0  0  0  0  0  0  0  0  0
  142.1360   80.2230  221.5190 C   0  0  0  0  0  0  0  0  0  0  0  0
  142.8206   79.6586  219.1784 H   0  0  0  0  0  0  0  0  0  0  0  0
  142.8010   78.4029  217.8940 H   0  0  0  0  0  0  0  0  0  0  0  0
  141.5657   79.7070  217.8940 H   0  0  0  0  0  0  0  0  0  0  0  0
  142.9930   77.0151  219.4987 H   0  0  0  0  0  0  0  0  0  0  0  0
  142.2613   77.5671  221.0529 H   0  0  0  0  0  0  0  0  0  0  0  0
  140.1749   76.1466  219.9065 H   0  0  0  0  0  0  0  0  0  0  0  0
  141.5550   75.1978  219.3620 H   0  0  0  0  0  0  0  0  0  0  0  0
  141.9968   74.5011  221.5552 H   0  0  0  0  0  0  0  0  0  0  0  0
  141.9999   76.1706  222.1507 H   0  0  0  0  0  0  0  0  0  0  0  0
  137.6640   73.8420  222.7790 H   0  0  0  0  0  0  0  0  0  0  0  0
  139.3112   72.5695  220.3833 H   0  0  0  0  0  0  0  0  0  0  0  0
  140.9580   73.1796  220.6134 H   0  0  0  0  0  0  0  0  0  0  0  0
  141.1280   71.7370  222.5770 H   0  0  0  0  0  0  0  0  0  0  0  0
  138.3897   68.8136  223.0531 H   0  0  0  0  0  0  0  0  0  0  0  0
  138.8336   67.2690  224.9630 H   0  0  0  0  0  0  0  0  0  0  0  0
  139.7854   66.9063  227.2362 H   0  0  0  0  0  0  0  0  0  0  0  0
  141.6548   70.2787  229.2096 H   0  0  0  0  0  0  0  0  0  0  0  0
  141.1471   71.7146  227.2339 H   0  0  0  0  0  0  0  0  0  0  0  0
  140.1300   79.8708  219.7729 H   0  0  0  0  0  0  0  0  0  0  0  0
  139.5971   78.2793  220.4532 H   0  0  0  0  0  0  0  0  0  0  0  0
  140.0845   77.8256  222.7377 H   0  0  0  0  0  0  0  0  0  0  0  0
  141.3169   78.4402  224.8091 H   0  0  0  0  0  0  0  0  0  0  0  0
  143.0620   80.1958  224.7659 H   0  0  0  0  0  0  0  0  0  0  0  0
  143.6058   81.3531  222.6287 H   0  0  0  0  0  0  0  0  0  0  0  0
  142.3699   80.7365  220.5748 H   0  0  0  0  0  0  0  0  0  0  0  0
  1  2  1  0
  2  3  1  0
  3  4  1  0
  4  5  1  0
  5  6  1  0
  6  7  2  0
  7  8  1  0
  7  9  1  0
  9 10  1  0
 10 11  1  0
 11 12  2  0
 11 13  1  0
 13 14  2  0
 14 15  1  0
 15 16  2  0
 16 17  1  0
 17 18  2  0
 18 19  1  0
 18 20  1  0
 20 21  2  0
 21 22  1  0
 22 23  2  0
  2 24  1  0
 24 25  1  0
 25 26  2  0
 26 27  1  0
 27 28  2  0
 28 29  1  0
 29 30  2  0
 23 13  1  0
 30 25  1  0
 22 16  1  0
  1 31  1  0
  1 32  1  0
  1 33  1  0
  3 34  1  0
  3 35  1  0
  4 36  1  0
  4 37  1  0
  5 38  1  0
  5 39  1  0
  8 40  1  0
  9 41  1  0
  9 42  1  0
 10 43  1  0
 14 44  1  0
 15 45  1  0
 17 46  1  0
 20 47  1  0
 21 48  1  0
 24 49  1  0
 24 50  1  0
 26 51  1  0
 27 52  1  0
 28 53  1  0
 29 54  1  0
 30 55  1  0
M  END
>  <smiles>  (52) 
CN(CCCN=C(O)CNC(=O)c1ccc2cc(F)ccc2n1)Cc1ccccc1

>  <score_type>  (52) 
oracle

>  <origin>  (52) 
autodockgpu

>  <m_score__min__energy>  (52) 
-8.0199999999999996

>  <m_primary>  (52) 
energy

>  <rmsd>  (52) 
1.3965171129050606

>  <m_score__min__rmsd>  (52) 
1.3965171129050606

>  <meeko>  (52) 
{"free_energy": -7.58, "intermolecular_energy": -10.86, "internal_energy": -1.91, "cluster_size": 27, "cluster_id": 1, "rank_in_cluster": 10}

>  <energy>  (52) 
-7.96

>  <cluster_rmsd>  (52) 
1.16

>  <cluster>  (52) 
1

$$$$

     RDKit          3D

 55 57  0  0  0  0  0  0  0  0999 V2000
  137.3130   77.7800  222.7230 C   0  0  0  0  0  0  0  0  0  0  0  0
  138.4390   78.4590  222.1810 N   0  0  0  0  0  0  0  0  0  0  0  0
  138.4550   78.4120  220.7450 C   0  0  0  0  0  0  0  0  0  0  0  0
  139.8810   78.4510  220.2280 C   0  0  0  0  0  0  0  0  0  0  0  0
  140.3170   76.9760  220.1900 C   0  0  0  0  0  0  0  0  0  0  0  0
  139.1830   76.2090  220.6460 N   0  0  0  0  0  0  0  0  0  0  0  0
  139.3840   75.1720  221.3620 C   0  0  0  0  0  0  0  0  0  0  0  0
  139.5230   75.3710  222.7410 O   0  0  0  0  0  0  0  0  0  0  0  0
  139.4850   73.7810  220.8790 C   0  0  0  0  0  0  0  0  0  0  0  0
  139.5380   72.9360  222.0850 N   0  0  0  0  0  0  0  0  0  0  0  0
  139.5390   71.5120  221.9890 C   0  0  0  0  0  0  0  0  0  0  0  0
  139.4970   70.9020  220.8980 O   0  0  0  0  0  0  0  0  0  0  0  0
  139.5950   70.7190  223.2280 C   0  0  0  0  0  0  0  0  0  0  0  0
  139.1300   69.4330  223.3010 C   0  0  0  0  0  0  0  0  0  0  0  0
  139.2010   68.7140  224.4990 C   0  0  0  0  0  0  0  0  0  0  0  0
  139.7500   69.3110  225.6290 C   0  0  0  0  0  0  0  0  0  0  0  0
  139.8430   68.6370  226.8410 C   0  0  0  0  0  0  0  0  0  0  0  0
  140.4120   69.3270  227.9170 C   0  0  0  0  0  0  0  0  0  0  0  0
  140.5350   68.7310  229.1270 F   0  0  0  0  0  0  0  0  0  0  0  0
  140.8670   70.6210  227.7980 C   0  0  0  0  0  0  0  0  0  0  0  0
  140.7620   71.2660  226.5840 C   0  0  0  0  0  0  0  0  0  0  0  0
  140.2020   70.5900  225.5220 C   0  0  0  0  0  0  0  0  0  0  0  0
  140.1190   71.2550  224.3560 N   0  0  0  0  0  0  0  0  0  0  0  0
  138.6520   79.8000  222.6270 C   0  0  0  0  0  0  0  0  0  0  0  0
  140.0690   80.0170  223.0470 C   0  0  0  0  0  0  0  0  0  0  0  0
  140.6680   81.2490  223.0690 C   0  0  0  0  0  0  0  0  0  0  0  0
  141.9950   81.3660  223.4750 C   0  0  0  0  0  0  0  0  0  0  0  0
  142.7220   80.2540  223.8570 C   0  0  0  0  0  0  0  0  0  0  0  0
  142.1320   79.0080  223.8410 C   0  0  0  0  0  0  0  0  0  0  0  0
  140.8150   78.9040  223.4360 C   0  0  0  0  0  0  0  0  0  0  0  0
  137.3612   77.8090  223.8216 H   0  0  0  0  0  0  0  0  0  0  0  0
  136.3897   78.2720  222.3833 H   0  0  0  0  0  0  0  0  0  0  0  0
  137.3173   76.7338  222.3833 H   0  0  0  0  0  0  0  0  0  0  0  0
  137.9730   77.4825  220.4078 H   0  0  0  0  0  0  0  0  0  0  0  0
  137.9109   79.2846  220.3544 H   0  0  0  0  0  0  0  0  0  0  0  0
  139.9178   78.8934  219.2216 H   0  0  0  0  0  0  0  0  0  0  0  0
  140.5387   79.0656  220.8603 H   0  0  0  0  0  0  0  0  0  0  0  0
  140.5869   76.6845  219.1643 H   0  0  0  0  0  0  0  0  0  0  0  0
  141.1992   76.8024  220.8237 H   0  0  0  0  0  0  0  0  0  0  0  0
  138.8740   74.9580  223.3890 H   0  0  0  0  0  0  0  0  0  0  0  0
  138.6062   73.5231  220.2697 H   0  0  0  0  0  0  0  0  0  0  0  0
  140.3734   73.6372  220.2465 H   0  0  0  0  0  0  0  0  0  0  0  0
  139.5770   73.3380  223.0430 H   0  0  0  0  0  0  0  0  0  0  0  0
  138.6959   68.9601  222.4078 H   0  0  0  0  0  0  0  0  0  0  0  0
  138.8245   67.6816  224.5471 H   0  0  0  0  0  0  0  0  0  0  0  0
  139.4838   67.6030  226.9499 H   0  0  0  0  0  0  0  0  0  0  0  0
  141.3102   71.1354  228.6634 H   0  0  0  0  0  0  0  0  0  0  0  0
  141.1183   72.2999  226.4656 H   0  0  0  0  0  0  0  0  0  0  0  0
  138.4121   80.4923  221.8065 H   0  0  0  0  0  0  0  0  0  0  0  0
  138.0020   79.9830  223.4954 H   0  0  0  0  0  0  0  0  0  0  0  0
  140.1026   82.1429  222.7669 H   0  0  0  0  0  0  0  0  0  0  0  0
  142.4714   82.3573  223.4920 H   0  0  0  0  0  0  0  0  0  0  0  0
  143.7699   80.3631  224.1733 H   0  0  0  0  0  0  0  0  0  0  0  0
  142.6981   78.1150  224.1444 H   0  0  0  0  0  0  0  0  0  0  0  0
  140.3396   77.9122  223.4198 H   0  0  0  0  0  0  0  0  0  0  0  0
  1  2  1  0
  2  3  1  0
  3  4  1  0
  4  5  1  0
  5  6  1  0
  6  7  2  0
  7  8  1  0
  7  9  1  0
  9 10  1  0
 10 11  1  0
 11 12  2  0
 11 13  1  0
 13 14  2  0
 14 15  1  0
 15 16  2  0
 16 17  1  0
 17 18  2  0
 18 19  1  0
 18 20  1  0
 20 21  2  0
 21 22  1  0
 22 23  2  0
  2 24  1  0
 24 25  1  0
 25 26  2  0
 26 27  1  0
 27 28  2  0
 28 29  1  0
 29 30  2  0
 23 13  1  0
 30 25  1  0
 22 16  1  0
  1 31  1  0
  1 32  1  0
  1 33  1  0
  3 34  1  0
  3 35  1  0
  4 36  1  0
  4 37  1  0
  5 38  1  0
  5 39  1  0
  8 40  1  0
  9 41  1  0
  9 42  1  0
 10 43  1  0
 14 44  1  0
 15 45  1  0
 17 46  1  0
 20 47  1  0
 21 48  1  0
 24 49  1  0
 24 50  1  0
 26 51  1  0
 27 52  1  0
 28 53  1  0
 29 54  1  0
 30 55  1  0
M  END
>  <smiles>  (53) 
CN(CCCN=C(O)CNC(=O)c1ccc2cc(F)ccc2n1)Cc1ccccc1

>  <score_type>  (53) 
oracle

>  <origin>  (53) 
autodockgpu

>  <m_score__min__energy>  (53) 
-8.0199999999999996

>  <m_primary>  (53) 
energy

>  <rmsd>  (53) 
0.7898954313199859

>  <m_score__min__rmsd>  (53) 
0.7898954313199859

>  <meeko>  (53) 
{"free_energy": -7.24, "intermolecular_energy": -10.52, "internal_energy": -2.17, "cluster_size": 27, "cluster_id": 1, "rank_in_cluster": 21}

>  <energy>  (53) 
-7.74

>  <cluster_rmsd>  (53) 
1.21

>  <cluster>  (53) 
1

$$$$

     RDKit          3D

 55 57  0  0  0  0  0  0  0  0999 V2000
  140.5190   77.5640  218.5950 C   0  0  0  0  0  0  0  0  0  0  0  0
  141.3740   77.8350  219.6980 N   0  0  0  0  0  0  0  0  0  0  0  0
  142.6280   77.1410  219.5910 C   0  0  0  0  0  0  0  0  0  0  0  0
  142.4180   75.6430  219.7100 C   0  0  0  0  0  0  0  0  0  0  0  0
  141.5820   75.4720  220.9910 C   0  0  0  0  0  0  0  0  0  0  0  0
  140.4040   74.7330  220.6060 N   0  0  0  0  0  0  0  0  0  0  0  0
  139.5970   74.3380  221.5130 C   0  0  0  0  0  0  0  0  0  0  0  0
  139.5760   75.0700  222.7060 O   0  0  0  0  0  0  0  0  0  0  0  0
  138.6830   73.1820  221.4260 C   0  0  0  0  0  0  0  0  0  0  0  0
  138.9960   72.3310  222.5880 N   0  0  0  0  0  0  0  0  0  0  0  0
  138.8290   70.9140  222.5310 C   0  0  0  0  0  0  0  0  0  0  0  0
  138.4150   70.3160  221.5130 O   0  0  0  0  0  0  0  0  0  0  0  0
  139.1580   70.1140  223.7220 C   0  0  0  0  0  0  0  0  0  0  0  0
  138.8820   68.7760  223.8100 C   0  0  0  0  0  0  0  0  0  0  0  0
  139.2120   68.0520  224.9610 C   0  0  0  0  0  0  0  0  0  0  0  0
  139.8270   68.6990  226.0290 C   0  0  0  0  0  0  0  0  0  0  0  0
  140.1740   68.0220  227.1920 C   0  0  0  0  0  0  0  0  0  0  0  0
  140.7890   68.7640  228.2070 C   0  0  0  0  0  0  0  0  0  0  0  0
  141.1550   68.1690  229.3670 F   0  0  0  0  0  0  0  0  0  0  0  0
  141.0480   70.1100  228.0740 C   0  0  0  0  0  0  0  0  0  0  0  0
  140.6930   70.7560  226.9100 C   0  0  0  0  0  0  0  0  0  0  0  0
  140.0870   70.0290  225.9080 C   0  0  0  0  0  0  0  0  0  0  0  0
  139.7580   70.6970  224.7880 N   0  0  0  0  0  0  0  0  0  0  0  0
  141.6050   79.2120  220.0040 C   0  0  0  0  0  0  0  0  0  0  0  0
  141.8250   79.4180  221.4670 C   0  0  0  0  0  0  0  0  0  0  0  0
  142.5010   80.4910  221.9830 C   0  0  0  0  0  0  0  0  0  0  0  0
  142.6630   80.6090  223.3620 C   0  0  0  0  0  0  0  0  0  0  0  0
  142.1500   79.6550  224.2210 C   0  0  0  0  0  0  0  0  0  0  0  0
  141.4670   78.5700  223.7150 C   0  0  0  0  0  0  0  0  0  0  0  0
  141.3140   78.4640  222.3470 C   0  0  0  0  0  0  0  0  0  0  0  0
  139.5314   77.2510  218.9648 H   0  0  0  0  0  0  0  0  0  0  0  0
  140.4106   78.4718  217.9834 H   0  0  0  0  0  0  0  0  0  0  0  0
  140.9534   76.7595  217.9834 H   0  0  0  0  0  0  0  0  0  0  0  0
  143.0844   77.3662  218.6158 H   0  0  0  0  0  0  0  0  0  0  0  0
  143.2892   77.4734  220.4049 H   0  0  0  0  0  0  0  0  0  0  0  0
  141.8738   75.2560  218.8359 H   0  0  0  0  0  0  0  0  0  0  0  0
  143.3676   75.0895  219.7531 H   0  0  0  0  0  0  0  0  0  0  0  0
  142.1527   74.9132  221.7473 H   0  0  0  0  0  0  0  0  0  0  0  0
  141.3191   76.4451  221.4315 H   0  0  0  0  0  0  0  0  0  0  0  0
  138.8680   74.9020  223.4010 H   0  0  0  0  0  0  0  0  0  0  0  0
  137.6364   73.5178  221.4685 H   0  0  0  0  0  0  0  0  0  0  0  0
  138.8112   72.6362  220.4796 H   0  0  0  0  0  0  0  0  0  0  0  0
  139.3460   72.7220  223.4850 H   0  0  0  0  0  0  0  0  0  0  0  0
  138.3954   68.2644  222.9665 H   0  0  0  0  0  0  0  0  0  0  0  0
  138.9866   66.9771  225.0215 H   0  0  0  0  0  0  0  0  0  0  0  0
  139.9735   66.9469  227.3100 H   0  0  0  0  0  0  0  0  0  0  0  0
  141.5342   70.6646  228.8901 H   0  0  0  0  0  0  0  0  0  0  0  0
  140.8893   71.8308  226.7828 H   0  0  0  0  0  0  0  0  0  0  0  0
  142.4953   79.5553  219.4568 H   0  0  0  0  0  0  0  0  0  0  0  0
  140.7158   79.7861  219.7044 H   0  0  0  0  0  0  0  0  0  0  0  0
  142.9149   81.2574  221.3112 H   0  0  0  0  0  0  0  0  0  0  0  0
  143.2063   81.4728  223.7726 H   0  0  0  0  0  0  0  0  0  0  0  0
  142.2868   79.7617  225.3072 H   0  0  0  0  0  0  0  0  0  0  0  0
  141.0524   77.8044  224.3872 H   0  0  0  0  0  0  0  0  0  0  0  0
  140.7715   77.5991  221.9377 H   0  0  0  0  0  0  0  0  0  0  0  0
  1  2  1  0
  2  3  1  0
  3  4  1  0
  4  5  1  0
  5  6  1  0
  6  7  2  0
  7  8  1  0
  7  9  1  0
  9 10  1  0
 10 11  1  0
 11 12  2  0
 11 13  1  0
 13 14  2  0
 14 15  1  0
 15 16  2  0
 16 17  1  0
 17 18  2  0
 18 19  1  0
 18 20  1  0
 20 21  2  0
 21 22  1  0
 22 23  2  0
  2 24  1  0
 24 25  1  0
 25 26  2  0
 26 27  1  0
 27 28  2  0
 28 29  1  0
 29 30  2  0
 23 13  1  0
 30 25  1  0
 22 16  1  0
  1 31  1  0
  1 32  1  0
  1 33  1  0
  3 34  1  0
  3 35  1  0
  4 36  1  0
  4 37  1  0
  5 38  1  0
  5 39  1  0
  8 40  1  0
  9 41  1  0
  9 42  1  0
 10 43  1  0
 14 44  1  0
 15 45  1  0
 17 46  1  0
 20 47  1  0
 21 48  1  0
 24 49  1  0
 24 50  1  0
 26 51  1  0
 27 52  1  0
 28 53  1  0
 29 54  1  0
 30 55  1  0
M  END
>  <smiles>  (54) 
CN(CCCN=C(O)CNC(=O)c1ccc2cc(F)ccc2n1)Cc1ccccc1

>  <score_type>  (54) 
oracle

>  <origin>  (54) 
autodockgpu

>  <m_score__min__energy>  (54) 
-8.0199999999999996

>  <m_primary>  (54) 
energy

>  <rmsd>  (54) 
0.8846759264138311

>  <m_score__min__rmsd>  (54) 
0.8846759264138311

>  <meeko>  (54) 
{"free_energy": -7.7, "intermolecular_energy": -10.99, "internal_energy": -1.83, "cluster_size": 27, "cluster_id": 1, "rank_in_cluster": 5}

>  <energy>  (54) 
-7.72

>  <cluster_rmsd>  (54) 
0.5

>  <cluster>  (54) 
1

$$$$

     RDKit          3D

 55 57  0  0  0  0  0  0  0  0999 V2000
  140.2320   78.0610  218.6350 C   0  0  0  0  0  0  0  0  0  0  0  0
  141.2620   78.7340  219.3450 N   0  0  0  0  0  0  0  0  0  0  0  0
  142.5070   78.7230  218.6260 C   0  0  0  0  0  0  0  0  0  0  0  0
  142.3350   78.0560  217.2750 C   0  0  0  0  0  0  0  0  0  0  0  0
  143.0200   76.6870  217.4300 C   0  0  0  0  0  0  0  0  0  0  0  0
  143.3210   76.5450  218.8350 N   0  0  0  0  0  0  0  0  0  0  0  0
  143.3950   75.3740  219.3370 C   0  0  0  0  0  0  0  0  0  0  0  0
  144.3410   74.5050  218.7810 O   0  0  0  0  0  0  0  0  0  0  0  0
  142.5800   74.8460  220.4480 C   0  0  0  0  0  0  0  0  0  0  0  0
  141.5630   75.8740  220.7300 N   0  0  0  0  0  0  0  0  0  0  0  0
  140.4700   75.6100  221.6090 C   0  0  0  0  0  0  0  0  0  0  0  0
  140.3090   74.5120  222.1860 O   0  0  0  0  0  0  0  0  0  0  0  0
  139.4850   76.6760  221.8540 C   0  0  0  0  0  0  0  0  0  0  0  0
  138.2600   76.7020  221.2420 C   0  0  0  0  0  0  0  0  0  0  0  0
  137.3520   77.7340  221.5020 C   0  0  0  0  0  0  0  0  0  0  0  0
  137.6970   78.7460  222.3930 C   0  0  0  0  0  0  0  0  0  0  0  0
  136.8290   79.7910  222.6840 C   0  0  0  0  0  0  0  0  0  0  0  0
  137.2710   80.7590  223.5940 C   0  0  0  0  0  0  0  0  0  0  0  0
  136.4770   81.8050  223.9240 F   0  0  0  0  0  0  0  0  0  0  0  0
  138.5120   80.6920  224.1850 C   0  0  0  0  0  0  0  0  0  0  0  0
  139.3540   79.6440  223.8780 C   0  0  0  0  0  0  0  0  0  0  0  0
  138.9220   78.6900  222.9830 C   0  0  0  0  0  0  0  0  0  0  0  0
  139.7720   77.6840  222.7120 N   0  0  0  0  0  0  0  0  0  0  0  0
  140.9700   80.0600  219.7920 C   0  0  0  0  0  0  0  0  0  0  0  0
  141.5150   80.3090  221.1600 C   0  0  0  0  0  0  0  0  0  0  0  0
  141.3820   81.5020  221.8180 C   0  0  0  0  0  0  0  0  0  0  0  0
  141.9200   81.6530  223.0940 C   0  0  0  0  0  0  0  0  0  0  0  0
  142.5900   80.6120  223.7090 C   0  0  0  0  0  0  0  0  0  0  0  0
  142.7310   79.4050  223.0590 C   0  0  0  0  0  0  0  0  0  0  0  0
  142.1940   79.2680  221.7940 C   0  0  0  0  0  0  0  0  0  0  0  0
  139.5322   77.6038  219.3500 H   0  0  0  0  0  0  0  0  0  0  0  0
  139.6918   78.7809  218.0026 H   0  0  0  0  0  0  0  0  0  0  0  0
  140.6744   77.2772  218.0026 H   0  0  0  0  0  0  0  0  0  0  0  0
  142.8484   79.7581  218.4777 H   0  0  0  0  0  0  0  0  0  0  0  0
  143.2493   78.1584  219.2092 H   0  0  0  0  0  0  0  0  0  0  0  0
  141.2685   77.9321  217.0357 H   0  0  0  0  0  0  0  0  0  0  0  0
  142.7690   78.6502  216.4574 H   0  0  0  0  0  0  0  0  0  0  0  0
  142.3448   75.8832  217.1014 H   0  0  0  0  0  0  0  0  0  0  0  0
  143.9304   76.6221  216.8160 H   0  0  0  0  0  0  0  0  0  0  0  0
  145.1200   74.8590  218.2520 H   0  0  0  0  0  0  0  0  0  0  0  0
  142.0979   73.9022  220.1534 H   0  0  0  0  0  0  0  0  0  0  0  0
  143.1960   74.6348  221.3346 H   0  0  0  0  0  0  0  0  0  0  0  0
  141.5990   76.8220  220.3040 H   0  0  0  0  0  0  0  0  0  0  0  0
  137.9869   75.9022  220.5379 H   0  0  0  0  0  0  0  0  0  0  0  0
  136.3708   77.7456  221.0050 H   0  0  0  0  0  0  0  0  0  0  0  0
  135.8345   79.8553  222.2183 H   0  0  0  0  0  0  0  0  0  0  0  0
  138.8298   81.4683  224.8966 H   0  0  0  0  0  0  0  0  0  0  0  0
  140.3504   79.5712  224.3384 H   0  0  0  0  0  0  0  0  0  0  0  0
  141.4188   80.7801  219.0920 H   0  0  0  0  0  0  0  0  0  0  0  0
  139.8771   80.1788  219.8291 H   0  0  0  0  0  0  0  0  0  0  0  0
  140.8518   82.3391  221.3404 H   0  0  0  0  0  0  0  0  0  0  0  0
  141.8102   82.6133  223.6191 H   0  0  0  0  0  0  0  0  0  0  0  0
  143.0103   80.7469  224.7165 H   0  0  0  0  0  0  0  0  0  0  0  0
  143.2603   78.5680  223.5378 H   0  0  0  0  0  0  0  0  0  0  0  0
  142.3052   78.3075  221.2696 H   0  0  0  0  0  0  0  0  0  0  0  0
  1  2  1  0
  2  3  1  0
  3  4  1  0
  4  5  1  0
  5  6  1  0
  6  7  2  0
  7  8  1  0
  7  9  1  0
  9 10  1  0
 10 11  1  0
 11 12  2  0
 11 13  1  0
 13 14  2  0
 14 15  1  0
 15 16  2  0
 16 17  1  0
 17 18  2  0
 18 19  1  0
 18 20  1  0
 20 21  2  0
 21 22  1  0
 22 23  2  0
  2 24  1  0
 24 25  1  0
 25 26  2  0
 26 27  1  0
 27 28  2  0
 28 29  1  0
 29 30  2  0
 23 13  1  0
 30 25  1  0
 22 16  1  0
  1 31  1  0
  1 32  1  0
  1 33  1  0
  3 34  1  0
  3 35  1  0
  4 36  1  0
  4 37  1  0
  5 38  1  0
  5 39  1  0
  8 40  1  0
  9 41  1  0
  9 42  1  0
 10 43  1  0
 14 44  1  0
 15 45  1  0
 17 46  1  0
 20 47  1  0
 21 48  1  0
 24 49  1  0
 24 50  1  0
 26 51  1  0
 27 52  1  0
 28 53  1  0
 29 54  1  0
 30 55  1  0
M  END
>  <smiles>  (55) 
CN(CCCN=C(O)CNC(=O)c1ccc2cc(F)ccc2n1)Cc1ccccc1

>  <score_type>  (55) 
oracle

>  <origin>  (55) 
autodockgpu

>  <m_score__min__energy>  (55) 
-8.0199999999999996

>  <m_primary>  (55) 
energy

>  <rmsd>  (55) 
8.868402085506439

>  <m_score__min__rmsd>  (55) 
8.868402085506439

>  <meeko>  (55) 
{"free_energy": -5.51, "intermolecular_energy": -8.79, "internal_energy": -4.13, "cluster_size": 1, "cluster_id": 9, "rank_in_cluster": 1}

>  <energy>  (55) 
-7.7

>  <cluster_rmsd>  (55) 
1.01

>  <cluster>  (55) 
1

$$$$

     RDKit          3D

 55 57  0  0  0  0  0  0  0  0999 V2000
  141.4190   76.7380  220.9630 C   0  0  0  0  0  0  0  0  0  0  0  0
  140.7300   77.9500  220.6870 N   0  0  0  0  0  0  0  0  0  0  0  0
  139.7750   78.2720  221.7120 C   0  0  0  0  0  0  0  0  0  0  0  0
  139.6230   77.1130  222.6790 C   0  0  0  0  0  0  0  0  0  0  0  0
  138.1160   76.8020  222.6740 C   0  0  0  0  0  0  0  0  0  0  0  0
  137.9770   75.4980  222.0730 N   0  0  0  0  0  0  0  0  0  0  0  0
  138.6040   75.2450  220.9900 C   0  0  0  0  0  0  0  0  0  0  0  0
  138.4380   76.1500  219.9350 O   0  0  0  0  0  0  0  0  0  0  0  0
  139.4870   74.0890  220.7400 C   0  0  0  0  0  0  0  0  0  0  0  0
  139.3640   73.2210  221.9250 N   0  0  0  0  0  0  0  0  0  0  0  0
  140.0700   71.9830  222.0100 C   0  0  0  0  0  0  0  0  0  0  0  0
  140.8230   71.5640  221.1030 O   0  0  0  0  0  0  0  0  0  0  0  0
  139.9090   71.1580  223.2180 C   0  0  0  0  0  0  0  0  0  0  0  0
  139.2960   69.9340  223.1980 C   0  0  0  0  0  0  0  0  0  0  0  0
  139.1630   69.1820  224.3700 C   0  0  0  0  0  0  0  0  0  0  0  0
  139.6600   69.6820  225.5700 C   0  0  0  0  0  0  0  0  0  0  0  0
  139.5530   68.9710  226.7590 C   0  0  0  0  0  0  0  0  0  0  0  0
  140.0850   69.5620  227.9100 C   0  0  0  0  0  0  0  0  0  0  0  0
  140.0160   68.9260  229.1040 F   0  0  0  0  0  0  0  0  0  0  0  0
  140.6940   70.7970  227.8840 C   0  0  0  0  0  0  0  0  0  0  0  0
  140.7860   71.4800  226.6900 C   0  0  0  0  0  0  0  0  0  0  0  0
  140.2630   70.9020  225.5540 C   0  0  0  0  0  0  0  0  0  0  0  0
  140.3750   71.6010  224.4110 N   0  0  0  0  0  0  0  0  0  0  0  0
  141.5370   79.0930  220.3970 C   0  0  0  0  0  0  0  0  0  0  0  0
  141.8110   79.8960  221.6260 C   0  0  0  0  0  0  0  0  0  0  0  0
  142.5580   79.4350  222.6770 C   0  0  0  0  0  0  0  0  0  0  0  0
  142.7660   80.2480  223.7890 C   0  0  0  0  0  0  0  0  0  0  0  0
  142.2260   81.5200  223.8490 C   0  0  0  0  0  0  0  0  0  0  0  0
  141.4720   81.9970  222.7980 C   0  0  0  0  0  0  0  0  0  0  0  0
  141.2730   81.1810  221.7020 C   0  0  0  0  0  0  0  0  0  0  0  0
  141.4972   76.6004  222.0516 H   0  0  0  0  0  0  0  0  0  0  0  0
  140.8657   75.8939  220.5255 H   0  0  0  0  0  0  0  0  0  0  0  0
  142.4273   76.7816  220.5255 H   0  0  0  0  0  0  0  0  0  0  0  0
  140.1200   79.1598  222.2623 H   0  0  0  0  0  0  0  0  0  0  0  0
  138.8014   78.4726  221.2410 H   0  0  0  0  0  0  0  0  0  0  0  0
  140.2008   76.2421  222.3360 H   0  0  0  0  0  0  0  0  0  0  0  0
  139.9966   77.3557  223.6847 H   0  0  0  0  0  0  0  0  0  0  0  0
  137.7252   76.7918  223.7022 H   0  0  0  0  0  0  0  0  0  0  0  0
  137.5511   77.5632  222.1159 H   0  0  0  0  0  0  0  0  0  0  0  0
  139.1410   76.8400  219.7330 H   0  0  0  0  0  0  0  0  0  0  0  0
  139.1652   73.5504  219.8365 H   0  0  0  0  0  0  0  0  0  0  0  0
  140.5282   74.4046  220.5777 H   0  0  0  0  0  0  0  0  0  0  0  0
  138.7650   73.4720  222.7370 H   0  0  0  0  0  0  0  0  0  0  0  0
  138.9038   69.5375  222.2499 H   0  0  0  0  0  0  0  0  0  0  0  0
  138.6679   68.2001  224.3433 H   0  0  0  0  0  0  0  0  0  0  0  0
  139.0696   67.9835  226.7938 H   0  0  0  0  0  0  0  0  0  0  0  0
  141.1030   71.2341  228.8069 H   0  0  0  0  0  0  0  0  0  0  0  0
  141.2679   72.4678  226.6452 H   0  0  0  0  0  0  0  0  0  0  0  0
  142.4930   78.7563  219.9696 H   0  0  0  0  0  0  0  0  0  0  0  0
  140.9914   79.7287  219.6841 H   0  0  0  0  0  0  0  0  0  0  0  0
  142.9928   78.4251  222.6433 H   0  0  0  0  0  0  0  0  0  0  0  0
  143.3676   79.8735  224.6303 H   0  0  0  0  0  0  0  0  0  0  0  0
  142.3979   82.1501  224.7341 H   0  0  0  0  0  0  0  0  0  0  0  0
  141.0378   83.0071  222.8318 H   0  0  0  0  0  0  0  0  0  0  0  0
  140.6707   81.5563  220.8615 H   0  0  0  0  0  0  0  0  0  0  0  0
  1  2  1  0
  2  3  1  0
  3  4  1  0
  4  5  1  0
  5  6  1  0
  6  7  2  0
  7  8  1  0
  7  9  1  0
  9 10  1  0
 10 11  1  0
 11 12  2  0
 11 13  1  0
 13 14  2  0
 14 15  1  0
 15 16  2  0
 16 17  1  0
 17 18  2  0
 18 19  1  0
 18 20  1  0
 20 21  2  0
 21 22  1  0
 22 23  2  0
  2 24  1  0
 24 25  1  0
 25 26  2  0
 26 27  1  0
 27 28  2  0
 28 29  1  0
 29 30  2  0
 23 13  1  0
 30 25  1  0
 22 16  1  0
  1 31  1  0
  1 32  1  0
  1 33  1  0
  3 34  1  0
  3 35  1  0
  4 36  1  0
  4 37  1  0
  5 38  1  0
  5 39  1  0
  8 40  1  0
  9 41  1  0
  9 42  1  0
 10 43  1  0
 14 44  1  0
 15 45  1  0
 17 46  1  0
 20 47  1  0
 21 48  1  0
 24 49  1  0
 24 50  1  0
 26 51  1  0
 27 52  1  0
 28 53  1  0
 29 54  1  0
 30 55  1  0
M  END
>  <smiles>  (56) 
CN(CCCN=C(O)CNC(=O)c1ccc2cc(F)ccc2n1)Cc1ccccc1

>  <score_type>  (56) 
oracle

>  <origin>  (56) 
autodockgpu

>  <m_score__min__energy>  (56) 
-8.0199999999999996

>  <m_primary>  (56) 
energy

>  <rmsd>  (56) 
1.0548414623850815

>  <m_score__min__rmsd>  (56) 
1.0548414623850815

>  <meeko>  (56) 
{"free_energy": -6.87, "intermolecular_energy": -10.15, "internal_energy": -2.39, "cluster_size": 27, "cluster_id": 1, "rank_in_cluster": 27}

>  <energy>  (56) 
-7.7

>  <cluster_rmsd>  (56) 
1.35

>  <cluster>  (56) 
1

$$$$

     RDKit          3D

 55 57  0  0  0  0  0  0  0  0999 V2000
  142.7610   75.6890  217.7470 C   0  0  0  0  0  0  0  0  0  0  0  0
  143.1430   76.1250  219.0450 N   0  0  0  0  0  0  0  0  0  0  0  0
  142.5590   77.3950  219.3800 C   0  0  0  0  0  0  0  0  0  0  0  0
  141.5100   77.2280  220.4630 C   0  0  0  0  0  0  0  0  0  0  0  0
  140.1860   77.0680  219.6960 C   0  0  0  0  0  0  0  0  0  0  0  0
  139.2000   76.6760  220.6730 N   0  0  0  0  0  0  0  0  0  0  0  0
  139.4300   75.6610  221.4120 C   0  0  0  0  0  0  0  0  0  0  0  0
  139.1870   75.8050  222.7830 O   0  0  0  0  0  0  0  0  0  0  0  0
  139.9270   74.3460  220.9610 C   0  0  0  0  0  0  0  0  0  0  0  0
  139.7310   73.4280  222.0970 N   0  0  0  0  0  0  0  0  0  0  0  0
  140.4510   72.1980  222.1850 C   0  0  0  0  0  0  0  0  0  0  0  0
  141.2780   71.8280  221.3230 O   0  0  0  0  0  0  0  0  0  0  0  0
  140.2140   71.3210  223.3430 C   0  0  0  0  0  0  0  0  0  0  0  0
  139.5700   70.1170  223.2370 C   0  0  0  0  0  0  0  0  0  0  0  0
  139.3660   69.3140  224.3640 C   0  0  0  0  0  0  0  0  0  0  0  0
  139.8220   69.7420  225.6070 C   0  0  0  0  0  0  0  0  0  0  0  0
  139.6430   68.9770  226.7540 C   0  0  0  0  0  0  0  0  0  0  0  0
  140.1380   69.4970  227.9550 C   0  0  0  0  0  0  0  0  0  0  0  0
  139.9990   68.8070  229.1120 F   0  0  0  0  0  0  0  0  0  0  0  0
  140.7800   70.7140  228.0150 C   0  0  0  0  0  0  0  0  0  0  0  0
  140.9440   71.4510  226.8620 C   0  0  0  0  0  0  0  0  0  0  0  0
  140.4570   70.9430  225.6780 C   0  0  0  0  0  0  0  0  0  0  0  0
  140.6380   71.6920  224.5750 N   0  0  0  0  0  0  0  0  0  0  0  0
  142.9430   75.1990  220.1150 C   0  0  0  0  0  0  0  0  0  0  0  0
  144.0150   74.1600  220.1480 C   0  0  0  0  0  0  0  0  0  0  0  0
  143.8550   72.8950  219.6470 C   0  0  0  0  0  0  0  0  0  0  0  0
  144.9060   71.9840  219.7170 C   0  0  0  0  0  0  0  0  0  0  0  0
  146.1150   72.3380  220.2880 C   0  0  0  0  0  0  0  0  0  0  0  0
  146.2910   73.6070  220.7960 C   0  0  0  0  0  0  0  0  0  0  0  0
  145.2410   74.5010  220.7210 C   0  0  0  0  0  0  0  0  0  0  0  0
  142.0384   74.8643  217.8351 H   0  0  0  0  0  0  0  0  0  0  0  0
  142.2990   76.5245  217.2007 H   0  0  0  0  0  0  0  0  0  0  0  0
  143.6500   75.3408  217.2007 H   0  0  0  0  0  0  0  0  0  0  0  0
  143.3473   78.0721  219.7408 H   0  0  0  0  0  0  0  0  0  0  0  0
  142.0805   77.8144  218.4827 H   0  0  0  0  0  0  0  0  0  0  0  0
  141.7175   76.3350  221.0708 H   0  0  0  0  0  0  0  0  0  0  0  0
  141.4893   78.0789  221.1599 H   0  0  0  0  0  0  0  0  0  0  0  0
  139.8998   78.0207  219.2264 H   0  0  0  0  0  0  0  0  0  0  0  0
  140.2751   76.3204  218.8941 H   0  0  0  0  0  0  0  0  0  0  0  0
  138.8700   75.0270  223.3350 H   0  0  0  0  0  0  0  0  0  0  0  0
  139.3555   74.0004  220.0869 H   0  0  0  0  0  0  0  0  0  0  0  0
  140.9838   74.3956  220.6600 H   0  0  0  0  0  0  0  0  0  0  0  0
  139.0680   73.6350  222.8710 H   0  0  0  0  0  0  0  0  0  0  0  0
  139.2092   69.7777  222.2548 H   0  0  0  0  0  0  0  0  0  0  0  0
  138.8475   68.3486  224.2681 H   0  0  0  0  0  0  0  0  0  0  0  0
  139.1332   68.0029  226.7188 H   0  0  0  0  0  0  0  0  0  0  0  0
  141.1587   71.0946  228.9751 H   0  0  0  0  0  0  0  0  0  0  0  0
  141.4537   72.4255  226.8868 H   0  0  0  0  0  0  0  0  0  0  0  0
  142.9480   75.7479  221.0682 H   0  0  0  0  0  0  0  0  0  0  0  0
  141.9783   74.6943  219.9584 H   0  0  0  0  0  0  0  0  0  0  0  0
  142.8987   72.5996  219.1906 H   0  0  0  0  0  0  0  0  0  0  0  0
  144.7729   70.9696  219.3129 H   0  0  0  0  0  0  0  0  0  0  0  0
  146.9356   71.6071  220.3366 H   0  0  0  0  0  0  0  0  0  0  0  0
  147.2478   73.9017  221.2517 H   0  0  0  0  0  0  0  0  0  0  0  0
  145.3754   75.5148  221.1261 H   0  0  0  0  0  0  0  0  0  0  0  0
  1  2  1  0
  2  3  1  0
  3  4  1  0
  4  5  1  0
  5  6  1  0
  6  7  2  0
  7  8  1  0
  7  9  1  0
  9 10  1  0
 10 11  1  0
 11 12  2  0
 11 13  1  0
 13 14  2  0
 14 15  1  0
 15 16  2  0
 16 17  1  0
 17 18  2  0
 18 19  1  0
 18 20  1  0
 20 21  2  0
 21 22  1  0
 22 23  2  0
  2 24  1  0
 24 25  1  0
 25 26  2  0
 26 27  1  0
 27 28  2  0
 28 29  1  0
 29 30  2  0
 23 13  1  0
 30 25  1  0
 22 16  1  0
  1 31  1  0
  1 32  1  0
  1 33  1  0
  3 34  1  0
  3 35  1  0
  4 36  1  0
  4 37  1  0
  5 38  1  0
  5 39  1  0
  8 40  1  0
  9 41  1  0
  9 42  1  0
 10 43  1  0
 14 44  1  0
 15 45  1  0
 17 46  1  0
 20 47  1  0
 21 48  1  0
 24 49  1  0
 24 50  1  0
 26 51  1  0
 27 52  1  0
 28 53  1  0
 29 54  1  0
 30 55  1  0
M  END
>  <smiles>  (57) 
CN(CCCN=C(O)CNC(=O)c1ccc2cc(F)ccc2n1)Cc1ccccc1

>  <score_type>  (57) 
oracle

>  <origin>  (57) 
autodockgpu

>  <m_score__min__energy>  (57) 
-8.0199999999999996

>  <m_primary>  (57) 
energy

>  <rmsd>  (57) 
1.2910560799038426

>  <m_score__min__rmsd>  (57) 
1.2910560799038426

>  <meeko>  (57) 
{"free_energy": -7.4, "intermolecular_energy": -10.69, "internal_energy": -2.17, "cluster_size": 3, "cluster_id": 7, "rank_in_cluster": 1}

>  <energy>  (57) 
-7.67

>  <cluster_rmsd>  (57) 
1.4

>  <cluster>  (57) 
1

$$$$

     RDKit          3D

 55 57  0  0  0  0  0  0  0  0999 V2000
  140.0000   79.0820  218.3680 C   0  0  0  0  0  0  0  0  0  0  0  0
  140.9810   78.5530  219.2510 N   0  0  0  0  0  0  0  0  0  0  0  0
  141.5620   77.3390  218.7460 C   0  0  0  0  0  0  0  0  0  0  0  0
  142.5760   76.7860  219.7290 C   0  0  0  0  0  0  0  0  0  0  0  0
  142.2100   75.2980  219.8650 C   0  0  0  0  0  0  0  0  0  0  0  0
  141.6180   75.1480  221.1730 N   0  0  0  0  0  0  0  0  0  0  0  0
  140.3730   74.8850  221.2630 C   0  0  0  0  0  0  0  0  0  0  0  0
  139.9680   74.0860  222.3390 O   0  0  0  0  0  0  0  0  0  0  0  0
  139.3140   75.3420  220.3410 C   0  0  0  0  0  0  0  0  0  0  0  0
  139.0970   76.7670  220.6460 N   0  0  0  0  0  0  0  0  0  0  0  0
  138.6970   77.1900  221.9490 C   0  0  0  0  0  0  0  0  0  0  0  0
  138.5080   76.3960  222.8960 O   0  0  0  0  0  0  0  0  0  0  0  0
  138.4970   78.6280  222.1960 C   0  0  0  0  0  0  0  0  0  0  0  0
  138.1660   79.1250  223.4280 C   0  0  0  0  0  0  0  0  0  0  0  0
  137.9850   80.4990  223.6200 C   0  0  0  0  0  0  0  0  0  0  0  0
  138.1420   81.3700  222.5470 C   0  0  0  0  0  0  0  0  0  0  0  0
  137.9730   82.7430  222.6890 C   0  0  0  0  0  0  0  0  0  0  0  0
  138.1540   83.5330  221.5490 C   0  0  0  0  0  0  0  0  0  0  0  0
  138.0060   84.8780  221.6140 F   0  0  0  0  0  0  0  0  0  0  0  0
  138.4870   82.9890  220.3280 C   0  0  0  0  0  0  0  0  0  0  0  0
  138.6480   81.6250  220.2160 C   0  0  0  0  0  0  0  0  0  0  0  0
  138.4700   80.8440  221.3360 C   0  0  0  0  0  0  0  0  0  0  0  0
  138.6380   79.5180  221.1850 N   0  0  0  0  0  0  0  0  0  0  0  0
  142.0120   79.4490  219.6710 C   0  0  0  0  0  0  0  0  0  0  0  0
  141.8880   79.7860  221.1210 C   0  0  0  0  0  0  0  0  0  0  0  0
  141.8340   81.0690  221.5940 C   0  0  0  0  0  0  0  0  0  0  0  0
  141.7170   81.2990  222.9630 C   0  0  0  0  0  0  0  0  0  0  0  0
  141.6570   80.2450  223.8560 C   0  0  0  0  0  0  0  0  0  0  0  0
  141.7100   78.9470  223.3940 C   0  0  0  0  0  0  0  0  0  0  0  0
  141.8260   78.7330  222.0350 C   0  0  0  0  0  0  0  0  0  0  0  0
  139.1802   79.5241  218.9532 H   0  0  0  0  0  0  0  0  0  0  0  0
  140.4568   79.8561  217.7339 H   0  0  0  0  0  0  0  0  0  0  0  0
  139.6042   78.2750  217.7339 H   0  0  0  0  0  0  0  0  0  0  0  0
  140.7669   76.5951  218.5893 H   0  0  0  0  0  0  0  0  0  0  0  0
  142.0706   77.5568  217.7952 H   0  0  0  0  0  0  0  0  0  0  0  0
  143.5981   76.9008  219.3389 H   0  0  0  0  0  0  0  0  0  0  0  0
  142.5520   77.3123  220.6947 H   0  0  0  0  0  0  0  0  0  0  0  0
  141.4901   75.0093  219.0850 H   0  0  0  0  0  0  0  0  0  0  0  0
  143.0948   74.6548  219.7488 H   0  0  0  0  0  0  0  0  0  0  0  0
  139.1660   74.3350  222.8920 H   0  0  0  0  0  0  0  0  0  0  0  0
  139.6374   75.2196  219.2968 H   0  0  0  0  0  0  0  0  0  0  0  0
  138.3905   74.7579  220.4670 H   0  0  0  0  0  0  0  0  0  0  0  0
  139.2260   77.5130  219.9330 H   0  0  0  0  0  0  0  0  0  0  0  0
  138.0409   78.4363  224.2765 H   0  0  0  0  0  0  0  0  0  0  0  0
  137.7200   80.8883  224.6141 H   0  0  0  0  0  0  0  0  0  0  0  0
  137.7077   83.1897  223.6586 H   0  0  0  0  0  0  0  0  0  0  0  0
  138.6232   83.6377  219.4501 H   0  0  0  0  0  0  0  0  0  0  0  0
  138.9135   81.1690  219.2508 H   0  0  0  0  0  0  0  0  0  0  0  0
  142.9896   78.9759  219.4964 H   0  0  0  0  0  0  0  0  0  0  0  0
  141.9177   80.3792  219.0915 H   0  0  0  0  0  0  0  0  0  0  0  0
  141.8829   81.9168  220.8948 H   0  0  0  0  0  0  0  0  0  0  0  0
  141.6718   82.3320  223.3383 H   0  0  0  0  0  0  0  0  0  0  0  0
  141.5670   80.4420  224.9345 H   0  0  0  0  0  0  0  0  0  0  0  0
  141.6609   78.0996  224.0936 H   0  0  0  0  0  0  0  0  0  0  0  0
  141.8710   77.6996  221.6606 H   0  0  0  0  0  0  0  0  0  0  0  0
  1  2  1  0
  2  3  1  0
  3  4  1  0
  4  5  1  0
  5  6  1  0
  6  7  2  0
  7  8  1  0
  7  9  1  0
  9 10  1  0
 10 11  1  0
 11 12  2  0
 11 13  1  0
 13 14  2  0
 14 15  1  0
 15 16  2  0
 16 17  1  0
 17 18  2  0
 18 19  1  0
 18 20  1  0
 20 21  2  0
 21 22  1  0
 22 23  2  0
  2 24  1  0
 24 25  1  0
 25 26  2  0
 26 27  1  0
 27 28  2  0
 28 29  1  0
 29 30  2  0
 23 13  1  0
 30 25  1  0
 22 16  1  0
  1 31  1  0
  1 32  1  0
  1 33  1  0
  3 34  1  0
  3 35  1  0
  4 36  1  0
  4 37  1  0
  5 38  1  0
  5 39  1  0
  8 40  1  0
  9 41  1  0
  9 42  1  0
 10 43  1  0
 14 44  1  0
 15 45  1  0
 17 46  1  0
 20 47  1  0
 21 48  1  0
 24 49  1  0
 24 50  1  0
 26 51  1  0
 27 52  1  0
 28 53  1  0
 29 54  1  0
 30 55  1  0
M  END
>  <smiles>  (58) 
CN(CCCN=C(O)CNC(=O)c1ccc2cc(F)ccc2n1)Cc1ccccc1

>  <score_type>  (58) 
oracle

>  <origin>  (58) 
autodockgpu

>  <m_score__min__energy>  (58) 
-8.0199999999999996

>  <m_primary>  (58) 
energy

>  <rmsd>  (58) 
11.001963063832278

>  <m_score__min__rmsd>  (58) 
11.001963063832278

>  <meeko>  (58) 
{"free_energy": -4.38, "intermolecular_energy": -7.66, "internal_energy": -5.08, "cluster_size": 2, "cluster_id": 10, "rank_in_cluster": 2}

>  <energy>  (58) 
-7.65

>  <cluster_rmsd>  (58) 
0.68

>  <cluster>  (58) 
1

$$$$

     RDKit          3D

 55 57  0  0  0  0  0  0  0  0999 V2000
  137.4810   77.2180  222.0110 C   0  0  0  0  0  0  0  0  0  0  0  0
  138.7740   77.7640  222.2320 N   0  0  0  0  0  0  0  0  0  0  0  0
  139.4420   78.0830  220.9990 C   0  0  0  0  0  0  0  0  0  0  0  0
  139.8660   76.8170  220.2810 C   0  0  0  0  0  0  0  0  0  0  0  0
  141.3120   76.5750  220.7490 C   0  0  0  0  0  0  0  0  0  0  0  0
  141.2260   75.6820  221.8790 N   0  0  0  0  0  0  0  0  0  0  0  0
  140.4590   74.6640  221.8060 C   0  0  0  0  0  0  0  0  0  0  0  0
  139.1880   74.7850  222.3800 O   0  0  0  0  0  0  0  0  0  0  0  0
  140.7810   73.3690  221.1750 C   0  0  0  0  0  0  0  0  0  0  0  0
  140.8040   72.3810  222.2680 N   0  0  0  0  0  0  0  0  0  0  0  0
  139.5950   71.8340  222.7940 C   0  0  0  0  0  0  0  0  0  0  0  0
  138.4620   72.1510  222.3700 O   0  0  0  0  0  0  0  0  0  0  0  0
  139.6800   70.8490  223.8850 C   0  0  0  0  0  0  0  0  0  0  0  0
  139.1950   69.5740  223.7660 C   0  0  0  0  0  0  0  0  0  0  0  0
  139.2950   68.6680  224.8280 C   0  0  0  0  0  0  0  0  0  0  0  0
  139.8940   69.0670  226.0180 C   0  0  0  0  0  0  0  0  0  0  0  0
  140.0170   68.2030  227.1000 C   0  0  0  0  0  0  0  0  0  0  0  0
  140.6350   68.7020  228.2520 C   0  0  0  0  0  0  0  0  0  0  0  0
  140.7890   67.9160  229.3440 F   0  0  0  0  0  0  0  0  0  0  0  0
  141.1080   69.9930  228.3280 C   0  0  0  0  0  0  0  0  0  0  0  0
  140.9730   70.8280  227.2400 C   0  0  0  0  0  0  0  0  0  0  0  0
  140.3650   70.3410  226.1040 C   0  0  0  0  0  0  0  0  0  0  0  0
  140.2530   71.1880  225.0640 N   0  0  0  0  0  0  0  0  0  0  0  0
  138.8560   78.8720  223.1310 C   0  0  0  0  0  0  0  0  0  0  0  0
  140.2270   79.4630  223.1490 C   0  0  0  0  0  0  0  0  0  0  0  0
  141.3510   78.7490  223.4730 C   0  0  0  0  0  0  0  0  0  0  0  0
  142.5950   79.3760  223.4660 C   0  0  0  0  0  0  0  0  0  0  0  0
  142.7140   80.7130  223.1370 C   0  0  0  0  0  0  0  0  0  0  0  0
  141.5920   81.4440  222.8080 C   0  0  0  0  0  0  0  0  0  0  0  0
  140.3650   80.8110  222.8190 C   0  0  0  0  0  0  0  0  0  0  0  0
  136.9987   77.0144  222.9784 H   0  0  0  0  0  0  0  0  0  0  0  0
  136.8722   77.9359  221.4417 H   0  0  0  0  0  0  0  0  0  0  0  0
  137.5710   76.2811  221.4417 H   0  0  0  0  0  0  0  0  0  0  0  0
  138.7575   78.6531  220.3536 H   0  0  0  0  0  0  0  0  0  0  0  0
  140.3375   78.6808  221.2242 H   0  0  0  0  0  0  0  0  0  0  0  0
  139.2191   75.9738  220.5648 H   0  0  0  0  0  0  0  0  0  0  0  0
  139.7902   76.9106  219.1876 H   0  0  0  0  0  0  0  0  0  0  0  0
  141.9015   76.1139  219.9428 H   0  0  0  0  0  0  0  0  0  0  0  0
  141.8082   77.5183  221.0208 H   0  0  0  0  0  0  0  0  0  0  0  0
  138.8050   74.0460  222.9450 H   0  0  0  0  0  0  0  0  0  0  0  0
  140.0123   73.1026  220.4347 H   0  0  0  0  0  0  0  0  0  0  0  0
  141.7441   73.4068  220.6448 H   0  0  0  0  0  0  0  0  0  0  0  0
  141.6910   72.0460  222.6950 H   0  0  0  0  0  0  0  0  0  0  0  0
  138.7213   69.2582  222.8248 H   0  0  0  0  0  0  0  0  0  0  0  0
  138.9020   67.6461  224.7221 H   0  0  0  0  0  0  0  0  0  0  0  0
  139.6438   67.1693  227.0526 H   0  0  0  0  0  0  0  0  0  0  0  0
  141.5892   70.3545  229.2487 H   0  0  0  0  0  0  0  0  0  0  0  0
  141.3435   71.8630  227.2780 H   0  0  0  0  0  0  0  0  0  0  0  0
  138.1387   79.6432  222.8138 H   0  0  0  0  0  0  0  0  0  0  0  0
  138.6225   78.5121  224.1439 H   0  0  0  0  0  0  0  0  0  0  0  0
  141.2712   77.6843  223.7377 H   0  0  0  0  0  0  0  0  0  0  0  0
  143.4948   78.7991  223.7259 H   0  0  0  0  0  0  0  0  0  0  0  0
  143.7033   81.1938  223.1376 H   0  0  0  0  0  0  0  0  0  0  0  0
  141.6728   82.5084  222.5425 H   0  0  0  0  0  0  0  0  0  0  0  0
  139.4662   81.3893  222.5588 H   0  0  0  0  0  0  0  0  0  0  0  0
  1  2  1  0
  2  3  1  0
  3  4  1  0
  4  5  1  0
  5  6  1  0
  6  7  2  0
  7  8  1  0
  7  9  1  0
  9 10  1  0
 10 11  1  0
 11 12  2  0
 11 13  1  0
 13 14  2  0
 14 15  1  0
 15 16  2  0
 16 17  1  0
 17 18  2  0
 18 19  1  0
 18 20  1  0
 20 21  2  0
 21 22  1  0
 22 23  2  0
  2 24  1  0
 24 25  1  0
 25 26  2  0
 26 27  1  0
 27 28  2  0
 28 29  1  0
 29 30  2  0
 23 13  1  0
 30 25  1  0
 22 16  1  0
  1 31  1  0
  1 32  1  0
  1 33  1  0
  3 34  1  0
  3 35  1  0
  4 36  1  0
  4 37  1  0
  5 38  1  0
  5 39  1  0
  8 40  1  0
  9 41  1  0
  9 42  1  0
 10 43  1  0
 14 44  1  0
 15 45  1  0
 17 46  1  0
 20 47  1  0
 21 48  1  0
 24 49  1  0
 24 50  1  0
 26 51  1  0
 27 52  1  0
 28 53  1  0
 29 54  1  0
 30 55  1  0
M  END
>  <smiles>  (59) 
CN(CCCN=C(O)CNC(=O)c1ccc2cc(F)ccc2n1)Cc1ccccc1

>  <score_type>  (59) 
oracle

>  <origin>  (59) 
autodockgpu

>  <m_score__min__energy>  (59) 
-8.0199999999999996

>  <m_primary>  (59) 
energy

>  <rmsd>  (59) 
1.5638785560810033

>  <m_score__min__rmsd>  (59) 
1.5638785560810033

>  <meeko>  (59) 
{"free_energy": -7.67, "intermolecular_energy": -10.95, "internal_energy": -2.1, "cluster_size": 27, "cluster_id": 1, "rank_in_cluster": 7}

>  <energy>  (59) 
-7.61

>  <cluster_rmsd>  (59) 
1.4

>  <cluster>  (59) 
1

$$$$

     RDKit          3D

 55 57  0  0  0  0  0  0  0  0999 V2000
  139.4020   72.2440  222.4780 C   0  0  0  0  0  0  0  0  0  0  0  0
  139.4550   71.2200  223.4620 N   0  0  0  0  0  0  0  0  0  0  0  0
  139.0300   69.9500  222.9400 C   0  0  0  0  0  0  0  0  0  0  0  0
  137.5990   69.6590  223.3500 C   0  0  0  0  0  0  0  0  0  0  0  0
  136.7670   69.9660  222.0930 C   0  0  0  0  0  0  0  0  0  0  0  0
  135.7610   70.9170  222.4990 N   0  0  0  0  0  0  0  0  0  0  0  0
  136.1190   72.0990  222.8210 C   0  0  0  0  0  0  0  0  0  0  0  0
  136.6880   72.2660  224.0890 O   0  0  0  0  0  0  0  0  0  0  0  0
  135.9920   73.3100  221.9860 C   0  0  0  0  0  0  0  0  0  0  0  0
  137.1520   74.1550  222.3180 N   0  0  0  0  0  0  0  0  0  0  0  0
  137.3940   75.3810  221.6290 C   0  0  0  0  0  0  0  0  0  0  0  0
  136.6510   75.8090  220.7180 O   0  0  0  0  0  0  0  0  0  0  0  0
  138.5680   76.1850  222.0050 C   0  0  0  0  0  0  0  0  0  0  0  0
  139.8470   75.7020  221.9260 C   0  0  0  0  0  0  0  0  0  0  0  0
  140.9370   76.5000  222.2930 C   0  0  0  0  0  0  0  0  0  0  0  0
  140.7190   77.7980  222.7440 C   0  0  0  0  0  0  0  0  0  0  0  0
  141.7690   78.6270  223.1190 C   0  0  0  0  0  0  0  0  0  0  0  0
  141.4430   79.9160  223.5580 C   0  0  0  0  0  0  0  0  0  0  0  0
  142.4160   80.7780  223.9390 F   0  0  0  0  0  0  0  0  0  0  0  0
  140.1410   80.3590  223.6220 C   0  0  0  0  0  0  0  0  0  0  0  0
  139.1190   79.5150  223.2440 C   0  0  0  0  0  0  0  0  0  0  0  0
  139.4360   78.2460  222.8110 C   0  0  0  0  0  0  0  0  0  0  0  0
  138.4100   77.4540  222.4500 N   0  0  0  0  0  0  0  0  0  0  0  0
  140.6910   71.0690  224.1620 C   0  0  0  0  0  0  0  0  0  0  0  0
  140.4750   70.9480  225.6350 C   0  0  0  0  0  0  0  0  0  0  0  0
  140.9180   71.8750  226.5410 C   0  0  0  0  0  0  0  0  0  0  0  0
  140.6750   71.6870  227.8990 C   0  0  0  0  0  0  0  0  0  0  0  0
  139.9900   70.5740  228.3500 C   0  0  0  0  0  0  0  0  0  0  0  0
  139.5370   69.6330  227.4500 C   0  0  0  0  0  0  0  0  0  0  0  0
  139.7850   69.8300  226.1060 C   0  0  0  0  0  0  0  0  0  0  0  0
  139.3512   73.2253  222.9724 H   0  0  0  0  0  0  0  0  0  0  0  0
  140.3038   72.1961  221.8500 H   0  0  0  0  0  0  0  0  0  0  0  0
  138.5099   72.1032  221.8500 H   0  0  0  0  0  0  0  0  0  0  0  0
  139.0951   69.9698  221.8421 H   0  0  0  0  0  0  0  0  0  0  0  0
  139.6830   69.1626  223.3445 H   0  0  0  0  0  0  0  0  0  0  0  0
  137.4855   68.6049  223.6433 H   0  0  0  0  0  0  0  0  0  0  0  0
  137.2827   70.2577  224.2169 H   0  0  0  0  0  0  0  0  0  0  0  0
  137.4060   70.3982  221.3089 H   0  0  0  0  0  0  0  0  0  0  0  0
  136.3126   69.0533  221.6801 H   0  0  0  0  0  0  0  0  0  0  0  0
  137.6860   72.2640  224.2100 H   0  0  0  0  0  0  0  0  0  0  0  0
  136.0070   73.0421  220.9192 H   0  0  0  0  0  0  0  0  0  0  0  0
  135.0438   73.8338  222.1772 H   0  0  0  0  0  0  0  0  0  0  0  0
  137.8340   73.8950  223.0590 H   0  0  0  0  0  0  0  0  0  0  0  0
  140.0198   74.6756  221.5702 H   0  0  0  0  0  0  0  0  0  0  0  0
  141.9606   76.1029  222.2252 H   0  0  0  0  0  0  0  0  0  0  0  0
  142.8134   78.2848  223.0729 H   0  0  0  0  0  0  0  0  0  0  0  0
  139.9183   81.3778  223.9718 H   0  0  0  0  0  0  0  0  0  0  0  0
  138.0714   79.8478  223.2872 H   0  0  0  0  0  0  0  0  0  0  0  0
  141.1986   70.1629  223.7996 H   0  0  0  0  0  0  0  0  0  0  0  0
  141.3045   71.9628  223.9756 H   0  0  0  0  0  0  0  0  0  0  0  0
  141.4642   72.7655  226.1966 H   0  0  0  0  0  0  0  0  0  0  0  0
  141.0328   72.4341  228.6228 H   0  0  0  0  0  0  0  0  0  0  0  0
  139.8066   70.4393  229.4262 H   0  0  0  0  0  0  0  0  0  0  0  0
  138.9894   68.7437  227.7954 H   0  0  0  0  0  0  0  0  0  0  0  0
  139.4273   69.0818  225.3834 H   0  0  0  0  0  0  0  0  0  0  0  0
  1  2  1  0
  2  3  1  0
  3  4  1  0
  4  5  1  0
  5  6  1  0
  6  7  2  0
  7  8  1  0
  7  9  1  0
  9 10  1  0
 10 11  1  0
 11 12  2  0
 11 13  1  0
 13 14  2  0
 14 15  1  0
 15 16  2  0
 16 17  1  0
 17 18  2  0
 18 19  1  0
 18 20  1  0
 20 21  2  0
 21 22  1  0
 22 23  2  0
  2 24  1  0
 24 25  1  0
 25 26  2  0
 26 27  1  0
 27 28  2  0
 28 29  1  0
 29 30  2  0
 23 13  1  0
 30 25  1  0
 22 16  1  0
  1 31  1  0
  1 32  1  0
  1 33  1  0
  3 34  1  0
  3 35  1  0
  4 36  1  0
  4 37  1  0
  5 38  1  0
  5 39  1  0
  8 40  1  0
  9 41  1  0
  9 42  1  0
 10 43  1  0
 14 44  1  0
 15 45  1  0
 17 46  1  0
 20 47  1  0
 21 48  1  0
 24 49  1  0
 24 50  1  0
 26 51  1  0
 27 52  1  0
 28 53  1  0
 29 54  1  0
 30 55  1  0
M  END
>  <smiles>  (60) 
CN(CCCN=C(O)CNC(=O)c1ccc2cc(F)ccc2n1)Cc1ccccc1

>  <score_type>  (60) 
oracle

>  <origin>  (60) 
autodockgpu

>  <m_score__min__energy>  (60) 
-8.0199999999999996

>  <m_primary>  (60) 
energy

>  <rmsd>  (60) 
8.015222679617386

>  <m_score__min__rmsd>  (60) 
8.015222679617386

>  <meeko>  (60) 
{"free_energy": -6.81, "intermolecular_energy": -10.09, "internal_energy": -2.6, "cluster_size": 4, "cluster_id": 3, "rank_in_cluster": 4}

>  <energy>  (60) 
-7.58

>  <cluster_rmsd>  (60) 
0.79

>  <cluster>  (60) 
1

$$$$

     RDKit          3D

 55 57  0  0  0  0  0  0  0  0999 V2000
  142.1240   80.1910  219.2810 C   0  0  0  0  0  0  0  0  0  0  0  0
  140.8980   79.4730  219.2590 N   0  0  0  0  0  0  0  0  0  0  0  0
  141.0480   78.1690  218.6740 C   0  0  0  0  0  0  0  0  0  0  0  0
  142.2130   77.4330  219.3090 C   0  0  0  0  0  0  0  0  0  0  0  0
  141.6200   76.0850  219.7560 C   0  0  0  0  0  0  0  0  0  0  0  0
  141.0380   76.3130  221.0560 N   0  0  0  0  0  0  0  0  0  0  0  0
  140.2650   75.4280  221.5530 C   0  0  0  0  0  0  0  0  0  0  0  0
  139.5730   75.7720  222.7200 O   0  0  0  0  0  0  0  0  0  0  0  0
  140.0280   74.0730  221.0170 C   0  0  0  0  0  0  0  0  0  0  0  0
  139.8470   73.1990  222.1890 N   0  0  0  0  0  0  0  0  0  0  0  0
  140.1940   71.8150  222.1390 C   0  0  0  0  0  0  0  0  0  0  0  0
  140.6650   71.2670  221.1180 O   0  0  0  0  0  0  0  0  0  0  0  0
  139.9930   70.9910  223.3420 C   0  0  0  0  0  0  0  0  0  0  0  0
  139.3440   69.7850  223.3080 C   0  0  0  0  0  0  0  0  0  0  0  0
  139.1740   69.0330  224.4750 C   0  0  0  0  0  0  0  0  0  0  0  0
  139.6680   69.5140  225.6840 C   0  0  0  0  0  0  0  0  0  0  0  0
  139.5240   68.8020  226.8680 C   0  0  0  0  0  0  0  0  0  0  0  0
  140.0570   69.3730  228.0290 C   0  0  0  0  0  0  0  0  0  0  0  0
  139.9530   68.7350  229.2190 F   0  0  0  0  0  0  0  0  0  0  0  0
  140.7010   70.5900  228.0160 C   0  0  0  0  0  0  0  0  0  0  0  0
  140.8300   71.2750  226.8270 C   0  0  0  0  0  0  0  0  0  0  0  0
  140.3070   70.7160  225.6820 C   0  0  0  0  0  0  0  0  0  0  0  0
  140.4540   71.4150  224.5420 N   0  0  0  0  0  0  0  0  0  0  0  0
  140.1940   79.3720  220.4990 C   0  0  0  0  0  0  0  0  0  0  0  0
  141.0030   79.9120  221.6330 C   0  0  0  0  0  0  0  0  0  0  0  0
  141.0060   81.2330  221.9940 C   0  0  0  0  0  0  0  0  0  0  0  0
  141.7900   81.6560  223.0650 C   0  0  0  0  0  0  0  0  0  0  0  0
  142.5690   80.7590  223.7730 C   0  0  0  0  0  0  0  0  0  0  0  0
  142.5750   79.4270  223.4210 C   0  0  0  0  0  0  0  0  0  0  0  0
  141.7950   79.0200  222.3570 C   0  0  0  0  0  0  0  0  0  0  0  0
  142.4265   80.3682  220.3237 H   0  0  0  0  0  0  0  0  0  0  0  0
  142.9012   79.6053  218.7682 H   0  0  0  0  0  0  0  0  0  0  0  0
  141.9934   81.1554  218.7682 H   0  0  0  0  0  0  0  0  0  0  0  0
  140.1251   77.5922  218.8336 H   0  0  0  0  0  0  0  0  0  0  0  0
  141.2428   78.2822  217.5973 H   0  0  0  0  0  0  0  0  0  0  0  0
  143.0206   77.2792  218.5781 H   0  0  0  0  0  0  0  0  0  0  0  0
  142.6554   77.9933  220.1459 H   0  0  0  0  0  0  0  0  0  0  0  0
  140.8484   75.7534  219.0456 H   0  0  0  0  0  0  0  0  0  0  0  0
  142.3904   75.3007  219.7935 H   0  0  0  0  0  0  0  0  0  0  0  0
  138.8700   75.1620  223.1020 H   0  0  0  0  0  0  0  0  0  0  0  0
  139.1247   74.0628  220.3894 H   0  0  0  0  0  0  0  0  0  0  0  0
  140.8655   73.7360  220.3884 H   0  0  0  0  0  0  0  0  0  0  0  0
  139.4630   73.5500  223.0890 H   0  0  0  0  0  0  0  0  0  0  0  0
  138.9526   69.4042  222.3531 H   0  0  0  0  0  0  0  0  0  0  0  0
  138.6520   68.0654  224.4374 H   0  0  0  0  0  0  0  0  0  0  0  0
  139.0118   67.8288  226.8920 H   0  0  0  0  0  0  0  0  0  0  0  0
  141.1089   71.0118  228.9464 H   0  0  0  0  0  0  0  0  0  0  0  0
  141.3405   72.2488  226.7932 H   0  0  0  0  0  0  0  0  0  0  0  0
  139.2564   79.9424  220.4253 H   0  0  0  0  0  0  0  0  0  0  0  0
  139.9909   78.3089  220.6952 H   0  0  0  0  0  0  0  0  0  0  0  0
  140.3913   81.9578  221.4401 H   0  0  0  0  0  0  0  0  0  0  0  0
  141.7895   82.7180  223.3515 H   0  0  0  0  0  0  0  0  0  0  0  0
  143.1830   81.1086  224.6161 H   0  0  0  0  0  0  0  0  0  0  0  0
  143.1887   78.7025  223.9764 H   0  0  0  0  0  0  0  0  0  0  0  0
  141.7980   77.9579  222.0707 H   0  0  0  0  0  0  0  0  0  0  0  0
  1  2  1  0
  2  3  1  0
  3  4  1  0
  4  5  1  0
  5  6  1  0
  6  7  2  0
  7  8  1  0
  7  9  1  0
  9 10  1  0
 10 11  1  0
 11 12  2  0
 11 13  1  0
 13 14  2  0
 14 15  1  0
 15 16  2  0
 16 17  1  0
 17 18  2  0
 18 19  1  0
 18 20  1  0
 20 21  2  0
 21 22  1  0
 22 23  2  0
  2 24  1  0
 24 25  1  0
 25 26  2  0
 26 27  1  0
 27 28  2  0
 28 29  1  0
 29 30  2  0
 23 13  1  0
 30 25  1  0
 22 16  1  0
  1 31  1  0
  1 32  1  0
  1 33  1  0
  3 34  1  0
  3 35  1  0
  4 36  1  0
  4 37  1  0
  5 38  1  0
  5 39  1  0
  8 40  1  0
  9 41  1  0
  9 42  1  0
 10 43  1  0
 14 44  1  0
 15 45  1  0
 17 46  1  0
 20 47  1  0
 21 48  1  0
 24 49  1  0
 24 50  1  0
 26 51  1  0
 27 52  1  0
 28 53  1  0
 29 54  1  0
 30 55  1  0
M  END
>  <smiles>  (61) 
CN(CCCN=C(O)CNC(=O)c1ccc2cc(F)ccc2n1)Cc1ccccc1

>  <score_type>  (61) 
oracle

>  <origin>  (61) 
autodockgpu

>  <m_score__min__energy>  (61) 
-8.0199999999999996

>  <m_primary>  (61) 
energy

>  <rmsd>  (61) 
1.1432863183187099

>  <m_score__min__rmsd>  (61) 
1.1432863183187099

>  <meeko>  (61) 
{"free_energy": -7.74, "intermolecular_energy": -11.02, "internal_energy": -1.91, "cluster_size": 27, "cluster_id": 1, "rank_in_cluster": 3}

>  <energy>  (61) 
-7.55

>  <cluster_rmsd>  (61) 
1.94

>  <cluster>  (61) 
1

$$$$

     RDKit          3D

 55 57  0  0  0  0  0  0  0  0999 V2000
  137.7090   69.2710  225.3210 C   0  0  0  0  0  0  0  0  0  0  0  0
  138.6960   68.2980  225.0110 N   0  0  0  0  0  0  0  0  0  0  0  0
  139.1930   68.4430  223.6700 C   0  0  0  0  0  0  0  0  0  0  0  0
  138.0700   68.8270  222.7260 C   0  0  0  0  0  0  0  0  0  0  0  0
  138.5630   70.1160  222.0450 C   0  0  0  0  0  0  0  0  0  0  0  0
  138.0360   71.2090  222.8240 N   0  0  0  0  0  0  0  0  0  0  0  0
  138.3670   72.4030  222.5200 C   0  0  0  0  0  0  0  0  0  0  0  0
  139.7020   72.7660  222.7340 O   0  0  0  0  0  0  0  0  0  0  0  0
  137.4790   73.4430  221.9630 C   0  0  0  0  0  0  0  0  0  0  0  0
  138.0980   74.7340  222.3110 N   0  0  0  0  0  0  0  0  0  0  0  0
  137.4170   75.9660  222.0770 C   0  0  0  0  0  0  0  0  0  0  0  0
  136.2740   76.0290  221.5720 O   0  0  0  0  0  0  0  0  0  0  0  0
  138.0840   77.2250  222.4460 C   0  0  0  0  0  0  0  0  0  0  0  0
  137.3970   78.3940  222.6380 C   0  0  0  0  0  0  0  0  0  0  0  0
  138.0700   79.5700  222.9880 C   0  0  0  0  0  0  0  0  0  0  0  0
  139.4530   79.5510  223.1420 C   0  0  0  0  0  0  0  0  0  0  0  0
  140.1650   80.6930  223.4900 C   0  0  0  0  0  0  0  0  0  0  0  0
  141.5530   80.5690  223.6200 C   0  0  0  0  0  0  0  0  0  0  0  0
  142.3100   81.6410  223.9560 F   0  0  0  0  0  0  0  0  0  0  0  0
  142.2020   79.3720  223.4160 C   0  0  0  0  0  0  0  0  0  0  0  0
  141.4710   78.2550  223.0720 C   0  0  0  0  0  0  0  0  0  0  0  0
  140.1050   78.3740  222.9430 C   0  0  0  0  0  0  0  0  0  0  0  0
  139.4280   77.2610  222.6070 N   0  0  0  0  0  0  0  0  0  0  0  0
  139.7890   68.1810  225.9260 C   0  0  0  0  0  0  0  0  0  0  0  0
  140.2350   69.5190  226.4180 C   0  0  0  0  0  0  0  0  0  0  0  0
  140.8970   70.4280  225.6360 C   0  0  0  0  0  0  0  0  0  0  0  0
  141.2790   71.6550  226.1730 C   0  0  0  0  0  0  0  0  0  0  0  0
  140.9990   71.9720  227.4900 C   0  0  0  0  0  0  0  0  0  0  0  0
  140.3330   71.0670  228.2880 C   0  0  0  0  0  0  0  0  0  0  0  0
  139.9600   69.8540  227.7450 C   0  0  0  0  0  0  0  0  0  0  0  0
  137.6154   69.3633  226.4131 H   0  0  0  0  0  0  0  0  0  0  0  0
  138.0041   70.2413  224.8950 H   0  0  0  0  0  0  0  0  0  0  0  0
  136.7430   68.9621  224.8950 H   0  0  0  0  0  0  0  0  0  0  0  0
  139.9645   69.2269  223.6527 H   0  0  0  0  0  0  0  0  0  0  0  0
  139.6200   67.4834  223.3432 H   0  0  0  0  0  0  0  0  0  0  0  0
  137.8995   68.0349  221.9820 H   0  0  0  0  0  0  0  0  0  0  0  0
  137.1136   68.9703  223.2501 H   0  0  0  0  0  0  0  0  0  0  0  0
  139.6625   70.1475  222.0387 H   0  0  0  0  0  0  0  0  0  0  0  0
  138.2271   70.1706  220.9990 H   0  0  0  0  0  0  0  0  0  0  0  0
  139.9570   73.3660  223.5000 H   0  0  0  0  0  0  0  0  0  0  0  0
  137.4043   73.3370  220.8707 H   0  0  0  0  0  0  0  0  0  0  0  0
  136.4598   73.3623  222.3687 H   0  0  0  0  0  0  0  0  0  0  0  0
  139.0440   74.7990  222.7360 H   0  0  0  0  0  0  0  0  0  0  0  0
  136.3039   78.4088  222.5157 H   0  0  0  0  0  0  0  0  0  0  0  0
  137.5092   80.5039  223.1405 H   0  0  0  0  0  0  0  0  0  0  0  0
  139.6582   81.6550  223.6565 H   0  0  0  0  0  0  0  0  0  0  0  0
  143.2945   79.3075  223.5266 H   0  0  0  0  0  0  0  0  0  0  0  0
  141.9685   77.2884  222.9040 H   0  0  0  0  0  0  0  0  0  0  0  0
  139.4726   67.5713  226.7851 H   0  0  0  0  0  0  0  0  0  0  0  0
  140.6312   67.7078  225.3998 H   0  0  0  0  0  0  0  0  0  0  0  0
  141.1263   70.1896  224.5869 H   0  0  0  0  0  0  0  0  0  0  0  0
  141.8106   72.3818  225.5412 H   0  0  0  0  0  0  0  0  0  0  0  0
  141.3075   72.9451  227.8998 H   0  0  0  0  0  0  0  0  0  0  0  0
  140.1032   71.3065  229.3367 H   0  0  0  0  0  0  0  0  0  0  0  0
  139.4290   69.1280  228.3783 H   0  0  0  0  0  0  0  0  0  0  0  0
  1  2  1  0
  2  3  1  0
  3  4  1  0
  4  5  1  0
  5  6  1  0
  6  7  2  0
  7  8  1  0
  7  9  1  0
  9 10  1  0
 10 11  1  0
 11 12  2  0
 11 13  1  0
 13 14  2  0
 14 15  1  0
 15 16  2  0
 16 17  1  0
 17 18  2  0
 18 19  1  0
 18 20  1  0
 20 21  2  0
 21 22  1  0
 22 23  2  0
  2 24  1  0
 24 25  1  0
 25 26  2  0
 26 27  1  0
 27 28  2  0
 28 29  1  0
 29 30  2  0
 23 13  1  0
 30 25  1  0
 22 16  1  0
  1 31  1  0
  1 32  1  0
  1 33  1  0
  3 34  1  0
  3 35  1  0
  4 36  1  0
  4 37  1  0
  5 38  1  0
  5 39  1  0
  8 40  1  0
  9 41  1  0
  9 42  1  0
 10 43  1  0
 14 44  1  0
 15 45  1  0
 17 46  1  0
 20 47  1  0
 21 48  1  0
 24 49  1  0
 24 50  1  0
 26 51  1  0
 27 52  1  0
 28 53  1  0
 29 54  1  0
 30 55  1  0
M  END
>  <smiles>  (62) 
CN(CCCN=C(O)CNC(=O)c1ccc2cc(F)ccc2n1)Cc1ccccc1

>  <score_type>  (62) 
oracle

>  <origin>  (62) 
autodockgpu

>  <m_score__min__energy>  (62) 
-8.0199999999999996

>  <m_primary>  (62) 
energy

>  <rmsd>  (62) 
8.779187433480384

>  <m_score__min__rmsd>  (62) 
8.779187433480384

>  <meeko>  (62) 
{"free_energy": -7.59, "intermolecular_energy": -10.87, "internal_energy": -2.17, "cluster_size": 4, "cluster_id": 3, "rank_in_cluster": 2}

>  <energy>  (62) 
-7.55

>  <cluster_rmsd>  (62) 
1.24

>  <cluster>  (62) 
1

$$$$

     RDKit          3D

 55 57  0  0  0  0  0  0  0  0999 V2000
  141.0370   75.8660  221.9180 C   0  0  0  0  0  0  0  0  0  0  0  0
  139.9020   76.6780  221.6520 N   0  0  0  0  0  0  0  0  0  0  0  0
  138.7230   75.8920  221.4060 C   0  0  0  0  0  0  0  0  0  0  0  0
  139.0670   74.6620  220.5880 C   0  0  0  0  0  0  0  0  0  0  0  0
  137.8430   74.4500  219.6790 C   0  0  0  0  0  0  0  0  0  0  0  0
  137.2070   73.2390  220.1380 N   0  0  0  0  0  0  0  0  0  0  0  0
  137.7760   72.5450  221.0450 C   0  0  0  0  0  0  0  0  0  0  0  0
  137.4770   72.8700  222.3740 O   0  0  0  0  0  0  0  0  0  0  0  0
  138.7210   71.4320  220.8310 C   0  0  0  0  0  0  0  0  0  0  0  0
  139.0890   70.9480  222.1740 N   0  0  0  0  0  0  0  0  0  0  0  0
  139.8620   71.7540  223.0630 C   0  0  0  0  0  0  0  0  0  0  0  0
  140.2690   72.8980  222.7660 O   0  0  0  0  0  0  0  0  0  0  0  0
  140.1980   71.2180  224.3920 C   0  0  0  0  0  0  0  0  0  0  0  0
  140.7390   71.9930  225.3840 C   0  0  0  0  0  0  0  0  0  0  0  0
  141.0440   71.4440  226.6340 C   0  0  0  0  0  0  0  0  0  0  0  0
  140.7950   70.0960  226.8740 C   0  0  0  0  0  0  0  0  0  0  0  0
  141.0810   69.5070  228.1000 C   0  0  0  0  0  0  0  0  0  0  0  0
  140.7930   68.1450  228.2390 C   0  0  0  0  0  0  0  0  0  0  0  0
  141.0450   67.5050  229.4060 F   0  0  0  0  0  0  0  0  0  0  0  0
  140.2490   67.4040  227.2140 C   0  0  0  0  0  0  0  0  0  0  0  0
  139.9760   68.0140  226.0080 C   0  0  0  0  0  0  0  0  0  0  0  0
  140.2580   69.3550  225.8670 C   0  0  0  0  0  0  0  0  0  0  0  0
  139.9760   69.9130  224.6760 N   0  0  0  0  0  0  0  0  0  0  0  0
  139.6120   77.7050  222.6030 C   0  0  0  0  0  0  0  0  0  0  0  0
  140.7310   78.6900  222.7030 C   0  0  0  0  0  0  0  0  0  0  0  0
  141.3750   78.9820  223.8760 C   0  0  0  0  0  0  0  0  0  0  0  0
  142.4100   79.9130  223.8840 C   0  0  0  0  0  0  0  0  0  0  0  0
  142.8000   80.5520  222.7210 C   0  0  0  0  0  0  0  0  0  0  0  0
  142.1610   80.2680  221.5330 C   0  0  0  0  0  0  0  0  0  0  0  0
  141.1360   79.3420  221.5380 C   0  0  0  0  0  0  0  0  0  0  0  0
  141.1720   75.7694  223.0054 H   0  0  0  0  0  0  0  0  0  0  0  0
  140.8863   74.8695  221.4773 H   0  0  0  0  0  0  0  0  0  0  0  0
  141.9315   76.3304  221.4773 H   0  0  0  0  0  0  0  0  0  0  0  0
  138.2898   75.5782  222.3672 H   0  0  0  0  0  0  0  0  0  0  0  0
  137.9991   76.5016  220.8454 H   0  0  0  0  0  0  0  0  0  0  0  0
  139.9722   74.8350  219.9874 H   0  0  0  0  0  0  0  0  0  0  0  0
  139.2771   73.7854  221.2184 H   0  0  0  0  0  0  0  0  0  0  0  0
  137.1512   75.3008  219.7660 H   0  0  0  0  0  0  0  0  0  0  0  0
  138.1368   74.3731  218.6218 H   0  0  0  0  0  0  0  0  0  0  0  0
  138.1500   73.3440  222.9530 H   0  0  0  0  0  0  0  0  0  0  0  0
  138.2407   70.6284  220.2534 H   0  0  0  0  0  0  0  0  0  0  0  0
  139.6053   71.7575  220.2635 H   0  0  0  0  0  0  0  0  0  0  0  0
  138.8030   70.0120  222.5240 H   0  0  0  0  0  0  0  0  0  0  0  0
  140.9357   73.0587  225.1954 H   0  0  0  0  0  0  0  0  0  0  0  0
  141.4786   72.0748  227.4235 H   0  0  0  0  0  0  0  0  0  0  0  0
  141.5158   70.0877  228.9269 H   0  0  0  0  0  0  0  0  0  0  0  0
  140.0340   66.3346  227.3560 H   0  0  0  0  0  0  0  0  0  0  0  0
  139.5418   67.4414  225.1752 H   0  0  0  0  0  0  0  0  0  0  0  0
  138.6982   78.2325  222.2921 H   0  0  0  0  0  0  0  0  0  0  0  0
  139.4766   77.2350  223.5883 H   0  0  0  0  0  0  0  0  0  0  0  0
  141.0753   78.4824  224.8090 H   0  0  0  0  0  0  0  0  0  0  0  0
  142.9248   80.1436  224.8284 H   0  0  0  0  0  0  0  0  0  0  0  0
  143.6191   81.2859  222.7440 H   0  0  0  0  0  0  0  0  0  0  0  0
  142.4611   80.7684  220.6005 H   0  0  0  0  0  0  0  0  0  0  0  0
  140.6225   79.1112  220.5929 H   0  0  0  0  0  0  0  0  0  0  0  0
  1  2  1  0
  2  3  1  0
  3  4  1  0
  4  5  1  0
  5  6  1  0
  6  7  2  0
  7  8  1  0
  7  9  1  0
  9 10  1  0
 10 11  1  0
 11 12  2  0
 11 13  1  0
 13 14  2  0
 14 15  1  0
 15 16  2  0
 16 17  1  0
 17 18  2  0
 18 19  1  0
 18 20  1  0
 20 21  2  0
 21 22  1  0
 22 23  2  0
  2 24  1  0
 24 25  1  0
 25 26  2  0
 26 27  1  0
 27 28  2  0
 28 29  1  0
 29 30  2  0
 23 13  1  0
 30 25  1  0
 22 16  1  0
  1 31  1  0
  1 32  1  0
  1 33  1  0
  3 34  1  0
  3 35  1  0
  4 36  1  0
  4 37  1  0
  5 38  1  0
  5 39  1  0
  8 40  1  0
  9 41  1  0
  9 42  1  0
 10 43  1  0
 14 44  1  0
 15 45  1  0
 17 46  1  0
 20 47  1  0
 21 48  1  0
 24 49  1  0
 24 50  1  0
 26 51  1  0
 27 52  1  0
 28 53  1  0
 29 54  1  0
 30 55  1  0
M  END
>  <smiles>  (63) 
CN(CCCN=C(O)CNC(=O)c1ccc2cc(F)ccc2n1)Cc1ccccc1

>  <score_type>  (63) 
oracle

>  <origin>  (63) 
autodockgpu

>  <m_score__min__energy>  (63) 
-8.0199999999999996

>  <m_primary>  (63) 
energy

>  <rmsd>  (63) 
3.2945816451890537

>  <m_score__min__rmsd>  (63) 
3.2945816451890537

>  <meeko>  (63) 
{"free_energy": -6.92, "intermolecular_energy": -10.2, "internal_energy": -2.24, "cluster_size": 27, "cluster_id": 1, "rank_in_cluster": 26}

>  <energy>  (63) 
-7.52

>  <cluster_rmsd>  (63) 
1.81

>  <cluster>  (63) 
1

$$$$

     RDKit          3D

 55 57  0  0  0  0  0  0  0  0999 V2000
  138.0530   69.2500  225.6890 C   0  0  0  0  0  0  0  0  0  0  0  0
  138.9600   68.1870  225.4280 N   0  0  0  0  0  0  0  0  0  0  0  0
  139.1510   67.9770  224.0190 C   0  0  0  0  0  0  0  0  0  0  0  0
  138.3240   68.9650  223.2170 C   0  0  0  0  0  0  0  0  0  0  0  0
  139.2600   70.1680  223.0040 C   0  0  0  0  0  0  0  0  0  0  0  0
  138.6610   70.9630  221.9600 N   0  0  0  0  0  0  0  0  0  0  0  0
  138.7570   72.2340  222.0170 C   0  0  0  0  0  0  0  0  0  0  0  0
  137.6290   72.9370  222.4560 O   0  0  0  0  0  0  0  0  0  0  0  0
  139.9440   73.0380  221.6660 C   0  0  0  0  0  0  0  0  0  0  0  0
  139.6740   74.3990  222.1640 N   0  0  0  0  0  0  0  0  0  0  0  0
  140.5240   75.4930  221.8210 C   0  0  0  0  0  0  0  0  0  0  0  0
  141.5310   75.3710  221.0900 O   0  0  0  0  0  0  0  0  0  0  0  0
  140.2040   76.8300  222.3470 C   0  0  0  0  0  0  0  0  0  0  0  0
  141.1700   77.7240  222.7240 C   0  0  0  0  0  0  0  0  0  0  0  0
  140.8230   78.9860  223.2190 C   0  0  0  0  0  0  0  0  0  0  0  0
  139.4810   79.3360  223.3320 C   0  0  0  0  0  0  0  0  0  0  0  0
  139.0880   80.5770  223.8180 C   0  0  0  0  0  0  0  0  0  0  0  0
  137.7130   80.8310  223.8910 C   0  0  0  0  0  0  0  0  0  0  0  0
  137.2580   82.0200  224.3550 F   0  0  0  0  0  0  0  0  0  0  0  0
  136.7760   79.9010  223.5020 C   0  0  0  0  0  0  0  0  0  0  0  0
  137.1940   78.6780  223.0230 C   0  0  0  0  0  0  0  0  0  0  0  0
  138.5460   78.4240  222.9500 C   0  0  0  0  0  0  0  0  0  0  0  0
  138.9130   77.2190  222.4770 N   0  0  0  0  0  0  0  0  0  0  0  0
  140.2260   68.2510  226.0870 C   0  0  0  0  0  0  0  0  0  0  0  0
  140.4890   69.6150  226.6360 C   0  0  0  0  0  0  0  0  0  0  0  0
  140.1370   69.9980  227.9030 C   0  0  0  0  0  0  0  0  0  0  0  0
  140.4190   71.2900  228.3390 C   0  0  0  0  0  0  0  0  0  0  0  0
  141.0510   72.1970  227.5090 C   0  0  0  0  0  0  0  0  0  0  0  0
  141.4130   71.8250  226.2320 C   0  0  0  0  0  0  0  0  0  0  0  0
  141.1270   70.5410  225.8110 C   0  0  0  0  0  0  0  0  0  0  0  0
  137.9426   69.3793  226.7758 H   0  0  0  0  0  0  0  0  0  0  0  0
  138.4405   70.1796  225.2466 H   0  0  0  0  0  0  0  0  0  0  0  0
  137.0740   69.0136  225.2466 H   0  0  0  0  0  0  0  0  0  0  0  0
  140.2147   68.1124  223.7738 H   0  0  0  0  0  0  0  0  0  0  0  0
  138.8301   66.9560  223.7650 H   0  0  0  0  0  0  0  0  0  0  0  0
  138.0255   68.5291  222.2522 H   0  0  0  0  0  0  0  0  0  0  0  0
  137.3930   69.2455  223.7313 H   0  0  0  0  0  0  0  0  0  0  0  0
  139.3433   70.7552  223.9304 H   0  0  0  0  0  0  0  0  0  0  0  0
  140.2744   69.8433  222.7291 H   0  0  0  0  0  0  0  0  0  0  0  0
  137.5660   73.2740  223.4010 H   0  0  0  0  0  0  0  0  0  0  0  0
  140.8419   72.6252  222.1492 H   0  0  0  0  0  0  0  0  0  0  0  0
  140.1269   73.0345  220.5813 H   0  0  0  0  0  0  0  0  0  0  0  0
  138.8640   74.6140  222.7790 H   0  0  0  0  0  0  0  0  0  0  0  0
  142.2310   77.4470  222.6368 H   0  0  0  0  0  0  0  0  0  0  0  0
  141.6070   79.6976  223.5172 H   0  0  0  0  0  0  0  0  0  0  0  0
  139.8267   81.3290  224.1324 H   0  0  0  0  0  0  0  0  0  0  0  0
  135.7028   80.1317  223.5727 H   0  0  0  0  0  0  0  0  0  0  0  0
  136.4628   77.9201  222.7054 H   0  0  0  0  0  0  0  0  0  0  0  0
  140.2359   67.5251  226.9134 H   0  0  0  0  0  0  0  0  0  0  0  0
  141.0101   68.0179  225.3516 H   0  0  0  0  0  0  0  0  0  0  0  0
  139.6330   69.2870  228.5742 H   0  0  0  0  0  0  0  0  0  0  0  0
  140.1351   71.5930  229.3576 H   0  0  0  0  0  0  0  0  0  0  0  0
  141.2649   73.2148  227.8673 H   0  0  0  0  0  0  0  0  0  0  0  0
  141.9191   72.5359  225.5623 H   0  0  0  0  0  0  0  0  0  0  0  0
  141.4116   70.2390  224.7923 H   0  0  0  0  0  0  0  0  0  0  0  0
  1  2  1  0
  2  3  1  0
  3  4  1  0
  4  5  1  0
  5  6  1  0
  6  7  2  0
  7  8  1  0
  7  9  1  0
  9 10  1  0
 10 11  1  0
 11 12  2  0
 11 13  1  0
 13 14  2  0
 14 15  1  0
 15 16  2  0
 16 17  1  0
 17 18  2  0
 18 19  1  0
 18 20  1  0
 20 21  2  0
 21 22  1  0
 22 23  2  0
  2 24  1  0
 24 25  1  0
 25 26  2  0
 26 27  1  0
 27 28  2  0
 28 29  1  0
 29 30  2  0
 23 13  1  0
 30 25  1  0
 22 16  1  0
  1 31  1  0
  1 32  1  0
  1 33  1  0
  3 34  1  0
  3 35  1  0
  4 36  1  0
  4 37  1  0
  5 38  1  0
  5 39  1  0
  8 40  1  0
  9 41  1  0
  9 42  1  0
 10 43  1  0
 14 44  1  0
 15 45  1  0
 17 46  1  0
 20 47  1  0
 21 48  1  0
 24 49  1  0
 24 50  1  0
 26 51  1  0
 27 52  1  0
 28 53  1  0
 29 54  1  0
 30 55  1  0
M  END
>  <smiles>  (64) 
CN(CCCN=C(O)CNC(=O)c1ccc2cc(F)ccc2n1)Cc1ccccc1

>  <score_type>  (64) 
oracle

>  <origin>  (64) 
autodockgpu

>  <m_score__min__energy>  (64) 
-8.0199999999999996

>  <m_primary>  (64) 
energy

>  <rmsd>  (64) 
8.943608325333981

>  <m_score__min__rmsd>  (64) 
8.943608325333981

>  <meeko>  (64) 
{"free_energy": -7.72, "intermolecular_energy": -11.01, "internal_energy": -1.9, "cluster_size": 4, "cluster_id": 3, "rank_in_cluster": 1}

>  <energy>  (64) 
-7.47

>  <cluster_rmsd>  (64) 
1.8

>  <cluster>  (64) 
1

$$$$

     RDKit          3D

 55 57  0  0  0  0  0  0  0  0999 V2000
  137.1210   77.4960  222.6660 C   0  0  0  0  0  0  0  0  0  0  0  0
  138.2390   78.2770  222.2650 N   0  0  0  0  0  0  0  0  0  0  0  0
  138.2140   78.5700  220.8580 C   0  0  0  0  0  0  0  0  0  0  0  0
  139.6140   78.5100  220.2780 C   0  0  0  0  0  0  0  0  0  0  0  0
  139.7750   77.0530  219.8100 C   0  0  0  0  0  0  0  0  0  0  0  0
  140.5370   76.3840  220.8360 N   0  0  0  0  0  0  0  0  0  0  0  0
  140.0140   75.3960  221.4510 C   0  0  0  0  0  0  0  0  0  0  0  0
  139.5080   75.6420  222.7330 O   0  0  0  0  0  0  0  0  0  0  0  0
  139.8890   74.0150  220.9430 C   0  0  0  0  0  0  0  0  0  0  0  0
  139.7780   73.1540  222.1340 N   0  0  0  0  0  0  0  0  0  0  0  0
  139.9490   71.7400  222.0400 C   0  0  0  0  0  0  0  0  0  0  0  0
  140.1970   71.1530  220.9640 O   0  0  0  0  0  0  0  0  0  0  0  0
  139.8280   70.9300  223.2630 C   0  0  0  0  0  0  0  0  0  0  0  0
  139.2870   69.6720  223.2640 C   0  0  0  0  0  0  0  0  0  0  0  0
  139.1910   68.9350  224.4490 C   0  0  0  0  0  0  0  0  0  0  0  0
  139.6500   69.4860  225.6420 C   0  0  0  0  0  0  0  0  0  0  0  0
  139.5760   68.7920  226.8440 C   0  0  0  0  0  0  0  0  0  0  0  0
  140.0660   69.4350  227.9860 C   0  0  0  0  0  0  0  0  0  0  0  0
  140.0270   68.8180  229.1920 F   0  0  0  0  0  0  0  0  0  0  0  0
  140.6030   70.7020  227.9390 C   0  0  0  0  0  0  0  0  0  0  0  0
  140.6630   71.3670  226.7330 C   0  0  0  0  0  0  0  0  0  0  0  0
  140.1820   70.7380  225.6060 C   0  0  0  0  0  0  0  0  0  0  0  0
  140.2600   71.4210  224.4500 N   0  0  0  0  0  0  0  0  0  0  0  0
  138.4830   79.4730  223.0080 C   0  0  0  0  0  0  0  0  0  0  0  0
  139.9450   79.7110  223.1970 C   0  0  0  0  0  0  0  0  0  0  0  0
  140.8670   78.7030  223.2880 C   0  0  0  0  0  0  0  0  0  0  0  0
  142.2140   79.0100  223.4650 C   0  0  0  0  0  0  0  0  0  0  0  0
  142.6370   80.3230  223.5520 C   0  0  0  0  0  0  0  0  0  0  0  0
  141.7200   81.3490  223.4620 C   0  0  0  0  0  0  0  0  0  0  0  0
  140.3880   81.0310  223.2870 C   0  0  0  0  0  0  0  0  0  0  0  0
  137.0725   77.4621  223.7644 H   0  0  0  0  0  0  0  0  0  0  0  0
  136.1984   77.9471  222.2720 H   0  0  0  0  0  0  0  0  0  0  0  0
  137.2270   76.4745  222.2720 H   0  0  0  0  0  0  0  0  0  0  0  0
  137.5781   77.8328  220.3460 H   0  0  0  0  0  0  0  0  0  0  0  0
  137.8119   79.5835  220.7128 H   0  0  0  0  0  0  0  0  0  0  0  0
  139.7138   79.2039  219.4304 H   0  0  0  0  0  0  0  0  0  0  0  0
  140.3825   78.8019  221.0089 H   0  0  0  0  0  0  0  0  0  0  0  0
  138.7895   76.5779  219.6956 H   0  0  0  0  0  0  0  0  0  0  0  0
  140.2804   76.9983  218.8345 H   0  0  0  0  0  0  0  0  0  0  0  0
  138.7620   75.0820  223.1100 H   0  0  0  0  0  0  0  0  0  0  0  0
  138.9905   73.9180  220.3159 H   0  0  0  0  0  0  0  0  0  0  0  0
  140.7518   73.7342  220.3211 H   0  0  0  0  0  0  0  0  0  0  0  0
  139.5740   73.5360  223.0790 H   0  0  0  0  0  0  0  0  0  0  0  0
  138.9236   69.2359  222.3218 H   0  0  0  0  0  0  0  0  0  0  0  0
  138.7550   67.9252  224.4382 H   0  0  0  0  0  0  0  0  0  0  0  0
  139.1499   67.7792  226.8953 H   0  0  0  0  0  0  0  0  0  0  0  0
  140.9806   71.1792  228.8554 H   0  0  0  0  0  0  0  0  0  0  0  0
  141.0868   72.3803  226.6719 H   0  0  0  0  0  0  0  0  0  0  0  0
  138.0492   80.3258  222.4652 H   0  0  0  0  0  0  0  0  0  0  0  0
  138.0200   79.3637  223.9998 H   0  0  0  0  0  0  0  0  0  0  0  0
  140.5448   77.6534  223.2215 H   0  0  0  0  0  0  0  0  0  0  0  0
  142.9511   78.1966  223.5365 H   0  0  0  0  0  0  0  0  0  0  0  0
  143.7042   80.5493  223.6929 H   0  0  0  0  0  0  0  0  0  0  0  0
  142.0430   82.3984  223.5282 H   0  0  0  0  0  0  0  0  0  0  0  0
  139.6517   81.8451  223.2162 H   0  0  0  0  0  0  0  0  0  0  0  0
  1  2  1  0
  2  3  1  0
  3  4  1  0
  4  5  1  0
  5  6  1  0
  6  7  2  0
  7  8  1  0
  7  9  1  0
  9 10  1  0
 10 11  1  0
 11 12  2  0
 11 13  1  0
 13 14  2  0
 14 15  1  0
 15 16  2  0
 16 17  1  0
 17 18  2  0
 18 19  1  0
 18 20  1  0
 20 21  2  0
 21 22  1  0
 22 23  2  0
  2 24  1  0
 24 25  1  0
 25 26  2  0
 26 27  1  0
 27 28  2  0
 28 29  1  0
 29 30  2  0
 23 13  1  0
 30 25  1  0
 22 16  1  0
  1 31  1  0
  1 32  1  0
  1 33  1  0
  3 34  1  0
  3 35  1  0
  4 36  1  0
  4 37  1  0
  5 38  1  0
  5 39  1  0
  8 40  1  0
  9 41  1  0
  9 42  1  0
 10 43  1  0
 14 44  1  0
 15 45  1  0
 17 46  1  0
 20 47  1  0
 21 48  1  0
 24 49  1  0
 24 50  1  0
 26 51  1  0
 27 52  1  0
 28 53  1  0
 29 54  1  0
 30 55  1  0
M  END
>  <smiles>  (65) 
CN(CCCN=C(O)CNC(=O)c1ccc2cc(F)ccc2n1)Cc1ccccc1

>  <score_type>  (65) 
oracle

>  <origin>  (65) 
autodockgpu

>  <m_score__min__energy>  (65) 
-8.0199999999999996

>  <m_primary>  (65) 
energy

>  <rmsd>  (65) 
1.0311397287170634

>  <m_score__min__rmsd>  (65) 
1.0311397287170634

>  <meeko>  (65) 
{"free_energy": -7.44, "intermolecular_energy": -10.72, "internal_energy": -2.22, "cluster_size": 27, "cluster_id": 1, "rank_in_cluster": 16}

>  <energy>  (65) 
-7.44

>  <cluster_rmsd>  (65) 
1.87

>  <cluster>  (65) 
1

$$$$

     RDKit          3D

 55 57  0  0  0  0  0  0  0  0999 V2000
  140.6580   78.6320  218.0470 C   0  0  0  0  0  0  0  0  0  0  0  0
  141.3820   78.5140  219.2650 N   0  0  0  0  0  0  0  0  0  0  0  0
  142.4770   77.5890  219.1520 C   0  0  0  0  0  0  0  0  0  0  0  0
  141.9630   76.1660  219.0530 C   0  0  0  0  0  0  0  0  0  0  0  0
  142.2150   75.5670  220.4480 C   0  0  0  0  0  0  0  0  0  0  0  0
  140.9460   75.6010  221.1360 N   0  0  0  0  0  0  0  0  0  0  0  0
  140.4300   74.5050  221.5370 C   0  0  0  0  0  0  0  0  0  0  0  0
  139.5620   74.5760  222.6320 O   0  0  0  0  0  0  0  0  0  0  0  0
  140.6590   73.1670  220.9580 C   0  0  0  0  0  0  0  0  0  0  0  0
  140.6900   72.2320  222.0970 N   0  0  0  0  0  0  0  0  0  0  0  0
  139.4900   71.6560  222.6120 C   0  0  0  0  0  0  0  0  0  0  0  0
  138.3580   71.9010  222.1390 O   0  0  0  0  0  0  0  0  0  0  0  0
  139.5820   70.7280  223.7510 C   0  0  0  0  0  0  0  0  0  0  0  0
  139.0810   69.4540  223.7060 C   0  0  0  0  0  0  0  0  0  0  0  0
  139.1900   68.6030  224.8110 C   0  0  0  0  0  0  0  0  0  0  0  0
  139.8120   69.0570  225.9700 C   0  0  0  0  0  0  0  0  0  0  0  0
  139.9440   68.2490  227.0930 C   0  0  0  0  0  0  0  0  0  0  0  0
  140.5860   68.7990  228.2080 C   0  0  0  0  0  0  0  0  0  0  0  0
  140.7500   68.0690  229.3370 F   0  0  0  0  0  0  0  0  0  0  0  0
  141.0740   70.0870  228.2090 C   0  0  0  0  0  0  0  0  0  0  0  0
  140.9290   70.8670  227.0810 C   0  0  0  0  0  0  0  0  0  0  0  0
  140.2970   70.3280  225.9820 C   0  0  0  0  0  0  0  0  0  0  0  0
  140.1770   71.1210  224.9020 N   0  0  0  0  0  0  0  0  0  0  0  0
  141.8330   79.7320  219.8610 C   0  0  0  0  0  0  0  0  0  0  0  0
  141.8850   79.6260  221.3500 C   0  0  0  0  0  0  0  0  0  0  0  0
  142.5710   80.5050  222.1450 C   0  0  0  0  0  0  0  0  0  0  0  0
  142.5690   80.3360  223.5270 C   0  0  0  0  0  0  0  0  0  0  0  0
  141.8810   79.2890  224.1130 C   0  0  0  0  0  0  0  0  0  0  0  0
  141.1850   78.3970  223.3260 C   0  0  0  0  0  0  0  0  0  0  0  0
  141.1960   78.5750  221.9560 C   0  0  0  0  0  0  0  0  0  0  0  0
  139.5945   78.8053  218.2680 H   0  0  0  0  0  0  0  0  0  0  0  0
  141.0542   79.4774  217.4654 H   0  0  0  0  0  0  0  0  0  0  0  0
  140.7652   77.7045  217.4654 H   0  0  0  0  0  0  0  0  0  0  0  0
  143.0599   77.8268  218.2499 H   0  0  0  0  0  0  0  0  0  0  0  0
  143.1102   77.6767  220.0472 H   0  0  0  0  0  0  0  0  0  0  0  0
  140.8893   76.1562  218.8139 H   0  0  0  0  0  0  0  0  0  0  0  0
  142.4628   75.5954  218.2564 H   0  0  0  0  0  0  0  0  0  0  0  0
  142.5729   74.5307  220.3591 H   0  0  0  0  0  0  0  0  0  0  0  0
  142.9829   76.1337  220.9949 H   0  0  0  0  0  0  0  0  0  0  0  0
  138.8130   73.9130  222.7410 H   0  0  0  0  0  0  0  0  0  0  0  0
  139.8427   72.9036  220.2693 H   0  0  0  0  0  0  0  0  0  0  0  0
  141.5954   73.1319  220.3819 H   0  0  0  0  0  0  0  0  0  0  0  0
  141.5760   71.9580  222.5670 H   0  0  0  0  0  0  0  0  0  0  0  0
  138.5873   69.0959  222.7905 H   0  0  0  0  0  0  0  0  0  0  0  0
  138.7863   67.5808  224.7639 H   0  0  0  0  0  0  0  0  0  0  0  0
  139.5593   67.2185  227.1048 H   0  0  0  0  0  0  0  0  0  0  0  0
  141.5749   70.4899  229.1016 H   0  0  0  0  0  0  0  0  0  0  0  0
  141.3102   71.8986  227.0592 H   0  0  0  0  0  0  0  0  0  0  0  0
  142.8401   79.9632  219.4837 H   0  0  0  0  0  0  0  0  0  0  0  0
  141.1232   80.5295  219.5962 H   0  0  0  0  0  0  0  0  0  0  0  0
  143.1223   81.3426  221.6928 H   0  0  0  0  0  0  0  0  0  0  0  0
  143.1219   81.0446  224.1612 H   0  0  0  0  0  0  0  0  0  0  0  0
  141.8893   79.1683  225.2063 H   0  0  0  0  0  0  0  0  0  0  0  0
  140.6323   77.5608  223.7792 H   0  0  0  0  0  0  0  0  0  0  0  0
  140.6437   77.8652  221.3226 H   0  0  0  0  0  0  0  0  0  0  0  0
  1  2  1  0
  2  3  1  0
  3  4  1  0
  4  5  1  0
  5  6  1  0
  6  7  2  0
  7  8  1  0
  7  9  1  0
  9 10  1  0
 10 11  1  0
 11 12  2  0
 11 13  1  0
 13 14  2  0
 14 15  1  0
 15 16  2  0
 16 17  1  0
 17 18  2  0
 18 19  1  0
 18 20  1  0
 20 21  2  0
 21 22  1  0
 22 23  2  0
  2 24  1  0
 24 25  1  0
 25 26  2  0
 26 27  1  0
 27 28  2  0
 28 29  1  0
 29 30  2  0
 23 13  1  0
 30 25  1  0
 22 16  1  0
  1 31  1  0
  1 32  1  0
  1 33  1  0
  3 34  1  0
  3 35  1  0
  4 36  1  0
  4 37  1  0
  5 38  1  0
  5 39  1  0
  8 40  1  0
  9 41  1  0
  9 42  1  0
 10 43  1  0
 14 44  1  0
 15 45  1  0
 17 46  1  0
 20 47  1  0
 21 48  1  0
 24 49  1  0
 24 50  1  0
 26 51  1  0
 27 52  1  0
 28 53  1  0
 29 54  1  0
 30 55  1  0
M  END
>  <smiles>  (66) 
CN(CCCN=C(O)CNC(=O)c1ccc2cc(F)ccc2n1)Cc1ccccc1

>  <score_type>  (66) 
oracle

>  <origin>  (66) 
autodockgpu

>  <m_score__min__energy>  (66) 
-8.0199999999999996

>  <m_primary>  (66) 
energy

>  <rmsd>  (66) 
1.4706259111205295

>  <m_score__min__rmsd>  (66) 
1.4706259111205295

>  <meeko>  (66) 
{"free_energy": -7.65, "intermolecular_energy": -10.93, "internal_energy": -2.05, "cluster_size": 27, "cluster_id": 1, "rank_in_cluster": 8}

>  <energy>  (66) 
-7.44

>  <cluster_rmsd>  (66) 
1.78

>  <cluster>  (66) 
1

$$$$

     RDKit          3D

 55 57  0  0  0  0  0  0  0  0999 V2000
  141.8270   79.8550  219.7750 C   0  0  0  0  0  0  0  0  0  0  0  0
  141.0950   78.7390  220.2620 N   0  0  0  0  0  0  0  0  0  0  0  0
  141.0870   77.6490  219.3250 C   0  0  0  0  0  0  0  0  0  0  0  0
  142.2860   76.7470  219.5500 C   0  0  0  0  0  0  0  0  0  0  0  0
  141.6770   75.3730  219.8800 C   0  0  0  0  0  0  0  0  0  0  0  0
  141.3640   75.4000  221.2880 N   0  0  0  0  0  0  0  0  0  0  0  0
  140.3120   74.8070  221.7000 C   0  0  0  0  0  0  0  0  0  0  0  0
  139.5700   75.4490  222.6990 O   0  0  0  0  0  0  0  0  0  0  0  0
  139.7980   73.5060  221.2260 C   0  0  0  0  0  0  0  0  0  0  0  0
  139.7280   72.6400  222.4160 N   0  0  0  0  0  0  0  0  0  0  0  0
  139.8600   71.2230  222.3060 C   0  0  0  0  0  0  0  0  0  0  0  0
  140.0400   70.6370  221.2160 O   0  0  0  0  0  0  0  0  0  0  0  0
  139.7830   70.4080  223.5300 C   0  0  0  0  0  0  0  0  0  0  0  0
  139.1370   69.2010  223.5720 C   0  0  0  0  0  0  0  0  0  0  0  0
  139.0860   68.4580  224.7560 C   0  0  0  0  0  0  0  0  0  0  0  0
  139.7000   68.9500  225.9040 C   0  0  0  0  0  0  0  0  0  0  0  0
  139.6770   68.2470  227.1030 C   0  0  0  0  0  0  0  0  0  0  0  0
  140.3240   68.8280  228.2000 C   0  0  0  0  0  0  0  0  0  0  0  0
  140.3410   68.2000  229.3990 F   0  0  0  0  0  0  0  0  0  0  0  0
  140.9610   70.0460  228.1120 C   0  0  0  0  0  0  0  0  0  0  0  0
  140.9680   70.7210  226.9100 C   0  0  0  0  0  0  0  0  0  0  0  0
  140.3320   70.1520  225.8280 C   0  0  0  0  0  0  0  0  0  0  0  0
  140.3630   70.8420  224.6740 N   0  0  0  0  0  0  0  0  0  0  0  0
  141.4480   78.2600  221.5620 C   0  0  0  0  0  0  0  0  0  0  0  0
  141.7970   79.3840  222.4820 C   0  0  0  0  0  0  0  0  0  0  0  0
  143.0780   79.6620  222.8800 C   0  0  0  0  0  0  0  0  0  0  0  0
  143.3190   80.7300  223.7410 C   0  0  0  0  0  0  0  0  0  0  0  0
  142.2810   81.5160  224.2050 C   0  0  0  0  0  0  0  0  0  0  0  0
  140.9870   81.2480  223.8130 C   0  0  0  0  0  0  0  0  0  0  0  0
  140.7600   80.1870  222.9590 C   0  0  0  0  0  0  0  0  0  0  0  0
  142.2109   80.4403  220.6236 H   0  0  0  0  0  0  0  0  0  0  0  0
  142.6694   79.5018  219.1622 H   0  0  0  0  0  0  0  0  0  0  0  0
  141.1674   80.4870  219.1622 H   0  0  0  0  0  0  0  0  0  0  0  0
  140.1644   77.0647  219.4571 H   0  0  0  0  0  0  0  0  0  0  0  0
  141.1345   78.0565  218.3044 H   0  0  0  0  0  0  0  0  0  0  0  0
  142.9056   76.6901  218.6429 H   0  0  0  0  0  0  0  0  0  0  0  0
  142.9435   77.1166  220.3507 H   0  0  0  0  0  0  0  0  0  0  0  0
  140.7637   75.2087  219.2893 H   0  0  0  0  0  0  0  0  0  0  0  0
  142.3743   74.5569  219.6397 H   0  0  0  0  0  0  0  0  0  0  0  0
  138.8090   74.9790  223.1580 H   0  0  0  0  0  0  0  0  0  0  0  0
  138.7987   73.6282  220.7827 H   0  0  0  0  0  0  0  0  0  0  0  0
  140.4477   73.0740  220.4506 H   0  0  0  0  0  0  0  0  0  0  0  0
  139.5810   73.0210  223.3720 H   0  0  0  0  0  0  0  0  0  0  0  0
  138.6528   68.8115  222.6643 H   0  0  0  0  0  0  0  0  0  0  0  0
  138.5635   67.4903  224.7796 H   0  0  0  0  0  0  0  0  0  0  0  0
  139.1710   67.2738  227.1864 H   0  0  0  0  0  0  0  0  0  0  0  0
  141.4597   70.4763  228.9930 H   0  0  0  0  0  0  0  0  0  0  0  0
  141.4713   71.6946  226.8164 H   0  0  0  0  0  0  0  0  0  0  0  0
  140.5962   77.7051  221.9822 H   0  0  0  0  0  0  0  0  0  0  0  0
  142.3285   77.6082  221.4629 H   0  0  0  0  0  0  0  0  0  0  0  0
  143.9138   79.0436  222.5207 H   0  0  0  0  0  0  0  0  0  0  0  0
  144.3495   80.9510  224.0560 H   0  0  0  0  0  0  0  0  0  0  0  0
  142.4874   82.3545  224.8864 H   0  0  0  0  0  0  0  0  0  0  0  0
  140.1520   81.8669  224.1732 H   0  0  0  0  0  0  0  0  0  0  0  0
  139.7289   79.9677  222.6446 H   0  0  0  0  0  0  0  0  0  0  0  0
  1  2  1  0
  2  3  1  0
  3  4  1  0
  4  5  1  0
  5  6  1  0
  6  7  2  0
  7  8  1  0
  7  9  1  0
  9 10  1  0
 10 11  1  0
 11 12  2  0
 11 13  1  0
 13 14  2  0
 14 15  1  0
 15 16  2  0
 16 17  1  0
 17 18  2  0
 18 19  1  0
 18 20  1  0
 20 21  2  0
 21 22  1  0
 22 23  2  0
  2 24  1  0
 24 25  1  0
 25 26  2  0
 26 27  1  0
 27 28  2  0
 28 29  1  0
 29 30  2  0
 23 13  1  0
 30 25  1  0
 22 16  1  0
  1 31  1  0
  1 32  1  0
  1 33  1  0
  3 34  1  0
  3 35  1  0
  4 36  1  0
  4 37  1  0
  5 38  1  0
  5 39  1  0
  8 40  1  0
  9 41  1  0
  9 42  1  0
 10 43  1  0
 14 44  1  0
 15 45  1  0
 17 46  1  0
 20 47  1  0
 21 48  1  0
 24 49  1  0
 24 50  1  0
 26 51  1  0
 27 52  1  0
 28 53  1  0
 29 54  1  0
 30 55  1  0
M  END
>  <smiles>  (67) 
CN(CCCN=C(O)CNC(=O)c1ccc2cc(F)ccc2n1)Cc1ccccc1

>  <score_type>  (67) 
oracle

>  <origin>  (67) 
autodockgpu

>  <m_score__min__energy>  (67) 
-8.0199999999999996

>  <m_primary>  (67) 
energy

>  <rmsd>  (67) 
1.01992979497333

>  <m_score__min__rmsd>  (67) 
1.01992979497333

>  <meeko>  (67) 
{"free_energy": -7.96, "intermolecular_energy": -11.25, "internal_energy": -1.52, "cluster_size": 27, "cluster_id": 1, "rank_in_cluster": 2}

>  <energy>  (67) 
-7.43

>  <cluster_rmsd>  (67) 
1.54

>  <cluster>  (67) 
1

$$$$

     RDKit          3D

 55 57  0  0  0  0  0  0  0  0999 V2000
  140.0060   77.5530  220.3960 C   0  0  0  0  0  0  0  0  0  0  0  0
  141.4030   77.8130  220.4480 N   0  0  0  0  0  0  0  0  0  0  0  0
  142.1490   76.9110  219.6130 C   0  0  0  0  0  0  0  0  0  0  0  0
  141.2400   75.8380  219.0440 C   0  0  0  0  0  0  0  0  0  0  0  0
  142.0140   74.5250  219.2560 C   0  0  0  0  0  0  0  0  0  0  0  0
  142.0890   74.3280  220.6830 N   0  0  0  0  0  0  0  0  0  0  0  0
  141.0740   74.6150  221.4020 C   0  0  0  0  0  0  0  0  0  0  0  0
  141.2140   75.6780  222.3010 O   0  0  0  0  0  0  0  0  0  0  0  0
  139.7650   73.9330  221.3780 C   0  0  0  0  0  0  0  0  0  0  0  0
  139.7800   72.9870  222.5080 N   0  0  0  0  0  0  0  0  0  0  0  0
  139.6250   71.5840  222.2980 C   0  0  0  0  0  0  0  0  0  0  0  0
  139.4710   71.0770  221.1660 O   0  0  0  0  0  0  0  0  0  0  0  0
  139.6500   70.6870  223.4650 C   0  0  0  0  0  0  0  0  0  0  0  0
  139.1640   69.4070  223.4210 C   0  0  0  0  0  0  0  0  0  0  0  0
  139.2060   68.5870  224.5530 C   0  0  0  0  0  0  0  0  0  0  0  0
  139.7470   69.0760  225.7380 C   0  0  0  0  0  0  0  0  0  0  0  0
  139.8110   68.2980  226.8880 C   0  0  0  0  0  0  0  0  0  0  0  0
  140.3740   68.8840  228.0280 C   0  0  0  0  0  0  0  0  0  0  0  0
  140.4690   68.1840  229.1840 F   0  0  0  0  0  0  0  0  0  0  0  0
  140.8510   70.1760  228.0270 C   0  0  0  0  0  0  0  0  0  0  0  0
  140.7750   70.9240  226.8720 C   0  0  0  0  0  0  0  0  0  0  0  0
  140.2210   70.3520  225.7480 C   0  0  0  0  0  0  0  0  0  0  0  0
  140.1660   71.1150  224.6420 N   0  0  0  0  0  0  0  0  0  0  0  0
  141.8120   79.1590  220.1970 C   0  0  0  0  0  0  0  0  0  0  0  0
  141.9190   79.9430  221.4640 C   0  0  0  0  0  0  0  0  0  0  0  0
  141.6120   81.2740  221.5540 C   0  0  0  0  0  0  0  0  0  0  0  0
  141.7390   81.9330  222.7750 C   0  0  0  0  0  0  0  0  0  0  0  0
  142.1740   81.2610  223.9020 C   0  0  0  0  0  0  0  0  0  0  0  0
  142.4870   79.9210  223.8260 C   0  0  0  0  0  0  0  0  0  0  0  0
  142.3570   79.2790  222.6100 C   0  0  0  0  0  0  0  0  0  0  0  0
  139.6085   77.4790  221.4190 H   0  0  0  0  0  0  0  0  0  0  0  0
  139.5001   78.3724  219.8644 H   0  0  0  0  0  0  0  0  0  0  0  0
  139.8287   76.6064  219.8644 H   0  0  0  0  0  0  0  0  0  0  0  0
  142.6038   77.4759  218.7859 H   0  0  0  0  0  0  0  0  0  0  0  0
  142.9308   76.4299  220.2191 H   0  0  0  0  0  0  0  0  0  0  0  0
  140.2810   75.8153  219.5823 H   0  0  0  0  0  0  0  0  0  0  0  0
  140.9968   76.0139  217.9858 H   0  0  0  0  0  0  0  0  0  0  0  0
  141.4807   73.6873  218.7829 H   0  0  0  0  0  0  0  0  0  0  0  0
  143.0160   74.5730  218.8048 H   0  0  0  0  0  0  0  0  0  0  0  0
  141.8250   76.4500  222.0960 H   0  0  0  0  0  0  0  0  0  0  0  0
  138.9513   74.6629  221.5011 H   0  0  0  0  0  0  0  0  0  0  0  0
  139.5970   73.4162  220.4216 H   0  0  0  0  0  0  0  0  0  0  0  0
  139.9010   73.3000  223.4920 H   0  0  0  0  0  0  0  0  0  0  0  0
  138.7359   69.0198  222.4846 H   0  0  0  0  0  0  0  0  0  0  0  0
  138.8133   67.5605  224.5068 H   0  0  0  0  0  0  0  0  0  0  0  0
  139.4348   67.2644  226.9018 H   0  0  0  0  0  0  0  0  0  0  0  0
  141.2886   70.6069  228.9396 H   0  0  0  0  0  0  0  0  0  0  0  0
  141.1496   71.9580  226.8481 H   0  0  0  0  0  0  0  0  0  0  0  0
  142.7930   79.1478  219.6995 H   0  0  0  0  0  0  0  0  0  0  0  0
  141.0548   79.6367  219.5580 H   0  0  0  0  0  0  0  0  0  0  0  0
  141.2661   81.8216  220.6650 H   0  0  0  0  0  0  0  0  0  0  0  0
  141.4898   83.0022  222.8431 H   0  0  0  0  0  0  0  0  0  0  0  0
  142.2702   81.7954  224.8587 H   0  0  0  0  0  0  0  0  0  0  0  0
  142.8332   79.3741  224.7154 H   0  0  0  0  0  0  0  0  0  0  0  0
  142.6068   78.2098  222.5431 H   0  0  0  0  0  0  0  0  0  0  0  0
  1  2  1  0
  2  3  1  0
  3  4  1  0
  4  5  1  0
  5  6  1  0
  6  7  2  0
  7  8  1  0
  7  9  1  0
  9 10  1  0
 10 11  1  0
 11 12  2  0
 11 13  1  0
 13 14  2  0
 14 15  1  0
 15 16  2  0
 16 17  1  0
 17 18  2  0
 18 19  1  0
 18 20  1  0
 20 21  2  0
 21 22  1  0
 22 23  2  0
  2 24  1  0
 24 25  1  0
 25 26  2  0
 26 27  1  0
 27 28  2  0
 28 29  1  0
 29 30  2  0
 23 13  1  0
 30 25  1  0
 22 16  1  0
  1 31  1  0
  1 32  1  0
  1 33  1  0
  3 34  1  0
  3 35  1  0
  4 36  1  0
  4 37  1  0
  5 38  1  0
  5 39  1  0
  8 40  1  0
  9 41  1  0
  9 42  1  0
 10 43  1  0
 14 44  1  0
 15 45  1  0
 17 46  1  0
 20 47  1  0
 21 48  1  0
 24 49  1  0
 24 50  1  0
 26 51  1  0
 27 52  1  0
 28 53  1  0
 29 54  1  0
 30 55  1  0
M  END
>  <smiles>  (68) 
CN(CCCN=C(O)CNC(=O)c1ccc2cc(F)ccc2n1)Cc1ccccc1

>  <score_type>  (68) 
oracle

>  <origin>  (68) 
autodockgpu

>  <m_score__min__energy>  (68) 
-8.0199999999999996

>  <m_primary>  (68) 
energy

>  <rmsd>  (68) 
0.9532505295255297

>  <m_score__min__rmsd>  (68) 
0.9532505295255297

>  <meeko>  (68) 
{"free_energy": -7.41, "intermolecular_energy": -10.7, "internal_energy": -2.06, "cluster_size": 27, "cluster_id": 1, "rank_in_cluster": 19}

>  <energy>  (68) 
-7.42

>  <cluster_rmsd>  (68) 
1.13

>  <cluster>  (68) 
1

$$$$

     RDKit          3D

 55 57  0  0  0  0  0  0  0  0999 V2000
  137.8970   80.0590  223.8700 C   0  0  0  0  0  0  0  0  0  0  0  0
  138.4100   79.3240  222.7670 N   0  0  0  0  0  0  0  0  0  0  0  0
  137.3620   78.7180  221.9910 C   0  0  0  0  0  0  0  0  0  0  0  0
  137.6400   77.2410  221.7840 C   0  0  0  0  0  0  0  0  0  0  0  0
  138.4190   77.1770  220.4590 C   0  0  0  0  0  0  0  0  0  0  0  0
  139.7650   76.7840  220.8020 N   0  0  0  0  0  0  0  0  0  0  0  0
  139.9570   75.6480  221.3500 C   0  0  0  0  0  0  0  0  0  0  0  0
  140.9380   75.5810  222.3460 O   0  0  0  0  0  0  0  0  0  0  0  0
  139.2460   74.3930  221.0350 C   0  0  0  0  0  0  0  0  0  0  0  0
  139.4490   73.5100  222.1960 N   0  0  0  0  0  0  0  0  0  0  0  0
  139.2800   72.0970  222.0880 C   0  0  0  0  0  0  0  0  0  0  0  0
  138.9550   71.5290  221.0220 O   0  0  0  0  0  0  0  0  0  0  0  0
  139.4980   71.2630  223.2810 C   0  0  0  0  0  0  0  0  0  0  0  0
  139.1720   69.9340  223.3220 C   0  0  0  0  0  0  0  0  0  0  0  0
  139.3960   69.1780  224.4770 C   0  0  0  0  0  0  0  0  0  0  0  0
  139.9550   69.7830  225.5990 C   0  0  0  0  0  0  0  0  0  0  0  0
  140.1970   69.0720  226.7690 C   0  0  0  0  0  0  0  0  0  0  0  0
  140.7630   69.7730  227.8400 C   0  0  0  0  0  0  0  0  0  0  0  0
  141.0250   69.1440  229.0100 F   0  0  0  0  0  0  0  0  0  0  0  0
  141.0740   71.1120  227.7540 C   0  0  0  0  0  0  0  0  0  0  0  0
  140.8240   71.7920  226.5820 C   0  0  0  0  0  0  0  0  0  0  0  0
  140.2670   71.1050  225.5250 C   0  0  0  0  0  0  0  0  0  0  0  0
  140.0390   71.8050  224.3990 N   0  0  0  0  0  0  0  0  0  0  0  0
  139.3170   80.0140  221.9050 C   0  0  0  0  0  0  0  0  0  0  0  0
  140.6670   80.1520  222.5290 C   0  0  0  0  0  0  0  0  0  0  0  0
  141.6690   79.2320  222.3700 C   0  0  0  0  0  0  0  0  0  0  0  0
  142.9010   79.4360  222.9870 C   0  0  0  0  0  0  0  0  0  0  0  0
  143.1300   80.5580  223.7620 C   0  0  0  0  0  0  0  0  0  0  0  0
  142.1310   81.4930  223.9310 C   0  0  0  0  0  0  0  0  0  0  0  0
  140.9140   81.2790  223.3140 C   0  0  0  0  0  0  0  0  0  0  0  0
  138.2253   79.5886  224.8086 H   0  0  0  0  0  0  0  0  0  0  0  0
  138.2708   81.0927  223.8275 H   0  0  0  0  0  0  0  0  0  0  0  0
  136.7978   80.0646  223.8275 H   0  0  0  0  0  0  0  0  0  0  0  0
  136.4052   78.8354  222.5208 H   0  0  0  0  0  0  0  0  0  0  0  0
  137.3152   79.2121  221.0093 H   0  0  0  0  0  0  0  0  0  0  0  0
  138.2451   76.8398  222.6104 H   0  0  0  0  0  0  0  0  0  0  0  0
  136.7178   76.6420  221.7561 H   0  0  0  0  0  0  0  0  0  0  0  0
  137.9652   76.4354  219.7852 H   0  0  0  0  0  0  0  0  0  0  0  0
  138.4046   78.1458  219.9382 H   0  0  0  0  0  0  0  0  0  0  0  0
  141.8400   76.0060  222.2110 H   0  0  0  0  0  0  0  0  0  0  0  0
  138.1738   74.5881  220.8859 H   0  0  0  0  0  0  0  0  0  0  0  0
  139.6258   73.9358  220.1094 H   0  0  0  0  0  0  0  0  0  0  0  0
  139.7210   73.8750  223.1310 H   0  0  0  0  0  0  0  0  0  0  0  0
  138.7288   69.4553  222.4363 H   0  0  0  0  0  0  0  0  0  0  0  0
  139.1317   68.1104  224.4987 H   0  0  0  0  0  0  0  0  0  0  0  0
  139.9536   68.0023  226.8496 H   0  0  0  0  0  0  0  0  0  0  0  0
  141.5184   71.6343  228.6141 H   0  0  0  0  0  0  0  0  0  0  0  0
  141.0642   72.8617  226.4918 H   0  0  0  0  0  0  0  0  0  0  0  0
  139.4137   79.4520  220.9643 H   0  0  0  0  0  0  0  0  0  0  0  0
  138.9177   81.0220  221.7195 H   0  0  0  0  0  0  0  0  0  0  0  0
  141.5013   78.3344  221.7567 H   0  0  0  0  0  0  0  0  0  0  0  0
  143.7027   78.6944  222.8559 H   0  0  0  0  0  0  0  0  0  0  0  0
  144.1083   80.7044  224.2432 H   0  0  0  0  0  0  0  0  0  0  0  0
  142.2996   82.3905  224.5443 H   0  0  0  0  0  0  0  0  0  0  0  0
  140.1131   82.0214  223.4457 H   0  0  0  0  0  0  0  0  0  0  0  0
  1  2  1  0
  2  3  1  0
  3  4  1  0
  4  5  1  0
  5  6  1  0
  6  7  2  0
  7  8  1  0
  7  9  1  0
  9 10  1  0
 10 11  1  0
 11 12  2  0
 11 13  1  0
 13 14  2  0
 14 15  1  0
 15 16  2  0
 16 17  1  0
 17 18  2  0
 18 19  1  0
 18 20  1  0
 20 21  2  0
 21 22  1  0
 22 23  2  0
  2 24  1  0
 24 25  1  0
 25 26  2  0
 26 27  1  0
 27 28  2  0
 28 29  1  0
 29 30  2  0
 23 13  1  0
 30 25  1  0
 22 16  1  0
  1 31  1  0
  1 32  1  0
  1 33  1  0
  3 34  1  0
  3 35  1  0
  4 36  1  0
  4 37  1  0
  5 38  1  0
  5 39  1  0
  8 40  1  0
  9 41  1  0
  9 42  1  0
 10 43  1  0
 14 44  1  0
 15 45  1  0
 17 46  1  0
 20 47  1  0
 21 48  1  0
 24 49  1  0
 24 50  1  0
 26 51  1  0
 27 52  1  0
 28 53  1  0
 29 54  1  0
 30 55  1  0
M  END
>  <smiles>  (69) 
CN(CCCN=C(O)CNC(=O)c1ccc2cc(F)ccc2n1)Cc1ccccc1

>  <score_type>  (69) 
oracle

>  <origin>  (69) 
autodockgpu

>  <m_score__min__energy>  (69) 
-8.0199999999999996

>  <m_primary>  (69) 
energy

>  <rmsd>  (69) 
0.9686776275753785

>  <m_score__min__rmsd>  (69) 
0.9686776275753785

>  <meeko>  (69) 
{"free_energy": -7.29, "intermolecular_energy": -10.57, "internal_energy": -2.2, "cluster_size": 4, "cluster_id": 2, "rank_in_cluster": 4}

>  <energy>  (69) 
-7.41

>  <cluster_rmsd>  (69) 
1.21

>  <cluster>  (69) 
1

$$$$

     RDKit          3D

 55 57  0  0  0  0  0  0  0  0999 V2000
  137.7380   76.7950  222.7350 C   0  0  0  0  0  0  0  0  0  0  0  0
  138.6420   77.7920  222.2770 N   0  0  0  0  0  0  0  0  0  0  0  0
  138.3910   78.1580  220.9100 C   0  0  0  0  0  0  0  0  0  0  0  0
  139.6890   78.2030  220.1260 C   0  0  0  0  0  0  0  0  0  0  0  0
  139.7690   76.8320  219.4330 C   0  0  0  0  0  0  0  0  0  0  0  0
  140.7530   76.0690  220.1620 N   0  0  0  0  0  0  0  0  0  0  0  0
  140.3650   75.2820  221.0880 C   0  0  0  0  0  0  0  0  0  0  0  0
  140.9980   75.4010  222.3310 O   0  0  0  0  0  0  0  0  0  0  0  0
  139.3100   74.2550  220.9780 C   0  0  0  0  0  0  0  0  0  0  0  0
  139.4600   73.3900  222.1620 N   0  0  0  0  0  0  0  0  0  0  0  0
  139.3490   71.9710  222.0590 C   0  0  0  0  0  0  0  0  0  0  0  0
  139.1210   71.3820  220.9790 O   0  0  0  0  0  0  0  0  0  0  0  0
  139.5100   71.1580  223.2750 C   0  0  0  0  0  0  0  0  0  0  0  0
  139.1090   69.8500  223.3460 C   0  0  0  0  0  0  0  0  0  0  0  0
  139.2810   69.1130  224.5220 C   0  0  0  0  0  0  0  0  0  0  0  0
  139.8640   69.7140  225.6330 C   0  0  0  0  0  0  0  0  0  0  0  0
  140.0550   69.0210  226.8230 C   0  0  0  0  0  0  0  0  0  0  0  0
  140.6510   69.7170  227.8810 C   0  0  0  0  0  0  0  0  0  0  0  0
  140.8680   69.1040  229.0700 F   0  0  0  0  0  0  0  0  0  0  0  0
  141.0380   71.0330  227.7650 C   0  0  0  0  0  0  0  0  0  0  0  0
  140.8360   71.6960  226.5740 C   0  0  0  0  0  0  0  0  0  0  0  0
  140.2500   71.0150  225.5290 C   0  0  0  0  0  0  0  0  0  0  0  0
  140.0710   71.6970  224.3840 N   0  0  0  0  0  0  0  0  0  0  0  0
  138.7590   78.9670  223.0820 C   0  0  0  0  0  0  0  0  0  0  0  0
  140.1790   79.4210  223.1830 C   0  0  0  0  0  0  0  0  0  0  0  0
  141.2510   78.5850  223.0200 C   0  0  0  0  0  0  0  0  0  0  0  0
  142.5450   79.0880  223.1310 C   0  0  0  0  0  0  0  0  0  0  0  0
  142.7650   80.4260  223.4050 C   0  0  0  0  0  0  0  0  0  0  0  0
  141.6950   81.2790  223.5710 C   0  0  0  0  0  0  0  0  0  0  0  0
  140.4170   80.7680  223.4600 C   0  0  0  0  0  0  0  0  0  0  0  0
  137.7293   76.7854  223.8349 H   0  0  0  0  0  0  0  0  0  0  0  0
  136.7273   77.0174  222.3622 H   0  0  0  0  0  0  0  0  0  0  0  0
  138.0580   75.8108  222.3622 H   0  0  0  0  0  0  0  0  0  0  0  0
  137.7182   77.4166  220.4543 H   0  0  0  0  0  0  0  0  0  0  0  0
  137.9268   79.1550  220.8878 H   0  0  0  0  0  0  0  0  0  0  0  0
  139.6662   79.0135  219.3827 H   0  0  0  0  0  0  0  0  0  0  0  0
  140.5596   78.3974  220.7697 H   0  0  0  0  0  0  0  0  0  0  0  0
  138.7918   76.3283  219.4703 H   0  0  0  0  0  0  0  0  0  0  0  0
  140.0457   76.9342  218.3733 H   0  0  0  0  0  0  0  0  0  0  0  0
  141.8290   75.9590  222.4340 H   0  0  0  0  0  0  0  0  0  0  0  0
  138.3163   74.7268  220.9728 H   0  0  0  0  0  0  0  0  0  0  0  0
  139.4030   73.6802  220.0447 H   0  0  0  0  0  0  0  0  0  0  0  0
  139.6510   73.7750  223.1090 H   0  0  0  0  0  0  0  0  0  0  0  0
  138.6467   69.3743  222.4685 H   0  0  0  0  0  0  0  0  0  0  0  0
  138.9568   68.0629  224.5683 H   0  0  0  0  0  0  0  0  0  0  0  0
  139.7503   67.9693  226.9287 H   0  0  0  0  0  0  0  0  0  0  0  0
  141.5046   71.5510  228.6159 H   0  0  0  0  0  0  0  0  0  0  0  0
  141.1365   72.7480  226.4597 H   0  0  0  0  0  0  0  0  0  0  0  0
  138.1578   79.7705  222.6315 H   0  0  0  0  0  0  0  0  0  0  0  0
  138.3991   78.7299  224.0941 H   0  0  0  0  0  0  0  0  0  0  0  0
  141.0907   77.5188  222.8020 H   0  0  0  0  0  0  0  0  0  0  0  0
  143.4032   78.4126  222.9991 H   0  0  0  0  0  0  0  0  0  0  0  0
  143.7927   80.8088  223.4903 H   0  0  0  0  0  0  0  0  0  0  0  0
  141.8560   82.3454  223.7875 H   0  0  0  0  0  0  0  0  0  0  0  0
  139.5596   81.4439  223.5941 H   0  0  0  0  0  0  0  0  0  0  0  0
  1  2  1  0
  2  3  1  0
  3  4  1  0
  4  5  1  0
  5  6  1  0
  6  7  2  0
  7  8  1  0
  7  9  1  0
  9 10  1  0
 10 11  1  0
 11 12  2  0
 11 13  1  0
 13 14  2  0
 14 15  1  0
 15 16  2  0
 16 17  1  0
 17 18  2  0
 18 19  1  0
 18 20  1  0
 20 21  2  0
 21 22  1  0
 22 23  2  0
  2 24  1  0
 24 25  1  0
 25 26  2  0
 26 27  1  0
 27 28  2  0
 28 29  1  0
 29 30  2  0
 23 13  1  0
 30 25  1  0
 22 16  1  0
  1 31  1  0
  1 32  1  0
  1 33  1  0
  3 34  1  0
  3 35  1  0
  4 36  1  0
  4 37  1  0
  5 38  1  0
  5 39  1  0
  8 40  1  0
  9 41  1  0
  9 42  1  0
 10 43  1  0
 14 44  1  0
 15 45  1  0
 17 46  1  0
 20 47  1  0
 21 48  1  0
 24 49  1  0
 24 50  1  0
 26 51  1  0
 27 52  1  0
 28 53  1  0
 29 54  1  0
 30 55  1  0
M  END
>  <smiles>  (70) 
CN(CCCN=C(O)CNC(=O)c1ccc2cc(F)ccc2n1)Cc1ccccc1

>  <score_type>  (70) 
oracle

>  <origin>  (70) 
autodockgpu

>  <m_score__min__energy>  (70) 
-8.0199999999999996

>  <m_primary>  (70) 
energy

>  <rmsd>  (70) 
0.9081355504120486

>  <m_score__min__rmsd>  (70) 
0.9081355504120486

>  <meeko>  (70) 
{"free_energy": -7.37, "intermolecular_energy": -10.65, "internal_energy": -2.42, "cluster_size": 27, "cluster_id": 1, "rank_in_cluster": 20}

>  <energy>  (70) 
-7.37

>  <cluster_rmsd>  (70) 
1.79

>  <cluster>  (70) 
1

$$$$

     RDKit          3D

 55 57  0  0  0  0  0  0  0  0999 V2000
  141.8250   78.6440  224.2200 C   0  0  0  0  0  0  0  0  0  0  0  0
  142.4550   79.3250  223.1440 N   0  0  0  0  0  0  0  0  0  0  0  0
  141.9180   78.9320  221.8700 C   0  0  0  0  0  0  0  0  0  0  0  0
  140.9780   77.7520  222.0300 C   0  0  0  0  0  0  0  0  0  0  0  0
  139.7360   78.1340  221.2070 C   0  0  0  0  0  0  0  0  0  0  0  0
  139.1090   76.8920  220.8240 N   0  0  0  0  0  0  0  0  0  0  0  0
  139.2830   75.8600  221.5540 C   0  0  0  0  0  0  0  0  0  0  0  0
  138.7300   75.8910  222.8400 O   0  0  0  0  0  0  0  0  0  0  0  0
  140.0130   74.6340  221.1750 C   0  0  0  0  0  0  0  0  0  0  0  0
  139.8150   73.6850  222.2850 N   0  0  0  0  0  0  0  0  0  0  0  0
  140.4680   72.4160  222.2970 C   0  0  0  0  0  0  0  0  0  0  0  0
  141.2340   72.0340  221.3850 O   0  0  0  0  0  0  0  0  0  0  0  0
  140.2330   71.5090  223.4330 C   0  0  0  0  0  0  0  0  0  0  0  0
  139.6170   70.2950  223.2920 C   0  0  0  0  0  0  0  0  0  0  0  0
  139.4130   69.4630  224.3990 C   0  0  0  0  0  0  0  0  0  0  0  0
  139.8420   69.8750  225.6570 C   0  0  0  0  0  0  0  0  0  0  0  0
  139.6620   69.0830  226.7850 C   0  0  0  0  0  0  0  0  0  0  0  0
  140.1290   69.5880  228.0040 C   0  0  0  0  0  0  0  0  0  0  0  0
  139.9880   68.8700  229.1440 F   0  0  0  0  0  0  0  0  0  0  0  0
  140.7440   70.8170  228.0990 C   0  0  0  0  0  0  0  0  0  0  0  0
  140.9090   71.5810  226.9640 C   0  0  0  0  0  0  0  0  0  0  0  0
  140.4500   71.0870  225.7620 C   0  0  0  0  0  0  0  0  0  0  0  0
  140.6310   71.8630  224.6790 N   0  0  0  0  0  0  0  0  0  0  0  0
  142.5050   80.7510  223.2320 C   0  0  0  0  0  0  0  0  0  0  0  0
  141.2850   81.3790  222.6430 C   0  0  0  0  0  0  0  0  0  0  0  0
  141.3180   82.2320  221.5720 C   0  0  0  0  0  0  0  0  0  0  0  0
  140.1320   82.7760  221.0830 C   0  0  0  0  0  0  0  0  0  0  0  0
  138.9170   82.4670  221.6650 C   0  0  0  0  0  0  0  0  0  0  0  0
  138.8680   81.6090  222.7430 C   0  0  0  0  0  0  0  0  0  0  0  0
  140.0500   81.0770  223.2190 C   0  0  0  0  0  0  0  0  0  0  0  0
  142.1958   79.0448  225.1749 H   0  0  0  0  0  0  0  0  0  0  0  0
  140.7364   78.7899  224.1591 H   0  0  0  0  0  0  0  0  0  0  0  0
  142.0550   77.5700  224.1591 H   0  0  0  0  0  0  0  0  0  0  0  0
  141.3662   79.7776  221.4335 H   0  0  0  0  0  0  0  0  0  0  0  0
  142.7475   78.6387  221.2098 H   0  0  0  0  0  0  0  0  0  0  0  0
  141.4373   76.8330  221.6368 H   0  0  0  0  0  0  0  0  0  0  0  0
  140.7355   77.5506  223.0839 H   0  0  0  0  0  0  0  0  0  0  0  0
  139.0463   78.7376  221.8153 H   0  0  0  0  0  0  0  0  0  0  0  0
  140.0080   78.7340  220.3261 H   0  0  0  0  0  0  0  0  0  0  0  0
  138.1910   75.1160  223.1870 H   0  0  0  0  0  0  0  0  0  0  0  0
  139.6059   74.2200  220.2407 H   0  0  0  0  0  0  0  0  0  0  0  0
  141.0804   74.8369  221.0034 H   0  0  0  0  0  0  0  0  0  0  0  0
  139.2000   73.8990  223.0960 H   0  0  0  0  0  0  0  0  0  0  0  0
  139.2784   69.9694  222.2974 H   0  0  0  0  0  0  0  0  0  0  0  0
  138.9165   68.4893  224.2752 H   0  0  0  0  0  0  0  0  0  0  0  0
  139.1727   68.0998  226.7223 H   0  0  0  0  0  0  0  0  0  0  0  0
  141.1003   71.1853  229.0723 H   0  0  0  0  0  0  0  0  0  0  0  0
  141.3972   72.5653  227.0163 H   0  0  0  0  0  0  0  0  0  0  0  0
  142.5810   81.0413  224.2903 H   0  0  0  0  0  0  0  0  0  0  0  0
  143.3808   81.1011  222.6659 H   0  0  0  0  0  0  0  0  0  0  0  0
  142.2779   82.4869  221.0992 H   0  0  0  0  0  0  0  0  0  0  0  0
  140.1631   83.4604  220.2224 H   0  0  0  0  0  0  0  0  0  0  0  0
  137.9895   82.9055  221.2682 H   0  0  0  0  0  0  0  0  0  0  0  0
  137.9074   81.3535  223.2141 H   0  0  0  0  0  0  0  0  0  0  0  0
  140.0173   80.3931  224.0799 H   0  0  0  0  0  0  0  0  0  0  0  0
  1  2  1  0
  2  3  1  0
  3  4  1  0
  4  5  1  0
  5  6  1  0
  6  7  2  0
  7  8  1  0
  7  9  1  0
  9 10  1  0
 10 11  1  0
 11 12  2  0
 11 13  1  0
 13 14  2  0
 14 15  1  0
 15 16  2  0
 16 17  1  0
 17 18  2  0
 18 19  1  0
 18 20  1  0
 20 21  2  0
 21 22  1  0
 22 23  2  0
  2 24  1  0
 24 25  1  0
 25 26  2  0
 26 27  1  0
 27 28  2  0
 28 29  1  0
 29 30  2  0
 23 13  1  0
 30 25  1  0
 22 16  1  0
  1 31  1  0
  1 32  1  0
  1 33  1  0
  3 34  1  0
  3 35  1  0
  4 36  1  0
  4 37  1  0
  5 38  1  0
  5 39  1  0
  8 40  1  0
  9 41  1  0
  9 42  1  0
 10 43  1  0
 14 44  1  0
 15 45  1  0
 17 46  1  0
 20 47  1  0
 21 48  1  0
 24 49  1  0
 24 50  1  0
 26 51  1  0
 27 52  1  0
 28 53  1  0
 29 54  1  0
 30 55  1  0
M  END
>  <smiles>  (71) 
CN(CCCN=C(O)CNC(=O)c1ccc2cc(F)ccc2n1)Cc1ccccc1

>  <score_type>  (71) 
oracle

>  <origin>  (71) 
autodockgpu

>  <m_score__min__energy>  (71) 
-8.0199999999999996

>  <m_primary>  (71) 
energy

>  <rmsd>  (71) 
1.4219294989829208

>  <m_score__min__rmsd>  (71) 
1.4219294989829208

>  <meeko>  (71) 
{"free_energy": -7.58, "intermolecular_energy": -10.86, "internal_energy": -1.86, "cluster_size": 4, "cluster_id": 2, "rank_in_cluster": 3}

>  <energy>  (71) 
-7.24

>  <cluster_rmsd>  (71) 
1.73

>  <cluster>  (71) 
1

$$$$

     RDKit          3D

 55 57  0  0  0  0  0  0  0  0999 V2000
  142.1400   75.7810  217.1770 C   0  0  0  0  0  0  0  0  0  0  0  0
  142.9440   75.6860  218.3450 N   0  0  0  0  0  0  0  0  0  0  0  0
  142.9550   76.9130  219.0930 C   0  0  0  0  0  0  0  0  0  0  0  0
  141.5380   77.3750  219.3760 C   0  0  0  0  0  0  0  0  0  0  0  0
  141.4330   77.3780  220.9110 C   0  0  0  0  0  0  0  0  0  0  0  0
  140.0460   77.1280  221.2200 N   0  0  0  0  0  0  0  0  0  0  0  0
  139.7130   75.9960  221.7040 C   0  0  0  0  0  0  0  0  0  0  0  0
  138.9010   76.0070  222.8450 O   0  0  0  0  0  0  0  0  0  0  0  0
  140.1010   74.6720  221.1790 C   0  0  0  0  0  0  0  0  0  0  0  0
  139.9240   73.7250  222.2950 N   0  0  0  0  0  0  0  0  0  0  0  0
  140.4000   72.3830  222.2080 C   0  0  0  0  0  0  0  0  0  0  0  0
  140.9870   71.9320  221.1990 O   0  0  0  0  0  0  0  0  0  0  0  0
  140.1960   71.4830  223.3540 C   0  0  0  0  0  0  0  0  0  0  0  0
  139.6130   70.2500  223.2290 C   0  0  0  0  0  0  0  0  0  0  0  0
  139.4370   69.4260  224.3460 C   0  0  0  0  0  0  0  0  0  0  0  0
  139.8600   69.8620  225.5980 C   0  0  0  0  0  0  0  0  0  0  0  0
  139.7080   69.0780  226.7350 C   0  0  0  0  0  0  0  0  0  0  0  0
  140.1670   69.6080  227.9460 C   0  0  0  0  0  0  0  0  0  0  0  0
  140.0510   68.8990  229.0940 F   0  0  0  0  0  0  0  0  0  0  0  0
  140.7480   70.8540  228.0250 C   0  0  0  0  0  0  0  0  0  0  0  0
  140.8860   71.6100  226.8810 C   0  0  0  0  0  0  0  0  0  0  0  0
  140.4360   71.0920  225.6870 C   0  0  0  0  0  0  0  0  0  0  0  0
  140.5900   71.8610  224.5940 N   0  0  0  0  0  0  0  0  0  0  0  0
  142.6760   74.5860  219.2180 C   0  0  0  0  0  0  0  0  0  0  0  0
  143.9390   73.9500  219.7000 C   0  0  0  0  0  0  0  0  0  0  0  0
  144.8230   74.5720  220.5410 C   0  0  0  0  0  0  0  0  0  0  0  0
  145.9790   73.9090  220.9450 C   0  0  0  0  0  0  0  0  0  0  0  0
  146.2500   72.6250  220.5070 C   0  0  0  0  0  0  0  0  0  0  0  0
  145.3690   71.9860  219.6610 C   0  0  0  0  0  0  0  0  0  0  0  0
  144.2270   72.6550  219.2680 C   0  0  0  0  0  0  0  0  0  0  0  0
  141.0861   75.9055  217.4665 H   0  0  0  0  0  0  0  0  0  0  0  0
  142.4612   76.6474  216.5802 H   0  0  0  0  0  0  0  0  0  0  0  0
  142.2504   74.8636  216.5802 H   0  0  0  0  0  0  0  0  0  0  0  0
  143.4803   76.7514  220.0459 H   0  0  0  0  0  0  0  0  0  0  0  0
  143.4699   77.6852  218.5026 H   0  0  0  0  0  0  0  0  0  0  0  0
  141.3704   78.3847  218.9729 H   0  0  0  0  0  0  0  0  0  0  0  0
  140.7846   76.7253  218.9065 H   0  0  0  0  0  0  0  0  0  0  0  0
  142.0674   76.5874  221.3382 H   0  0  0  0  0  0  0  0  0  0  0  0
  141.7717   78.3352  221.3341 H   0  0  0  0  0  0  0  0  0  0  0  0
  138.3680   75.1950  223.1060 H   0  0  0  0  0  0  0  0  0  0  0  0
  139.4553   74.3917  220.3337 H   0  0  0  0  0  0  0  0  0  0  0  0
  141.1377   74.6722  220.8111 H   0  0  0  0  0  0  0  0  0  0  0  0
  139.4500   73.9940  223.1810 H   0  0  0  0  0  0  0  0  0  0  0  0
  139.2795   69.9037  222.2396 H   0  0  0  0  0  0  0  0  0  0  0  0
  138.9664   68.4380  224.2350 H   0  0  0  0  0  0  0  0  0  0  0  0
  139.2456   68.0812  226.6852 H   0  0  0  0  0  0  0  0  0  0  0  0
  141.0988   71.2424  228.9925 H   0  0  0  0  0  0  0  0  0  0  0  0
  141.3468   72.6081  226.9209 H   0  0  0  0  0  0  0  0  0  0  0  0
  142.1048   74.9487  220.0852 H   0  0  0  0  0  0  0  0  0  0  0  0
  142.1017   73.8329  218.6585 H   0  0  0  0  0  0  0  0  0  0  0  0
  144.6203   75.5930  220.8966 H   0  0  0  0  0  0  0  0  0  0  0  0
  146.6857   74.4126  221.6210 H   0  0  0  0  0  0  0  0  0  0  0  0
  147.1679   72.1143  220.8336 H   0  0  0  0  0  0  0  0  0  0  0  0
  145.5716   70.9646  219.3065 H   0  0  0  0  0  0  0  0  0  0  0  0
  143.5210   72.1504  218.5921 H   0  0  0  0  0  0  0  0  0  0  0  0
  1  2  1  0
  2  3  1  0
  3  4  1  0
  4  5  1  0
  5  6  1  0
  6  7  2  0
  7  8  1  0
  7  9  1  0
  9 10  1  0
 10 11  1  0
 11 12  2  0
 11 13  1  0
 13 14  2  0
 14 15  1  0
 15 16  2  0
 16 17  1  0
 17 18  2  0
 18 19  1  0
 18 20  1  0
 20 21  2  0
 21 22  1  0
 22 23  2  0
  2 24  1  0
 24 25  1  0
 25 26  2  0
 26 27  1  0
 27 28  2  0
 28 29  1  0
 29 30  2  0
 23 13  1  0
 30 25  1  0
 22 16  1  0
  1 31  1  0
  1 32  1  0
  1 33  1  0
  3 34  1  0
  3 35  1  0
  4 36  1  0
  4 37  1  0
  5 38  1  0
  5 39  1  0
  8 40  1  0
  9 41  1  0
  9 42  1  0
 10 43  1  0
 14 44  1  0
 15 45  1  0
 17 46  1  0
 20 47  1  0
 21 48  1  0
 24 49  1  0
 24 50  1  0
 26 51  1  0
 27 52  1  0
 28 53  1  0
 29 54  1  0
 30 55  1  0
M  END
>  <smiles>  (72) 
CN(CCCN=C(O)CNC(=O)c1ccc2cc(F)ccc2n1)Cc1ccccc1

>  <score_type>  (72) 
oracle

>  <origin>  (72) 
autodockgpu

>  <m_score__min__energy>  (72) 
-8.0199999999999996

>  <m_primary>  (72) 
energy

>  <rmsd>  (72) 
1.4097400769590642

>  <m_score__min__rmsd>  (72) 
1.4097400769590642

>  <meeko>  (72) 
{"free_energy": -7.33, "intermolecular_energy": -10.61, "internal_energy": -2.26, "cluster_size": 3, "cluster_id": 7, "rank_in_cluster": 2}

>  <energy>  (72) 
-7.24

>  <cluster_rmsd>  (72) 
1.86

>  <cluster>  (72) 
1

$$$$

     RDKit          3D

 55 57  0  0  0  0  0  0  0  0999 V2000
  137.8130   76.9730  222.7940 C   0  0  0  0  0  0  0  0  0  0  0  0
  138.6060   78.0720  222.3660 N   0  0  0  0  0  0  0  0  0  0  0  0
  138.1540   78.6050  221.1100 C   0  0  0  0  0  0  0  0  0  0  0  0
  139.2720   78.5670  220.0840 C   0  0  0  0  0  0  0  0  0  0  0  0
  139.3830   77.0830  219.6910 C   0  0  0  0  0  0  0  0  0  0  0  0
  140.5080   76.5560  220.4250 N   0  0  0  0  0  0  0  0  0  0  0  0
  140.3310   75.5510  221.1910 C   0  0  0  0  0  0  0  0  0  0  0  0
  141.1220   75.4840  222.3440 O   0  0  0  0  0  0  0  0  0  0  0  0
  139.3720   74.4480  220.9800 C   0  0  0  0  0  0  0  0  0  0  0  0
  139.5170   73.5570  222.1440 N   0  0  0  0  0  0  0  0  0  0  0  0
  139.3640   72.1430  222.0150 C   0  0  0  0  0  0  0  0  0  0  0  0
  139.1020   71.5820  220.9290 O   0  0  0  0  0  0  0  0  0  0  0  0
  139.5210   71.3020  223.2130 C   0  0  0  0  0  0  0  0  0  0  0  0
  139.1150   69.9950  223.2540 C   0  0  0  0  0  0  0  0  0  0  0  0
  139.2840   69.2300  224.4130 C   0  0  0  0  0  0  0  0  0  0  0  0
  139.8690   69.8030  225.5380 C   0  0  0  0  0  0  0  0  0  0  0  0
  140.0580   69.0830  226.7110 C   0  0  0  0  0  0  0  0  0  0  0  0
  140.6560   69.7520  227.7850 C   0  0  0  0  0  0  0  0  0  0  0  0
  140.8710   69.1110  228.9590 F   0  0  0  0  0  0  0  0  0  0  0  0
  141.0480   71.0690  227.6990 C   0  0  0  0  0  0  0  0  0  0  0  0
  140.8490   71.7590  226.5230 C   0  0  0  0  0  0  0  0  0  0  0  0
  140.2600   71.1040  225.4640 C   0  0  0  0  0  0  0  0  0  0  0  0
  140.0850   71.8130  224.3340 N   0  0  0  0  0  0  0  0  0  0  0  0
  138.7890   79.1330  223.3070 C   0  0  0  0  0  0  0  0  0  0  0  0
  140.2000   79.6220  223.3120 C   0  0  0  0  0  0  0  0  0  0  0  0
  140.5430   80.9340  223.5060 C   0  0  0  0  0  0  0  0  0  0  0  0
  141.8840   81.3080  223.4960 C   0  0  0  0  0  0  0  0  0  0  0  0
  142.8810   80.3720  223.2920 C   0  0  0  0  0  0  0  0  0  0  0  0
  142.5510   79.0480  223.0960 C   0  0  0  0  0  0  0  0  0  0  0  0
  141.2180   78.6890  223.1070 C   0  0  0  0  0  0  0  0  0  0  0  0
  137.7912   76.9427  223.8934 H   0  0  0  0  0  0  0  0  0  0  0  0
  136.7887   77.0884  222.4100 H   0  0  0  0  0  0  0  0  0  0  0  0
  138.2454   76.0373  222.4100 H   0  0  0  0  0  0  0  0  0  0  0  0
  137.3074   78.0047  220.7455 H   0  0  0  0  0  0  0  0  0  0  0  0
  137.8419   79.6494  221.2580 H   0  0  0  0  0  0  0  0  0  0  0  0
  139.0179   79.1832  219.2089 H   0  0  0  0  0  0  0  0  0  0  0  0
  140.2172   78.9670  220.4798 H   0  0  0  0  0  0  0  0  0  0  0  0
  138.4631   76.5459  219.9654 H   0  0  0  0  0  0  0  0  0  0  0  0
  139.5208   76.9645  218.6061 H   0  0  0  0  0  0  0  0  0  0  0  0
  141.9880   75.9920  222.4040 H   0  0  0  0  0  0  0  0  0  0  0  0
  138.3455   74.8393  220.9235 H   0  0  0  0  0  0  0  0  0  0  0  0
  139.5700   73.9161  220.0378 H   0  0  0  0  0  0  0  0  0  0  0  0
  139.7340   73.9160  223.0950 H   0  0  0  0  0  0  0  0  0  0  0  0
  138.6508   69.5415  222.3658 H   0  0  0  0  0  0  0  0  0  0  0  0
  138.9559   68.1803  224.4349 H   0  0  0  0  0  0  0  0  0  0  0  0
  139.7502   68.0301  226.7923 H   0  0  0  0  0  0  0  0  0  0  0  0
  141.5160   71.5660  228.5615 H   0  0  0  0  0  0  0  0  0  0  0  0
  141.1544   72.8118  226.4317 H   0  0  0  0  0  0  0  0  0  0  0  0
  138.1227   79.9665  223.0401 H   0  0  0  0  0  0  0  0  0  0  0  0
  138.5529   78.7492  224.3105 H   0  0  0  0  0  0  0  0  0  0  0  0
  139.7609   81.6901  223.6693 H   0  0  0  0  0  0  0  0  0  0  0  0
  142.1541   82.3628  223.6526 H   0  0  0  0  0  0  0  0  0  0  0  0
  143.9360   80.6834  223.2861 H   0  0  0  0  0  0  0  0  0  0  0  0
  143.3341   78.2927  222.9341 H   0  0  0  0  0  0  0  0  0  0  0  0
  140.9494   77.6340  222.9492 H   0  0  0  0  0  0  0  0  0  0  0  0
  1  2  1  0
  2  3  1  0
  3  4  1  0
  4  5  1  0
  5  6  1  0
  6  7  2  0
  7  8  1  0
  7  9  1  0
  9 10  1  0
 10 11  1  0
 11 12  2  0
 11 13  1  0
 13 14  2  0
 14 15  1  0
 15 16  2  0
 16 17  1  0
 17 18  2  0
 18 19  1  0
 18 20  1  0
 20 21  2  0
 21 22  1  0
 22 23  2  0
  2 24  1  0
 24 25  1  0
 25 26  2  0
 26 27  1  0
 27 28  2  0
 28 29  1  0
 29 30  2  0
 23 13  1  0
 30 25  1  0
 22 16  1  0
  1 31  1  0
  1 32  1  0
  1 33  1  0
  3 34  1  0
  3 35  1  0
  4 36  1  0
  4 37  1  0
  5 38  1  0
  5 39  1  0
  8 40  1  0
  9 41  1  0
  9 42  1  0
 10 43  1  0
 14 44  1  0
 15 45  1  0
 17 46  1  0
 20 47  1  0
 21 48  1  0
 24 49  1  0
 24 50  1  0
 26 51  1  0
 27 52  1  0
 28 53  1  0
 29 54  1  0
 30 55  1  0
M  END
>  <smiles>  (73) 
CN(CCCN=C(O)CNC(=O)c1ccc2cc(F)ccc2n1)Cc1ccccc1

>  <score_type>  (73) 
oracle

>  <origin>  (73) 
autodockgpu

>  <m_score__min__energy>  (73) 
-8.0199999999999996

>  <m_primary>  (73) 
energy

>  <rmsd>  (73) 
0.9999738869978145

>  <m_score__min__rmsd>  (73) 
0.9999738869978145

>  <meeko>  (73) 
{"free_energy": -7.24, "intermolecular_energy": -10.52, "internal_energy": -2.48, "cluster_size": 27, "cluster_id": 1, "rank_in_cluster": 22}

>  <energy>  (73) 
-7.09

>  <cluster_rmsd>  (73) 
1.26

>  <cluster>  (73) 
1

$$$$

     RDKit          3D

 55 57  0  0  0  0  0  0  0  0999 V2000
  139.9530   78.9710  218.3880 C   0  0  0  0  0  0  0  0  0  0  0  0
  141.0030   78.5250  219.2370 N   0  0  0  0  0  0  0  0  0  0  0  0
  141.7090   77.4060  218.6770 C   0  0  0  0  0  0  0  0  0  0  0  0
  142.5900   76.7550  219.7270 C   0  0  0  0  0  0  0  0  0  0  0  0
  142.1630   75.2760  219.7250 C   0  0  0  0  0  0  0  0  0  0  0  0
  141.6640   75.0000  221.0500 N   0  0  0  0  0  0  0  0  0  0  0  0
  140.4140   74.7970  221.2120 C   0  0  0  0  0  0  0  0  0  0  0  0
  140.0310   74.0630  222.3410 O   0  0  0  0  0  0  0  0  0  0  0  0
  139.3310   75.2600  220.3230 C   0  0  0  0  0  0  0  0  0  0  0  0
  139.1320   76.6870  220.6350 N   0  0  0  0  0  0  0  0  0  0  0  0
  138.7070   77.1060  221.9320 C   0  0  0  0  0  0  0  0  0  0  0  0
  138.4800   76.3070  222.8670 O   0  0  0  0  0  0  0  0  0  0  0  0
  138.5260   78.5450  222.1870 C   0  0  0  0  0  0  0  0  0  0  0  0
  138.2320   79.0420  223.4280 C   0  0  0  0  0  0  0  0  0  0  0  0
  138.0690   80.4170  223.6270 C   0  0  0  0  0  0  0  0  0  0  0  0
  138.2050   81.2900  222.5520 C   0  0  0  0  0  0  0  0  0  0  0  0
  138.0530   82.6630  222.7010 C   0  0  0  0  0  0  0  0  0  0  0  0
  138.2100   83.4540  221.5570 C   0  0  0  0  0  0  0  0  0  0  0  0
  138.0760   84.8000  221.6290 F   0  0  0  0  0  0  0  0  0  0  0  0
  138.5060   82.9100  220.3270 C   0  0  0  0  0  0  0  0  0  0  0  0
  138.6520   81.5450  220.2080 C   0  0  0  0  0  0  0  0  0  0  0  0
  138.4970   80.7630  221.3320 C   0  0  0  0  0  0  0  0  0  0  0  0
  138.6480   79.4360  221.1730 N   0  0  0  0  0  0  0  0  0  0  0  0
  141.9330   79.5170  219.6770 C   0  0  0  0  0  0  0  0  0  0  0  0
  141.8650   79.7120  221.1570 C   0  0  0  0  0  0  0  0  0  0  0  0
  141.8230   78.6770  222.0520 C   0  0  0  0  0  0  0  0  0  0  0  0
  141.7610   78.9440  223.4180 C   0  0  0  0  0  0  0  0  0  0  0  0
  141.7400   80.2450  223.8860 C   0  0  0  0  0  0  0  0  0  0  0  0
  141.7830   81.2970  222.9970 C   0  0  0  0  0  0  0  0  0  0  0  0
  141.8440   81.0190  221.6450 C   0  0  0  0  0  0  0  0  0  0  0  0
  139.1124   79.3281  219.0011 H   0  0  0  0  0  0  0  0  0  0  0  0
  140.3183   79.7916  217.7531 H   0  0  0  0  0  0  0  0  0  0  0  0
  139.6161   78.1383  217.7531 H   0  0  0  0  0  0  0  0  0  0  0  0
  140.9823   76.6682  218.3060 H   0  0  0  0  0  0  0  0  0  0  0  0
  142.3427   77.7619  217.8513 H   0  0  0  0  0  0  0  0  0  0  0  0
  143.6522   76.8534  219.4587 H   0  0  0  0  0  0  0  0  0  0  0  0
  142.4763   77.2219  220.7165 H   0  0  0  0  0  0  0  0  0  0  0  0
  141.3737   75.1079  218.9775 H   0  0  0  0  0  0  0  0  0  0  0  0
  143.0045   74.6159  219.4678 H   0  0  0  0  0  0  0  0  0  0  0  0
  139.1670   74.2620  222.8160 H   0  0  0  0  0  0  0  0  0  0  0  0
  139.6219   75.1360  219.2694 H   0  0  0  0  0  0  0  0  0  0  0  0
  138.4082   74.6813  220.4766 H   0  0  0  0  0  0  0  0  0  0  0  0
  139.2910   77.4360  219.9330 H   0  0  0  0  0  0  0  0  0  0  0  0
  138.1227   78.3526  224.2782 H   0  0  0  0  0  0  0  0  0  0  0  0
  137.8344   80.8063  224.6287 H   0  0  0  0  0  0  0  0  0  0  0  0
  137.8188   83.1102  223.6783 H   0  0  0  0  0  0  0  0  0  0  0  0
  138.6248   83.5595  219.4472 H   0  0  0  0  0  0  0  0  0  0  0  0
  138.8876   81.0887  219.2352 H   0  0  0  0  0  0  0  0  0  0  0  0
  142.9503   79.1994  219.4045 H   0  0  0  0  0  0  0  0  0  0  0  0
  141.6774   80.4700  219.1908 H   0  0  0  0  0  0  0  0  0  0  0  0
  141.8382   77.6371  221.6936 H   0  0  0  0  0  0  0  0  0  0  0  0
  141.7283   78.1091  224.1334 H   0  0  0  0  0  0  0  0  0  0  0  0
  141.6890   80.4401  224.9674 H   0  0  0  0  0  0  0  0  0  0  0  0
  141.7691   82.3366  223.3563 H   0  0  0  0  0  0  0  0  0  0  0  0
  141.8770   81.8547  220.9305 H   0  0  0  0  0  0  0  0  0  0  0  0
  1  2  1  0
  2  3  1  0
  3  4  1  0
  4  5  1  0
  5  6  1  0
  6  7  2  0
  7  8  1  0
  7  9  1  0
  9 10  1  0
 10 11  1  0
 11 12  2  0
 11 13  1  0
 13 14  2  0
 14 15  1  0
 15 16  2  0
 16 17  1  0
 17 18  2  0
 18 19  1  0
 18 20  1  0
 20 21  2  0
 21 22  1  0
 22 23  2  0
  2 24  1  0
 24 25  1  0
 25 26  2  0
 26 27  1  0
 27 28  2  0
 28 29  1  0
 29 30  2  0
 23 13  1  0
 30 25  1  0
 22 16  1  0
  1 31  1  0
  1 32  1  0
  1 33  1  0
  3 34  1  0
  3 35  1  0
  4 36  1  0
  4 37  1  0
  5 38  1  0
  5 39  1  0
  8 40  1  0
  9 41  1  0
  9 42  1  0
 10 43  1  0
 14 44  1  0
 15 45  1  0
 17 46  1  0
 20 47  1  0
 21 48  1  0
 24 49  1  0
 24 50  1  0
 26 51  1  0
 27 52  1  0
 28 53  1  0
 29 54  1  0
 30 55  1  0
M  END
>  <smiles>  (74) 
CN(CCCN=C(O)CNC(=O)c1ccc2cc(F)ccc2n1)Cc1ccccc1

>  <score_type>  (74) 
oracle

>  <origin>  (74) 
autodockgpu

>  <m_score__min__energy>  (74) 
-8.0199999999999996

>  <m_primary>  (74) 
energy

>  <rmsd>  (74) 
10.932619949488888

>  <m_score__min__rmsd>  (74) 
10.932619949488888

>  <meeko>  (74) 
{"free_energy": -4.44, "intermolecular_energy": -7.72, "internal_energy": -5.09, "cluster_size": 2, "cluster_id": 10, "rank_in_cluster": 1}

>  <energy>  (74) 
-7.09

>  <cluster_rmsd>  (74) 
1.51

>  <cluster>  (74) 
1

$$$$

     RDKit          3D

 55 57  0  0  0  0  0  0  0  0999 V2000
  141.3290   78.5800  217.6370 C   0  0  0  0  0  0  0  0  0  0  0  0
  141.5510   78.5000  219.0380 N   0  0  0  0  0  0  0  0  0  0  0  0
  142.5750   77.5470  219.3680 C   0  0  0  0  0  0  0  0  0  0  0  0
  142.4580   76.3160  218.4890 C   0  0  0  0  0  0  0  0  0  0  0  0
  142.0080   75.1990  219.4470 C   0  0  0  0  0  0  0  0  0  0  0  0
  140.8100   75.6810  220.0910 N   0  0  0  0  0  0  0  0  0  0  0  0
  140.3540   75.0500  221.1030 C   0  0  0  0  0  0  0  0  0  0  0  0
  140.9980   75.2650  222.3270 O   0  0  0  0  0  0  0  0  0  0  0  0
  139.2130   74.1140  221.1090 C   0  0  0  0  0  0  0  0  0  0  0  0
  139.4190   73.2310  222.2700 N   0  0  0  0  0  0  0  0  0  0  0  0
  139.1140   71.8380  222.2020 C   0  0  0  0  0  0  0  0  0  0  0  0
  138.6610   71.2890  221.1740 O   0  0  0  0  0  0  0  0  0  0  0  0
  139.3420   71.0040  223.3930 C   0  0  0  0  0  0  0  0  0  0  0  0
  138.9790   69.6850  223.4500 C   0  0  0  0  0  0  0  0  0  0  0  0
  139.2140   68.9270  224.6020 C   0  0  0  0  0  0  0  0  0  0  0  0
  139.8220   69.5210  225.7040 C   0  0  0  0  0  0  0  0  0  0  0  0
  140.0760   68.8080  226.8700 C   0  0  0  0  0  0  0  0  0  0  0  0
  140.6920   69.4970  227.9210 C   0  0  0  0  0  0  0  0  0  0  0  0
  140.9700   68.8660  229.0870 F   0  0  0  0  0  0  0  0  0  0  0  0
  141.0390   70.8260  227.8210 C   0  0  0  0  0  0  0  0  0  0  0  0
  140.7760   71.5080  226.6520 C   0  0  0  0  0  0  0  0  0  0  0  0
  140.1690   70.8330  225.6150 C   0  0  0  0  0  0  0  0  0  0  0  0
  139.9300   71.5340  224.4920 N   0  0  0  0  0  0  0  0  0  0  0  0
  141.7970   79.7330  219.7180 C   0  0  0  0  0  0  0  0  0  0  0  0
  141.8090   79.5490  221.2000 C   0  0  0  0  0  0  0  0  0  0  0  0
  142.5800   80.3000  222.0470 C   0  0  0  0  0  0  0  0  0  0  0  0
  142.5330   80.0640  223.4190 C   0  0  0  0  0  0  0  0  0  0  0  0
  141.7160   79.0780  223.9420 C   0  0  0  0  0  0  0  0  0  0  0  0
  140.9340   78.3150  223.1010 C   0  0  0  0  0  0  0  0  0  0  0  0
  140.9900   78.5580  221.7430 C   0  0  0  0  0  0  0  0  0  0  0  0
  140.3096   78.9474  217.4477 H   0  0  0  0  0  0  0  0  0  0  0  0
  142.0573   79.2722  217.1893 H   0  0  0  0  0  0  0  0  0  0  0  0
  141.4483   77.5823  217.1893 H   0  0  0  0  0  0  0  0  0  0  0  0
  143.5618   78.0084  219.2153 H   0  0  0  0  0  0  0  0  0  0  0  0
  142.4558   77.2462  220.4193 H   0  0  0  0  0  0  0  0  0  0  0  0
  141.7108   76.4734  217.6972 H   0  0  0  0  0  0  0  0  0  0  0  0
  143.4027   76.0746  217.9799 H   0  0  0  0  0  0  0  0  0  0  0  0
  141.7949   74.2775  218.8853 H   0  0  0  0  0  0  0  0  0  0  0  0
  142.7909   74.9612  220.1822 H   0  0  0  0  0  0  0  0  0  0  0  0
  141.8660   75.7710  222.3710 H   0  0  0  0  0  0  0  0  0  0  0  0
  138.2667   74.6654  221.2112 H   0  0  0  0  0  0  0  0  0  0  0  0
  139.1567   73.5410  220.1717 H   0  0  0  0  0  0  0  0  0  0  0  0
  139.7910   73.5820  223.1760 H   0  0  0  0  0  0  0  0  0  0  0  0
  138.4969   69.2159  222.5797 H   0  0  0  0  0  0  0  0  0  0  0  0
  138.9199   67.8676  224.6367 H   0  0  0  0  0  0  0  0  0  0  0  0
  139.8041   67.7462  226.9628 H   0  0  0  0  0  0  0  0  0  0  0  0
  141.5216   71.3387  228.6661 H   0  0  0  0  0  0  0  0  0  0  0  0
  141.0452   72.5696  226.5490 H   0  0  0  0  0  0  0  0  0  0  0  0
  142.7728   80.1283  219.3992 H   0  0  0  0  0  0  0  0  0  0  0  0
  140.9881   80.4339  219.4643 H   0  0  0  0  0  0  0  0  0  0  0  0
  143.2345   81.0874  221.6449 H   0  0  0  0  0  0  0  0  0  0  0  0
  143.1538   80.6698  224.0955 H   0  0  0  0  0  0  0  0  0  0  0  0
  141.6902   78.9028  225.0277 H   0  0  0  0  0  0  0  0  0  0  0  0
  140.2788   77.5286  223.5038 H   0  0  0  0  0  0  0  0  0  0  0  0
  140.3692   77.9511  221.0675 H   0  0  0  0  0  0  0  0  0  0  0  0
  1  2  1  0
  2  3  1  0
  3  4  1  0
  4  5  1  0
  5  6  1  0
  6  7  2  0
  7  8  1  0
  7  9  1  0
  9 10  1  0
 10 11  1  0
 11 12  2  0
 11 13  1  0
 13 14  2  0
 14 15  1  0
 15 16  2  0
 16 17  1  0
 17 18  2  0
 18 19  1  0
 18 20  1  0
 20 21  2  0
 21 22  1  0
 22 23  2  0
  2 24  1  0
 24 25  1  0
 25 26  2  0
 26 27  1  0
 27 28  2  0
 28 29  1  0
 29 30  2  0
 23 13  1  0
 30 25  1  0
 22 16  1  0
  1 31  1  0
  1 32  1  0
  1 33  1  0
  3 34  1  0
  3 35  1  0
  4 36  1  0
  4 37  1  0
  5 38  1  0
  5 39  1  0
  8 40  1  0
  9 41  1  0
  9 42  1  0
 10 43  1  0
 14 44  1  0
 15 45  1  0
 17 46  1  0
 20 47  1  0
 21 48  1  0
 24 49  1  0
 24 50  1  0
 26 51  1  0
 27 52  1  0
 28 53  1  0
 29 54  1  0
 30 55  1  0
M  END
>  <smiles>  (75) 
CN(CCCN=C(O)CNC(=O)c1ccc2cc(F)ccc2n1)Cc1ccccc1

>  <score_type>  (75) 
oracle

>  <origin>  (75) 
autodockgpu

>  <m_score__min__energy>  (75) 
-8.0199999999999996

>  <m_primary>  (75) 
energy

>  <rmsd>  (75) 
0.8080995311631775

>  <m_score__min__rmsd>  (75) 
0.8080995311631775

>  <meeko>  (75) 
{"free_energy": -7.42, "intermolecular_energy": -10.71, "internal_energy": -2.21, "cluster_size": 27, "cluster_id": 1, "rank_in_cluster": 18}

>  <energy>  (75) 
-7.03

>  <cluster_rmsd>  (75) 
1.16

>  <cluster>  (75) 
1

$$$$

     RDKit          3D

 55 57  0  0  0  0  0  0  0  0999 V2000
  137.7490   69.2930  225.2590 C   0  0  0  0  0  0  0  0  0  0  0  0
  138.9430   68.6250  224.8720 N   0  0  0  0  0  0  0  0  0  0  0  0
  139.5340   69.2140  223.7020 C   0  0  0  0  0  0  0  0  0  0  0  0
  138.5440   70.1330  223.0120 C   0  0  0  0  0  0  0  0  0  0  0  0
  139.0160   71.5520  223.3780 C   0  0  0  0  0  0  0  0  0  0  0  0
  140.1510   71.8290  222.5310 N   0  0  0  0  0  0  0  0  0  0  0  0
  140.2850   72.9980  222.0380 C   0  0  0  0  0  0  0  0  0  0  0  0
  139.5670   74.0320  222.6510 O   0  0  0  0  0  0  0  0  0  0  0  0
  141.1240   73.3690  220.8810 C   0  0  0  0  0  0  0  0  0  0  0  0
  141.0840   74.8400  220.8070 N   0  0  0  0  0  0  0  0  0  0  0  0
  142.1250   75.5760  220.1640 C   0  0  0  0  0  0  0  0  0  0  0  0
  143.1170   75.0310  219.6340 O   0  0  0  0  0  0  0  0  0  0  0  0
  142.0300   77.0440  220.1190 C   0  0  0  0  0  0  0  0  0  0  0  0
  142.2010   77.7580  218.9630 C   0  0  0  0  0  0  0  0  0  0  0  0
  142.1030   79.1540  218.9640 C   0  0  0  0  0  0  0  0  0  0  0  0
  141.8300   79.8240  220.1520 C   0  0  0  0  0  0  0  0  0  0  0  0
  141.7230   81.2090  220.2020 C   0  0  0  0  0  0  0  0  0  0  0  0
  141.4460   81.7870  221.4460 C   0  0  0  0  0  0  0  0  0  0  0  0
  141.3280   83.1300  221.5690 F   0  0  0  0  0  0  0  0  0  0  0  0
  141.2820   81.0280  222.5840 C   0  0  0  0  0  0  0  0  0  0  0  0
  141.3940   79.6570  222.5060 C   0  0  0  0  0  0  0  0  0  0  0  0
  141.6670   79.0850  221.2820 C   0  0  0  0  0  0  0  0  0  0  0  0
  141.7670   77.7440  221.2480 N   0  0  0  0  0  0  0  0  0  0  0  0
  139.9360   68.4530  225.8850 C   0  0  0  0  0  0  0  0  0  0  0  0
  140.2650   69.7470  226.5550 C   0  0  0  0  0  0  0  0  0  0  0  0
  139.7840   70.1020  227.7870 C   0  0  0  0  0  0  0  0  0  0  0  0
  140.1390   71.3290  228.3420 C   0  0  0  0  0  0  0  0  0  0  0  0
  140.9730   72.2000  227.6650 C   0  0  0  0  0  0  0  0  0  0  0  0
  141.4650   71.8560  226.4240 C   0  0  0  0  0  0  0  0  0  0  0  0
  141.1050   70.6370  225.8840 C   0  0  0  0  0  0  0  0  0  0  0  0
  137.6874   69.3274  226.3567 H   0  0  0  0  0  0  0  0  0  0  0  0
  137.7564   70.3180  224.8598 H   0  0  0  0  0  0  0  0  0  0  0  0
  136.8794   68.7504  224.8598 H   0  0  0  0  0  0  0  0  0  0  0  0
  140.4210   69.7937  223.9973 H   0  0  0  0  0  0  0  0  0  0  0  0
  139.8198   68.4119  223.0056 H   0  0  0  0  0  0  0  0  0  0  0  0
  138.5691   69.9838  221.9224 H   0  0  0  0  0  0  0  0  0  0  0  0
  137.5072   69.9428  223.3265 H   0  0  0  0  0  0  0  0  0  0  0  0
  138.2137   72.2809  223.1911 H   0  0  0  0  0  0  0  0  0  0  0  0
  139.2830   71.6238  224.4427 H   0  0  0  0  0  0  0  0  0  0  0  0
  138.6190   73.8900  222.9580 H   0  0  0  0  0  0  0  0  0  0  0  0
  142.1569   73.0216  221.0305 H   0  0  0  0  0  0  0  0  0  0  0  0
  140.7568   72.9082  219.9521 H   0  0  0  0  0  0  0  0  0  0  0  0
  140.3050   75.3960  221.2140 H   0  0  0  0  0  0  0  0  0  0  0  0
  142.4177   77.2285  218.0235 H   0  0  0  0  0  0  0  0  0  0  0  0
  142.2411   79.7186  218.0301 H   0  0  0  0  0  0  0  0  0  0  0  0
  141.8509   81.8258  219.3002 H   0  0  0  0  0  0  0  0  0  0  0  0
  141.0634   81.5126  223.5470 H   0  0  0  0  0  0  0  0  0  0  0  0
  141.2681   79.0317  223.4022 H   0  0  0  0  0  0  0  0  0  0  0  0
  139.5589   67.7461  226.6387 H   0  0  0  0  0  0  0  0  0  0  0  0
  140.8505   68.0683  225.4099 H   0  0  0  0  0  0  0  0  0  0  0  0
  139.1190   69.4198  228.3369 H   0  0  0  0  0  0  0  0  0  0  0  0
  139.7507   71.6092  229.3323 H   0  0  0  0  0  0  0  0  0  0  0  0
  141.2435   73.1661  228.1162 H   0  0  0  0  0  0  0  0  0  0  0  0
  142.1306   72.5384  225.8752 H   0  0  0  0  0  0  0  0  0  0  0  0
  141.4928   70.3585  224.8930 H   0  0  0  0  0  0  0  0  0  0  0  0
  1  2  1  0
  2  3  1  0
  3  4  1  0
  4  5  1  0
  5  6  1  0
  6  7  2  0
  7  8  1  0
  7  9  1  0
  9 10  1  0
 10 11  1  0
 11 12  2  0
 11 13  1  0
 13 14  2  0
 14 15  1  0
 15 16  2  0
 16 17  1  0
 17 18  2  0
 18 19  1  0
 18 20  1  0
 20 21  2  0
 21 22  1  0
 22 23  2  0
  2 24  1  0
 24 25  1  0
 25 26  2  0
 26 27  1  0
 27 28  2  0
 28 29  1  0
 29 30  2  0
 23 13  1  0
 30 25  1  0
 22 16  1  0
  1 31  1  0
  1 32  1  0
  1 33  1  0
  3 34  1  0
  3 35  1  0
  4 36  1  0
  4 37  1  0
  5 38  1  0
  5 39  1  0
  8 40  1  0
  9 41  1  0
  9 42  1  0
 10 43  1  0
 14 44  1  0
 15 45  1  0
 17 46  1  0
 20 47  1  0
 21 48  1  0
 24 49  1  0
 24 50  1  0
 26 51  1  0
 27 52  1  0
 28 53  1  0
 29 54  1  0
 30 55  1  0
M  END
>  <smiles>  (76) 
CN(CCCN=C(O)CNC(=O)c1ccc2cc(F)ccc2n1)Cc1ccccc1

>  <score_type>  (76) 
oracle

>  <origin>  (76) 
autodockgpu

>  <m_score__min__energy>  (76) 
-8.0199999999999996

>  <m_primary>  (76) 
energy

>  <rmsd>  (76) 
10.014695054474188

>  <m_score__min__rmsd>  (76) 
10.014695054474188

>  <meeko>  (76) 
{"free_energy": -7.65, "intermolecular_energy": -10.93, "internal_energy": -1.82, "cluster_size": 2, "cluster_id": 4, "rank_in_cluster": 1}

>  <energy>  (76) 
-6.92

>  <cluster_rmsd>  (76) 
1.8

>  <cluster>  (76) 
1

$$$$

     RDKit          3D

 55 57  0  0  0  0  0  0  0  0999 V2000
  137.0290   77.7700  222.3520 C   0  0  0  0  0  0  0  0  0  0  0  0
  138.3080   78.3850  222.2660 N   0  0  0  0  0  0  0  0  0  0  0  0
  138.6580   78.7130  220.9110 C   0  0  0  0  0  0  0  0  0  0  0  0
  138.8130   77.4530  220.0820 C   0  0  0  0  0  0  0  0  0  0  0  0
  140.3340   77.2750  219.9320 C   0  0  0  0  0  0  0  0  0  0  0  0
  140.7990   76.7230  221.1810 N   0  0  0  0  0  0  0  0  0  0  0  0
  140.2110   75.6980  221.6630 C   0  0  0  0  0  0  0  0  0  0  0  0
  139.4990   75.8770  222.8550 O   0  0  0  0  0  0  0  0  0  0  0  0
  140.2060   74.3400  221.0850 C   0  0  0  0  0  0  0  0  0  0  0  0
  139.9960   73.4190  222.2160 N   0  0  0  0  0  0  0  0  0  0  0  0
  140.4290   72.0600  222.1520 C   0  0  0  0  0  0  0  0  0  0  0  0
  141.0020   71.5730  221.1530 O   0  0  0  0  0  0  0  0  0  0  0  0
  140.1930   71.1870  223.3130 C   0  0  0  0  0  0  0  0  0  0  0  0
  139.5430   69.9860  223.2120 C   0  0  0  0  0  0  0  0  0  0  0  0
  139.3390   69.1860  224.3420 C   0  0  0  0  0  0  0  0  0  0  0  0
  139.8020   69.6140  225.5820 C   0  0  0  0  0  0  0  0  0  0  0  0
  139.6240   68.8540  226.7320 C   0  0  0  0  0  0  0  0  0  0  0  0
  140.1270   69.3740  227.9290 C   0  0  0  0  0  0  0  0  0  0  0  0
  139.9890   68.6870  229.0880 F   0  0  0  0  0  0  0  0  0  0  0  0
  140.7750   70.5880  227.9840 C   0  0  0  0  0  0  0  0  0  0  0  0
  140.9370   71.3210  226.8290 C   0  0  0  0  0  0  0  0  0  0  0  0
  140.4430   70.8120  225.6480 C   0  0  0  0  0  0  0  0  0  0  0  0
  140.6230   71.5590  224.5430 N   0  0  0  0  0  0  0  0  0  0  0  0
  138.5320   79.5130  223.1140 C   0  0  0  0  0  0  0  0  0  0  0  0
  139.9810   79.8680  223.1810 C   0  0  0  0  0  0  0  0  0  0  0  0
  140.4550   81.1410  222.9980 C   0  0  0  0  0  0  0  0  0  0  0  0
  141.8230   81.3880  223.0760 C   0  0  0  0  0  0  0  0  0  0  0  0
  142.7160   80.3650  223.3350 C   0  0  0  0  0  0  0  0  0  0  0  0
  142.2540   79.0800  223.5210 C   0  0  0  0  0  0  0  0  0  0  0  0
  140.8950   78.8470  223.4410 C   0  0  0  0  0  0  0  0  0  0  0  0
  136.7557   77.6386  223.4094 H   0  0  0  0  0  0  0  0  0  0  0  0
  136.2817   78.4072  221.8566 H   0  0  0  0  0  0  0  0  0  0  0  0
  137.0601   76.7884  221.8566 H   0  0  0  0  0  0  0  0  0  0  0  0
  137.8658   79.3386  220.4739 H   0  0  0  0  0  0  0  0  0  0  0  0
  139.6139   79.2573  220.9126 H   0  0  0  0  0  0  0  0  0  0  0  0
  138.3698   76.5898  220.6001 H   0  0  0  0  0  0  0  0  0  0  0  0
  138.3027   77.5263  219.1103 H   0  0  0  0  0  0  0  0  0  0  0  0
  140.5576   76.5864  219.1039 H   0  0  0  0  0  0  0  0  0  0  0  0
  140.8295   78.2309  219.7067 H   0  0  0  0  0  0  0  0  0  0  0  0
  138.7710   75.2360  223.1220 H   0  0  0  0  0  0  0  0  0  0  0  0
  139.3910   74.2389  220.3532 H   0  0  0  0  0  0  0  0  0  0  0  0
  141.1464   74.1228  220.5573 H   0  0  0  0  0  0  0  0  0  0  0  0
  139.5300   73.7180  223.0960 H   0  0  0  0  0  0  0  0  0  0  0  0
  139.1771   69.6463  222.2318 H   0  0  0  0  0  0  0  0  0  0  0  0
  138.8150   68.2232  224.2501 H   0  0  0  0  0  0  0  0  0  0  0  0
  139.1084   67.8828  226.7019 H   0  0  0  0  0  0  0  0  0  0  0  0
  141.1597   70.9689  228.9416 H   0  0  0  0  0  0  0  0  0  0  0  0
  141.4506   72.2935  226.8493 H   0  0  0  0  0  0  0  0  0  0  0  0
  137.9710   80.3733  222.7201 H   0  0  0  0  0  0  0  0  0  0  0  0
  138.1925   79.2553  224.1281 H   0  0  0  0  0  0  0  0  0  0  0  0
  139.7567   81.9651  222.7901 H   0  0  0  0  0  0  0  0  0  0  0  0
  142.1985   82.4115  222.9295 H   0  0  0  0  0  0  0  0  0  0  0  0
  143.7940   80.5764  223.3926 H   0  0  0  0  0  0  0  0  0  0  0  0
  142.9533   78.2567  223.7289 H   0  0  0  0  0  0  0  0  0  0  0  0
  140.5213   77.8228  223.5871 H   0  0  0  0  0  0  0  0  0  0  0  0
  1  2  1  0
  2  3  1  0
  3  4  1  0
  4  5  1  0
  5  6  1  0
  6  7  2  0
  7  8  1  0
  7  9  1  0
  9 10  1  0
 10 11  1  0
 11 12  2  0
 11 13  1  0
 13 14  2  0
 14 15  1  0
 15 16  2  0
 16 17  1  0
 17 18  2  0
 18 19  1  0
 18 20  1  0
 20 21  2  0
 21 22  1  0
 22 23  2  0
  2 24  1  0
 24 25  1  0
 25 26  2  0
 26 27  1  0
 27 28  2  0
 28 29  1  0
 29 30  2  0
 23 13  1  0
 30 25  1  0
 22 16  1  0
  1 31  1  0
  1 32  1  0
  1 33  1  0
  3 34  1  0
  3 35  1  0
  4 36  1  0
  4 37  1  0
  5 38  1  0
  5 39  1  0
  8 40  1  0
  9 41  1  0
  9 42  1  0
 10 43  1  0
 14 44  1  0
 15 45  1  0
 17 46  1  0
 20 47  1  0
 21 48  1  0
 24 49  1  0
 24 50  1  0
 26 51  1  0
 27 52  1  0
 28 53  1  0
 29 54  1  0
 30 55  1  0
M  END
>  <smiles>  (77) 
CN(CCCN=C(O)CNC(=O)c1ccc2cc(F)ccc2n1)Cc1ccccc1

>  <score_type>  (77) 
oracle

>  <origin>  (77) 
autodockgpu

>  <m_score__min__energy>  (77) 
-8.0199999999999996

>  <m_primary>  (77) 
energy

>  <rmsd>  (77) 
1.3035578899123375

>  <m_score__min__rmsd>  (77) 
1.3035578899123375

>  <meeko>  (77) 
{"free_energy": -7.52, "intermolecular_energy": -10.8, "internal_energy": -2.2, "cluster_size": 27, "cluster_id": 1, "rank_in_cluster": 13}

>  <energy>  (77) 
-6.87

>  <cluster_rmsd>  (77) 
1.88

>  <cluster>  (77) 
1

$$$$

     RDKit          3D

 55 57  0  0  0  0  0  0  0  0999 V2000
  139.1910   67.3440  226.8540 C   0  0  0  0  0  0  0  0  0  0  0  0
  140.1310   67.5660  225.8110 N   0  0  0  0  0  0  0  0  0  0  0  0
  139.5640   68.3200  224.7270 C   0  0  0  0  0  0  0  0  0  0  0  0
  138.3290   69.0700  225.1900 C   0  0  0  0  0  0  0  0  0  0  0  0
  138.5910   70.5310  224.7840 C   0  0  0  0  0  0  0  0  0  0  0  0
  138.2990   70.6150  223.3730 N   0  0  0  0  0  0  0  0  0  0  0  0
  138.6980   71.6350  222.7180 C   0  0  0  0  0  0  0  0  0  0  0  0
  137.7950   72.6970  222.5860 O   0  0  0  0  0  0  0  0  0  0  0  0
  140.0200   71.8060  222.0840 C   0  0  0  0  0  0  0  0  0  0  0  0
  140.2270   73.2600  221.9640 N   0  0  0  0  0  0  0  0  0  0  0  0
  141.3170   73.7900  221.2100 C   0  0  0  0  0  0  0  0  0  0  0  0
  142.1490   73.0710  220.6150 O   0  0  0  0  0  0  0  0  0  0  0  0
  141.4740   75.2510  221.1250 C   0  0  0  0  0  0  0  0  0  0  0  0
  142.1720   75.8600  220.1160 C   0  0  0  0  0  0  0  0  0  0  0  0
  142.2970   77.2530  220.0720 C   0  0  0  0  0  0  0  0  0  0  0  0
  141.7060   78.0290  221.0640 C   0  0  0  0  0  0  0  0  0  0  0  0
  141.8020   79.4150  221.0620 C   0  0  0  0  0  0  0  0  0  0  0  0
  141.1720   80.1040  222.1050 C   0  0  0  0  0  0  0  0  0  0  0  0
  141.2250   81.4560  222.1670 F   0  0  0  0  0  0  0  0  0  0  0  0
  140.4810   79.4500  223.1000 C   0  0  0  0  0  0  0  0  0  0  0  0
  140.4010   78.0740  223.0780 C   0  0  0  0  0  0  0  0  0  0  0  0
  141.0200   77.3930  222.0520 C   0  0  0  0  0  0  0  0  0  0  0  0
  140.9180   76.0510  222.0660 N   0  0  0  0  0  0  0  0  0  0  0  0
  141.3870   68.1320  226.1930 C   0  0  0  0  0  0  0  0  0  0  0  0
  141.2440   69.5630  226.5930 C   0  0  0  0  0  0  0  0  0  0  0  0
  141.6260   70.6110  225.7970 C   0  0  0  0  0  0  0  0  0  0  0  0
  141.4580   71.9180  226.2460 C   0  0  0  0  0  0  0  0  0  0  0  0
  140.9100   72.1780  227.4880 C   0  0  0  0  0  0  0  0  0  0  0  0
  140.5200   71.1340  228.3000 C   0  0  0  0  0  0  0  0  0  0  0  0
  140.6920   69.8420  227.8440 C   0  0  0  0  0  0  0  0  0  0  0  0
  139.6891   67.4616  227.8277 H   0  0  0  0  0  0  0  0  0  0  0  0
  138.3718   68.0734  226.7707 H   0  0  0  0  0  0  0  0  0  0  0  0
  138.7847   66.3252  226.7707 H   0  0  0  0  0  0  0  0  0  0  0  0
  140.3088   69.0412  224.3592 H   0  0  0  0  0  0  0  0  0  0  0  0
  139.2782   67.6264  223.9225 H   0  0  0  0  0  0  0  0  0  0  0  0
  137.4288   68.6830  224.6901 H   0  0  0  0  0  0  0  0  0  0  0  0
  138.1539   68.9610  226.2705 H   0  0  0  0  0  0  0  0  0  0  0  0
  137.9344   71.2078  225.3503 H   0  0  0  0  0  0  0  0  0  0  0  0
  139.6290   70.8264  224.9970 H   0  0  0  0  0  0  0  0  0  0  0  0
  137.9690   73.5800  223.0340 H   0  0  0  0  0  0  0  0  0  0  0  0
  140.8054   71.3584  222.7108 H   0  0  0  0  0  0  0  0  0  0  0  0
  140.0640   71.3101  221.1031 H   0  0  0  0  0  0  0  0  0  0  0  0
  139.5960   73.9500  222.4180 H   0  0  0  0  0  0  0  0  0  0  0  0
  142.6396   75.2471  219.3314 H   0  0  0  0  0  0  0  0  0  0  0  0
  142.8597   77.7321  219.2572 H   0  0  0  0  0  0  0  0  0  0  0  0
  142.3509   79.9494  220.2726 H   0  0  0  0  0  0  0  0  0  0  0  0
  139.9967   80.0208  223.9060 H   0  0  0  0  0  0  0  0  0  0  0  0
  139.8545   77.5308  223.8630 H   0  0  0  0  0  0  0  0  0  0  0  0
  141.7921   67.5624  227.0424 H   0  0  0  0  0  0  0  0  0  0  0  0
  142.0651   68.0818  225.3283 H   0  0  0  0  0  0  0  0  0  0  0  0
  142.0641   70.4201  224.8062 H   0  0  0  0  0  0  0  0  0  0  0  0
  141.7658   72.7558  225.6031 H   0  0  0  0  0  0  0  0  0  0  0  0
  140.7852   73.2166  227.8283 H   0  0  0  0  0  0  0  0  0  0  0  0
  140.0811   71.3263  229.2902 H   0  0  0  0  0  0  0  0  0  0  0  0
  140.3838   69.0052  228.4880 H   0  0  0  0  0  0  0  0  0  0  0  0
  1  2  1  0
  2  3  1  0
  3  4  1  0
  4  5  1  0
  5  6  1  0
  6  7  2  0
  7  8  1  0
  7  9  1  0
  9 10  1  0
 10 11  1  0
 11 12  2  0
 11 13  1  0
 13 14  2  0
 14 15  1  0
 15 16  2  0
 16 17  1  0
 17 18  2  0
 18 19  1  0
 18 20  1  0
 20 21  2  0
 21 22  1  0
 22 23  2  0
  2 24  1  0
 24 25  1  0
 25 26  2  0
 26 27  1  0
 27 28  2  0
 28 29  1  0
 29 30  2  0
 23 13  1  0
 30 25  1  0
 22 16  1  0
  1 31  1  0
  1 32  1  0
  1 33  1  0
  3 34  1  0
  3 35  1  0
  4 36  1  0
  4 37  1  0
  5 38  1  0
  5 39  1  0
  8 40  1  0
  9 41  1  0
  9 42  1  0
 10 43  1  0
 14 44  1  0
 15 45  1  0
 17 46  1  0
 20 47  1  0
 21 48  1  0
 24 49  1  0
 24 50  1  0
 26 51  1  0
 27 52  1  0
 28 53  1  0
 29 54  1  0
 30 55  1  0
M  END
>  <smiles>  (78) 
CN(CCCN=C(O)CNC(=O)c1ccc2cc(F)ccc2n1)Cc1ccccc1

>  <score_type>  (78) 
oracle

>  <origin>  (78) 
autodockgpu

>  <m_score__min__energy>  (78) 
-8.0199999999999996

>  <m_primary>  (78) 
energy

>  <rmsd>  (78) 
8.461124815322835

>  <m_score__min__rmsd>  (78) 
8.461124815322835

>  <meeko>  (78) 
{"free_energy": -7.3, "intermolecular_energy": -10.58, "internal_energy": -2.2, "cluster_size": 4, "cluster_id": 3, "rank_in_cluster": 3}

>  <energy>  (78) 
-7.91

>  <cluster_rmsd>  (78) 
0.0

>  <cluster>  (78) 
2

$$$$

     RDKit          3D

 55 57  0  0  0  0  0  0  0  0999 V2000
  139.5180   77.8120  219.1260 C   0  0  0  0  0  0  0  0  0  0  0  0
  140.6610   77.4370  219.8830 N   0  0  0  0  0  0  0  0  0  0  0  0
  141.2050   76.1790  219.4510 C   0  0  0  0  0  0  0  0  0  0  0  0
  142.2030   75.6550  220.4660 C   0  0  0  0  0  0  0  0  0  0  0  0
  141.6300   74.2960  220.9040 C   0  0  0  0  0  0  0  0  0  0  0  0
  140.6900   74.5780  221.9620 N   0  0  0  0  0  0  0  0  0  0  0  0
  139.4410   74.5740  221.6980 C   0  0  0  0  0  0  0  0  0  0  0  0
  138.8330   75.8170  221.4880 O   0  0  0  0  0  0  0  0  0  0  0  0
  138.5730   73.3850  221.5930 C   0  0  0  0  0  0  0  0  0  0  0  0
  138.9460   72.5100  222.7190 N   0  0  0  0  0  0  0  0  0  0  0  0
  138.6290   71.1180  222.7090 C   0  0  0  0  0  0  0  0  0  0  0  0
  138.0260   70.5630  221.7650 O   0  0  0  0  0  0  0  0  0  0  0  0
  139.0280   70.2930  223.8610 C   0  0  0  0  0  0  0  0  0  0  0  0
  138.7930   68.9450  223.9190 C   0  0  0  0  0  0  0  0  0  0  0  0
  139.1890   68.1980  225.0330 C   0  0  0  0  0  0  0  0  0  0  0  0
  139.8280   68.8300  226.0950 C   0  0  0  0  0  0  0  0  0  0  0  0
  140.2400   68.1290  227.2220 C   0  0  0  0  0  0  0  0  0  0  0  0
  140.8740   68.8580  228.2350 C   0  0  0  0  0  0  0  0  0  0  0  0
  141.3020   68.2390  229.3610 F   0  0  0  0  0  0  0  0  0  0  0  0
  141.0900   70.2140  228.1340 C   0  0  0  0  0  0  0  0  0  0  0  0
  140.6710   70.8840  227.0050 C   0  0  0  0  0  0  0  0  0  0  0  0
  140.0460   70.1700  226.0060 C   0  0  0  0  0  0  0  0  0  0  0  0
  139.6530   70.8610  224.9210 N   0  0  0  0  0  0  0  0  0  0  0  0
  141.7040   78.4090  219.9880 C   0  0  0  0  0  0  0  0  0  0  0  0
  141.7920   78.9700  221.3700 C   0  0  0  0  0  0  0  0  0  0  0  0
  141.4530   78.2640  222.4930 C   0  0  0  0  0  0  0  0  0  0  0  0
  141.5650   78.8610  223.7460 C   0  0  0  0  0  0  0  0  0  0  0  0
  142.0130   80.1630  223.8750 C   0  0  0  0  0  0  0  0  0  0  0  0
  142.3590   80.8850  222.7530 C   0  0  0  0  0  0  0  0  0  0  0  0
  142.2440   80.2820  221.5160 C   0  0  0  0  0  0  0  0  0  0  0  0
  138.6983   78.0809  219.8085 H   0  0  0  0  0  0  0  0  0  0  0  0
  139.7655   78.6760  218.4918 H   0  0  0  0  0  0  0  0  0  0  0  0
  139.2056   76.9693  218.4918 H   0  0  0  0  0  0  0  0  0  0  0  0
  140.3880   75.4512  219.3376 H   0  0  0  0  0  0  0  0  0  0  0  0
  141.7190   76.3251  218.4895 H   0  0  0  0  0  0  0  0  0  0  0  0
  143.1946   75.5290  220.0069 H   0  0  0  0  0  0  0  0  0  0  0  0
  142.3391   76.3439  221.3127 H   0  0  0  0  0  0  0  0  0  0  0  0
  141.1198   73.8075  220.0607 H   0  0  0  0  0  0  0  0  0  0  0  0
  142.4252   73.6165  221.2446 H   0  0  0  0  0  0  0  0  0  0  0  0
  139.3820   76.6280  221.2570 H   0  0  0  0  0  0  0  0  0  0  0  0
  137.5149   73.6761  221.6692 H   0  0  0  0  0  0  0  0  0  0  0  0
  138.7020   72.8757  220.6266 H   0  0  0  0  0  0  0  0  0  0  0  0
  139.4500   72.8670  223.5560 H   0  0  0  0  0  0  0  0  0  0  0  0
  138.2872   68.4444  223.0802 H   0  0  0  0  0  0  0  0  0  0  0  0
  138.9961   67.1157  225.0694 H   0  0  0  0  0  0  0  0  0  0  0  0
  140.0747   67.0454  227.3143 H   0  0  0  0  0  0  0  0  0  0  0  0
  141.5926   70.7578  228.9474 H   0  0  0  0  0  0  0  0  0  0  0  0
  140.8323   71.9674  226.9034 H   0  0  0  0  0  0  0  0  0  0  0  0
  142.6627   77.9336  219.7334 H   0  0  0  0  0  0  0  0  0  0  0  0
  141.4793   79.2328  219.2946 H   0  0  0  0  0  0  0  0  0  0  0  0
  141.0932   77.2282  222.4057 H   0  0  0  0  0  0  0  0  0  0  0  0
  141.2934   78.2891  224.6456 H   0  0  0  0  0  0  0  0  0  0  0  0
  142.0931   80.6218  224.8716 H   0  0  0  0  0  0  0  0  0  0  0  0
  142.7194   81.9205  222.8412 H   0  0  0  0  0  0  0  0  0  0  0  0
  142.5174   80.8542  220.6172 H   0  0  0  0  0  0  0  0  0  0  0  0
  1  2  1  0
  2  3  1  0
  3  4  1  0
  4  5  1  0
  5  6  1  0
  6  7  2  0
  7  8  1  0
  7  9  1  0
  9 10  1  0
 10 11  1  0
 11 12  2  0
 11 13  1  0
 13 14  2  0
 14 15  1  0
 15 16  2  0
 16 17  1  0
 17 18  2  0
 18 19  1  0
 18 20  1  0
 20 21  2  0
 21 22  1  0
 22 23  2  0
  2 24  1  0
 24 25  1  0
 25 26  2  0
 26 27  1  0
 27 28  2  0
 28 29  1  0
 29 30  2  0
 23 13  1  0
 30 25  1  0
 22 16  1  0
  1 31  1  0
  1 32  1  0
  1 33  1  0
  3 34  1  0
  3 35  1  0
  4 36  1  0
  4 37  1  0
  5 38  1  0
  5 39  1  0
  8 40  1  0
  9 41  1  0
  9 42  1  0
 10 43  1  0
 14 44  1  0
 15 45  1  0
 17 46  1  0
 20 47  1  0
 21 48  1  0
 24 49  1  0
 24 50  1  0
 26 51  1  0
 27 52  1  0
 28 53  1  0
 29 54  1  0
 30 55  1  0
M  END
>  <smiles>  (79) 
CN(CCCN=C(O)CNC(=O)c1ccc2cc(F)ccc2n1)Cc1ccccc1

>  <score_type>  (79) 
oracle

>  <origin>  (79) 
autodockgpu

>  <m_score__min__energy>  (79) 
-8.0199999999999996

>  <m_primary>  (79) 
energy

>  <rmsd>  (79) 
0.9100519596619643

>  <m_score__min__rmsd>  (79) 
0.9100519596619643

>  <meeko>  (79) 
{"free_energy": -7.03, "intermolecular_energy": -10.31, "internal_energy": -2.49, "cluster_size": 27, "cluster_id": 1, "rank_in_cluster": 25}

>  <energy>  (79) 
-7.74

>  <cluster_rmsd>  (79) 
1.7

>  <cluster>  (79) 
2

$$$$

     RDKit          3D

 55 57  0  0  0  0  0  0  0  0999 V2000
  142.5800   77.2120  218.5260 C   0  0  0  0  0  0  0  0  0  0  0  0
  142.5750   76.7670  219.8750 N   0  0  0  0  0  0  0  0  0  0  0  0
  141.8500   77.6610  220.7350 C   0  0  0  0  0  0  0  0  0  0  0  0
  141.0700   76.8820  221.7770 C   0  0  0  0  0  0  0  0  0  0  0  0
  139.6740   77.5290  221.7760 C   0  0  0  0  0  0  0  0  0  0  0  0
  138.8100   76.6210  221.0620 N   0  0  0  0  0  0  0  0  0  0  0  0
  138.6260   75.4460  221.5250 C   0  0  0  0  0  0  0  0  0  0  0  0
  137.7160   75.3150  222.5810 O   0  0  0  0  0  0  0  0  0  0  0  0
  139.2820   74.2090  221.0570 C   0  0  0  0  0  0  0  0  0  0  0  0
  139.2720   73.2860  222.2060 N   0  0  0  0  0  0  0  0  0  0  0  0
  139.9640   72.0380  222.1570 C   0  0  0  0  0  0  0  0  0  0  0  0
  140.6100   71.6560  221.1570 O   0  0  0  0  0  0  0  0  0  0  0  0
  139.9200   71.1570  223.3350 C   0  0  0  0  0  0  0  0  0  0  0  0
  139.3460   69.9140  223.3050 C   0  0  0  0  0  0  0  0  0  0  0  0
  139.3260   69.1080  224.4480 C   0  0  0  0  0  0  0  0  0  0  0  0
  139.8940   69.5740  225.6300 C   0  0  0  0  0  0  0  0  0  0  0  0
  139.8980   68.8090  226.7900 C   0  0  0  0  0  0  0  0  0  0  0  0
  140.4960   69.3690  227.9250 C   0  0  0  0  0  0  0  0  0  0  0  0
  140.5360   68.6810  229.0910 F   0  0  0  0  0  0  0  0  0  0  0  0
  141.0610   70.6250  227.9100 C   0  0  0  0  0  0  0  0  0  0  0  0
  141.0430   71.3610  226.7450 C   0  0  0  0  0  0  0  0  0  0  0  0
  140.4550   70.8140  225.6260 C   0  0  0  0  0  0  0  0  0  0  0  0
  140.4590   71.5640  224.5090 N   0  0  0  0  0  0  0  0  0  0  0  0
  142.1500   75.4210  220.1030 C   0  0  0  0  0  0  0  0  0  0  0  0
  143.3090   74.5210  220.3810 C   0  0  0  0  0  0  0  0  0  0  0  0
  144.6040   74.9590  220.4510 C   0  0  0  0  0  0  0  0  0  0  0  0
  145.6290   74.0530  220.7150 C   0  0  0  0  0  0  0  0  0  0  0  0
  145.3570   72.7110  220.9090 C   0  0  0  0  0  0  0  0  0  0  0  0
  144.0580   72.2560  220.8420 C   0  0  0  0  0  0  0  0  0  0  0  0
  143.0510   73.1640  220.5790 C   0  0  0  0  0  0  0  0  0  0  0  0
  142.5924   78.3117  218.5027 H   0  0  0  0  0  0  0  0  0  0  0  0
  143.4738   76.8244  218.0153 H   0  0  0  0  0  0  0  0  0  0  0  0
  141.6777   76.8446  218.0153 H   0  0  0  0  0  0  0  0  0  0  0  0
  142.5602   78.3314  221.2412 H   0  0  0  0  0  0  0  0  0  0  0  0
  141.1442   78.2451  220.1262 H   0  0  0  0  0  0  0  0  0  0  0  0
  141.0062   75.8192  221.5008 H   0  0  0  0  0  0  0  0  0  0  0  0
  141.5462   76.9160  222.7680 H   0  0  0  0  0  0  0  0  0  0  0  0
  139.3159   77.6646  222.8072 H   0  0  0  0  0  0  0  0  0  0  0  0
  139.6925   78.5212  221.3015 H   0  0  0  0  0  0  0  0  0  0  0  0
  137.6530   74.4580  223.1040 H   0  0  0  0  0  0  0  0  0  0  0  0
  138.7243   73.7759  220.2136 H   0  0  0  0  0  0  0  0  0  0  0  0
  140.3057   74.4036  220.7046 H   0  0  0  0  0  0  0  0  0  0  0  0
  138.7660   73.5030  223.0880 H   0  0  0  0  0  0  0  0  0  0  0  0
  138.8956   69.5453  222.3716 H   0  0  0  0  0  0  0  0  0  0  0  0
  138.8635   68.1106  224.4128 H   0  0  0  0  0  0  0  0  0  0  0  0
  139.4497   67.8048  226.8153 H   0  0  0  0  0  0  0  0  0  0  0  0
  141.5224   71.0369  228.8196 H   0  0  0  0  0  0  0  0  0  0  0  0
  141.4895   72.3657  226.7095 H   0  0  0  0  0  0  0  0  0  0  0  0
  141.4681   75.4027  220.9660 H   0  0  0  0  0  0  0  0  0  0  0  0
  141.6429   75.0607  219.1958 H   0  0  0  0  0  0  0  0  0  0  0  0
  144.8348   76.0237  220.2992 H   0  0  0  0  0  0  0  0  0  0  0  0
  146.6681   74.4097  220.7698 H   0  0  0  0  0  0  0  0  0  0  0  0
  146.1767   72.0075  221.1166 H   0  0  0  0  0  0  0  0  0  0  0  0
  143.8277   71.1913  220.9949 H   0  0  0  0  0  0  0  0  0  0  0  0
  142.0124   72.8060  220.5239 H   0  0  0  0  0  0  0  0  0  0  0  0
  1  2  1  0
  2  3  1  0
  3  4  1  0
  4  5  1  0
  5  6  1  0
  6  7  2  0
  7  8  1  0
  7  9  1  0
  9 10  1  0
 10 11  1  0
 11 12  2  0
 11 13  1  0
 13 14  2  0
 14 15  1  0
 15 16  2  0
 16 17  1  0
 17 18  2  0
 18 19  1  0
 18 20  1  0
 20 21  2  0
 21 22  1  0
 22 23  2  0
  2 24  1  0
 24 25  1  0
 25 26  2  0
 26 27  1  0
 27 28  2  0
 28 29  1  0
 29 30  2  0
 23 13  1  0
 30 25  1  0
 22 16  1  0
  1 31  1  0
  1 32  1  0
  1 33  1  0
  3 34  1  0
  3 35  1  0
  4 36  1  0
  4 37  1  0
  5 38  1  0
  5 39  1  0
  8 40  1  0
  9 41  1  0
  9 42  1  0
 10 43  1  0
 14 44  1  0
 15 45  1  0
 17 46  1  0
 20 47  1  0
 21 48  1  0
 24 49  1  0
 24 50  1  0
 26 51  1  0
 27 52  1  0
 28 53  1  0
 29 54  1  0
 30 55  1  0
M  END
>  <smiles>  (80) 
CN(CCCN=C(O)CNC(=O)c1ccc2cc(F)ccc2n1)Cc1ccccc1

>  <score_type>  (80) 
oracle

>  <origin>  (80) 
autodockgpu

>  <m_score__min__energy>  (80) 
-8.0199999999999996

>  <m_primary>  (80) 
energy

>  <rmsd>  (80) 
0.9675085493681269

>  <m_score__min__rmsd>  (80) 
0.9675085493681269

>  <meeko>  (80) 
{"free_energy": -7.31, "intermolecular_energy": -10.59, "internal_energy": -2.29, "cluster_size": 3, "cluster_id": 7, "rank_in_cluster": 3}

>  <energy>  (80) 
-7.58

>  <cluster_rmsd>  (80) 
1.12

>  <cluster>  (80) 
2

$$$$

     RDKit          3D

 55 57  0  0  0  0  0  0  0  0999 V2000
  138.0660   77.1650  222.7180 C   0  0  0  0  0  0  0  0  0  0  0  0
  139.0250   77.6220  221.7730 N   0  0  0  0  0  0  0  0  0  0  0  0
  138.8170   77.0460  220.4730 C   0  0  0  0  0  0  0  0  0  0  0  0
  140.0790   76.3580  219.9880 C   0  0  0  0  0  0  0  0  0  0  0  0
  141.0800   76.5310  221.1440 C   0  0  0  0  0  0  0  0  0  0  0  0
  141.4390   75.1990  221.5670 N   0  0  0  0  0  0  0  0  0  0  0  0
  140.5280   74.3080  221.6470 C   0  0  0  0  0  0  0  0  0  0  0  0
  139.3990   74.6220  222.4130 O   0  0  0  0  0  0  0  0  0  0  0  0
  140.5490   72.9770  221.0110 C   0  0  0  0  0  0  0  0  0  0  0  0
  140.6220   72.0010  222.1130 N   0  0  0  0  0  0  0  0  0  0  0  0
  139.4590   71.6410  222.8580 C   0  0  0  0  0  0  0  0  0  0  0  0
  138.3270   72.1190  222.6290 O   0  0  0  0  0  0  0  0  0  0  0  0
  139.5930   70.6600  223.9480 C   0  0  0  0  0  0  0  0  0  0  0  0
  139.1190   69.3790  223.8490 C   0  0  0  0  0  0  0  0  0  0  0  0
  139.2660   68.4780  224.9080 C   0  0  0  0  0  0  0  0  0  0  0  0
  139.9020   68.8870  226.0770 C   0  0  0  0  0  0  0  0  0  0  0  0
  140.0720   68.0270  227.1560 C   0  0  0  0  0  0  0  0  0  0  0  0
  140.7240   68.5360  228.2850 C   0  0  0  0  0  0  0  0  0  0  0  0
  140.9250   67.7550  229.3730 F   0  0  0  0  0  0  0  0  0  0  0  0
  141.1850   69.8330  228.3410 C   0  0  0  0  0  0  0  0  0  0  0  0
  141.0020   70.6640  227.2560 C   0  0  0  0  0  0  0  0  0  0  0  0
  140.3600   70.1660  226.1430 C   0  0  0  0  0  0  0  0  0  0  0  0
  140.2030   71.0090  225.1060 N   0  0  0  0  0  0  0  0  0  0  0  0
  139.1850   79.0370  221.6590 C   0  0  0  0  0  0  0  0  0  0  0  0
  140.4120   79.5080  222.3690 C   0  0  0  0  0  0  0  0  0  0  0  0
  140.9480   78.8680  223.4550 C   0  0  0  0  0  0  0  0  0  0  0  0
  142.0960   79.3730  224.0600 C   0  0  0  0  0  0  0  0  0  0  0  0
  142.7060   80.5170  223.5800 C   0  0  0  0  0  0  0  0  0  0  0  0
  142.1790   81.1720  222.4880 C   0  0  0  0  0  0  0  0  0  0  0  0
  141.0400   80.6610  221.8970 C   0  0  0  0  0  0  0  0  0  0  0  0
  138.4409   77.3437  223.7366 H   0  0  0  0  0  0  0  0  0  0  0  0
  137.1212   77.7097  222.5743 H   0  0  0  0  0  0  0  0  0  0  0  0
  137.8939   76.0881  222.5743 H   0  0  0  0  0  0  0  0  0  0  0  0
  138.0022   76.3092  220.5298 H   0  0  0  0  0  0  0  0  0  0  0  0
  138.5553   77.8476  219.7667 H   0  0  0  0  0  0  0  0  0  0  0  0
  139.8904   75.2920  219.7931 H   0  0  0  0  0  0  0  0  0  0  0  0
  140.4515   76.7836  219.0446 H   0  0  0  0  0  0  0  0  0  0  0  0
  141.9715   77.0748  220.7985 H   0  0  0  0  0  0  0  0  0  0  0  0
  140.6424   77.1102  221.9704 H   0  0  0  0  0  0  0  0  0  0  0  0
  138.8300   73.8950  222.8140 H   0  0  0  0  0  0  0  0  0  0  0  0
  139.6333   72.8205  220.4219 H   0  0  0  0  0  0  0  0  0  0  0  0
  141.4012   72.8726  220.3233 H   0  0  0  0  0  0  0  0  0  0  0  0
  141.5130   71.5420  222.3890 H   0  0  0  0  0  0  0  0  0  0  0  0
  138.6167   69.0551  222.9255 H   0  0  0  0  0  0  0  0  0  0  0  0
  138.8812   67.4514  224.8180 H   0  0  0  0  0  0  0  0  0  0  0  0
  139.7090   66.9891  227.1237 H   0  0  0  0  0  0  0  0  0  0  0  0
  141.6945   70.2024  229.2432 H   0  0  0  0  0  0  0  0  0  0  0  0
  141.3612   71.7035  227.2784 H   0  0  0  0  0  0  0  0  0  0  0  0
  139.2635   79.3033  220.5946 H   0  0  0  0  0  0  0  0  0  0  0  0
  138.3118   79.5214  222.1204 H   0  0  0  0  0  0  0  0  0  0  0  0
  140.4727   77.9573  223.8482 H   0  0  0  0  0  0  0  0  0  0  0  0
  142.5231   78.8549  224.9313 H   0  0  0  0  0  0  0  0  0  0  0  0
  143.6117   80.9043  224.0695 H   0  0  0  0  0  0  0  0  0  0  0  0
  142.6554   82.0825  222.0954 H   0  0  0  0  0  0  0  0  0  0  0  0
  140.6141   81.1801  221.0257 H   0  0  0  0  0  0  0  0  0  0  0  0
  1  2  1  0
  2  3  1  0
  3  4  1  0
  4  5  1  0
  5  6  1  0
  6  7  2  0
  7  8  1  0
  7  9  1  0
  9 10  1  0
 10 11  1  0
 11 12  2  0
 11 13  1  0
 13 14  2  0
 14 15  1  0
 15 16  2  0
 16 17  1  0
 17 18  2  0
 18 19  1  0
 18 20  1  0
 20 21  2  0
 21 22  1  0
 22 23  2  0
  2 24  1  0
 24 25  1  0
 25 26  2  0
 26 27  1  0
 27 28  2  0
 28 29  1  0
 29 30  2  0
 23 13  1  0
 30 25  1  0
 22 16  1  0
  1 31  1  0
  1 32  1  0
  1 33  1  0
  3 34  1  0
  3 35  1  0
  4 36  1  0
  4 37  1  0
  5 38  1  0
  5 39  1  0
  8 40  1  0
  9 41  1  0
  9 42  1  0
 10 43  1  0
 14 44  1  0
 15 45  1  0
 17 46  1  0
 20 47  1  0
 21 48  1  0
 24 49  1  0
 24 50  1  0
 26 51  1  0
 27 52  1  0
 28 53  1  0
 29 54  1  0
 30 55  1  0
M  END
>  <smiles>  (81) 
CN(CCCN=C(O)CNC(=O)c1ccc2cc(F)ccc2n1)Cc1ccccc1

>  <score_type>  (81) 
oracle

>  <origin>  (81) 
autodockgpu

>  <m_score__min__energy>  (81) 
-8.0199999999999996

>  <m_primary>  (81) 
energy

>  <rmsd>  (81) 
1.564376260107786

>  <m_score__min__rmsd>  (81) 
1.564376260107786

>  <meeko>  (81) 
{"free_energy": -7.55, "intermolecular_energy": -10.83, "internal_energy": -1.92, "cluster_size": 27, "cluster_id": 1, "rank_in_cluster": 12}

>  <energy>  (81) 
-7.29

>  <cluster_rmsd>  (81) 
1.9

>  <cluster>  (81) 
2

$$$$

     RDKit          3D

 55 57  0  0  0  0  0  0  0  0999 V2000
  138.8500   80.0050  221.4220 C   0  0  0  0  0  0  0  0  0  0  0  0
  138.1860   79.5290  222.5840 N   0  0  0  0  0  0  0  0  0  0  0  0
  137.6960   78.1880  222.4120 C   0  0  0  0  0  0  0  0  0  0  0  0
  138.4410   77.4890  221.2910 C   0  0  0  0  0  0  0  0  0  0  0  0
  137.5630   76.2750  220.9430 C   0  0  0  0  0  0  0  0  0  0  0  0
  138.4710   75.2030  220.6160 N   0  0  0  0  0  0  0  0  0  0  0  0
  138.6220   74.2440  221.4450 C   0  0  0  0  0  0  0  0  0  0  0  0
  139.6940   74.3430  222.3410 O   0  0  0  0  0  0  0  0  0  0  0  0
  137.7770   73.0390  221.5530 C   0  0  0  0  0  0  0  0  0  0  0  0
  138.3360   72.2490  222.6640 N   0  0  0  0  0  0  0  0  0  0  0  0
  138.1950   70.8300  222.7050 C   0  0  0  0  0  0  0  0  0  0  0  0
  137.5990   70.1780  221.8190 O   0  0  0  0  0  0  0  0  0  0  0  0
  138.7750   70.0930  223.8390 C   0  0  0  0  0  0  0  0  0  0  0  0
  138.7470   68.7260  223.9230 C   0  0  0  0  0  0  0  0  0  0  0  0
  139.3110   68.0650  225.0190 C   0  0  0  0  0  0  0  0  0  0  0  0
  139.9070   68.8030  226.0360 C   0  0  0  0  0  0  0  0  0  0  0  0
  140.4810   68.1900  227.1440 C   0  0  0  0  0  0  0  0  0  0  0  0
  141.0550   69.0220  228.1120 C   0  0  0  0  0  0  0  0  0  0  0  0
  141.6330   68.4940  229.2170 F   0  0  0  0  0  0  0  0  0  0  0  0
  141.0610   70.3940  227.9870 C   0  0  0  0  0  0  0  0  0  0  0  0
  140.4850   70.9750  226.8770 C   0  0  0  0  0  0  0  0  0  0  0  0
  139.9180   70.1590  225.9230 C   0  0  0  0  0  0  0  0  0  0  0  0
  139.3670   70.7650  224.8560 N   0  0  0  0  0  0  0  0  0  0  0  0
  138.9020   79.6310  223.8170 C   0  0  0  0  0  0  0  0  0  0  0  0
  140.3480   79.9230  223.5880 C   0  0  0  0  0  0  0  0  0  0  0  0
  140.8750   81.1870  223.6110 C   0  0  0  0  0  0  0  0  0  0  0  0
  142.2370   81.3740  223.3870 C   0  0  0  0  0  0  0  0  0  0  0  0
  143.0700   80.2980  223.1390 C   0  0  0  0  0  0  0  0  0  0  0  0
  142.5540   79.0210  223.1120 C   0  0  0  0  0  0  0  0  0  0  0  0
  141.2020   78.8480  223.3360 C   0  0  0  0  0  0  0  0  0  0  0  0
  139.7109   80.6222  221.7185 H   0  0  0  0  0  0  0  0  0  0  0  0
  139.1999   79.1508  220.8238 H   0  0  0  0  0  0  0  0  0  0  0  0
  138.1534   80.6107  220.8238 H   0  0  0  0  0  0  0  0  0  0  0  0
  137.8405   77.6272  223.3472 H   0  0  0  0  0  0  0  0  0  0  0  0
  136.6270   78.2303  222.1560 H   0  0  0  0  0  0  0  0  0  0  0  0
  138.5474   78.1539  220.4212 H   0  0  0  0  0  0  0  0  0  0  0  0
  139.4603   77.1975  221.5844 H   0  0  0  0  0  0  0  0  0  0  0  0
  136.9385   75.9964  221.8046 H   0  0  0  0  0  0  0  0  0  0  0  0
  136.8858   76.4968  220.1050 H   0  0  0  0  0  0  0  0  0  0  0  0
  139.5330   74.4030  223.3320 H   0  0  0  0  0  0  0  0  0  0  0  0
  136.7360   73.3204  221.7700 H   0  0  0  0  0  0  0  0  0  0  0  0
  137.7710   72.4658  220.6142 H   0  0  0  0  0  0  0  0  0  0  0  0
  138.8510   72.6890  223.4530 H   0  0  0  0  0  0  0  0  0  0  0  0
  138.2755   68.1414  223.1193 H   0  0  0  0  0  0  0  0  0  0  0  0
  139.2833   66.9668  225.0763 H   0  0  0  0  0  0  0  0  0  0  0  0
  140.4839   67.0957  227.2553 H   0  0  0  0  0  0  0  0  0  0  0  0
  141.5211   71.0202  228.7655 H   0  0  0  0  0  0  0  0  0  0  0  0
  140.4784   72.0683  226.7558 H   0  0  0  0  0  0  0  0  0  0  0  0
  138.4646   80.4417  224.4182 H   0  0  0  0  0  0  0  0  0  0  0  0
  138.8236   78.6676  224.3421 H   0  0  0  0  0  0  0  0  0  0  0  0
  140.2243   82.0522  223.8059 H   0  0  0  0  0  0  0  0  0  0  0  0
  142.6557   82.3910  223.4076 H   0  0  0  0  0  0  0  0  0  0  0  0
  144.1435   80.4618  222.9635 H   0  0  0  0  0  0  0  0  0  0  0  0
  143.2054   78.1566  222.9160 H   0  0  0  0  0  0  0  0  0  0  0  0
  140.7849   77.8304  223.3151 H   0  0  0  0  0  0  0  0  0  0  0  0
  1  2  1  0
  2  3  1  0
  3  4  1  0
  4  5  1  0
  5  6  1  0
  6  7  2  0
  7  8  1  0
  7  9  1  0
  9 10  1  0
 10 11  1  0
 11 12  2  0
 11 13  1  0
 13 14  2  0
 14 15  1  0
 15 16  2  0
 16 17  1  0
 17 18  2  0
 18 19  1  0
 18 20  1  0
 20 21  2  0
 21 22  1  0
 22 23  2  0
  2 24  1  0
 24 25  1  0
 25 26  2  0
 26 27  1  0
 27 28  2  0
 28 29  1  0
 29 30  2  0
 23 13  1  0
 30 25  1  0
 22 16  1  0
  1 31  1  0
  1 32  1  0
  1 33  1  0
  3 34  1  0
  3 35  1  0
  4 36  1  0
  4 37  1  0
  5 38  1  0
  5 39  1  0
  8 40  1  0
  9 41  1  0
  9 42  1  0
 10 43  1  0
 14 44  1  0
 15 45  1  0
 17 46  1  0
 20 47  1  0
 21 48  1  0
 24 49  1  0
 24 50  1  0
 26 51  1  0
 27 52  1  0
 28 53  1  0
 29 54  1  0
 30 55  1  0
M  END
>  <smiles>  (82) 
CN(CCCN=C(O)CNC(=O)c1ccc2cc(F)ccc2n1)Cc1ccccc1

>  <score_type>  (82) 
oracle

>  <origin>  (82) 
autodockgpu

>  <m_score__min__energy>  (82) 
-8.0199999999999996

>  <m_primary>  (82) 
energy

>  <rmsd>  (82) 
1.0509895641499791

>  <m_score__min__rmsd>  (82) 
1.0509895641499791

>  <meeko>  (82) 
{"free_energy": -7.45, "intermolecular_energy": -10.73, "internal_energy": -1.99, "cluster_size": 4, "cluster_id": 5, "rank_in_cluster": 2}

>  <energy>  (82) 
-7.72

>  <cluster_rmsd>  (82) 
0.0

>  <cluster>  (82) 
3

$$$$

     RDKit          3D

 55 57  0  0  0  0  0  0  0  0999 V2000
  138.4960   79.6890  223.3630 C   0  0  0  0  0  0  0  0  0  0  0  0
  138.5840   78.3000  223.0740 N   0  0  0  0  0  0  0  0  0  0  0  0
  137.5000   77.8540  222.2420 C   0  0  0  0  0  0  0  0  0  0  0  0
  136.9130   76.5630  222.7800 C   0  0  0  0  0  0  0  0  0  0  0  0
  136.5370   75.7570  221.5250 C   0  0  0  0  0  0  0  0  0  0  0  0
  137.7660   75.5480  220.7980 N   0  0  0  0  0  0  0  0  0  0  0  0
  138.5800   74.6520  221.2030 C   0  0  0  0  0  0  0  0  0  0  0  0
  139.3340   74.9490  222.3450 O   0  0  0  0  0  0  0  0  0  0  0  0
  138.8050   73.3310  220.5840 C   0  0  0  0  0  0  0  0  0  0  0  0
  138.8140   72.3600  221.6920 N   0  0  0  0  0  0  0  0  0  0  0  0
  139.9340   72.2540  222.5710 C   0  0  0  0  0  0  0  0  0  0  0  0
  140.9580   72.9620  222.4600 O   0  0  0  0  0  0  0  0  0  0  0  0
  139.8860   71.2660  223.6620 C   0  0  0  0  0  0  0  0  0  0  0  0
  139.2890   70.0420  223.5220 C   0  0  0  0  0  0  0  0  0  0  0  0
  139.2660   69.1320  224.5850 C   0  0  0  0  0  0  0  0  0  0  0  0
  139.8540   69.4750  225.7980 C   0  0  0  0  0  0  0  0  0  0  0  0
  139.8560   68.6050  226.8820 C   0  0  0  0  0  0  0  0  0  0  0  0
  140.4750   69.0450  228.0570 C   0  0  0  0  0  0  0  0  0  0  0  0
  140.5150   68.2490  229.1520 F   0  0  0  0  0  0  0  0  0  0  0  0
  141.0630   70.2870  228.1530 C   0  0  0  0  0  0  0  0  0  0  0  0
  141.0460   71.1300  227.0630 C   0  0  0  0  0  0  0  0  0  0  0  0
  140.4380   70.7000  225.9040 C   0  0  0  0  0  0  0  0  0  0  0  0
  140.4440   71.5520  224.8630 N   0  0  0  0  0  0  0  0  0  0  0  0
  139.8270   77.8340  222.5450 C   0  0  0  0  0  0  0  0  0  0  0  0
  140.9020   78.8620  222.6880 C   0  0  0  0  0  0  0  0  0  0  0  0
  141.5920   79.0740  223.8520 C   0  0  0  0  0  0  0  0  0  0  0  0
  142.5810   80.0530  223.9020 C   0  0  0  0  0  0  0  0  0  0  0  0
  142.8790   80.8190  222.7890 C   0  0  0  0  0  0  0  0  0  0  0  0
  142.1930   80.6160  221.6110 C   0  0  0  0  0  0  0  0  0  0  0  0
  141.2140   79.6420  221.5740 C   0  0  0  0  0  0  0  0  0  0  0  0
  138.4866   79.8369  224.4530 H   0  0  0  0  0  0  0  0  0  0  0  0
  139.3630   80.2093  222.9298 H   0  0  0  0  0  0  0  0  0  0  0  0
  137.5703   80.0957  222.9298 H   0  0  0  0  0  0  0  0  0  0  0  0
  136.7174   78.6268  222.2222 H   0  0  0  0  0  0  0  0  0  0  0  0
  137.8821   77.6746  221.2262 H   0  0  0  0  0  0  0  0  0  0  0  0
  137.6558   76.0198  223.3826 H   0  0  0  0  0  0  0  0  0  0  0  0
  136.0491   76.7391  223.4378 H   0  0  0  0  0  0  0  0  0  0  0  0
  136.0938   74.7915  221.8104 H   0  0  0  0  0  0  0  0  0  0  0  0
  135.7949   76.2907  220.9131 H   0  0  0  0  0  0  0  0  0  0  0  0
  139.3760   74.3040  223.1160 H   0  0  0  0  0  0  0  0  0  0  0  0
  137.9952   73.0971  219.8773 H   0  0  0  0  0  0  0  0  0  0  0  0
  139.7483   73.3062  220.0187 H   0  0  0  0  0  0  0  0  0  0  0  0
  138.0150   71.7210  221.8770 H   0  0  0  0  0  0  0  0  0  0  0  0
  138.8223   69.7708  222.5635 H   0  0  0  0  0  0  0  0  0  0  0  0
  138.7853   68.1503  224.4619 H   0  0  0  0  0  0  0  0  0  0  0  0
  139.3897   67.6107  226.8186 H   0  0  0  0  0  0  0  0  0  0  0  0
  141.5419   70.6031  229.0915 H   0  0  0  0  0  0  0  0  0  0  0  0
  141.5087   72.1265  227.1173 H   0  0  0  0  0  0  0  0  0  0  0  0
  140.1275   76.9247  223.0862 H   0  0  0  0  0  0  0  0  0  0  0  0
  139.6897   77.6244  221.4739 H   0  0  0  0  0  0  0  0  0  0  0  0
  141.3655   78.4726  224.7448 H   0  0  0  0  0  0  0  0  0  0  0  0
  143.1327   80.2196  224.8389 H   0  0  0  0  0  0  0  0  0  0  0  0
  143.6625   81.5891  222.8443 H   0  0  0  0  0  0  0  0  0  0  0  0
  142.4204   81.2173  220.7184 H   0  0  0  0  0  0  0  0  0  0  0  0
  140.6630   79.4761  220.6365 H   0  0  0  0  0  0  0  0  0  0  0  0
  1  2  1  0
  2  3  1  0
  3  4  1  0
  4  5  1  0
  5  6  1  0
  6  7  2  0
  7  8  1  0
  7  9  1  0
  9 10  1  0
 10 11  1  0
 11 12  2  0
 11 13  1  0
 13 14  2  0
 14 15  1  0
 15 16  2  0
 16 17  1  0
 17 18  2  0
 18 19  1  0
 18 20  1  0
 20 21  2  0
 21 22  1  0
 22 23  2  0
  2 24  1  0
 24 25  1  0
 25 26  2  0
 26 27  1  0
 27 28  2  0
 28 29  1  0
 29 30  2  0
 23 13  1  0
 30 25  1  0
 22 16  1  0
  1 31  1  0
  1 32  1  0
  1 33  1  0
  3 34  1  0
  3 35  1  0
  4 36  1  0
  4 37  1  0
  5 38  1  0
  5 39  1  0
  8 40  1  0
  9 41  1  0
  9 42  1  0
 10 43  1  0
 14 44  1  0
 15 45  1  0
 17 46  1  0
 20 47  1  0
 21 48  1  0
 24 49  1  0
 24 50  1  0
 26 51  1  0
 27 52  1  0
 28 53  1  0
 29 54  1  0
 30 55  1  0
M  END
>  <smiles>  (83) 
CN(CCCN=C(O)CNC(=O)c1ccc2cc(F)ccc2n1)Cc1ccccc1

>  <score_type>  (83) 
oracle

>  <origin>  (83) 
autodockgpu

>  <m_score__min__energy>  (83) 
-8.0199999999999996

>  <m_primary>  (83) 
energy

>  <rmsd>  (83) 
1.1744193346390635

>  <m_score__min__rmsd>  (83) 
1.1744193346390635

>  <meeko>  (83) 
{"free_energy": -7.74, "intermolecular_energy": -11.02, "internal_energy": -1.59, "cluster_size": 4, "cluster_id": 2, "rank_in_cluster": 2}

>  <energy>  (83) 
-7.59

>  <cluster_rmsd>  (83) 
1.57

>  <cluster>  (83) 
3

$$$$

     RDKit          3D

 55 57  0  0  0  0  0  0  0  0999 V2000
  142.6810   76.8220  220.0560 C   0  0  0  0  0  0  0  0  0  0  0  0
  141.8100   77.7220  219.3840 N   0  0  0  0  0  0  0  0  0  0  0  0
  141.2180   77.1280  218.2160 C   0  0  0  0  0  0  0  0  0  0  0  0
  139.7890   76.7080  218.5000 C   0  0  0  0  0  0  0  0  0  0  0  0
  139.9230   75.4410  219.3630 C   0  0  0  0  0  0  0  0  0  0  0  0
  138.9430   75.5650  220.4140 N   0  0  0  0  0  0  0  0  0  0  0  0
  138.8960   74.6720  221.3250 C   0  0  0  0  0  0  0  0  0  0  0  0
  139.6320   74.9160  222.4910 O   0  0  0  0  0  0  0  0  0  0  0  0
  138.1400   73.4060  221.2710 C   0  0  0  0  0  0  0  0  0  0  0  0
  138.6280   72.5930  222.3990 N   0  0  0  0  0  0  0  0  0  0  0  0
  138.3280   71.2010  222.4910 C   0  0  0  0  0  0  0  0  0  0  0  0
  137.6450   70.5930  221.6380 O   0  0  0  0  0  0  0  0  0  0  0  0
  138.8440   70.4400  223.6410 C   0  0  0  0  0  0  0  0  0  0  0  0
  138.7300   69.0780  223.7340 C   0  0  0  0  0  0  0  0  0  0  0  0
  139.2340   68.3930  224.8450 C   0  0  0  0  0  0  0  0  0  0  0  0
  139.8580   69.1020  225.8670 C   0  0  0  0  0  0  0  0  0  0  0  0
  140.3740   68.4650  226.9890 C   0  0  0  0  0  0  0  0  0  0  0  0
  140.9830   69.2690  227.9590 C   0  0  0  0  0  0  0  0  0  0  0  0
  141.5080   68.7160  229.0790 F   0  0  0  0  0  0  0  0  0  0  0  0
  141.0750   70.6370  227.8240 C   0  0  0  0  0  0  0  0  0  0  0  0
  140.5540   71.2420  226.7010 C   0  0  0  0  0  0  0  0  0  0  0  0
  139.9540   70.4540  225.7430 C   0  0  0  0  0  0  0  0  0  0  0  0
  139.4590   71.0830  224.6620 N   0  0  0  0  0  0  0  0  0  0  0  0
  140.7980   78.3450  220.1790 C   0  0  0  0  0  0  0  0  0  0  0  0
  141.3450   78.8230  221.4840 C   0  0  0  0  0  0  0  0  0  0  0  0
  141.1600   78.1580  222.6670 C   0  0  0  0  0  0  0  0  0  0  0  0
  141.7030   78.6710  223.8420 C   0  0  0  0  0  0  0  0  0  0  0  0
  142.4300   79.8470  223.8340 C   0  0  0  0  0  0  0  0  0  0  0  0
  142.6250   80.5270  222.6510 C   0  0  0  0  0  0  0  0  0  0  0  0
  142.0800   80.0080  221.4930 C   0  0  0  0  0  0  0  0  0  0  0  0
  142.5647   76.9422  221.1432 H   0  0  0  0  0  0  0  0  0  0  0  0
  142.4308   75.7891  219.7724 H   0  0  0  0  0  0  0  0  0  0  0  0
  143.7216   77.0383  219.7724 H   0  0  0  0  0  0  0  0  0  0  0  0
  141.2237   77.8602  217.3951 H   0  0  0  0  0  0  0  0  0  0  0  0
  141.8010   76.2385  217.9350 H   0  0  0  0  0  0  0  0  0  0  0  0
  139.2537   77.4970  219.0485 H   0  0  0  0  0  0  0  0  0  0  0  0
  139.2156   76.5274  217.5788 H   0  0  0  0  0  0  0  0  0  0  0  0
  139.7222   74.5445  218.7581 H   0  0  0  0  0  0  0  0  0  0  0  0
  140.9391   75.3400  219.7721 H   0  0  0  0  0  0  0  0  0  0  0  0
  139.1950   74.8700  223.3960 H   0  0  0  0  0  0  0  0  0  0  0  0
  137.0624   73.5995  221.3774 H   0  0  0  0  0  0  0  0  0  0  0  0
  138.2855   72.8905  220.3102 H   0  0  0  0  0  0  0  0  0  0  0  0
  139.2040   72.9970  223.1650 H   0  0  0  0  0  0  0  0  0  0  0  0
  138.2369   68.5169  222.9265 H   0  0  0  0  0  0  0  0  0  0  0  0
  139.1374   67.2992  224.9103 H   0  0  0  0  0  0  0  0  0  0  0  0
  140.3065   67.3737  227.1097 H   0  0  0  0  0  0  0  0  0  0  0  0
  141.5598   71.2406  228.6054 H   0  0  0  0  0  0  0  0  0  0  0  0
  140.6158   72.3326  226.5718 H   0  0  0  0  0  0  0  0  0  0  0  0
  140.3879   79.2037  219.6272 H   0  0  0  0  0  0  0  0  0  0  0  0
  140.0139   77.6015  220.3847 H   0  0  0  0  0  0  0  0  0  0  0  0
  140.5840   77.2211  222.6888 H   0  0  0  0  0  0  0  0  0  0  0  0
  141.5515   78.1333  224.7896 H   0  0  0  0  0  0  0  0  0  0  0  0
  142.8523   80.2396  224.7708 H   0  0  0  0  0  0  0  0  0  0  0  0
  143.2024   81.4630  222.6297 H   0  0  0  0  0  0  0  0  0  0  0  0
  142.2307   80.5474  220.5462 H   0  0  0  0  0  0  0  0  0  0  0  0
  1  2  1  0
  2  3  1  0
  3  4  1  0
  4  5  1  0
  5  6  1  0
  6  7  2  0
  7  8  1  0
  7  9  1  0
  9 10  1  0
 10 11  1  0
 11 12  2  0
 11 13  1  0
 13 14  2  0
 14 15  1  0
 15 16  2  0
 16 17  1  0
 17 18  2  0
 18 19  1  0
 18 20  1  0
 20 21  2  0
 21 22  1  0
 22 23  2  0
  2 24  1  0
 24 25  1  0
 25 26  2  0
 26 27  1  0
 27 28  2  0
 28 29  1  0
 29 30  2  0
 23 13  1  0
 30 25  1  0
 22 16  1  0
  1 31  1  0
  1 32  1  0
  1 33  1  0
  3 34  1  0
  3 35  1  0
  4 36  1  0
  4 37  1  0
  5 38  1  0
  5 39  1  0
  8 40  1  0
  9 41  1  0
  9 42  1  0
 10 43  1  0
 14 44  1  0
 15 45  1  0
 17 46  1  0
 20 47  1  0
 21 48  1  0
 24 49  1  0
 24 50  1  0
 26 51  1  0
 27 52  1  0
 28 53  1  0
 29 54  1  0
 30 55  1  0
M  END
>  <smiles>  (84) 
CN(CCCN=C(O)CNC(=O)c1ccc2cc(F)ccc2n1)Cc1ccccc1

>  <score_type>  (84) 
oracle

>  <origin>  (84) 
autodockgpu

>  <m_score__min__energy>  (84) 
-8.0199999999999996

>  <m_primary>  (84) 
energy

>  <rmsd>  (84) 
0.8069236170966545

>  <m_score__min__rmsd>  (84) 
0.8069236170966545

>  <meeko>  (84) 
{"free_energy": -7.09, "intermolecular_energy": -10.37, "internal_energy": -2.13, "cluster_size": 27, "cluster_id": 1, "rank_in_cluster": 23}

>  <energy>  (84) 
-7.3

>  <cluster_rmsd>  (84) 
1.69

>  <cluster>  (84) 
3

$$$$

     RDKit          3D

 55 57  0  0  0  0  0  0  0  0999 V2000
  141.7350   75.9130  220.8550 C   0  0  0  0  0  0  0  0  0  0  0  0
  140.9260   77.0050  221.2700 N   0  0  0  0  0  0  0  0  0  0  0  0
  139.5990   76.9310  220.7220 C   0  0  0  0  0  0  0  0  0  0  0  0
  138.5630   77.0570  221.8220 C   0  0  0  0  0  0  0  0  0  0  0  0
  137.2980   76.4050  221.2360 C   0  0  0  0  0  0  0  0  0  0  0  0
  137.7520   75.2910  220.4410 N   0  0  0  0  0  0  0  0  0  0  0  0
  137.9330   74.1600  221.0050 C   0  0  0  0  0  0  0  0  0  0  0  0
  137.4860   74.0310  222.3250 O   0  0  0  0  0  0  0  0  0  0  0  0
  138.5690   72.9730  220.4010 C   0  0  0  0  0  0  0  0  0  0  0  0
  138.7430   72.0040  221.4970 N   0  0  0  0  0  0  0  0  0  0  0  0
  139.5970   72.2880  222.6050 C   0  0  0  0  0  0  0  0  0  0  0  0
  140.2400   73.3550  222.7140 O   0  0  0  0  0  0  0  0  0  0  0  0
  139.7310   71.2830  223.6720 C   0  0  0  0  0  0  0  0  0  0  0  0
  139.3740   69.9720  223.4990 C   0  0  0  0  0  0  0  0  0  0  0  0
  139.5170   69.0480  224.5400 C   0  0  0  0  0  0  0  0  0  0  0  0
  140.0280   69.4650  225.7650 C   0  0  0  0  0  0  0  0  0  0  0  0
  140.1890   68.5840  226.8280 C   0  0  0  0  0  0  0  0  0  0  0  0
  140.7110   69.1040  228.0180 C   0  0  0  0  0  0  0  0  0  0  0  0
  140.8950   68.3020  229.0940 F   0  0  0  0  0  0  0  0  0  0  0  0
  141.0560   70.4300  228.1470 C   0  0  0  0  0  0  0  0  0  0  0  0
  140.8860   71.2820  227.0770 C   0  0  0  0  0  0  0  0  0  0  0  0
  140.3720   70.7740  225.9040 C   0  0  0  0  0  0  0  0  0  0  0  0
  140.2220   71.6380  224.8830 N   0  0  0  0  0  0  0  0  0  0  0  0
  140.8590   77.2540  222.6750 C   0  0  0  0  0  0  0  0  0  0  0  0
  141.2490   78.6590  223.0020 C   0  0  0  0  0  0  0  0  0  0  0  0
  140.3850   79.5740  223.5440 C   0  0  0  0  0  0  0  0  0  0  0  0
  140.8280   80.8650  223.8190 C   0  0  0  0  0  0  0  0  0  0  0  0
  142.1320   81.2410  223.5510 C   0  0  0  0  0  0  0  0  0  0  0  0
  143.0120   80.3310  223.0060 C   0  0  0  0  0  0  0  0  0  0  0  0
  142.5610   79.0540  222.7370 C   0  0  0  0  0  0  0  0  0  0  0  0
  142.1241   75.3879  221.7398 H   0  0  0  0  0  0  0  0  0  0  0  0
  141.1319   75.2183  220.2520 H   0  0  0  0  0  0  0  0  0  0  0  0
  142.5753   76.2876  220.2520 H   0  0  0  0  0  0  0  0  0  0  0  0
  139.4600   77.7478  219.9984 H   0  0  0  0  0  0  0  0  0  0  0  0
  139.4732   75.9582  220.2242 H   0  0  0  0  0  0  0  0  0  0  0  0
  138.8907   76.5253  222.7275 H   0  0  0  0  0  0  0  0  0  0  0  0
  138.3949   78.1022  222.1208 H   0  0  0  0  0  0  0  0  0  0  0  0
  136.6404   76.0536  222.0447 H   0  0  0  0  0  0  0  0  0  0  0  0
  136.7211   77.1205  220.6316 H   0  0  0  0  0  0  0  0  0  0  0  0
  138.1390   73.9080  223.0810 H   0  0  0  0  0  0  0  0  0  0  0  0
  137.9236   72.5510  219.6166 H   0  0  0  0  0  0  0  0  0  0  0  0
  139.5305   73.2264  219.9306 H   0  0  0  0  0  0  0  0  0  0  0  0
  138.2560   71.0850  221.5090 H   0  0  0  0  0  0  0  0  0  0  0  0
  138.9702   69.6417  222.5305 H   0  0  0  0  0  0  0  0  0  0  0  0
  139.2269   67.9975  224.3906 H   0  0  0  0  0  0  0  0  0  0  0  0
  139.9173   67.5219  226.7377 H   0  0  0  0  0  0  0  0  0  0  0  0
  141.4641   70.8069  229.0964 H   0  0  0  0  0  0  0  0  0  0  0  0
  141.1551   72.3455  227.1579 H   0  0  0  0  0  0  0  0  0  0  0  0
  139.8292   77.0795  223.0201 H   0  0  0  0  0  0  0  0  0  0  0  0
  141.5618   76.5747  223.1795 H   0  0  0  0  0  0  0  0  0  0  0  0
  139.3448   79.2895  223.7611 H   0  0  0  0  0  0  0  0  0  0  0  0
  140.1315   81.5960  224.2554 H   0  0  0  0  0  0  0  0  0  0  0  0
  142.4662   82.2653  223.7726 H   0  0  0  0  0  0  0  0  0  0  0  0
  144.0522   80.6162  222.7898 H   0  0  0  0  0  0  0  0  0  0  0  0
  143.2584   78.3244  222.2997 H   0  0  0  0  0  0  0  0  0  0  0  0
  1  2  1  0
  2  3  1  0
  3  4  1  0
  4  5  1  0
  5  6  1  0
  6  7  2  0
  7  8  1  0
  7  9  1  0
  9 10  1  0
 10 11  1  0
 11 12  2  0
 11 13  1  0
 13 14  2  0
 14 15  1  0
 15 16  2  0
 16 17  1  0
 17 18  2  0
 18 19  1  0
 18 20  1  0
 20 21  2  0
 21 22  1  0
 22 23  2  0
  2 24  1  0
 24 25  1  0
 25 26  2  0
 26 27  1  0
 27 28  2  0
 28 29  1  0
 29 30  2  0
 23 13  1  0
 30 25  1  0
 22 16  1  0
  1 31  1  0
  1 32  1  0
  1 33  1  0
  3 34  1  0
  3 35  1  0
  4 36  1  0
  4 37  1  0
  5 38  1  0
  5 39  1  0
  8 40  1  0
  9 41  1  0
  9 42  1  0
 10 43  1  0
 14 44  1  0
 15 45  1  0
 17 46  1  0
 20 47  1  0
 21 48  1  0
 24 49  1  0
 24 50  1  0
 26 51  1  0
 27 52  1  0
 28 53  1  0
 29 54  1  0
 30 55  1  0
M  END
>  <smiles>  (85) 
CN(CCCN=C(O)CNC(=O)c1ccc2cc(F)ccc2n1)Cc1ccccc1

>  <score_type>  (85) 
oracle

>  <origin>  (85) 
autodockgpu

>  <m_score__min__energy>  (85) 
-8.0199999999999996

>  <m_primary>  (85) 
energy

>  <rmsd>  (85) 
1.2543587686522868

>  <m_score__min__rmsd>  (85) 
1.2543587686522868

>  <meeko>  (85) 
{"free_energy": -7.47, "intermolecular_energy": -10.75, "internal_energy": -1.99, "cluster_size": 27, "cluster_id": 1, "rank_in_cluster": 14}

>  <energy>  (85) 
-6.81

>  <cluster_rmsd>  (85) 
1.9

>  <cluster>  (85) 
3

$$$$

     RDKit          3D

 55 57  0  0  0  0  0  0  0  0999 V2000
  137.6640   69.4420  225.2760 C   0  0  0  0  0  0  0  0  0  0  0  0
  138.6360   68.4610  224.9410 N   0  0  0  0  0  0  0  0  0  0  0  0
  139.2050   68.6890  223.6410 C   0  0  0  0  0  0  0  0  0  0  0  0
  138.5750   69.9060  222.9910 C   0  0  0  0  0  0  0  0  0  0  0  0
  139.6360   71.0120  223.1330 C   0  0  0  0  0  0  0  0  0  0  0  0
  139.6390   71.7290  221.8800 N   0  0  0  0  0  0  0  0  0  0  0  0
  140.1320   72.9050  221.8410 C   0  0  0  0  0  0  0  0  0  0  0  0
  139.4070   73.9190  222.4790 O   0  0  0  0  0  0  0  0  0  0  0  0
  141.3940   73.3030  221.1880 C   0  0  0  0  0  0  0  0  0  0  0  0
  141.4000   74.7770  221.1800 N   0  0  0  0  0  0  0  0  0  0  0  0
  141.9590   75.5080  220.0890 C   0  0  0  0  0  0  0  0  0  0  0  0
  142.4700   74.9560  219.0900 O   0  0  0  0  0  0  0  0  0  0  0  0
  141.9350   76.9790  220.1360 C   0  0  0  0  0  0  0  0  0  0  0  0
  142.1980   77.7550  219.0390 C   0  0  0  0  0  0  0  0  0  0  0  0
  142.1650   79.1510  219.1270 C   0  0  0  0  0  0  0  0  0  0  0  0
  141.8620   79.7580  220.3420 C   0  0  0  0  0  0  0  0  0  0  0  0
  141.8160   81.1400  220.4780 C   0  0  0  0  0  0  0  0  0  0  0  0
  141.5020   81.6510  221.7420 C   0  0  0  0  0  0  0  0  0  0  0  0
  141.4400   82.9880  221.9470 F   0  0  0  0  0  0  0  0  0  0  0  0
  141.2450   80.8310  222.8180 C   0  0  0  0  0  0  0  0  0  0  0  0
  141.2970   79.4640  222.6550 C   0  0  0  0  0  0  0  0  0  0  0  0
  141.6060   78.9570  221.4120 C   0  0  0  0  0  0  0  0  0  0  0  0
  141.6460   77.6180  221.2950 N   0  0  0  0  0  0  0  0  0  0  0  0
  139.6770   68.2400  225.8960 C   0  0  0  0  0  0  0  0  0  0  0  0
  140.0940   69.5130  226.5560 C   0  0  0  0  0  0  0  0  0  0  0  0
  139.6510   69.9020  227.7920 C   0  0  0  0  0  0  0  0  0  0  0  0
  140.0880   71.1060  228.3380 C   0  0  0  0  0  0  0  0  0  0  0  0
  140.9670   71.9200  227.6470 C   0  0  0  0  0  0  0  0  0  0  0  0
  141.4220   71.5420  226.4020 C   0  0  0  0  0  0  0  0  0  0  0  0
  140.9800   70.3460  225.8720 C   0  0  0  0  0  0  0  0  0  0  0  0
  137.5853   69.5214  226.3703 H   0  0  0  0  0  0  0  0  0  0  0  0
  137.9652   70.4141  224.8585 H   0  0  0  0  0  0  0  0  0  0  0  0
  136.6892   69.1498  224.8585 H   0  0  0  0  0  0  0  0  0  0  0  0
  140.2878   68.8533  223.7436 H   0  0  0  0  0  0  0  0  0  0  0  0
  139.0129   67.8091  223.0095 H   0  0  0  0  0  0  0  0  0  0  0  0
  138.3563   69.7110  221.9308 H   0  0  0  0  0  0  0  0  0  0  0  0
  137.6184   70.1818  223.4589 H   0  0  0  0  0  0  0  0  0  0  0  0
  139.3733   71.6889  223.9593 H   0  0  0  0  0  0  0  0  0  0  0  0
  140.6272   70.5908  223.3567 H   0  0  0  0  0  0  0  0  0  0  0  0
  138.5830   73.7040  223.0150 H   0  0  0  0  0  0  0  0  0  0  0  0
  142.2552   72.9204  221.7554 H   0  0  0  0  0  0  0  0  0  0  0  0
  141.4670   72.8942  220.1694 H   0  0  0  0  0  0  0  0  0  0  0  0
  141.0010   75.3370  221.9600 H   0  0  0  0  0  0  0  0  0  0  0  0
  142.4378   77.2758  218.0783 H   0  0  0  0  0  0  0  0  0  0  0  0
  142.3775   79.7658  218.2400 H   0  0  0  0  0  0  0  0  0  0  0  0
  142.0183   81.8057  219.6260 H   0  0  0  0  0  0  0  0  0  0  0  0
  141.0003   81.2637  223.7992 H   0  0  0  0  0  0  0  0  0  0  0  0
  141.0957   78.7904  223.5010 H   0  0  0  0  0  0  0  0  0  0  0  0
  139.3147   67.5411  226.6643 H   0  0  0  0  0  0  0  0  0  0  0  0
  140.5475   67.8242  225.3674 H   0  0  0  0  0  0  0  0  0  0  0  0
  138.9513   69.2645  228.3524 H   0  0  0  0  0  0  0  0  0  0  0  0
  139.7296   71.4136  229.3314 H   0  0  0  0  0  0  0  0  0  0  0  0
  141.3029   72.8688  228.0908 H   0  0  0  0  0  0  0  0  0  0  0  0
  142.1223   72.1796  225.8425 H   0  0  0  0  0  0  0  0  0  0  0  0
  141.3381   70.0399  224.8780 H   0  0  0  0  0  0  0  0  0  0  0  0
  1  2  1  0
  2  3  1  0
  3  4  1  0
  4  5  1  0
  5  6  1  0
  6  7  2  0
  7  8  1  0
  7  9  1  0
  9 10  1  0
 10 11  1  0
 11 12  2  0
 11 13  1  0
 13 14  2  0
 14 15  1  0
 15 16  2  0
 16 17  1  0
 17 18  2  0
 18 19  1  0
 18 20  1  0
 20 21  2  0
 21 22  1  0
 22 23  2  0
  2 24  1  0
 24 25  1  0
 25 26  2  0
 26 27  1  0
 27 28  2  0
 28 29  1  0
 29 30  2  0
 23 13  1  0
 30 25  1  0
 22 16  1  0
  1 31  1  0
  1 32  1  0
  1 33  1  0
  3 34  1  0
  3 35  1  0
  4 36  1  0
  4 37  1  0
  5 38  1  0
  5 39  1  0
  8 40  1  0
  9 41  1  0
  9 42  1  0
 10 43  1  0
 14 44  1  0
 15 45  1  0
 17 46  1  0
 20 47  1  0
 21 48  1  0
 24 49  1  0
 24 50  1  0
 26 51  1  0
 27 52  1  0
 28 53  1  0
 29 54  1  0
 30 55  1  0
M  END
>  <smiles>  (86) 
CN(CCCN=C(O)CNC(=O)c1ccc2cc(F)ccc2n1)Cc1ccccc1

>  <score_type>  (86) 
oracle

>  <origin>  (86) 
autodockgpu

>  <m_score__min__energy>  (86) 
-8.0199999999999996

>  <m_primary>  (86) 
energy

>  <rmsd>  (86) 
9.896296405230045

>  <m_score__min__rmsd>  (86) 
9.896296405230045

>  <meeko>  (86) 
{"free_energy": -7.61, "intermolecular_energy": -10.89, "internal_energy": -2.0, "cluster_size": 2, "cluster_id": 4, "rank_in_cluster": 2}

>  <energy>  (86) 
-7.65

>  <cluster_rmsd>  (86) 
0.0

>  <cluster>  (86) 
4

$$$$

     RDKit          3D

 55 57  0  0  0  0  0  0  0  0999 V2000
  142.0220   79.1790  219.0680 C   0  0  0  0  0  0  0  0  0  0  0  0
  140.8010   78.4890  219.3010 N   0  0  0  0  0  0  0  0  0  0  0  0
  140.9950   77.0670  219.3900 C   0  0  0  0  0  0  0  0  0  0  0  0
  142.3920   76.7520  219.8890 C   0  0  0  0  0  0  0  0  0  0  0  0
  142.3300   75.2700  220.2990 C   0  0  0  0  0  0  0  0  0  0  0  0
  141.5750   75.2240  221.5280 N   0  0  0  0  0  0  0  0  0  0  0  0
  140.5910   74.4170  221.6210 C   0  0  0  0  0  0  0  0  0  0  0  0
  139.5000   74.8320  222.3940 O   0  0  0  0  0  0  0  0  0  0  0  0
  140.4900   73.0850  220.9930 C   0  0  0  0  0  0  0  0  0  0  0  0
  140.5610   72.1100  222.0960 N   0  0  0  0  0  0  0  0  0  0  0  0
  139.3980   71.7530  222.8420 C   0  0  0  0  0  0  0  0  0  0  0  0
  138.2660   72.2350  222.6130 O   0  0  0  0  0  0  0  0  0  0  0  0
  139.5290   70.7730  223.9320 C   0  0  0  0  0  0  0  0  0  0  0  0
  139.0610   69.4900  223.8300 C   0  0  0  0  0  0  0  0  0  0  0  0
  139.2060   68.5900  224.8910 C   0  0  0  0  0  0  0  0  0  0  0  0
  139.8320   69.0020  226.0630 C   0  0  0  0  0  0  0  0  0  0  0  0
  139.9990   68.1430  227.1430 C   0  0  0  0  0  0  0  0  0  0  0  0
  140.6420   68.6550  228.2760 C   0  0  0  0  0  0  0  0  0  0  0  0
  140.8390   67.8740  229.3650 F   0  0  0  0  0  0  0  0  0  0  0  0
  141.0960   69.9530  228.3350 C   0  0  0  0  0  0  0  0  0  0  0  0
  140.9160   70.7830  227.2490 C   0  0  0  0  0  0  0  0  0  0  0  0
  140.2840   70.2830  226.1320 C   0  0  0  0  0  0  0  0  0  0  0  0
  140.1290   71.1250  225.0940 N   0  0  0  0  0  0  0  0  0  0  0  0
  140.0100   78.9420  220.4020 C   0  0  0  0  0  0  0  0  0  0  0  0
  140.8620   79.3090  221.5730 C   0  0  0  0  0  0  0  0  0  0  0  0
  141.4450   80.5390  221.7250 C   0  0  0  0  0  0  0  0  0  0  0  0
  142.2250   80.8010  222.8480 C   0  0  0  0  0  0  0  0  0  0  0  0
  142.4230   79.8340  223.8170 C   0  0  0  0  0  0  0  0  0  0  0  0
  141.8420   78.5920  223.6780 C   0  0  0  0  0  0  0  0  0  0  0  0
  141.0700   78.3440  222.5590 C   0  0  0  0  0  0  0  0  0  0  0  0
  142.4849   79.4406  220.0310 H   0  0  0  0  0  0  0  0  0  0  0  0
  142.7048   78.5332  218.4964 H   0  0  0  0  0  0  0  0  0  0  0  0
  141.8210   80.0971  218.4964 H   0  0  0  0  0  0  0  0  0  0  0  0
  140.2573   76.6439  220.0878 H   0  0  0  0  0  0  0  0  0  0  0  0
  140.8667   76.6271  218.3900 H   0  0  0  0  0  0  0  0  0  0  0  0
  143.1334   76.9038  219.0907 H   0  0  0  0  0  0  0  0  0  0  0  0
  142.6956   77.4038  220.7215 H   0  0  0  0  0  0  0  0  0  0  0  0
  141.8263   74.6794  219.5196 H   0  0  0  0  0  0  0  0  0  0  0  0
  143.3372   74.8479  220.4310 H   0  0  0  0  0  0  0  0  0  0  0  0
  138.8600   74.1620  222.7840 H   0  0  0  0  0  0  0  0  0  0  0  0
  139.5347   72.9866  220.4567 H   0  0  0  0  0  0  0  0  0  0  0  0
  141.2936   72.9231  220.2595 H   0  0  0  0  0  0  0  0  0  0  0  0
  141.4510   71.6490  222.3730 H   0  0  0  0  0  0  0  0  0  0  0  0
  138.5657   69.1636  222.9036 H   0  0  0  0  0  0  0  0  0  0  0  0
  138.8269   67.5615  224.7991 H   0  0  0  0  0  0  0  0  0  0  0  0
  139.6406   67.1036  227.1087 H   0  0  0  0  0  0  0  0  0  0  0  0
  141.5979   70.3248  229.2405 H   0  0  0  0  0  0  0  0  0  0  0  0
  141.2702   71.8241  227.2741 H   0  0  0  0  0  0  0  0  0  0  0  0
  139.4334   79.8248  220.0887 H   0  0  0  0  0  0  0  0  0  0  0  0
  139.3397   78.1243  220.7053 H   0  0  0  0  0  0  0  0  0  0  0  0
  141.2974   81.3175  220.9620 H   0  0  0  0  0  0  0  0  0  0  0  0
  142.6903   81.7907  222.9664 H   0  0  0  0  0  0  0  0  0  0  0  0
  143.0436   80.0561  224.6977 H   0  0  0  0  0  0  0  0  0  0  0  0
  141.9897   77.8144  224.4418 H   0  0  0  0  0  0  0  0  0  0  0  0
  140.6046   77.3542  222.4419 H   0  0  0  0  0  0  0  0  0  0  0  0
  1  2  1  0
  2  3  1  0
  3  4  1  0
  4  5  1  0
  5  6  1  0
  6  7  2  0
  7  8  1  0
  7  9  1  0
  9 10  1  0
 10 11  1  0
 11 12  2  0
 11 13  1  0
 13 14  2  0
 14 15  1  0
 15 16  2  0
 16 17  1  0
 17 18  2  0
 18 19  1  0
 18 20  1  0
 20 21  2  0
 21 22  1  0
 22 23  2  0
  2 24  1  0
 24 25  1  0
 25 26  2  0
 26 27  1  0
 27 28  2  0
 28 29  1  0
 29 30  2  0
 23 13  1  0
 30 25  1  0
 22 16  1  0
  1 31  1  0
  1 32  1  0
  1 33  1  0
  3 34  1  0
  3 35  1  0
  4 36  1  0
  4 37  1  0
  5 38  1  0
  5 39  1  0
  8 40  1  0
  9 41  1  0
  9 42  1  0
 10 43  1  0
 14 44  1  0
 15 45  1  0
 17 46  1  0
 20 47  1  0
 21 48  1  0
 24 49  1  0
 24 50  1  0
 26 51  1  0
 27 52  1  0
 28 53  1  0
 29 54  1  0
 30 55  1  0
M  END
>  <smiles>  (87) 
CN(CCCN=C(O)CNC(=O)c1ccc2cc(F)ccc2n1)Cc1ccccc1

>  <score_type>  (87) 
oracle

>  <origin>  (87) 
autodockgpu

>  <m_score__min__energy>  (87) 
-8.0199999999999996

>  <m_primary>  (87) 
energy

>  <rmsd>  (87) 
1.5109411935551327

>  <m_score__min__rmsd>  (87) 
1.5109411935551327

>  <meeko>  (87) 
{"free_energy": -7.72, "intermolecular_energy": -11.0, "internal_energy": -2.04, "cluster_size": 27, "cluster_id": 1, "rank_in_cluster": 4}

>  <energy>  (87) 
-7.61

>  <cluster_rmsd>  (87) 
0.42

>  <cluster>  (87) 
4

$$$$

     RDKit          3D

 55 57  0  0  0  0  0  0  0  0999 V2000
  137.0020   80.5060  224.3250 C   0  0  0  0  0  0  0  0  0  0  0  0
  137.9560   79.9320  223.4420 N   0  0  0  0  0  0  0  0  0  0  0  0
  137.3320   79.1450  222.4130 C   0  0  0  0  0  0  0  0  0  0  0  0
  137.6260   77.6710  222.6190 C   0  0  0  0  0  0  0  0  0  0  0  0
  138.0280   77.1600  221.2250 C   0  0  0  0  0  0  0  0  0  0  0  0
  139.4500   76.9180  221.2810 N   0  0  0  0  0  0  0  0  0  0  0  0
  139.8670   75.7430  221.5530 C   0  0  0  0  0  0  0  0  0  0  0  0
  141.0160   75.6460  222.3480 O   0  0  0  0  0  0  0  0  0  0  0  0
  139.2570   74.4730  221.1120 C   0  0  0  0  0  0  0  0  0  0  0  0
  139.4590   73.5210  222.2190 N   0  0  0  0  0  0  0  0  0  0  0  0
  139.1430   72.1370  222.0680 C   0  0  0  0  0  0  0  0  0  0  0  0
  138.6850   71.6530  221.0100 O   0  0  0  0  0  0  0  0  0  0  0  0
  139.3670   71.2320  223.2070 C   0  0  0  0  0  0  0  0  0  0  0  0
  138.9900   69.9150  223.1870 C   0  0  0  0  0  0  0  0  0  0  0  0
  139.2210   69.0890  224.2920 C   0  0  0  0  0  0  0  0  0  0  0  0
  139.8400   69.6100  225.4250 C   0  0  0  0  0  0  0  0  0  0  0  0
  140.0900   68.8280  226.5460 C   0  0  0  0  0  0  0  0  0  0  0  0
  140.7170   69.4470  227.6330 C   0  0  0  0  0  0  0  0  0  0  0  0
  140.9920   68.7460  228.7590 F   0  0  0  0  0  0  0  0  0  0  0  0
  141.0780   70.7760  227.6090 C   0  0  0  0  0  0  0  0  0  0  0  0
  140.8170   71.5280  226.4840 C   0  0  0  0  0  0  0  0  0  0  0  0
  140.2000   70.9220  225.4120 C   0  0  0  0  0  0  0  0  0  0  0  0
  139.9640   71.6900  224.3330 N   0  0  0  0  0  0  0  0  0  0  0  0
  138.9080   80.8250  222.8610 C   0  0  0  0  0  0  0  0  0  0  0  0
  140.2980   80.2860  222.9620 C   0  0  0  0  0  0  0  0  0  0  0  0
  140.6170   79.1520  223.6610 C   0  0  0  0  0  0  0  0  0  0  0  0
  141.9380   78.7160  223.7060 C   0  0  0  0  0  0  0  0  0  0  0  0
  142.9390   79.4130  223.0550 C   0  0  0  0  0  0  0  0  0  0  0  0
  142.6330   80.5560  222.3480 C   0  0  0  0  0  0  0  0  0  0  0  0
  141.3190   80.9790  222.3110 C   0  0  0  0  0  0  0  0  0  0  0  0
  137.3080   80.3219  225.3654 H   0  0  0  0  0  0  0  0  0  0  0  0
  136.9428   81.5898  224.1466 H   0  0  0  0  0  0  0  0  0  0  0  0
  136.0167   80.0506  224.1466 H   0  0  0  0  0  0  0  0  0  0  0  0
  136.2441   79.3049  222.4446 H   0  0  0  0  0  0  0  0  0  0  0  0
  137.7328   79.4544  221.4364 H   0  0  0  0  0  0  0  0  0  0  0  0
  138.4497   77.5352  223.3353 H   0  0  0  0  0  0  0  0  0  0  0  0
  136.7641   77.1262  223.0317 H   0  0  0  0  0  0  0  0  0  0  0  0
  137.4914   76.2288  220.9906 H   0  0  0  0  0  0  0  0  0  0  0  0
  137.7755   77.8898  220.4417 H   0  0  0  0  0  0  0  0  0  0  0  0
  141.8980   76.0060  222.0250 H   0  0  0  0  0  0  0  0  0  0  0  0
  138.1832   74.6116  220.9179 H   0  0  0  0  0  0  0  0  0  0  0  0
  139.7121   74.1093  220.1789 H   0  0  0  0  0  0  0  0  0  0  0  0
  139.8340   73.8150  223.1430 H   0  0  0  0  0  0  0  0  0  0  0  0
  138.5004   69.5027  222.2924 H   0  0  0  0  0  0  0  0  0  0  0  0
  138.9150   68.0327  224.2659 H   0  0  0  0  0  0  0  0  0  0  0  0
  139.8066   67.7656  226.5776 H   0  0  0  0  0  0  0  0  0  0  0  0
  141.5703   71.2331  228.4801 H   0  0  0  0  0  0  0  0  0  0  0  0
  141.0959   72.5913  226.4430 H   0  0  0  0  0  0  0  0  0  0  0  0
  138.6582   80.9726  221.7999 H   0  0  0  0  0  0  0  0  0  0  0  0
  138.8668   81.7776  223.4095 H   0  0  0  0  0  0  0  0  0  0  0  0
  139.8316   78.5877  224.1851 H   0  0  0  0  0  0  0  0  0  0  0  0
  142.1892   77.8040  224.2674 H   0  0  0  0  0  0  0  0  0  0  0  0
  143.9784   79.0558  223.1012 H   0  0  0  0  0  0  0  0  0  0  0  0
  143.4192   81.1195  221.8242 H   0  0  0  0  0  0  0  0  0  0  0  0
  141.0692   81.8917  221.7502 H   0  0  0  0  0  0  0  0  0  0  0  0
  1  2  1  0
  2  3  1  0
  3  4  1  0
  4  5  1  0
  5  6  1  0
  6  7  2  0
  7  8  1  0
  7  9  1  0
  9 10  1  0
 10 11  1  0
 11 12  2  0
 11 13  1  0
 13 14  2  0
 14 15  1  0
 15 16  2  0
 16 17  1  0
 17 18  2  0
 18 19  1  0
 18 20  1  0
 20 21  2  0
 21 22  1  0
 22 23  2  0
  2 24  1  0
 24 25  1  0
 25 26  2  0
 26 27  1  0
 27 28  2  0
 28 29  1  0
 29 30  2  0
 23 13  1  0
 30 25  1  0
 22 16  1  0
  1 31  1  0
  1 32  1  0
  1 33  1  0
  3 34  1  0
  3 35  1  0
  4 36  1  0
  4 37  1  0
  5 38  1  0
  5 39  1  0
  8 40  1  0
  9 41  1  0
  9 42  1  0
 10 43  1  0
 14 44  1  0
 15 45  1  0
 17 46  1  0
 20 47  1  0
 21 48  1  0
 24 49  1  0
 24 50  1  0
 26 51  1  0
 27 52  1  0
 28 53  1  0
 29 54  1  0
 30 55  1  0
M  END
>  <smiles>  (88) 
CN(CCCN=C(O)CNC(=O)c1ccc2cc(F)ccc2n1)Cc1ccccc1

>  <score_type>  (88) 
oracle

>  <origin>  (88) 
autodockgpu

>  <m_score__min__energy>  (88) 
-8.0199999999999996

>  <m_primary>  (88) 
energy

>  <rmsd>  (88) 
0.9222159154141808

>  <m_score__min__rmsd>  (88) 
0.9222159154141808

>  <meeko>  (88) 
{"free_energy": -7.35, "intermolecular_energy": -10.63, "internal_energy": -2.25, "cluster_size": 4, "cluster_id": 5, "rank_in_cluster": 3}

>  <energy>  (88) 
-7.5

>  <cluster_rmsd>  (88) 
0.0

>  <cluster>  (88) 
5

$$$$

     RDKit          3D

 55 57  0  0  0  0  0  0  0  0999 V2000
  136.8990   78.1220  222.7190 C   0  0  0  0  0  0  0  0  0  0  0  0
  138.1000   78.8200  222.4170 N   0  0  0  0  0  0  0  0  0  0  0  0
  138.0550   79.4310  221.1160 C   0  0  0  0  0  0  0  0  0  0  0  0
  139.1730   78.8970  220.2400 C   0  0  0  0  0  0  0  0  0  0  0  0
  138.9540   77.3740  220.2210 C   0  0  0  0  0  0  0  0  0  0  0  0
  140.0430   76.8020  220.9740 N   0  0  0  0  0  0  0  0  0  0  0  0
  139.8610   75.6960  221.5850 C   0  0  0  0  0  0  0  0  0  0  0  0
  139.2420   75.7590  222.8390 O   0  0  0  0  0  0  0  0  0  0  0  0
  140.2390   74.3550  221.0980 C   0  0  0  0  0  0  0  0  0  0  0  0
  140.0160   73.4360  222.2280 N   0  0  0  0  0  0  0  0  0  0  0  0
  140.4660   72.0820  222.1780 C   0  0  0  0  0  0  0  0  0  0  0  0
  141.0650   71.5980  221.1930 O   0  0  0  0  0  0  0  0  0  0  0  0
  140.2160   71.2100  223.3380 C   0  0  0  0  0  0  0  0  0  0  0  0
  139.5530   70.0170  223.2340 C   0  0  0  0  0  0  0  0  0  0  0  0
  139.3370   69.2180  224.3620 C   0  0  0  0  0  0  0  0  0  0  0  0
  139.8010   69.6400  225.6040 C   0  0  0  0  0  0  0  0  0  0  0  0
  139.6110   68.8810  226.7520 C   0  0  0  0  0  0  0  0  0  0  0  0
  140.1150   69.3950  227.9520 C   0  0  0  0  0  0  0  0  0  0  0  0
  139.9660   68.7080  229.1100 F   0  0  0  0  0  0  0  0  0  0  0  0
  140.7760   70.6010  228.0100 C   0  0  0  0  0  0  0  0  0  0  0  0
  140.9510   71.3340  226.8560 C   0  0  0  0  0  0  0  0  0  0  0  0
  140.4550   70.8310  225.6730 C   0  0  0  0  0  0  0  0  0  0  0  0
  140.6470   71.5760  224.5690 N   0  0  0  0  0  0  0  0  0  0  0  0
  138.5480   79.7700  223.3850 C   0  0  0  0  0  0  0  0  0  0  0  0
  140.0390   79.8570  223.4180 C   0  0  0  0  0  0  0  0  0  0  0  0
  140.8580   78.7600  223.4190 C   0  0  0  0  0  0  0  0  0  0  0  0
  142.2410   78.9270  223.4500 C   0  0  0  0  0  0  0  0  0  0  0  0
  142.8020   80.1910  223.4800 C   0  0  0  0  0  0  0  0  0  0  0  0
  141.9900   81.3050  223.4780 C   0  0  0  0  0  0  0  0  0  0  0  0
  140.6210   81.1250  223.4480 C   0  0  0  0  0  0  0  0  0  0  0  0
  136.7797   78.0527  223.8103 H   0  0  0  0  0  0  0  0  0  0  0  0
  136.0427   78.6631  222.2902 H   0  0  0  0  0  0  0  0  0  0  0  0
  136.9453   77.1101  222.2902 H   0  0  0  0  0  0  0  0  0  0  0  0
  137.0869   79.2072  220.6441 H   0  0  0  0  0  0  0  0  0  0  0  0
  138.1792   80.5181  221.2287 H   0  0  0  0  0  0  0  0  0  0  0  0
  139.1030   79.3125  219.2239 H   0  0  0  0  0  0  0  0  0  0  0  0
  140.1685   79.1716  220.6188 H   0  0  0  0  0  0  0  0  0  0  0  0
  137.9917   77.1212  220.6901 H   0  0  0  0  0  0  0  0  0  0  0  0
  138.9298   76.9851  219.1923 H   0  0  0  0  0  0  0  0  0  0  0  0
  138.5320   75.0950  223.0980 H   0  0  0  0  0  0  0  0  0  0  0  0
  139.6108   74.0679  220.2419 H   0  0  0  0  0  0  0  0  0  0  0  0
  141.2847   74.3294  220.7576 H   0  0  0  0  0  0  0  0  0  0  0  0
  139.5290   73.7330  223.0970 H   0  0  0  0  0  0  0  0  0  0  0  0
  139.1859   69.6827  222.2524 H   0  0  0  0  0  0  0  0  0  0  0  0
  138.8030   68.2610  224.2674 H   0  0  0  0  0  0  0  0  0  0  0  0
  139.0856   67.9151  226.7190 H   0  0  0  0  0  0  0  0  0  0  0  0
  141.1614   70.9766  228.9694 H   0  0  0  0  0  0  0  0  0  0  0  0
  141.4758   72.3005  226.8790 H   0  0  0  0  0  0  0  0  0  0  0  0
  138.1379   80.7588  223.1318 H   0  0  0  0  0  0  0  0  0  0  0  0
  138.1995   79.4433  224.3759 H   0  0  0  0  0  0  0  0  0  0  0  0
  140.4252   77.7490  223.3954 H   0  0  0  0  0  0  0  0  0  0  0  0
  142.8949   78.0425  223.4506 H   0  0  0  0  0  0  0  0  0  0  0  0
  143.8956   80.3072  223.5054 H   0  0  0  0  0  0  0  0  0  0  0  0
  142.4232   82.3159  223.4998 H   0  0  0  0  0  0  0  0  0  0  0  0
  139.9680   82.0102  223.4477 H   0  0  0  0  0  0  0  0  0  0  0  0
  1  2  1  0
  2  3  1  0
  3  4  1  0
  4  5  1  0
  5  6  1  0
  6  7  2  0
  7  8  1  0
  7  9  1  0
  9 10  1  0
 10 11  1  0
 11 12  2  0
 11 13  1  0
 13 14  2  0
 14 15  1  0
 15 16  2  0
 16 17  1  0
 17 18  2  0
 18 19  1  0
 18 20  1  0
 20 21  2  0
 21 22  1  0
 22 23  2  0
  2 24  1  0
 24 25  1  0
 25 26  2  0
 26 27  1  0
 27 28  2  0
 28 29  1  0
 29 30  2  0
 23 13  1  0
 30 25  1  0
 22 16  1  0
  1 31  1  0
  1 32  1  0
  1 33  1  0
  3 34  1  0
  3 35  1  0
  4 36  1  0
  4 37  1  0
  5 38  1  0
  5 39  1  0
  8 40  1  0
  9 41  1  0
  9 42  1  0
 10 43  1  0
 14 44  1  0
 15 45  1  0
 17 46  1  0
 20 47  1  0
 21 48  1  0
 24 49  1  0
 24 50  1  0
 26 51  1  0
 27 52  1  0
 28 53  1  0
 29 54  1  0
 30 55  1  0
M  END
>  <smiles>  (89) 
CN(CCCN=C(O)CNC(=O)c1ccc2cc(F)ccc2n1)Cc1ccccc1

>  <score_type>  (89) 
oracle

>  <origin>  (89) 
autodockgpu

>  <m_score__min__energy>  (89) 
-8.0199999999999996

>  <m_primary>  (89) 
energy

>  <rmsd>  (89) 
1.3345577729965838

>  <m_score__min__rmsd>  (89) 
1.3345577729965838

>  <meeko>  (89) 
{"free_energy": -7.55, "intermolecular_energy": -10.83, "internal_energy": -2.14, "cluster_size": 27, "cluster_id": 1, "rank_in_cluster": 11}

>  <energy>  (89) 
-7.45

>  <cluster_rmsd>  (89) 
0.6

>  <cluster>  (89) 
5

$$$$

     RDKit          3D

 55 57  0  0  0  0  0  0  0  0999 V2000
  138.1290   71.1560  223.7920 C   0  0  0  0  0  0  0  0  0  0  0  0
  139.5010   70.8010  223.6710 N   0  0  0  0  0  0  0  0  0  0  0  0
  139.9330   70.7840  222.3000 C   0  0  0  0  0  0  0  0  0  0  0  0
  139.5000   72.0520  221.5900 C   0  0  0  0  0  0  0  0  0  0  0  0
  140.7400   72.9610  221.6340 C   0  0  0  0  0  0  0  0  0  0  0  0
  140.3380   74.1560  222.3360 N   0  0  0  0  0  0  0  0  0  0  0  0
  140.1760   75.2370  221.6780 C   0  0  0  0  0  0  0  0  0  0  0  0
  141.2950   75.7450  221.0070 O   0  0  0  0  0  0  0  0  0  0  0  0
  138.9230   76.0060  221.5530 C   0  0  0  0  0  0  0  0  0  0  0  0
  137.9730   75.3890  222.4960 N   0  0  0  0  0  0  0  0  0  0  0  0
  136.7960   76.0780  222.9160 C   0  0  0  0  0  0  0  0  0  0  0  0
  136.5000   77.2270  222.5180 O   0  0  0  0  0  0  0  0  0  0  0  0
  135.8830   75.4110  223.8580 C   0  0  0  0  0  0  0  0  0  0  0  0
  135.0620   76.1060  224.7060 C   0  0  0  0  0  0  0  0  0  0  0  0
  134.2090   75.4330  225.5870 C   0  0  0  0  0  0  0  0  0  0  0  0
  134.1940   74.0420  225.6030 C   0  0  0  0  0  0  0  0  0  0  0  0
  133.3630   73.3300  226.4600 C   0  0  0  0  0  0  0  0  0  0  0  0
  133.4240   71.9330  226.3980 C   0  0  0  0  0  0  0  0  0  0  0  0
  132.6430   71.1750  227.2040 F   0  0  0  0  0  0  0  0  0  0  0  0
  134.2660   71.2750  225.5290 C   0  0  0  0  0  0  0  0  0  0  0  0
  135.0790   72.0070  224.6910 C   0  0  0  0  0  0  0  0  0  0  0  0
  135.0220   73.3820  224.7490 C   0  0  0  0  0  0  0  0  0  0  0  0
  135.8310   74.0590  223.9130 N   0  0  0  0  0  0  0  0  0  0  0  0
  140.4260   71.5480  224.4630 C   0  0  0  0  0  0  0  0  0  0  0  0
  140.5510   70.9810  225.8390 C   0  0  0  0  0  0  0  0  0  0  0  0
  140.8680   71.7330  226.9390 C   0  0  0  0  0  0  0  0  0  0  0  0
  140.9650   71.1260  228.1890 C   0  0  0  0  0  0  0  0  0  0  0  0
  140.7450   69.7690  228.3380 C   0  0  0  0  0  0  0  0  0  0  0  0
  140.4250   69.0000  227.2410 C   0  0  0  0  0  0  0  0  0  0  0  0
  140.3320   69.6130  226.0070 C   0  0  0  0  0  0  0  0  0  0  0  0
  137.8607   71.2254  224.8565 H   0  0  0  0  0  0  0  0  0  0  0  0
  137.9576   72.1281  223.3065 H   0  0  0  0  0  0  0  0  0  0  0  0
  137.5076   70.3891  223.3065 H   0  0  0  0  0  0  0  0  0  0  0  0
  141.0298   70.7075  222.2672 H   0  0  0  0  0  0  0  0  0  0  0  0
  139.4768   69.9201  221.7944 H   0  0  0  0  0  0  0  0  0  0  0  0
  139.2126   71.8366  220.5503 H   0  0  0  0  0  0  0  0  0  0  0  0
  138.6231   72.5177  222.0634 H   0  0  0  0  0  0  0  0  0  0  0  0
  141.5603   72.4614  222.1702 H   0  0  0  0  0  0  0  0  0  0  0  0
  141.1030   73.1934  220.6220 H   0  0  0  0  0  0  0  0  0  0  0  0
  142.1080   76.0490  221.5160 H   0  0  0  0  0  0  0  0  0  0  0  0
  139.0934   77.0602  221.8168 H   0  0  0  0  0  0  0  0  0  0  0  0
  138.5387   75.9861  220.5225 H   0  0  0  0  0  0  0  0  0  0  0  0
  138.1200   74.4380  222.8890 H   0  0  0  0  0  0  0  0  0  0  0  0
  135.0736   77.2059  224.6941 H   0  0  0  0  0  0  0  0  0  0  0  0
  133.5534   76.0007  226.2637 H   0  0  0  0  0  0  0  0  0  0  0  0
  132.6854   73.8432  227.1582 H   0  0  0  0  0  0  0  0  0  0  0  0
  134.2893   70.1755  225.5042 H   0  0  0  0  0  0  0  0  0  0  0  0
  135.7601   71.5031  223.9895 H   0  0  0  0  0  0  0  0  0  0  0  0
  141.4123   71.5261  223.9764 H   0  0  0  0  0  0  0  0  0  0  0  0
  140.0537   72.5797  224.5473 H   0  0  0  0  0  0  0  0  0  0  0  0
  141.0456   72.8136  226.8356 H   0  0  0  0  0  0  0  0  0  0  0  0
  141.2200   71.7343  229.0693 H   0  0  0  0  0  0  0  0  0  0  0  0
  140.8255   69.3041  229.3317 H   0  0  0  0  0  0  0  0  0  0  0  0
  140.2471   67.9195  227.3457 H   0  0  0  0  0  0  0  0  0  0  0  0
  140.0770   69.0031  225.1278 H   0  0  0  0  0  0  0  0  0  0  0  0
  1  2  1  0
  2  3  1  0
  3  4  1  0
  4  5  1  0
  5  6  1  0
  6  7  2  0
  7  8  1  0
  7  9  1  0
  9 10  1  0
 10 11  1  0
 11 12  2  0
 11 13  1  0
 13 14  2  0
 14 15  1  0
 15 16  2  0
 16 17  1  0
 17 18  2  0
 18 19  1  0
 18 20  1  0
 20 21  2  0
 21 22  1  0
 22 23  2  0
  2 24  1  0
 24 25  1  0
 25 26  2  0
 26 27  1  0
 27 28  2  0
 28 29  1  0
 29 30  2  0
 23 13  1  0
 30 25  1  0
 22 16  1  0
  1 31  1  0
  1 32  1  0
  1 33  1  0
  3 34  1  0
  3 35  1  0
  4 36  1  0
  4 37  1  0
  5 38  1  0
  5 39  1  0
  8 40  1  0
  9 41  1  0
  9 42  1  0
 10 43  1  0
 14 44  1  0
 15 45  1  0
 17 46  1  0
 20 47  1  0
 21 48  1  0
 24 49  1  0
 24 50  1  0
 26 51  1  0
 27 52  1  0
 28 53  1  0
 29 54  1  0
 30 55  1  0
M  END
>  <smiles>  (90) 
CN(CCCN=C(O)CNC(=O)c1ccc2cc(F)ccc2n1)Cc1ccccc1

>  <score_type>  (90) 
oracle

>  <origin>  (90) 
autodockgpu

>  <m_score__min__energy>  (90) 
-8.0199999999999996

>  <m_primary>  (90) 
energy

>  <rmsd>  (90) 
6.664806294461833

>  <m_score__min__rmsd>  (90) 
6.664806294461833

>  <meeko>  (90) 
{"free_energy": -7.22, "intermolecular_energy": -10.5, "internal_energy": -2.23, "cluster_size": 2, "cluster_id": 6, "rank_in_cluster": 2}

>  <energy>  (90) 
-7.35

>  <cluster_rmsd>  (90) 
1.34

>  <cluster>  (90) 
5

$$$$

     RDKit          3D

 55 57  0  0  0  0  0  0  0  0999 V2000
  142.3260   80.0750  218.6150 C   0  0  0  0  0  0  0  0  0  0  0  0
  141.0320   79.9930  219.1960 N   0  0  0  0  0  0  0  0  0  0  0  0
  140.7240   78.6600  219.6380 C   0  0  0  0  0  0  0  0  0  0  0  0
  141.8020   77.6910  219.1930 C   0  0  0  0  0  0  0  0  0  0  0  0
  141.8450   76.6270  220.3040 C   0  0  0  0  0  0  0  0  0  0  0  0
  140.6140   76.7660  221.0430 N   0  0  0  0  0  0  0  0  0  0  0  0
  140.0870   75.7300  221.5690 C   0  0  0  0  0  0  0  0  0  0  0  0
  139.4200   75.9070  222.7870 O   0  0  0  0  0  0  0  0  0  0  0  0
  140.1120   74.3610  221.0190 C   0  0  0  0  0  0  0  0  0  0  0  0
  139.9250   73.4590  222.1700 N   0  0  0  0  0  0  0  0  0  0  0  0
  140.2870   72.0800  222.0930 C   0  0  0  0  0  0  0  0  0  0  0  0
  140.7760   71.5590  221.0670 O   0  0  0  0  0  0  0  0  0  0  0  0
  140.0780   71.2270  223.2740 C   0  0  0  0  0  0  0  0  0  0  0  0
  139.4820   69.9960  223.1990 C   0  0  0  0  0  0  0  0  0  0  0  0
  139.3030   69.2170  224.3470 C   0  0  0  0  0  0  0  0  0  0  0  0
  139.7350   69.6970  225.5790 C   0  0  0  0  0  0  0  0  0  0  0  0
  139.5790   68.9580  226.7460 C   0  0  0  0  0  0  0  0  0  0  0  0
  140.0480   69.5300  227.9350 C   0  0  0  0  0  0  0  0  0  0  0  0
  139.9300   68.8670  229.1100 F   0  0  0  0  0  0  0  0  0  0  0  0
  140.6420   70.7720  227.9640 C   0  0  0  0  0  0  0  0  0  0  0  0
  140.7830   71.4830  226.7910 C   0  0  0  0  0  0  0  0  0  0  0  0
  140.3230   70.9230  225.6190 C   0  0  0  0  0  0  0  0  0  0  0  0
  140.4810   71.6480  224.4970 N   0  0  0  0  0  0  0  0  0  0  0  0
  140.7370   80.9300  220.2350 C   0  0  0  0  0  0  0  0  0  0  0  0
  141.0840   80.3830  221.5800 C   0  0  0  0  0  0  0  0  0  0  0  0
  140.1540   79.8950  222.4590 C   0  0  0  0  0  0  0  0  0  0  0  0
  140.5610   79.4030  223.6960 C   0  0  0  0  0  0  0  0  0  0  0  0
  141.8960   79.3980  224.0540 C   0  0  0  0  0  0  0  0  0  0  0  0
  142.8440   79.8860  223.1800 C   0  0  0  0  0  0  0  0  0  0  0  0
  142.4280   80.3720  221.9560 C   0  0  0  0  0  0  0  0  0  0  0  0
  143.0832   80.1230  219.4115 H   0  0  0  0  0  0  0  0  0  0  0  0
  142.5051   79.1864  217.9919 H   0  0  0  0  0  0  0  0  0  0  0  0
  142.3915   80.9791  217.9919 H   0  0  0  0  0  0  0  0  0  0  0  0
  140.6579   78.6488  220.7360 H   0  0  0  0  0  0  0  0  0  0  0  0
  139.7644   78.3517  219.1974 H   0  0  0  0  0  0  0  0  0  0  0  0
  141.5400   77.2344  218.2271 H   0  0  0  0  0  0  0  0  0  0  0  0
  142.7744   78.1844  219.0480 H   0  0  0  0  0  0  0  0  0  0  0  0
  141.9148   75.6206  219.8655 H   0  0  0  0  0  0  0  0  0  0  0  0
  142.7209   76.7632  220.9554 H   0  0  0  0  0  0  0  0  0  0  0  0
  138.7660   75.2190  223.1210 H   0  0  0  0  0  0  0  0  0  0  0  0
  139.2982   74.2262  220.2913 H   0  0  0  0  0  0  0  0  0  0  0  0
  141.0560   74.1543  220.4935 H   0  0  0  0  0  0  0  0  0  0  0  0
  139.5270   73.7860  223.0730 H   0  0  0  0  0  0  0  0  0  0  0  0
  139.1403   69.6157  222.2250 H   0  0  0  0  0  0  0  0  0  0  0  0
  138.8230   68.2298  224.2758 H   0  0  0  0  0  0  0  0  0  0  0  0
  139.1065   67.9647  226.7359 H   0  0  0  0  0  0  0  0  0  0  0  0
  141.0009   71.1933  228.9147 H   0  0  0  0  0  0  0  0  0  0  0  0
  141.2533   72.4774  226.7908 H   0  0  0  0  0  0  0  0  0  0  0  0
  141.3164   81.8490  220.0626 H   0  0  0  0  0  0  0  0  0  0  0  0
  139.6571   81.1383  220.2154 H   0  0  0  0  0  0  0  0  0  0  0  0
  139.0879   79.8918  222.1882 H   0  0  0  0  0  0  0  0  0  0  0  0
  139.8097   79.0128  224.3983 H   0  0  0  0  0  0  0  0  0  0  0  0
  142.2017   79.0052  225.0350 H   0  0  0  0  0  0  0  0  0  0  0  0
  143.9098   79.8882  223.4519 H   0  0  0  0  0  0  0  0  0  0  0  0
  143.1801   80.7630  221.2549 H   0  0  0  0  0  0  0  0  0  0  0  0
  1  2  1  0
  2  3  1  0
  3  4  1  0
  4  5  1  0
  5  6  1  0
  6  7  2  0
  7  8  1  0
  7  9  1  0
  9 10  1  0
 10 11  1  0
 11 12  2  0
 11 13  1  0
 13 14  2  0
 14 15  1  0
 15 16  2  0
 16 17  1  0
 17 18  2  0
 18 19  1  0
 18 20  1  0
 20 21  2  0
 21 22  1  0
 22 23  2  0
  2 24  1  0
 24 25  1  0
 25 26  2  0
 26 27  1  0
 27 28  2  0
 28 29  1  0
 29 30  2  0
 23 13  1  0
 30 25  1  0
 22 16  1  0
  1 31  1  0
  1 32  1  0
  1 33  1  0
  3 34  1  0
  3 35  1  0
  4 36  1  0
  4 37  1  0
  5 38  1  0
  5 39  1  0
  8 40  1  0
  9 41  1  0
  9 42  1  0
 10 43  1  0
 14 44  1  0
 15 45  1  0
 17 46  1  0
 20 47  1  0
 21 48  1  0
 24 49  1  0
 24 50  1  0
 26 51  1  0
 27 52  1  0
 28 53  1  0
 29 54  1  0
 30 55  1  0
M  END
>  <smiles>  (91) 
CN(CCCN=C(O)CNC(=O)c1ccc2cc(F)ccc2n1)Cc1ccccc1

>  <score_type>  (91) 
oracle

>  <origin>  (91) 
autodockgpu

>  <m_score__min__energy>  (91) 
-8.0199999999999996

>  <m_primary>  (91) 
energy

>  <rmsd>  (91) 
1.2642956702629249

>  <m_score__min__rmsd>  (91) 
1.2642956702629249

>  <meeko>  (91) 
{"free_energy": -7.7, "intermolecular_energy": -10.98, "internal_energy": -2.21, "cluster_size": 27, "cluster_id": 1, "rank_in_cluster": 6}

>  <energy>  (91) 
-7.29

>  <cluster_rmsd>  (91) 
0.92

>  <cluster>  (91) 
5

$$$$

     RDKit          3D

 55 57  0  0  0  0  0  0  0  0999 V2000
  137.6900   80.0690  223.5890 C   0  0  0  0  0  0  0  0  0  0  0  0
  138.5940   79.4030  222.7170 N   0  0  0  0  0  0  0  0  0  0  0  0
  137.9220   78.4600  221.8640 C   0  0  0  0  0  0  0  0  0  0  0  0
  137.8150   77.1090  222.5450 C   0  0  0  0  0  0  0  0  0  0  0  0
  137.0580   76.2280  221.5360 C   0  0  0  0  0  0  0  0  0  0  0  0
  138.0500   75.3810  220.9190 N   0  0  0  0  0  0  0  0  0  0  0  0
  138.4260   74.3240  221.5260 C   0  0  0  0  0  0  0  0  0  0  0  0
  139.5530   74.4320  222.3500 O   0  0  0  0  0  0  0  0  0  0  0  0
  137.7900   72.9940  221.4440 C   0  0  0  0  0  0  0  0  0  0  0  0
  138.3380   72.2130  222.5670 N   0  0  0  0  0  0  0  0  0  0  0  0
  138.2420   70.7890  222.5910 C   0  0  0  0  0  0  0  0  0  0  0  0
  137.6980   70.1260  221.6810 O   0  0  0  0  0  0  0  0  0  0  0  0
  138.8090   70.0610  223.7380 C   0  0  0  0  0  0  0  0  0  0  0  0
  138.7480   68.6970  223.8490 C   0  0  0  0  0  0  0  0  0  0  0  0
  139.3000   68.0440  224.9560 C   0  0  0  0  0  0  0  0  0  0  0  0
  139.9170   68.7880  225.9570 C   0  0  0  0  0  0  0  0  0  0  0  0
  140.4800   68.1840  227.0750 C   0  0  0  0  0  0  0  0  0  0  0  0
  141.0770   69.0210  228.0250 C   0  0  0  0  0  0  0  0  0  0  0  0
  141.6450   68.5010  229.1390 F   0  0  0  0  0  0  0  0  0  0  0  0
  141.1140   70.3890  227.8730 C   0  0  0  0  0  0  0  0  0  0  0  0
  140.5480   70.9620  226.7540 C   0  0  0  0  0  0  0  0  0  0  0  0
  139.9590   70.1410  225.8170 C   0  0  0  0  0  0  0  0  0  0  0  0
  139.4190   70.7390  224.7400 N   0  0  0  0  0  0  0  0  0  0  0  0
  139.4610   80.2310  221.9400 C   0  0  0  0  0  0  0  0  0  0  0  0
  140.8320   80.2940  222.5300 C   0  0  0  0  0  0  0  0  0  0  0  0
  141.8520   79.4600  222.1570 C   0  0  0  0  0  0  0  0  0  0  0  0
  143.1030   79.5850  222.7570 C   0  0  0  0  0  0  0  0  0  0  0  0
  143.3320   80.5410  223.7290 C   0  0  0  0  0  0  0  0  0  0  0  0
  142.3140   81.3880  224.1140 C   0  0  0  0  0  0  0  0  0  0  0  0
  141.0790   81.2540  223.5120 C   0  0  0  0  0  0  0  0  0  0  0  0
  137.9690   79.8635  224.6330 H   0  0  0  0  0  0  0  0  0  0  0  0
  137.7335   81.1525  223.4044 H   0  0  0  0  0  0  0  0  0  0  0  0
  136.6681   79.7063  223.4044 H   0  0  0  0  0  0  0  0  0  0  0  0
  136.9119   78.8323  221.6380 H   0  0  0  0  0  0  0  0  0  0  0  0
  138.5007   78.3452  220.9356 H   0  0  0  0  0  0  0  0  0  0  0  0
  138.8140   76.6961  222.7489 H   0  0  0  0  0  0  0  0  0  0  0  0
  137.3011   77.1694  223.5157 H   0  0  0  0  0  0  0  0  0  0  0  0
  136.3035   75.6173  222.0535 H   0  0  0  0  0  0  0  0  0  0  0  0
  136.5297   76.8376  220.7882 H   0  0  0  0  0  0  0  0  0  0  0  0
  139.5730   73.9940  223.2550 H   0  0  0  0  0  0  0  0  0  0  0  0
  136.6980   73.0858  221.5390 H   0  0  0  0  0  0  0  0  0  0  0  0
  137.9932   72.5086  220.4780 H   0  0  0  0  0  0  0  0  0  0  0  0
  138.8110   72.6610  223.3760 H   0  0  0  0  0  0  0  0  0  0  0  0
  138.2593   68.1085  223.0585 H   0  0  0  0  0  0  0  0  0  0  0  0
  139.2466   66.9481  225.0348 H   0  0  0  0  0  0  0  0  0  0  0  0
  140.4574   67.0923  227.2079 H   0  0  0  0  0  0  0  0  0  0  0  0
  141.5911   71.0194  228.6379 H   0  0  0  0  0  0  0  0  0  0  0  0
  140.5662   72.0526  226.6120 H   0  0  0  0  0  0  0  0  0  0  0  0
  139.5287   79.8210  220.9215 H   0  0  0  0  0  0  0  0  0  0  0  0
  139.0445   81.2490  221.9256 H   0  0  0  0  0  0  0  0  0  0  0  0
  141.6841   78.6937  221.3859 H   0  0  0  0  0  0  0  0  0  0  0  0
  143.9198   78.9138  222.4532 H   0  0  0  0  0  0  0  0  0  0  0  0
  144.3249   80.6260  224.1947 H   0  0  0  0  0  0  0  0  0  0  0  0
  142.4826   82.1545  224.8848 H   0  0  0  0  0  0  0  0  0  0  0  0
  140.2630   81.9259  223.8164 H   0  0  0  0  0  0  0  0  0  0  0  0
  1  2  1  0
  2  3  1  0
  3  4  1  0
  4  5  1  0
  5  6  1  0
  6  7  2  0
  7  8  1  0
  7  9  1  0
  9 10  1  0
 10 11  1  0
 11 12  2  0
 11 13  1  0
 13 14  2  0
 14 15  1  0
 15 16  2  0
 16 17  1  0
 17 18  2  0
 18 19  1  0
 18 20  1  0
 20 21  2  0
 21 22  1  0
 22 23  2  0
  2 24  1  0
 24 25  1  0
 25 26  2  0
 26 27  1  0
 27 28  2  0
 28 29  1  0
 29 30  2  0
 23 13  1  0
 30 25  1  0
 22 16  1  0
  1 31  1  0
  1 32  1  0
  1 33  1  0
  3 34  1  0
  3 35  1  0
  4 36  1  0
  4 37  1  0
  5 38  1  0
  5 39  1  0
  8 40  1  0
  9 41  1  0
  9 42  1  0
 10 43  1  0
 14 44  1  0
 15 45  1  0
 17 46  1  0
 20 47  1  0
 21 48  1  0
 24 49  1  0
 24 50  1  0
 26 51  1  0
 27 52  1  0
 28 53  1  0
 29 54  1  0
 30 55  1  0
M  END
>  <smiles>  (92) 
CN(CCCN=C(O)CNC(=O)c1ccc2cc(F)ccc2n1)Cc1ccccc1

>  <score_type>  (92) 
oracle

>  <origin>  (92) 
autodockgpu

>  <m_score__min__energy>  (92) 
-8.0199999999999996

>  <m_primary>  (92) 
energy

>  <rmsd>  (92) 
1.013161579236658

>  <m_score__min__rmsd>  (92) 
1.013161579236658

>  <meeko>  (92) 
{"free_energy": -7.5, "intermolecular_energy": -10.78, "internal_energy": -1.94, "cluster_size": 4, "cluster_id": 5, "rank_in_cluster": 1}

>  <energy>  (92) 
-7.41

>  <cluster_rmsd>  (92) 
0.0

>  <cluster>  (92) 
6

$$$$

     RDKit          3D

 55 57  0  0  0  0  0  0  0  0999 V2000
  138.1590   79.9490  221.5740 C   0  0  0  0  0  0  0  0  0  0  0  0
  138.0740   79.2960  222.8340 N   0  0  0  0  0  0  0  0  0  0  0  0
  138.3270   77.8850  222.7270 C   0  0  0  0  0  0  0  0  0  0  0  0
  138.2430   77.4380  221.2800 C   0  0  0  0  0  0  0  0  0  0  0  0
  139.7080   77.2430  220.8510 C   0  0  0  0  0  0  0  0  0  0  0  0
  139.8490   75.8450  220.5250 N   0  0  0  0  0  0  0  0  0  0  0  0
  139.4880   74.9700  221.3810 C   0  0  0  0  0  0  0  0  0  0  0  0
  139.7200   75.2670  222.7290 O   0  0  0  0  0  0  0  0  0  0  0  0
  138.8500   73.6710  221.0890 C   0  0  0  0  0  0  0  0  0  0  0  0
  139.1150   72.8170  222.2600 N   0  0  0  0  0  0  0  0  0  0  0  0
  138.9100   71.4050  222.2060 C   0  0  0  0  0  0  0  0  0  0  0  0
  138.5010   70.8140  221.1830 O   0  0  0  0  0  0  0  0  0  0  0  0
  139.1920   70.6020  223.4070 C   0  0  0  0  0  0  0  0  0  0  0  0
  138.8640   69.2760  223.5010 C   0  0  0  0  0  0  0  0  0  0  0  0
  139.1500   68.5490  224.6610 C   0  0  0  0  0  0  0  0  0  0  0  0
  139.7740   69.1800  225.7330 C   0  0  0  0  0  0  0  0  0  0  0  0
  140.0790   68.4990  226.9060 C   0  0  0  0  0  0  0  0  0  0  0  0
  140.7070   69.2250  227.9240 C   0  0  0  0  0  0  0  0  0  0  0  0
  141.0330   68.6250  229.0940 F   0  0  0  0  0  0  0  0  0  0  0  0
  141.0170   70.5590  227.7870 C   0  0  0  0  0  0  0  0  0  0  0  0
  140.7040   71.2100  226.6130 C   0  0  0  0  0  0  0  0  0  0  0  0
  140.0850   70.4990  225.6070 C   0  0  0  0  0  0  0  0  0  0  0  0
  139.7970   71.1700  224.4780 N   0  0  0  0  0  0  0  0  0  0  0  0
  138.8540   79.8510  223.8950 C   0  0  0  0  0  0  0  0  0  0  0  0
  140.2790   80.0340  223.4900 C   0  0  0  0  0  0  0  0  0  0  0  0
  140.7740   81.2060  222.9830 C   0  0  0  0  0  0  0  0  0  0  0  0
  142.1180   81.2950  222.6280 C   0  0  0  0  0  0  0  0  0  0  0  0
  142.9650   80.2120  222.7800 C   0  0  0  0  0  0  0  0  0  0  0  0
  142.4810   79.0270  223.2900 C   0  0  0  0  0  0  0  0  0  0  0  0
  141.1470   78.9510  223.6370 C   0  0  0  0  0  0  0  0  0  0  0  0
  138.2995   81.0289  221.7294 H   0  0  0  0  0  0  0  0  0  0  0  0
  139.0122   79.5458  221.0089 H   0  0  0  0  0  0  0  0  0  0  0  0
  137.2310   79.7776  221.0089 H   0  0  0  0  0  0  0  0  0  0  0  0
  139.3329   77.6672  223.1153 H   0  0  0  0  0  0  0  0  0  0  0  0
  137.5691   77.3426  223.3113 H   0  0  0  0  0  0  0  0  0  0  0  0
  137.6845   76.4940  221.1965 H   0  0  0  0  0  0  0  0  0  0  0  0
  137.7154   78.1668  220.6471 H   0  0  0  0  0  0  0  0  0  0  0  0
  139.9338   77.8643  219.9718 H   0  0  0  0  0  0  0  0  0  0  0  0
  140.4028   77.5403  221.6503 H   0  0  0  0  0  0  0  0  0  0  0  0
  139.0940   74.9400  223.4440 H   0  0  0  0  0  0  0  0  0  0  0  0
  137.7669   73.8003  220.9473 H   0  0  0  0  0  0  0  0  0  0  0  0
  139.2483   73.2246  220.1659 H   0  0  0  0  0  0  0  0  0  0  0  0
  139.4570   73.2030  223.1630 H   0  0  0  0  0  0  0  0  0  0  0  0
  138.3699   68.7768  222.6545 H   0  0  0  0  0  0  0  0  0  0  0  0
  138.8831   67.4838  224.7257 H   0  0  0  0  0  0  0  0  0  0  0  0
  139.8365   67.4331  227.0288 H   0  0  0  0  0  0  0  0  0  0  0  0
  141.5103   71.1010  228.6073 H   0  0  0  0  0  0  0  0  0  0  0  0
  140.9433   72.2756  226.4814 H   0  0  0  0  0  0  0  0  0  0  0  0
  138.4336   80.8285  224.1739 H   0  0  0  0  0  0  0  0  0  0  0  0
  138.8242   79.1541  224.7456 H   0  0  0  0  0  0  0  0  0  0  0  0
  140.1117   82.0751  222.8564 H   0  0  0  0  0  0  0  0  0  0  0  0
  142.5108   82.2386  222.2216 H   0  0  0  0  0  0  0  0  0  0  0  0
  144.0238   80.2967  222.4940 H   0  0  0  0  0  0  0  0  0  0  0  0
  143.1443   78.1589  223.4181 H   0  0  0  0  0  0  0  0  0  0  0  0
  140.7555   78.0064  224.0424 H   0  0  0  0  0  0  0  0  0  0  0  0
  1  2  1  0
  2  3  1  0
  3  4  1  0
  4  5  1  0
  5  6  1  0
  6  7  2  0
  7  8  1  0
  7  9  1  0
  9 10  1  0
 10 11  1  0
 11 12  2  0
 11 13  1  0
 13 14  2  0
 14 15  1  0
 15 16  2  0
 16 17  1  0
 17 18  2  0
 18 19  1  0
 18 20  1  0
 20 21  2  0
 21 22  1  0
 22 23  2  0
  2 24  1  0
 24 25  1  0
 25 26  2  0
 26 27  1  0
 27 28  2  0
 28 29  1  0
 29 30  2  0
 23 13  1  0
 30 25  1  0
 22 16  1  0
  1 31  1  0
  1 32  1  0
  1 33  1  0
  3 34  1  0
  3 35  1  0
  4 36  1  0
  4 37  1  0
  5 38  1  0
  5 39  1  0
  8 40  1  0
  9 41  1  0
  9 42  1  0
 10 43  1  0
 14 44  1  0
 15 45  1  0
 17 46  1  0
 20 47  1  0
 21 48  1  0
 24 49  1  0
 24 50  1  0
 26 51  1  0
 27 52  1  0
 28 53  1  0
 29 54  1  0
 30 55  1  0
M  END
>  <smiles>  (93) 
CN(CCCN=C(O)CNC(=O)c1ccc2cc(F)ccc2n1)Cc1ccccc1

>  <score_type>  (93) 
oracle

>  <origin>  (93) 
autodockgpu

>  <m_score__min__energy>  (93) 
-8.0199999999999996

>  <m_primary>  (93) 
energy

>  <rmsd>  (93) 
0.630706023818375

>  <m_score__min__rmsd>  (93) 
0.630706023818375

>  <meeko>  (93) 
{"free_energy": -7.44, "intermolecular_energy": -10.72, "internal_energy": -2.11, "cluster_size": 27, "cluster_id": 1, "rank_in_cluster": 15}

>  <energy>  (93) 
-7.22

>  <cluster_rmsd>  (93) 
0.4

>  <cluster>  (93) 
6

$$$$

     RDKit          3D

 55 57  0  0  0  0  0  0  0  0999 V2000
  141.7430   76.4180  220.4720 C   0  0  0  0  0  0  0  0  0  0  0  0
  140.8080   77.3130  221.0570 N   0  0  0  0  0  0  0  0  0  0  0  0
  139.4700   77.0790  220.5860 C   0  0  0  0  0  0  0  0  0  0  0  0
  138.5550   76.7180  221.7410 C   0  0  0  0  0  0  0  0  0  0  0  0
  137.9100   75.3860  221.3190 C   0  0  0  0  0  0  0  0  0  0  0  0
  138.9480   74.6230  220.6710 N   0  0  0  0  0  0  0  0  0  0  0  0
  139.3890   73.5690  221.2390 C   0  0  0  0  0  0  0  0  0  0  0  0
  139.9110   73.7140  222.5290 O   0  0  0  0  0  0  0  0  0  0  0  0
  139.4020   72.2080  220.6670 C   0  0  0  0  0  0  0  0  0  0  0  0
  139.6930   71.2990  221.7900 N   0  0  0  0  0  0  0  0  0  0  0  0
  138.8370   71.2380  222.9310 C   0  0  0  0  0  0  0  0  0  0  0  0
  137.8070   71.9370  223.0490 O   0  0  0  0  0  0  0  0  0  0  0  0
  139.1770   70.3100  224.0220 C   0  0  0  0  0  0  0  0  0  0  0  0
  138.8940   68.9720  223.9660 C   0  0  0  0  0  0  0  0  0  0  0  0
  139.2350   68.1240  225.0260 C   0  0  0  0  0  0  0  0  0  0  0  0
  139.8670   68.6470  226.1500 C   0  0  0  0  0  0  0  0  0  0  0  0
  140.2250   67.8440  227.2270 C   0  0  0  0  0  0  0  0  0  0  0  0
  140.8570   68.4670  228.3090 C   0  0  0  0  0  0  0  0  0  0  0  0
  141.2330   67.7470  229.3920 F   0  0  0  0  0  0  0  0  0  0  0  0
  141.1210   69.8190  228.3220 C   0  0  0  0  0  0  0  0  0  0  0  0
  140.7560   70.5910  227.2400 C   0  0  0  0  0  0  0  0  0  0  0  0
  140.1330   69.9810  226.1730 C   0  0  0  0  0  0  0  0  0  0  0  0
  139.7930   70.7690  225.1380 N   0  0  0  0  0  0  0  0  0  0  0  0
  140.8130   77.4010  222.4840 C   0  0  0  0  0  0  0  0  0  0  0  0
  141.2560   78.7490  222.9480 C   0  0  0  0  0  0  0  0  0  0  0  0
  142.5660   79.1480  222.9640 C   0  0  0  0  0  0  0  0  0  0  0  0
  142.8960   80.4250  223.4120 C   0  0  0  0  0  0  0  0  0  0  0  0
  141.9170   81.3000  223.8450 C   0  0  0  0  0  0  0  0  0  0  0  0
  140.5940   80.9130  223.8340 C   0  0  0  0  0  0  0  0  0  0  0  0
  140.2800   79.6450  223.3870 C   0  0  0  0  0  0  0  0  0  0  0  0
  142.2929   75.8916  221.2660 H   0  0  0  0  0  0  0  0  0  0  0  0
  141.2090   75.6858  219.8485 H   0  0  0  0  0  0  0  0  0  0  0  0
  142.4511   76.9834  219.8485 H   0  0  0  0  0  0  0  0  0  0  0  0
  139.0939   77.9899  220.0974 H   0  0  0  0  0  0  0  0  0  0  0  0
  139.4860   76.2436  219.8706 H   0  0  0  0  0  0  0  0  0  0  0  0
  139.1313   76.5940  222.6697 H   0  0  0  0  0  0  0  0  0  0  0  0
  137.8076   77.4995  221.9429 H   0  0  0  0  0  0  0  0  0  0  0  0
  137.5356   74.8472  222.2019 H   0  0  0  0  0  0  0  0  0  0  0  0
  137.0548   75.5503  220.6470 H   0  0  0  0  0  0  0  0  0  0  0  0
  139.3870   73.4150  223.3340 H   0  0  0  0  0  0  0  0  0  0  0  0
  138.4231   71.9694  220.2257 H   0  0  0  0  0  0  0  0  0  0  0  0
  140.1515   72.1138  219.8674 H   0  0  0  0  0  0  0  0  0  0  0  0
  140.5230   70.6730  221.7970 H   0  0  0  0  0  0  0  0  0  0  0  0
  138.3931   68.5586  223.0782 H   0  0  0  0  0  0  0  0  0  0  0  0
  139.0046   67.0498  224.9708 H   0  0  0  0  0  0  0  0  0  0  0  0
  140.0199   66.7633  227.2285 H   0  0  0  0  0  0  0  0  0  0  0  0
  141.6189   70.2786  229.1885 H   0  0  0  0  0  0  0  0  0  0  0  0
  140.9580   71.6722  227.2285 H   0  0  0  0  0  0  0  0  0  0  0  0
  139.7959   77.2110  222.8573 H   0  0  0  0  0  0  0  0  0  0  0  0
  141.5194   76.6529  222.8732 H   0  0  0  0  0  0  0  0  0  0  0  0
  143.3556   78.4618  222.6239 H   0  0  0  0  0  0  0  0  0  0  0  0
  143.9494   80.7415  223.4214 H   0  0  0  0  0  0  0  0  0  0  0  0
  142.1937   82.3044  224.1981 H   0  0  0  0  0  0  0  0  0  0  0  0
  139.8051   81.5999  224.1742 H   0  0  0  0  0  0  0  0  0  0  0  0
  139.2260   79.3306  223.3765 H   0  0  0  0  0  0  0  0  0  0  0  0
  1  2  1  0
  2  3  1  0
  3  4  1  0
  4  5  1  0
  5  6  1  0
  6  7  2  0
  7  8  1  0
  7  9  1  0
  9 10  1  0
 10 11  1  0
 11 12  2  0
 11 13  1  0
 13 14  2  0
 14 15  1  0
 15 16  2  0
 16 17  1  0
 17 18  2  0
 18 19  1  0
 18 20  1  0
 20 21  2  0
 21 22  1  0
 22 23  2  0
  2 24  1  0
 24 25  1  0
 25 26  2  0
 26 27  1  0
 27 28  2  0
 28 29  1  0
 29 30  2  0
 23 13  1  0
 30 25  1  0
 22 16  1  0
  1 31  1  0
  1 32  1  0
  1 33  1  0
  3 34  1  0
  3 35  1  0
  4 36  1  0
  4 37  1  0
  5 38  1  0
  5 39  1  0
  8 40  1  0
  9 41  1  0
  9 42  1  0
 10 43  1  0
 14 44  1  0
 15 45  1  0
 17 46  1  0
 20 47  1  0
 21 48  1  0
 24 49  1  0
 24 50  1  0
 26 51  1  0
 27 52  1  0
 28 53  1  0
 29 54  1  0
 30 55  1  0
M  END
>  <smiles>  (94) 
CN(CCCN=C(O)CNC(=O)c1ccc2cc(F)ccc2n1)Cc1ccccc1

>  <score_type>  (94) 
oracle

>  <origin>  (94) 
autodockgpu

>  <m_score__min__energy>  (94) 
-8.0199999999999996

>  <m_primary>  (94) 
energy

>  <rmsd>  (94) 
1.506540635110601

>  <m_score__min__rmsd>  (94) 
1.506540635110601

>  <meeko>  (94) 
{"free_energy": -7.61, "intermolecular_energy": -10.89, "internal_energy": -1.87, "cluster_size": 27, "cluster_id": 1, "rank_in_cluster": 9}

>  <energy>  (94) 
-7.4

>  <cluster_rmsd>  (94) 
0.0

>  <cluster>  (94) 
7

$$$$

     RDKit          3D

 55 57  0  0  0  0  0  0  0  0999 V2000
  138.0730   70.6590  224.2080 C   0  0  0  0  0  0  0  0  0  0  0  0
  139.4200   70.6670  223.7540 N   0  0  0  0  0  0  0  0  0  0  0  0
  139.5110   70.9420  222.3460 C   0  0  0  0  0  0  0  0  0  0  0  0
  140.5930   71.9700  222.0740 C   0  0  0  0  0  0  0  0  0  0  0  0
  139.8360   73.1860  221.5130 C   0  0  0  0  0  0  0  0  0  0  0  0
  140.2610   74.3210  222.2970 N   0  0  0  0  0  0  0  0  0  0  0  0
  140.0880   75.4960  221.8310 C   0  0  0  0  0  0  0  0  0  0  0  0
  141.2150   76.1450  221.3130 O   0  0  0  0  0  0  0  0  0  0  0  0
  138.8140   76.2400  221.7830 C   0  0  0  0  0  0  0  0  0  0  0  0
  137.8920   75.5220  222.6810 N   0  0  0  0  0  0  0  0  0  0  0  0
  136.6990   76.1410  223.1630 C   0  0  0  0  0  0  0  0  0  0  0  0
  136.3670   77.3080  222.8610 O   0  0  0  0  0  0  0  0  0  0  0  0
  135.8150   75.3750  224.0560 C   0  0  0  0  0  0  0  0  0  0  0  0
  134.9880   75.9760  224.9670 C   0  0  0  0  0  0  0  0  0  0  0  0
  134.1630   75.2100  225.7980 C   0  0  0  0  0  0  0  0  0  0  0  0
  134.1830   73.8220  225.6980 C   0  0  0  0  0  0  0  0  0  0  0  0
  133.3810   73.0200  226.5020 C   0  0  0  0  0  0  0  0  0  0  0  0
  133.4760   71.6350  226.3230 C   0  0  0  0  0  0  0  0  0  0  0  0
  132.7230   70.7930  227.0710 F   0  0  0  0  0  0  0  0  0  0  0  0
  134.3230   71.0740  225.3940 C   0  0  0  0  0  0  0  0  0  0  0  0
  135.1070   71.8930  224.6100 C   0  0  0  0  0  0  0  0  0  0  0  0
  135.0170   73.2570  224.7830 C   0  0  0  0  0  0  0  0  0  0  0  0
  135.7980   74.0220  223.9990 N   0  0  0  0  0  0  0  0  0  0  0  0
  140.3310   71.5010  224.4730 C   0  0  0  0  0  0  0  0  0  0  0  0
  140.5840   70.9770  225.8490 C   0  0  0  0  0  0  0  0  0  0  0  0
  140.8110   71.7840  226.9320 C   0  0  0  0  0  0  0  0  0  0  0  0
  141.0380   71.2150  228.1830 C   0  0  0  0  0  0  0  0  0  0  0  0
  141.0390   69.8420  228.3490 C   0  0  0  0  0  0  0  0  0  0  0  0
  140.8120   69.0180  227.2680 C   0  0  0  0  0  0  0  0  0  0  0  0
  140.5880   69.5940  226.0330 C   0  0  0  0  0  0  0  0  0  0  0  0
  138.0568   70.6589  225.3079 H   0  0  0  0  0  0  0  0  0  0  0  0
  137.5546   71.5541  223.8337 H   0  0  0  0  0  0  0  0  0  0  0  0
  137.5653   69.7578  223.8337 H   0  0  0  0  0  0  0  0  0  0  0  0
  139.7525   70.0120  221.8104 H   0  0  0  0  0  0  0  0  0  0  0  0
  138.5464   71.3404  221.9984 H   0  0  0  0  0  0  0  0  0  0  0  0
  141.1203   72.2346  223.0024 H   0  0  0  0  0  0  0  0  0  0  0  0
  141.3594   71.5969  221.3787 H   0  0  0  0  0  0  0  0  0  0  0  0
  140.0898   73.3377  220.4535 H   0  0  0  0  0  0  0  0  0  0  0  0
  138.7470   73.0428  221.5723 H   0  0  0  0  0  0  0  0  0  0  0  0
  141.9840   76.3970  221.9100 H   0  0  0  0  0  0  0  0  0  0  0  0
  138.9608   77.2728  222.1319 H   0  0  0  0  0  0  0  0  0  0  0  0
  138.4176   76.2958  220.7584 H   0  0  0  0  0  0  0  0  0  0  0  0
  138.0700   74.5470  222.9960 H   0  0  0  0  0  0  0  0  0  0  0  0
  134.9720   77.0730  225.0464 H   0  0  0  0  0  0  0  0  0  0  0  0
  133.5021   75.7023  226.5265 H   0  0  0  0  0  0  0  0  0  0  0  0
  132.7000   73.4558  227.2479 H   0  0  0  0  0  0  0  0  0  0  0  0
  134.3737   69.9813  225.2783 H   0  0  0  0  0  0  0  0  0  0  0  0
  135.7907   71.4663  223.8614 H   0  0  0  0  0  0  0  0  0  0  0  0
  141.2844   71.5437  223.9259 H   0  0  0  0  0  0  0  0  0  0  0  0
  139.8851   72.5027  224.5618 H   0  0  0  0  0  0  0  0  0  0  0  0
  140.8141   72.8777  226.8144 H   0  0  0  0  0  0  0  0  0  0  0  0
  141.2189   71.8665  229.0506 H   0  0  0  0  0  0  0  0  0  0  0  0
  141.2209   69.4080  229.3433 H   0  0  0  0  0  0  0  0  0  0  0  0
  140.8093   67.9244  227.3864 H   0  0  0  0  0  0  0  0  0  0  0  0
  140.4069   68.9413  225.1663 H   0  0  0  0  0  0  0  0  0  0  0  0
  1  2  1  0
  2  3  1  0
  3  4  1  0
  4  5  1  0
  5  6  1  0
  6  7  2  0
  7  8  1  0
  7  9  1  0
  9 10  1  0
 10 11  1  0
 11 12  2  0
 11 13  1  0
 13 14  2  0
 14 15  1  0
 15 16  2  0
 16 17  1  0
 17 18  2  0
 18 19  1  0
 18 20  1  0
 20 21  2  0
 21 22  1  0
 22 23  2  0
  2 24  1  0
 24 25  1  0
 25 26  2  0
 26 27  1  0
 27 28  2  0
 28 29  1  0
 29 30  2  0
 23 13  1  0
 30 25  1  0
 22 16  1  0
  1 31  1  0
  1 32  1  0
  1 33  1  0
  3 34  1  0
  3 35  1  0
  4 36  1  0
  4 37  1  0
  5 38  1  0
  5 39  1  0
  8 40  1  0
  9 41  1  0
  9 42  1  0
 10 43  1  0
 14 44  1  0
 15 45  1  0
 17 46  1  0
 20 47  1  0
 21 48  1  0
 24 49  1  0
 24 50  1  0
 26 51  1  0
 27 52  1  0
 28 53  1  0
 29 54  1  0
 30 55  1  0
M  END
>  <smiles>  (95) 
CN(CCCN=C(O)CNC(=O)c1ccc2cc(F)ccc2n1)Cc1ccccc1

>  <score_type>  (95) 
oracle

>  <origin>  (95) 
autodockgpu

>  <m_score__min__energy>  (95) 
-8.0199999999999996

>  <m_primary>  (95) 
energy

>  <rmsd>  (95) 
6.635856849862689

>  <m_score__min__rmsd>  (95) 
6.635856849862689

>  <meeko>  (95) 
{"free_energy": -7.41, "intermolecular_energy": -10.69, "internal_energy": -2.2, "cluster_size": 2, "cluster_id": 6, "rank_in_cluster": 1}

>  <energy>  (95) 
-7.33

>  <cluster_rmsd>  (95) 
0.53

>  <cluster>  (95) 
7

$$$$

     RDKit          3D

 55 57  0  0  0  0  0  0  0  0999 V2000
  136.6500   79.8900  223.7450 C   0  0  0  0  0  0  0  0  0  0  0  0
  138.0300   79.6790  223.4780 N   0  0  0  0  0  0  0  0  0  0  0  0
  138.2330   78.8570  222.3160 C   0  0  0  0  0  0  0  0  0  0  0  0
  138.3600   77.3980  222.7140 C   0  0  0  0  0  0  0  0  0  0  0  0
  137.9250   76.6180  221.4600 C   0  0  0  0  0  0  0  0  0  0  0  0
  139.0850   75.8780  221.0250 N   0  0  0  0  0  0  0  0  0  0  0  0
  139.3240   74.7390  221.5470 C   0  0  0  0  0  0  0  0  0  0  0  0
  140.4910   74.6240  222.3130 O   0  0  0  0  0  0  0  0  0  0  0  0
  138.4910   73.5270  221.4230 C   0  0  0  0  0  0  0  0  0  0  0  0
  138.9010   72.6380  222.5240 N   0  0  0  0  0  0  0  0  0  0  0  0
  138.5290   71.2600  222.5390 C   0  0  0  0  0  0  0  0  0  0  0  0
  137.8450   70.7290  221.6370 O   0  0  0  0  0  0  0  0  0  0  0  0
  138.9690   70.4200  223.6650 C   0  0  0  0  0  0  0  0  0  0  0  0
  138.7850   69.0630  223.6880 C   0  0  0  0  0  0  0  0  0  0  0  0
  139.2180   68.3010  224.7780 C   0  0  0  0  0  0  0  0  0  0  0  0
  139.8430   68.9280  225.8520 C   0  0  0  0  0  0  0  0  0  0  0  0
  140.2910   68.2120  226.9560 C   0  0  0  0  0  0  0  0  0  0  0  0
  140.9070   68.9370  227.9830 C   0  0  0  0  0  0  0  0  0  0  0  0
  141.3670   68.3050  229.0890 F   0  0  0  0  0  0  0  0  0  0  0  0
  141.0700   70.3030  227.9180 C   0  0  0  0  0  0  0  0  0  0  0  0
  140.6160   70.9870  226.8100 C   0  0  0  0  0  0  0  0  0  0  0  0
  140.0100   70.2770  225.7970 C   0  0  0  0  0  0  0  0  0  0  0  0
  139.5820   70.9810  224.7340 N   0  0  0  0  0  0  0  0  0  0  0  0
  138.8510   80.8460  223.3980 C   0  0  0  0  0  0  0  0  0  0  0  0
  140.2930   80.4900  223.2360 C   0  0  0  0  0  0  0  0  0  0  0  0
  141.1590   81.1950  222.4450 C   0  0  0  0  0  0  0  0  0  0  0  0
  142.4900   80.7970  222.3480 C   0  0  0  0  0  0  0  0  0  0  0  0
  142.9530   79.6950  223.0420 C   0  0  0  0  0  0  0  0  0  0  0  0
  142.0930   78.9750  223.8430 C   0  0  0  0  0  0  0  0  0  0  0  0
  140.7760   79.3800  223.9300 C   0  0  0  0  0  0  0  0  0  0  0  0
  136.4866   79.9150  224.8325 H   0  0  0  0  0  0  0  0  0  0  0  0
  136.3334   80.8470  223.3046 H   0  0  0  0  0  0  0  0  0  0  0  0
  136.0620   79.0713  223.3046 H   0  0  0  0  0  0  0  0  0  0  0  0
  137.3765   78.9736  221.6357 H   0  0  0  0  0  0  0  0  0  0  0  0
  139.1603   79.1715  221.8147 H   0  0  0  0  0  0  0  0  0  0  0  0
  139.3995   77.1567  222.9810 H   0  0  0  0  0  0  0  0  0  0  0  0
  137.7491   77.1496  223.5944 H   0  0  0  0  0  0  0  0  0  0  0  0
  137.1030   75.9294  221.7051 H   0  0  0  0  0  0  0  0  0  0  0  0
  137.5620   77.2946  220.6723 H   0  0  0  0  0  0  0  0  0  0  0  0
  141.3460   75.0640  222.0180 H   0  0  0  0  0  0  0  0  0  0  0  0
  137.4256   73.7843  221.5161 H   0  0  0  0  0  0  0  0  0  0  0  0
  138.6255   73.0441  220.4439 H   0  0  0  0  0  0  0  0  0  0  0  0
  139.4720   72.9740  223.3260 H   0  0  0  0  0  0  0  0  0  0  0  0
  138.2911   68.5668  222.8396 H   0  0  0  0  0  0  0  0  0  0  0  0
  139.0654   67.2117  224.7864 H   0  0  0  0  0  0  0  0  0  0  0  0
  140.1667   67.1209  227.0200 H   0  0  0  0  0  0  0  0  0  0  0  0
  141.5579   70.8435  228.7425 H   0  0  0  0  0  0  0  0  0  0  0  0
  140.7354   72.0780  226.7365 H   0  0  0  0  0  0  0  0  0  0  0  0
  138.5324   81.4489  222.5349 H   0  0  0  0  0  0  0  0  0  0  0  0
  138.7381   81.4127  224.3340 H   0  0  0  0  0  0  0  0  0  0  0  0
  140.8045   82.0742  221.8870 H   0  0  0  0  0  0  0  0  0  0  0  0
  143.1819   81.3671  221.7107 H   0  0  0  0  0  0  0  0  0  0  0  0
  144.0071   79.3928  222.9551 H   0  0  0  0  0  0  0  0  0  0  0  0
  142.4484   78.0963  224.4012 H   0  0  0  0  0  0  0  0  0  0  0  0
  140.0848   78.8089  224.5673 H   0  0  0  0  0  0  0  0  0  0  0  0
  1  2  1  0
  2  3  1  0
  3  4  1  0
  4  5  1  0
  5  6  1  0
  6  7  2  0
  7  8  1  0
  7  9  1  0
  9 10  1  0
 10 11  1  0
 11 12  2  0
 11 13  1  0
 13 14  2  0
 14 15  1  0
 15 16  2  0
 16 17  1  0
 17 18  2  0
 18 19  1  0
 18 20  1  0
 20 21  2  0
 21 22  1  0
 22 23  2  0
  2 24  1  0
 24 25  1  0
 25 26  2  0
 26 27  1  0
 27 28  2  0
 28 29  1  0
 29 30  2  0
 23 13  1  0
 30 25  1  0
 22 16  1  0
  1 31  1  0
  1 32  1  0
  1 33  1  0
  3 34  1  0
  3 35  1  0
  4 36  1  0
  4 37  1  0
  5 38  1  0
  5 39  1  0
  8 40  1  0
  9 41  1  0
  9 42  1  0
 10 43  1  0
 14 44  1  0
 15 45  1  0
 17 46  1  0
 20 47  1  0
 21 48  1  0
 24 49  1  0
 24 50  1  0
 26 51  1  0
 27 52  1  0
 28 53  1  0
 29 54  1  0
 30 55  1  0
M  END
>  <smiles>  (96) 
CN(CCCN=C(O)CNC(=O)c1ccc2cc(F)ccc2n1)Cc1ccccc1

>  <score_type>  (96) 
oracle

>  <origin>  (96) 
autodockgpu

>  <m_score__min__energy>  (96) 
-8.0199999999999996

>  <m_primary>  (96) 
energy

>  <rmsd>  (96) 
0.7806576955428887

>  <m_score__min__rmsd>  (96) 
0.7806576955428887

>  <meeko>  (96) 
{"free_energy": -7.29, "intermolecular_energy": -10.57, "internal_energy": -2.01, "cluster_size": 4, "cluster_id": 5, "rank_in_cluster": 4}

>  <energy>  (96) 
-7.31

>  <cluster_rmsd>  (96) 
0.85

>  <cluster>  (96) 
7

$$$$

     RDKit          3D

 55 57  0  0  0  0  0  0  0  0999 V2000
  142.9500   80.8400  224.0680 C   0  0  0  0  0  0  0  0  0  0  0  0
  142.0270   80.2280  223.1780 N   0  0  0  0  0  0  0  0  0  0  0  0
  141.2710   79.1870  223.8180 C   0  0  0  0  0  0  0  0  0  0  0  0
  141.0890   78.0090  222.8800 C   0  0  0  0  0  0  0  0  0  0  0  0
  139.6200   78.0980  222.4290 C   0  0  0  0  0  0  0  0  0  0  0  0
  139.4460   77.0820  221.4200 N   0  0  0  0  0  0  0  0  0  0  0  0
  139.1470   75.8950  221.7820 C   0  0  0  0  0  0  0  0  0  0  0  0
  138.1550   75.7600  222.7600 O   0  0  0  0  0  0  0  0  0  0  0  0
  139.7460   74.6470  221.2690 C   0  0  0  0  0  0  0  0  0  0  0  0
  139.5890   73.6510  222.3430 N   0  0  0  0  0  0  0  0  0  0  0  0
  140.4470   72.5130  222.4260 C   0  0  0  0  0  0  0  0  0  0  0  0
  141.3690   72.2930  221.6100 O   0  0  0  0  0  0  0  0  0  0  0  0
  140.2440   71.5510  223.5220 C   0  0  0  0  0  0  0  0  0  0  0  0
  139.6100   70.3520  223.3410 C   0  0  0  0  0  0  0  0  0  0  0  0
  139.4370   69.4660  224.4110 C   0  0  0  0  0  0  0  0  0  0  0  0
  139.9150   69.8070  225.6720 C   0  0  0  0  0  0  0  0  0  0  0  0
  139.7680   68.9600  226.7640 C   0  0  0  0  0  0  0  0  0  0  0  0
  140.2840   69.3970  227.9890 C   0  0  0  0  0  0  0  0  0  0  0  0
  140.1760   68.6220  229.0950 F   0  0  0  0  0  0  0  0  0  0  0  0
  140.9150   70.6130  228.1250 C   0  0  0  0  0  0  0  0  0  0  0  0
  141.0480   71.4340  227.0250 C   0  0  0  0  0  0  0  0  0  0  0  0
  140.5400   71.0070  225.8170 C   0  0  0  0  0  0  0  0  0  0  0  0
  140.6910   71.8370  224.7690 N   0  0  0  0  0  0  0  0  0  0  0  0
  141.1460   81.1030  222.4690 C   0  0  0  0  0  0  0  0  0  0  0  0
  141.4400   81.1060  221.0040 C   0  0  0  0  0  0  0  0  0  0  0  0
  141.8220   79.9890  220.3100 C   0  0  0  0  0  0  0  0  0  0  0  0
  142.0770   80.0770  218.9440 C   0  0  0  0  0  0  0  0  0  0  0  0
  141.9510   81.2800  218.2740 C   0  0  0  0  0  0  0  0  0  0  0  0
  141.5670   82.4120  218.9590 C   0  0  0  0  0  0  0  0  0  0  0  0
  141.3170   82.3120  220.3140 C   0  0  0  0  0  0  0  0  0  0  0  0
  142.6468   80.6389  225.1061 H   0  0  0  0  0  0  0  0  0  0  0  0
  143.9553   80.4289  223.8935 H   0  0  0  0  0  0  0  0  0  0  0  0
  142.9626   81.9260  223.8935 H   0  0  0  0  0  0  0  0  0  0  0  0
  141.8060   78.8528  224.7192 H   0  0  0  0  0  0  0  0  0  0  0  0
  140.2808   79.5819  224.0893 H   0  0  0  0  0  0  0  0  0  0  0  0
  141.7662   78.0910  222.0171 H   0  0  0  0  0  0  0  0  0  0  0  0
  141.3200   77.0490  223.3648 H   0  0  0  0  0  0  0  0  0  0  0  0
  138.9481   77.9098  223.2794 H   0  0  0  0  0  0  0  0  0  0  0  0
  139.3813   79.0975  222.0365 H   0  0  0  0  0  0  0  0  0  0  0  0
  138.1960   75.0180  223.4370 H   0  0  0  0  0  0  0  0  0  0  0  0
  139.2210   74.3160  220.3608 H   0  0  0  0  0  0  0  0  0  0  0  0
  140.8035   74.7877  221.0009 H   0  0  0  0  0  0  0  0  0  0  0  0
  138.8560   73.7340  223.0750 H   0  0  0  0  0  0  0  0  0  0  0  0
  139.2322   70.0814  222.3440 H   0  0  0  0  0  0  0  0  0  0  0  0
  138.9255   68.5047  224.2553 H   0  0  0  0  0  0  0  0  0  0  0  0
  139.2664   67.9856  226.6691 H   0  0  0  0  0  0  0  0  0  0  0  0
  141.3096   70.9270  229.1026 H   0  0  0  0  0  0  0  0  0  0  0  0
  141.5492   72.4095  227.1099 H   0  0  0  0  0  0  0  0  0  0  0  0
  140.1093   80.7698  222.6249 H   0  0  0  0  0  0  0  0  0  0  0  0
  141.2908   82.1238  222.8524 H   0  0  0  0  0  0  0  0  0  0  0  0
  141.9271   79.0254  220.8300 H   0  0  0  0  0  0  0  0  0  0  0  0
  142.3829   79.1771  218.3902 H   0  0  0  0  0  0  0  0  0  0  0  0
  142.1572   81.3332  217.1948 H   0  0  0  0  0  0  0  0  0  0  0  0
  141.4617   83.3751  218.4380 H   0  0  0  0  0  0  0  0  0  0  0  0
  141.0110   83.2125  220.8666 H   0  0  0  0  0  0  0  0  0  0  0  0
  1  2  1  0
  2  3  1  0
  3  4  1  0
  4  5  1  0
  5  6  1  0
  6  7  2  0
  7  8  1  0
  7  9  1  0
  9 10  1  0
 10 11  1  0
 11 12  2  0
 11 13  1  0
 13 14  2  0
 14 15  1  0
 15 16  2  0
 16 17  1  0
 17 18  2  0
 18 19  1  0
 18 20  1  0
 20 21  2  0
 21 22  1  0
 22 23  2  0
  2 24  1  0
 24 25  1  0
 25 26  2  0
 26 27  1  0
 27 28  2  0
 28 29  1  0
 29 30  2  0
 23 13  1  0
 30 25  1  0
 22 16  1  0
  1 31  1  0
  1 32  1  0
  1 33  1  0
  3 34  1  0
  3 35  1  0
  4 36  1  0
  4 37  1  0
  5 38  1  0
  5 39  1  0
  8 40  1  0
  9 41  1  0
  9 42  1  0
 10 43  1  0
 14 44  1  0
 15 45  1  0
 17 46  1  0
 20 47  1  0
 21 48  1  0
 24 49  1  0
 24 50  1  0
 26 51  1  0
 27 52  1  0
 28 53  1  0
 29 54  1  0
 30 55  1  0
M  END
>  <smiles>  (97) 
CN(CCCN=C(O)CNC(=O)c1ccc2cc(F)ccc2n1)Cc1ccccc1

>  <score_type>  (97) 
oracle

>  <origin>  (97) 
autodockgpu

>  <m_score__min__energy>  (97) 
-8.0199999999999996

>  <m_primary>  (97) 
energy

>  <rmsd>  (97) 
1.386772512916684

>  <m_score__min__rmsd>  (97) 
1.386772512916684

>  <meeko>  (97) 
{"free_energy": -7.91, "intermolecular_energy": -11.19, "internal_energy": -1.74, "cluster_size": 4, "cluster_id": 2, "rank_in_cluster": 1}

>  <energy>  (97) 
-7.38

>  <cluster_rmsd>  (97) 
0.0

>  <cluster>  (97) 
8

$$$$

     RDKit          3D

 55 57  0  0  0  0  0  0  0  0999 V2000
  142.1680   78.6100  218.4490 C   0  0  0  0  0  0  0  0  0  0  0  0
  141.5610   77.6970  219.3530 N   0  0  0  0  0  0  0  0  0  0  0  0
  142.5370   76.9420  220.0910 C   0  0  0  0  0  0  0  0  0  0  0  0
  142.9730   75.7220  219.3020 C   0  0  0  0  0  0  0  0  0  0  0  0
  142.7160   74.5370  220.2500 C   0  0  0  0  0  0  0  0  0  0  0  0
  141.7360   74.9930  221.2060 N   0  0  0  0  0  0  0  0  0  0  0  0
  140.7190   74.2610  221.4460 C   0  0  0  0  0  0  0  0  0  0  0  0
  139.7720   74.7650  222.3460 O   0  0  0  0  0  0  0  0  0  0  0  0
  140.4420   72.9310  220.8680 C   0  0  0  0  0  0  0  0  0  0  0  0
  140.5160   71.9780  221.9890 N   0  0  0  0  0  0  0  0  0  0  0  0
  139.3800   71.7140  222.8110 C   0  0  0  0  0  0  0  0  0  0  0  0
  138.2700   72.2630  222.6370 O   0  0  0  0  0  0  0  0  0  0  0  0
  139.5140   70.7510  223.9160 C   0  0  0  0  0  0  0  0  0  0  0  0
  139.0560   69.4630  223.8300 C   0  0  0  0  0  0  0  0  0  0  0  0
  139.2030   68.5790  224.9050 C   0  0  0  0  0  0  0  0  0  0  0  0
  139.8210   69.0130  226.0740 C   0  0  0  0  0  0  0  0  0  0  0  0
  139.9900   68.1710  227.1670 C   0  0  0  0  0  0  0  0  0  0  0  0
  140.6230   68.7040  228.2950 C   0  0  0  0  0  0  0  0  0  0  0  0
  140.8220   67.9410  229.3970 F   0  0  0  0  0  0  0  0  0  0  0  0
  141.0670   70.0070  228.3370 C   0  0  0  0  0  0  0  0  0  0  0  0
  140.8860   70.8200  227.2390 C   0  0  0  0  0  0  0  0  0  0  0  0
  140.2630   70.2980  226.1260 C   0  0  0  0  0  0  0  0  0  0  0  0
  140.1060   71.1240  225.0750 N   0  0  0  0  0  0  0  0  0  0  0  0
  140.5850   78.2350  220.2470 C   0  0  0  0  0  0  0  0  0  0  0  0
  141.2140   78.7500  221.5000 C   0  0  0  0  0  0  0  0  0  0  0  0
  141.1310   78.1050  222.7050 C   0  0  0  0  0  0  0  0  0  0  0  0
  141.7470   78.6520  223.8270 C   0  0  0  0  0  0  0  0  0  0  0  0
  142.4440   79.8430  223.7440 C   0  0  0  0  0  0  0  0  0  0  0  0
  142.5370   80.5040  222.5380 C   0  0  0  0  0  0  0  0  0  0  0  0
  141.9210   79.9510  221.4320 C   0  0  0  0  0  0  0  0  0  0  0  0
  142.6899   79.3950  219.0159 H   0  0  0  0  0  0  0  0  0  0  0  0
  142.8899   78.0736  217.8157 H   0  0  0  0  0  0  0  0  0  0  0  0
  141.3941   79.0681  217.8157 H   0  0  0  0  0  0  0  0  0  0  0  0
  143.4129   77.5776  220.2880 H   0  0  0  0  0  0  0  0  0  0  0  0
  142.0878   76.6106  221.0389 H   0  0  0  0  0  0  0  0  0  0  0  0
  142.3776   75.6205  218.3826 H   0  0  0  0  0  0  0  0  0  0  0  0
  144.0245   75.7832  218.9849 H   0  0  0  0  0  0  0  0  0  0  0  0
  142.3278   73.6753  219.6871 H   0  0  0  0  0  0  0  0  0  0  0  0
  143.6419   74.2132  220.7478 H   0  0  0  0  0  0  0  0  0  0  0  0
  139.1210   74.1520  222.8070 H   0  0  0  0  0  0  0  0  0  0  0  0
  139.4395   72.9120  220.4157 H   0  0  0  0  0  0  0  0  0  0  0  0
  141.1619   72.6780  220.0757 H   0  0  0  0  0  0  0  0  0  0  0  0
  141.3900   71.4650  222.2240 H   0  0  0  0  0  0  0  0  0  0  0  0
  138.5674   69.1198  222.9062 H   0  0  0  0  0  0  0  0  0  0  0  0
  138.8320   67.5465  224.8263 H   0  0  0  0  0  0  0  0  0  0  0  0
  139.6403   67.1283  227.1459 H   0  0  0  0  0  0  0  0  0  0  0  0
  141.5619   70.3955  229.2393 H   0  0  0  0  0  0  0  0  0  0  0  0
  141.2317   71.8642  227.2507 H   0  0  0  0  0  0  0  0  0  0  0  0
  140.0584   79.0607  219.7461 H   0  0  0  0  0  0  0  0  0  0  0  0
  139.8852   77.4307  220.5179 H   0  0  0  0  0  0  0  0  0  0  0  0
  140.5789   77.1570  222.7862 H   0  0  0  0  0  0  0  0  0  0  0  0
  141.6783   78.1296  224.7926 H   0  0  0  0  0  0  0  0  0  0  0  0
  142.9242   80.2630  224.6401 H   0  0  0  0  0  0  0  0  0  0  0  0
  143.0899   81.4516  222.4579 H   0  0  0  0  0  0  0  0  0  0  0  0
  141.9901   80.4742  220.4669 H   0  0  0  0  0  0  0  0  0  0  0  0
  1  2  1  0
  2  3  1  0
  3  4  1  0
  4  5  1  0
  5  6  1  0
  6  7  2  0
  7  8  1  0
  7  9  1  0
  9 10  1  0
 10 11  1  0
 11 12  2  0
 11 13  1  0
 13 14  2  0
 14 15  1  0
 15 16  2  0
 16 17  1  0
 17 18  2  0
 18 19  1  0
 18 20  1  0
 20 21  2  0
 21 22  1  0
 22 23  2  0
  2 24  1  0
 24 25  1  0
 25 26  2  0
 26 27  1  0
 27 28  2  0
 28 29  1  0
 29 30  2  0
 23 13  1  0
 30 25  1  0
 22 16  1  0
  1 31  1  0
  1 32  1  0
  1 33  1  0
  3 34  1  0
  3 35  1  0
  4 36  1  0
  4 37  1  0
  5 38  1  0
  5 39  1  0
  8 40  1  0
  9 41  1  0
  9 42  1  0
 10 43  1  0
 14 44  1  0
 15 45  1  0
 17 46  1  0
 20 47  1  0
 21 48  1  0
 24 49  1  0
 24 50  1  0
 26 51  1  0
 27 52  1  0
 28 53  1  0
 29 54  1  0
 30 55  1  0
M  END
>  <smiles>  (98) 
CN(CCCN=C(O)CNC(=O)c1ccc2cc(F)ccc2n1)Cc1ccccc1

>  <score_type>  (98) 
oracle

>  <origin>  (98) 
autodockgpu

>  <m_score__min__energy>  (98) 
-8.0199999999999996

>  <m_primary>  (98) 
energy

>  <rmsd>  (98) 
1.5123499277425687

>  <m_score__min__rmsd>  (98) 
1.5123499277425687

>  <meeko>  (98) 
{"free_energy": -8.02, "intermolecular_energy": -11.3, "internal_energy": -2.05, "cluster_size": 27, "cluster_id": 1, "rank_in_cluster": 1}

>  <energy>  (98) 
-5.51

>  <cluster_rmsd>  (98) 
0.0

>  <cluster>  (98) 
9

$$$$

     RDKit          3D

 55 57  0  0  0  0  0  0  0  0999 V2000
  139.9330   78.4820  220.1220 C   0  0  0  0  0  0  0  0  0  0  0  0
  140.0030   77.5090  221.1560 N   0  0  0  0  0  0  0  0  0  0  0  0
  141.2490   76.7920  221.1370 C   0  0  0  0  0  0  0  0  0  0  0  0
  141.0840   75.4600  220.4300 C   0  0  0  0  0  0  0  0  0  0  0  0
  141.1030   74.4180  221.5620 C   0  0  0  0  0  0  0  0  0  0  0  0
  139.8840   74.6140  222.3090 N   0  0  0  0  0  0  0  0  0  0  0  0
  138.7650   74.3890  221.7390 C   0  0  0  0  0  0  0  0  0  0  0  0
  138.0910   75.4940  221.2050 O   0  0  0  0  0  0  0  0  0  0  0  0
  138.1090   73.0760  221.5860 C   0  0  0  0  0  0  0  0  0  0  0  0
  138.6100   72.2420  222.6930 N   0  0  0  0  0  0  0  0  0  0  0  0
  138.3920   70.8310  222.7120 C   0  0  0  0  0  0  0  0  0  0  0  0
  137.7740   70.2240  221.8100 O   0  0  0  0  0  0  0  0  0  0  0  0
  138.9170   70.0490  223.8430 C   0  0  0  0  0  0  0  0  0  0  0  0
  138.8220   68.6840  223.9020 C   0  0  0  0  0  0  0  0  0  0  0  0
  139.3350   67.9780  224.9960 C   0  0  0  0  0  0  0  0  0  0  0  0
  139.9470   68.6700  226.0360 C   0  0  0  0  0  0  0  0  0  0  0  0
  140.4710   68.0130  227.1430 C   0  0  0  0  0  0  0  0  0  0  0  0
  141.0670   68.8000  228.1350 C   0  0  0  0  0  0  0  0  0  0  0  0
  141.5990   68.2270  229.2400 F   0  0  0  0  0  0  0  0  0  0  0  0
  141.1400   70.1720  228.0330 C   0  0  0  0  0  0  0  0  0  0  0  0
  140.6110   70.7980  226.9250 C   0  0  0  0  0  0  0  0  0  0  0  0
  140.0240   70.0260  225.9470 C   0  0  0  0  0  0  0  0  0  0  0  0
  139.5210   70.6750  224.8810 N   0  0  0  0  0  0  0  0  0  0  0  0
  139.7230   77.9640  222.4820 C   0  0  0  0  0  0  0  0  0  0  0  0
  140.6540   79.0580  222.8930 C   0  0  0  0  0  0  0  0  0  0  0  0
  141.8600   78.8320  223.5020 C   0  0  0  0  0  0  0  0  0  0  0  0
  142.6700   79.9090  223.8540 C   0  0  0  0  0  0  0  0  0  0  0  0
  142.2740   81.2090  223.5980 C   0  0  0  0  0  0  0  0  0  0  0  0
  141.0630   81.4510  222.9850 C   0  0  0  0  0  0  0  0  0  0  0  0
  140.2690   80.3750  222.6410 C   0  0  0  0  0  0  0  0  0  0  0  0
  139.8608   79.4854  220.5670 H   0  0  0  0  0  0  0  0  0  0  0  0
  140.8378   78.4212  219.4994 H   0  0  0  0  0  0  0  0  0  0  0  0
  139.0462   78.2923  219.4994 H   0  0  0  0  0  0  0  0  0  0  0  0
  142.0039   77.3919  220.6076 H   0  0  0  0  0  0  0  0  0  0  0  0
  141.5697   76.6079  222.1730 H   0  0  0  0  0  0  0  0  0  0  0  0
  140.1291   75.4247  219.8851 H   0  0  0  0  0  0  0  0  0  0  0  0
  141.8727   75.2818  219.6842 H   0  0  0  0  0  0  0  0  0  0  0  0
  141.1348   73.4011  221.1439 H   0  0  0  0  0  0  0  0  0  0  0  0
  141.9895   74.5373  222.2023 H   0  0  0  0  0  0  0  0  0  0  0  0
  138.5990   76.2930  220.8660 H   0  0  0  0  0  0  0  0  0  0  0  0
  137.0164   73.1842  221.6528 H   0  0  0  0  0  0  0  0  0  0  0  0
  138.3321   72.6249  220.6079 H   0  0  0  0  0  0  0  0  0  0  0  0
  139.1370   72.6420  223.4950 H   0  0  0  0  0  0  0  0  0  0  0  0
  138.3371   68.1365  223.0803 H   0  0  0  0  0  0  0  0  0  0  0  0
  139.2547   66.8816  225.0333 H   0  0  0  0  0  0  0  0  0  0  0  0
  140.4193   66.9181  227.2358 H   0  0  0  0  0  0  0  0  0  0  0  0
  141.6165   70.7628  228.8292 H   0  0  0  0  0  0  0  0  0  0  0  0
  140.6567   71.8924  226.8237 H   0  0  0  0  0  0  0  0  0  0  0  0
  138.6901   78.3403  222.5202 H   0  0  0  0  0  0  0  0  0  0  0  0
  139.8573   77.1185  223.1728 H   0  0  0  0  0  0  0  0  0  0  0  0
  142.1877   77.8032  223.7124 H   0  0  0  0  0  0  0  0  0  0  0  0
  143.6380   79.7230  224.3423 H   0  0  0  0  0  0  0  0  0  0  0  0
  142.9244   82.0490  223.8831 H   0  0  0  0  0  0  0  0  0  0  0  0
  140.7361   82.4800  222.7743 H   0  0  0  0  0  0  0  0  0  0  0  0
  139.3014   80.5623  222.1524 H   0  0  0  0  0  0  0  0  0  0  0  0
  1  2  1  0
  2  3  1  0
  3  4  1  0
  4  5  1  0
  5  6  1  0
  6  7  2  0
  7  8  1  0
  7  9  1  0
  9 10  1  0
 10 11  1  0
 11 12  2  0
 11 13  1  0
 13 14  2  0
 14 15  1  0
 15 16  2  0
 16 17  1  0
 17 18  2  0
 18 19  1  0
 18 20  1  0
 20 21  2  0
 21 22  1  0
 22 23  2  0
  2 24  1  0
 24 25  1  0
 25 26  2  0
 26 27  1  0
 27 28  2  0
 28 29  1  0
 29 30  2  0
 23 13  1  0
 30 25  1  0
 22 16  1  0
  1 31  1  0
  1 32  1  0
  1 33  1  0
  3 34  1  0
  3 35  1  0
  4 36  1  0
  4 37  1  0
  5 38  1  0
  5 39  1  0
  8 40  1  0
  9 41  1  0
  9 42  1  0
 10 43  1  0
 14 44  1  0
 15 45  1  0
 17 46  1  0
 20 47  1  0
 21 48  1  0
 24 49  1  0
 24 50  1  0
 26 51  1  0
 27 52  1  0
 28 53  1  0
 29 54  1  0
 30 55  1  0
M  END
>  <smiles>  (99) 
CN(CCCN=C(O)CNC(=O)c1ccc2cc(F)ccc2n1)Cc1ccccc1

>  <score_type>  (99) 
oracle

>  <origin>  (99) 
autodockgpu

>  <m_score__min__energy>  (99) 
-8.0199999999999996

>  <m_primary>  (99) 
energy

>  <rmsd>  (99) 
1.0286978368902147

>  <m_score__min__rmsd>  (99) 
1.0286978368902147

>  <meeko>  (99) 
{"free_energy": -7.09, "intermolecular_energy": -10.37, "internal_energy": -2.52, "cluster_size": 27, "cluster_id": 1, "rank_in_cluster": 24}

>  <energy>  (99) 
-4.44

>  <cluster_rmsd>  (99) 
0.0

>  <cluster>  (99) 
10

$$$$

     RDKit          3D

 55 57  0  0  0  0  0  0  0  0999 V2000
  141.4150   76.5410  220.8270 C   0  0  0  0  0  0  0  0  0  0  0  0
  140.9000   77.7160  220.2150 N   0  0  0  0  0  0  0  0  0  0  0  0
  139.6460   78.1180  220.7920 C   0  0  0  0  0  0  0  0  0  0  0  0
  139.3040   77.2410  221.9820 C   0  0  0  0  0  0  0  0  0  0  0  0
  137.9490   76.6090  221.6170 C   0  0  0  0  0  0  0  0  0  0  0  0
  138.2520   75.3910  220.9060 N   0  0  0  0  0  0  0  0  0  0  0  0
  138.5220   74.3360  221.5720 C   0  0  0  0  0  0  0  0  0  0  0  0
  139.6600   74.3720  222.3860 O   0  0  0  0  0  0  0  0  0  0  0  0
  137.7490   73.0780  221.5680 C   0  0  0  0  0  0  0  0  0  0  0  0
  138.3010   72.2600  222.6630 N   0  0  0  0  0  0  0  0  0  0  0  0
  138.1620   70.8390  222.6660 C   0  0  0  0  0  0  0  0  0  0  0  0
  137.5760   70.2100  221.7590 O   0  0  0  0  0  0  0  0  0  0  0  0
  138.7340   70.0740  223.7860 C   0  0  0  0  0  0  0  0  0  0  0  0
  138.6720   68.7080  223.8530 C   0  0  0  0  0  0  0  0  0  0  0  0
  139.2290   68.0190  224.9360 C   0  0  0  0  0  0  0  0  0  0  0  0
  139.8530   68.7300  225.9570 C   0  0  0  0  0  0  0  0  0  0  0  0
  140.4210   68.0890  227.0520 C   0  0  0  0  0  0  0  0  0  0  0  0
  141.0240   68.8950  228.0240 C   0  0  0  0  0  0  0  0  0  0  0  0
  141.5980   68.3390  229.1180 F   0  0  0  0  0  0  0  0  0  0  0  0
  141.0630   70.2670  227.9160 C   0  0  0  0  0  0  0  0  0  0  0  0
  140.4920   70.8760  226.8190 C   0  0  0  0  0  0  0  0  0  0  0  0
  139.8960   70.0860  225.8600 C   0  0  0  0  0  0  0  0  0  0  0  0
  139.3510   70.7190  224.8050 N   0  0  0  0  0  0  0  0  0  0  0  0
  141.7830   78.8370  220.1410 C   0  0  0  0  0  0  0  0  0  0  0  0
  141.8350   79.5800  221.4360 C   0  0  0  0  0  0  0  0  0  0  0  0
  142.2630   79.0190  222.6100 C   0  0  0  0  0  0  0  0  0  0  0  0
  142.2800   79.7810  223.7760 C   0  0  0  0  0  0  0  0  0  0  0  0
  141.8700   81.1010  223.7670 C   0  0  0  0  0  0  0  0  0  0  0  0
  141.4370   81.6790  222.5930 C   0  0  0  0  0  0  0  0  0  0  0  0
  141.4240   80.9130  221.4440 C   0  0  0  0  0  0  0  0  0  0  0  0
  141.3686   76.6469  221.9209 H   0  0  0  0  0  0  0  0  0  0  0  0
  140.8149   75.6729  220.5168 H   0  0  0  0  0  0  0  0  0  0  0  0
  142.4601   76.3940  220.5168 H   0  0  0  0  0  0  0  0  0  0  0  0
  139.7184   79.1647  221.1225 H   0  0  0  0  0  0  0  0  0  0  0  0
  138.8556   78.0138  220.0341 H   0  0  0  0  0  0  0  0  0  0  0  0
  140.0695   76.4642  222.1254 H   0  0  0  0  0  0  0  0  0  0  0  0
  139.2609   77.8098  222.9225 H   0  0  0  0  0  0  0  0  0  0  0  0
  137.3744   76.3859  222.5281 H   0  0  0  0  0  0  0  0  0  0  0  0
  137.3408   77.2904  221.0041 H   0  0  0  0  0  0  0  0  0  0  0  0
  139.7360   73.7760  223.1930 H   0  0  0  0  0  0  0  0  0  0  0  0
  136.6829   73.2837  221.7442 H   0  0  0  0  0  0  0  0  0  0  0  0
  137.8251   72.5608  220.6002 H   0  0  0  0  0  0  0  0  0  0  0  0
  138.8070   72.6800  223.4690 H   0  0  0  0  0  0  0  0  0  0  0  0
  138.1788   68.1458  223.0464 H   0  0  0  0  0  0  0  0  0  0  0  0
  139.1740   66.9213  224.9803 H   0  0  0  0  0  0  0  0  0  0  0  0
  140.3974   66.9936  227.1503 H   0  0  0  0  0  0  0  0  0  0  0  0
  141.5454   70.8717  228.6980 H   0  0  0  0  0  0  0  0  0  0  0  0
  140.5117   71.9705  226.7113 H   0  0  0  0  0  0  0  0  0  0  0  0
  142.7935   78.4802  219.8929 H   0  0  0  0  0  0  0  0  0  0  0  0
  141.4077   79.5211  219.3657 H   0  0  0  0  0  0  0  0  0  0  0  0
  142.5924   77.9697  222.6320 H   0  0  0  0  0  0  0  0  0  0  0  0
  142.6243   79.3261  224.7165 H   0  0  0  0  0  0  0  0  0  0  0  0
  141.8893   81.6897  224.6960 H   0  0  0  0  0  0  0  0  0  0  0  0
  141.1086   82.7286  222.5717 H   0  0  0  0  0  0  0  0  0  0  0  0
  141.0783   81.3689  220.5045 H   0  0  0  0  0  0  0  0  0  0  0  0
  1  2  1  0
  2  3  1  0
  3  4  1  0
  4  5  1  0
  5  6  1  0
  6  7  2  0
  7  8  1  0
  7  9  1  0
  9 10  1  0
 10 11  1  0
 11 12  2  0
 11 13  1  0
 13 14  2  0
 14 15  1  0
 15 16  2  0
 16 17  1  0
 17 18  2  0
 18 19  1  0
 18 20  1  0
 20 21  2  0
 21 22  1  0
 22 23  2  0
  2 24  1  0
 24 25  1  0
 25 26  2  0
 26 27  1  0
 27 28  2  0
 28 29  1  0
 29 30  2  0
 23 13  1  0
 30 25  1  0
 22 16  1  0
  1 31  1  0
  1 32  1  0
  1 33  1  0
  3 34  1  0
  3 35  1  0
  4 36  1  0
  4 37  1  0
  5 38  1  0
  5 39  1  0
  8 40  1  0
  9 41  1  0
  9 42  1  0
 10 43  1  0
 14 44  1  0
 15 45  1  0
 17 46  1  0
 20 47  1  0
 21 48  1  0
 24 49  1  0
 24 50  1  0
 26 51  1  0
 27 52  1  0
 28 53  1  0
 29 54  1  0
 30 55  1  0
M  END
>  <smiles>  (100) 
CN(CCCN=C(O)CNC(=O)c1ccc2cc(F)ccc2n1)Cc1ccccc1

>  <score_type>  (100) 
oracle

>  <origin>  (100) 
autodockgpu

>  <m_score__min__energy>  (100) 
-8.0199999999999996

>  <m_primary>  (100) 
energy

>  <rmsd>  (100) 
1.0370537013631644

>  <m_score__min__rmsd>  (100) 
1.0370537013631644

>  <meeko>  (100) 
{"free_energy": -7.43, "intermolecular_energy": -10.72, "internal_energy": -2.05, "cluster_size": 27, "cluster_id": 1, "rank_in_cluster": 17}

>  <energy>  (100) 
-4.38

>  <cluster_rmsd>  (100) 
0.1

>  <cluster>  (100) 
10

$$$$
