
     RDKit          3D

 44 46  0  0  0  0  0  0  0  0999 V2000
  139.6530   67.9860  225.6190 C   0  0  0  0  0  0  0  0  0  0  0  0
  140.4140   69.2570  225.3480 C   0  0  1  0  0  0  0  0  0  0  0  0
  139.9160   69.9520  224.1760 N   0  0  0  0  0  0  0  0  0  0  0  0
  138.5900   70.3840  224.0390 C   0  0  0  0  0  0  0  0  0  0  0  0
  137.8070   70.1390  225.0230 O   0  0  0  0  0  0  0  0  0  0  0  0
  138.0090   71.0860  222.8960 C   0  0  0  0  0  0  0  0  0  0  0  0
  138.5670   72.3590  222.5790 N   0  0  0  0  0  0  0  0  0  0  0  0
  139.8700   72.5360  222.0300 C   0  0  0  0  0  0  0  0  0  0  0  0
  140.6340   71.5410  221.7780 O   0  0  0  0  0  0  0  0  0  0  0  0
  140.3630   73.9030  221.7400 C   0  0  0  0  0  0  0  0  0  0  0  0
  141.4200   74.0700  220.8700 C   0  0  0  0  0  0  0  0  0  0  0  0
  141.9230   75.3270  220.5610 C   0  0  0  0  0  0  0  0  0  0  0  0
  141.3070   76.4000  221.1730 C   0  0  0  0  0  0  0  0  0  0  0  0
  141.8010   77.6700  220.8750 C   0  0  0  0  0  0  0  0  0  0  0  0
  141.2060   78.7810  221.4730 C   0  0  0  0  0  0  0  0  0  0  0  0
  141.8190   80.3870  221.1030 Cl  0  0  0  0  0  0  0  0  0  0  0  0
  140.1490   78.5820  222.3400 C   0  0  0  0  0  0  0  0  0  0  0  0
  139.6500   77.3330  222.6450 C   0  0  0  0  0  0  0  0  0  0  0  0
  140.2470   76.2420  222.0470 C   0  0  0  0  0  0  0  0  0  0  0  0
  139.7980   74.9850  222.3100 N   0  0  0  0  0  0  0  0  0  0  0  0
  140.4000   70.1890  226.4860 C   0  0  0  0  0  0  0  0  0  0  0  0
  139.6540   69.8770  227.5940 C   0  0  0  0  0  0  0  0  0  0  0  0
  139.5840   70.7030  228.7140 C   0  0  0  0  0  0  0  0  0  0  0  0
  140.3180   71.8840  228.6630 C   0  0  0  0  0  0  0  0  0  0  0  0
  141.0800   72.2390  227.5740 C   0  0  0  0  0  0  0  0  0  0  0  0
  141.1010   71.3750  226.5050 C   0  0  0  0  0  0  0  0  0  0  0  0
  139.5636   67.8367  226.7051 H   0  0  0  0  0  0  0  0  0  0  0  0
  138.6492   68.0579  225.1749 H   0  0  0  0  0  0  0  0  0  0  0  0
  140.1904   67.1351  225.1749 H   0  0  0  0  0  0  0  0  0  0  0  0
  141.4502   68.9325  225.1721 H   0  0  0  0  0  0  0  0  0  0  0  0
  140.5980   70.1330  223.4160 H   0  0  0  0  0  0  0  0  0  0  0  0
  138.1264   70.4407  222.0129 H   0  0  0  0  0  0  0  0  0  0  0  0
  136.9656   71.2886  223.1793 H   0  0  0  0  0  0  0  0  0  0  0  0
  138.0210   73.2590  222.7420 H   0  0  0  0  0  0  0  0  0  0  0  0
  141.8774   73.1827  220.4079 H   0  0  0  0  0  0  0  0  0  0  0  0
  142.7658   75.4602  219.8668 H   0  0  0  0  0  0  0  0  0  0  0  0
  142.6451   77.7933  220.1805 H   0  0  0  0  0  0  0  0  0  0  0  0
  139.6834   79.4612  222.8092 H   0  0  0  0  0  0  0  0  0  0  0  0
  138.8063   77.2108  223.3401 H   0  0  0  0  0  0  0  0  0  0  0  0
  139.0868   68.9345  227.5986 H   0  0  0  0  0  0  0  0  0  0  0  0
  138.9796   70.4352  229.5932 H   0  0  0  0  0  0  0  0  0  0  0  0
  140.2877   72.5616  229.5290 H   0  0  0  0  0  0  0  0  0  0  0  0
  141.6511   73.1790  227.5592 H   0  0  0  0  0  0  0  0  0  0  0  0
  141.7046   71.6425  225.6252 H   0  0  0  0  0  0  0  0  0  0  0  0
  1  2  1  0
  2  3  1  0
  3  4  1  0
  4  5  2  0
  4  6  1  0
  6  7  1  0
  7  8  1  0
  8  9  2  0
  8 10  1  0
 10 11  2  0
 11 12  1  0
 12 13  2  0
 13 14  1  0
 14 15  2  0
 15 16  1  0
 15 17  1  0
 17 18  2  0
 18 19  1  0
 19 20  2  0
  2 21  1  0
 21 22  2  0
 22 23  1  0
 23 24  2  0
 24 25  1  0
 25 26  2  0
 20 10  1  0
 26 21  1  0
 19 13  1  0
  1 27  1  0
  1 28  1  0
  1 29  1  0
  2 30  1  6
  3 31  1  0
  6 32  1  0
  6 33  1  0
  7 34  1  0
 11 35  1  0
 12 36  1  0
 14 37  1  0
 17 38  1  0
 18 39  1  0
 22 40  1  0
 23 41  1  0
 24 42  1  0
 25 43  1  0
 26 44  1  0
M  END
>  <smiles>  (1) 
C[C@@H](NC(=O)CNC(=O)c1ccc2cc(Cl)ccc2n1)c1ccccc1

>  <score_type>  (1) 
oracle

>  <origin>  (1) 
autodockgpu

>  <m_score__min__energy>  (1) 
-8.7899999999999991

>  <m_primary>  (1) 
energy

>  <rmsd>  (1) 
9.806598480250175

>  <m_score__min__rmsd>  (1) 
9.806598480250175

>  <meeko>  (1) 
{"free_energy": -8.19, "intermolecular_energy": -9.68, "internal_energy": -2.05, "cluster_size": 34, "cluster_id": 3, "rank_in_cluster": 1}

>  <energy>  (1) 
-8.79

>  <cluster_rmsd>  (1) 
0.0

>  <cluster>  (1) 
1

$$$$

     RDKit          3D

 44 46  0  0  0  0  0  0  0  0999 V2000
  139.2740   68.3450  225.0040 C   0  0  0  0  0  0  0  0  0  0  0  0
  140.1650   69.5320  224.7510 C   0  0  1  0  0  0  0  0  0  0  0  0
  139.6470   70.3920  223.7050 N   0  0  0  0  0  0  0  0  0  0  0  0
  138.3080   70.7960  223.6300 C   0  0  0  0  0  0  0  0  0  0  0  0
  137.5310   70.3660  224.5530 O   0  0  0  0  0  0  0  0  0  0  0  0
  137.7050   71.6550  222.6120 C   0  0  0  0  0  0  0  0  0  0  0  0
  138.3240   72.9230  222.4020 N   0  0  0  0  0  0  0  0  0  0  0  0
  139.6100   73.0860  221.8120 C   0  0  0  0  0  0  0  0  0  0  0  0
  140.3040   72.0840  221.4220 O   0  0  0  0  0  0  0  0  0  0  0  0
  140.1700   74.4480  221.6410 C   0  0  0  0  0  0  0  0  0  0  0  0
  141.2890   74.6260  220.8550 C   0  0  0  0  0  0  0  0  0  0  0  0
  141.8560   75.8780  220.6590 C   0  0  0  0  0  0  0  0  0  0  0  0
  141.2380   76.9360  221.2960 C   0  0  0  0  0  0  0  0  0  0  0  0
  141.7960   78.2010  221.1110 C   0  0  0  0  0  0  0  0  0  0  0  0
  141.2020   79.2960  221.7380 C   0  0  0  0  0  0  0  0  0  0  0  0
  141.8950   80.8960  221.5110 Cl  0  0  0  0  0  0  0  0  0  0  0  0
  140.0830   79.0870  222.5200 C   0  0  0  0  0  0  0  0  0  0  0  0
  139.5200   77.8430  222.7130 C   0  0  0  0  0  0  0  0  0  0  0  0
  140.1170   76.7670  222.0870 C   0  0  0  0  0  0  0  0  0  0  0  0
  139.6070   75.5150  222.2400 N   0  0  0  0  0  0  0  0  0  0  0  0
  140.3940   70.3450  225.9550 C   0  0  0  0  0  0  0  0  0  0  0  0
  139.8510   69.9390  227.1470 C   0  0  0  0  0  0  0  0  0  0  0  0
  140.0170   70.6500  228.3340 C   0  0  0  0  0  0  0  0  0  0  0  0
  140.7740   71.8140  228.2610 C   0  0  0  0  0  0  0  0  0  0  0  0
  141.3390   72.2610  227.0880 C   0  0  0  0  0  0  0  0  0  0  0  0
  141.1320   71.5090  225.9570 C   0  0  0  0  0  0  0  0  0  0  0  0
  139.1616   68.1953  226.0880 H   0  0  0  0  0  0  0  0  0  0  0  0
  138.2864   68.5254  224.5544 H   0  0  0  0  0  0  0  0  0  0  0  0
  139.7230   67.4471  224.5544 H   0  0  0  0  0  0  0  0  0  0  0  0
  141.1243   69.0996  224.4303 H   0  0  0  0  0  0  0  0  0  0  0  0
  140.3240   70.7190  222.9910 H   0  0  0  0  0  0  0  0  0  0  0  0
  137.7286   71.1092  221.6573 H   0  0  0  0  0  0  0  0  0  0  0  0
  136.6947   71.8818  222.9833 H   0  0  0  0  0  0  0  0  0  0  0  0
  137.8390   73.8290  222.6820 H   0  0  0  0  0  0  0  0  0  0  0  0
  141.7454   73.7509  220.3694 H   0  0  0  0  0  0  0  0  0  0  0  0
  142.7481   76.0194  220.0311 H   0  0  0  0  0  0  0  0  0  0  0  0
  142.6886   78.3325  220.4818 H   0  0  0  0  0  0  0  0  0  0  0  0
  139.6187   79.9542  223.0124 H   0  0  0  0  0  0  0  0  0  0  0  0
  138.6276   77.7128  223.3429 H   0  0  0  0  0  0  0  0  0  0  0  0
  139.2589   69.0122  227.1671 H   0  0  0  0  0  0  0  0  0  0  0  0
  139.5720   70.3079  229.2800 H   0  0  0  0  0  0  0  0  0  0  0  0
  140.9277   72.4017  229.1781 H   0  0  0  0  0  0  0  0  0  0  0  0
  141.9340   73.1857  227.0574 H   0  0  0  0  0  0  0  0  0  0  0  0
  141.5753   71.8514  225.0103 H   0  0  0  0  0  0  0  0  0  0  0  0
  1  2  1  0
  2  3  1  0
  3  4  1  0
  4  5  2  0
  4  6  1  0
  6  7  1  0
  7  8  1  0
  8  9  2  0
  8 10  1  0
 10 11  2  0
 11 12  1  0
 12 13  2  0
 13 14  1  0
 14 15  2  0
 15 16  1  0
 15 17  1  0
 17 18  2  0
 18 19  1  0
 19 20  2  0
  2 21  1  0
 21 22  2  0
 22 23  1  0
 23 24  2  0
 24 25  1  0
 25 26  2  0
 20 10  1  0
 26 21  1  0
 19 13  1  0
  1 27  1  0
  1 28  1  0
  1 29  1  0
  2 30  1  6
  3 31  1  0
  6 32  1  0
  6 33  1  0
  7 34  1  0
 11 35  1  0
 12 36  1  0
 14 37  1  0
 17 38  1  0
 18 39  1  0
 22 40  1  0
 23 41  1  0
 24 42  1  0
 25 43  1  0
 26 44  1  0
M  END
>  <smiles>  (2) 
C[C@@H](NC(=O)CNC(=O)c1ccc2cc(Cl)ccc2n1)c1ccccc1

>  <score_type>  (2) 
oracle

>  <origin>  (2) 
autodockgpu

>  <m_score__min__energy>  (2) 
-8.7899999999999991

>  <m_primary>  (2) 
energy

>  <rmsd>  (2) 
9.685690037662482

>  <m_score__min__rmsd>  (2) 
9.685690037662482

>  <meeko>  (2) 
{"free_energy": -8.1, "intermolecular_energy": -9.59, "internal_energy": -2.0, "cluster_size": 34, "cluster_id": 3, "rank_in_cluster": 33}

>  <energy>  (2) 
-8.77

>  <cluster_rmsd>  (2) 
0.14

>  <cluster>  (2) 
1

$$$$

     RDKit          3D

 44 46  0  0  0  0  0  0  0  0999 V2000
  139.5960   67.8830  225.6190 C   0  0  0  0  0  0  0  0  0  0  0  0
  140.3590   69.1540  225.3520 C   0  0  1  0  0  0  0  0  0  0  0  0
  139.8730   69.8450  224.1720 N   0  0  0  0  0  0  0  0  0  0  0  0
  138.5530   70.2910  224.0260 C   0  0  0  0  0  0  0  0  0  0  0  0
  137.7630   70.0630  225.0090 O   0  0  0  0  0  0  0  0  0  0  0  0
  137.9850   70.9900  222.8750 C   0  0  0  0  0  0  0  0  0  0  0  0
  138.5410   72.2650  222.5650 N   0  0  0  0  0  0  0  0  0  0  0  0
  139.8520   72.4480  222.0360 C   0  0  0  0  0  0  0  0  0  0  0  0
  140.6260   71.4570  221.7990 O   0  0  0  0  0  0  0  0  0  0  0  0
  140.3420   73.8180  221.7520 C   0  0  0  0  0  0  0  0  0  0  0  0
  141.4050   73.9900  220.8900 C   0  0  0  0  0  0  0  0  0  0  0  0
  141.9050   75.2490  220.5870 C   0  0  0  0  0  0  0  0  0  0  0  0
  141.2820   76.3190  221.1970 C   0  0  0  0  0  0  0  0  0  0  0  0
  141.7730   77.5920  220.9050 C   0  0  0  0  0  0  0  0  0  0  0  0
  141.1700   78.6990  221.5010 C   0  0  0  0  0  0  0  0  0  0  0  0
  141.7800   80.3080  221.1380 Cl  0  0  0  0  0  0  0  0  0  0  0  0
  140.1080   78.4950  222.3600 C   0  0  0  0  0  0  0  0  0  0  0  0
  139.6110   77.2440  222.6590 C   0  0  0  0  0  0  0  0  0  0  0  0
  140.2160   76.1550  222.0640 C   0  0  0  0  0  0  0  0  0  0  0  0
  139.7700   74.8970  222.3210 N   0  0  0  0  0  0  0  0  0  0  0  0
  140.3300   70.0900  226.4870 C   0  0  0  0  0  0  0  0  0  0  0  0
  141.0620   71.2480  226.4140 C   0  0  0  0  0  0  0  0  0  0  0  0
  141.0930   72.1880  227.4420 C   0  0  0  0  0  0  0  0  0  0  0  0
  140.3330   71.8990  228.5710 C   0  0  0  0  0  0  0  0  0  0  0  0
  139.5830   70.7520  228.6890 C   0  0  0  0  0  0  0  0  0  0  0  0
  139.6010   69.8700  227.6350 C   0  0  0  0  0  0  0  0  0  0  0  0
  139.5049   67.7312  226.7047 H   0  0  0  0  0  0  0  0  0  0  0  0
  138.5929   67.9571  225.1737 H   0  0  0  0  0  0  0  0  0  0  0  0
  140.1330   67.0325  225.1737 H   0  0  0  0  0  0  0  0  0  0  0  0
  141.3975   68.8302  225.1886 H   0  0  0  0  0  0  0  0  0  0  0  0
  140.5600   70.0120  223.4140 H   0  0  0  0  0  0  0  0  0  0  0  0
  138.1176   70.3449  221.9940 H   0  0  0  0  0  0  0  0  0  0  0  0
  136.9370   71.1882  223.1441 H   0  0  0  0  0  0  0  0  0  0  0  0
  137.9880   73.1620  222.7170 H   0  0  0  0  0  0  0  0  0  0  0  0
  141.8693   73.1052  220.4300 H   0  0  0  0  0  0  0  0  0  0  0  0
  142.7516   75.3865  219.8983 H   0  0  0  0  0  0  0  0  0  0  0  0
  142.6212   77.7201  220.2164 H   0  0  0  0  0  0  0  0  0  0  0  0
  139.6364   79.3718  222.8277 H   0  0  0  0  0  0  0  0  0  0  0  0
  138.7623   77.1182  223.3474 H   0  0  0  0  0  0  0  0  0  0  0  0
  141.6497   71.4428  225.5048 H   0  0  0  0  0  0  0  0  0  0  0  0
  141.6873   73.1104  227.3650 H   0  0  0  0  0  0  0  0  0  0  0  0
  140.3318   72.6176  229.4038 H   0  0  0  0  0  0  0  0  0  0  0  0
  138.9908   70.5482  229.5933 H   0  0  0  0  0  0  0  0  0  0  0  0
  139.0069   68.9474  227.7115 H   0  0  0  0  0  0  0  0  0  0  0  0
  1  2  1  0
  2  3  1  0
  3  4  1  0
  4  5  2  0
  4  6  1  0
  6  7  1  0
  7  8  1  0
  8  9  2  0
  8 10  1  0
 10 11  2  0
 11 12  1  0
 12 13  2  0
 13 14  1  0
 14 15  2  0
 15 16  1  0
 15 17  1  0
 17 18  2  0
 18 19  1  0
 19 20  2  0
  2 21  1  0
 21 22  2  0
 22 23  1  0
 23 24  2  0
 24 25  1  0
 25 26  2  0
 20 10  1  0
 26 21  1  0
 19 13  1  0
  1 27  1  0
  1 28  1  0
  1 29  1  0
  2 30  1  6
  3 31  1  0
  6 32  1  0
  6 33  1  0
  7 34  1  0
 11 35  1  0
 12 36  1  0
 14 37  1  0
 17 38  1  0
 18 39  1  0
 22 40  1  0
 23 41  1  0
 24 42  1  0
 25 43  1  0
 26 44  1  0
M  END
>  <smiles>  (3) 
C[C@@H](NC(=O)CNC(=O)c1ccc2cc(Cl)ccc2n1)c1ccccc1

>  <score_type>  (3) 
oracle

>  <origin>  (3) 
autodockgpu

>  <m_score__min__energy>  (3) 
-8.7899999999999991

>  <m_primary>  (3) 
energy

>  <rmsd>  (3) 
10.009079311584816

>  <m_score__min__rmsd>  (3) 
10.009079311584816

>  <meeko>  (3) 
{"free_energy": -8.18, "intermolecular_energy": -9.67, "internal_energy": -2.05, "cluster_size": 34, "cluster_id": 3, "rank_in_cluster": 3}

>  <energy>  (3) 
-8.5

>  <cluster_rmsd>  (3) 
1.29

>  <cluster>  (3) 
1

$$$$

     RDKit          3D

 44 46  0  0  0  0  0  0  0  0999 V2000
  139.2420   68.1450  225.2770 C   0  0  0  0  0  0  0  0  0  0  0  0
  140.1170   69.3400  225.0010 C   0  0  1  0  0  0  0  0  0  0  0  0
  139.6100   70.1470  223.9070 N   0  0  0  0  0  0  0  0  0  0  0  0
  138.2860   70.5980  223.8290 C   0  0  0  0  0  0  0  0  0  0  0  0
  137.5120   70.2630  224.7940 O   0  0  0  0  0  0  0  0  0  0  0  0
  137.6960   71.4090  222.7660 C   0  0  0  0  0  0  0  0  0  0  0  0
  138.3030   72.6760  222.5200 N   0  0  0  0  0  0  0  0  0  0  0  0
  139.6020   72.8330  221.9570 C   0  0  0  0  0  0  0  0  0  0  0  0
  140.3190   71.8250  221.6280 O   0  0  0  0  0  0  0  0  0  0  0  0
  140.1490   74.1950  221.7460 C   0  0  0  0  0  0  0  0  0  0  0  0
  141.2610   74.3600  220.9480 C   0  0  0  0  0  0  0  0  0  0  0  0
  141.8150   75.6110  220.7140 C   0  0  0  0  0  0  0  0  0  0  0  0
  141.1920   76.6810  221.3260 C   0  0  0  0  0  0  0  0  0  0  0  0
  141.7370   77.9460  221.1020 C   0  0  0  0  0  0  0  0  0  0  0  0
  141.1360   79.0520  221.7020 C   0  0  0  0  0  0  0  0  0  0  0  0
  141.8140   80.6510  221.4270 Cl  0  0  0  0  0  0  0  0  0  0  0  0
  140.0240   78.8550  222.4960 C   0  0  0  0  0  0  0  0  0  0  0  0
  139.4730   77.6110  222.7270 C   0  0  0  0  0  0  0  0  0  0  0  0
  140.0770   76.5240  222.1280 C   0  0  0  0  0  0  0  0  0  0  0  0
  139.5790   75.2730  222.3190 N   0  0  0  0  0  0  0  0  0  0  0  0
  140.2960   70.2050  226.1770 C   0  0  0  0  0  0  0  0  0  0  0  0
  141.1000   71.3110  226.0750 C   0  0  0  0  0  0  0  0  0  0  0  0
  141.3250   72.1830  227.1380 C   0  0  0  0  0  0  0  0  0  0  0  0
  140.6860   71.8790  228.3360 C   0  0  0  0  0  0  0  0  0  0  0  0
  139.8710   70.7820  228.4870 C   0  0  0  0  0  0  0  0  0  0  0  0
  139.6950   69.9660  227.3950 C   0  0  0  0  0  0  0  0  0  0  0  0
  139.1413   68.0074  226.3637 H   0  0  0  0  0  0  0  0  0  0  0  0
  138.2483   68.3081  224.8344 H   0  0  0  0  0  0  0  0  0  0  0  0
  139.6976   67.2469  224.8344 H   0  0  0  0  0  0  0  0  0  0  0  0
  141.0936   68.9158  224.7247 H   0  0  0  0  0  0  0  0  0  0  0  0
  140.2840   70.3970  223.1600 H   0  0  0  0  0  0  0  0  0  0  0  0
  137.7479   70.8271  221.8340 H   0  0  0  0  0  0  0  0  0  0  0  0
  136.6752   71.6368  223.1066 H   0  0  0  0  0  0  0  0  0  0  0  0
  137.7990   73.5850  222.7500 H   0  0  0  0  0  0  0  0  0  0  0  0
  141.7220   73.4757  220.4838 H   0  0  0  0  0  0  0  0  0  0  0  0
  142.7015   75.7429  220.0762 H   0  0  0  0  0  0  0  0  0  0  0  0
  142.6245   78.0684  220.4638 H   0  0  0  0  0  0  0  0  0  0  0  0
  139.5548   79.7314  222.9670 H   0  0  0  0  0  0  0  0  0  0  0  0
  138.5851   77.4901  223.3650 H   0  0  0  0  0  0  0  0  0  0  0  0
  141.5888   71.5189  225.1117 H   0  0  0  0  0  0  0  0  0  0  0  0
  141.9737   73.0654  227.0356 H   0  0  0  0  0  0  0  0  0  0  0  0
  140.8393   72.5442  229.1985 H   0  0  0  0  0  0  0  0  0  0  0  0
  139.3781   70.5654  229.4462 H   0  0  0  0  0  0  0  0  0  0  0  0
  139.0463   69.0836  227.4971 H   0  0  0  0  0  0  0  0  0  0  0  0
  1  2  1  0
  2  3  1  0
  3  4  1  0
  4  5  2  0
  4  6  1  0
  6  7  1  0
  7  8  1  0
  8  9  2  0
  8 10  1  0
 10 11  2  0
 11 12  1  0
 12 13  2  0
 13 14  1  0
 14 15  2  0
 15 16  1  0
 15 17  1  0
 17 18  2  0
 18 19  1  0
 19 20  2  0
  2 21  1  0
 21 22  2  0
 22 23  1  0
 23 24  2  0
 24 25  1  0
 25 26  2  0
 20 10  1  0
 26 21  1  0
 19 13  1  0
  1 27  1  0
  1 28  1  0
  1 29  1  0
  2 30  1  6
  3 31  1  0
  6 32  1  0
  6 33  1  0
  7 34  1  0
 11 35  1  0
 12 36  1  0
 14 37  1  0
 17 38  1  0
 18 39  1  0
 22 40  1  0
 23 41  1  0
 24 42  1  0
 25 43  1  0
 26 44  1  0
M  END
>  <smiles>  (4) 
C[C@@H](NC(=O)CNC(=O)c1ccc2cc(Cl)ccc2n1)c1ccccc1

>  <score_type>  (4) 
oracle

>  <origin>  (4) 
autodockgpu

>  <m_score__min__energy>  (4) 
-8.7899999999999991

>  <m_primary>  (4) 
energy

>  <rmsd>  (4) 
9.928126979869182

>  <m_score__min__rmsd>  (4) 
9.928126979869182

>  <meeko>  (4) 
{"free_energy": -8.16, "intermolecular_energy": -9.65, "internal_energy": -2.05, "cluster_size": 34, "cluster_id": 3, "rank_in_cluster": 19}

>  <energy>  (4) 
-8.49

>  <cluster_rmsd>  (4) 
1.27

>  <cluster>  (4) 
1

$$$$

     RDKit          3D

 44 46  0  0  0  0  0  0  0  0999 V2000
  139.2100   68.1330  225.2710 C   0  0  0  0  0  0  0  0  0  0  0  0
  140.0950   69.3180  224.9870 C   0  0  1  0  0  0  0  0  0  0  0  0
  139.5950   70.1230  223.8880 N   0  0  0  0  0  0  0  0  0  0  0  0
  138.2740   70.5810  223.8040 C   0  0  0  0  0  0  0  0  0  0  0  0
  137.4960   70.2550  224.7690 O   0  0  0  0  0  0  0  0  0  0  0  0
  137.6910   71.3900  222.7360 C   0  0  0  0  0  0  0  0  0  0  0  0
  138.2950   72.6590  222.4960 N   0  0  0  0  0  0  0  0  0  0  0  0
  139.5850   72.8220  221.9120 C   0  0  0  0  0  0  0  0  0  0  0  0
  140.2930   71.8180  221.5560 O   0  0  0  0  0  0  0  0  0  0  0  0
  140.1290   74.1860  221.7090 C   0  0  0  0  0  0  0  0  0  0  0  0
  141.2360   74.3580  220.9040 C   0  0  0  0  0  0  0  0  0  0  0  0
  141.7880   75.6120  220.6780 C   0  0  0  0  0  0  0  0  0  0  0  0
  141.1690   76.6760  221.3030 C   0  0  0  0  0  0  0  0  0  0  0  0
  141.7130   77.9420  221.0870 C   0  0  0  0  0  0  0  0  0  0  0  0
  141.1160   79.0430  221.7010 C   0  0  0  0  0  0  0  0  0  0  0  0
  141.7920   80.6450  221.4350 Cl  0  0  0  0  0  0  0  0  0  0  0  0
  140.0100   78.8390  222.5020 C   0  0  0  0  0  0  0  0  0  0  0  0
  139.4610   77.5940  222.7250 C   0  0  0  0  0  0  0  0  0  0  0  0
  140.0600   76.5110  222.1120 C   0  0  0  0  0  0  0  0  0  0  0  0
  139.5640   75.2590  222.2950 N   0  0  0  0  0  0  0  0  0  0  0  0
  140.2830   70.1890  226.1570 C   0  0  0  0  0  0  0  0  0  0  0  0
  141.0780   71.3000  226.0410 C   0  0  0  0  0  0  0  0  0  0  0  0
  141.3110   72.1770  227.0980 C   0  0  0  0  0  0  0  0  0  0  0  0
  140.6870   71.8750  228.3050 C   0  0  0  0  0  0  0  0  0  0  0  0
  139.8800   70.7730  228.4690 C   0  0  0  0  0  0  0  0  0  0  0  0
  139.6980   69.9520  227.3820 C   0  0  0  0  0  0  0  0  0  0  0  0
  139.1116   68.0012  226.3586 H   0  0  0  0  0  0  0  0  0  0  0  0
  138.2164   68.3036  224.8309 H   0  0  0  0  0  0  0  0  0  0  0  0
  139.6556   67.2287  224.8309 H   0  0  0  0  0  0  0  0  0  0  0  0
  141.0673   68.8827  224.7129 H   0  0  0  0  0  0  0  0  0  0  0  0
  140.2720   70.3660  223.1410 H   0  0  0  0  0  0  0  0  0  0  0  0
  137.7539   70.8086  221.8043 H   0  0  0  0  0  0  0  0  0  0  0  0
  136.6662   71.6138  223.0672 H   0  0  0  0  0  0  0  0  0  0  0  0
  137.7970   73.5660  222.7480 H   0  0  0  0  0  0  0  0  0  0  0  0
  141.6938   73.4781  220.4283 H   0  0  0  0  0  0  0  0  0  0  0  0
  142.6704   75.7500  220.0359 H   0  0  0  0  0  0  0  0  0  0  0  0
  142.5965   78.0698  220.4443 H   0  0  0  0  0  0  0  0  0  0  0  0
  139.5449   79.7109  222.9851 H   0  0  0  0  0  0  0  0  0  0  0  0
  138.5776   77.4678  223.3681 H   0  0  0  0  0  0  0  0  0  0  0  0
  141.5527   71.5080  225.0707 H   0  0  0  0  0  0  0  0  0  0  0  0
  141.9545   73.0619  226.9847 H   0  0  0  0  0  0  0  0  0  0  0  0
  140.8456   72.5450  229.1629 H   0  0  0  0  0  0  0  0  0  0  0  0
  139.3984   70.5570  229.4341 H   0  0  0  0  0  0  0  0  0  0  0  0
  139.0564   69.0657  227.4949 H   0  0  0  0  0  0  0  0  0  0  0  0
  1  2  1  0
  2  3  1  0
  3  4  1  0
  4  5  2  0
  4  6  1  0
  6  7  1  0
  7  8  1  0
  8  9  2  0
  8 10  1  0
 10 11  2  0
 11 12  1  0
 12 13  2  0
 13 14  1  0
 14 15  2  0
 15 16  1  0
 15 17  1  0
 17 18  2  0
 18 19  1  0
 19 20  2  0
  2 21  1  0
 21 22  2  0
 22 23  1  0
 23 24  2  0
 24 25  1  0
 25 26  2  0
 20 10  1  0
 26 21  1  0
 19 13  1  0
  1 27  1  0
  1 28  1  0
  1 29  1  0
  2 30  1  6
  3 31  1  0
  6 32  1  0
  6 33  1  0
  7 34  1  0
 11 35  1  0
 12 36  1  0
 14 37  1  0
 17 38  1  0
 18 39  1  0
 22 40  1  0
 23 41  1  0
 24 42  1  0
 25 43  1  0
 26 44  1  0
M  END
>  <smiles>  (5) 
C[C@@H](NC(=O)CNC(=O)c1ccc2cc(Cl)ccc2n1)c1ccccc1

>  <score_type>  (5) 
oracle

>  <origin>  (5) 
autodockgpu

>  <m_score__min__energy>  (5) 
-8.7899999999999991

>  <m_primary>  (5) 
energy

>  <rmsd>  (5) 
9.932979927058193

>  <m_score__min__rmsd>  (5) 
9.932979927058193

>  <meeko>  (5) 
{"free_energy": -8.16, "intermolecular_energy": -9.65, "internal_energy": -2.04, "cluster_size": 34, "cluster_id": 3, "rank_in_cluster": 16}

>  <energy>  (5) 
-8.15

>  <cluster_rmsd>  (5) 
0.61

>  <cluster>  (5) 
1

$$$$

     RDKit          3D

 44 46  0  0  0  0  0  0  0  0999 V2000
  139.3090   68.1000  225.3060 C   0  0  0  0  0  0  0  0  0  0  0  0
  140.1770   69.2950  225.0160 C   0  0  1  0  0  0  0  0  0  0  0  0
  139.6690   70.0840  223.9100 N   0  0  0  0  0  0  0  0  0  0  0  0
  138.3570   70.5730  223.8480 C   0  0  0  0  0  0  0  0  0  0  0  0
  137.5970   70.2910  224.8400 O   0  0  0  0  0  0  0  0  0  0  0  0
  137.7670   71.3690  222.7740 C   0  0  0  0  0  0  0  0  0  0  0  0
  138.3480   72.6490  222.5370 N   0  0  0  0  0  0  0  0  0  0  0  0
  139.6450   72.8360  221.9770 C   0  0  0  0  0  0  0  0  0  0  0  0
  140.3830   71.8460  221.6440 O   0  0  0  0  0  0  0  0  0  0  0  0
  140.1640   74.2100  221.7750 C   0  0  0  0  0  0  0  0  0  0  0  0
  141.2930   74.4000  221.0060 C   0  0  0  0  0  0  0  0  0  0  0  0
  141.8230   75.6630  220.7820 C   0  0  0  0  0  0  0  0  0  0  0  0
  141.1590   76.7200  221.3730 C   0  0  0  0  0  0  0  0  0  0  0  0
  141.6790   77.9960  221.1580 C   0  0  0  0  0  0  0  0  0  0  0  0
  141.0360   79.0900  221.7380 C   0  0  0  0  0  0  0  0  0  0  0  0
  141.6820   80.7040  221.4740 Cl  0  0  0  0  0  0  0  0  0  0  0  0
  139.9080   78.8690  222.5040 C   0  0  0  0  0  0  0  0  0  0  0  0
  139.3820   77.6130  222.7250 C   0  0  0  0  0  0  0  0  0  0  0  0
  140.0270   76.5380  222.1460 C   0  0  0  0  0  0  0  0  0  0  0  0
  139.5550   75.2760  222.3290 N   0  0  0  0  0  0  0  0  0  0  0  0
  140.3480   70.1780  226.1800 C   0  0  0  0  0  0  0  0  0  0  0  0
  141.1560   71.2800  226.0680 C   0  0  0  0  0  0  0  0  0  0  0  0
  141.3740   72.1670  227.1200 C   0  0  0  0  0  0  0  0  0  0  0  0
  140.7240   71.8840  228.3170 C   0  0  0  0  0  0  0  0  0  0  0  0
  139.9040   70.7910  228.4770 C   0  0  0  0  0  0  0  0  0  0  0  0
  139.7360   69.9590  227.3960 C   0  0  0  0  0  0  0  0  0  0  0  0
  139.2150   67.9706  226.3943 H   0  0  0  0  0  0  0  0  0  0  0  0
  138.3122   68.2559  224.8678 H   0  0  0  0  0  0  0  0  0  0  0  0
  139.7655   67.2002  224.8678 H   0  0  0  0  0  0  0  0  0  0  0  0
  141.1564   68.8717  224.7485 H   0  0  0  0  0  0  0  0  0  0  0  0
  140.3320   70.2910  223.1400 H   0  0  0  0  0  0  0  0  0  0  0  0
  137.8488   70.7877  221.8438 H   0  0  0  0  0  0  0  0  0  0  0  0
  136.7354   71.5732  223.0966 H   0  0  0  0  0  0  0  0  0  0  0  0
  137.8250   73.5470  222.7710 H   0  0  0  0  0  0  0  0  0  0  0  0
  141.7874   73.5257  220.5575 H   0  0  0  0  0  0  0  0  0  0  0  0
  142.7227   75.8139  220.1674 H   0  0  0  0  0  0  0  0  0  0  0  0
  142.5796   78.1374  220.5424 H   0  0  0  0  0  0  0  0  0  0  0  0
  139.4055   79.7352  222.9592 H   0  0  0  0  0  0  0  0  0  0  0  0
  138.4811   77.4728  223.3404 H   0  0  0  0  0  0  0  0  0  0  0  0
  141.6536   71.4721  225.1060 H   0  0  0  0  0  0  0  0  0  0  0  0
  142.0264   73.0458  227.0098 H   0  0  0  0  0  0  0  0  0  0  0  0
  140.8718   72.5620  229.1705 H   0  0  0  0  0  0  0  0  0  0  0  0
  139.4014   70.5904  229.4347 H   0  0  0  0  0  0  0  0  0  0  0  0
  139.0845   69.0795  227.5058 H   0  0  0  0  0  0  0  0  0  0  0  0
  1  2  1  0
  2  3  1  0
  3  4  1  0
  4  5  2  0
  4  6  1  0
  6  7  1  0
  7  8  1  0
  8  9  2  0
  8 10  1  0
 10 11  2  0
 11 12  1  0
 12 13  2  0
 13 14  1  0
 14 15  2  0
 15 16  1  0
 15 17  1  0
 17 18  2  0
 18 19  1  0
 19 20  2  0
  2 21  1  0
 21 22  2  0
 22 23  1  0
 23 24  2  0
 24 25  1  0
 25 26  2  0
 20 10  1  0
 26 21  1  0
 19 13  1  0
  1 27  1  0
  1 28  1  0
  1 29  1  0
  2 30  1  6
  3 31  1  0
  6 32  1  0
  6 33  1  0
  7 34  1  0
 11 35  1  0
 12 36  1  0
 14 37  1  0
 17 38  1  0
 18 39  1  0
 22 40  1  0
 23 41  1  0
 24 42  1  0
 25 43  1  0
 26 44  1  0
M  END
>  <smiles>  (6) 
C[C@@H](NC(=O)CNC(=O)c1ccc2cc(Cl)ccc2n1)c1ccccc1

>  <score_type>  (6) 
oracle

>  <origin>  (6) 
autodockgpu

>  <m_score__min__energy>  (6) 
-8.7899999999999991

>  <m_primary>  (6) 
energy

>  <rmsd>  (6) 
9.935633296606774

>  <m_score__min__rmsd>  (6) 
9.935633296606774

>  <meeko>  (6) 
{"free_energy": -8.14, "intermolecular_energy": -9.63, "internal_energy": -2.07, "cluster_size": 34, "cluster_id": 3, "rank_in_cluster": 28}

>  <energy>  (6) 
-7.87

>  <cluster_rmsd>  (6) 
1.0

>  <cluster>  (6) 
1

$$$$

     RDKit          3D

 44 46  0  0  0  0  0  0  0  0999 V2000
  137.4770   69.3810  224.8820 C   0  0  0  0  0  0  0  0  0  0  0  0
  138.9240   69.6620  224.5760 C   0  0  1  0  0  0  0  0  0  0  0  0
  139.0800   70.5650  223.4510 N   0  0  0  0  0  0  0  0  0  0  0  0
  139.1180   70.1370  222.1170 C   0  0  0  0  0  0  0  0  0  0  0  0
  139.0030   68.8770  221.9200 O   0  0  0  0  0  0  0  0  0  0  0  0
  139.2750   70.9760  220.9300 C   0  0  0  0  0  0  0  0  0  0  0  0
  139.0330   72.3710  221.1010 N   0  0  0  0  0  0  0  0  0  0  0  0
  139.7720   73.1970  221.9970 C   0  0  0  0  0  0  0  0  0  0  0  0
  140.7190   72.7280  222.7180 O   0  0  0  0  0  0  0  0  0  0  0  0
  139.4400   74.6380  222.1070 C   0  0  0  0  0  0  0  0  0  0  0  0
  138.1280   75.0420  221.9710 C   0  0  0  0  0  0  0  0  0  0  0  0
  137.7600   76.3770  222.0640 C   0  0  0  0  0  0  0  0  0  0  0  0
  138.7780   77.2780  222.3010 C   0  0  0  0  0  0  0  0  0  0  0  0
  138.4250   78.6240  222.3960 C   0  0  0  0  0  0  0  0  0  0  0  0
  139.4250   79.5670  222.6350 C   0  0  0  0  0  0  0  0  0  0  0  0
  138.9920   81.2660  222.7590 Cl  0  0  0  0  0  0  0  0  0  0  0  0
  140.7300   79.1320  222.7660 C   0  0  0  0  0  0  0  0  0  0  0  0
  141.0950   77.8050  222.6740 C   0  0  0  0  0  0  0  0  0  0  0  0
  140.0960   76.8820  222.4380 C   0  0  0  0  0  0  0  0  0  0  0  0
  140.3950   75.5590  222.3360 N   0  0  0  0  0  0  0  0  0  0  0  0
  139.6570   70.2160  225.7250 C   0  0  0  0  0  0  0  0  0  0  0  0
  140.4300   71.3340  225.5460 C   0  0  0  0  0  0  0  0  0  0  0  0
  141.1580   71.9230  226.5780 C   0  0  0  0  0  0  0  0  0  0  0  0
  141.0650   71.3170  227.8270 C   0  0  0  0  0  0  0  0  0  0  0  0
  140.3030   70.1950  228.0550 C   0  0  0  0  0  0  0  0  0  0  0  0
  139.6130   69.6690  226.9890 C   0  0  0  0  0  0  0  0  0  0  0  0
  137.3315   69.3527  225.9720 H   0  0  0  0  0  0  0  0  0  0  0  0
  136.8499   70.1741  224.4488 H   0  0  0  0  0  0  0  0  0  0  0  0
  137.1923   68.4108  224.4488 H   0  0  0  0  0  0  0  0  0  0  0  0
  139.3532   68.6811  224.3237 H   0  0  0  0  0  0  0  0  0  0  0  0
  139.1580   71.5750  223.6700 H   0  0  0  0  0  0  0  0  0  0  0  0
  140.3080   70.8574  220.5710 H   0  0  0  0  0  0  0  0  0  0  0  0
  138.5043   70.6308  220.2251 H   0  0  0  0  0  0  0  0  0  0  0  0
  138.2720   72.8730  220.5500 H   0  0  0  0  0  0  0  0  0  0  0  0
  137.3521   74.2852  221.7837 H   0  0  0  0  0  0  0  0  0  0  0  0
  136.7139   76.6993  221.9548 H   0  0  0  0  0  0  0  0  0  0  0  0
  137.3763   78.9366  222.2844 H   0  0  0  0  0  0  0  0  0  0  0  0
  141.5151   79.8795  222.9525 H   0  0  0  0  0  0  0  0  0  0  0  0
  142.1442   77.4935  222.7847 H   0  0  0  0  0  0  0  0  0  0  0  0
  140.4776   71.7858  224.5442 H   0  0  0  0  0  0  0  0  0  0  0  0
  141.7737   72.8197  226.4138 H   0  0  0  0  0  0  0  0  0  0  0  0
  141.6245   71.7537  228.6674 H   0  0  0  0  0  0  0  0  0  0  0  0
  140.2478   69.7358  229.0530 H   0  0  0  0  0  0  0  0  0  0  0  0
  138.9983   68.7715  227.1521 H   0  0  0  0  0  0  0  0  0  0  0  0
  1  2  1  0
  2  3  1  0
  3  4  1  0
  4  5  2  0
  4  6  1  0
  6  7  1  0
  7  8  1  0
  8  9  2  0
  8 10  1  0
 10 11  2  0
 11 12  1  0
 12 13  2  0
 13 14  1  0
 14 15  2  0
 15 16  1  0
 15 17  1  0
 17 18  2  0
 18 19  1  0
 19 20  2  0
  2 21  1  0
 21 22  2  0
 22 23  1  0
 23 24  2  0
 24 25  1  0
 25 26  2  0
 20 10  1  0
 26 21  1  0
 19 13  1  0
  1 27  1  0
  1 28  1  0
  1 29  1  0
  2 30  1  6
  3 31  1  0
  6 32  1  0
  6 33  1  0
  7 34  1  0
 11 35  1  0
 12 36  1  0
 14 37  1  0
 17 38  1  0
 18 39  1  0
 22 40  1  0
 23 41  1  0
 24 42  1  0
 25 43  1  0
 26 44  1  0
M  END
>  <smiles>  (7) 
C[C@@H](NC(=O)CNC(=O)c1ccc2cc(Cl)ccc2n1)c1ccccc1

>  <score_type>  (7) 
oracle

>  <origin>  (7) 
autodockgpu

>  <m_score__min__energy>  (7) 
-8.7899999999999991

>  <m_primary>  (7) 
energy

>  <rmsd>  (7) 
9.84493514402131

>  <m_score__min__rmsd>  (7) 
9.84493514402131

>  <meeko>  (7) 
{"free_energy": -7.43, "intermolecular_energy": -8.92, "internal_energy": -1.76, "cluster_size": 2, "cluster_id": 2, "rank_in_cluster": 2}

>  <energy>  (7) 
-7.87

>  <cluster_rmsd>  (7) 
1.61

>  <cluster>  (7) 
1

$$$$

     RDKit          3D

 44 46  0  0  0  0  0  0  0  0999 V2000
  139.2110   68.1210  225.2300 C   0  0  0  0  0  0  0  0  0  0  0  0
  140.0970   69.3050  224.9460 C   0  0  1  0  0  0  0  0  0  0  0  0
  139.5970   70.1120  223.8490 N   0  0  0  0  0  0  0  0  0  0  0  0
  138.2810   70.5890  223.7790 C   0  0  0  0  0  0  0  0  0  0  0  0
  137.5100   70.2790  224.7550 O   0  0  0  0  0  0  0  0  0  0  0  0
  137.6980   71.4020  222.7140 C   0  0  0  0  0  0  0  0  0  0  0  0
  138.3000   72.6730  222.4800 N   0  0  0  0  0  0  0  0  0  0  0  0
  139.5890   72.8410  221.8960 C   0  0  0  0  0  0  0  0  0  0  0  0
  140.3000   71.8400  221.5350 O   0  0  0  0  0  0  0  0  0  0  0  0
  140.1320   74.2060  221.7000 C   0  0  0  0  0  0  0  0  0  0  0  0
  141.2430   74.3840  220.9020 C   0  0  0  0  0  0  0  0  0  0  0  0
  141.7940   75.6390  220.6830 C   0  0  0  0  0  0  0  0  0  0  0  0
  141.1690   76.7000  221.3070 C   0  0  0  0  0  0  0  0  0  0  0  0
  141.7100   77.9680  221.0970 C   0  0  0  0  0  0  0  0  0  0  0  0
  141.1070   79.0670  221.7100 C   0  0  0  0  0  0  0  0  0  0  0  0
  141.7800   80.6710  221.4520 Cl  0  0  0  0  0  0  0  0  0  0  0  0
  139.9960   78.8580  222.5030 C   0  0  0  0  0  0  0  0  0  0  0  0
  139.4490   77.6100  222.7200 C   0  0  0  0  0  0  0  0  0  0  0  0
  140.0550   76.5310  222.1080 C   0  0  0  0  0  0  0  0  0  0  0  0
  139.5610   75.2760  222.2850 N   0  0  0  0  0  0  0  0  0  0  0  0
  140.2880   70.1740  226.1180 C   0  0  0  0  0  0  0  0  0  0  0  0
  141.0880   71.2820  226.0030 C   0  0  0  0  0  0  0  0  0  0  0  0
  141.3230   72.1570  227.0610 C   0  0  0  0  0  0  0  0  0  0  0  0
  140.6980   71.8560  228.2670 C   0  0  0  0  0  0  0  0  0  0  0  0
  139.8870   70.7570  228.4300 C   0  0  0  0  0  0  0  0  0  0  0  0
  139.7010   69.9380  227.3420 C   0  0  0  0  0  0  0  0  0  0  0  0
  139.1124   67.9893  226.3176 H   0  0  0  0  0  0  0  0  0  0  0  0
  138.2176   68.2925  224.7899 H   0  0  0  0  0  0  0  0  0  0  0  0
  139.6558   67.2163  224.7899 H   0  0  0  0  0  0  0  0  0  0  0  0
  141.0682   68.8690  224.6692 H   0  0  0  0  0  0  0  0  0  0  0  0
  140.2690   70.3410  223.0940 H   0  0  0  0  0  0  0  0  0  0  0  0
  137.7627   70.8248  221.7798 H   0  0  0  0  0  0  0  0  0  0  0  0
  136.6727   71.6229  223.0455 H   0  0  0  0  0  0  0  0  0  0  0  0
  137.8010   73.5780  222.7360 H   0  0  0  0  0  0  0  0  0  0  0  0
  141.7052   73.5067  220.4258 H   0  0  0  0  0  0  0  0  0  0  0  0
  142.6803   75.7804  220.0470 H   0  0  0  0  0  0  0  0  0  0  0  0
  142.5966   78.0996  220.4593 H   0  0  0  0  0  0  0  0  0  0  0  0
  139.5248   79.7276  222.9845 H   0  0  0  0  0  0  0  0  0  0  0  0
  138.5622   77.4795  223.3576 H   0  0  0  0  0  0  0  0  0  0  0  0
  141.5646   71.4886  225.0334 H   0  0  0  0  0  0  0  0  0  0  0  0
  141.9692   73.0401  226.9488 H   0  0  0  0  0  0  0  0  0  0  0  0
  140.8590   72.5245  229.1256 H   0  0  0  0  0  0  0  0  0  0  0  0
  139.4052   70.5416  229.3951 H   0  0  0  0  0  0  0  0  0  0  0  0
  139.0548   69.0548  227.4534 H   0  0  0  0  0  0  0  0  0  0  0  0
  1  2  1  0
  2  3  1  0
  3  4  1  0
  4  5  2  0
  4  6  1  0
  6  7  1  0
  7  8  1  0
  8  9  2  0
  8 10  1  0
 10 11  2  0
 11 12  1  0
 12 13  2  0
 13 14  1  0
 14 15  2  0
 15 16  1  0
 15 17  1  0
 17 18  2  0
 18 19  1  0
 19 20  2  0
  2 21  1  0
 21 22  2  0
 22 23  1  0
 23 24  2  0
 24 25  1  0
 25 26  2  0
 20 10  1  0
 26 21  1  0
 19 13  1  0
  1 27  1  0
  1 28  1  0
  1 29  1  0
  2 30  1  6
  3 31  1  0
  6 32  1  0
  6 33  1  0
  7 34  1  0
 11 35  1  0
 12 36  1  0
 14 37  1  0
 17 38  1  0
 18 39  1  0
 22 40  1  0
 23 41  1  0
 24 42  1  0
 25 43  1  0
 26 44  1  0
M  END
>  <smiles>  (8) 
C[C@@H](NC(=O)CNC(=O)c1ccc2cc(Cl)ccc2n1)c1ccccc1

>  <score_type>  (8) 
oracle

>  <origin>  (8) 
autodockgpu

>  <m_score__min__energy>  (8) 
-8.7899999999999991

>  <m_primary>  (8) 
energy

>  <rmsd>  (8) 
9.934037004949841

>  <m_score__min__rmsd>  (8) 
9.934037004949841

>  <meeko>  (8) 
{"free_energy": -8.15, "intermolecular_energy": -9.64, "internal_energy": -2.05, "cluster_size": 34, "cluster_id": 3, "rank_in_cluster": 23}

>  <energy>  (8) 
-7.82

>  <cluster_rmsd>  (8) 
1.08

>  <cluster>  (8) 
1

$$$$

     RDKit          3D

 44 46  0  0  0  0  0  0  0  0999 V2000
  139.2050   68.1120  225.3010 C   0  0  0  0  0  0  0  0  0  0  0  0
  140.0960   69.2880  224.9970 C   0  0  1  0  0  0  0  0  0  0  0  0
  139.6010   70.0760  223.8830 N   0  0  0  0  0  0  0  0  0  0  0  0
  138.3050   70.6030  223.8260 C   0  0  0  0  0  0  0  0  0  0  0  0
  137.5460   70.3610  224.8300 O   0  0  0  0  0  0  0  0  0  0  0  0
  137.7290   71.4010  222.7450 C   0  0  0  0  0  0  0  0  0  0  0  0
  138.3280   72.6720  222.5020 N   0  0  0  0  0  0  0  0  0  0  0  0
  139.6320   72.8390  221.9530 C   0  0  0  0  0  0  0  0  0  0  0  0
  140.3610   71.8370  221.6340 O   0  0  0  0  0  0  0  0  0  0  0  0
  140.1690   74.2050  221.7440 C   0  0  0  0  0  0  0  0  0  0  0  0
  141.2880   74.3770  220.9560 C   0  0  0  0  0  0  0  0  0  0  0  0
  141.8350   75.6330  220.7260 C   0  0  0  0  0  0  0  0  0  0  0  0
  141.1960   76.6980  221.3290 C   0  0  0  0  0  0  0  0  0  0  0  0
  141.7330   77.9670  221.1080 C   0  0  0  0  0  0  0  0  0  0  0  0
  141.1180   79.0700  221.6990 C   0  0  0  0  0  0  0  0  0  0  0  0
  141.7850   80.6740  221.4270 Cl  0  0  0  0  0  0  0  0  0  0  0  0
  139.9990   78.8650  222.4830 C   0  0  0  0  0  0  0  0  0  0  0  0
  139.4570   77.6180  222.7110 C   0  0  0  0  0  0  0  0  0  0  0  0
  140.0750   76.5340  222.1200 C   0  0  0  0  0  0  0  0  0  0  0  0
  139.5860   75.2790  222.3090 N   0  0  0  0  0  0  0  0  0  0  0  0
  140.2840   70.1790  226.1520 C   0  0  0  0  0  0  0  0  0  0  0  0
  141.0980   71.2760  226.0230 C   0  0  0  0  0  0  0  0  0  0  0  0
  141.3320   72.1700  227.0650 C   0  0  0  0  0  0  0  0  0  0  0  0
  140.6930   71.9010  228.2710 C   0  0  0  0  0  0  0  0  0  0  0  0
  139.8680   70.8140  228.4480 C   0  0  0  0  0  0  0  0  0  0  0  0
  139.6840   69.9750  227.3760 C   0  0  0  0  0  0  0  0  0  0  0  0
  139.1145   67.9926  226.3907 H   0  0  0  0  0  0  0  0  0  0  0  0
  138.2091   68.2847  224.8671 H   0  0  0  0  0  0  0  0  0  0  0  0
  139.6408   67.2000  224.8671 H   0  0  0  0  0  0  0  0  0  0  0  0
  141.0669   68.8440  224.7320 H   0  0  0  0  0  0  0  0  0  0  0  0
  140.2630   70.2490  223.1040 H   0  0  0  0  0  0  0  0  0  0  0  0
  137.8058   70.8131  221.8185 H   0  0  0  0  0  0  0  0  0  0  0  0
  136.6994   71.6212  223.0633 H   0  0  0  0  0  0  0  0  0  0  0  0
  137.8140   73.5780  222.7250 H   0  0  0  0  0  0  0  0  0  0  0  0
  141.7600   73.4956  220.4973 H   0  0  0  0  0  0  0  0  0  0  0  0
  142.7277   75.7714  220.0983 H   0  0  0  0  0  0  0  0  0  0  0  0
  142.6260   78.0949  220.4785 H   0  0  0  0  0  0  0  0  0  0  0  0
  139.5176   79.7383  222.9474 H   0  0  0  0  0  0  0  0  0  0  0  0
  138.5643   77.4913  223.3411 H   0  0  0  0  0  0  0  0  0  0  0  0
  141.5870   71.4573  225.0545 H   0  0  0  0  0  0  0  0  0  0  0  0
  141.9884   73.0439  226.9407 H   0  0  0  0  0  0  0  0  0  0  0  0
  140.8537   72.5849  229.1174 H   0  0  0  0  0  0  0  0  0  0  0  0
  139.3741   70.6239  229.4123 H   0  0  0  0  0  0  0  0  0  0  0  0
  139.0281   69.1007  227.5000 H   0  0  0  0  0  0  0  0  0  0  0  0
  1  2  1  0
  2  3  1  0
  3  4  1  0
  4  5  2  0
  4  6  1  0
  6  7  1  0
  7  8  1  0
  8  9  2  0
  8 10  1  0
 10 11  2  0
 11 12  1  0
 12 13  2  0
 13 14  1  0
 14 15  2  0
 15 16  1  0
 15 17  1  0
 17 18  2  0
 18 19  1  0
 19 20  2  0
  2 21  1  0
 21 22  2  0
 22 23  1  0
 23 24  2  0
 24 25  1  0
 25 26  2  0
 20 10  1  0
 26 21  1  0
 19 13  1  0
  1 27  1  0
  1 28  1  0
  1 29  1  0
  2 30  1  6
  3 31  1  0
  6 32  1  0
  6 33  1  0
  7 34  1  0
 11 35  1  0
 12 36  1  0
 14 37  1  0
 17 38  1  0
 18 39  1  0
 22 40  1  0
 23 41  1  0
 24 42  1  0
 25 43  1  0
 26 44  1  0
M  END
>  <smiles>  (9) 
C[C@@H](NC(=O)CNC(=O)c1ccc2cc(Cl)ccc2n1)c1ccccc1

>  <score_type>  (9) 
oracle

>  <origin>  (9) 
autodockgpu

>  <m_score__min__energy>  (9) 
-8.7899999999999991

>  <m_primary>  (9) 
energy

>  <rmsd>  (9) 
9.932949043195888

>  <m_score__min__rmsd>  (9) 
9.932949043195888

>  <meeko>  (9) 
{"free_energy": -8.14, "intermolecular_energy": -9.64, "internal_energy": -2.08, "cluster_size": 34, "cluster_id": 3, "rank_in_cluster": 26}

>  <energy>  (9) 
-7.77

>  <cluster_rmsd>  (9) 
1.73

>  <cluster>  (9) 
1

$$$$

     RDKit          3D

 44 46  0  0  0  0  0  0  0  0999 V2000
  139.2340   68.1460  225.3730 C   0  0  0  0  0  0  0  0  0  0  0  0
  140.1400   69.3010  225.0340 C   0  0  1  0  0  0  0  0  0  0  0  0
  139.6420   70.0740  223.9120 N   0  0  0  0  0  0  0  0  0  0  0  0
  138.3430   70.5950  223.8480 C   0  0  0  0  0  0  0  0  0  0  0  0
  137.5850   70.3580  224.8540 O   0  0  0  0  0  0  0  0  0  0  0  0
  137.7630   71.3780  222.7590 C   0  0  0  0  0  0  0  0  0  0  0  0
  138.3520   72.6520  222.5080 N   0  0  0  0  0  0  0  0  0  0  0  0
  139.6570   72.8250  221.9610 C   0  0  0  0  0  0  0  0  0  0  0  0
  140.3950   71.8260  221.6530 O   0  0  0  0  0  0  0  0  0  0  0  0
  140.1840   74.1930  221.7420 C   0  0  0  0  0  0  0  0  0  0  0  0
  141.2880   74.3710  220.9350 C   0  0  0  0  0  0  0  0  0  0  0  0
  141.8240   75.6290  220.6940 C   0  0  0  0  0  0  0  0  0  0  0  0
  141.1910   76.6920  221.3080 C   0  0  0  0  0  0  0  0  0  0  0  0
  141.7180   77.9630  221.0770 C   0  0  0  0  0  0  0  0  0  0  0  0
  141.1070   79.0630  221.6780 C   0  0  0  0  0  0  0  0  0  0  0  0
  141.7620   80.6700  221.3940 Cl  0  0  0  0  0  0  0  0  0  0  0  0
  140.0040   78.8540  222.4820 C   0  0  0  0  0  0  0  0  0  0  0  0
  139.4710   77.6030  222.7200 C   0  0  0  0  0  0  0  0  0  0  0  0
  140.0840   76.5220  222.1190 C   0  0  0  0  0  0  0  0  0  0  0  0
  139.6050   75.2650  222.3170 N   0  0  0  0  0  0  0  0  0  0  0  0
  140.3610   70.2110  226.1680 C   0  0  0  0  0  0  0  0  0  0  0  0
  139.7430   69.9480  227.3640 C   0  0  0  0  0  0  0  0  0  0  0  0
  139.8970   70.7570  228.4880 C   0  0  0  0  0  0  0  0  0  0  0  0
  140.7210   71.8690  228.3450 C   0  0  0  0  0  0  0  0  0  0  0  0
  141.3620   72.1730  227.1660 C   0  0  0  0  0  0  0  0  0  0  0  0
  141.1630   71.3290  226.0990 C   0  0  0  0  0  0  0  0  0  0  0  0
  139.1575   68.0485  226.4660 H   0  0  0  0  0  0  0  0  0  0  0  0
  138.2348   68.3274  224.9503 H   0  0  0  0  0  0  0  0  0  0  0  0
  139.6481   67.2188  224.9503 H   0  0  0  0  0  0  0  0  0  0  0  0
  141.0998   68.8358  224.7650 H   0  0  0  0  0  0  0  0  0  0  0  0
  140.3030   70.2440  223.1320 H   0  0  0  0  0  0  0  0  0  0  0  0
  137.8478   70.7832  221.8376 H   0  0  0  0  0  0  0  0  0  0  0  0
  136.7301   71.5912  223.0716 H   0  0  0  0  0  0  0  0  0  0  0  0
  137.8300   73.5550  222.7210 H   0  0  0  0  0  0  0  0  0  0  0  0
  141.7571   73.4918  220.4692 H   0  0  0  0  0  0  0  0  0  0  0  0
  142.7041   75.7712  220.0497 H   0  0  0  0  0  0  0  0  0  0  0  0
  142.5995   78.0950  220.4324 H   0  0  0  0  0  0  0  0  0  0  0  0
  139.5276   79.7253  222.9551 H   0  0  0  0  0  0  0  0  0  0  0  0
  138.5897   77.4723  223.3652 H   0  0  0  0  0  0  0  0  0  0  0  0
  139.0980   69.0601  227.4390 H   0  0  0  0  0  0  0  0  0  0  0  0
  139.3934   70.5284  229.4389 H   0  0  0  0  0  0  0  0  0  0  0  0
  140.8660   72.5326  229.2103 H   0  0  0  0  0  0  0  0  0  0  0  0
  142.0094   73.0581  227.0803 H   0  0  0  0  0  0  0  0  0  0  0  0
  141.6666   71.5566  225.1479 H   0  0  0  0  0  0  0  0  0  0  0  0
  1  2  1  0
  2  3  1  0
  3  4  1  0
  4  5  2  0
  4  6  1  0
  6  7  1  0
  7  8  1  0
  8  9  2  0
  8 10  1  0
 10 11  2  0
 11 12  1  0
 12 13  2  0
 13 14  1  0
 14 15  2  0
 15 16  1  0
 15 17  1  0
 17 18  2  0
 18 19  1  0
 19 20  2  0
  2 21  1  0
 21 22  2  0
 22 23  1  0
 23 24  2  0
 24 25  1  0
 25 26  2  0
 20 10  1  0
 26 21  1  0
 19 13  1  0
  1 27  1  0
  1 28  1  0
  1 29  1  0
  2 30  1  6
  3 31  1  0
  6 32  1  0
  6 33  1  0
  7 34  1  0
 11 35  1  0
 12 36  1  0
 14 37  1  0
 17 38  1  0
 18 39  1  0
 22 40  1  0
 23 41  1  0
 24 42  1  0
 25 43  1  0
 26 44  1  0
M  END
>  <smiles>  (10) 
C[C@@H](NC(=O)CNC(=O)c1ccc2cc(Cl)ccc2n1)c1ccccc1

>  <score_type>  (10) 
oracle

>  <origin>  (10) 
autodockgpu

>  <m_score__min__energy>  (10) 
-8.7899999999999991

>  <m_primary>  (10) 
energy

>  <rmsd>  (10) 
9.75268532876542

>  <m_score__min__rmsd>  (10) 
9.75268532876542

>  <meeko>  (10) 
{"free_energy": -8.18, "intermolecular_energy": -9.67, "internal_energy": -2.05, "cluster_size": 34, "cluster_id": 3, "rank_in_cluster": 4}

>  <energy>  (10) 
-7.74

>  <cluster_rmsd>  (10) 
1.8

>  <cluster>  (10) 
1

$$$$

     RDKit          3D

 44 46  0  0  0  0  0  0  0  0999 V2000
  142.2970   77.2870  219.6990 C   0  0  0  0  0  0  0  0  0  0  0  0
  140.9420   77.7990  220.1130 C   0  0  1  0  0  0  0  0  0  0  0  0
  139.9510   76.7400  220.1690 N   0  0  0  0  0  0  0  0  0  0  0  0
  139.9920   75.6940  221.0990 C   0  0  0  0  0  0  0  0  0  0  0  0
  140.9670   75.7080  221.9310 O   0  0  0  0  0  0  0  0  0  0  0  0
  139.0400   74.5910  221.2220 C   0  0  0  0  0  0  0  0  0  0  0  0
  139.2910   73.6450  222.2590 N   0  0  0  0  0  0  0  0  0  0  0  0
  139.1930   72.2350  222.0830 C   0  0  0  0  0  0  0  0  0  0  0  0
  138.8710   71.7190  220.9570 O   0  0  0  0  0  0  0  0  0  0  0  0
  139.4690   71.3330  223.2270 C   0  0  0  0  0  0  0  0  0  0  0  0
  139.1500   69.9950  223.1250 C   0  0  0  0  0  0  0  0  0  0  0  0
  139.3850   69.1050  224.1630 C   0  0  0  0  0  0  0  0  0  0  0  0
  139.9570   69.6320  225.3040 C   0  0  0  0  0  0  0  0  0  0  0  0
  140.1990   68.7510  226.3580 C   0  0  0  0  0  0  0  0  0  0  0  0
  140.7750   69.2450  227.5280 C   0  0  0  0  0  0  0  0  0  0  0  0
  141.0870   68.1430  228.8630 Cl  0  0  0  0  0  0  0  0  0  0  0  0
  141.0840   70.5890  227.6010 C   0  0  0  0  0  0  0  0  0  0  0  0
  140.8500   71.4730  226.5680 C   0  0  0  0  0  0  0  0  0  0  0  0
  140.2790   70.9720  225.4150 C   0  0  0  0  0  0  0  0  0  0  0  0
  140.0250   71.7960  224.3630 N   0  0  0  0  0  0  0  0  0  0  0  0
  140.9610   78.4920  221.4100 C   0  0  0  0  0  0  0  0  0  0  0  0
  142.1560   78.9450  221.9070 C   0  0  0  0  0  0  0  0  0  0  0  0
  142.2640   79.6100  223.1260 C   0  0  0  0  0  0  0  0  0  0  0  0
  141.0830   79.8000  223.8370 C   0  0  0  0  0  0  0  0  0  0  0  0
  139.8620   79.3630  223.3800 C   0  0  0  0  0  0  0  0  0  0  0  0
  139.8320   78.7150  222.1680 C   0  0  0  0  0  0  0  0  0  0  0  0
  142.8934   77.0616  220.5954 H   0  0  0  0  0  0  0  0  0  0  0  0
  142.1760   76.3726  219.0997 H   0  0  0  0  0  0  0  0  0  0  0  0
  142.8110   78.0529  219.0997 H   0  0  0  0  0  0  0  0  0  0  0  0
  140.6644   78.5224  219.3322 H   0  0  0  0  0  0  0  0  0  0  0  0
  139.1790   76.7870  219.4790 H   0  0  0  0  0  0  0  0  0  0  0  0
  138.0457   75.0264  221.4006 H   0  0  0  0  0  0  0  0  0  0  0  0
  139.1294   74.0240  220.2836 H   0  0  0  0  0  0  0  0  0  0  0  0
  139.5710   73.9580  223.2380 H   0  0  0  0  0  0  0  0  0  0  0  0
  138.6965   69.6231  222.1944 H   0  0  0  0  0  0  0  0  0  0  0  0
  139.1297   68.0381  224.0815 H   0  0  0  0  0  0  0  0  0  0  0  0
  139.9402   67.6857  226.2679 H   0  0  0  0  0  0  0  0  0  0  0  0
  141.5381   70.9728  228.5265 H   0  0  0  0  0  0  0  0  0  0  0  0
  141.1089   72.5382  226.6596 H   0  0  0  0  0  0  0  0  0  0  0  0
  143.0690   78.7758  221.3173 H   0  0  0  0  0  0  0  0  0  0  0  0
  143.2324   79.9664  223.5069 H   0  0  0  0  0  0  0  0  0  0  0  0
  141.1281   80.3213  224.8046 H   0  0  0  0  0  0  0  0  0  0  0  0
  138.9433   79.5259  223.9626 H   0  0  0  0  0  0  0  0  0  0  0  0
  138.8638   78.3587  221.7863 H   0  0  0  0  0  0  0  0  0  0  0  0
  1  2  1  0
  2  3  1  0
  3  4  1  0
  4  5  2  0
  4  6  1  0
  6  7  1  0
  7  8  1  0
  8  9  2  0
  8 10  1  0
 10 11  2  0
 11 12  1  0
 12 13  2  0
 13 14  1  0
 14 15  2  0
 15 16  1  0
 15 17  1  0
 17 18  2  0
 18 19  1  0
 19 20  2  0
  2 21  1  0
 21 22  2  0
 22 23  1  0
 23 24  2  0
 24 25  1  0
 25 26  2  0
 20 10  1  0
 26 21  1  0
 19 13  1  0
  1 27  1  0
  1 28  1  0
  1 29  1  0
  2 30  1  6
  3 31  1  0
  6 32  1  0
  6 33  1  0
  7 34  1  0
 11 35  1  0
 12 36  1  0
 14 37  1  0
 17 38  1  0
 18 39  1  0
 22 40  1  0
 23 41  1  0
 24 42  1  0
 25 43  1  0
 26 44  1  0
M  END
>  <smiles>  (11) 
C[C@@H](NC(=O)CNC(=O)c1ccc2cc(Cl)ccc2n1)c1ccccc1

>  <score_type>  (11) 
oracle

>  <origin>  (11) 
autodockgpu

>  <m_score__min__energy>  (11) 
-8.7899999999999991

>  <m_primary>  (11) 
energy

>  <rmsd>  (11) 
4.140071174691065

>  <m_score__min__rmsd>  (11) 
4.140071174691065

>  <meeko>  (11) 
{"free_energy": -8.1, "intermolecular_energy": -9.59, "internal_energy": -1.39, "cluster_size": 2, "cluster_id": 4, "rank_in_cluster": 2}

>  <energy>  (11) 
-8.3

>  <cluster_rmsd>  (11) 
0.0

>  <cluster>  (11) 
2

$$$$

     RDKit          3D

 44 46  0  0  0  0  0  0  0  0999 V2000
  139.5550   67.9710  225.5450 C   0  0  0  0  0  0  0  0  0  0  0  0
  140.3140   69.2490  225.3020 C   0  0  1  0  0  0  0  0  0  0  0  0
  139.8120   69.9720  224.1490 N   0  0  0  0  0  0  0  0  0  0  0  0
  138.4800   70.3860  224.0160 C   0  0  0  0  0  0  0  0  0  0  0  0
  137.6950   70.0970  224.9860 O   0  0  0  0  0  0  0  0  0  0  0  0
  137.8950   71.1130  222.8910 C   0  0  0  0  0  0  0  0  0  0  0  0
  138.4680   72.3820  222.5850 N   0  0  0  0  0  0  0  0  0  0  0  0
  139.7680   72.5470  222.0240 C   0  0  0  0  0  0  0  0  0  0  0  0
  140.5140   71.5440  221.7510 O   0  0  0  0  0  0  0  0  0  0  0  0
  140.2780   73.9110  221.7460 C   0  0  0  0  0  0  0  0  0  0  0  0
  141.3310   74.0730  220.8710 C   0  0  0  0  0  0  0  0  0  0  0  0
  141.8490   75.3270  220.5730 C   0  0  0  0  0  0  0  0  0  0  0  0
  141.2530   76.4010  221.2030 C   0  0  0  0  0  0  0  0  0  0  0  0
  141.7630   77.6680  220.9160 C   0  0  0  0  0  0  0  0  0  0  0  0
  141.1880   78.7790  221.5320 C   0  0  0  0  0  0  0  0  0  0  0  0
  141.8220   80.3810  221.1770 Cl  0  0  0  0  0  0  0  0  0  0  0  0
  140.1360   78.5850  222.4050 C   0  0  0  0  0  0  0  0  0  0  0  0
  139.6210   77.3390  222.6990 C   0  0  0  0  0  0  0  0  0  0  0  0
  140.1980   76.2470  222.0830 C   0  0  0  0  0  0  0  0  0  0  0  0
  139.7330   74.9940  222.3340 N   0  0  0  0  0  0  0  0  0  0  0  0
  140.3030   70.1530  226.4620 C   0  0  0  0  0  0  0  0  0  0  0  0
  141.0420   71.3070  226.4150 C   0  0  0  0  0  0  0  0  0  0  0  0
  141.0890   72.2180  227.4690 C   0  0  0  0  0  0  0  0  0  0  0  0
  140.3370   71.9030  228.5960 C   0  0  0  0  0  0  0  0  0  0  0  0
  139.5800   70.7580  228.6890 C   0  0  0  0  0  0  0  0  0  0  0  0
  139.5830   69.9060  227.6110 C   0  0  0  0  0  0  0  0  0  0  0  0
  139.4557   67.8037  226.6277 H   0  0  0  0  0  0  0  0  0  0  0  0
  138.5553   68.0466  225.0924 H   0  0  0  0  0  0  0  0  0  0  0  0
  140.0997   67.1293  225.0924 H   0  0  0  0  0  0  0  0  0  0  0  0
  141.3497   68.9294  225.1145 H   0  0  0  0  0  0  0  0  0  0  0  0
  140.4960   70.1880  223.4000 H   0  0  0  0  0  0  0  0  0  0  0  0
  137.9913   70.4789  221.9973 H   0  0  0  0  0  0  0  0  0  0  0  0
  136.8585   71.3270  223.1909 H   0  0  0  0  0  0  0  0  0  0  0  0
  137.9380   73.2880  222.7660 H   0  0  0  0  0  0  0  0  0  0  0  0
  141.7731   73.1849  220.3958 H   0  0  0  0  0  0  0  0  0  0  0  0
  142.6879   75.4570  219.8735 H   0  0  0  0  0  0  0  0  0  0  0  0
  142.6034   77.7880  220.2165 H   0  0  0  0  0  0  0  0  0  0  0  0
  139.6873   79.4651  222.8889 H   0  0  0  0  0  0  0  0  0  0  0  0
  138.7809   77.2204  223.3991 H   0  0  0  0  0  0  0  0  0  0  0  0
  141.6229   71.5232  225.5063 H   0  0  0  0  0  0  0  0  0  0  0  0
  141.6894   73.1380  227.4125 H   0  0  0  0  0  0  0  0  0  0  0  0
  140.3480   72.5983  229.4483 H   0  0  0  0  0  0  0  0  0  0  0  0
  138.9943   70.5330  229.5925 H   0  0  0  0  0  0  0  0  0  0  0  0
  138.9837   68.9853  227.6676 H   0  0  0  0  0  0  0  0  0  0  0  0
  1  2  1  0
  2  3  1  0
  3  4  1  0
  4  5  2  0
  4  6  1  0
  6  7  1  0
  7  8  1  0
  8  9  2  0
  8 10  1  0
 10 11  2  0
 11 12  1  0
 12 13  2  0
 13 14  1  0
 14 15  2  0
 15 16  1  0
 15 17  1  0
 17 18  2  0
 18 19  1  0
 19 20  2  0
  2 21  1  0
 21 22  2  0
 22 23  1  0
 23 24  2  0
 24 25  1  0
 25 26  2  0
 20 10  1  0
 26 21  1  0
 19 13  1  0
  1 27  1  0
  1 28  1  0
  1 29  1  0
  2 30  1  6
  3 31  1  0
  6 32  1  0
  6 33  1  0
  7 34  1  0
 11 35  1  0
 12 36  1  0
 14 37  1  0
 17 38  1  0
 18 39  1  0
 22 40  1  0
 23 41  1  0
 24 42  1  0
 25 43  1  0
 26 44  1  0
M  END
>  <smiles>  (12) 
C[C@@H](NC(=O)CNC(=O)c1ccc2cc(Cl)ccc2n1)c1ccccc1

>  <score_type>  (12) 
oracle

>  <origin>  (12) 
autodockgpu

>  <m_score__min__energy>  (12) 
-8.7899999999999991

>  <m_primary>  (12) 
energy

>  <rmsd>  (12) 
9.987805049652945

>  <m_score__min__rmsd>  (12) 
9.987805049652945

>  <meeko>  (12) 
{"free_energy": -8.17, "intermolecular_energy": -9.66, "internal_energy": -2.06, "cluster_size": 34, "cluster_id": 3, "rank_in_cluster": 10}

>  <energy>  (12) 
-7.43

>  <cluster_rmsd>  (12) 
1.67

>  <cluster>  (12) 
2

$$$$

     RDKit          3D

 44 46  0  0  0  0  0  0  0  0999 V2000
  139.2660   68.1690  225.3620 C   0  0  0  0  0  0  0  0  0  0  0  0
  140.1740   69.3220  225.0250 C   0  0  1  0  0  0  0  0  0  0  0  0
  139.6790   70.0980  223.9030 N   0  0  0  0  0  0  0  0  0  0  0  0
  138.3760   70.6080  223.8320 C   0  0  0  0  0  0  0  0  0  0  0  0
  137.6120   70.3590  224.8300 O   0  0  0  0  0  0  0  0  0  0  0  0
  137.7990   71.3930  222.7430 C   0  0  0  0  0  0  0  0  0  0  0  0
  138.3900   72.6660  222.4920 N   0  0  0  0  0  0  0  0  0  0  0  0
  139.6920   72.8380  221.9410 C   0  0  0  0  0  0  0  0  0  0  0  0
  140.4260   71.8380  221.6250 O   0  0  0  0  0  0  0  0  0  0  0  0
  140.2210   74.2060  221.7240 C   0  0  0  0  0  0  0  0  0  0  0  0
  141.3250   74.3830  220.9170 C   0  0  0  0  0  0  0  0  0  0  0  0
  141.8630   75.6410  220.6780 C   0  0  0  0  0  0  0  0  0  0  0  0
  141.2320   76.7040  221.2930 C   0  0  0  0  0  0  0  0  0  0  0  0
  141.7610   77.9740  221.0640 C   0  0  0  0  0  0  0  0  0  0  0  0
  141.1520   79.0740  221.6680 C   0  0  0  0  0  0  0  0  0  0  0  0
  141.8090   80.6810  221.3860 Cl  0  0  0  0  0  0  0  0  0  0  0  0
  140.0480   78.8650  222.4710 C   0  0  0  0  0  0  0  0  0  0  0  0
  139.5140   77.6150  222.7070 C   0  0  0  0  0  0  0  0  0  0  0  0
  140.1250   76.5340  222.1040 C   0  0  0  0  0  0  0  0  0  0  0  0
  139.6440   75.2780  222.3000 N   0  0  0  0  0  0  0  0  0  0  0  0
  140.3960   70.2310  226.1600 C   0  0  0  0  0  0  0  0  0  0  0  0
  139.7880   69.9600  227.3590 C   0  0  0  0  0  0  0  0  0  0  0  0
  139.9430   70.7680  228.4840 C   0  0  0  0  0  0  0  0  0  0  0  0
  140.7590   71.8850  228.3400 C   0  0  0  0  0  0  0  0  0  0  0  0
  141.3900   72.1970  227.1580 C   0  0  0  0  0  0  0  0  0  0  0  0
  141.1900   71.3550  226.0900 C   0  0  0  0  0  0  0  0  0  0  0  0
  139.1885   68.0706  226.4548 H   0  0  0  0  0  0  0  0  0  0  0  0
  138.2675   68.3527  224.9387 H   0  0  0  0  0  0  0  0  0  0  0  0
  139.6787   67.2414  224.9387 H   0  0  0  0  0  0  0  0  0  0  0  0
  141.1327   68.8543  224.7563 H   0  0  0  0  0  0  0  0  0  0  0  0
  140.3460   70.2780  223.1300 H   0  0  0  0  0  0  0  0  0  0  0  0
  137.8833   70.7982  221.8215 H   0  0  0  0  0  0  0  0  0  0  0  0
  136.7667   71.6087  223.0557 H   0  0  0  0  0  0  0  0  0  0  0  0
  137.8710   73.5700  222.7110 H   0  0  0  0  0  0  0  0  0  0  0  0
  141.7925   73.5037  220.4497 H   0  0  0  0  0  0  0  0  0  0  0  0
  142.7435   75.7826  220.0341 H   0  0  0  0  0  0  0  0  0  0  0  0
  142.6422   78.1058  220.4190 H   0  0  0  0  0  0  0  0  0  0  0  0
  139.5720   79.7362  222.9447 H   0  0  0  0  0  0  0  0  0  0  0  0
  138.6330   77.4845  223.3525 H   0  0  0  0  0  0  0  0  0  0  0  0
  139.1507   69.0667  227.4361 H   0  0  0  0  0  0  0  0  0  0  0  0
  139.4455   70.5343  229.4368 H   0  0  0  0  0  0  0  0  0  0  0  0
  140.9059   72.5461  229.2068 H   0  0  0  0  0  0  0  0  0  0  0  0
  142.0306   73.0870  227.0708 H   0  0  0  0  0  0  0  0  0  0  0  0
  141.6861   71.5890  225.1365 H   0  0  0  0  0  0  0  0  0  0  0  0
  1  2  1  0
  2  3  1  0
  3  4  1  0
  4  5  2  0
  4  6  1  0
  6  7  1  0
  7  8  1  0
  8  9  2  0
  8 10  1  0
 10 11  2  0
 11 12  1  0
 12 13  2  0
 13 14  1  0
 14 15  2  0
 15 16  1  0
 15 17  1  0
 17 18  2  0
 18 19  1  0
 19 20  2  0
  2 21  1  0
 21 22  2  0
 22 23  1  0
 23 24  2  0
 24 25  1  0
 25 26  2  0
 20 10  1  0
 26 21  1  0
 19 13  1  0
  1 27  1  0
  1 28  1  0
  1 29  1  0
  2 30  1  6
  3 31  1  0
  6 32  1  0
  6 33  1  0
  7 34  1  0
 11 35  1  0
 12 36  1  0
 14 37  1  0
 17 38  1  0
 18 39  1  0
 22 40  1  0
 23 41  1  0
 24 42  1  0
 25 43  1  0
 26 44  1  0
M  END
>  <smiles>  (13) 
C[C@@H](NC(=O)CNC(=O)c1ccc2cc(Cl)ccc2n1)c1ccccc1

>  <score_type>  (13) 
oracle

>  <origin>  (13) 
autodockgpu

>  <m_score__min__energy>  (13) 
-8.7899999999999991

>  <m_primary>  (13) 
energy

>  <rmsd>  (13) 
9.742834547480689

>  <m_score__min__rmsd>  (13) 
9.742834547480689

>  <meeko>  (13) 
{"free_energy": -8.17, "intermolecular_energy": -9.66, "internal_energy": -2.05, "cluster_size": 34, "cluster_id": 3, "rank_in_cluster": 8}

>  <energy>  (13) 
-8.19

>  <cluster_rmsd>  (13) 
0.0

>  <cluster>  (13) 
3

$$$$

     RDKit          3D

 44 46  0  0  0  0  0  0  0  0999 V2000
  139.1860   68.1150  225.3100 C   0  0  0  0  0  0  0  0  0  0  0  0
  140.0810   69.2880  225.0060 C   0  0  1  0  0  0  0  0  0  0  0  0
  139.5870   70.0780  223.8940 N   0  0  0  0  0  0  0  0  0  0  0  0
  138.2830   70.5830  223.8240 C   0  0  0  0  0  0  0  0  0  0  0  0
  137.5150   70.3160  224.8140 O   0  0  0  0  0  0  0  0  0  0  0  0
  137.7070   71.3820  222.7430 C   0  0  0  0  0  0  0  0  0  0  0  0
  138.3060   72.6530  222.5020 N   0  0  0  0  0  0  0  0  0  0  0  0
  139.6070   72.8200  221.9450 C   0  0  0  0  0  0  0  0  0  0  0  0
  140.3320   71.8180  221.6170 O   0  0  0  0  0  0  0  0  0  0  0  0
  140.1450   74.1860  221.7380 C   0  0  0  0  0  0  0  0  0  0  0  0
  141.2640   74.3600  220.9520 C   0  0  0  0  0  0  0  0  0  0  0  0
  141.8120   75.6150  220.7230 C   0  0  0  0  0  0  0  0  0  0  0  0
  141.1740   76.6800  221.3270 C   0  0  0  0  0  0  0  0  0  0  0  0
  141.7110   77.9490  221.1090 C   0  0  0  0  0  0  0  0  0  0  0  0
  141.0960   79.0510  221.7010 C   0  0  0  0  0  0  0  0  0  0  0  0
  141.7640   80.6550  221.4320 Cl  0  0  0  0  0  0  0  0  0  0  0  0
  139.9770   78.8460  222.4840 C   0  0  0  0  0  0  0  0  0  0  0  0
  139.4330   77.5980  222.7100 C   0  0  0  0  0  0  0  0  0  0  0  0
  140.0520   76.5150  222.1180 C   0  0  0  0  0  0  0  0  0  0  0  0
  139.5620   75.2600  222.3050 N   0  0  0  0  0  0  0  0  0  0  0  0
  140.2750   70.1770  226.1620 C   0  0  0  0  0  0  0  0  0  0  0  0
  141.0670   71.2880  226.0220 C   0  0  0  0  0  0  0  0  0  0  0  0
  141.3060   72.1820  227.0640 C   0  0  0  0  0  0  0  0  0  0  0  0
  140.6930   71.8970  228.2800 C   0  0  0  0  0  0  0  0  0  0  0  0
  139.8910   70.7950  228.4680 C   0  0  0  0  0  0  0  0  0  0  0  0
  139.7010   69.9570  227.3950 C   0  0  0  0  0  0  0  0  0  0  0  0
  139.0951   67.9959  226.3997 H   0  0  0  0  0  0  0  0  0  0  0  0
  138.1906   68.2911  224.8761 H   0  0  0  0  0  0  0  0  0  0  0  0
  139.6187   67.2015  224.8761 H   0  0  0  0  0  0  0  0  0  0  0  0
  141.0501   68.8411  224.7391 H   0  0  0  0  0  0  0  0  0  0  0  0
  140.2570   70.2720  223.1260 H   0  0  0  0  0  0  0  0  0  0  0  0
  137.7844   70.7950  221.8159 H   0  0  0  0  0  0  0  0  0  0  0  0
  136.6770   71.6014  223.0606 H   0  0  0  0  0  0  0  0  0  0  0  0
  137.7950   73.5580  222.7320 H   0  0  0  0  0  0  0  0  0  0  0  0
  141.7365   73.4791  220.4929 H   0  0  0  0  0  0  0  0  0  0  0  0
  142.7047   75.7530  220.0953 H   0  0  0  0  0  0  0  0  0  0  0  0
  142.6046   78.0778  220.4806 H   0  0  0  0  0  0  0  0  0  0  0  0
  139.4964   79.7190  222.9497 H   0  0  0  0  0  0  0  0  0  0  0  0
  138.5393   77.4707  223.3386 H   0  0  0  0  0  0  0  0  0  0  0  0
  141.5337   71.4818  225.0450 H   0  0  0  0  0  0  0  0  0  0  0  0
  141.9460   73.0669  226.9319 H   0  0  0  0  0  0  0  0  0  0  0  0
  140.8562   72.5809  229.1259 H   0  0  0  0  0  0  0  0  0  0  0  0
  139.4194   70.5920  229.4408 H   0  0  0  0  0  0  0  0  0  0  0  0
  139.0622   69.0713  227.5267 H   0  0  0  0  0  0  0  0  0  0  0  0
  1  2  1  0
  2  3  1  0
  3  4  1  0
  4  5  2  0
  4  6  1  0
  6  7  1  0
  7  8  1  0
  8  9  2  0
  8 10  1  0
 10 11  2  0
 11 12  1  0
 12 13  2  0
 13 14  1  0
 14 15  2  0
 15 16  1  0
 15 17  1  0
 17 18  2  0
 18 19  1  0
 19 20  2  0
  2 21  1  0
 21 22  2  0
 22 23  1  0
 23 24  2  0
 24 25  1  0
 25 26  2  0
 20 10  1  0
 26 21  1  0
 19 13  1  0
  1 27  1  0
  1 28  1  0
  1 29  1  0
  2 30  1  6
  3 31  1  0
  6 32  1  0
  6 33  1  0
  7 34  1  0
 11 35  1  0
 12 36  1  0
 14 37  1  0
 17 38  1  0
 18 39  1  0
 22 40  1  0
 23 41  1  0
 24 42  1  0
 25 43  1  0
 26 44  1  0
M  END
>  <smiles>  (14) 
C[C@@H](NC(=O)CNC(=O)c1ccc2cc(Cl)ccc2n1)c1ccccc1

>  <score_type>  (14) 
oracle

>  <origin>  (14) 
autodockgpu

>  <m_score__min__energy>  (14) 
-8.7899999999999991

>  <m_primary>  (14) 
energy

>  <rmsd>  (14) 
9.934802921454803

>  <m_score__min__rmsd>  (14) 
9.934802921454803

>  <meeko>  (14) 
{"free_energy": -8.15, "intermolecular_energy": -9.64, "internal_energy": -2.07, "cluster_size": 34, "cluster_id": 3, "rank_in_cluster": 25}

>  <energy>  (14) 
-8.18

>  <cluster_rmsd>  (14) 
0.04

>  <cluster>  (14) 
3

$$$$

     RDKit          3D

 44 46  0  0  0  0  0  0  0  0999 V2000
  139.5990   67.9790  225.6260 C   0  0  0  0  0  0  0  0  0  0  0  0
  140.3890   69.2290  225.3400 C   0  0  1  0  0  0  0  0  0  0  0  0
  139.9070   69.9220  224.1590 N   0  0  0  0  0  0  0  0  0  0  0  0
  138.5870   70.3680  224.0100 C   0  0  0  0  0  0  0  0  0  0  0  0
  137.7940   70.1390  224.9900 O   0  0  0  0  0  0  0  0  0  0  0  0
  138.0220   71.0680  222.8580 C   0  0  0  0  0  0  0  0  0  0  0  0
  138.5810   72.3430  222.5500 N   0  0  0  0  0  0  0  0  0  0  0  0
  139.8920   72.5230  222.0200 C   0  0  0  0  0  0  0  0  0  0  0  0
  140.6630   71.5310  221.7790 O   0  0  0  0  0  0  0  0  0  0  0  0
  140.3850   73.8930  221.7380 C   0  0  0  0  0  0  0  0  0  0  0  0
  141.4480   74.0640  220.8760 C   0  0  0  0  0  0  0  0  0  0  0  0
  141.9520   75.3220  220.5750 C   0  0  0  0  0  0  0  0  0  0  0  0
  141.3300   76.3930  221.1870 C   0  0  0  0  0  0  0  0  0  0  0  0
  141.8250   77.6640  220.8960 C   0  0  0  0  0  0  0  0  0  0  0  0
  141.2240   78.7720  221.4940 C   0  0  0  0  0  0  0  0  0  0  0  0
  141.8380   80.3800  221.1340 Cl  0  0  0  0  0  0  0  0  0  0  0  0
  140.1620   78.5690  222.3530 C   0  0  0  0  0  0  0  0  0  0  0  0
  139.6620   77.3190  222.6510 C   0  0  0  0  0  0  0  0  0  0  0  0
  140.2650   76.2300  222.0530 C   0  0  0  0  0  0  0  0  0  0  0  0
  139.8160   74.9720  222.3080 N   0  0  0  0  0  0  0  0  0  0  0  0
  140.3950   70.1750  226.4670 C   0  0  0  0  0  0  0  0  0  0  0  0
  139.6400   69.8950  227.5770 C   0  0  0  0  0  0  0  0  0  0  0  0
  139.5870   70.7360  228.6860 C   0  0  0  0  0  0  0  0  0  0  0  0
  140.3500   71.8970  228.6230 C   0  0  0  0  0  0  0  0  0  0  0  0
  141.1230   72.2200  227.5320 C   0  0  0  0  0  0  0  0  0  0  0  0
  141.1260   71.3440  226.4730 C   0  0  0  0  0  0  0  0  0  0  0  0
  139.5119   67.8412  226.7139 H   0  0  0  0  0  0  0  0  0  0  0  0
  138.5948   68.0713  225.1865 H   0  0  0  0  0  0  0  0  0  0  0  0
  140.1133   67.1116  225.1865 H   0  0  0  0  0  0  0  0  0  0  0  0
  141.4175   68.8787  225.1683 H   0  0  0  0  0  0  0  0  0  0  0  0
  140.5960   70.0890  223.4030 H   0  0  0  0  0  0  0  0  0  0  0  0
  138.1556   70.4231  221.9769 H   0  0  0  0  0  0  0  0  0  0  0  0
  136.9735   71.2671  223.1246 H   0  0  0  0  0  0  0  0  0  0  0  0
  138.0310   73.2410  222.7050 H   0  0  0  0  0  0  0  0  0  0  0  0
  141.9094   73.1787  220.4141 H   0  0  0  0  0  0  0  0  0  0  0  0
  142.7996   75.4585  219.8873 H   0  0  0  0  0  0  0  0  0  0  0  0
  142.6736   77.7905  220.2077 H   0  0  0  0  0  0  0  0  0  0  0  0
  139.6925   79.4463  222.8219 H   0  0  0  0  0  0  0  0  0  0  0  0
  138.8137   77.1938  223.3400 H   0  0  0  0  0  0  0  0  0  0  0  0
  139.0509   68.9662  227.5922 H   0  0  0  0  0  0  0  0  0  0  0  0
  138.9733   70.4943  229.5663 H   0  0  0  0  0  0  0  0  0  0  0  0
  140.3347   72.5853  229.4809 H   0  0  0  0  0  0  0  0  0  0  0  0
  141.7170   73.1455  227.5080 H   0  0  0  0  0  0  0  0  0  0  0  0
  141.7383   71.5861  225.5918 H   0  0  0  0  0  0  0  0  0  0  0  0
  1  2  1  0
  2  3  1  0
  3  4  1  0
  4  5  2  0
  4  6  1  0
  6  7  1  0
  7  8  1  0
  8  9  2  0
  8 10  1  0
 10 11  2  0
 11 12  1  0
 12 13  2  0
 13 14  1  0
 14 15  2  0
 15 16  1  0
 15 17  1  0
 17 18  2  0
 18 19  1  0
 19 20  2  0
  2 21  1  0
 21 22  2  0
 22 23  1  0
 23 24  2  0
 24 25  1  0
 25 26  2  0
 20 10  1  0
 26 21  1  0
 19 13  1  0
  1 27  1  0
  1 28  1  0
  1 29  1  0
  2 30  1  6
  3 31  1  0
  6 32  1  0
  6 33  1  0
  7 34  1  0
 11 35  1  0
 12 36  1  0
 14 37  1  0
 17 38  1  0
 18 39  1  0
 22 40  1  0
 23 41  1  0
 24 42  1  0
 25 43  1  0
 26 44  1  0
M  END
>  <smiles>  (15) 
C[C@@H](NC(=O)CNC(=O)c1ccc2cc(Cl)ccc2n1)c1ccccc1

>  <score_type>  (15) 
oracle

>  <origin>  (15) 
autodockgpu

>  <m_score__min__energy>  (15) 
-8.7899999999999991

>  <m_primary>  (15) 
energy

>  <rmsd>  (15) 
9.805242657657914

>  <m_score__min__rmsd>  (15) 
9.805242657657914

>  <meeko>  (15) 
{"free_energy": -8.18, "intermolecular_energy": -9.68, "internal_energy": -2.04, "cluster_size": 34, "cluster_id": 3, "rank_in_cluster": 2}

>  <energy>  (15) 
-8.18

>  <cluster_rmsd>  (15) 
0.1

>  <cluster>  (15) 
3

$$$$

     RDKit          3D

 44 46  0  0  0  0  0  0  0  0999 V2000
  139.2430   68.1560  225.3580 C   0  0  0  0  0  0  0  0  0  0  0  0
  140.1550   69.3060  225.0190 C   0  0  1  0  0  0  0  0  0  0  0  0
  139.6570   70.0880  223.9030 N   0  0  0  0  0  0  0  0  0  0  0  0
  138.3520   70.5950  223.8360 C   0  0  0  0  0  0  0  0  0  0  0  0
  137.5900   70.3370  224.8330 O   0  0  0  0  0  0  0  0  0  0  0  0
  137.7720   71.3860  222.7520 C   0  0  0  0  0  0  0  0  0  0  0  0
  138.3660   72.6580  222.5040 N   0  0  0  0  0  0  0  0  0  0  0  0
  139.6660   72.8270  221.9460 C   0  0  0  0  0  0  0  0  0  0  0  0
  140.3950   71.8270  221.6230 O   0  0  0  0  0  0  0  0  0  0  0  0
  140.1990   74.1940  221.7310 C   0  0  0  0  0  0  0  0  0  0  0  0
  141.3020   74.3710  220.9230 C   0  0  0  0  0  0  0  0  0  0  0  0
  141.8430   75.6270  220.6860 C   0  0  0  0  0  0  0  0  0  0  0  0
  141.2160   76.6900  221.3050 C   0  0  0  0  0  0  0  0  0  0  0  0
  141.7480   77.9600  221.0780 C   0  0  0  0  0  0  0  0  0  0  0  0
  141.1430   79.0600  221.6850 C   0  0  0  0  0  0  0  0  0  0  0  0
  141.8040   80.6660  221.4060 Cl  0  0  0  0  0  0  0  0  0  0  0  0
  140.0400   78.8520  222.4900 C   0  0  0  0  0  0  0  0  0  0  0  0
  139.5030   77.6040  222.7240 C   0  0  0  0  0  0  0  0  0  0  0  0
  140.1100   76.5220  222.1170 C   0  0  0  0  0  0  0  0  0  0  0  0
  139.6250   75.2660  222.3110 N   0  0  0  0  0  0  0  0  0  0  0  0
  140.3880   70.2090  226.1560 C   0  0  0  0  0  0  0  0  0  0  0  0
  139.7900   69.9350  227.3590 C   0  0  0  0  0  0  0  0  0  0  0  0
  139.9560   70.7380  228.4860 C   0  0  0  0  0  0  0  0  0  0  0  0
  140.7730   71.8540  228.3390 C   0  0  0  0  0  0  0  0  0  0  0  0
  141.3940   72.1700  227.1520 C   0  0  0  0  0  0  0  0  0  0  0  0
  141.1830   71.3330  226.0830 C   0  0  0  0  0  0  0  0  0  0  0  0
  139.1660   68.0589  226.4510 H   0  0  0  0  0  0  0  0  0  0  0  0
  138.2448   68.3427  224.9353 H   0  0  0  0  0  0  0  0  0  0  0  0
  139.6522   67.2266  224.9353 H   0  0  0  0  0  0  0  0  0  0  0  0
  141.1099   68.8352  224.7422 H   0  0  0  0  0  0  0  0  0  0  0  0
  140.3220   70.2740  223.1300 H   0  0  0  0  0  0  0  0  0  0  0  0
  137.8506   70.7946  221.8278 H   0  0  0  0  0  0  0  0  0  0  0  0
  136.7414   71.6031  223.0695 H   0  0  0  0  0  0  0  0  0  0  0  0
  137.8520   73.5630  222.7290 H   0  0  0  0  0  0  0  0  0  0  0  0
  141.7665   73.4917  220.4528 H   0  0  0  0  0  0  0  0  0  0  0  0
  142.7227   75.7677  220.0407 H   0  0  0  0  0  0  0  0  0  0  0  0
  142.6286   78.0910  220.4320 H   0  0  0  0  0  0  0  0  0  0  0  0
  139.5677   79.7234  222.9670 H   0  0  0  0  0  0  0  0  0  0  0  0
  138.6228   77.4746  223.3709 H   0  0  0  0  0  0  0  0  0  0  0  0
  139.1515   69.0427  227.4381 H   0  0  0  0  0  0  0  0  0  0  0  0
  139.4663   70.5014  229.4421 H   0  0  0  0  0  0  0  0  0  0  0  0
  140.9293   72.5111  229.2072 H   0  0  0  0  0  0  0  0  0  0  0  0
  142.0352   73.0593  227.0625 H   0  0  0  0  0  0  0  0  0  0  0  0
  141.6703   71.5704  225.1258 H   0  0  0  0  0  0  0  0  0  0  0  0
  1  2  1  0
  2  3  1  0
  3  4  1  0
  4  5  2  0
  4  6  1  0
  6  7  1  0
  7  8  1  0
  8  9  2  0
  8 10  1  0
 10 11  2  0
 11 12  1  0
 12 13  2  0
 13 14  1  0
 14 15  2  0
 15 16  1  0
 15 17  1  0
 17 18  2  0
 18 19  1  0
 19 20  2  0
  2 21  1  0
 21 22  2  0
 22 23  1  0
 23 24  2  0
 24 25  1  0
 25 26  2  0
 20 10  1  0
 26 21  1  0
 19 13  1  0
  1 27  1  0
  1 28  1  0
  1 29  1  0
  2 30  1  6
  3 31  1  0
  6 32  1  0
  6 33  1  0
  7 34  1  0
 11 35  1  0
 12 36  1  0
 14 37  1  0
 17 38  1  0
 18 39  1  0
 22 40  1  0
 23 41  1  0
 24 42  1  0
 25 43  1  0
 26 44  1  0
M  END
>  <smiles>  (16) 
C[C@@H](NC(=O)CNC(=O)c1ccc2cc(Cl)ccc2n1)c1ccccc1

>  <score_type>  (16) 
oracle

>  <origin>  (16) 
autodockgpu

>  <m_score__min__energy>  (16) 
-8.7899999999999991

>  <m_primary>  (16) 
energy

>  <rmsd>  (16) 
9.751542341955716

>  <m_score__min__rmsd>  (16) 
9.751542341955716

>  <meeko>  (16) 
{"free_energy": -8.17, "intermolecular_energy": -9.66, "internal_energy": -2.05, "cluster_size": 34, "cluster_id": 3, "rank_in_cluster": 6}

>  <energy>  (16) 
-8.18

>  <cluster_rmsd>  (16) 
0.38

>  <cluster>  (16) 
3

$$$$

     RDKit          3D

 44 46  0  0  0  0  0  0  0  0999 V2000
  139.2320   68.0940  225.3420 C   0  0  0  0  0  0  0  0  0  0  0  0
  140.1250   69.2670  225.0300 C   0  0  1  0  0  0  0  0  0  0  0  0
  139.6300   70.0490  223.9130 N   0  0  0  0  0  0  0  0  0  0  0  0
  138.3340   70.5770  223.8530 C   0  0  0  0  0  0  0  0  0  0  0  0
  137.5750   70.3390  224.8590 O   0  0  0  0  0  0  0  0  0  0  0  0
  137.7570   71.3690  222.7680 C   0  0  0  0  0  0  0  0  0  0  0  0
  138.3530   72.6410  222.5220 N   0  0  0  0  0  0  0  0  0  0  0  0
  139.6600   72.8090  221.9810 C   0  0  0  0  0  0  0  0  0  0  0  0
  140.3940   71.8070  221.6720 O   0  0  0  0  0  0  0  0  0  0  0  0
  140.1940   74.1750  221.7670 C   0  0  0  0  0  0  0  0  0  0  0  0
  141.3040   74.3500  220.9680 C   0  0  0  0  0  0  0  0  0  0  0  0
  141.8470   75.6060  220.7330 C   0  0  0  0  0  0  0  0  0  0  0  0
  141.2150   76.6700  221.3430 C   0  0  0  0  0  0  0  0  0  0  0  0
  141.7480   77.9400  221.1180 C   0  0  0  0  0  0  0  0  0  0  0  0
  141.1380   79.0410  221.7170 C   0  0  0  0  0  0  0  0  0  0  0  0
  141.8010   80.6460  221.4390 Cl  0  0  0  0  0  0  0  0  0  0  0  0
  140.0280   78.8350  222.5120 C   0  0  0  0  0  0  0  0  0  0  0  0
  139.4890   77.5870  222.7450 C   0  0  0  0  0  0  0  0  0  0  0  0
  140.1020   76.5040  222.1470 C   0  0  0  0  0  0  0  0  0  0  0  0
  139.6160   75.2490  222.3390 N   0  0  0  0  0  0  0  0  0  0  0  0
  140.3170   70.1640  226.1800 C   0  0  0  0  0  0  0  0  0  0  0  0
  141.1230   71.2650  226.0390 C   0  0  0  0  0  0  0  0  0  0  0  0
  141.3610   72.1650  227.0750 C   0  0  0  0  0  0  0  0  0  0  0  0
  140.7320   71.8970  228.2870 C   0  0  0  0  0  0  0  0  0  0  0  0
  139.9150   70.8070  228.4760 C   0  0  0  0  0  0  0  0  0  0  0  0
  139.7270   69.9610  227.4090 C   0  0  0  0  0  0  0  0  0  0  0  0
  139.1448   67.9794  226.4325 H   0  0  0  0  0  0  0  0  0  0  0  0
  138.2350   68.2672  224.9106 H   0  0  0  0  0  0  0  0  0  0  0  0
  139.6643   67.1791  224.9106 H   0  0  0  0  0  0  0  0  0  0  0  0
  141.0947   68.8198  224.7659 H   0  0  0  0  0  0  0  0  0  0  0  0
  140.2910   70.2180  223.1330 H   0  0  0  0  0  0  0  0  0  0  0  0
  137.8372   70.7780  221.8437 H   0  0  0  0  0  0  0  0  0  0  0  0
  136.7259   71.5868  223.0832 H   0  0  0  0  0  0  0  0  0  0  0  0
  137.8350   73.5460  222.7370 H   0  0  0  0  0  0  0  0  0  0  0  0
  141.7725   73.4697  220.5037 H   0  0  0  0  0  0  0  0  0  0  0  0
  142.7325   75.7452  220.0954 H   0  0  0  0  0  0  0  0  0  0  0  0
  142.6340   78.0699  220.4791 H   0  0  0  0  0  0  0  0  0  0  0  0
  139.5509   79.7077  222.9818 H   0  0  0  0  0  0  0  0  0  0  0  0
  138.6029   77.4591  223.3841 H   0  0  0  0  0  0  0  0  0  0  0  0
  141.6022   71.4449  225.0654 H   0  0  0  0  0  0  0  0  0  0  0  0
  142.0120   73.0417  226.9421 H   0  0  0  0  0  0  0  0  0  0  0  0
  140.8951   72.5857  229.1290 H   0  0  0  0  0  0  0  0  0  0  0  0
  139.4299   70.6191  229.4452 H   0  0  0  0  0  0  0  0  0  0  0  0
  139.0772   69.0835  227.5418 H   0  0  0  0  0  0  0  0  0  0  0  0
  1  2  1  0
  2  3  1  0
  3  4  1  0
  4  5  2  0
  4  6  1  0
  6  7  1  0
  7  8  1  0
  8  9  2  0
  8 10  1  0
 10 11  2  0
 11 12  1  0
 12 13  2  0
 13 14  1  0
 14 15  2  0
 15 16  1  0
 15 17  1  0
 17 18  2  0
 18 19  1  0
 19 20  2  0
  2 21  1  0
 21 22  2  0
 22 23  1  0
 23 24  2  0
 24 25  1  0
 25 26  2  0
 20 10  1  0
 26 21  1  0
 19 13  1  0
  1 27  1  0
  1 28  1  0
  1 29  1  0
  2 30  1  6
  3 31  1  0
  6 32  1  0
  6 33  1  0
  7 34  1  0
 11 35  1  0
 12 36  1  0
 14 37  1  0
 17 38  1  0
 18 39  1  0
 22 40  1  0
 23 41  1  0
 24 42  1  0
 25 43  1  0
 26 44  1  0
M  END
>  <smiles>  (17) 
C[C@@H](NC(=O)CNC(=O)c1ccc2cc(Cl)ccc2n1)c1ccccc1

>  <score_type>  (17) 
oracle

>  <origin>  (17) 
autodockgpu

>  <m_score__min__energy>  (17) 
-8.7899999999999991

>  <m_primary>  (17) 
energy

>  <rmsd>  (17) 
9.941393971300135

>  <m_score__min__rmsd>  (17) 
9.941393971300135

>  <meeko>  (17) 
{"free_energy": -8.14, "intermolecular_energy": -9.63, "internal_energy": -2.07, "cluster_size": 34, "cluster_id": 3, "rank_in_cluster": 27}

>  <energy>  (17) 
-8.17

>  <cluster_rmsd>  (17) 
0.38

>  <cluster>  (17) 
3

$$$$

     RDKit          3D

 44 46  0  0  0  0  0  0  0  0999 V2000
  139.1960   68.1490  225.3780 C   0  0  0  0  0  0  0  0  0  0  0  0
  140.1040   69.3040  225.0470 C   0  0  1  0  0  0  0  0  0  0  0  0
  139.6140   70.0790  223.9220 N   0  0  0  0  0  0  0  0  0  0  0  0
  138.3140   70.5950  223.8470 C   0  0  0  0  0  0  0  0  0  0  0  0
  137.5470   70.3540  224.8450 O   0  0  0  0  0  0  0  0  0  0  0  0
  137.7420   71.3800  222.7540 C   0  0  0  0  0  0  0  0  0  0  0  0
  138.3320   72.6540  222.5090 N   0  0  0  0  0  0  0  0  0  0  0  0
  139.6410   72.8290  221.9730 C   0  0  0  0  0  0  0  0  0  0  0  0
  140.3820   71.8310  221.6690 O   0  0  0  0  0  0  0  0  0  0  0  0
  140.1680   74.1980  221.7590 C   0  0  0  0  0  0  0  0  0  0  0  0
  141.2780   74.3770  220.9600 C   0  0  0  0  0  0  0  0  0  0  0  0
  141.8150   75.6360  220.7250 C   0  0  0  0  0  0  0  0  0  0  0  0
  141.1770   76.6980  221.3350 C   0  0  0  0  0  0  0  0  0  0  0  0
  141.7040   77.9690  221.1090 C   0  0  0  0  0  0  0  0  0  0  0  0
  141.0880   79.0680  221.7070 C   0  0  0  0  0  0  0  0  0  0  0  0
  141.7430   80.6770  221.4290 Cl  0  0  0  0  0  0  0  0  0  0  0  0
  139.9790   78.8570  222.5020 C   0  0  0  0  0  0  0  0  0  0  0  0
  139.4460   77.6060  222.7350 C   0  0  0  0  0  0  0  0  0  0  0  0
  140.0640   76.5260  222.1380 C   0  0  0  0  0  0  0  0  0  0  0  0
  139.5840   75.2690  222.3310 N   0  0  0  0  0  0  0  0  0  0  0  0
  140.3150   70.2130  226.1840 C   0  0  0  0  0  0  0  0  0  0  0  0
  139.6980   69.9420  227.3780 C   0  0  0  0  0  0  0  0  0  0  0  0
  139.8430   70.7500  228.5040 C   0  0  0  0  0  0  0  0  0  0  0  0
  140.6590   71.8690  228.3650 C   0  0  0  0  0  0  0  0  0  0  0  0
  141.2980   72.1810  227.1880 C   0  0  0  0  0  0  0  0  0  0  0  0
  141.1080   71.3390  226.1190 C   0  0  0  0  0  0  0  0  0  0  0  0
  139.1158   68.0470  226.4703 H   0  0  0  0  0  0  0  0  0  0  0  0
  138.1984   68.3333  224.9527 H   0  0  0  0  0  0  0  0  0  0  0  0
  139.6106   67.2231  224.9527 H   0  0  0  0  0  0  0  0  0  0  0  0
  141.0659   68.8394  224.7844 H   0  0  0  0  0  0  0  0  0  0  0  0
  140.2820   70.2520  223.1480 H   0  0  0  0  0  0  0  0  0  0  0  0
  137.8341   70.7864  221.8325 H   0  0  0  0  0  0  0  0  0  0  0  0
  136.7068   71.5926  223.0593 H   0  0  0  0  0  0  0  0  0  0  0  0
  137.8080   73.5570  222.7190 H   0  0  0  0  0  0  0  0  0  0  0  0
  141.7507   73.4986  220.4963 H   0  0  0  0  0  0  0  0  0  0  0  0
  142.7001   75.7794  220.0878 H   0  0  0  0  0  0  0  0  0  0  0  0
  142.5897   78.1024  220.4705 H   0  0  0  0  0  0  0  0  0  0  0  0
  139.4977   79.7275  222.9718 H   0  0  0  0  0  0  0  0  0  0  0  0
  138.5602   77.4741  223.3737 H   0  0  0  0  0  0  0  0  0  0  0  0
  139.0610   69.0481  227.4502 H   0  0  0  0  0  0  0  0  0  0  0  0
  139.3389   70.5157  229.4532 H   0  0  0  0  0  0  0  0  0  0  0  0
  140.7985   72.5310  229.2324 H   0  0  0  0  0  0  0  0  0  0  0  0
  141.9378   73.0720  227.1054 H   0  0  0  0  0  0  0  0  0  0  0  0
  141.6108   71.5736  225.1692 H   0  0  0  0  0  0  0  0  0  0  0  0
  1  2  1  0
  2  3  1  0
  3  4  1  0
  4  5  2  0
  4  6  1  0
  6  7  1  0
  7  8  1  0
  8  9  2  0
  8 10  1  0
 10 11  2  0
 11 12  1  0
 12 13  2  0
 13 14  1  0
 14 15  2  0
 15 16  1  0
 15 17  1  0
 17 18  2  0
 18 19  1  0
 19 20  2  0
  2 21  1  0
 21 22  2  0
 22 23  1  0
 23 24  2  0
 24 25  1  0
 25 26  2  0
 20 10  1  0
 26 21  1  0
 19 13  1  0
  1 27  1  0
  1 28  1  0
  1 29  1  0
  2 30  1  6
  3 31  1  0
  6 32  1  0
  6 33  1  0
  7 34  1  0
 11 35  1  0
 12 36  1  0
 14 37  1  0
 17 38  1  0
 18 39  1  0
 22 40  1  0
 23 41  1  0
 24 42  1  0
 25 43  1  0
 26 44  1  0
M  END
>  <smiles>  (18) 
C[C@@H](NC(=O)CNC(=O)c1ccc2cc(Cl)ccc2n1)c1ccccc1

>  <score_type>  (18) 
oracle

>  <origin>  (18) 
autodockgpu

>  <m_score__min__energy>  (18) 
-8.7899999999999991

>  <m_primary>  (18) 
energy

>  <rmsd>  (18) 
9.75299152879964

>  <m_score__min__rmsd>  (18) 
9.75299152879964

>  <meeko>  (18) 
{"free_energy": -8.16, "intermolecular_energy": -9.65, "internal_energy": -2.05, "cluster_size": 34, "cluster_id": 3, "rank_in_cluster": 21}

>  <energy>  (18) 
-8.17

>  <cluster_rmsd>  (18) 
0.39

>  <cluster>  (18) 
3

$$$$

     RDKit          3D

 44 46  0  0  0  0  0  0  0  0999 V2000
  139.5670   68.0290  225.4870 C   0  0  0  0  0  0  0  0  0  0  0  0
  140.3210   69.3150  225.2720 C   0  0  1  0  0  0  0  0  0  0  0  0
  139.8190   70.0590  224.1320 N   0  0  0  0  0  0  0  0  0  0  0  0
  138.4780   70.4370  223.9870 C   0  0  0  0  0  0  0  0  0  0  0  0
  137.6840   70.0930  224.9320 O   0  0  0  0  0  0  0  0  0  0  0  0
  137.8920   71.1820  222.8740 C   0  0  0  0  0  0  0  0  0  0  0  0
  138.4730   72.4500  222.5800 N   0  0  0  0  0  0  0  0  0  0  0  0
  139.7640   72.6120  221.9980 C   0  0  0  0  0  0  0  0  0  0  0  0
  140.4950   71.6080  221.6940 O   0  0  0  0  0  0  0  0  0  0  0  0
  140.2830   73.9760  221.7370 C   0  0  0  0  0  0  0  0  0  0  0  0
  141.3570   74.1390  220.8880 C   0  0  0  0  0  0  0  0  0  0  0  0
  141.8850   75.3920  220.6060 C   0  0  0  0  0  0  0  0  0  0  0  0
  141.2750   76.4660  221.2230 C   0  0  0  0  0  0  0  0  0  0  0  0
  141.7930   77.7320  220.9510 C   0  0  0  0  0  0  0  0  0  0  0  0
  141.2050   78.8430  221.5540 C   0  0  0  0  0  0  0  0  0  0  0  0
  141.8490   80.4450  221.2180 Cl  0  0  0  0  0  0  0  0  0  0  0  0
  140.1300   78.6490  222.4000 C   0  0  0  0  0  0  0  0  0  0  0  0
  139.6060   77.4040  222.6780 C   0  0  0  0  0  0  0  0  0  0  0  0
  140.1970   76.3120  222.0750 C   0  0  0  0  0  0  0  0  0  0  0  0
  139.7250   75.0590  222.3120 N   0  0  0  0  0  0  0  0  0  0  0  0
  140.3040   70.1950  226.4500 C   0  0  0  0  0  0  0  0  0  0  0  0
  141.0460   71.3480  226.4320 C   0  0  0  0  0  0  0  0  0  0  0  0
  141.0880   72.2370  227.5030 C   0  0  0  0  0  0  0  0  0  0  0  0
  140.3280   71.9020  228.6190 C   0  0  0  0  0  0  0  0  0  0  0  0
  139.5680   70.7570  228.6840 C   0  0  0  0  0  0  0  0  0  0  0  0
  139.5760   69.9260  227.5890 C   0  0  0  0  0  0  0  0  0  0  0  0
  139.4583   67.8436  226.5658 H   0  0  0  0  0  0  0  0  0  0  0  0
  138.5712   68.1063  225.0261 H   0  0  0  0  0  0  0  0  0  0  0  0
  140.1208   67.1978  225.0261 H   0  0  0  0  0  0  0  0  0  0  0  0
  141.3586   69.0038  225.0808 H   0  0  0  0  0  0  0  0  0  0  0  0
  140.5100   70.3190  223.4040 H   0  0  0  0  0  0  0  0  0  0  0  0
  137.9782   70.5580  221.9722 H   0  0  0  0  0  0  0  0  0  0  0  0
  136.8589   71.4002  223.1823 H   0  0  0  0  0  0  0  0  0  0  0  0
  137.9550   73.3580  222.7860 H   0  0  0  0  0  0  0  0  0  0  0  0
  141.8084   73.2514  220.4208 H   0  0  0  0  0  0  0  0  0  0  0  0
  142.7418   75.5217  219.9285 H   0  0  0  0  0  0  0  0  0  0  0  0
  142.6505   77.8518  220.2726 H   0  0  0  0  0  0  0  0  0  0  0  0
  139.6705   79.5289  222.8740 H   0  0  0  0  0  0  0  0  0  0  0  0
  138.7479   77.2854  223.3559 H   0  0  0  0  0  0  0  0  0  0  0  0
  141.6339   71.5809  225.5320 H   0  0  0  0  0  0  0  0  0  0  0  0
  141.6908   73.1564  227.4684 H   0  0  0  0  0  0  0  0  0  0  0  0
  140.3350   72.5803  229.4849 H   0  0  0  0  0  0  0  0  0  0  0  0
  138.9759   70.5155  229.5790 H   0  0  0  0  0  0  0  0  0  0  0  0
  138.9747   69.0055  227.6233 H   0  0  0  0  0  0  0  0  0  0  0  0
  1  2  1  0
  2  3  1  0
  3  4  1  0
  4  5  2  0
  4  6  1  0
  6  7  1  0
  7  8  1  0
  8  9  2  0
  8 10  1  0
 10 11  2  0
 11 12  1  0
 12 13  2  0
 13 14  1  0
 14 15  2  0
 15 16  1  0
 15 17  1  0
 17 18  2  0
 18 19  1  0
 19 20  2  0
  2 21  1  0
 21 22  2  0
 22 23  1  0
 23 24  2  0
 24 25  1  0
 25 26  2  0
 20 10  1  0
 26 21  1  0
 19 13  1  0
  1 27  1  0
  1 28  1  0
  1 29  1  0
  2 30  1  6
  3 31  1  0
  6 32  1  0
  6 33  1  0
  7 34  1  0
 11 35  1  0
 12 36  1  0
 14 37  1  0
 17 38  1  0
 18 39  1  0
 22 40  1  0
 23 41  1  0
 24 42  1  0
 25 43  1  0
 26 44  1  0
M  END
>  <smiles>  (19) 
C[C@@H](NC(=O)CNC(=O)c1ccc2cc(Cl)ccc2n1)c1ccccc1

>  <score_type>  (19) 
oracle

>  <origin>  (19) 
autodockgpu

>  <m_score__min__energy>  (19) 
-8.7899999999999991

>  <m_primary>  (19) 
energy

>  <rmsd>  (19) 
9.969775959605679

>  <m_score__min__rmsd>  (19) 
9.969775959605679

>  <meeko>  (19) 
{"free_energy": -8.16, "intermolecular_energy": -9.65, "internal_energy": -2.05, "cluster_size": 34, "cluster_id": 3, "rank_in_cluster": 18}

>  <energy>  (19) 
-8.17

>  <cluster_rmsd>  (19) 
0.37

>  <cluster>  (19) 
3

$$$$

     RDKit          3D

 44 46  0  0  0  0  0  0  0  0999 V2000
  139.9460   70.3040  223.2610 C   0  0  0  0  0  0  0  0  0  0  0  0
  139.4610   71.1320  224.4220 C   0  0  1  0  0  0  0  0  0  0  0  0
  138.0130   71.1480  224.5150 N   0  0  0  0  0  0  0  0  0  0  0  0
  137.2260   69.9890  224.5090 C   0  0  0  0  0  0  0  0  0  0  0  0
  137.8530   68.8750  224.4190 O   0  0  0  0  0  0  0  0  0  0  0  0
  135.7680   69.9170  224.5950 C   0  0  0  0  0  0  0  0  0  0  0  0
  135.1030   71.0720  225.1030 N   0  0  0  0  0  0  0  0  0  0  0  0
  134.0040   71.0150  226.0080 C   0  0  0  0  0  0  0  0  0  0  0  0
  133.5380   69.9020  226.4330 O   0  0  0  0  0  0  0  0  0  0  0  0
  133.3750   72.2740  226.4750 C   0  0  0  0  0  0  0  0  0  0  0  0
  132.1790   72.2190  227.1600 C   0  0  0  0  0  0  0  0  0  0  0  0
  131.5450   73.3640  227.6200 C   0  0  0  0  0  0  0  0  0  0  0  0
  132.1770   74.5630  227.3550 C   0  0  0  0  0  0  0  0  0  0  0  0
  131.5520   75.7240  227.8100 C   0  0  0  0  0  0  0  0  0  0  0  0
  132.1590   76.9550  227.5620 C   0  0  0  0  0  0  0  0  0  0  0  0
  131.3820   78.4260  228.1320 Cl  0  0  0  0  0  0  0  0  0  0  0  0
  133.3560   76.9790  226.8740 C   0  0  0  0  0  0  0  0  0  0  0  0
  133.9860   75.8400  226.4170 C   0  0  0  0  0  0  0  0  0  0  0  0
  133.3750   74.6280  226.6690 C   0  0  0  0  0  0  0  0  0  0  0  0
  133.9490   73.4700  226.2430 N   0  0  0  0  0  0  0  0  0  0  0  0
  140.0080   70.6870  225.7130 C   0  0  0  0  0  0  0  0  0  0  0  0
  140.1990   69.3470  225.9290 C   0  0  0  0  0  0  0  0  0  0  0  0
  140.7110   68.8400  227.1220 C   0  0  0  0  0  0  0  0  0  0  0  0
  141.0280   69.7690  228.1070 C   0  0  0  0  0  0  0  0  0  0  0  0
  140.8530   71.1230  227.9360 C   0  0  0  0  0  0  0  0  0  0  0  0
  140.3430   71.5510  226.7330 C   0  0  0  0  0  0  0  0  0  0  0  0
  140.4681   69.4127  223.6391 H   0  0  0  0  0  0  0  0  0  0  0  0
  139.0871   69.9934  222.6480 H   0  0  0  0  0  0  0  0  0  0  0  0
  140.6370   70.9013  222.6480 H   0  0  0  0  0  0  0  0  0  0  0  0
  139.8283   72.1481  224.2155 H   0  0  0  0  0  0  0  0  0  0  0  0
  137.5610   72.0780  224.5970 H   0  0  0  0  0  0  0  0  0  0  0  0
  135.3824   69.7276  223.5824 H   0  0  0  0  0  0  0  0  0  0  0  0
  135.5582   69.1173  225.3206 H   0  0  0  0  0  0  0  0  0  0  0  0
  135.4060   72.0530  224.8230 H   0  0  0  0  0  0  0  0  0  0  0  0
  131.7148   71.2394  227.3468 H   0  0  0  0  0  0  0  0  0  0  0  0
  130.5911   73.3193  228.1659 H   0  0  0  0  0  0  0  0  0  0  0  0
  130.5978   75.6697  228.3545 H   0  0  0  0  0  0  0  0  0  0  0  0
  133.8298   77.9528  226.6811 H   0  0  0  0  0  0  0  0  0  0  0  0
  134.9399   75.8955  225.8720 H   0  0  0  0  0  0  0  0  0  0  0  0
  139.9370   68.6417  225.1266 H   0  0  0  0  0  0  0  0  0  0  0  0
  140.8568   67.7607  227.2764 H   0  0  0  0  0  0  0  0  0  0  0  0
  141.4355   69.4064  229.0623 H   0  0  0  0  0  0  0  0  0  0  0  0
  141.1115   71.8366  228.7322 H   0  0  0  0  0  0  0  0  0  0  0  0
  140.1960   72.6301  226.5780 H   0  0  0  0  0  0  0  0  0  0  0  0
  1  2  1  0
  2  3  1  0
  3  4  1  0
  4  5  2  0
  4  6  1  0
  6  7  1  0
  7  8  1  0
  8  9  2  0
  8 10  1  0
 10 11  2  0
 11 12  1  0
 12 13  2  0
 13 14  1  0
 14 15  2  0
 15 16  1  0
 15 17  1  0
 17 18  2  0
 18 19  1  0
 19 20  2  0
  2 21  1  0
 21 22  2  0
 22 23  1  0
 23 24  2  0
 24 25  1  0
 25 26  2  0
 20 10  1  0
 26 21  1  0
 19 13  1  0
  1 27  1  0
  1 28  1  0
  1 29  1  0
  2 30  1  6
  3 31  1  0
  6 32  1  0
  6 33  1  0
  7 34  1  0
 11 35  1  0
 12 36  1  0
 14 37  1  0
 17 38  1  0
 18 39  1  0
 22 40  1  0
 23 41  1  0
 24 42  1  0
 25 43  1  0
 26 44  1  0
M  END
>  <smiles>  (20) 
C[C@@H](NC(=O)CNC(=O)c1ccc2cc(Cl)ccc2n1)c1ccccc1

>  <score_type>  (20) 
oracle

>  <origin>  (20) 
autodockgpu

>  <m_score__min__energy>  (20) 
-8.7899999999999991

>  <m_primary>  (20) 
energy

>  <rmsd>  (20) 
10.45660493047242

>  <m_score__min__rmsd>  (20) 
10.45660493047242

>  <meeko>  (20) 
{"free_energy": -8.49, "intermolecular_energy": -9.99, "internal_energy": -1.13, "cluster_size": 10, "cluster_id": 1, "rank_in_cluster": 4}

>  <energy>  (20) 
-8.17

>  <cluster_rmsd>  (20) 
0.38

>  <cluster>  (20) 
3

$$$$

     RDKit          3D

 44 46  0  0  0  0  0  0  0  0999 V2000
  139.2320   68.1570  225.3780 C   0  0  0  0  0  0  0  0  0  0  0  0
  140.1380   69.3110  225.0380 C   0  0  1  0  0  0  0  0  0  0  0  0
  139.6430   70.0820  223.9130 N   0  0  0  0  0  0  0  0  0  0  0  0
  138.3410   70.5950  223.8420 C   0  0  0  0  0  0  0  0  0  0  0  0
  137.5780   70.3540  224.8430 O   0  0  0  0  0  0  0  0  0  0  0  0
  137.7640   71.3750  222.7490 C   0  0  0  0  0  0  0  0  0  0  0  0
  138.3520   72.6490  222.4970 N   0  0  0  0  0  0  0  0  0  0  0  0
  139.6590   72.8230  221.9580 C   0  0  0  0  0  0  0  0  0  0  0  0
  140.4020   71.8250  221.6590 O   0  0  0  0  0  0  0  0  0  0  0  0
  140.1840   74.1920  221.7380 C   0  0  0  0  0  0  0  0  0  0  0  0
  141.2910   74.3700  220.9340 C   0  0  0  0  0  0  0  0  0  0  0  0
  141.8260   75.6280  220.6920 C   0  0  0  0  0  0  0  0  0  0  0  0
  141.1880   76.6920  221.3010 C   0  0  0  0  0  0  0  0  0  0  0  0
  141.7130   77.9630  221.0680 C   0  0  0  0  0  0  0  0  0  0  0  0
  141.0990   79.0630  221.6650 C   0  0  0  0  0  0  0  0  0  0  0  0
  141.7510   80.6710  221.3780 Cl  0  0  0  0  0  0  0  0  0  0  0  0
  139.9920   78.8540  222.4640 C   0  0  0  0  0  0  0  0  0  0  0  0
  139.4610   77.6030  222.7040 C   0  0  0  0  0  0  0  0  0  0  0  0
  140.0790   76.5220  222.1080 C   0  0  0  0  0  0  0  0  0  0  0  0
  139.6010   75.2640  222.3070 N   0  0  0  0  0  0  0  0  0  0  0  0
  140.3560   70.2240  226.1710 C   0  0  0  0  0  0  0  0  0  0  0  0
  139.7360   69.9630  227.3660 C   0  0  0  0  0  0  0  0  0  0  0  0
  139.8860   70.7760  228.4880 C   0  0  0  0  0  0  0  0  0  0  0  0
  140.7110   71.8870  228.3450 C   0  0  0  0  0  0  0  0  0  0  0  0
  141.3540   72.1890  227.1670 C   0  0  0  0  0  0  0  0  0  0  0  0
  141.1580   71.3420  226.1010 C   0  0  0  0  0  0  0  0  0  0  0  0
  139.1560   68.0602  226.4711 H   0  0  0  0  0  0  0  0  0  0  0  0
  138.2327   68.3386  224.9556 H   0  0  0  0  0  0  0  0  0  0  0  0
  139.6456   67.2293  224.9556 H   0  0  0  0  0  0  0  0  0  0  0  0
  141.0981   68.8450  224.7716 H   0  0  0  0  0  0  0  0  0  0  0  0
  140.3080   70.2550  223.1370 H   0  0  0  0  0  0  0  0  0  0  0  0
  137.8529   70.7781  221.8293 H   0  0  0  0  0  0  0  0  0  0  0  0
  136.7298   71.5877  223.0576 H   0  0  0  0  0  0  0  0  0  0  0  0
  137.8260   73.5520  222.7030 H   0  0  0  0  0  0  0  0  0  0  0  0
  141.7629   73.4905  220.4718 H   0  0  0  0  0  0  0  0  0  0  0  0
  142.7087   75.7700  220.0511 H   0  0  0  0  0  0  0  0  0  0  0  0
  142.5955   78.0950  220.4248 H   0  0  0  0  0  0  0  0  0  0  0  0
  139.5108   79.7259  222.9312 H   0  0  0  0  0  0  0  0  0  0  0  0
  138.5778   77.4721  223.3465 H   0  0  0  0  0  0  0  0  0  0  0  0
  139.0928   69.0739  227.4422 H   0  0  0  0  0  0  0  0  0  0  0  0
  139.3783   70.5509  229.4375 H   0  0  0  0  0  0  0  0  0  0  0  0
  140.8551   72.5515  229.2097 H   0  0  0  0  0  0  0  0  0  0  0  0
  142.0007   73.0746  227.0807 H   0  0  0  0  0  0  0  0  0  0  0  0
  141.6640   71.5673  225.1506 H   0  0  0  0  0  0  0  0  0  0  0  0
  1  2  1  0
  2  3  1  0
  3  4  1  0
  4  5  2  0
  4  6  1  0
  6  7  1  0
  7  8  1  0
  8  9  2  0
  8 10  1  0
 10 11  2  0
 11 12  1  0
 12 13  2  0
 13 14  1  0
 14 15  2  0
 15 16  1  0
 15 17  1  0
 17 18  2  0
 18 19  1  0
 19 20  2  0
  2 21  1  0
 21 22  2  0
 22 23  1  0
 23 24  2  0
 24 25  1  0
 25 26  2  0
 20 10  1  0
 26 21  1  0
 19 13  1  0
  1 27  1  0
  1 28  1  0
  1 29  1  0
  2 30  1  6
  3 31  1  0
  6 32  1  0
  6 33  1  0
  7 34  1  0
 11 35  1  0
 12 36  1  0
 14 37  1  0
 17 38  1  0
 18 39  1  0
 22 40  1  0
 23 41  1  0
 24 42  1  0
 25 43  1  0
 26 44  1  0
M  END
>  <smiles>  (21) 
C[C@@H](NC(=O)CNC(=O)c1ccc2cc(Cl)ccc2n1)c1ccccc1

>  <score_type>  (21) 
oracle

>  <origin>  (21) 
autodockgpu

>  <m_score__min__energy>  (21) 
-8.7899999999999991

>  <m_primary>  (21) 
energy

>  <rmsd>  (21) 
9.746059514030351

>  <m_score__min__rmsd>  (21) 
9.746059514030351

>  <meeko>  (21) 
{"free_energy": -8.17, "intermolecular_energy": -9.66, "internal_energy": -2.05, "cluster_size": 34, "cluster_id": 3, "rank_in_cluster": 9}

>  <energy>  (21) 
-8.17

>  <cluster_rmsd>  (21) 
0.38

>  <cluster>  (21) 
3

$$$$

     RDKit          3D

 44 46  0  0  0  0  0  0  0  0999 V2000
  139.2410   68.0540  225.2940 C   0  0  0  0  0  0  0  0  0  0  0  0
  139.6020   69.4550  224.8750 C   0  0  1  0  0  0  0  0  0  0  0  0
  138.4820   70.1490  224.2670 N   0  0  0  0  0  0  0  0  0  0  0  0
  138.6130   71.0220  223.1800 C   0  0  0  0  0  0  0  0  0  0  0  0
  139.7990   71.1880  222.7220 O   0  0  0  0  0  0  0  0  0  0  0  0
  137.5420   71.7610  222.5130 C   0  0  0  0  0  0  0  0  0  0  0  0
  136.6310   72.4620  223.3560 N   0  0  0  0  0  0  0  0  0  0  0  0
  135.6470   71.8190  224.1620 C   0  0  0  0  0  0  0  0  0  0  0  0
  135.5190   70.5460  224.1810 O   0  0  0  0  0  0  0  0  0  0  0  0
  134.7400   72.6380  225.0020 C   0  0  0  0  0  0  0  0  0  0  0  0
  133.7410   72.0170  225.7220 C   0  0  0  0  0  0  0  0  0  0  0  0
  132.8640   72.7320  226.5250 C   0  0  0  0  0  0  0  0  0  0  0  0
  133.0450   74.1010  226.5620 C   0  0  0  0  0  0  0  0  0  0  0  0
  132.1710   74.8350  227.3640 C   0  0  0  0  0  0  0  0  0  0  0  0
  132.3220   76.2200  227.4290 C   0  0  0  0  0  0  0  0  0  0  0  0
  131.2260   77.1560  228.4370 Cl  0  0  0  0  0  0  0  0  0  0  0  0
  133.3300   76.8140  226.6960 C   0  0  0  0  0  0  0  0  0  0  0  0
  134.2020   76.1020  225.8990 C   0  0  0  0  0  0  0  0  0  0  0  0
  134.0430   74.7320  225.8430 C   0  0  0  0  0  0  0  0  0  0  0  0
  134.8730   73.9760  225.0740 N   0  0  0  0  0  0  0  0  0  0  0  0
  140.1130   70.2730  225.9850 C   0  0  0  0  0  0  0  0  0  0  0  0
  140.8870   71.3690  225.7040 C   0  0  0  0  0  0  0  0  0  0  0  0
  141.4130   72.1970  226.6940 C   0  0  0  0  0  0  0  0  0  0  0  0
  141.1120   71.8600  228.0100 C   0  0  0  0  0  0  0  0  0  0  0  0
  140.3400   70.7710  228.3410 C   0  0  0  0  0  0  0  0  0  0  0  0
  139.8560   69.9990  227.3110 C   0  0  0  0  0  0  0  0  0  0  0  0
  139.2251   67.9923  226.3922 H   0  0  0  0  0  0  0  0  0  0  0  0
  138.2474   67.7974  224.8979 H   0  0  0  0  0  0  0  0  0  0  0  0
  139.9869   67.3491  224.8979 H   0  0  0  0  0  0  0  0  0  0  0  0
  140.4043   69.3289  224.1331 H   0  0  0  0  0  0  0  0  0  0  0  0
  137.5450   69.9680  224.6720 H   0  0  0  0  0  0  0  0  0  0  0  0
  138.0109   72.4968  221.8431 H   0  0  0  0  0  0  0  0  0  0  0  0
  136.9367   70.9977  222.0021 H   0  0  0  0  0  0  0  0  0  0  0  0
  136.6460   73.5240  223.4250 H   0  0  0  0  0  0  0  0  0  0  0  0
  133.6365   70.9239  225.6578 H   0  0  0  0  0  0  0  0  0  0  0  0
  132.0684   72.2361  227.1004 H   0  0  0  0  0  0  0  0  0  0  0  0
  131.3773   74.3307  227.9347 H   0  0  0  0  0  0  0  0  0  0  0  0
  133.4430   77.9068  226.7502 H   0  0  0  0  0  0  0  0  0  0  0  0
  134.9953   76.6076  225.3288 H   0  0  0  0  0  0  0  0  0  0  0  0
  141.1022   71.6052  224.6514 H   0  0  0  0  0  0  0  0  0  0  0  0
  142.0336   73.0712  226.4479 H   0  0  0  0  0  0  0  0  0  0  0  0
  141.5080   72.4909  228.8194 H   0  0  0  0  0  0  0  0  0  0  0  0
  140.1180   70.5267  229.3903 H   0  0  0  0  0  0  0  0  0  0  0  0
  139.2362   69.1240  227.5563 H   0  0  0  0  0  0  0  0  0  0  0  0
  1  2  1  0
  2  3  1  0
  3  4  1  0
  4  5  2  0
  4  6  1  0
  6  7  1  0
  7  8  1  0
  8  9  2  0
  8 10  1  0
 10 11  2  0
 11 12  1  0
 12 13  2  0
 13 14  1  0
 14 15  2  0
 15 16  1  0
 15 17  1  0
 17 18  2  0
 18 19  1  0
 19 20  2  0
  2 21  1  0
 21 22  2  0
 22 23  1  0
 23 24  2  0
 24 25  1  0
 25 26  2  0
 20 10  1  0
 26 21  1  0
 19 13  1  0
  1 27  1  0
  1 28  1  0
  1 29  1  0
  2 30  1  6
  3 31  1  0
  6 32  1  0
  6 33  1  0
  7 34  1  0
 11 35  1  0
 12 36  1  0
 14 37  1  0
 17 38  1  0
 18 39  1  0
 22 40  1  0
 23 41  1  0
 24 42  1  0
 25 43  1  0
 26 44  1  0
M  END
>  <smiles>  (22) 
C[C@@H](NC(=O)CNC(=O)c1ccc2cc(Cl)ccc2n1)c1ccccc1

>  <score_type>  (22) 
oracle

>  <origin>  (22) 
autodockgpu

>  <m_score__min__energy>  (22) 
-8.7899999999999991

>  <m_primary>  (22) 
energy

>  <rmsd>  (22) 
10.112503478238262

>  <m_score__min__rmsd>  (22) 
10.112503478238262

>  <meeko>  (22) 
{"free_energy": -7.77, "intermolecular_energy": -9.26, "internal_energy": -2.08, "cluster_size": 10, "cluster_id": 1, "rank_in_cluster": 9}

>  <energy>  (22) 
-8.17

>  <cluster_rmsd>  (22) 
0.09

>  <cluster>  (22) 
3

$$$$

     RDKit          3D

 44 46  0  0  0  0  0  0  0  0999 V2000
  138.1910   70.3050  224.3100 C   0  0  0  0  0  0  0  0  0  0  0  0
  139.6510   70.6680  224.3840 C   0  0  1  0  0  0  0  0  0  0  0  0
  139.9480   71.8910  223.6620 N   0  0  0  0  0  0  0  0  0  0  0  0
  140.1750   71.9370  222.2810 C   0  0  0  0  0  0  0  0  0  0  0  0
  140.1030   70.8210  221.6540 O   0  0  0  0  0  0  0  0  0  0  0  0
  140.4810   73.1210  221.4800 C   0  0  0  0  0  0  0  0  0  0  0  0
  140.0690   74.3760  222.0160 N   0  0  0  0  0  0  0  0  0  0  0  0
  140.6830   75.6180  221.6810 C   0  0  0  0  0  0  0  0  0  0  0  0
  141.6600   75.6850  220.8570 O   0  0  0  0  0  0  0  0  0  0  0  0
  140.1850   76.8710  222.2980 C   0  0  0  0  0  0  0  0  0  0  0  0
  141.0900   77.7860  222.7930 C   0  0  0  0  0  0  0  0  0  0  0  0
  140.6810   78.9760  223.3800 C   0  0  0  0  0  0  0  0  0  0  0  0
  139.3190   79.1910  223.4430 C   0  0  0  0  0  0  0  0  0  0  0  0
  138.8910   80.3820  224.0310 C   0  0  0  0  0  0  0  0  0  0  0  0
  137.5220   80.6370  224.1130 C   0  0  0  0  0  0  0  0  0  0  0  0
  136.9710   82.1350  224.8520 Cl  0  0  0  0  0  0  0  0  0  0  0  0
  136.6400   79.7010  223.6090 C   0  0  0  0  0  0  0  0  0  0  0  0
  137.0470   78.5200  223.0250 C   0  0  0  0  0  0  0  0  0  0  0  0
  138.4050   78.2790  222.9500 C   0  0  0  0  0  0  0  0  0  0  0  0
  138.8660   77.1310  222.3840 N   0  0  0  0  0  0  0  0  0  0  0  0
  140.1390   70.8090  225.7650 C   0  0  0  0  0  0  0  0  0  0  0  0
  140.8970   71.9030  226.0950 C   0  0  0  0  0  0  0  0  0  0  0  0
  141.4000   72.1140  227.3770 C   0  0  0  0  0  0  0  0  0  0  0  0
  141.0930   71.1500  228.3320 C   0  0  0  0  0  0  0  0  0  0  0  0
  140.3360   70.0370  228.0480 C   0  0  0  0  0  0  0  0  0  0  0  0
  139.8750   69.8940  226.7610 C   0  0  0  0  0  0  0  0  0  0  0  0
  137.7861   70.2043  225.3278 H   0  0  0  0  0  0  0  0  0  0  0  0
  137.6436   71.0944  223.7741 H   0  0  0  0  0  0  0  0  0  0  0  0
  138.0770   69.3512  223.7741 H   0  0  0  0  0  0  0  0  0  0  0  0
  140.1744   69.8244  223.9103 H   0  0  0  0  0  0  0  0  0  0  0  0
  139.9820   72.7650  224.2190 H   0  0  0  0  0  0  0  0  0  0  0  0
  141.5717   73.1584  221.3422 H   0  0  0  0  0  0  0  0  0  0  0  0
  139.9066   72.9993  220.5498 H   0  0  0  0  0  0  0  0  0  0  0  0
  139.2630   74.4450  222.7090 H   0  0  0  0  0  0  0  0  0  0  0  0
  142.1656   77.5672  222.7209 H   0  0  0  0  0  0  0  0  0  0  0  0
  141.4027   79.7071  223.7732 H   0  0  0  0  0  0  0  0  0  0  0  0
  139.6200   81.1066  224.4228 H   0  0  0  0  0  0  0  0  0  0  0  0
  135.5617   79.9075  223.6767 H   0  0  0  0  0  0  0  0  0  0  0  0
  136.3170   77.7964  222.6332 H   0  0  0  0  0  0  0  0  0  0  0  0
  141.1174   72.6458  225.3141 H   0  0  0  0  0  0  0  0  0  0  0  0
  142.0084   72.9972  227.6215 H   0  0  0  0  0  0  0  0  0  0  0  0
  141.4711   71.2833  229.3563 H   0  0  0  0  0  0  0  0  0  0  0  0
  140.1081   69.2894  228.8220 H   0  0  0  0  0  0  0  0  0  0  0  0
  139.2684   69.0099  226.5152 H   0  0  0  0  0  0  0  0  0  0  0  0
  1  2  1  0
  2  3  1  0
  3  4  1  0
  4  5  2  0
  4  6  1  0
  6  7  1  0
  7  8  1  0
  8  9  2  0
  8 10  1  0
 10 11  2  0
 11 12  1  0
 12 13  2  0
 13 14  1  0
 14 15  2  0
 15 16  1  0
 15 17  1  0
 17 18  2  0
 18 19  1  0
 19 20  2  0
  2 21  1  0
 21 22  2  0
 22 23  1  0
 23 24  2  0
 24 25  1  0
 25 26  2  0
 20 10  1  0
 26 21  1  0
 19 13  1  0
  1 27  1  0
  1 28  1  0
  1 29  1  0
  2 30  1  6
  3 31  1  0
  6 32  1  0
  6 33  1  0
  7 34  1  0
 11 35  1  0
 12 36  1  0
 14 37  1  0
 17 38  1  0
 18 39  1  0
 22 40  1  0
 23 41  1  0
 24 42  1  0
 25 43  1  0
 26 44  1  0
M  END
>  <smiles>  (23) 
C[C@@H](NC(=O)CNC(=O)c1ccc2cc(Cl)ccc2n1)c1ccccc1

>  <score_type>  (23) 
oracle

>  <origin>  (23) 
autodockgpu

>  <m_score__min__energy>  (23) 
-8.7899999999999991

>  <m_primary>  (23) 
energy

>  <rmsd>  (23) 
9.676482194709074

>  <m_score__min__rmsd>  (23) 
9.676482194709074

>  <meeko>  (23) 
{"free_energy": -8.3, "intermolecular_energy": -9.79, "internal_energy": -0.97, "cluster_size": 2, "cluster_id": 2, "rank_in_cluster": 1}

>  <energy>  (23) 
-8.17

>  <cluster_rmsd>  (23) 
0.38

>  <cluster>  (23) 
3

$$$$

     RDKit          3D

 44 46  0  0  0  0  0  0  0  0999 V2000
  139.2680   68.1480  225.3750 C   0  0  0  0  0  0  0  0  0  0  0  0
  140.1760   69.2990  225.0310 C   0  0  1  0  0  0  0  0  0  0  0  0
  139.6780   70.0720  223.9090 N   0  0  0  0  0  0  0  0  0  0  0  0
  138.3810   70.5970  223.8480 C   0  0  0  0  0  0  0  0  0  0  0  0
  137.6250   70.3650  224.8560 O   0  0  0  0  0  0  0  0  0  0  0  0
  137.8010   71.3810  222.7590 C   0  0  0  0  0  0  0  0  0  0  0  0
  138.3930   72.6530  222.5050 N   0  0  0  0  0  0  0  0  0  0  0  0
  139.6980   72.8230  221.9590 C   0  0  0  0  0  0  0  0  0  0  0  0
  140.4340   71.8220  221.6520 O   0  0  0  0  0  0  0  0  0  0  0  0
  140.2270   74.1900  221.7370 C   0  0  0  0  0  0  0  0  0  0  0  0
  141.3300   74.3640  220.9280 C   0  0  0  0  0  0  0  0  0  0  0  0
  141.8680   75.6210  220.6850 C   0  0  0  0  0  0  0  0  0  0  0  0
  141.2390   76.6860  221.2980 C   0  0  0  0  0  0  0  0  0  0  0  0
  141.7680   77.9550  221.0650 C   0  0  0  0  0  0  0  0  0  0  0  0
  141.1610   79.0580  221.6670 C   0  0  0  0  0  0  0  0  0  0  0  0
  141.8180   80.6630  221.3790 Cl  0  0  0  0  0  0  0  0  0  0  0  0
  140.0580   78.8510  222.4720 C   0  0  0  0  0  0  0  0  0  0  0  0
  139.5240   77.6030  222.7120 C   0  0  0  0  0  0  0  0  0  0  0  0
  140.1340   76.5190  222.1120 C   0  0  0  0  0  0  0  0  0  0  0  0
  139.6520   75.2640  222.3120 N   0  0  0  0  0  0  0  0  0  0  0  0
  140.4030   70.2100  226.1630 C   0  0  0  0  0  0  0  0  0  0  0  0
  139.7940   69.9470  227.3630 C   0  0  0  0  0  0  0  0  0  0  0  0
  139.9530   70.7570  228.4850 C   0  0  0  0  0  0  0  0  0  0  0  0
  140.7750   71.8700  228.3370 C   0  0  0  0  0  0  0  0  0  0  0  0
  141.4070   72.1740  227.1540 C   0  0  0  0  0  0  0  0  0  0  0  0
  141.2030   71.3300  226.0890 C   0  0  0  0  0  0  0  0  0  0  0  0
  139.1936   68.0537  226.4684 H   0  0  0  0  0  0  0  0  0  0  0  0
  138.2684   68.3310  224.9539 H   0  0  0  0  0  0  0  0  0  0  0  0
  139.6787   67.2185  224.9539 H   0  0  0  0  0  0  0  0  0  0  0  0
  141.1332   68.8301  224.7594 H   0  0  0  0  0  0  0  0  0  0  0  0
  140.3380   70.2380  223.1270 H   0  0  0  0  0  0  0  0  0  0  0  0
  137.8821   70.7848  221.8381 H   0  0  0  0  0  0  0  0  0  0  0  0
  136.7696   71.5978  223.0739 H   0  0  0  0  0  0  0  0  0  0  0  0
  137.8730   73.5580  222.7170 H   0  0  0  0  0  0  0  0  0  0  0  0
  141.7964   73.4832  220.4625 H   0  0  0  0  0  0  0  0  0  0  0  0
  142.7475   75.7604  220.0392 H   0  0  0  0  0  0  0  0  0  0  0  0
  142.6482   78.0843  220.4181 H   0  0  0  0  0  0  0  0  0  0  0  0
  139.5830   79.7236  222.9441 H   0  0  0  0  0  0  0  0  0  0  0  0
  138.6433   77.4751  223.3585 H   0  0  0  0  0  0  0  0  0  0  0  0
  139.1518   69.0575  227.4432 H   0  0  0  0  0  0  0  0  0  0  0  0
  139.4546   70.5287  229.4386 H   0  0  0  0  0  0  0  0  0  0  0  0
  140.9254   72.5336  229.2013 H   0  0  0  0  0  0  0  0  0  0  0  0
  142.0522   73.0603  227.0636 H   0  0  0  0  0  0  0  0  0  0  0  0
  141.7003   71.5584  225.1348 H   0  0  0  0  0  0  0  0  0  0  0  0
  1  2  1  0
  2  3  1  0
  3  4  1  0
  4  5  2  0
  4  6  1  0
  6  7  1  0
  7  8  1  0
  8  9  2  0
  8 10  1  0
 10 11  2  0
 11 12  1  0
 12 13  2  0
 13 14  1  0
 14 15  2  0
 15 16  1  0
 15 17  1  0
 17 18  2  0
 18 19  1  0
 19 20  2  0
  2 21  1  0
 21 22  2  0
 22 23  1  0
 23 24  2  0
 24 25  1  0
 25 26  2  0
 20 10  1  0
 26 21  1  0
 19 13  1  0
  1 27  1  0
  1 28  1  0
  1 29  1  0
  2 30  1  6
  3 31  1  0
  6 32  1  0
  6 33  1  0
  7 34  1  0
 11 35  1  0
 12 36  1  0
 14 37  1  0
 17 38  1  0
 18 39  1  0
 22 40  1  0
 23 41  1  0
 24 42  1  0
 25 43  1  0
 26 44  1  0
M  END
>  <smiles>  (24) 
C[C@@H](NC(=O)CNC(=O)c1ccc2cc(Cl)ccc2n1)c1ccccc1

>  <score_type>  (24) 
oracle

>  <origin>  (24) 
autodockgpu

>  <m_score__min__energy>  (24) 
-8.7899999999999991

>  <m_primary>  (24) 
energy

>  <rmsd>  (24) 
9.751408112935986

>  <m_score__min__rmsd>  (24) 
9.751408112935986

>  <meeko>  (24) 
{"free_energy": -8.17, "intermolecular_energy": -9.66, "internal_energy": -2.05, "cluster_size": 34, "cluster_id": 3, "rank_in_cluster": 12}

>  <energy>  (24) 
-8.17

>  <cluster_rmsd>  (24) 
0.37

>  <cluster>  (24) 
3

$$$$

     RDKit          3D

 44 46  0  0  0  0  0  0  0  0999 V2000
  139.2120   68.1610  225.3520 C   0  0  0  0  0  0  0  0  0  0  0  0
  140.1320   69.3030  225.0120 C   0  0  1  0  0  0  0  0  0  0  0  0
  139.6400   70.0880  223.8950 N   0  0  0  0  0  0  0  0  0  0  0  0
  138.3360   70.5960  223.8240 C   0  0  0  0  0  0  0  0  0  0  0  0
  137.5690   70.3370  224.8170 O   0  0  0  0  0  0  0  0  0  0  0  0
  137.7610   71.3900  222.7400 C   0  0  0  0  0  0  0  0  0  0  0  0
  138.3560   72.6640  222.4990 N   0  0  0  0  0  0  0  0  0  0  0  0
  139.6580   72.8360  221.9460 C   0  0  0  0  0  0  0  0  0  0  0  0
  140.3880   71.8370  221.6220 O   0  0  0  0  0  0  0  0  0  0  0  0
  140.1900   74.2040  221.7400 C   0  0  0  0  0  0  0  0  0  0  0  0
  141.3010   74.3840  220.9430 C   0  0  0  0  0  0  0  0  0  0  0  0
  141.8430   75.6410  220.7130 C   0  0  0  0  0  0  0  0  0  0  0  0
  141.2080   76.7030  221.3280 C   0  0  0  0  0  0  0  0  0  0  0  0
  141.7400   77.9730  221.1090 C   0  0  0  0  0  0  0  0  0  0  0  0
  141.1280   79.0720  221.7120 C   0  0  0  0  0  0  0  0  0  0  0  0
  141.7890   80.6790  221.4420 Cl  0  0  0  0  0  0  0  0  0  0  0  0
  140.0170   78.8610  222.5050 C   0  0  0  0  0  0  0  0  0  0  0  0
  139.4790   77.6110  222.7310 C   0  0  0  0  0  0  0  0  0  0  0  0
  140.0940   76.5310  222.1290 C   0  0  0  0  0  0  0  0  0  0  0  0
  139.6090   75.2750  222.3160 N   0  0  0  0  0  0  0  0  0  0  0  0
  140.3730   70.2050  226.1480 C   0  0  0  0  0  0  0  0  0  0  0  0
  139.7890   69.9260  227.3570 C   0  0  0  0  0  0  0  0  0  0  0  0
  139.9630   70.7270  228.4830 C   0  0  0  0  0  0  0  0  0  0  0  0
  140.7730   71.8480  228.3300 C   0  0  0  0  0  0  0  0  0  0  0  0
  141.3800   72.1680  227.1380 C   0  0  0  0  0  0  0  0  0  0  0  0
  141.1630   71.3320  226.0690 C   0  0  0  0  0  0  0  0  0  0  0  0
  139.1349   68.0653  226.4451 H   0  0  0  0  0  0  0  0  0  0  0  0
  138.2150   68.3551  224.9297 H   0  0  0  0  0  0  0  0  0  0  0  0
  139.6139   67.2282  224.9297 H   0  0  0  0  0  0  0  0  0  0  0  0
  141.0830   68.8244  224.7354 H   0  0  0  0  0  0  0  0  0  0  0  0
  140.3090   70.2760  223.1260 H   0  0  0  0  0  0  0  0  0  0  0  0
  137.8445   70.8017  221.8143 H   0  0  0  0  0  0  0  0  0  0  0  0
  136.7287   71.6055  223.0531 H   0  0  0  0  0  0  0  0  0  0  0  0
  137.8400   73.5670  222.7260 H   0  0  0  0  0  0  0  0  0  0  0  0
  141.7712   73.5060  220.4760 H   0  0  0  0  0  0  0  0  0  0  0  0
  142.7288   75.7838  220.0766 H   0  0  0  0  0  0  0  0  0  0  0  0
  142.6268   78.1060  220.4719 H   0  0  0  0  0  0  0  0  0  0  0  0
  139.5385   79.7308  222.9788 H   0  0  0  0  0  0  0  0  0  0  0  0
  138.5919   77.4793  223.3679 H   0  0  0  0  0  0  0  0  0  0  0  0
  139.1556   69.0306  227.4411 H   0  0  0  0  0  0  0  0  0  0  0  0
  139.4847   70.4859  229.4438 H   0  0  0  0  0  0  0  0  0  0  0  0
  140.9344   72.5048  229.1975 H   0  0  0  0  0  0  0  0  0  0  0  0
  142.0160   73.0605  227.0437 H   0  0  0  0  0  0  0  0  0  0  0  0
  141.6408   71.5728  225.1079 H   0  0  0  0  0  0  0  0  0  0  0  0
  1  2  1  0
  2  3  1  0
  3  4  1  0
  4  5  2  0
  4  6  1  0
  6  7  1  0
  7  8  1  0
  8  9  2  0
  8 10  1  0
 10 11  2  0
 11 12  1  0
 12 13  2  0
 13 14  1  0
 14 15  2  0
 15 16  1  0
 15 17  1  0
 17 18  2  0
 18 19  1  0
 19 20  2  0
  2 21  1  0
 21 22  2  0
 22 23  1  0
 23 24  2  0
 24 25  1  0
 25 26  2  0
 20 10  1  0
 26 21  1  0
 19 13  1  0
  1 27  1  0
  1 28  1  0
  1 29  1  0
  2 30  1  6
  3 31  1  0
  6 32  1  0
  6 33  1  0
  7 34  1  0
 11 35  1  0
 12 36  1  0
 14 37  1  0
 17 38  1  0
 18 39  1  0
 22 40  1  0
 23 41  1  0
 24 42  1  0
 25 43  1  0
 26 44  1  0
M  END
>  <smiles>  (25) 
C[C@@H](NC(=O)CNC(=O)c1ccc2cc(Cl)ccc2n1)c1ccccc1

>  <score_type>  (25) 
oracle

>  <origin>  (25) 
autodockgpu

>  <m_score__min__energy>  (25) 
-8.7899999999999991

>  <m_primary>  (25) 
energy

>  <rmsd>  (25) 
9.750779161388381

>  <m_score__min__rmsd>  (25) 
9.750779161388381

>  <meeko>  (25) 
{"free_energy": -8.17, "intermolecular_energy": -9.66, "internal_energy": -2.04, "cluster_size": 34, "cluster_id": 3, "rank_in_cluster": 13}

>  <energy>  (25) 
-8.17

>  <cluster_rmsd>  (25) 
0.4

>  <cluster>  (25) 
3

$$$$

     RDKit          3D

 44 46  0  0  0  0  0  0  0  0999 V2000
  139.9360   70.3070  223.2380 C   0  0  0  0  0  0  0  0  0  0  0  0
  139.4440   71.1340  224.3970 C   0  0  1  0  0  0  0  0  0  0  0  0
  137.9950   71.1680  224.4690 N   0  0  0  0  0  0  0  0  0  0  0  0
  137.1930   70.0200  224.4250 C   0  0  0  0  0  0  0  0  0  0  0  0
  137.8060   68.9000  224.3200 O   0  0  0  0  0  0  0  0  0  0  0  0
  135.7340   69.9670  224.4890 C   0  0  0  0  0  0  0  0  0  0  0  0
  135.0760   71.1180  225.0130 N   0  0  0  0  0  0  0  0  0  0  0  0
  134.0410   71.0600  225.9910 C   0  0  0  0  0  0  0  0  0  0  0  0
  133.6310   69.9470  226.4710 O   0  0  0  0  0  0  0  0  0  0  0  0
  133.4140   72.3150  226.4690 C   0  0  0  0  0  0  0  0  0  0  0  0
  132.2330   72.2540  227.1780 C   0  0  0  0  0  0  0  0  0  0  0  0
  131.6020   73.3970  227.6500 C   0  0  0  0  0  0  0  0  0  0  0  0
  132.2220   74.5980  227.3710 C   0  0  0  0  0  0  0  0  0  0  0  0
  131.6010   75.7570  227.8380 C   0  0  0  0  0  0  0  0  0  0  0  0
  132.1950   76.9910  227.5770 C   0  0  0  0  0  0  0  0  0  0  0  0
  131.4220   78.4580  228.1620 Cl  0  0  0  0  0  0  0  0  0  0  0  0
  133.3780   77.0210  226.8640 C   0  0  0  0  0  0  0  0  0  0  0  0
  134.0050   75.8850  226.3960 C   0  0  0  0  0  0  0  0  0  0  0  0
  133.4060   74.6690  226.6610 C   0  0  0  0  0  0  0  0  0  0  0  0
  133.9770   73.5150  226.2240 N   0  0  0  0  0  0  0  0  0  0  0  0
  139.9660   70.6750  225.6930 C   0  0  0  0  0  0  0  0  0  0  0  0
  140.0850   69.3280  225.9250 C   0  0  0  0  0  0  0  0  0  0  0  0
  140.5690   68.8080  227.1230 C   0  0  0  0  0  0  0  0  0  0  0  0
  140.9360   69.7300  228.0980 C   0  0  0  0  0  0  0  0  0  0  0  0
  140.8350   71.0890  227.9120 C   0  0  0  0  0  0  0  0  0  0  0  0
  140.3490   71.5300  226.7040 C   0  0  0  0  0  0  0  0  0  0  0  0
  140.4637   69.4200  223.6184 H   0  0  0  0  0  0  0  0  0  0  0  0
  139.0799   69.9894  222.6247 H   0  0  0  0  0  0  0  0  0  0  0  0
  140.6237   70.9078  222.6247 H   0  0  0  0  0  0  0  0  0  0  0  0
  139.8271   72.1465  224.2018 H   0  0  0  0  0  0  0  0  0  0  0  0
  137.5550   72.1010  224.5660 H   0  0  0  0  0  0  0  0  0  0  0  0
  135.3607   69.8055  223.4669 H   0  0  0  0  0  0  0  0  0  0  0  0
  135.5039   69.1550  225.1944 H   0  0  0  0  0  0  0  0  0  0  0  0
  135.3370   72.0990  224.6910 H   0  0  0  0  0  0  0  0  0  0  0  0
  131.7780   71.2721  227.3752 H   0  0  0  0  0  0  0  0  0  0  0  0
  130.6596   73.3481  228.2153 H   0  0  0  0  0  0  0  0  0  0  0  0
  130.6587   75.6981  228.4025 H   0  0  0  0  0  0  0  0  0  0  0  0
  133.8420   77.9973  226.6598 H   0  0  0  0  0  0  0  0  0  0  0  0
  134.9477   75.9453  225.8323 H   0  0  0  0  0  0  0  0  0  0  0  0
  139.7853   68.6286  225.1306 H   0  0  0  0  0  0  0  0  0  0  0  0
  140.6565   67.7242  227.2896 H   0  0  0  0  0  0  0  0  0  0  0  0
  141.3231   69.3566  229.0576 H   0  0  0  0  0  0  0  0  0  0  0  0
  141.1320   71.7965  228.7002 H   0  0  0  0  0  0  0  0  0  0  0  0
  140.2619   72.6137  226.5368 H   0  0  0  0  0  0  0  0  0  0  0  0
  1  2  1  0
  2  3  1  0
  3  4  1  0
  4  5  2  0
  4  6  1  0
  6  7  1  0
  7  8  1  0
  8  9  2  0
  8 10  1  0
 10 11  2  0
 11 12  1  0
 12 13  2  0
 13 14  1  0
 14 15  2  0
 15 16  1  0
 15 17  1  0
 17 18  2  0
 18 19  1  0
 19 20  2  0
  2 21  1  0
 21 22  2  0
 22 23  1  0
 23 24  2  0
 24 25  1  0
 25 26  2  0
 20 10  1  0
 26 21  1  0
 19 13  1  0
  1 27  1  0
  1 28  1  0
  1 29  1  0
  2 30  1  6
  3 31  1  0
  6 32  1  0
  6 33  1  0
  7 34  1  0
 11 35  1  0
 12 36  1  0
 14 37  1  0
 17 38  1  0
 18 39  1  0
 22 40  1  0
 23 41  1  0
 24 42  1  0
 25 43  1  0
 26 44  1  0
M  END
>  <smiles>  (26) 
C[C@@H](NC(=O)CNC(=O)c1ccc2cc(Cl)ccc2n1)c1ccccc1

>  <score_type>  (26) 
oracle

>  <origin>  (26) 
autodockgpu

>  <m_score__min__energy>  (26) 
-8.7899999999999991

>  <m_primary>  (26) 
energy

>  <rmsd>  (26) 
10.440713371305701

>  <m_score__min__rmsd>  (26) 
10.440713371305701

>  <meeko>  (26) 
{"free_energy": -8.5, "intermolecular_energy": -10.0, "internal_energy": -1.1, "cluster_size": 10, "cluster_id": 1, "rank_in_cluster": 3}

>  <energy>  (26) 
-8.16

>  <cluster_rmsd>  (26) 
0.38

>  <cluster>  (26) 
3

$$$$

     RDKit          3D

 44 46  0  0  0  0  0  0  0  0999 V2000
  139.2640   68.1280  225.2710 C   0  0  0  0  0  0  0  0  0  0  0  0
  140.1250   69.3300  224.9870 C   0  0  1  0  0  0  0  0  0  0  0  0
  139.6040   70.1300  223.8940 N   0  0  0  0  0  0  0  0  0  0  0  0
  138.2870   70.6060  223.8450 C   0  0  0  0  0  0  0  0  0  0  0  0
  137.5350   70.3030  224.8370 O   0  0  0  0  0  0  0  0  0  0  0  0
  137.6840   71.4110  222.7850 C   0  0  0  0  0  0  0  0  0  0  0  0
  138.2890   72.6750  222.5220 N   0  0  0  0  0  0  0  0  0  0  0  0
  139.5960   72.8260  221.9750 C   0  0  0  0  0  0  0  0  0  0  0  0
  140.3220   71.8150  221.6770 O   0  0  0  0  0  0  0  0  0  0  0  0
  140.1400   74.1860  221.7440 C   0  0  0  0  0  0  0  0  0  0  0  0
  141.2390   74.3440  220.9260 C   0  0  0  0  0  0  0  0  0  0  0  0
  141.7910   75.5930  220.6730 C   0  0  0  0  0  0  0  0  0  0  0  0
  141.1790   76.6680  221.2870 C   0  0  0  0  0  0  0  0  0  0  0  0
  141.7210   77.9300  221.0450 C   0  0  0  0  0  0  0  0  0  0  0  0
  141.1320   79.0420  221.6460 C   0  0  0  0  0  0  0  0  0  0  0  0
  141.8070   80.6380  221.3470 Cl  0  0  0  0  0  0  0  0  0  0  0  0
  140.0330   78.8520  222.4600 C   0  0  0  0  0  0  0  0  0  0  0  0
  139.4850   77.6110  222.7100 C   0  0  0  0  0  0  0  0  0  0  0  0
  140.0780   76.5180  222.1090 C   0  0  0  0  0  0  0  0  0  0  0  0
  139.5820   75.2690  222.3180 N   0  0  0  0  0  0  0  0  0  0  0  0
  140.3020   70.2010  226.1600 C   0  0  0  0  0  0  0  0  0  0  0  0
  141.1000   71.3100  226.0520 C   0  0  0  0  0  0  0  0  0  0  0  0
  141.3220   72.1870  227.1130 C   0  0  0  0  0  0  0  0  0  0  0  0
  140.6870   71.8850  228.3130 C   0  0  0  0  0  0  0  0  0  0  0  0
  139.8770   70.7830  228.4680 C   0  0  0  0  0  0  0  0  0  0  0  0
  139.7040   69.9630  227.3790 C   0  0  0  0  0  0  0  0  0  0  0  0
  139.1682   67.9943  226.3586 H   0  0  0  0  0  0  0  0  0  0  0  0
  138.2672   68.2788  224.8309 H   0  0  0  0  0  0  0  0  0  0  0  0
  139.7275   67.2327  224.8309 H   0  0  0  0  0  0  0  0  0  0  0  0
  141.1037   68.9138  224.7063 H   0  0  0  0  0  0  0  0  0  0  0  0
  140.2610   70.3530  223.1240 H   0  0  0  0  0  0  0  0  0  0  0  0
  137.7222   70.8228  221.8563 H   0  0  0  0  0  0  0  0  0  0  0  0
  136.6685   71.6429  223.1384 H   0  0  0  0  0  0  0  0  0  0  0  0
  137.7780   73.5870  222.7270 H   0  0  0  0  0  0  0  0  0  0  0  0
  141.6911   73.4557  220.4608 H   0  0  0  0  0  0  0  0  0  0  0  0
  142.6671   75.7190  220.0198 H   0  0  0  0  0  0  0  0  0  0  0  0
  142.5980   78.0462  220.3913 H   0  0  0  0  0  0  0  0  0  0  0  0
  139.5724   79.7325  222.9318 H   0  0  0  0  0  0  0  0  0  0  0  0
  138.6080   77.4962  223.3640 H   0  0  0  0  0  0  0  0  0  0  0  0
  141.5861   71.5170  225.0872 H   0  0  0  0  0  0  0  0  0  0  0  0
  141.9662   73.0722  227.0065 H   0  0  0  0  0  0  0  0  0  0  0  0
  140.8382   72.5539  229.1730 H   0  0  0  0  0  0  0  0  0  0  0  0
  139.3862   70.5667  229.4284 H   0  0  0  0  0  0  0  0  0  0  0  0
  139.0599   69.0776  227.4846 H   0  0  0  0  0  0  0  0  0  0  0  0
  1  2  1  0
  2  3  1  0
  3  4  1  0
  4  5  2  0
  4  6  1  0
  6  7  1  0
  7  8  1  0
  8  9  2  0
  8 10  1  0
 10 11  2  0
 11 12  1  0
 12 13  2  0
 13 14  1  0
 14 15  2  0
 15 16  1  0
 15 17  1  0
 17 18  2  0
 18 19  1  0
 19 20  2  0
  2 21  1  0
 21 22  2  0
 22 23  1  0
 23 24  2  0
 24 25  1  0
 25 26  2  0
 20 10  1  0
 26 21  1  0
 19 13  1  0
  1 27  1  0
  1 28  1  0
  1 29  1  0
  2 30  1  6
  3 31  1  0
  6 32  1  0
  6 33  1  0
  7 34  1  0
 11 35  1  0
 12 36  1  0
 14 37  1  0
 17 38  1  0
 18 39  1  0
 22 40  1  0
 23 41  1  0
 24 42  1  0
 25 43  1  0
 26 44  1  0
M  END
>  <smiles>  (27) 
C[C@@H](NC(=O)CNC(=O)c1ccc2cc(Cl)ccc2n1)c1ccccc1

>  <score_type>  (27) 
oracle

>  <origin>  (27) 
autodockgpu

>  <m_score__min__energy>  (27) 
-8.7899999999999991

>  <m_primary>  (27) 
energy

>  <rmsd>  (27) 
9.929467471029433

>  <m_score__min__rmsd>  (27) 
9.929467471029433

>  <meeko>  (27) 
{"free_energy": -8.14, "intermolecular_energy": -9.63, "internal_energy": -2.07, "cluster_size": 34, "cluster_id": 3, "rank_in_cluster": 30}

>  <energy>  (27) 
-8.16

>  <cluster_rmsd>  (27) 
0.38

>  <cluster>  (27) 
3

$$$$

     RDKit          3D

 44 46  0  0  0  0  0  0  0  0999 V2000
  139.2330   68.1350  225.3730 C   0  0  0  0  0  0  0  0  0  0  0  0
  140.1450   69.2830  225.0300 C   0  0  1  0  0  0  0  0  0  0  0  0
  139.6490   70.0590  223.9090 N   0  0  0  0  0  0  0  0  0  0  0  0
  138.3520   70.5860  223.8470 C   0  0  0  0  0  0  0  0  0  0  0  0
  137.5940   70.3530  224.8540 O   0  0  0  0  0  0  0  0  0  0  0  0
  137.7750   71.3720  222.7590 C   0  0  0  0  0  0  0  0  0  0  0  0
  138.3660   72.6460  222.5100 N   0  0  0  0  0  0  0  0  0  0  0  0
  139.6720   72.8170  221.9650 C   0  0  0  0  0  0  0  0  0  0  0  0
  140.4090   71.8170  221.6570 O   0  0  0  0  0  0  0  0  0  0  0  0
  140.2010   74.1850  221.7490 C   0  0  0  0  0  0  0  0  0  0  0  0
  141.3050   74.3620  220.9410 C   0  0  0  0  0  0  0  0  0  0  0  0
  141.8440   75.6190  220.7030 C   0  0  0  0  0  0  0  0  0  0  0  0
  141.2130   76.6820  221.3190 C   0  0  0  0  0  0  0  0  0  0  0  0
  141.7420   77.9530  221.0900 C   0  0  0  0  0  0  0  0  0  0  0  0
  141.1340   79.0530  221.6940 C   0  0  0  0  0  0  0  0  0  0  0  0
  141.7910   80.6590  221.4120 Cl  0  0  0  0  0  0  0  0  0  0  0  0
  140.0300   78.8440  222.4970 C   0  0  0  0  0  0  0  0  0  0  0  0
  139.4960   77.5940  222.7330 C   0  0  0  0  0  0  0  0  0  0  0  0
  140.1070   76.5130  222.1300 C   0  0  0  0  0  0  0  0  0  0  0  0
  139.6250   75.2570  222.3260 N   0  0  0  0  0  0  0  0  0  0  0  0
  140.3740   70.1930  226.1630 C   0  0  0  0  0  0  0  0  0  0  0  0
  139.7660   69.9290  227.3640 C   0  0  0  0  0  0  0  0  0  0  0  0
  139.9280   70.7380  228.4870 C   0  0  0  0  0  0  0  0  0  0  0  0
  140.7520   71.8500  228.3380 C   0  0  0  0  0  0  0  0  0  0  0  0
  141.3830   72.1550  227.1540 C   0  0  0  0  0  0  0  0  0  0  0  0
  141.1760   71.3120  226.0890 C   0  0  0  0  0  0  0  0  0  0  0  0
  139.1579   68.0404  226.4664 H   0  0  0  0  0  0  0  0  0  0  0  0
  138.2342   68.3216  224.9516 H   0  0  0  0  0  0  0  0  0  0  0  0
  139.6407   67.2043  224.9516 H   0  0  0  0  0  0  0  0  0  0  0  0
  141.1007   68.8111  224.7581 H   0  0  0  0  0  0  0  0  0  0  0  0
  140.3100   70.2260  223.1280 H   0  0  0  0  0  0  0  0  0  0  0  0
  137.8598   70.7785  221.8368 H   0  0  0  0  0  0  0  0  0  0  0  0
  136.7424   71.5867  223.0715 H   0  0  0  0  0  0  0  0  0  0  0  0
  137.8460   73.5490  222.7230 H   0  0  0  0  0  0  0  0  0  0  0  0
  141.7711   73.4828  220.4723 H   0  0  0  0  0  0  0  0  0  0  0  0
  142.7248   75.7606  220.0595 H   0  0  0  0  0  0  0  0  0  0  0  0
  142.6229   78.0847  220.4445 H   0  0  0  0  0  0  0  0  0  0  0  0
  139.5540   79.7152  222.9707 H   0  0  0  0  0  0  0  0  0  0  0  0
  138.6150   77.4635  223.3785 H   0  0  0  0  0  0  0  0  0  0  0  0
  139.1228   69.0403  227.4441 H   0  0  0  0  0  0  0  0  0  0  0  0
  139.4307   70.5098  229.4413 H   0  0  0  0  0  0  0  0  0  0  0  0
  140.9050   72.5124  229.2028 H   0  0  0  0  0  0  0  0  0  0  0  0
  142.0291   73.0407  227.0635 H   0  0  0  0  0  0  0  0  0  0  0  0
  141.6725   71.5401  225.1343 H   0  0  0  0  0  0  0  0  0  0  0  0
  1  2  1  0
  2  3  1  0
  3  4  1  0
  4  5  2  0
  4  6  1  0
  6  7  1  0
  7  8  1  0
  8  9  2  0
  8 10  1  0
 10 11  2  0
 11 12  1  0
 12 13  2  0
 13 14  1  0
 14 15  2  0
 15 16  1  0
 15 17  1  0
 17 18  2  0
 18 19  1  0
 19 20  2  0
  2 21  1  0
 21 22  2  0
 22 23  1  0
 23 24  2  0
 24 25  1  0
 25 26  2  0
 20 10  1  0
 26 21  1  0
 19 13  1  0
  1 27  1  0
  1 28  1  0
  1 29  1  0
  2 30  1  6
  3 31  1  0
  6 32  1  0
  6 33  1  0
  7 34  1  0
 11 35  1  0
 12 36  1  0
 14 37  1  0
 17 38  1  0
 18 39  1  0
 22 40  1  0
 23 41  1  0
 24 42  1  0
 25 43  1  0
 26 44  1  0
M  END
>  <smiles>  (28) 
C[C@@H](NC(=O)CNC(=O)c1ccc2cc(Cl)ccc2n1)c1ccccc1

>  <score_type>  (28) 
oracle

>  <origin>  (28) 
autodockgpu

>  <m_score__min__energy>  (28) 
-8.7899999999999991

>  <m_primary>  (28) 
energy

>  <rmsd>  (28) 
9.758432271502237

>  <m_score__min__rmsd>  (28) 
9.758432271502237

>  <meeko>  (28) 
{"free_energy": -8.16, "intermolecular_energy": -9.66, "internal_energy": -2.05, "cluster_size": 34, "cluster_id": 3, "rank_in_cluster": 14}

>  <energy>  (28) 
-8.16

>  <cluster_rmsd>  (28) 
0.41

>  <cluster>  (28) 
3

$$$$

     RDKit          3D

 44 46  0  0  0  0  0  0  0  0999 V2000
  139.2630   68.1590  225.3830 C   0  0  0  0  0  0  0  0  0  0  0  0
  140.1720   69.3090  225.0370 C   0  0  1  0  0  0  0  0  0  0  0  0
  139.6750   70.0800  223.9130 N   0  0  0  0  0  0  0  0  0  0  0  0
  138.3740   70.5950  223.8450 C   0  0  0  0  0  0  0  0  0  0  0  0
  137.6140   70.3570  224.8480 O   0  0  0  0  0  0  0  0  0  0  0  0
  137.7950   71.3770  222.7530 C   0  0  0  0  0  0  0  0  0  0  0  0
  138.3840   72.6500  222.4990 N   0  0  0  0  0  0  0  0  0  0  0  0
  139.6890   72.8210  221.9520 C   0  0  0  0  0  0  0  0  0  0  0  0
  140.4270   71.8220  221.6460 O   0  0  0  0  0  0  0  0  0  0  0  0
  140.2160   74.1890  221.7300 C   0  0  0  0  0  0  0  0  0  0  0  0
  141.3180   74.3660  220.9210 C   0  0  0  0  0  0  0  0  0  0  0  0
  141.8540   75.6230  220.6770 C   0  0  0  0  0  0  0  0  0  0  0  0
  141.2230   76.6870  221.2910 C   0  0  0  0  0  0  0  0  0  0  0  0
  141.7490   77.9580  221.0570 C   0  0  0  0  0  0  0  0  0  0  0  0
  141.1400   79.0590  221.6590 C   0  0  0  0  0  0  0  0  0  0  0  0
  141.7940   80.6660  221.3710 Cl  0  0  0  0  0  0  0  0  0  0  0  0
  140.0380   78.8510  222.4650 C   0  0  0  0  0  0  0  0  0  0  0  0
  139.5060   77.6010  222.7050 C   0  0  0  0  0  0  0  0  0  0  0  0
  140.1180   76.5190  222.1050 C   0  0  0  0  0  0  0  0  0  0  0  0
  139.6380   75.2620  222.3050 N   0  0  0  0  0  0  0  0  0  0  0  0
  140.3980   70.2220  226.1670 C   0  0  0  0  0  0  0  0  0  0  0  0
  139.7900   69.9610  227.3680 C   0  0  0  0  0  0  0  0  0  0  0  0
  139.9490   70.7730  228.4890 C   0  0  0  0  0  0  0  0  0  0  0  0
  140.7690   71.8870  228.3380 C   0  0  0  0  0  0  0  0  0  0  0  0
  141.4000   72.1900  227.1530 C   0  0  0  0  0  0  0  0  0  0  0  0
  141.1970   71.3430  226.0900 C   0  0  0  0  0  0  0  0  0  0  0  0
  139.1894   68.0659  226.4766 H   0  0  0  0  0  0  0  0  0  0  0  0
  138.2632   68.3425  224.9625 H   0  0  0  0  0  0  0  0  0  0  0  0
  139.6725   67.2286  224.9625 H   0  0  0  0  0  0  0  0  0  0  0  0
  141.1292   68.8392  224.7669 H   0  0  0  0  0  0  0  0  0  0  0  0
  140.3380   70.2510  223.1350 H   0  0  0  0  0  0  0  0  0  0  0  0
  137.8802   70.7800  221.8330 H   0  0  0  0  0  0  0  0  0  0  0  0
  136.7623   71.5917  223.0651 H   0  0  0  0  0  0  0  0  0  0  0  0
  137.8620   73.5530  222.7110 H   0  0  0  0  0  0  0  0  0  0  0  0
  141.7860   73.4860  220.4555 H   0  0  0  0  0  0  0  0  0  0  0  0
  142.7327   75.7638  220.0304 H   0  0  0  0  0  0  0  0  0  0  0  0
  142.6283   78.0894  220.4093 H   0  0  0  0  0  0  0  0  0  0  0  0
  139.5622   79.7229  222.9377 H   0  0  0  0  0  0  0  0  0  0  0  0
  138.6255   77.4712  223.3515 H   0  0  0  0  0  0  0  0  0  0  0  0
  139.1484   69.0713  227.4501 H   0  0  0  0  0  0  0  0  0  0  0  0
  139.4522   70.5453  229.4436 H   0  0  0  0  0  0  0  0  0  0  0  0
  140.9190   72.5526  229.2009 H   0  0  0  0  0  0  0  0  0  0  0  0
  142.0432   73.0775  227.0602 H   0  0  0  0  0  0  0  0  0  0  0  0
  141.6941   71.5695  225.1352 H   0  0  0  0  0  0  0  0  0  0  0  0
  1  2  1  0
  2  3  1  0
  3  4  1  0
  4  5  2  0
  4  6  1  0
  6  7  1  0
  7  8  1  0
  8  9  2  0
  8 10  1  0
 10 11  2  0
 11 12  1  0
 12 13  2  0
 13 14  1  0
 14 15  2  0
 15 16  1  0
 15 17  1  0
 17 18  2  0
 18 19  1  0
 19 20  2  0
  2 21  1  0
 21 22  2  0
 22 23  1  0
 23 24  2  0
 24 25  1  0
 25 26  2  0
 20 10  1  0
 26 21  1  0
 19 13  1  0
  1 27  1  0
  1 28  1  0
  1 29  1  0
  2 30  1  6
  3 31  1  0
  6 32  1  0
  6 33  1  0
  7 34  1  0
 11 35  1  0
 12 36  1  0
 14 37  1  0
 17 38  1  0
 18 39  1  0
 22 40  1  0
 23 41  1  0
 24 42  1  0
 25 43  1  0
 26 44  1  0
M  END
>  <smiles>  (29) 
C[C@@H](NC(=O)CNC(=O)c1ccc2cc(Cl)ccc2n1)c1ccccc1

>  <score_type>  (29) 
oracle

>  <origin>  (29) 
autodockgpu

>  <m_score__min__energy>  (29) 
-8.7899999999999991

>  <m_primary>  (29) 
energy

>  <rmsd>  (29) 
9.746249509120952

>  <m_score__min__rmsd>  (29) 
9.746249509120952

>  <meeko>  (29) 
{"free_energy": -8.17, "intermolecular_energy": -9.66, "internal_energy": -2.05, "cluster_size": 34, "cluster_id": 3, "rank_in_cluster": 7}

>  <energy>  (29) 
-8.16

>  <cluster_rmsd>  (29) 
0.41

>  <cluster>  (29) 
3

$$$$

     RDKit          3D

 44 46  0  0  0  0  0  0  0  0999 V2000
  139.0640   80.0320  220.2000 C   0  0  0  0  0  0  0  0  0  0  0  0
  139.3480   79.0470  221.3040 C   0  0  1  0  0  0  0  0  0  0  0  0
  139.5510   77.7020  220.7970 N   0  0  0  0  0  0  0  0  0  0  0  0
  139.2780   76.5470  221.5420 C   0  0  0  0  0  0  0  0  0  0  0  0
  138.8210   76.7280  222.7250 O   0  0  0  0  0  0  0  0  0  0  0  0
  139.4560   75.1620  221.1100 C   0  0  0  0  0  0  0  0  0  0  0  0
  139.5610   74.1820  222.1410 N   0  0  0  0  0  0  0  0  0  0  0  0
  139.8490   72.8080  221.8980 C   0  0  0  0  0  0  0  0  0  0  0  0
  140.0390   72.3600  220.7150 O   0  0  0  0  0  0  0  0  0  0  0  0
  139.9310   71.8650  223.0390 C   0  0  0  0  0  0  0  0  0  0  0  0
  139.5110   70.5620  222.8700 C   0  0  0  0  0  0  0  0  0  0  0  0
  139.5640   69.6360  223.9020 C   0  0  0  0  0  0  0  0  0  0  0  0
  140.0610   70.0900  225.1070 C   0  0  0  0  0  0  0  0  0  0  0  0
  140.1210   69.1720  226.1560 C   0  0  0  0  0  0  0  0  0  0  0  0
  140.6170   69.5920  227.3900 C   0  0  0  0  0  0  0  0  0  0  0  0
  140.6990   68.4420  228.7180 Cl  0  0  0  0  0  0  0  0  0  0  0  0
  141.0300   70.9020  227.5290 C   0  0  0  0  0  0  0  0  0  0  0  0
  140.9770   71.8220  226.5020 C   0  0  0  0  0  0  0  0  0  0  0  0
  140.4840   71.3940  225.2860 C   0  0  0  0  0  0  0  0  0  0  0  0
  140.4070   72.2560  224.2360 N   0  0  0  0  0  0  0  0  0  0  0  0
  140.5120   79.4200  222.1210 C   0  0  0  0  0  0  0  0  0  0  0  0
  141.4480   80.2750  221.5980 C   0  0  0  0  0  0  0  0  0  0  0  0
  142.5800   80.6790  222.3030 C   0  0  0  0  0  0  0  0  0  0  0  0
  142.7260   80.1690  223.5890 C   0  0  0  0  0  0  0  0  0  0  0  0
  141.8140   79.3090  224.1560 C   0  0  0  0  0  0  0  0  0  0  0  0
  140.7220   78.9540  223.4010 C   0  0  0  0  0  0  0  0  0  0  0  0
  138.7843   81.0020  220.6370 H   0  0  0  0  0  0  0  0  0  0  0  0
  139.9631   80.1554  219.5785 H   0  0  0  0  0  0  0  0  0  0  0  0
  138.2372   79.6578  219.5785 H   0  0  0  0  0  0  0  0  0  0  0  0
  138.4506   79.0700  221.9397 H   0  0  0  0  0  0  0  0  0  0  0  0
  139.9120   77.6180  219.8290 H   0  0  0  0  0  0  0  0  0  0  0  0
  138.5938   74.8946  220.4814 H   0  0  0  0  0  0  0  0  0  0  0  0
  140.4249   75.1418  220.5895 H   0  0  0  0  0  0  0  0  0  0  0  0
  139.4260   74.4400  223.1650 H   0  0  0  0  0  0  0  0  0  0  0  0
  139.1232   70.2482  221.8896 H   0  0  0  0  0  0  0  0  0  0  0  0
  139.2284   68.5972  223.7672 H   0  0  0  0  0  0  0  0  0  0  0  0
  139.7830   68.1351  226.0123 H   0  0  0  0  0  0  0  0  0  0  0  0
  141.4198   71.2278  228.5047 H   0  0  0  0  0  0  0  0  0  0  0  0
  141.3153   72.8586  226.6471 H   0  0  0  0  0  0  0  0  0  0  0  0
  141.2987   80.6585  220.5779 H   0  0  0  0  0  0  0  0  0  0  0  0
  143.3197   81.3655  221.8654 H   0  0  0  0  0  0  0  0  0  0  0  0
  143.6071   80.4656  224.1769 H   0  0  0  0  0  0  0  0  0  0  0  0
  141.9537   78.9201  225.1755 H   0  0  0  0  0  0  0  0  0  0  0  0
  139.9823   78.2670  223.8379 H   0  0  0  0  0  0  0  0  0  0  0  0
  1  2  1  0
  2  3  1  0
  3  4  1  0
  4  5  2  0
  4  6  1  0
  6  7  1  0
  7  8  1  0
  8  9  2  0
  8 10  1  0
 10 11  2  0
 11 12  1  0
 12 13  2  0
 13 14  1  0
 14 15  2  0
 15 16  1  0
 15 17  1  0
 17 18  2  0
 18 19  1  0
 19 20  2  0
  2 21  1  0
 21 22  2  0
 22 23  1  0
 23 24  2  0
 24 25  1  0
 25 26  2  0
 20 10  1  0
 26 21  1  0
 19 13  1  0
  1 27  1  0
  1 28  1  0
  1 29  1  0
  2 30  1  1
  3 31  1  0
  6 32  1  0
  6 33  1  0
  7 34  1  0
 11 35  1  0
 12 36  1  0
 14 37  1  0
 17 38  1  0
 18 39  1  0
 22 40  1  0
 23 41  1  0
 24 42  1  0
 25 43  1  0
 26 44  1  0
M  END
>  <smiles>  (30) 
C[C@@H](NC(=O)CNC(=O)c1ccc2cc(Cl)ccc2n1)c1ccccc1

>  <score_type>  (30) 
oracle

>  <origin>  (30) 
autodockgpu

>  <m_score__min__energy>  (30) 
-8.7899999999999991

>  <m_primary>  (30) 
energy

>  <rmsd>  (30) 
4.093502833432441

>  <m_score__min__rmsd>  (30) 
4.093502833432441

>  <meeko>  (30) 
{"free_energy": -8.14, "intermolecular_energy": -9.64, "internal_energy": -1.43, "cluster_size": 2, "cluster_id": 4, "rank_in_cluster": 1}

>  <energy>  (30) 
-8.16

>  <cluster_rmsd>  (30) 
0.12

>  <cluster>  (30) 
3

$$$$

     RDKit          3D

 44 46  0  0  0  0  0  0  0  0999 V2000
  139.2430   68.1370  225.2740 C   0  0  0  0  0  0  0  0  0  0  0  0
  140.1250   69.3250  224.9920 C   0  0  1  0  0  0  0  0  0  0  0  0
  139.6250   70.1290  223.8930 N   0  0  0  0  0  0  0  0  0  0  0  0
  138.3080   70.6000  223.8180 C   0  0  0  0  0  0  0  0  0  0  0  0
  137.5350   70.2880  224.7910 O   0  0  0  0  0  0  0  0  0  0  0  0
  137.7240   71.4100  222.7500 C   0  0  0  0  0  0  0  0  0  0  0  0
  138.3270   72.6800  222.5120 N   0  0  0  0  0  0  0  0  0  0  0  0
  139.6160   72.8460  221.9280 C   0  0  0  0  0  0  0  0  0  0  0  0
  140.3260   71.8440  221.5700 O   0  0  0  0  0  0  0  0  0  0  0  0
  140.1590   74.2110  221.7270 C   0  0  0  0  0  0  0  0  0  0  0  0
  141.2820   74.3830  220.9450 C   0  0  0  0  0  0  0  0  0  0  0  0
  141.8340   75.6370  220.7220 C   0  0  0  0  0  0  0  0  0  0  0  0
  141.1970   76.7030  221.3270 C   0  0  0  0  0  0  0  0  0  0  0  0
  141.7390   77.9700  221.1130 C   0  0  0  0  0  0  0  0  0  0  0  0
  141.1250   79.0730  221.7070 C   0  0  0  0  0  0  0  0  0  0  0  0
  141.7990   80.6760  221.4440 Cl  0  0  0  0  0  0  0  0  0  0  0  0
  140.0020   78.8690  222.4850 C   0  0  0  0  0  0  0  0  0  0  0  0
  139.4540   77.6220  222.7050 C   0  0  0  0  0  0  0  0  0  0  0  0
  140.0710   76.5390  222.1130 C   0  0  0  0  0  0  0  0  0  0  0  0
  139.5770   75.2850  222.2940 N   0  0  0  0  0  0  0  0  0  0  0  0
  140.3080   70.1960  226.1640 C   0  0  0  0  0  0  0  0  0  0  0  0
  141.0980   71.3110  226.0490 C   0  0  0  0  0  0  0  0  0  0  0  0
  141.3250   72.1880  227.1070 C   0  0  0  0  0  0  0  0  0  0  0  0
  140.7030   71.8810  228.3130 C   0  0  0  0  0  0  0  0  0  0  0  0
  139.9010   70.7750  228.4760 C   0  0  0  0  0  0  0  0  0  0  0  0
  139.7230   69.9540  227.3880 C   0  0  0  0  0  0  0  0  0  0  0  0
  139.1440   68.0037  226.3614 H   0  0  0  0  0  0  0  0  0  0  0  0
  138.2493   68.3052  224.8333 H   0  0  0  0  0  0  0  0  0  0  0  0
  139.6915   67.2345  224.8333 H   0  0  0  0  0  0  0  0  0  0  0  0
  141.0991   68.8930  224.7189 H   0  0  0  0  0  0  0  0  0  0  0  0
  140.2980   70.3600  223.1390 H   0  0  0  0  0  0  0  0  0  0  0  0
  137.7879   70.8298  221.8176 H   0  0  0  0  0  0  0  0  0  0  0  0
  136.6987   71.6322  223.0808 H   0  0  0  0  0  0  0  0  0  0  0  0
  137.8280   73.5860  222.7650 H   0  0  0  0  0  0  0  0  0  0  0  0
  141.7534   73.5019  220.4852 H   0  0  0  0  0  0  0  0  0  0  0  0
  142.7293   75.7743  220.0979 H   0  0  0  0  0  0  0  0  0  0  0  0
  142.6346   78.0974  220.4871 H   0  0  0  0  0  0  0  0  0  0  0  0
  139.5219   79.7420  222.9512 H   0  0  0  0  0  0  0  0  0  0  0  0
  138.5575   77.4957  223.3298 H   0  0  0  0  0  0  0  0  0  0  0  0
  141.5729   71.5218  225.0794 H   0  0  0  0  0  0  0  0  0  0  0  0
  141.9629   73.0771  226.9948 H   0  0  0  0  0  0  0  0  0  0  0  0
  140.8589   72.5503  229.1719 H   0  0  0  0  0  0  0  0  0  0  0  0
  139.4203   70.5560  229.4408 H   0  0  0  0  0  0  0  0  0  0  0  0
  139.0854   69.0645  227.4993 H   0  0  0  0  0  0  0  0  0  0  0  0
  1  2  1  0
  2  3  1  0
  3  4  1  0
  4  5  2  0
  4  6  1  0
  6  7  1  0
  7  8  1  0
  8  9  2  0
  8 10  1  0
 10 11  2  0
 11 12  1  0
 12 13  2  0
 13 14  1  0
 14 15  2  0
 15 16  1  0
 15 17  1  0
 17 18  2  0
 18 19  1  0
 19 20  2  0
  2 21  1  0
 21 22  2  0
 22 23  1  0
 23 24  2  0
 24 25  1  0
 25 26  2  0
 20 10  1  0
 26 21  1  0
 19 13  1  0
  1 27  1  0
  1 28  1  0
  1 29  1  0
  2 30  1  6
  3 31  1  0
  6 32  1  0
  6 33  1  0
  7 34  1  0
 11 35  1  0
 12 36  1  0
 14 37  1  0
 17 38  1  0
 18 39  1  0
 22 40  1  0
 23 41  1  0
 24 42  1  0
 25 43  1  0
 26 44  1  0
M  END
>  <smiles>  (31) 
C[C@@H](NC(=O)CNC(=O)c1ccc2cc(Cl)ccc2n1)c1ccccc1

>  <score_type>  (31) 
oracle

>  <origin>  (31) 
autodockgpu

>  <m_score__min__energy>  (31) 
-8.7899999999999991

>  <m_primary>  (31) 
energy

>  <rmsd>  (31) 
9.929963186603883

>  <m_score__min__rmsd>  (31) 
9.929963186603883

>  <meeko>  (31) 
{"free_energy": -8.15, "intermolecular_energy": -9.64, "internal_energy": -2.06, "cluster_size": 34, "cluster_id": 3, "rank_in_cluster": 24}

>  <energy>  (31) 
-8.16

>  <cluster_rmsd>  (31) 
0.4

>  <cluster>  (31) 
3

$$$$

     RDKit          3D

 44 46  0  0  0  0  0  0  0  0999 V2000
  143.1140   75.9630  218.5280 C   0  0  0  0  0  0  0  0  0  0  0  0
  143.2470   75.3830  219.9110 C   0  0  1  0  0  0  0  0  0  0  0  0
  141.9930   74.8400  220.3990 N   0  0  0  0  0  0  0  0  0  0  0  0
  140.8400   75.6120  220.5940 C   0  0  0  0  0  0  0  0  0  0  0  0
  140.9350   76.8580  220.3120 O   0  0  0  0  0  0  0  0  0  0  0  0
  139.5440   75.1460  221.0820 C   0  0  0  0  0  0  0  0  0  0  0  0
  139.5680   74.1580  222.1100 N   0  0  0  0  0  0  0  0  0  0  0  0
  140.1850   72.8820  221.9650 C   0  0  0  0  0  0  0  0  0  0  0  0
  140.7720   72.5380  220.8820 O   0  0  0  0  0  0  0  0  0  0  0  0
  140.1510   71.9200  223.0930 C   0  0  0  0  0  0  0  0  0  0  0  0
  139.5980   70.6720  222.9000 C   0  0  0  0  0  0  0  0  0  0  0  0
  139.5390   69.7310  223.9190 C   0  0  0  0  0  0  0  0  0  0  0  0
  140.0640   70.1140  225.1370 C   0  0  0  0  0  0  0  0  0  0  0  0
  140.0120   69.1810  226.1720 C   0  0  0  0  0  0  0  0  0  0  0  0
  140.5320   69.5290  227.4180 C   0  0  0  0  0  0  0  0  0  0  0  0
  140.4740   68.3600  228.7310 Cl  0  0  0  0  0  0  0  0  0  0  0  0
  141.0790   70.7870  227.5820 C   0  0  0  0  0  0  0  0  0  0  0  0
  141.1380   71.7210  226.5680 C   0  0  0  0  0  0  0  0  0  0  0  0
  140.6200   71.3640  225.3400 C   0  0  0  0  0  0  0  0  0  0  0  0
  140.6490   72.2430  224.3020 N   0  0  0  0  0  0  0  0  0  0  0  0
  144.2760   74.3360  219.9990 C   0  0  0  0  0  0  0  0  0  0  0  0
  145.3420   74.5180  220.8420 C   0  0  0  0  0  0  0  0  0  0  0  0
  146.3610   73.5790  220.9860 C   0  0  0  0  0  0  0  0  0  0  0  0
  146.2510   72.4210  220.2220 C   0  0  0  0  0  0  0  0  0  0  0  0
  145.2000   72.1940  219.3640 C   0  0  0  0  0  0  0  0  0  0  0  0
  144.2320   73.1650  219.2730 C   0  0  0  0  0  0  0  0  0  0  0  0
  142.8687   77.0328  218.6011 H   0  0  0  0  0  0  0  0  0  0  0  0
  144.0635   75.8407  217.9862 H   0  0  0  0  0  0  0  0  0  0  0  0
  142.3126   75.4392  217.9862 H   0  0  0  0  0  0  0  0  0  0  0  0
  143.5526   76.2302  220.5425 H   0  0  0  0  0  0  0  0  0  0  0  0
  141.9720   73.8230  220.6000 H   0  0  0  0  0  0  0  0  0  0  0  0
  138.9998   76.0193  221.4707 H   0  0  0  0  0  0  0  0  0  0  0  0
  139.0675   74.6567  220.2197 H   0  0  0  0  0  0  0  0  0  0  0  0
  139.1140   74.3340  223.0580 H   0  0  0  0  0  0  0  0  0  0  0  0
  139.1920   70.4145  221.9106 H   0  0  0  0  0  0  0  0  0  0  0  0
  139.0982   68.7351  223.7644 H   0  0  0  0  0  0  0  0  0  0  0  0
  139.5685   68.1878  226.0083 H   0  0  0  0  0  0  0  0  0  0  0  0
  141.4867   71.0568  228.5674 H   0  0  0  0  0  0  0  0  0  0  0  0
  141.5818   72.7139  226.7326 H   0  0  0  0  0  0  0  0  0  0  0  0
  145.3949   75.4460  221.4303 H   0  0  0  0  0  0  0  0  0  0  0  0
  147.2082   73.7442  221.6679 H   0  0  0  0  0  0  0  0  0  0  0  0
  147.0367   71.6559  220.3077 H   0  0  0  0  0  0  0  0  0  0  0  0
  145.1368   71.2689  218.7723 H   0  0  0  0  0  0  0  0  0  0  0  0
  143.3848   73.0007  218.5909 H   0  0  0  0  0  0  0  0  0  0  0  0
  1  2  1  0
  2  3  1  0
  3  4  1  0
  4  5  2  0
  4  6  1  0
  6  7  1  0
  7  8  1  0
  8  9  2  0
  8 10  1  0
 10 11  2  0
 11 12  1  0
 12 13  2  0
 13 14  1  0
 14 15  2  0
 15 16  1  0
 15 17  1  0
 17 18  2  0
 18 19  1  0
 19 20  2  0
  2 21  1  0
 21 22  2  0
 22 23  1  0
 23 24  2  0
 24 25  1  0
 25 26  2  0
 20 10  1  0
 26 21  1  0
 19 13  1  0
  1 27  1  0
  1 28  1  0
  1 29  1  0
  2 30  1  1
  3 31  1  0
  6 32  1  0
  6 33  1  0
  7 34  1  0
 11 35  1  0
 12 36  1  0
 14 37  1  0
 17 38  1  0
 18 39  1  0
 22 40  1  0
 23 41  1  0
 24 42  1  0
 25 43  1  0
 26 44  1  0
M  END
>  <smiles>  (32) 
C[C@@H](NC(=O)CNC(=O)c1ccc2cc(Cl)ccc2n1)c1ccccc1

>  <score_type>  (32) 
oracle

>  <origin>  (32) 
autodockgpu

>  <m_score__min__energy>  (32) 
-8.7899999999999991

>  <m_primary>  (32) 
energy

>  <rmsd>  (32) 
6.504474763786791

>  <m_score__min__rmsd>  (32) 
6.504474763786791

>  <meeko>  (32) 
{"free_energy": -8.01, "intermolecular_energy": -9.5, "internal_energy": -1.77, "cluster_size": 2, "cluster_id": 5, "rank_in_cluster": 1}

>  <energy>  (32) 
-8.16

>  <cluster_rmsd>  (32) 
0.38

>  <cluster>  (32) 
3

$$$$

     RDKit          3D

 44 46  0  0  0  0  0  0  0  0999 V2000
  139.2550   68.0520  225.2960 C   0  0  0  0  0  0  0  0  0  0  0  0
  140.1480   69.2250  224.9860 C   0  0  1  0  0  0  0  0  0  0  0  0
  139.6530   70.0090  223.8700 N   0  0  0  0  0  0  0  0  0  0  0  0
  138.3550   70.5330  223.8110 C   0  0  0  0  0  0  0  0  0  0  0  0
  137.5960   70.2900  224.8140 O   0  0  0  0  0  0  0  0  0  0  0  0
  137.7780   71.3280  222.7270 C   0  0  0  0  0  0  0  0  0  0  0  0
  138.3720   72.6010  222.4860 N   0  0  0  0  0  0  0  0  0  0  0  0
  139.6770   72.7730  221.9400 C   0  0  0  0  0  0  0  0  0  0  0  0
  140.4110   71.7740  221.6230 O   0  0  0  0  0  0  0  0  0  0  0  0
  140.2090   74.1410  221.7310 C   0  0  0  0  0  0  0  0  0  0  0  0
  141.3210   74.3200  220.9350 C   0  0  0  0  0  0  0  0  0  0  0  0
  141.8620   75.5770  220.7040 C   0  0  0  0  0  0  0  0  0  0  0  0
  141.2260   76.6390  221.3160 C   0  0  0  0  0  0  0  0  0  0  0  0
  141.7580   77.9100  221.0950 C   0  0  0  0  0  0  0  0  0  0  0  0
  141.1440   79.0090  221.6960 C   0  0  0  0  0  0  0  0  0  0  0  0
  141.8050   80.6160  221.4240 Cl  0  0  0  0  0  0  0  0  0  0  0  0
  140.0330   78.7990  222.4890 C   0  0  0  0  0  0  0  0  0  0  0  0
  139.4960   77.5490  222.7170 C   0  0  0  0  0  0  0  0  0  0  0  0
  140.1120   76.4690  222.1170 C   0  0  0  0  0  0  0  0  0  0  0  0
  139.6280   75.2120  222.3050 N   0  0  0  0  0  0  0  0  0  0  0  0
  140.3420   70.1200  226.1370 C   0  0  0  0  0  0  0  0  0  0  0  0
  141.1360   71.2280  225.9940 C   0  0  0  0  0  0  0  0  0  0  0  0
  141.3740   72.1270  227.0320 C   0  0  0  0  0  0  0  0  0  0  0  0
  140.7580   71.8490  228.2480 C   0  0  0  0  0  0  0  0  0  0  0  0
  139.9520   70.7500  228.4390 C   0  0  0  0  0  0  0  0  0  0  0  0
  139.7640   69.9070  227.3700 C   0  0  0  0  0  0  0  0  0  0  0  0
  139.1669   67.9363  226.3864 H   0  0  0  0  0  0  0  0  0  0  0  0
  138.2584   68.2256  224.8640 H   0  0  0  0  0  0  0  0  0  0  0  0
  139.6876   67.1376  224.8640 H   0  0  0  0  0  0  0  0  0  0  0  0
  141.1174   68.7776  224.7211 H   0  0  0  0  0  0  0  0  0  0  0  0
  140.3150   70.1830  223.0920 H   0  0  0  0  0  0  0  0  0  0  0  0
  137.8605   70.7401  221.8010 H   0  0  0  0  0  0  0  0  0  0  0  0
  136.7461   71.5432  223.0414 H   0  0  0  0  0  0  0  0  0  0  0  0
  137.8540   73.5050  222.7060 H   0  0  0  0  0  0  0  0  0  0  0  0
  141.7924   73.4416  220.4701 H   0  0  0  0  0  0  0  0  0  0  0  0
  142.7485   75.7195  220.0685 H   0  0  0  0  0  0  0  0  0  0  0  0
  142.6453   78.0429  220.4585 H   0  0  0  0  0  0  0  0  0  0  0  0
  139.5538   79.6694  222.9610 H   0  0  0  0  0  0  0  0  0  0  0  0
  138.6089   77.4175  223.3540 H   0  0  0  0  0  0  0  0  0  0  0  0
  141.6059   71.4159  225.0173 H   0  0  0  0  0  0  0  0  0  0  0  0
  142.0155   73.0103  226.8968 H   0  0  0  0  0  0  0  0  0  0  0  0
  140.9219   72.5358  229.0915 H   0  0  0  0  0  0  0  0  0  0  0  0
  139.4760   70.5536  229.4110 H   0  0  0  0  0  0  0  0  0  0  0  0
  139.1237   69.0228  227.5044 H   0  0  0  0  0  0  0  0  0  0  0  0
  1  2  1  0
  2  3  1  0
  3  4  1  0
  4  5  2  0
  4  6  1  0
  6  7  1  0
  7  8  1  0
  8  9  2  0
  8 10  1  0
 10 11  2  0
 11 12  1  0
 12 13  2  0
 13 14  1  0
 14 15  2  0
 15 16  1  0
 15 17  1  0
 17 18  2  0
 18 19  1  0
 19 20  2  0
  2 21  1  0
 21 22  2  0
 22 23  1  0
 23 24  2  0
 24 25  1  0
 25 26  2  0
 20 10  1  0
 26 21  1  0
 19 13  1  0
  1 27  1  0
  1 28  1  0
  1 29  1  0
  2 30  1  6
  3 31  1  0
  6 32  1  0
  6 33  1  0
  7 34  1  0
 11 35  1  0
 12 36  1  0
 14 37  1  0
 17 38  1  0
 18 39  1  0
 22 40  1  0
 23 41  1  0
 24 42  1  0
 25 43  1  0
 26 44  1  0
M  END
>  <smiles>  (33) 
C[C@@H](NC(=O)CNC(=O)c1ccc2cc(Cl)ccc2n1)c1ccccc1

>  <score_type>  (33) 
oracle

>  <origin>  (33) 
autodockgpu

>  <m_score__min__energy>  (33) 
-8.7899999999999991

>  <m_primary>  (33) 
energy

>  <rmsd>  (33) 
9.952084360897757

>  <m_score__min__rmsd>  (33) 
9.952084360897757

>  <meeko>  (33) 
{"free_energy": -8.13, "intermolecular_energy": -9.62, "internal_energy": -2.08, "cluster_size": 34, "cluster_id": 3, "rank_in_cluster": 31}

>  <energy>  (33) 
-8.16

>  <cluster_rmsd>  (33) 
0.39

>  <cluster>  (33) 
3

$$$$

     RDKit          3D

 44 46  0  0  0  0  0  0  0  0999 V2000
  139.2780   68.1010  225.3240 C   0  0  0  0  0  0  0  0  0  0  0  0
  140.1480   69.2970  225.0400 C   0  0  1  0  0  0  0  0  0  0  0  0
  139.6470   70.0850  223.9290 N   0  0  0  0  0  0  0  0  0  0  0  0
  138.3350   70.5700  223.8550 C   0  0  0  0  0  0  0  0  0  0  0  0
  137.5670   70.2850  224.8400 O   0  0  0  0  0  0  0  0  0  0  0  0
  137.7520   71.3650  222.7760 C   0  0  0  0  0  0  0  0  0  0  0  0
  138.3450   72.6390  222.5320 N   0  0  0  0  0  0  0  0  0  0  0  0
  139.6420   72.8120  221.9690 C   0  0  0  0  0  0  0  0  0  0  0  0
  140.3700   71.8140  221.6360 O   0  0  0  0  0  0  0  0  0  0  0  0
  140.1720   74.1810  221.7600 C   0  0  0  0  0  0  0  0  0  0  0  0
  141.2930   74.3580  220.9760 C   0  0  0  0  0  0  0  0  0  0  0  0
  141.8340   75.6160  220.7450 C   0  0  0  0  0  0  0  0  0  0  0  0
  141.1880   76.6790  221.3450 C   0  0  0  0  0  0  0  0  0  0  0  0
  141.7190   77.9500  221.1240 C   0  0  0  0  0  0  0  0  0  0  0  0
  141.0950   79.0510  221.7120 C   0  0  0  0  0  0  0  0  0  0  0  0
  141.7550   80.6580  221.4400 Cl  0  0  0  0  0  0  0  0  0  0  0  0
  139.9750   78.8410  222.4920 C   0  0  0  0  0  0  0  0  0  0  0  0
  139.4380   77.5910  222.7200 C   0  0  0  0  0  0  0  0  0  0  0  0
  140.0650   76.5100  222.1330 C   0  0  0  0  0  0  0  0  0  0  0  0
  139.5810   75.2530  222.3210 N   0  0  0  0  0  0  0  0  0  0  0  0
  140.3090   70.1800  226.2050 C   0  0  0  0  0  0  0  0  0  0  0  0
  141.0940   71.2980  226.0910 C   0  0  0  0  0  0  0  0  0  0  0  0
  141.3010   72.1870  227.1430 C   0  0  0  0  0  0  0  0  0  0  0  0
  140.6640   71.8890  228.3430 C   0  0  0  0  0  0  0  0  0  0  0  0
  139.8670   70.7790  228.5060 C   0  0  0  0  0  0  0  0  0  0  0  0
  139.7080   69.9470  227.4240 C   0  0  0  0  0  0  0  0  0  0  0  0
  139.1812   67.9680  226.4116 H   0  0  0  0  0  0  0  0  0  0  0  0
  138.2823   68.2591  224.8839 H   0  0  0  0  0  0  0  0  0  0  0  0
  139.7350   67.2024  224.8839 H   0  0  0  0  0  0  0  0  0  0  0  0
  141.1302   68.8753  224.7801 H   0  0  0  0  0  0  0  0  0  0  0  0
  140.3170   70.2940  223.1660 H   0  0  0  0  0  0  0  0  0  0  0  0
  137.8288   70.7776  221.8491 H   0  0  0  0  0  0  0  0  0  0  0  0
  136.7220   71.5800  223.0968 H   0  0  0  0  0  0  0  0  0  0  0  0
  137.8310   73.5420  222.7650 H   0  0  0  0  0  0  0  0  0  0  0  0
  141.7717   73.4783  220.5211 H   0  0  0  0  0  0  0  0  0  0  0  0
  142.7273   75.7579  220.1190 H   0  0  0  0  0  0  0  0  0  0  0  0
  142.6135   78.0819  220.4975 H   0  0  0  0  0  0  0  0  0  0  0  0
  139.4876   79.7124  222.9537 H   0  0  0  0  0  0  0  0  0  0  0  0
  138.5433   77.4603  223.3464 H   0  0  0  0  0  0  0  0  0  0  0  0
  141.5818   71.5020  225.1264 H   0  0  0  0  0  0  0  0  0  0  0  0
  141.9354   73.0786  227.0306 H   0  0  0  0  0  0  0  0  0  0  0  0
  140.8030   72.5685  229.1968 H   0  0  0  0  0  0  0  0  0  0  0  0
  139.3755   70.5657  229.4667 H   0  0  0  0  0  0  0  0  0  0  0  0
  139.0731   69.0556  227.5352 H   0  0  0  0  0  0  0  0  0  0  0  0
  1  2  1  0
  2  3  1  0
  3  4  1  0
  4  5  2  0
  4  6  1  0
  6  7  1  0
  7  8  1  0
  8  9  2  0
  8 10  1  0
 10 11  2  0
 11 12  1  0
 12 13  2  0
 13 14  1  0
 14 15  2  0
 15 16  1  0
 15 17  1  0
 17 18  2  0
 18 19  1  0
 19 20  2  0
  2 21  1  0
 21 22  2  0
 22 23  1  0
 23 24  2  0
 24 25  1  0
 25 26  2  0
 20 10  1  0
 26 21  1  0
 19 13  1  0
  1 27  1  0
  1 28  1  0
  1 29  1  0
  2 30  1  6
  3 31  1  0
  6 32  1  0
  6 33  1  0
  7 34  1  0
 11 35  1  0
 12 36  1  0
 14 37  1  0
 17 38  1  0
 18 39  1  0
 22 40  1  0
 23 41  1  0
 24 42  1  0
 25 43  1  0
 26 44  1  0
M  END
>  <smiles>  (34) 
C[C@@H](NC(=O)CNC(=O)c1ccc2cc(Cl)ccc2n1)c1ccccc1

>  <score_type>  (34) 
oracle

>  <origin>  (34) 
autodockgpu

>  <m_score__min__energy>  (34) 
-8.7899999999999991

>  <m_primary>  (34) 
energy

>  <rmsd>  (34) 
9.939697758867084

>  <m_score__min__rmsd>  (34) 
9.939697758867084

>  <meeko>  (34) 
{"free_energy": -8.16, "intermolecular_energy": -9.65, "internal_energy": -2.07, "cluster_size": 34, "cluster_id": 3, "rank_in_cluster": 20}

>  <energy>  (34) 
-8.16

>  <cluster_rmsd>  (34) 
0.42

>  <cluster>  (34) 
3

$$$$

     RDKit          3D

 44 46  0  0  0  0  0  0  0  0999 V2000
  139.4470   67.4610  226.3490 C   0  0  0  0  0  0  0  0  0  0  0  0
  139.4950   68.7380  225.5510 C   0  0  1  0  0  0  0  0  0  0  0  0
  138.1920   69.1090  225.0330 N   0  0  0  0  0  0  0  0  0  0  0  0
  137.9040   69.2090  223.6660 C   0  0  0  0  0  0  0  0  0  0  0  0
  138.8670   68.9490  222.8610 O   0  0  0  0  0  0  0  0  0  0  0  0
  136.6250   69.5770  223.0620 C   0  0  0  0  0  0  0  0  0  0  0  0
  135.8350   70.5280  223.7740 N   0  0  0  0  0  0  0  0  0  0  0  0
  135.1890   70.2490  225.0130 C   0  0  0  0  0  0  0  0  0  0  0  0
  135.2820   69.1050  225.5770 O   0  0  0  0  0  0  0  0  0  0  0  0
  134.3840   71.3050  225.6720 C   0  0  0  0  0  0  0  0  0  0  0  0
  133.3900   70.9430  226.5570 C   0  0  0  0  0  0  0  0  0  0  0  0
  132.6050   71.8880  227.2030 C   0  0  0  0  0  0  0  0  0  0  0  0
  132.8740   73.2110  226.9120 C   0  0  0  0  0  0  0  0  0  0  0  0
  132.0940   74.1730  227.5520 C   0  0  0  0  0  0  0  0  0  0  0  0
  132.3340   75.5210  227.2850 C   0  0  0  0  0  0  0  0  0  0  0  0
  131.3580   76.7430  228.0870 Cl  0  0  0  0  0  0  0  0  0  0  0  0
  133.3360   75.8520  226.3940 C   0  0  0  0  0  0  0  0  0  0  0  0
  134.1160   74.9130  225.7530 C   0  0  0  0  0  0  0  0  0  0  0  0
  133.8680   73.5820  226.0260 C   0  0  0  0  0  0  0  0  0  0  0  0
  134.6040   72.6100  225.4230 N   0  0  0  0  0  0  0  0  0  0  0  0
  140.0350   69.8730  226.3160 C   0  0  0  0  0  0  0  0  0  0  0  0
  140.8610   70.7680  225.6860 C   0  0  0  0  0  0  0  0  0  0  0  0
  141.4160   71.8700  226.3340 C   0  0  0  0  0  0  0  0  0  0  0  0
  141.0900   72.0290  227.6770 C   0  0  0  0  0  0  0  0  0  0  0  0
  140.2670   71.1580  228.3510 C   0  0  0  0  0  0  0  0  0  0  0  0
  139.7560   70.0930  227.6470 C   0  0  0  0  0  0  0  0  0  0  0  0
  139.4560   67.6991  227.4229 H   0  0  0  0  0  0  0  0  0  0  0  0
  138.5275   66.9095  226.1034 H   0  0  0  0  0  0  0  0  0  0  0  0
  140.3225   66.8420  226.1034 H   0  0  0  0  0  0  0  0  0  0  0  0
  140.1755   68.5211  224.7144 H   0  0  0  0  0  0  0  0  0  0  0  0
  137.4480   69.2970  225.7310 H   0  0  0  0  0  0  0  0  0  0  0  0
  136.8336   69.9947  222.0660 H   0  0  0  0  0  0  0  0  0  0  0  0
  136.0299   68.6519  223.0540 H   0  0  0  0  0  0  0  0  0  0  0  0
  135.6900   71.5160  223.4020 H   0  0  0  0  0  0  0  0  0  0  0  0
  133.2145   69.8756  226.7564 H   0  0  0  0  0  0  0  0  0  0  0  0
  131.8119   71.5989  227.9083 H   0  0  0  0  0  0  0  0  0  0  0  0
  131.3029   73.8742  228.2555 H   0  0  0  0  0  0  0  0  0  0  0  0
  133.5207   76.9162  226.1857 H   0  0  0  0  0  0  0  0  0  0  0  0
  134.9069   75.2130  225.0499 H   0  0  0  0  0  0  0  0  0  0  0  0
  141.0957   70.6093  224.6231 H   0  0  0  0  0  0  0  0  0  0  0  0
  142.0770   72.5768  225.8111 H   0  0  0  0  0  0  0  0  0  0  0  0
  141.5083   72.8877  228.2226 H   0  0  0  0  0  0  0  0  0  0  0  0
  140.0263   71.3075  229.4139 H   0  0  0  0  0  0  0  0  0  0  0  0
  139.0954   69.3856  228.1696 H   0  0  0  0  0  0  0  0  0  0  0  0
  1  2  1  0
  2  3  1  0
  3  4  1  0
  4  5  2  0
  4  6  1  0
  6  7  1  0
  7  8  1  0
  8  9  2  0
  8 10  1  0
 10 11  2  0
 11 12  1  0
 12 13  2  0
 13 14  1  0
 14 15  2  0
 15 16  1  0
 15 17  1  0
 17 18  2  0
 18 19  1  0
 19 20  2  0
  2 21  1  0
 21 22  2  0
 22 23  1  0
 23 24  2  0
 24 25  1  0
 25 26  2  0
 20 10  1  0
 26 21  1  0
 19 13  1  0
  1 27  1  0
  1 28  1  0
  1 29  1  0
  2 30  1  6
  3 31  1  0
  6 32  1  0
  6 33  1  0
  7 34  1  0
 11 35  1  0
 12 36  1  0
 14 37  1  0
 17 38  1  0
 18 39  1  0
 22 40  1  0
 23 41  1  0
 24 42  1  0
 25 43  1  0
 26 44  1  0
M  END
>  <smiles>  (35) 
C[C@@H](NC(=O)CNC(=O)c1ccc2cc(Cl)ccc2n1)c1ccccc1

>  <score_type>  (35) 
oracle

>  <origin>  (35) 
autodockgpu

>  <m_score__min__energy>  (35) 
-8.7899999999999991

>  <m_primary>  (35) 
energy

>  <rmsd>  (35) 
10.54074138766376

>  <m_score__min__rmsd>  (35) 
10.54074138766376

>  <meeko>  (35) 
{"free_energy": -7.82, "intermolecular_energy": -9.31, "internal_energy": -1.99, "cluster_size": 10, "cluster_id": 1, "rank_in_cluster": 8}

>  <energy>  (35) 
-8.15

>  <cluster_rmsd>  (35) 
0.44

>  <cluster>  (35) 
3

$$$$

     RDKit          3D

 44 46  0  0  0  0  0  0  0  0999 V2000
  139.2070   68.1440  225.2680 C   0  0  0  0  0  0  0  0  0  0  0  0
  140.0910   69.3300  224.9850 C   0  0  1  0  0  0  0  0  0  0  0  0
  139.5860   70.1410  223.8930 N   0  0  0  0  0  0  0  0  0  0  0  0
  138.2610   70.5890  223.8130 C   0  0  0  0  0  0  0  0  0  0  0  0
  137.4860   70.2500  224.7750 O   0  0  0  0  0  0  0  0  0  0  0  0
  137.6720   71.4030  222.7510 C   0  0  0  0  0  0  0  0  0  0  0  0
  138.2810   72.6690  222.5070 N   0  0  0  0  0  0  0  0  0  0  0  0
  139.5760   72.8250  221.9310 C   0  0  0  0  0  0  0  0  0  0  0  0
  140.2850   71.8170  221.5870 O   0  0  0  0  0  0  0  0  0  0  0  0
  140.1250   74.1860  221.7230 C   0  0  0  0  0  0  0  0  0  0  0  0
  141.2370   74.3510  220.9240 C   0  0  0  0  0  0  0  0  0  0  0  0
  141.7940   75.6020  220.6940 C   0  0  0  0  0  0  0  0  0  0  0  0
  141.1740   76.6710  221.3080 C   0  0  0  0  0  0  0  0  0  0  0  0
  141.7210   77.9350  221.0870 C   0  0  0  0  0  0  0  0  0  0  0  0
  141.1240   79.0420  221.6900 C   0  0  0  0  0  0  0  0  0  0  0  0
  141.8050   80.6400  221.4180 Cl  0  0  0  0  0  0  0  0  0  0  0  0
  140.0110   78.8450  222.4840 C   0  0  0  0  0  0  0  0  0  0  0  0
  139.4580   77.6020  222.7120 C   0  0  0  0  0  0  0  0  0  0  0  0
  140.0590   76.5150  222.1100 C   0  0  0  0  0  0  0  0  0  0  0  0
  139.5580   75.2640  222.2980 N   0  0  0  0  0  0  0  0  0  0  0  0
  140.2850   70.1960  226.1580 C   0  0  0  0  0  0  0  0  0  0  0  0
  141.0960   71.2960  226.0490 C   0  0  0  0  0  0  0  0  0  0  0  0
  141.3350   72.1680  227.1090 C   0  0  0  0  0  0  0  0  0  0  0  0
  140.7030   71.8700  228.3120 C   0  0  0  0  0  0  0  0  0  0  0  0
  139.8810   70.7790  228.4700 C   0  0  0  0  0  0  0  0  0  0  0  0
  139.6920   69.9630  227.3810 C   0  0  0  0  0  0  0  0  0  0  0  0
  139.1082   68.0115  226.3555 H   0  0  0  0  0  0  0  0  0  0  0  0
  138.2134   68.3139  224.8276 H   0  0  0  0  0  0  0  0  0  0  0  0
  139.6537   67.2404  224.8276 H   0  0  0  0  0  0  0  0  0  0  0  0
  141.0613   68.8948  224.7038 H   0  0  0  0  0  0  0  0  0  0  0  0
  140.2610   70.3940  223.1480 H   0  0  0  0  0  0  0  0  0  0  0  0
  137.7227   70.8225  221.8180 H   0  0  0  0  0  0  0  0  0  0  0  0
  136.6516   71.6320  223.0921 H   0  0  0  0  0  0  0  0  0  0  0  0
  137.7830   73.5790  222.7480 H   0  0  0  0  0  0  0  0  0  0  0  0
  141.6953   73.4672  220.4560 H   0  0  0  0  0  0  0  0  0  0  0  0
  142.6811   75.7337  220.0571 H   0  0  0  0  0  0  0  0  0  0  0  0
  142.6081   78.0567  220.4480 H   0  0  0  0  0  0  0  0  0  0  0  0
  139.5433   79.7211  222.9570 H   0  0  0  0  0  0  0  0  0  0  0  0
  138.5703   77.4814  223.3504 H   0  0  0  0  0  0  0  0  0  0  0  0
  141.5793   71.4991  225.0820 H   0  0  0  0  0  0  0  0  0  0  0  0
  141.9890   73.0458  227.0004 H   0  0  0  0  0  0  0  0  0  0  0  0
  140.8677   72.5349  229.1727 H   0  0  0  0  0  0  0  0  0  0  0  0
  139.3928   70.5674  229.4328 H   0  0  0  0  0  0  0  0  0  0  0  0
  139.0386   69.0848  227.4894 H   0  0  0  0  0  0  0  0  0  0  0  0
  1  2  1  0
  2  3  1  0
  3  4  1  0
  4  5  2  0
  4  6  1  0
  6  7  1  0
  7  8  1  0
  8  9  2  0
  8 10  1  0
 10 11  2  0
 11 12  1  0
 12 13  2  0
 13 14  1  0
 14 15  2  0
 15 16  1  0
 15 17  1  0
 17 18  2  0
 18 19  1  0
 19 20  2  0
  2 21  1  0
 21 22  2  0
 22 23  1  0
 23 24  2  0
 24 25  1  0
 25 26  2  0
 20 10  1  0
 26 21  1  0
 19 13  1  0
  1 27  1  0
  1 28  1  0
  1 29  1  0
  2 30  1  6
  3 31  1  0
  6 32  1  0
  6 33  1  0
  7 34  1  0
 11 35  1  0
 12 36  1  0
 14 37  1  0
 17 38  1  0
 18 39  1  0
 22 40  1  0
 23 41  1  0
 24 42  1  0
 25 43  1  0
 26 44  1  0
M  END
>  <smiles>  (36) 
C[C@@H](NC(=O)CNC(=O)c1ccc2cc(Cl)ccc2n1)c1ccccc1

>  <score_type>  (36) 
oracle

>  <origin>  (36) 
autodockgpu

>  <m_score__min__energy>  (36) 
-8.7899999999999991

>  <m_primary>  (36) 
energy

>  <rmsd>  (36) 
9.929859091420125

>  <m_score__min__rmsd>  (36) 
9.929859091420125

>  <meeko>  (36) 
{"free_energy": -8.16, "intermolecular_energy": -9.65, "internal_energy": -2.04, "cluster_size": 34, "cluster_id": 3, "rank_in_cluster": 22}

>  <energy>  (36) 
-8.15

>  <cluster_rmsd>  (36) 
0.41

>  <cluster>  (36) 
3

$$$$

     RDKit          3D

 44 46  0  0  0  0  0  0  0  0999 V2000
  139.3080   68.1600  225.2960 C   0  0  0  0  0  0  0  0  0  0  0  0
  140.1700   69.3610  225.0100 C   0  0  1  0  0  0  0  0  0  0  0  0
  139.6450   70.1660  223.9220 N   0  0  0  0  0  0  0  0  0  0  0  0
  138.3130   70.5950  223.8530 C   0  0  0  0  0  0  0  0  0  0  0  0
  137.5500   70.2440  224.8200 O   0  0  0  0  0  0  0  0  0  0  0  0
  137.7050   71.4020  222.7960 C   0  0  0  0  0  0  0  0  0  0  0  0
  138.3100   72.6650  222.5310 N   0  0  0  0  0  0  0  0  0  0  0  0
  139.6140   72.8160  221.9750 C   0  0  0  0  0  0  0  0  0  0  0  0
  140.3350   71.8050  221.6690 O   0  0  0  0  0  0  0  0  0  0  0  0
  140.1570   74.1760  221.7430 C   0  0  0  0  0  0  0  0  0  0  0  0
  141.2590   74.3320  220.9280 C   0  0  0  0  0  0  0  0  0  0  0  0
  141.8110   75.5810  220.6740 C   0  0  0  0  0  0  0  0  0  0  0  0
  141.1960   76.6570  221.2830 C   0  0  0  0  0  0  0  0  0  0  0  0
  141.7390   77.9190  221.0400 C   0  0  0  0  0  0  0  0  0  0  0  0
  141.1470   79.0320  221.6360 C   0  0  0  0  0  0  0  0  0  0  0  0
  141.8210   80.6280  221.3350 Cl  0  0  0  0  0  0  0  0  0  0  0  0
  140.0450   78.8430  222.4470 C   0  0  0  0  0  0  0  0  0  0  0  0
  139.4970   77.6020  222.6980 C   0  0  0  0  0  0  0  0  0  0  0  0
  140.0920   76.5090  222.1020 C   0  0  0  0  0  0  0  0  0  0  0  0
  139.5960   75.2600  222.3120 N   0  0  0  0  0  0  0  0  0  0  0  0
  140.3570   70.2270  226.1840 C   0  0  0  0  0  0  0  0  0  0  0  0
  141.1550   71.3370  226.0740 C   0  0  0  0  0  0  0  0  0  0  0  0
  141.3870   72.2090  227.1360 C   0  0  0  0  0  0  0  0  0  0  0  0
  140.7600   71.9040  228.3390 C   0  0  0  0  0  0  0  0  0  0  0  0
  139.9500   70.8030  228.4980 C   0  0  0  0  0  0  0  0  0  0  0  0
  139.7680   69.9860  227.4070 C   0  0  0  0  0  0  0  0  0  0  0  0
  139.2130   68.0276  226.3839 H   0  0  0  0  0  0  0  0  0  0  0  0
  138.3110   68.3112  224.8565 H   0  0  0  0  0  0  0  0  0  0  0  0
  139.7703   67.2638  224.8565 H   0  0  0  0  0  0  0  0  0  0  0  0
  141.1457   68.9430  224.7214 H   0  0  0  0  0  0  0  0  0  0  0  0
  140.3110   70.4290  223.1730 H   0  0  0  0  0  0  0  0  0  0  0  0
  137.7377   70.8145  221.8666 H   0  0  0  0  0  0  0  0  0  0  0  0
  136.6915   71.6348  223.1547 H   0  0  0  0  0  0  0  0  0  0  0  0
  137.8020   73.5770  222.7410 H   0  0  0  0  0  0  0  0  0  0  0  0
  141.7131   73.4427  220.4665 H   0  0  0  0  0  0  0  0  0  0  0  0
  142.6894   75.7061  220.0238 H   0  0  0  0  0  0  0  0  0  0  0  0
  142.6187   78.0340  220.3896 H   0  0  0  0  0  0  0  0  0  0  0  0
  139.5821   79.7242  222.9152 H   0  0  0  0  0  0  0  0  0  0  0  0
  138.6179   77.4881  223.3494 H   0  0  0  0  0  0  0  0  0  0  0  0
  141.6325   71.5481  225.1058 H   0  0  0  0  0  0  0  0  0  0  0  0
  142.0328   73.0929  227.0281 H   0  0  0  0  0  0  0  0  0  0  0  0
  140.9181   72.5707  229.1996 H   0  0  0  0  0  0  0  0  0  0  0  0
  139.4663   70.5847  229.4615 H   0  0  0  0  0  0  0  0  0  0  0  0
  139.1239   69.1009  227.5148 H   0  0  0  0  0  0  0  0  0  0  0  0
  1  2  1  0
  2  3  1  0
  3  4  1  0
  4  5  2  0
  4  6  1  0
  6  7  1  0
  7  8  1  0
  8  9  2  0
  8 10  1  0
 10 11  2  0
 11 12  1  0
 12 13  2  0
 13 14  1  0
 14 15  2  0
 15 16  1  0
 15 17  1  0
 17 18  2  0
 18 19  1  0
 19 20  2  0
  2 21  1  0
 21 22  2  0
 22 23  1  0
 23 24  2  0
 24 25  1  0
 25 26  2  0
 20 10  1  0
 26 21  1  0
 19 13  1  0
  1 27  1  0
  1 28  1  0
  1 29  1  0
  2 30  1  6
  3 31  1  0
  6 32  1  0
  6 33  1  0
  7 34  1  0
 11 35  1  0
 12 36  1  0
 14 37  1  0
 17 38  1  0
 18 39  1  0
 22 40  1  0
 23 41  1  0
 24 42  1  0
 25 43  1  0
 26 44  1  0
M  END
>  <smiles>  (37) 
C[C@@H](NC(=O)CNC(=O)c1ccc2cc(Cl)ccc2n1)c1ccccc1

>  <score_type>  (37) 
oracle

>  <origin>  (37) 
autodockgpu

>  <m_score__min__energy>  (37) 
-8.7899999999999991

>  <m_primary>  (37) 
energy

>  <rmsd>  (37) 
9.919686195671991

>  <m_score__min__rmsd>  (37) 
9.919686195671991

>  <meeko>  (37) 
{"free_energy": -8.14, "intermolecular_energy": -9.63, "internal_energy": -2.04, "cluster_size": 34, "cluster_id": 3, "rank_in_cluster": 29}

>  <energy>  (37) 
-8.15

>  <cluster_rmsd>  (37) 
0.41

>  <cluster>  (37) 
3

$$$$

     RDKit          3D

 44 46  0  0  0  0  0  0  0  0999 V2000
  139.2620   68.1340  225.3570 C   0  0  0  0  0  0  0  0  0  0  0  0
  140.1620   69.2920  225.0140 C   0  0  1  0  0  0  0  0  0  0  0  0
  139.6550   70.0670  223.8970 N   0  0  0  0  0  0  0  0  0  0  0  0
  138.3550   70.5860  223.8430 C   0  0  0  0  0  0  0  0  0  0  0  0
  137.6050   70.3480  224.8550 O   0  0  0  0  0  0  0  0  0  0  0  0
  137.7670   71.3710  222.7590 C   0  0  0  0  0  0  0  0  0  0  0  0
  138.3530   72.6450  222.5040 N   0  0  0  0  0  0  0  0  0  0  0  0
  139.6560   72.8180  221.9520 C   0  0  0  0  0  0  0  0  0  0  0  0
  140.3930   71.8200  221.6420 O   0  0  0  0  0  0  0  0  0  0  0  0
  140.1800   74.1870  221.7290 C   0  0  0  0  0  0  0  0  0  0  0  0
  141.2730   74.3670  220.9070 C   0  0  0  0  0  0  0  0  0  0  0  0
  141.8060   75.6250  220.6620 C   0  0  0  0  0  0  0  0  0  0  0  0
  141.1820   76.6860  221.2880 C   0  0  0  0  0  0  0  0  0  0  0  0
  141.7060   77.9580  221.0530 C   0  0  0  0  0  0  0  0  0  0  0  0
  141.1050   79.0570  221.6660 C   0  0  0  0  0  0  0  0  0  0  0  0
  141.7560   80.6640  221.3760 Cl  0  0  0  0  0  0  0  0  0  0  0  0
  140.0120   78.8450  222.4830 C   0  0  0  0  0  0  0  0  0  0  0  0
  139.4820   77.5950  222.7250 C   0  0  0  0  0  0  0  0  0  0  0  0
  140.0870   76.5150  222.1130 C   0  0  0  0  0  0  0  0  0  0  0  0
  139.6090   75.2580  222.3150 N   0  0  0  0  0  0  0  0  0  0  0  0
  140.3860   70.2010  226.1490 C   0  0  0  0  0  0  0  0  0  0  0  0
  139.7820   69.9300  227.3500 C   0  0  0  0  0  0  0  0  0  0  0  0
  139.9390   70.7370  228.4740 C   0  0  0  0  0  0  0  0  0  0  0  0
  140.7530   71.8560  228.3280 C   0  0  0  0  0  0  0  0  0  0  0  0
  141.3790   72.1690  227.1440 C   0  0  0  0  0  0  0  0  0  0  0  0
  141.1780   71.3260  226.0760 C   0  0  0  0  0  0  0  0  0  0  0  0
  139.1878   68.0386  226.4503 H   0  0  0  0  0  0  0  0  0  0  0  0
  138.2613   68.3100  224.9356 H   0  0  0  0  0  0  0  0  0  0  0  0
  139.6796   67.2077  224.9356 H   0  0  0  0  0  0  0  0  0  0  0  0
  141.1210   68.8297  224.7373 H   0  0  0  0  0  0  0  0  0  0  0  0
  140.3100   70.2370  223.1120 H   0  0  0  0  0  0  0  0  0  0  0  0
  137.8448   70.7770  221.8364 H   0  0  0  0  0  0  0  0  0  0  0  0
  136.7369   71.5844  223.0807 H   0  0  0  0  0  0  0  0  0  0  0  0
  137.8310   73.5480  222.7180 H   0  0  0  0  0  0  0  0  0  0  0  0
  141.7352   73.4889  220.4323 H   0  0  0  0  0  0  0  0  0  0  0  0
  142.6770   75.7688  220.0057 H   0  0  0  0  0  0  0  0  0  0  0  0
  142.5779   78.0914  220.3957 H   0  0  0  0  0  0  0  0  0  0  0  0
  139.5414   79.7152  222.9640 H   0  0  0  0  0  0  0  0  0  0  0  0
  138.6093   77.4631  223.3815 H   0  0  0  0  0  0  0  0  0  0  0  0
  139.1457   69.0362  227.4289 H   0  0  0  0  0  0  0  0  0  0  0  0
  139.4449   70.5019  229.4282 H   0  0  0  0  0  0  0  0  0  0  0  0
  140.9019   72.5170  229.1945 H   0  0  0  0  0  0  0  0  0  0  0  0
  142.0169   73.0607  227.0545 H   0  0  0  0  0  0  0  0  0  0  0  0
  141.6714   71.5604  225.1212 H   0  0  0  0  0  0  0  0  0  0  0  0
  1  2  1  0
  2  3  1  0
  3  4  1  0
  4  5  2  0
  4  6  1  0
  6  7  1  0
  7  8  1  0
  8  9  2  0
  8 10  1  0
 10 11  2  0
 11 12  1  0
 12 13  2  0
 13 14  1  0
 14 15  2  0
 15 16  1  0
 15 17  1  0
 17 18  2  0
 18 19  1  0
 19 20  2  0
  2 21  1  0
 21 22  2  0
 22 23  1  0
 23 24  2  0
 24 25  1  0
 25 26  2  0
 20 10  1  0
 26 21  1  0
 19 13  1  0
  1 27  1  0
  1 28  1  0
  1 29  1  0
  2 30  1  6
  3 31  1  0
  6 32  1  0
  6 33  1  0
  7 34  1  0
 11 35  1  0
 12 36  1  0
 14 37  1  0
 17 38  1  0
 18 39  1  0
 22 40  1  0
 23 41  1  0
 24 42  1  0
 25 43  1  0
 26 44  1  0
M  END
>  <smiles>  (38) 
C[C@@H](NC(=O)CNC(=O)c1ccc2cc(Cl)ccc2n1)c1ccccc1

>  <score_type>  (38) 
oracle

>  <origin>  (38) 
autodockgpu

>  <m_score__min__energy>  (38) 
-8.7899999999999991

>  <m_primary>  (38) 
energy

>  <rmsd>  (38) 
9.755464589479416

>  <m_score__min__rmsd>  (38) 
9.755464589479416

>  <meeko>  (38) 
{"free_energy": -8.17, "intermolecular_energy": -9.66, "internal_energy": -2.06, "cluster_size": 34, "cluster_id": 3, "rank_in_cluster": 11}

>  <energy>  (38) 
-8.14

>  <cluster_rmsd>  (38) 
0.42

>  <cluster>  (38) 
3

$$$$

     RDKit          3D

 44 46  0  0  0  0  0  0  0  0999 V2000
  139.2520   68.3490  225.0290 C   0  0  0  0  0  0  0  0  0  0  0  0
  140.1410   69.5390  224.7810 C   0  0  1  0  0  0  0  0  0  0  0  0
  139.6200   70.4030  223.7390 N   0  0  0  0  0  0  0  0  0  0  0  0
  138.2820   70.8140  223.6740 C   0  0  0  0  0  0  0  0  0  0  0  0
  137.5100   70.3880  224.6030 O   0  0  0  0  0  0  0  0  0  0  0  0
  137.6780   71.6780  222.6610 C   0  0  0  0  0  0  0  0  0  0  0  0
  138.3030   72.9410  222.4450 N   0  0  0  0  0  0  0  0  0  0  0  0
  139.5910   73.0940  221.8550 C   0  0  0  0  0  0  0  0  0  0  0  0
  140.2790   72.0870  221.4710 O   0  0  0  0  0  0  0  0  0  0  0  0
  140.1580   74.4530  221.6790 C   0  0  0  0  0  0  0  0  0  0  0  0
  141.2640   74.6240  220.8730 C   0  0  0  0  0  0  0  0  0  0  0  0
  141.8370   75.8720  220.6710 C   0  0  0  0  0  0  0  0  0  0  0  0
  141.2390   76.9330  221.3220 C   0  0  0  0  0  0  0  0  0  0  0  0
  141.8040   78.1940  221.1310 C   0  0  0  0  0  0  0  0  0  0  0  0
  141.2290   79.2920  221.7710 C   0  0  0  0  0  0  0  0  0  0  0  0
  141.9310   80.8870  221.5360 Cl  0  0  0  0  0  0  0  0  0  0  0  0
  140.1220   79.0900  222.5710 C   0  0  0  0  0  0  0  0  0  0  0  0
  139.5520   77.8490  222.7710 C   0  0  0  0  0  0  0  0  0  0  0  0
  140.1310   76.7700  222.1320 C   0  0  0  0  0  0  0  0  0  0  0  0
  139.6140   75.5220  222.2910 N   0  0  0  0  0  0  0  0  0  0  0  0
  140.3690   70.3470  225.9890 C   0  0  0  0  0  0  0  0  0  0  0  0
  139.8380   69.9280  227.1820 C   0  0  0  0  0  0  0  0  0  0  0  0
  140.0040   70.6330  228.3720 C   0  0  0  0  0  0  0  0  0  0  0  0
  140.7480   71.8060  228.3010 C   0  0  0  0  0  0  0  0  0  0  0  0
  141.2990   72.2670  227.1280 C   0  0  0  0  0  0  0  0  0  0  0  0
  141.0940   71.5190  225.9930 C   0  0  0  0  0  0  0  0  0  0  0  0
  139.1378   68.1961  226.1123 H   0  0  0  0  0  0  0  0  0  0  0  0
  138.2649   68.5284  224.5779 H   0  0  0  0  0  0  0  0  0  0  0  0
  139.7040   67.4533  224.5779 H   0  0  0  0  0  0  0  0  0  0  0  0
  141.1011   69.1103  224.4579 H   0  0  0  0  0  0  0  0  0  0  0  0
  140.2940   70.7260  223.0200 H   0  0  0  0  0  0  0  0  0  0  0  0
  137.6901   71.1319  221.7062 H   0  0  0  0  0  0  0  0  0  0  0  0
  136.6730   71.9128  223.0416 H   0  0  0  0  0  0  0  0  0  0  0  0
  137.8230   73.8510  222.7220 H   0  0  0  0  0  0  0  0  0  0  0  0
  141.7044   73.7468  220.3763 H   0  0  0  0  0  0  0  0  0  0  0  0
  142.7189   76.0084  220.0278 H   0  0  0  0  0  0  0  0  0  0  0  0
  142.6870   78.3203  220.4873 H   0  0  0  0  0  0  0  0  0  0  0  0
  139.6728   79.9597  223.0730 H   0  0  0  0  0  0  0  0  0  0  0  0
  138.6693   77.7239  223.4154 H   0  0  0  0  0  0  0  0  0  0  0  0
  139.2558   68.9949  227.2000 H   0  0  0  0  0  0  0  0  0  0  0  0
  139.5692   70.2802  229.3188 H   0  0  0  0  0  0  0  0  0  0  0  0
  140.9021   72.3891  229.2209 H   0  0  0  0  0  0  0  0  0  0  0  0
  141.8819   73.1994  227.0992 H   0  0  0  0  0  0  0  0  0  0  0  0
  141.5280   71.8717  225.0457 H   0  0  0  0  0  0  0  0  0  0  0  0
  1  2  1  0
  2  3  1  0
  3  4  1  0
  4  5  2  0
  4  6  1  0
  6  7  1  0
  7  8  1  0
  8  9  2  0
  8 10  1  0
 10 11  2  0
 11 12  1  0
 12 13  2  0
 13 14  1  0
 14 15  2  0
 15 16  1  0
 15 17  1  0
 17 18  2  0
 18 19  1  0
 19 20  2  0
  2 21  1  0
 21 22  2  0
 22 23  1  0
 23 24  2  0
 24 25  1  0
 25 26  2  0
 20 10  1  0
 26 21  1  0
 19 13  1  0
  1 27  1  0
  1 28  1  0
  1 29  1  0
  2 30  1  6
  3 31  1  0
  6 32  1  0
  6 33  1  0
  7 34  1  0
 11 35  1  0
 12 36  1  0
 14 37  1  0
 17 38  1  0
 18 39  1  0
 22 40  1  0
 23 41  1  0
 24 42  1  0
 25 43  1  0
 26 44  1  0
M  END
>  <smiles>  (39) 
C[C@@H](NC(=O)CNC(=O)c1ccc2cc(Cl)ccc2n1)c1ccccc1

>  <score_type>  (39) 
oracle

>  <origin>  (39) 
autodockgpu

>  <m_score__min__energy>  (39) 
-8.7899999999999991

>  <m_primary>  (39) 
energy

>  <rmsd>  (39) 
9.692857215978629

>  <m_score__min__rmsd>  (39) 
9.692857215978629

>  <meeko>  (39) 
{"free_energy": -8.11, "intermolecular_energy": -9.6, "internal_energy": -2.0, "cluster_size": 34, "cluster_id": 3, "rank_in_cluster": 32}

>  <energy>  (39) 
-8.14

>  <cluster_rmsd>  (39) 
0.39

>  <cluster>  (39) 
3

$$$$

     RDKit          3D

 44 46  0  0  0  0  0  0  0  0999 V2000
  140.1270   67.4250  226.4120 C   0  0  0  0  0  0  0  0  0  0  0  0
  139.7710   68.6850  225.6690 C   0  0  1  0  0  0  0  0  0  0  0  0
  138.3480   68.7760  225.3990 N   0  0  0  0  0  0  0  0  0  0  0  0
  137.8200   69.2730  224.2000 C   0  0  0  0  0  0  0  0  0  0  0  0
  138.6680   69.6530  223.3180 O   0  0  0  0  0  0  0  0  0  0  0  0
  136.4060   69.4010  223.8500 C   0  0  0  0  0  0  0  0  0  0  0  0
  135.6850   70.4520  224.4880 N   0  0  0  0  0  0  0  0  0  0  0  0
  134.6700   70.2350  225.4640 C   0  0  0  0  0  0  0  0  0  0  0  0
  134.3380   69.0580  225.8390 O   0  0  0  0  0  0  0  0  0  0  0  0
  133.9720   71.3970  226.0650 C   0  0  0  0  0  0  0  0  0  0  0  0
  132.9150   71.1790  226.9240 C   0  0  0  0  0  0  0  0  0  0  0  0
  132.2250   72.2280  227.5170 C   0  0  0  0  0  0  0  0  0  0  0  0
  132.6550   73.5010  227.1980 C   0  0  0  0  0  0  0  0  0  0  0  0
  131.9720   74.5670  227.7850 C   0  0  0  0  0  0  0  0  0  0  0  0
  132.3760   75.8690  227.4890 C   0  0  0  0  0  0  0  0  0  0  0  0
  131.5240   77.2200  228.2230 Cl  0  0  0  0  0  0  0  0  0  0  0  0
  133.4380   76.0550  226.6250 C   0  0  0  0  0  0  0  0  0  0  0  0
  134.1230   75.0120  226.0370 C   0  0  0  0  0  0  0  0  0  0  0  0
  133.7130   73.7280  226.3380 C   0  0  0  0  0  0  0  0  0  0  0  0
  134.3500   72.6590  225.7890 N   0  0  0  0  0  0  0  0  0  0  0  0
  140.1920   69.9060  226.3720 C   0  0  0  0  0  0  0  0  0  0  0  0
  141.0150   70.7950  225.7290 C   0  0  0  0  0  0  0  0  0  0  0  0
  141.4620   71.9750  226.3200 C   0  0  0  0  0  0  0  0  0  0  0  0
  141.0310   72.2210  227.6200 C   0  0  0  0  0  0  0  0  0  0  0  0
  140.2060   71.3590  228.3050 C   0  0  0  0  0  0  0  0  0  0  0  0
  139.8050   70.2140  227.6580 C   0  0  0  0  0  0  0  0  0  0  0  0
  140.0745   67.6107  227.4949 H   0  0  0  0  0  0  0  0  0  0  0  0
  139.4190   66.6276  226.1420 H   0  0  0  0  0  0  0  0  0  0  0  0
  141.1476   67.1160  226.1420 H   0  0  0  0  0  0  0  0  0  0  0  0
  140.3238   68.6173  224.7204 H   0  0  0  0  0  0  0  0  0  0  0  0
  137.7090   68.4440  226.1450 H   0  0  0  0  0  0  0  0  0  0  0  0
  136.3441   69.5647  222.7640 H   0  0  0  0  0  0  0  0  0  0  0  0
  135.9345   68.4708  224.1997 H   0  0  0  0  0  0  0  0  0  0  0  0
  135.8780   71.4740  224.2590 H   0  0  0  0  0  0  0  0  0  0  0  0
  132.6102   70.1455  227.1454 H   0  0  0  0  0  0  0  0  0  0  0  0
  131.3826   72.0546  228.2028 H   0  0  0  0  0  0  0  0  0  0  0  0
  131.1301   74.3839  228.4689 H   0  0  0  0  0  0  0  0  0  0  0  0
  133.7522   77.0838  226.3951 H   0  0  0  0  0  0  0  0  0  0  0  0
  134.9649   75.1962  225.3535 H   0  0  0  0  0  0  0  0  0  0  0  0
  141.3362   70.5665  224.7020 H   0  0  0  0  0  0  0  0  0  0  0  0
  142.1213   72.6756  225.7867 H   0  0  0  0  0  0  0  0  0  0  0  0
  141.3635   73.1424  228.1205 H   0  0  0  0  0  0  0  0  0  0  0  0
  139.8793   71.5778  229.3323 H   0  0  0  0  0  0  0  0  0  0  0  0
  139.1459   69.5127  228.1907 H   0  0  0  0  0  0  0  0  0  0  0  0
  1  2  1  0
  2  3  1  0
  3  4  1  0
  4  5  2  0
  4  6  1  0
  6  7  1  0
  7  8  1  0
  8  9  2  0
  8 10  1  0
 10 11  2  0
 11 12  1  0
 12 13  2  0
 13 14  1  0
 14 15  2  0
 15 16  1  0
 15 17  1  0
 17 18  2  0
 18 19  1  0
 19 20  2  0
  2 21  1  0
 21 22  2  0
 22 23  1  0
 23 24  2  0
 24 25  1  0
 25 26  2  0
 20 10  1  0
 26 21  1  0
 19 13  1  0
  1 27  1  0
  1 28  1  0
  1 29  1  0
  2 30  1  6
  3 31  1  0
  6 32  1  0
  6 33  1  0
  7 34  1  0
 11 35  1  0
 12 36  1  0
 14 37  1  0
 17 38  1  0
 18 39  1  0
 22 40  1  0
 23 41  1  0
 24 42  1  0
 25 43  1  0
 26 44  1  0
M  END
>  <smiles>  (40) 
C[C@@H](NC(=O)CNC(=O)c1ccc2cc(Cl)ccc2n1)c1ccccc1

>  <score_type>  (40) 
oracle

>  <origin>  (40) 
autodockgpu

>  <m_score__min__energy>  (40) 
-8.7899999999999991

>  <m_primary>  (40) 
energy

>  <rmsd>  (40) 
10.671856343905965

>  <m_score__min__rmsd>  (40) 
10.671856343905965

>  <meeko>  (40) 
{"free_energy": -8.15, "intermolecular_energy": -9.64, "internal_energy": -1.35, "cluster_size": 10, "cluster_id": 1, "rank_in_cluster": 5}

>  <energy>  (40) 
-8.14

>  <cluster_rmsd>  (40) 
0.41

>  <cluster>  (40) 
3

$$$$

     RDKit          3D

 44 46  0  0  0  0  0  0  0  0999 V2000
  139.2620   68.1400  225.3760 C   0  0  0  0  0  0  0  0  0  0  0  0
  140.1690   69.2920  225.0340 C   0  0  1  0  0  0  0  0  0  0  0  0
  139.6690   70.0670  223.9130 N   0  0  0  0  0  0  0  0  0  0  0  0
  138.3720   70.5910  223.8550 C   0  0  0  0  0  0  0  0  0  0  0  0
  137.6170   70.3580  224.8640 O   0  0  0  0  0  0  0  0  0  0  0  0
  137.7900   71.3770  222.7680 C   0  0  0  0  0  0  0  0  0  0  0  0
  138.3800   72.6500  222.5150 N   0  0  0  0  0  0  0  0  0  0  0  0
  139.6840   72.8210  221.9650 C   0  0  0  0  0  0  0  0  0  0  0  0
  140.4190   71.8220  221.6540 O   0  0  0  0  0  0  0  0  0  0  0  0
  140.2110   74.1890  221.7460 C   0  0  0  0  0  0  0  0  0  0  0  0
  141.3130   74.3660  220.9350 C   0  0  0  0  0  0  0  0  0  0  0  0
  141.8500   75.6230  220.6930 C   0  0  0  0  0  0  0  0  0  0  0  0
  141.2210   76.6870  221.3100 C   0  0  0  0  0  0  0  0  0  0  0  0
  141.7480   77.9570  221.0780 C   0  0  0  0  0  0  0  0  0  0  0  0
  141.1420   79.0580  221.6830 C   0  0  0  0  0  0  0  0  0  0  0  0
  141.7970   80.6640  221.3980 Cl  0  0  0  0  0  0  0  0  0  0  0  0
  140.0410   78.8490  222.4910 C   0  0  0  0  0  0  0  0  0  0  0  0
  139.5080   77.5990  222.7290 C   0  0  0  0  0  0  0  0  0  0  0  0
  140.1170   76.5180  222.1250 C   0  0  0  0  0  0  0  0  0  0  0  0
  139.6360   75.2610  222.3240 N   0  0  0  0  0  0  0  0  0  0  0  0
  140.3960   70.2020  226.1670 C   0  0  0  0  0  0  0  0  0  0  0  0
  139.7860   69.9370  227.3670 C   0  0  0  0  0  0  0  0  0  0  0  0
  139.9460   70.7460  228.4900 C   0  0  0  0  0  0  0  0  0  0  0  0
  140.7680   71.8590  228.3430 C   0  0  0  0  0  0  0  0  0  0  0  0
  141.4010   72.1640  227.1600 C   0  0  0  0  0  0  0  0  0  0  0  0
  141.1970   71.3210  226.0940 C   0  0  0  0  0  0  0  0  0  0  0  0
  139.1868   68.0445  226.4693 H   0  0  0  0  0  0  0  0  0  0  0  0
  138.2626   68.3225  224.9543 H   0  0  0  0  0  0  0  0  0  0  0  0
  139.6739   67.2113  224.9543 H   0  0  0  0  0  0  0  0  0  0  0  0
  141.1265   68.8239  224.7619 H   0  0  0  0  0  0  0  0  0  0  0  0
  140.3280   70.2340  223.1300 H   0  0  0  0  0  0  0  0  0  0  0  0
  137.8704   70.7825  221.8460 H   0  0  0  0  0  0  0  0  0  0  0  0
  136.7590   71.5926  223.0852 H   0  0  0  0  0  0  0  0  0  0  0  0
  137.8600   73.5540  222.7310 H   0  0  0  0  0  0  0  0  0  0  0  0
  141.7792   73.4864  220.4670 H   0  0  0  0  0  0  0  0  0  0  0  0
  142.7280   75.7641  220.0456 H   0  0  0  0  0  0  0  0  0  0  0  0
  142.6265   78.0883  220.4291 H   0  0  0  0  0  0  0  0  0  0  0  0
  139.5671   79.7202  222.9669 H   0  0  0  0  0  0  0  0  0  0  0  0
  138.6289   77.4687  223.3772 H   0  0  0  0  0  0  0  0  0  0  0  0
  139.1432   69.0479  227.4459 H   0  0  0  0  0  0  0  0  0  0  0  0
  139.4481   70.5166  229.4437 H   0  0  0  0  0  0  0  0  0  0  0  0
  140.9179   72.5221  229.2078 H   0  0  0  0  0  0  0  0  0  0  0  0
  142.0467   73.0501  227.0708 H   0  0  0  0  0  0  0  0  0  0  0  0
  141.6951   71.5496  225.1403 H   0  0  0  0  0  0  0  0  0  0  0  0
  1  2  1  0
  2  3  1  0
  3  4  1  0
  4  5  2  0
  4  6  1  0
  6  7  1  0
  7  8  1  0
  8  9  2  0
  8 10  1  0
 10 11  2  0
 11 12  1  0
 12 13  2  0
 13 14  1  0
 14 15  2  0
 15 16  1  0
 15 17  1  0
 17 18  2  0
 18 19  1  0
 19 20  2  0
  2 21  1  0
 21 22  2  0
 22 23  1  0
 23 24  2  0
 24 25  1  0
 25 26  2  0
 20 10  1  0
 26 21  1  0
 19 13  1  0
  1 27  1  0
  1 28  1  0
  1 29  1  0
  2 30  1  6
  3 31  1  0
  6 32  1  0
  6 33  1  0
  7 34  1  0
 11 35  1  0
 12 36  1  0
 14 37  1  0
 17 38  1  0
 18 39  1  0
 22 40  1  0
 23 41  1  0
 24 42  1  0
 25 43  1  0
 26 44  1  0
M  END
>  <smiles>  (41) 
C[C@@H](NC(=O)CNC(=O)c1ccc2cc(Cl)ccc2n1)c1ccccc1

>  <score_type>  (41) 
oracle

>  <origin>  (41) 
autodockgpu

>  <m_score__min__energy>  (41) 
-8.7899999999999991

>  <m_primary>  (41) 
energy

>  <rmsd>  (41) 
9.756183094288794

>  <m_score__min__rmsd>  (41) 
9.756183094288794

>  <meeko>  (41) 
{"free_energy": -8.16, "intermolecular_energy": -9.65, "internal_energy": -2.05, "cluster_size": 34, "cluster_id": 3, "rank_in_cluster": 15}

>  <energy>  (41) 
-8.14

>  <cluster_rmsd>  (41) 
0.39

>  <cluster>  (41) 
3

$$$$

     RDKit          3D

 44 46  0  0  0  0  0  0  0  0999 V2000
  139.2010   68.1460  224.9450 C   0  0  0  0  0  0  0  0  0  0  0  0
  140.0910   69.3330  224.6860 C   0  0  1  0  0  0  0  0  0  0  0  0
  139.5220   70.2410  223.7080 N   0  0  0  0  0  0  0  0  0  0  0  0
  138.1680   70.6000  223.6850 C   0  0  0  0  0  0  0  0  0  0  0  0
  137.4260   70.0840  224.5920 O   0  0  0  0  0  0  0  0  0  0  0  0
  137.5150   71.5020  222.7370 C   0  0  0  0  0  0  0  0  0  0  0  0
  138.1720   72.7420  222.4820 N   0  0  0  0  0  0  0  0  0  0  0  0
  139.4650   72.8440  221.8930 C   0  0  0  0  0  0  0  0  0  0  0  0
  140.1300   71.8070  221.5460 O   0  0  0  0  0  0  0  0  0  0  0  0
  140.0660   74.1810  221.6730 C   0  0  0  0  0  0  0  0  0  0  0  0
  141.1640   74.3020  220.8480 C   0  0  0  0  0  0  0  0  0  0  0  0
  141.7670   75.5280  220.6050 C   0  0  0  0  0  0  0  0  0  0  0  0
  141.2080   76.6210  221.2380 C   0  0  0  0  0  0  0  0  0  0  0  0
  141.8030   77.8620  221.0060 C   0  0  0  0  0  0  0  0  0  0  0  0
  141.2680   78.9900  221.6260 C   0  0  0  0  0  0  0  0  0  0  0  0
  142.0090   80.5590  221.3400 Cl  0  0  0  0  0  0  0  0  0  0  0  0
  140.1680   78.8380  222.4480 C   0  0  0  0  0  0  0  0  0  0  0  0
  139.5690   77.6190  222.6870 C   0  0  0  0  0  0  0  0  0  0  0  0
  140.1080   76.5090  222.0680 C   0  0  0  0  0  0  0  0  0  0  0  0
  139.5600   75.2800  222.2660 N   0  0  0  0  0  0  0  0  0  0  0  0
  140.4030   70.0950  225.9060 C   0  0  0  0  0  0  0  0  0  0  0  0
  140.2630   69.4860  227.1260 C   0  0  0  0  0  0  0  0  0  0  0  0
  140.5350   70.1330  228.3290 C   0  0  0  0  0  0  0  0  0  0  0  0
  140.9650   71.4530  228.2410 C   0  0  0  0  0  0  0  0  0  0  0  0
  141.1200   72.1060  227.0400 C   0  0  0  0  0  0  0  0  0  0  0  0
  140.8320   71.4040  225.8940 C   0  0  0  0  0  0  0  0  0  0  0  0
  139.0913   67.9997  226.0297 H   0  0  0  0  0  0  0  0  0  0  0  0
  138.2122   68.3245  224.4972 H   0  0  0  0  0  0  0  0  0  0  0  0
  139.6494   67.2469  224.4972 H   0  0  0  0  0  0  0  0  0  0  0  0
  141.0234   68.9033  224.2910 H   0  0  0  0  0  0  0  0  0  0  0  0
  140.1720   70.6370  223.0050 H   0  0  0  0  0  0  0  0  0  0  0  0
  137.4224   70.9697  221.7788 H   0  0  0  0  0  0  0  0  0  0  0  0
  136.5565   71.7714  223.2047 H   0  0  0  0  0  0  0  0  0  0  0  0
  137.7130   73.6710  222.7250 H   0  0  0  0  0  0  0  0  0  0  0  0
  141.5739   73.4008  220.3686 H   0  0  0  0  0  0  0  0  0  0  0  0
  142.6416   75.6240  219.9449 H   0  0  0  0  0  0  0  0  0  0  0  0
  142.6785   77.9484  220.3457 H   0  0  0  0  0  0  0  0  0  0  0  0
  139.7502   79.7315  222.9348 H   0  0  0  0  0  0  0  0  0  0  0  0
  138.6932   77.5342  223.3471 H   0  0  0  0  0  0  0  0  0  0  0  0
  139.9210   68.4410  227.1562 H   0  0  0  0  0  0  0  0  0  0  0  0
  140.4160   69.6266  229.2982 H   0  0  0  0  0  0  0  0  0  0  0  0
  141.1904   71.9972  229.1700 H   0  0  0  0  0  0  0  0  0  0  0  0
  141.4616   73.1508  226.9985 H   0  0  0  0  0  0  0  0  0  0  0  0
  140.9493   71.9098  224.9243 H   0  0  0  0  0  0  0  0  0  0  0  0
  1  2  1  0
  2  3  1  0
  3  4  1  0
  4  5  2  0
  4  6  1  0
  6  7  1  0
  7  8  1  0
  8  9  2  0
  8 10  1  0
 10 11  2  0
 11 12  1  0
 12 13  2  0
 13 14  1  0
 14 15  2  0
 15 16  1  0
 15 17  1  0
 17 18  2  0
 18 19  1  0
 19 20  2  0
  2 21  1  0
 21 22  2  0
 22 23  1  0
 23 24  2  0
 24 25  1  0
 25 26  2  0
 20 10  1  0
 26 21  1  0
 19 13  1  0
  1 27  1  0
  1 28  1  0
  1 29  1  0
  2 30  1  6
  3 31  1  0
  6 32  1  0
  6 33  1  0
  7 34  1  0
 11 35  1  0
 12 36  1  0
 14 37  1  0
 17 38  1  0
 18 39  1  0
 22 40  1  0
 23 41  1  0
 24 42  1  0
 25 43  1  0
 26 44  1  0
M  END
>  <smiles>  (42) 
C[C@@H](NC(=O)CNC(=O)c1ccc2cc(Cl)ccc2n1)c1ccccc1

>  <score_type>  (42) 
oracle

>  <origin>  (42) 
autodockgpu

>  <m_score__min__energy>  (42) 
-8.7899999999999991

>  <m_primary>  (42) 
energy

>  <rmsd>  (42) 
9.787054379215853

>  <m_score__min__rmsd>  (42) 
9.787054379215853

>  <meeko>  (42) 
{"free_energy": -7.92, "intermolecular_energy": -9.41, "internal_energy": -1.94, "cluster_size": 34, "cluster_id": 3, "rank_in_cluster": 34}

>  <energy>  (42) 
-8.14

>  <cluster_rmsd>  (42) 
0.4

>  <cluster>  (42) 
3

$$$$

     RDKit          3D

 44 46  0  0  0  0  0  0  0  0999 V2000
  140.6190   67.3530  226.4350 C   0  0  0  0  0  0  0  0  0  0  0  0
  139.9840   68.5550  225.7870 C   0  0  1  0  0  0  0  0  0  0  0  0
  138.5420   68.4270  225.6900 N   0  0  0  0  0  0  0  0  0  0  0  0
  137.7310   69.3330  224.9940 C   0  0  0  0  0  0  0  0  0  0  0  0
  138.3300   70.3100  224.4220 O   0  0  0  0  0  0  0  0  0  0  0  0
  136.2770   69.2780  224.8500 C   0  0  0  0  0  0  0  0  0  0  0  0
  135.5520   70.4320  225.2710 N   0  0  0  0  0  0  0  0  0  0  0  0
  134.3740   70.3750  226.0710 C   0  0  0  0  0  0  0  0  0  0  0  0
  133.8850   69.2630  226.4710 O   0  0  0  0  0  0  0  0  0  0  0  0
  133.6880   71.6330  226.4520 C   0  0  0  0  0  0  0  0  0  0  0  0
  132.5000   71.5690  227.1510 C   0  0  0  0  0  0  0  0  0  0  0  0
  131.8140   72.7140  227.5340 C   0  0  0  0  0  0  0  0  0  0  0  0
  132.3860   73.9190  227.1780 C   0  0  0  0  0  0  0  0  0  0  0  0
  131.7090   75.0790  227.5550 C   0  0  0  0  0  0  0  0  0  0  0  0
  132.2540   76.3170  227.2130 C   0  0  0  0  0  0  0  0  0  0  0  0
  131.4090   77.7860  227.6840 Cl  0  0  0  0  0  0  0  0  0  0  0  0
  133.4440   76.3480  226.5140 C   0  0  0  0  0  0  0  0  0  0  0  0
  134.1250   75.2110  226.1340 C   0  0  0  0  0  0  0  0  0  0  0  0
  133.5760   73.9920  226.4770 C   0  0  0  0  0  0  0  0  0  0  0  0
  134.2020   72.8360  226.1290 N   0  0  0  0  0  0  0  0  0  0  0  0
  140.2960   69.8140  226.4800 C   0  0  0  0  0  0  0  0  0  0  0  0
  141.0940   70.7390  225.8560 C   0  0  0  0  0  0  0  0  0  0  0  0
  141.4390   71.9560  226.4410 C   0  0  0  0  0  0  0  0  0  0  0  0
  140.9300   72.2010  227.7120 C   0  0  0  0  0  0  0  0  0  0  0  0
  140.1260   71.3040  228.3770 C   0  0  0  0  0  0  0  0  0  0  0  0
  139.8280   70.1240  227.7390 C   0  0  0  0  0  0  0  0  0  0  0  0
  140.5652   67.4549  227.5289 H   0  0  0  0  0  0  0  0  0  0  0  0
  140.0837   66.4435  226.1247 H   0  0  0  0  0  0  0  0  0  0  0  0
  141.6720   67.2826  226.1247 H   0  0  0  0  0  0  0  0  0  0  0  0
  140.4194   68.5916  224.7775 H   0  0  0  0  0  0  0  0  0  0  0  0
  138.1140   67.6100  226.1630 H   0  0  0  0  0  0  0  0  0  0  0  0
  136.0525   69.1119  223.7860 H   0  0  0  0  0  0  0  0  0  0  0  0
  135.9486   68.4680  225.5179 H   0  0  0  0  0  0  0  0  0  0  0  0
  135.8670   71.4130  225.0020 H   0  0  0  0  0  0  0  0  0  0  0  0
  132.0851   70.5842  227.4119 H   0  0  0  0  0  0  0  0  0  0  0  0
  130.8666   72.6636  228.0906 H   0  0  0  0  0  0  0  0  0  0  0  0
  130.7624   75.0187  228.1120 H   0  0  0  0  0  0  0  0  0  0  0  0
  133.8693   77.3268  226.2474 H   0  0  0  0  0  0  0  0  0  0  0  0
  135.0718   75.2731  225.5775 H   0  0  0  0  0  0  0  0  0  0  0  0
  141.4780   70.5104  224.8509 H   0  0  0  0  0  0  0  0  0  0  0  0
  142.0806   72.6850  225.9243 H   0  0  0  0  0  0  0  0  0  0  0  0
  141.1806   73.1513  228.2061 H   0  0  0  0  0  0  0  0  0  0  0  0
  139.7363   71.5233  229.3820 H   0  0  0  0  0  0  0  0  0  0  0  0
  139.1875   69.3943  228.2560 H   0  0  0  0  0  0  0  0  0  0  0  0
  1  2  1  0
  2  3  1  0
  3  4  1  0
  4  5  2  0
  4  6  1  0
  6  7  1  0
  7  8  1  0
  8  9  2  0
  8 10  1  0
 10 11  2  0
 11 12  1  0
 12 13  2  0
 13 14  1  0
 14 15  2  0
 15 16  1  0
 15 17  1  0
 17 18  2  0
 18 19  1  0
 19 20  2  0
  2 21  1  0
 21 22  2  0
 22 23  1  0
 23 24  2  0
 24 25  1  0
 25 26  2  0
 20 10  1  0
 26 21  1  0
 19 13  1  0
  1 27  1  0
  1 28  1  0
  1 29  1  0
  2 30  1  6
  3 31  1  0
  6 32  1  0
  6 33  1  0
  7 34  1  0
 11 35  1  0
 12 36  1  0
 14 37  1  0
 17 38  1  0
 18 39  1  0
 22 40  1  0
 23 41  1  0
 24 42  1  0
 25 43  1  0
 26 44  1  0
M  END
>  <smiles>  (43) 
C[C@@H](NC(=O)CNC(=O)c1ccc2cc(Cl)ccc2n1)c1ccccc1

>  <score_type>  (43) 
oracle

>  <origin>  (43) 
autodockgpu

>  <m_score__min__energy>  (43) 
-8.7899999999999991

>  <m_primary>  (43) 
energy

>  <rmsd>  (43) 
10.888467687307992

>  <m_score__min__rmsd>  (43) 
10.888467687307992

>  <meeko>  (43) 
{"free_energy": -8.79, "intermolecular_energy": -10.29, "internal_energy": -1.4, "cluster_size": 10, "cluster_id": 1, "rank_in_cluster": 1}

>  <energy>  (43) 
-8.13

>  <cluster_rmsd>  (43) 
0.38

>  <cluster>  (43) 
3

$$$$

     RDKit          3D

 44 46  0  0  0  0  0  0  0  0999 V2000
  143.0740   75.9650  218.4130 C   0  0  0  0  0  0  0  0  0  0  0  0
  143.2070   75.4020  219.8040 C   0  0  1  0  0  0  0  0  0  0  0  0
  141.9580   74.8460  220.2900 N   0  0  0  0  0  0  0  0  0  0  0  0
  140.8510   75.6270  220.6480 C   0  0  0  0  0  0  0  0  0  0  0  0
  140.9850   76.8950  220.5220 O   0  0  0  0  0  0  0  0  0  0  0  0
  139.5630   75.1490  221.1470 C   0  0  0  0  0  0  0  0  0  0  0  0
  139.6050   74.1540  222.1680 N   0  0  0  0  0  0  0  0  0  0  0  0
  140.0940   72.8320  221.9620 C   0  0  0  0  0  0  0  0  0  0  0  0
  140.5380   72.4470  220.8260 O   0  0  0  0  0  0  0  0  0  0  0  0
  140.0900   71.8670  223.0880 C   0  0  0  0  0  0  0  0  0  0  0  0
  139.5720   70.6040  222.8940 C   0  0  0  0  0  0  0  0  0  0  0  0
  139.5430   69.6600  223.9120 C   0  0  0  0  0  0  0  0  0  0  0  0
  140.0600   70.0560  225.1290 C   0  0  0  0  0  0  0  0  0  0  0  0
  140.0380   69.1190  226.1630 C   0  0  0  0  0  0  0  0  0  0  0  0
  140.5510   69.4800  227.4080 C   0  0  0  0  0  0  0  0  0  0  0  0
  140.5290   68.3080  228.7190 Cl  0  0  0  0  0  0  0  0  0  0  0  0
  141.0620   70.7530  227.5730 C   0  0  0  0  0  0  0  0  0  0  0  0
  141.0920   71.6900  226.5610 C   0  0  0  0  0  0  0  0  0  0  0  0
  140.5800   71.3200  225.3330 C   0  0  0  0  0  0  0  0  0  0  0  0
  140.5820   72.2020  224.2970 N   0  0  0  0  0  0  0  0  0  0  0  0
  144.2500   74.3710  219.9090 C   0  0  0  0  0  0  0  0  0  0  0  0
  145.2500   74.5260  220.8350 C   0  0  0  0  0  0  0  0  0  0  0  0
  146.2770   73.5990  221.0000 C   0  0  0  0  0  0  0  0  0  0  0  0
  146.2470   72.4830  220.1690 C   0  0  0  0  0  0  0  0  0  0  0  0
  145.2650   72.2850  219.2260 C   0  0  0  0  0  0  0  0  0  0  0  0
  144.2840   73.2420  219.1190 C   0  0  0  0  0  0  0  0  0  0  0  0
  142.8215   77.0340  218.4727 H   0  0  0  0  0  0  0  0  0  0  0  0
  144.0258   75.8425  217.8753 H   0  0  0  0  0  0  0  0  0  0  0  0
  142.2776   75.4296  217.8753 H   0  0  0  0  0  0  0  0  0  0  0  0
  143.4965   76.2602  220.4283 H   0  0  0  0  0  0  0  0  0  0  0  0
  141.9030   73.8130  220.3600 H   0  0  0  0  0  0  0  0  0  0  0  0
  139.0174   76.0160  221.5477 H   0  0  0  0  0  0  0  0  0  0  0  0
  139.0801   74.6626  220.2866 H   0  0  0  0  0  0  0  0  0  0  0  0
  139.2660   74.3610  223.1550 H   0  0  0  0  0  0  0  0  0  0  0  0
  139.1706   70.3367  221.9053 H   0  0  0  0  0  0  0  0  0  0  0  0
  139.1307   68.6520  223.7571 H   0  0  0  0  0  0  0  0  0  0  0  0
  139.6233   68.1135  225.9986 H   0  0  0  0  0  0  0  0  0  0  0  0
  141.4640   71.0326  228.5580 H   0  0  0  0  0  0  0  0  0  0  0  0
  141.5083   72.6947  226.7261 H   0  0  0  0  0  0  0  0  0  0  0  0
  145.2407   75.4207  221.4749 H   0  0  0  0  0  0  0  0  0  0  0  0
  147.0705   73.7418  221.7483 H   0  0  0  0  0  0  0  0  0  0  0  0
  147.0409   71.7284  220.2703 H   0  0  0  0  0  0  0  0  0  0  0  0
  145.2649   71.3937  218.5814 H   0  0  0  0  0  0  0  0  0  0  0  0
  143.4911   73.1005  218.3698 H   0  0  0  0  0  0  0  0  0  0  0  0
  1  2  1  0
  2  3  1  0
  3  4  1  0
  4  5  2  0
  4  6  1  0
  6  7  1  0
  7  8  1  0
  8  9  2  0
  8 10  1  0
 10 11  2  0
 11 12  1  0
 12 13  2  0
 13 14  1  0
 14 15  2  0
 15 16  1  0
 15 17  1  0
 17 18  2  0
 18 19  1  0
 19 20  2  0
  2 21  1  0
 21 22  2  0
 22 23  1  0
 23 24  2  0
 24 25  1  0
 25 26  2  0
 20 10  1  0
 26 21  1  0
 19 13  1  0
  1 27  1  0
  1 28  1  0
  1 29  1  0
  2 30  1  1
  3 31  1  0
  6 32  1  0
  6 33  1  0
  7 34  1  0
 11 35  1  0
 12 36  1  0
 14 37  1  0
 17 38  1  0
 18 39  1  0
 22 40  1  0
 23 41  1  0
 24 42  1  0
 25 43  1  0
 26 44  1  0
M  END
>  <smiles>  (44) 
C[C@@H](NC(=O)CNC(=O)c1ccc2cc(Cl)ccc2n1)c1ccccc1

>  <score_type>  (44) 
oracle

>  <origin>  (44) 
autodockgpu

>  <m_score__min__energy>  (44) 
-8.7899999999999991

>  <m_primary>  (44) 
energy

>  <rmsd>  (44) 
6.494245083594776

>  <m_score__min__rmsd>  (44) 
6.494245083594776

>  <meeko>  (44) 
{"free_energy": -7.98, "intermolecular_energy": -9.47, "internal_energy": -1.85, "cluster_size": 2, "cluster_id": 5, "rank_in_cluster": 2}

>  <energy>  (44) 
-8.11

>  <cluster_rmsd>  (44) 
0.61

>  <cluster>  (44) 
3

$$$$

     RDKit          3D

 44 46  0  0  0  0  0  0  0  0999 V2000
  140.4870   67.3830  226.2920 C   0  0  0  0  0  0  0  0  0  0  0  0
  139.8710   68.6120  225.6780 C   0  0  1  0  0  0  0  0  0  0  0  0
  138.4280   68.5060  225.5710 N   0  0  0  0  0  0  0  0  0  0  0  0
  137.6440   69.3780  224.8050 C   0  0  0  0  0  0  0  0  0  0  0  0
  138.2690   70.3020  224.1750 O   0  0  0  0  0  0  0  0  0  0  0  0
  136.1910   69.3420  224.6470 C   0  0  0  0  0  0  0  0  0  0  0  0
  135.4730   70.4900  225.0940 N   0  0  0  0  0  0  0  0  0  0  0  0
  134.3790   70.4320  226.0050 C   0  0  0  0  0  0  0  0  0  0  0  0
  133.9660   69.3220  226.4900 O   0  0  0  0  0  0  0  0  0  0  0  0
  133.6930   71.6830  226.4050 C   0  0  0  0  0  0  0  0  0  0  0  0
  132.5140   71.6100  227.1170 C   0  0  0  0  0  0  0  0  0  0  0  0
  131.8280   72.7480  227.5190 C   0  0  0  0  0  0  0  0  0  0  0  0
  132.3920   73.9580  227.1660 C   0  0  0  0  0  0  0  0  0  0  0  0
  131.7150   75.1130  227.5610 C   0  0  0  0  0  0  0  0  0  0  0  0
  132.2510   76.3550  227.2240 C   0  0  0  0  0  0  0  0  0  0  0  0
  131.4070   77.8170  227.7180 Cl  0  0  0  0  0  0  0  0  0  0  0  0
  133.4330   76.3970  226.5110 C   0  0  0  0  0  0  0  0  0  0  0  0
  134.1130   75.2650  226.1130 C   0  0  0  0  0  0  0  0  0  0  0  0
  133.5720   74.0410  226.4520 C   0  0  0  0  0  0  0  0  0  0  0  0
  134.1980   72.8910  226.0870 N   0  0  0  0  0  0  0  0  0  0  0  0
  140.1960   69.8460  226.4100 C   0  0  0  0  0  0  0  0  0  0  0  0
  141.0200   70.7720  225.8230 C   0  0  0  0  0  0  0  0  0  0  0  0
  141.3800   71.9660  226.4460 C   0  0  0  0  0  0  0  0  0  0  0  0
  140.8570   72.1860  227.7160 C   0  0  0  0  0  0  0  0  0  0  0  0
  140.0270   71.2870  228.3450 C   0  0  0  0  0  0  0  0  0  0  0  0
  139.7160   70.1300  227.6700 C   0  0  0  0  0  0  0  0  0  0  0  0
  140.4475   67.4618  227.3885 H   0  0  0  0  0  0  0  0  0  0  0  0
  139.9288   66.4922  225.9681 H   0  0  0  0  0  0  0  0  0  0  0  0
  141.5347   67.2971  225.9681 H   0  0  0  0  0  0  0  0  0  0  0  0
  140.3119   68.6731  224.6721 H   0  0  0  0  0  0  0  0  0  0  0  0
  137.9780   67.7320  226.0930 H   0  0  0  0  0  0  0  0  0  0  0  0
  135.9746   69.2085  223.5768 H   0  0  0  0  0  0  0  0  0  0  0  0
  135.8491   68.5170  225.2892 H   0  0  0  0  0  0  0  0  0  0  0  0
  135.7300   71.4680  224.7610 H   0  0  0  0  0  0  0  0  0  0  0  0
  132.1055   70.6215  227.3738 H   0  0  0  0  0  0  0  0  0  0  0  0
  130.8878   72.6891  228.0869 H   0  0  0  0  0  0  0  0  0  0  0  0
  130.7750   75.0444  228.1283 H   0  0  0  0  0  0  0  0  0  0  0  0
  133.8519   77.3796  226.2481 H   0  0  0  0  0  0  0  0  0  0  0  0
  135.0529   75.3350  225.5457 H   0  0  0  0  0  0  0  0  0  0  0  0
  141.4138   70.5636  224.8173 H   0  0  0  0  0  0  0  0  0  0  0  0
  142.0430   72.6960  225.9587 H   0  0  0  0  0  0  0  0  0  0  0  0
  141.1179   73.1177  228.2393 H   0  0  0  0  0  0  0  0  0  0  0  0
  139.6271   71.4862  229.3502 H   0  0  0  0  0  0  0  0  0  0  0  0
  139.0546   69.3987  228.1576 H   0  0  0  0  0  0  0  0  0  0  0  0
  1  2  1  0
  2  3  1  0
  3  4  1  0
  4  5  2  0
  4  6  1  0
  6  7  1  0
  7  8  1  0
  8  9  2  0
  8 10  1  0
 10 11  2  0
 11 12  1  0
 12 13  2  0
 13 14  1  0
 14 15  2  0
 15 16  1  0
 15 17  1  0
 17 18  2  0
 18 19  1  0
 19 20  2  0
  2 21  1  0
 21 22  2  0
 22 23  1  0
 23 24  2  0
 24 25  1  0
 25 26  2  0
 20 10  1  0
 26 21  1  0
 19 13  1  0
  1 27  1  0
  1 28  1  0
  1 29  1  0
  2 30  1  6
  3 31  1  0
  6 32  1  0
  6 33  1  0
  7 34  1  0
 11 35  1  0
 12 36  1  0
 14 37  1  0
 17 38  1  0
 18 39  1  0
 22 40  1  0
 23 41  1  0
 24 42  1  0
 25 43  1  0
 26 44  1  0
M  END
>  <smiles>  (45) 
C[C@@H](NC(=O)CNC(=O)c1ccc2cc(Cl)ccc2n1)c1ccccc1

>  <score_type>  (45) 
oracle

>  <origin>  (45) 
autodockgpu

>  <m_score__min__energy>  (45) 
-8.7899999999999991

>  <m_primary>  (45) 
energy

>  <rmsd>  (45) 
10.854868820556696

>  <m_score__min__rmsd>  (45) 
10.854868820556696

>  <meeko>  (45) 
{"free_energy": -8.77, "intermolecular_energy": -10.26, "internal_energy": -1.38, "cluster_size": 10, "cluster_id": 1, "rank_in_cluster": 2}

>  <energy>  (45) 
-8.1

>  <cluster_rmsd>  (45) 
0.62

>  <cluster>  (45) 
3

$$$$

     RDKit          3D

 44 46  0  0  0  0  0  0  0  0999 V2000
  139.2130   68.1040  225.2930 C   0  0  0  0  0  0  0  0  0  0  0  0
  140.1070   69.2770  224.9890 C   0  0  1  0  0  0  0  0  0  0  0  0
  139.6120   70.0680  223.8770 N   0  0  0  0  0  0  0  0  0  0  0  0
  138.3130   70.5880  223.8180 C   0  0  0  0  0  0  0  0  0  0  0  0
  137.5520   70.3350  224.8180 O   0  0  0  0  0  0  0  0  0  0  0  0
  137.7360   71.3890  222.7400 C   0  0  0  0  0  0  0  0  0  0  0  0
  138.3370   72.6590  222.4980 N   0  0  0  0  0  0  0  0  0  0  0  0
  139.6400   72.8240  221.9450 C   0  0  0  0  0  0  0  0  0  0  0  0
  140.3650   71.8210  221.6210 O   0  0  0  0  0  0  0  0  0  0  0  0
  140.1790   74.1890  221.7370 C   0  0  0  0  0  0  0  0  0  0  0  0
  141.2960   74.3610  220.9470 C   0  0  0  0  0  0  0  0  0  0  0  0
  141.8450   75.6160  220.7170 C   0  0  0  0  0  0  0  0  0  0  0  0
  141.2110   76.6820  221.3240 C   0  0  0  0  0  0  0  0  0  0  0  0
  141.7500   77.9490  221.1040 C   0  0  0  0  0  0  0  0  0  0  0  0
  141.1390   79.0520  221.7000 C   0  0  0  0  0  0  0  0  0  0  0  0
  141.8090   80.6560  221.4290 Cl  0  0  0  0  0  0  0  0  0  0  0  0
  140.0220   78.8490  222.4870 C   0  0  0  0  0  0  0  0  0  0  0  0
  139.4770   77.6020  222.7140 C   0  0  0  0  0  0  0  0  0  0  0  0
  140.0910   76.5180  222.1190 C   0  0  0  0  0  0  0  0  0  0  0  0
  139.6000   75.2640  222.3060 N   0  0  0  0  0  0  0  0  0  0  0  0
  140.3030   70.1650  226.1440 C   0  0  0  0  0  0  0  0  0  0  0  0
  141.0970   71.2750  226.0060 C   0  0  0  0  0  0  0  0  0  0  0  0
  141.3360   72.1680  227.0480 C   0  0  0  0  0  0  0  0  0  0  0  0
  140.7230   71.8830  228.2640 C   0  0  0  0  0  0  0  0  0  0  0  0
  139.9180   70.7820  228.4510 C   0  0  0  0  0  0  0  0  0  0  0  0
  139.7280   69.9450  227.3780 C   0  0  0  0  0  0  0  0  0  0  0  0
  139.1222   67.9849  226.3828 H   0  0  0  0  0  0  0  0  0  0  0  0
  138.2175   68.2795  224.8592 H   0  0  0  0  0  0  0  0  0  0  0  0
  139.6462   67.1907  224.8592 H   0  0  0  0  0  0  0  0  0  0  0  0
  141.0756   68.8297  224.7212 H   0  0  0  0  0  0  0  0  0  0  0  0
  140.2760   70.2500  223.1020 H   0  0  0  0  0  0  0  0  0  0  0  0
  137.8092   70.8026  221.8122 H   0  0  0  0  0  0  0  0  0  0  0  0
  136.7075   71.6107  223.0612 H   0  0  0  0  0  0  0  0  0  0  0  0
  137.8260   73.5660  222.7250 H   0  0  0  0  0  0  0  0  0  0  0  0
  141.7655   73.4795  220.4860 H   0  0  0  0  0  0  0  0  0  0  0  0
  142.7356   75.7531  220.0861 H   0  0  0  0  0  0  0  0  0  0  0  0
  142.6411   78.0763  220.4717 H   0  0  0  0  0  0  0  0  0  0  0  0
  139.5446   79.7227  222.9547 H   0  0  0  0  0  0  0  0  0  0  0  0
  138.5856   77.4760  223.3461 H   0  0  0  0  0  0  0  0  0  0  0  0
  141.5655   71.4684  225.0297 H   0  0  0  0  0  0  0  0  0  0  0  0
  141.9762   73.0527  226.9163 H   0  0  0  0  0  0  0  0  0  0  0  0
  140.8884   72.5654  229.1108 H   0  0  0  0  0  0  0  0  0  0  0  0
  139.4446   70.5799  229.4231 H   0  0  0  0  0  0  0  0  0  0  0  0
  139.0885   69.0597  227.5092 H   0  0  0  0  0  0  0  0  0  0  0  0
  1  2  1  0
  2  3  1  0
  3  4  1  0
  4  5  2  0
  4  6  1  0
  6  7  1  0
  7  8  1  0
  8  9  2  0
  8 10  1  0
 10 11  2  0
 11 12  1  0
 12 13  2  0
 13 14  1  0
 14 15  2  0
 15 16  1  0
 15 17  1  0
 17 18  2  0
 18 19  1  0
 19 20  2  0
  2 21  1  0
 21 22  2  0
 22 23  1  0
 23 24  2  0
 24 25  1  0
 25 26  2  0
 20 10  1  0
 26 21  1  0
 19 13  1  0
  1 27  1  0
  1 28  1  0
  1 29  1  0
  2 30  1  6
  3 31  1  0
  6 32  1  0
  6 33  1  0
  7 34  1  0
 11 35  1  0
 12 36  1  0
 14 37  1  0
 17 38  1  0
 18 39  1  0
 22 40  1  0
 23 41  1  0
 24 42  1  0
 25 43  1  0
 26 44  1  0
M  END
>  <smiles>  (46) 
C[C@@H](NC(=O)CNC(=O)c1ccc2cc(Cl)ccc2n1)c1ccccc1

>  <score_type>  (46) 
oracle

>  <origin>  (46) 
autodockgpu

>  <m_score__min__energy>  (46) 
-8.7899999999999991

>  <m_primary>  (46) 
energy

>  <rmsd>  (46) 
9.937304505529152

>  <m_score__min__rmsd>  (46) 
9.937304505529152

>  <meeko>  (46) 
{"free_energy": -8.16, "intermolecular_energy": -9.65, "internal_energy": -2.08, "cluster_size": 34, "cluster_id": 3, "rank_in_cluster": 17}

>  <energy>  (46) 
-7.92

>  <cluster_rmsd>  (46) 
0.59

>  <cluster>  (46) 
3

$$$$

     RDKit          3D

 44 46  0  0  0  0  0  0  0  0999 V2000
  139.2560   67.8890  225.5160 C   0  0  0  0  0  0  0  0  0  0  0  0
  139.5810   69.2680  225.0060 C   0  0  1  0  0  0  0  0  0  0  0  0
  138.4390   69.9010  224.3750 N   0  0  0  0  0  0  0  0  0  0  0  0
  138.5500   70.9200  223.4200 C   0  0  0  0  0  0  0  0  0  0  0  0
  139.7390   71.2830  223.1100 O   0  0  0  0  0  0  0  0  0  0  0  0
  137.4550   71.6100  222.7410 C   0  0  0  0  0  0  0  0  0  0  0  0
  136.5500   72.3380  223.5680 N   0  0  0  0  0  0  0  0  0  0  0  0
  135.6040   71.7220  224.4360 C   0  0  0  0  0  0  0  0  0  0  0  0
  135.5080   70.4500  224.5320 O   0  0  0  0  0  0  0  0  0  0  0  0
  134.7010   72.5670  225.2540 C   0  0  0  0  0  0  0  0  0  0  0  0
  133.7370   71.9670  226.0360 C   0  0  0  0  0  0  0  0  0  0  0  0
  132.8640   72.7080  226.8210 C   0  0  0  0  0  0  0  0  0  0  0  0
  133.0150   74.0800  226.7750 C   0  0  0  0  0  0  0  0  0  0  0  0
  132.1450   74.8400  227.5580 C   0  0  0  0  0  0  0  0  0  0  0  0
  132.2650   76.2290  227.5400 C   0  0  0  0  0  0  0  0  0  0  0  0
  131.1750   77.1980  228.5240 Cl  0  0  0  0  0  0  0  0  0  0  0  0
  133.2390   76.8020  226.7470 C   0  0  0  0  0  0  0  0  0  0  0  0
  134.1060   76.0640  225.9680 C   0  0  0  0  0  0  0  0  0  0  0  0
  133.9780   74.6900  225.9940 C   0  0  0  0  0  0  0  0  0  0  0  0
  134.8040   73.9100  225.2460 N   0  0  0  0  0  0  0  0  0  0  0  0
  140.0920   70.1630  226.0550 C   0  0  0  0  0  0  0  0  0  0  0  0
  140.9870   71.1460  225.7150 C   0  0  0  0  0  0  0  0  0  0  0  0
  141.5210   72.0350  226.6450 C   0  0  0  0  0  0  0  0  0  0  0  0
  141.1000   71.8850  227.9620 C   0  0  0  0  0  0  0  0  0  0  0  0
  140.2050   70.9150  228.3500 C   0  0  0  0  0  0  0  0  0  0  0  0
  139.7200   70.0720  227.3790 C   0  0  0  0  0  0  0  0  0  0  0  0
  139.2574   67.8951  226.6160 H   0  0  0  0  0  0  0  0  0  0  0  0
  138.2624   67.5883  225.1523 H   0  0  0  0  0  0  0  0  0  0  0  0
  140.0108   67.1762  225.1523 H   0  0  0  0  0  0  0  0  0  0  0  0
  140.3741   69.1116  224.2600 H   0  0  0  0  0  0  0  0  0  0  0  0
  137.5010   69.5590  224.6560 H   0  0  0  0  0  0  0  0  0  0  0  0
  137.8990   72.3192  222.0269 H   0  0  0  0  0  0  0  0  0  0  0  0
  136.8514   70.8141  222.2803 H   0  0  0  0  0  0  0  0  0  0  0  0
  136.5420   73.4030  223.5760 H   0  0  0  0  0  0  0  0  0  0  0  0
  133.6573   70.8699  226.0380 H   0  0  0  0  0  0  0  0  0  0  0  0
  132.0949   72.2290  227.4448 H   0  0  0  0  0  0  0  0  0  0  0  0
  131.3786   74.3521  228.1781 H   0  0  0  0  0  0  0  0  0  0  0  0
  133.3279   77.8983  226.7357 H   0  0  0  0  0  0  0  0  0  0  0  0
  134.8720   76.5531  225.3483 H   0  0  0  0  0  0  0  0  0  0  0  0
  141.2960   71.2358  224.6631 H   0  0  0  0  0  0  0  0  0  0  0  0
  142.2388   72.8156  226.3528 H   0  0  0  0  0  0  0  0  0  0  0  0
  141.4990   72.5700  228.7246 H   0  0  0  0  0  0  0  0  0  0  0  0
  139.8891   70.8177  229.3992 H   0  0  0  0  0  0  0  0  0  0  0  0
  139.0034   69.2903  227.6713 H   0  0  0  0  0  0  0  0  0  0  0  0
  1  2  1  0
  2  3  1  0
  3  4  1  0
  4  5  2  0
  4  6  1  0
  6  7  1  0
  7  8  1  0
  8  9  2  0
  8 10  1  0
 10 11  2  0
 11 12  1  0
 12 13  2  0
 13 14  1  0
 14 15  2  0
 15 16  1  0
 15 17  1  0
 17 18  2  0
 18 19  1  0
 19 20  2  0
  2 21  1  0
 21 22  2  0
 22 23  1  0
 23 24  2  0
 24 25  1  0
 25 26  2  0
 20 10  1  0
 26 21  1  0
 19 13  1  0
  1 27  1  0
  1 28  1  0
  1 29  1  0
  2 30  1  6
  3 31  1  0
  6 32  1  0
  6 33  1  0
  7 34  1  0
 11 35  1  0
 12 36  1  0
 14 37  1  0
 17 38  1  0
 18 39  1  0
 22 40  1  0
 23 41  1  0
 24 42  1  0
 25 43  1  0
 26 44  1  0
M  END
>  <smiles>  (47) 
C[C@@H](NC(=O)CNC(=O)c1ccc2cc(Cl)ccc2n1)c1ccccc1

>  <score_type>  (47) 
oracle

>  <origin>  (47) 
autodockgpu

>  <m_score__min__energy>  (47) 
-8.7899999999999991

>  <m_primary>  (47) 
energy

>  <rmsd>  (47) 
10.20762664398702

>  <m_score__min__rmsd>  (47) 
10.20762664398702

>  <meeko>  (47) 
{"free_energy": -7.87, "intermolecular_energy": -9.36, "internal_energy": -2.04, "cluster_size": 10, "cluster_id": 1, "rank_in_cluster": 7}

>  <energy>  (47) 
-8.14

>  <cluster_rmsd>  (47) 
0.0

>  <cluster>  (47) 
4

$$$$

     RDKit          3D

 44 46  0  0  0  0  0  0  0  0999 V2000
  139.5810   67.4020  226.5140 C   0  0  0  0  0  0  0  0  0  0  0  0
  139.6240   68.6360  225.6510 C   0  0  1  0  0  0  0  0  0  0  0  0
  138.3220   68.9610  225.0970 N   0  0  0  0  0  0  0  0  0  0  0  0
  138.1350   69.4350  223.7920 C   0  0  0  0  0  0  0  0  0  0  0  0
  139.1910   69.5720  223.0790 O   0  0  0  0  0  0  0  0  0  0  0  0
  136.8650   69.7860  223.1600 C   0  0  0  0  0  0  0  0  0  0  0  0
  136.0400   70.7130  223.8610 N   0  0  0  0  0  0  0  0  0  0  0  0
  135.3120   70.3870  225.0420 C   0  0  0  0  0  0  0  0  0  0  0  0
  135.3580   69.2170  225.5590 O   0  0  0  0  0  0  0  0  0  0  0  0
  134.4750   71.4210  225.6950 C   0  0  0  0  0  0  0  0  0  0  0  0
  133.4650   71.0320  226.5500 C   0  0  0  0  0  0  0  0  0  0  0  0
  132.6500   71.9570  227.1900 C   0  0  0  0  0  0  0  0  0  0  0  0
  132.9060   73.2870  226.9220 C   0  0  0  0  0  0  0  0  0  0  0  0
  132.0960   74.2290  227.5570 C   0  0  0  0  0  0  0  0  0  0  0  0
  132.3230   75.5830  227.3130 C   0  0  0  0  0  0  0  0  0  0  0  0
  131.3080   76.7800  228.1080 Cl  0  0  0  0  0  0  0  0  0  0  0  0
  133.3410   75.9420  226.4520 C   0  0  0  0  0  0  0  0  0  0  0  0
  134.1500   75.0230  225.8180 C   0  0  0  0  0  0  0  0  0  0  0  0
  133.9160   73.6860  226.0660 C   0  0  0  0  0  0  0  0  0  0  0  0
  134.6820   72.7330  225.4690 N   0  0  0  0  0  0  0  0  0  0  0  0
  140.1370   69.8170  226.3620 C   0  0  0  0  0  0  0  0  0  0  0  0
  140.9050   70.7250  225.6800 C   0  0  0  0  0  0  0  0  0  0  0  0
  141.4310   71.8690  226.2760 C   0  0  0  0  0  0  0  0  0  0  0  0
  141.1390   72.0580  227.6230 C   0  0  0  0  0  0  0  0  0  0  0  0
  140.3740   71.1760  228.3490 C   0  0  0  0  0  0  0  0  0  0  0  0
  139.8880   70.0690  227.6950 C   0  0  0  0  0  0  0  0  0  0  0  0
  139.5912   67.6954  227.5741 H   0  0  0  0  0  0  0  0  0  0  0  0
  138.6626   66.8360  226.2990 H   0  0  0  0  0  0  0  0  0  0  0  0
  140.4578   66.7735  226.2990 H   0  0  0  0  0  0  0  0  0  0  0  0
  140.3199   68.3854  224.8368 H   0  0  0  0  0  0  0  0  0  0  0  0
  137.5030   68.8190  225.7160 H   0  0  0  0  0  0  0  0  0  0  0  0
  137.0908   70.2187  222.1742 H   0  0  0  0  0  0  0  0  0  0  0  0
  136.2880   68.8501  223.1272 H   0  0  0  0  0  0  0  0  0  0  0  0
  135.9270   71.7180  223.5260 H   0  0  0  0  0  0  0  0  0  0  0  0
  133.3003   69.9594  226.7301 H   0  0  0  0  0  0  0  0  0  0  0  0
  131.8451   71.6470  227.8726 H   0  0  0  0  0  0  0  0  0  0  0  0
  131.2931   73.9094  228.2376 H   0  0  0  0  0  0  0  0  0  0  0  0
  133.5148   77.0116  226.2630 H   0  0  0  0  0  0  0  0  0  0  0  0
  134.9533   75.3442  225.1387 H   0  0  0  0  0  0  0  0  0  0  0  0
  141.1150   70.5423  224.6158 H   0  0  0  0  0  0  0  0  0  0  0  0
  142.0452   72.5856  225.7110 H   0  0  0  0  0  0  0  0  0  0  0  0
  141.5368   72.9504  228.1283 H   0  0  0  0  0  0  0  0  0  0  0  0
  140.1588   71.3498  229.4137 H   0  0  0  0  0  0  0  0  0  0  0  0
  139.2734   69.3525  228.2596 H   0  0  0  0  0  0  0  0  0  0  0  0
  1  2  1  0
  2  3  1  0
  3  4  1  0
  4  5  2  0
  4  6  1  0
  6  7  1  0
  7  8  1  0
  8  9  2  0
  8 10  1  0
 10 11  2  0
 11 12  1  0
 12 13  2  0
 13 14  1  0
 14 15  2  0
 15 16  1  0
 15 17  1  0
 17 18  2  0
 18 19  1  0
 19 20  2  0
  2 21  1  0
 21 22  2  0
 22 23  1  0
 23 24  2  0
 24 25  1  0
 25 26  2  0
 20 10  1  0
 26 21  1  0
 19 13  1  0
  1 27  1  0
  1 28  1  0
  1 29  1  0
  2 30  1  6
  3 31  1  0
  6 32  1  0
  6 33  1  0
  7 34  1  0
 11 35  1  0
 12 36  1  0
 14 37  1  0
 17 38  1  0
 18 39  1  0
 22 40  1  0
 23 41  1  0
 24 42  1  0
 25 43  1  0
 26 44  1  0
M  END
>  <smiles>  (48) 
C[C@@H](NC(=O)CNC(=O)c1ccc2cc(Cl)ccc2n1)c1ccccc1

>  <score_type>  (48) 
oracle

>  <origin>  (48) 
autodockgpu

>  <m_score__min__energy>  (48) 
-8.7899999999999991

>  <m_primary>  (48) 
energy

>  <rmsd>  (48) 
10.534096171497392

>  <m_score__min__rmsd>  (48) 
10.534096171497392

>  <meeko>  (48) 
{"free_energy": -7.87, "intermolecular_energy": -9.36, "internal_energy": -2.03, "cluster_size": 10, "cluster_id": 1, "rank_in_cluster": 6}

>  <energy>  (48) 
-8.1

>  <cluster_rmsd>  (48) 
1.23

>  <cluster>  (48) 
4

$$$$

     RDKit          3D

 44 46  0  0  0  0  0  0  0  0999 V2000
  139.2600   68.1500  225.3610 C   0  0  0  0  0  0  0  0  0  0  0  0
  140.1640   69.3080  225.0280 C   0  0  1  0  0  0  0  0  0  0  0  0
  139.6680   70.0850  223.9080 N   0  0  0  0  0  0  0  0  0  0  0  0
  138.3610   70.5850  223.8330 C   0  0  0  0  0  0  0  0  0  0  0  0
  137.5940   70.3250  224.8270 O   0  0  0  0  0  0  0  0  0  0  0  0
  137.7820   71.3710  222.7450 C   0  0  0  0  0  0  0  0  0  0  0  0
  138.3700   72.6460  222.4980 N   0  0  0  0  0  0  0  0  0  0  0  0
  139.6710   72.8230  221.9450 C   0  0  0  0  0  0  0  0  0  0  0  0
  140.4070   71.8270  221.6250 O   0  0  0  0  0  0  0  0  0  0  0  0
  140.1950   74.1930  221.7320 C   0  0  0  0  0  0  0  0  0  0  0  0
  141.2960   74.3770  220.9210 C   0  0  0  0  0  0  0  0  0  0  0  0
  141.8300   75.6360  220.6860 C   0  0  0  0  0  0  0  0  0  0  0  0
  141.1990   76.6950  221.3080 C   0  0  0  0  0  0  0  0  0  0  0  0
  141.7240   77.9680  221.0820 C   0  0  0  0  0  0  0  0  0  0  0  0
  141.1150   79.0640  221.6930 C   0  0  0  0  0  0  0  0  0  0  0  0
  141.7670   80.6740  221.4150 Cl  0  0  0  0  0  0  0  0  0  0  0  0
  140.0140   78.8490  222.4990 C   0  0  0  0  0  0  0  0  0  0  0  0
  139.4840   77.5970  222.7320 C   0  0  0  0  0  0  0  0  0  0  0  0
  140.0960   76.5200  222.1220 C   0  0  0  0  0  0  0  0  0  0  0  0
  139.6180   75.2620  222.3150 N   0  0  0  0  0  0  0  0  0  0  0  0
  140.3800   70.2140  226.1670 C   0  0  0  0  0  0  0  0  0  0  0  0
  139.7900   69.9250  227.3700 C   0  0  0  0  0  0  0  0  0  0  0  0
  139.9410   70.7290  228.4980 C   0  0  0  0  0  0  0  0  0  0  0  0
  140.7340   71.8620  228.3520 C   0  0  0  0  0  0  0  0  0  0  0  0
  141.3460   72.1940  227.1650 C   0  0  0  0  0  0  0  0  0  0  0  0
  141.1510   71.3540  226.0940 C   0  0  0  0  0  0  0  0  0  0  0  0
  139.1810   68.0488  226.4535 H   0  0  0  0  0  0  0  0  0  0  0  0
  138.2614   68.3304  224.9363 H   0  0  0  0  0  0  0  0  0  0  0  0
  139.6774   67.2251  224.9363 H   0  0  0  0  0  0  0  0  0  0  0  0
  141.1250   68.8456  224.7584 H   0  0  0  0  0  0  0  0  0  0  0  0
  140.3360   70.2740  223.1380 H   0  0  0  0  0  0  0  0  0  0  0  0
  137.8686   70.7787  221.8221 H   0  0  0  0  0  0  0  0  0  0  0  0
  136.7487   71.5827  223.0570 H   0  0  0  0  0  0  0  0  0  0  0  0
  137.8490   73.5480  222.7210 H   0  0  0  0  0  0  0  0  0  0  0  0
  141.7635   73.5011  220.4475 H   0  0  0  0  0  0  0  0  0  0  0  0
  142.7079   75.7824  220.0396 H   0  0  0  0  0  0  0  0  0  0  0  0
  142.6021   78.1046  220.4338 H   0  0  0  0  0  0  0  0  0  0  0  0
  139.5374   79.7172  222.9776 H   0  0  0  0  0  0  0  0  0  0  0  0
  138.6057   77.4615  223.3802 H   0  0  0  0  0  0  0  0  0  0  0  0
  139.1706   69.0193  227.4483 H   0  0  0  0  0  0  0  0  0  0  0  0
  139.4579   70.4803  229.4545 H   0  0  0  0  0  0  0  0  0  0  0  0
  140.8781   72.5202  229.2215 H   0  0  0  0  0  0  0  0  0  0  0  0
  141.9676   73.0972  227.0763 H   0  0  0  0  0  0  0  0  0  0  0  0
  141.6317   71.6029  225.1364 H   0  0  0  0  0  0  0  0  0  0  0  0
  1  2  1  0
  2  3  1  0
  3  4  1  0
  4  5  2  0
  4  6  1  0
  6  7  1  0
  7  8  1  0
  8  9  2  0
  8 10  1  0
 10 11  2  0
 11 12  1  0
 12 13  2  0
 13 14  1  0
 14 15  2  0
 15 16  1  0
 15 17  1  0
 17 18  2  0
 18 19  1  0
 19 20  2  0
  2 21  1  0
 21 22  2  0
 22 23  1  0
 23 24  2  0
 24 25  1  0
 25 26  2  0
 20 10  1  0
 26 21  1  0
 19 13  1  0
  1 27  1  0
  1 28  1  0
  1 29  1  0
  2 30  1  6
  3 31  1  0
  6 32  1  0
  6 33  1  0
  7 34  1  0
 11 35  1  0
 12 36  1  0
 14 37  1  0
 17 38  1  0
 18 39  1  0
 22 40  1  0
 23 41  1  0
 24 42  1  0
 25 43  1  0
 26 44  1  0
M  END
>  <smiles>  (49) 
C[C@@H](NC(=O)CNC(=O)c1ccc2cc(Cl)ccc2n1)c1ccccc1

>  <score_type>  (49) 
oracle

>  <origin>  (49) 
autodockgpu

>  <m_score__min__energy>  (49) 
-8.7899999999999991

>  <m_primary>  (49) 
energy

>  <rmsd>  (49) 
9.750657712512092

>  <m_score__min__rmsd>  (49) 
9.750657712512092

>  <meeko>  (49) 
{"free_energy": -8.17, "intermolecular_energy": -9.66, "internal_energy": -2.04, "cluster_size": 34, "cluster_id": 3, "rank_in_cluster": 5}

>  <energy>  (49) 
-8.01

>  <cluster_rmsd>  (49) 
0.0

>  <cluster>  (49) 
5

$$$$

     RDKit          3D

 44 46  0  0  0  0  0  0  0  0999 V2000
  139.2730   68.1650  225.2050 C   0  0  0  0  0  0  0  0  0  0  0  0
  139.6640   69.5710  224.8330 C   0  0  1  0  0  0  0  0  0  0  0  0
  138.5630   70.3060  224.2390 N   0  0  0  0  0  0  0  0  0  0  0  0
  138.6960   71.1060  223.0970 C   0  0  0  0  0  0  0  0  0  0  0  0
  139.8650   71.1640  222.5750 O   0  0  0  0  0  0  0  0  0  0  0  0
  137.6440   71.8780  222.4380 C   0  0  0  0  0  0  0  0  0  0  0  0
  136.7330   72.5690  223.2900 N   0  0  0  0  0  0  0  0  0  0  0  0
  135.7500   71.9170  224.0900 C   0  0  0  0  0  0  0  0  0  0  0  0
  135.6240   70.6440  224.0960 O   0  0  0  0  0  0  0  0  0  0  0  0
  134.8440   72.7260  224.9400 C   0  0  0  0  0  0  0  0  0  0  0  0
  133.8850   72.0910  225.7000 C   0  0  0  0  0  0  0  0  0  0  0  0
  133.0090   72.7970  226.5140 C   0  0  0  0  0  0  0  0  0  0  0  0
  133.1520   74.1710  226.5200 C   0  0  0  0  0  0  0  0  0  0  0  0
  132.2790   74.8960  227.3320 C   0  0  0  0  0  0  0  0  0  0  0  0
  132.3900   76.2860  227.3650 C   0  0  0  0  0  0  0  0  0  0  0  0
  131.2970   77.2100  228.3860 Cl  0  0  0  0  0  0  0  0  0  0  0  0
  133.3600   76.8930  226.5920 C   0  0  0  0  0  0  0  0  0  0  0  0
  134.2300   76.1910  225.7850 C   0  0  0  0  0  0  0  0  0  0  0  0
  134.1100   74.8160  225.7600 C   0  0  0  0  0  0  0  0  0  0  0  0
  134.9390   74.0690  224.9820 N   0  0  0  0  0  0  0  0  0  0  0  0
  140.1800   70.3440  225.9730 C   0  0  0  0  0  0  0  0  0  0  0  0
  140.9160   71.4760  225.7330 C   0  0  0  0  0  0  0  0  0  0  0  0
  141.4430   72.2650  226.7530 C   0  0  0  0  0  0  0  0  0  0  0  0
  141.1860   71.8500  228.0560 C   0  0  0  0  0  0  0  0  0  0  0  0
  140.4540   70.7220  228.3460 C   0  0  0  0  0  0  0  0  0  0  0  0
  139.9660   69.9920  227.2890 C   0  0  0  0  0  0  0  0  0  0  0  0
  139.2464   68.0695  226.3005 H   0  0  0  0  0  0  0  0  0  0  0  0
  138.2782   67.9399  224.7931 H   0  0  0  0  0  0  0  0  0  0  0  0
  140.0088   67.4586  224.7931 H   0  0  0  0  0  0  0  0  0  0  0  0
  140.4697   69.4521  224.0936 H   0  0  0  0  0  0  0  0  0  0  0  0
  137.6380   70.2120  224.6970 H   0  0  0  0  0  0  0  0  0  0  0  0
  138.1312   72.6249  221.7939 H   0  0  0  0  0  0  0  0  0  0  0  0
  137.0342   71.1380  221.8991 H   0  0  0  0  0  0  0  0  0  0  0  0
  136.7460   73.6310  223.3700 H   0  0  0  0  0  0  0  0  0  0  0  0
  133.8116   70.9942  225.6605 H   0  0  0  0  0  0  0  0  0  0  0  0
  132.2438   72.2903  227.1204 H   0  0  0  0  0  0  0  0  0  0  0  0
  131.5171   74.3806  227.9352 H   0  0  0  0  0  0  0  0  0  0  0  0
  133.4426   77.9895  226.6215 H   0  0  0  0  0  0  0  0  0  0  0  0
  134.9920   76.7078  225.1830 H   0  0  0  0  0  0  0  0  0  0  0  0
  141.0981   71.7739  224.6899 H   0  0  0  0  0  0  0  0  0  0  0  0
  142.0318   73.1693  226.5394 H   0  0  0  0  0  0  0  0  0  0  0  0
  141.5846   72.4485  228.8884 H   0  0  0  0  0  0  0  0  0  0  0  0
  140.2662   70.4157  229.3857 H   0  0  0  0  0  0  0  0  0  0  0  0
  139.3786   69.0867  227.5021 H   0  0  0  0  0  0  0  0  0  0  0  0
  1  2  1  0
  2  3  1  0
  3  4  1  0
  4  5  2  0
  4  6  1  0
  6  7  1  0
  7  8  1  0
  8  9  2  0
  8 10  1  0
 10 11  2  0
 11 12  1  0
 12 13  2  0
 13 14  1  0
 14 15  2  0
 15 16  1  0
 15 17  1  0
 17 18  2  0
 18 19  1  0
 19 20  2  0
  2 21  1  0
 21 22  2  0
 22 23  1  0
 23 24  2  0
 24 25  1  0
 25 26  2  0
 20 10  1  0
 26 21  1  0
 19 13  1  0
  1 27  1  0
  1 28  1  0
  1 29  1  0
  2 30  1  6
  3 31  1  0
  6 32  1  0
  6 33  1  0
  7 34  1  0
 11 35  1  0
 12 36  1  0
 14 37  1  0
 17 38  1  0
 18 39  1  0
 22 40  1  0
 23 41  1  0
 24 42  1  0
 25 43  1  0
 26 44  1  0
M  END
>  <smiles>  (50) 
C[C@@H](NC(=O)CNC(=O)c1ccc2cc(Cl)ccc2n1)c1ccccc1

>  <score_type>  (50) 
oracle

>  <origin>  (50) 
autodockgpu

>  <m_score__min__energy>  (50) 
-8.7899999999999991

>  <m_primary>  (50) 
energy

>  <rmsd>  (50) 
10.04149887798358

>  <m_score__min__rmsd>  (50) 
10.04149887798358

>  <meeko>  (50) 
{"free_energy": -7.74, "intermolecular_energy": -9.23, "internal_energy": -2.08, "cluster_size": 10, "cluster_id": 1, "rank_in_cluster": 10}

>  <energy>  (50) 
-7.98

>  <cluster_rmsd>  (50) 
0.12

>  <cluster>  (50) 
5

$$$$
