
     RDKit          3D

 55 58  0  0  0  0  0  0  0  0999 V2000
  146.2510   73.6720  217.9930 N   0  0  0  0  0  0  0  0  0  0  0  0
  145.9430   73.1720  219.6110 S   0  0  0  0  0  0  0  0  0  0  0  0
  146.9680   73.8360  220.4860 O   0  0  0  0  0  0  0  0  0  0  0  0
  146.2010   71.6930  219.6920 O   0  0  0  0  0  0  0  0  0  0  0  0
  144.3140   73.5660  220.1100 C   0  0  0  0  0  0  0  0  0  0  0  0
  143.4350   72.5880  220.5170 C   0  0  0  0  0  0  0  0  0  0  0  0
  142.1530   72.9260  220.9080 C   0  0  0  0  0  0  0  0  0  0  0  0
  141.6820   74.2210  220.9170 C   0  0  0  0  0  0  0  0  0  0  0  0
  140.3500   74.6050  221.3200 C   0  0  0  0  0  0  0  0  0  0  0  0
  139.8520   75.8250  221.2000 C   0  0  0  0  0  0  0  0  0  0  0  0
  138.6020   76.1900  221.9030 C   0  0  0  0  0  0  0  0  0  0  0  0
  137.7870   75.1720  222.2300 N   0  0  0  0  0  0  0  0  0  0  0  0
  136.6180   75.3610  222.8630 C   0  0  0  0  0  0  0  0  0  0  0  0
  135.7890   74.2950  223.1920 C   0  0  0  0  0  0  0  0  0  0  0  0
  134.6030   74.5730  223.8430 C   0  0  0  0  0  0  0  0  0  0  0  0
  134.2270   75.8600  224.1700 C   0  0  0  0  0  0  0  0  0  0  0  0
  135.0830   76.9080  223.8240 C   0  0  0  0  0  0  0  0  0  0  0  0
  134.6490   78.5760  224.2190 Cl  0  0  0  0  0  0  0  0  0  0  0  0
  136.2740   76.6590  223.1730 C   0  0  0  0  0  0  0  0  0  0  0  0
  137.1330   77.6840  222.8240 C   0  0  0  0  0  0  0  0  0  0  0  0
  136.7340   78.8540  223.1450 O   0  0  0  0  0  0  0  0  0  0  0  0
  138.3050   77.4750  222.1890 N   0  0  0  0  0  0  0  0  0  0  0  0
  139.1930   78.5460  221.8610 C   0  0  0  0  0  0  0  0  0  0  0  0
  139.9610   78.9760  223.0750 C   0  0  0  0  0  0  0  0  0  0  0  0
  141.4120   78.5150  222.9990 C   0  0  0  0  0  0  0  0  0  0  0  0
  142.2430   79.4840  223.7830 C   0  0  0  0  0  0  0  0  0  0  0  0
  142.2590   80.8520  223.1380 C   0  0  0  0  0  0  0  0  0  0  0  0
  140.8600   81.2810  222.7220 C   0  0  0  0  0  0  0  0  0  0  0  0
  139.8370   80.4110  223.4300 C   0  0  0  0  0  0  0  0  0  0  0  0
  142.5950   75.1950  220.5000 C   0  0  0  0  0  0  0  0  0  0  0  0
  143.8780   74.8730  220.1080 C   0  0  0  0  0  0  0  0  0  0  0  0
  145.4600   74.2780  217.6940 H   0  0  0  0  0  0  0  0  0  0  0  0
  147.1750   74.1420  217.8770 H   0  0  0  0  0  0  0  0  0  0  0  0
  143.7535   71.5352  220.5311 H   0  0  0  0  0  0  0  0  0  0  0  0
  141.4749   72.1211  221.2279 H   0  0  0  0  0  0  0  0  0  0  0  0
  139.7041   73.8294  221.7573 H   0  0  0  0  0  0  0  0  0  0  0  0
  140.3683   76.5696  220.5763 H   0  0  0  0  0  0  0  0  0  0  0  0
  136.0690   73.2612  222.9415 H   0  0  0  0  0  0  0  0  0  0  0  0
  133.9355   73.7404  224.1099 H   0  0  0  0  0  0  0  0  0  0  0  0
  133.2775   76.0554  224.6898 H   0  0  0  0  0  0  0  0  0  0  0  0
  139.8976   78.2088  221.0865 H   0  0  0  0  0  0  0  0  0  0  0  0
  138.6043   79.3979  221.4899 H   0  0  0  0  0  0  0  0  0  0  0  0
  139.4768   78.4618  223.9183 H   0  0  0  0  0  0  0  0  0  0  0  0
  141.5072   77.5071  223.4291 H   0  0  0  0  0  0  0  0  0  0  0  0
  141.7491   78.4792  221.9525 H   0  0  0  0  0  0  0  0  0  0  0  0
  141.8267   79.5723  224.7974 H   0  0  0  0  0  0  0  0  0  0  0  0
  143.2755   79.1058  223.8140 H   0  0  0  0  0  0  0  0  0  0  0  0
  142.6595   81.5826  223.8562 H   0  0  0  0  0  0  0  0  0  0  0  0
  142.8907   80.8055  222.2387 H   0  0  0  0  0  0  0  0  0  0  0  0
  140.7011   82.3338  222.9983 H   0  0  0  0  0  0  0  0  0  0  0  0
  140.7487   81.1689  221.6334 H   0  0  0  0  0  0  0  0  0  0  0  0
  139.9756   80.5180  224.5160 H   0  0  0  0  0  0  0  0  0  0  0  0
  138.8389   80.7466  223.1119 H   0  0  0  0  0  0  0  0  0  0  0  0
  142.2808   76.2491  220.4841 H   0  0  0  0  0  0  0  0  0  0  0  0
  144.5634   75.6720  219.7890 H   0  0  0  0  0  0  0  0  0  0  0  0
  1  2  1  0
  2  3  2  0
  2  4  2  0
  2  5  1  0
  5  6  2  0
  6  7  1  0
  7  8  2  0
  8  9  1  0
  9 10  2  0
 10 11  1  0
 11 12  2  0
 12 13  1  0
 13 14  2  0
 14 15  1  0
 15 16  2  0
 16 17  1  0
 17 18  1  0
 17 19  2  0
 19 20  1  0
 20 21  2  0
 20 22  1  0
 22 23  1  0
 23 24  1  0
 24 25  1  0
 25 26  1  0
 26 27  1  0
 27 28  1  0
 28 29  1  0
  8 30  1  0
 30 31  2  0
 31  5  1  0
 22 11  1  0
 29 24  1  0
 19 13  1  0
  1 32  1  0
  1 33  1  0
  6 34  1  0
  7 35  1  0
  9 36  1  0
 10 37  1  0
 14 38  1  0
 15 39  1  0
 16 40  1  0
 23 41  1  0
 23 42  1  0
 24 43  1  0
 25 44  1  0
 25 45  1  0
 26 46  1  0
 26 47  1  0
 27 48  1  0
 27 49  1  0
 28 50  1  0
 28 51  1  0
 29 52  1  0
 29 53  1  0
 30 54  1  0
 31 55  1  0
M  END
>  <smiles>  (1) 
NS(=O)(=O)c1ccc(/C=C/c2nc3cccc(Cl)c3c(=O)n2CC2CCCCC2)cc1

>  <score_type>  (1) 
oracle

>  <origin>  (1) 
autodockgpu

>  <m_score__min__energy>  (1) 
-9.5

>  <m_primary>  (1) 
energy

>  <rmsd>  (1) 
7.096533636015427

>  <m_score__min__rmsd>  (1) 
7.096533636015427

>  <meeko>  (1) 
{"free_energy": -8.37, "intermolecular_energy": -10.46, "internal_energy": -1.36, "cluster_size": 1, "cluster_id": 7, "rank_in_cluster": 1}

>  <energy>  (1) 
-9.5

>  <cluster_rmsd>  (1) 
0.0

>  <cluster>  (1) 
1

$$$$

     RDKit          3D

 55 58  0  0  0  0  0  0  0  0999 V2000
  142.2830   79.3050  222.0840 N   0  0  0  0  0  0  0  0  0  0  0  0
  140.6520   78.8090  221.8480 S   0  0  0  0  0  0  0  0  0  0  0  0
  140.1700   79.4520  220.5780 O   0  0  0  0  0  0  0  0  0  0  0  0
  139.8280   79.3890  222.9640 O   0  0  0  0  0  0  0  0  0  0  0  0
  140.5080   77.0670  221.7840 C   0  0  0  0  0  0  0  0  0  0  0  0
  139.4360   76.4170  222.3540 C   0  0  0  0  0  0  0  0  0  0  0  0
  139.3460   75.0400  222.2890 C   0  0  0  0  0  0  0  0  0  0  0  0
  140.2890   74.2480  221.6700 C   0  0  0  0  0  0  0  0  0  0  0  0
  140.2220   72.8090  221.5860 C   0  0  0  0  0  0  0  0  0  0  0  0
  139.2260   72.0740  222.0550 C   0  0  0  0  0  0  0  0  0  0  0  0
  139.4200   71.2460  223.2650 C   0  0  0  0  0  0  0  0  0  0  0  0
  140.0100   71.8520  224.3100 N   0  0  0  0  0  0  0  0  0  0  0  0
  140.2540   71.2160  225.4670 C   0  0  0  0  0  0  0  0  0  0  0  0
  140.8660   71.8610  226.5360 C   0  0  0  0  0  0  0  0  0  0  0  0
  141.0820   71.1370  227.6930 C   0  0  0  0  0  0  0  0  0  0  0  0
  140.7100   69.8130  227.8120 C   0  0  0  0  0  0  0  0  0  0  0  0
  140.0970   69.1950  226.7190 C   0  0  0  0  0  0  0  0  0  0  0  0
  139.6020   67.5020  226.8190 Cl  0  0  0  0  0  0  0  0  0  0  0  0
  139.8700   69.8950  225.5510 C   0  0  0  0  0  0  0  0  0  0  0  0
  139.2650   69.3000  224.4600 C   0  0  0  0  0  0  0  0  0  0  0  0
  138.9460   68.0740  224.6240 O   0  0  0  0  0  0  0  0  0  0  0  0
  139.0260   69.9550  223.3050 N   0  0  0  0  0  0  0  0  0  0  0  0
  138.3740   69.3300  222.1980 C   0  0  0  0  0  0  0  0  0  0  0  0
  136.8930   69.5460  222.2760 C   0  0  0  0  0  0  0  0  0  0  0  0
  136.1530   68.2240  222.4360 C   0  0  0  0  0  0  0  0  0  0  0  0
  134.8770   68.4970  223.1720 C   0  0  0  0  0  0  0  0  0  0  0  0
  135.1400   68.9440  224.5930 C   0  0  0  0  0  0  0  0  0  0  0  0
  136.2370   69.9960  224.6460 C   0  0  0  0  0  0  0  0  0  0  0  0
  136.4500   70.5690  223.2560 C   0  0  0  0  0  0  0  0  0  0  0  0
  141.3660   74.9330  221.0990 C   0  0  0  0  0  0  0  0  0  0  0  0
  141.4700   76.3070  221.1550 C   0  0  0  0  0  0  0  0  0  0  0  0
  142.4840   79.2510  223.1040 H   0  0  0  0  0  0  0  0  0  0  0  0
  142.9660   78.7570  221.5180 H   0  0  0  0  0  0  0  0  0  0  0  0
  138.6501   76.9952  222.8619 H   0  0  0  0  0  0  0  0  0  0  0  0
  138.4778   74.5509  222.7548 H   0  0  0  0  0  0  0  0  0  0  0  0
  141.0575   72.2860  221.0978 H   0  0  0  0  0  0  0  0  0  0  0  0
  138.2520   72.0791  221.5437 H   0  0  0  0  0  0  0  0  0  0  0  0
  141.1691   72.9159  226.4629 H   0  0  0  0  0  0  0  0  0  0  0  0
  141.5664   71.6321  228.5475 H   0  0  0  0  0  0  0  0  0  0  0  0
  140.8917   69.2582  228.7443 H   0  0  0  0  0  0  0  0  0  0  0  0
  138.7548   69.7628  221.2612 H   0  0  0  0  0  0  0  0  0  0  0  0
  138.5796   68.2497  222.2254 H   0  0  0  0  0  0  0  0  0  0  0  0
  136.6156   69.9848  221.3062 H   0  0  0  0  0  0  0  0  0  0  0  0
  135.9301   67.7983  221.4465 H   0  0  0  0  0  0  0  0  0  0  0  0
  136.7704   67.5041  222.9933 H   0  0  0  0  0  0  0  0  0  0  0  0
  134.3231   69.2881  222.6454 H   0  0  0  0  0  0  0  0  0  0  0  0
  134.2929   67.5655  223.2063 H   0  0  0  0  0  0  0  0  0  0  0  0
  134.2158   69.3683  225.0123 H   0  0  0  0  0  0  0  0  0  0  0  0
  135.4668   68.0711  225.1772 H   0  0  0  0  0  0  0  0  0  0  0  0
  135.9408   70.8015  225.3341 H   0  0  0  0  0  0  0  0  0  0  0  0
  137.1709   69.5371  225.0026 H   0  0  0  0  0  0  0  0  0  0  0  0
  135.5025   71.0045  222.9060 H   0  0  0  0  0  0  0  0  0  0  0  0
  137.2443   71.3266  223.3272 H   0  0  0  0  0  0  0  0  0  0  0  0
  142.1540   74.3587  220.5898 H   0  0  0  0  0  0  0  0  0  0  0  0
  142.3343   76.8040  220.6903 H   0  0  0  0  0  0  0  0  0  0  0  0
  1  2  1  0
  2  3  2  0
  2  4  2  0
  2  5  1  0
  5  6  2  0
  6  7  1  0
  7  8  2  0
  8  9  1  0
  9 10  2  0
 10 11  1  0
 11 12  2  0
 12 13  1  0
 13 14  2  0
 14 15  1  0
 15 16  2  0
 16 17  1  0
 17 18  1  0
 17 19  2  0
 19 20  1  0
 20 21  2  0
 20 22  1  0
 22 23  1  0
 23 24  1  0
 24 25  1  0
 25 26  1  0
 26 27  1  0
 27 28  1  0
 28 29  1  0
  8 30  1  0
 30 31  2  0
 31  5  1  0
 22 11  1  0
 29 24  1  0
 19 13  1  0
  1 32  1  0
  1 33  1  0
  6 34  1  0
  7 35  1  0
  9 36  1  0
 10 37  1  0
 14 38  1  0
 15 39  1  0
 16 40  1  0
 23 41  1  0
 23 42  1  0
 24 43  1  0
 25 44  1  0
 25 45  1  0
 26 46  1  0
 26 47  1  0
 27 48  1  0
 27 49  1  0
 28 50  1  0
 28 51  1  0
 29 52  1  0
 29 53  1  0
 30 54  1  0
 31 55  1  0
M  END
>  <smiles>  (2) 
NS(=O)(=O)c1ccc(/C=C/c2nc3cccc(Cl)c3c(=O)n2CC2CCCCC2)cc1

>  <score_type>  (2) 
oracle

>  <origin>  (2) 
autodockgpu

>  <m_score__min__energy>  (2) 
-9.5

>  <m_primary>  (2) 
energy

>  <rmsd>  (2) 
11.334763663895693

>  <m_score__min__rmsd>  (2) 
11.334763663895693

>  <meeko>  (2) 
{"free_energy": -8.24, "intermolecular_energy": -10.32, "internal_energy": -1.58, "cluster_size": 11, "cluster_id": 3, "rank_in_cluster": 11}

>  <energy>  (2) 
-9.42

>  <cluster_rmsd>  (2) 
0.32

>  <cluster>  (2) 
1

$$$$

     RDKit          3D

 55 58  0  0  0  0  0  0  0  0999 V2000
  133.5950   72.5390  227.2190 N   0  0  0  0  0  0  0  0  0  0  0  0
  133.0570   73.9940  226.4750 S   0  0  0  0  0  0  0  0  0  0  0  0
  132.8280   74.9970  227.5700 O   0  0  0  0  0  0  0  0  0  0  0  0
  131.7150   73.7230  225.8520 O   0  0  0  0  0  0  0  0  0  0  0  0
  134.2060   74.5790  225.2930 C   0  0  0  0  0  0  0  0  0  0  0  0
  134.9170   73.7100  224.4960 C   0  0  0  0  0  0  0  0  0  0  0  0
  135.8180   74.1990  223.5690 C   0  0  0  0  0  0  0  0  0  0  0  0
  136.0600   75.5420  223.3850 C   0  0  0  0  0  0  0  0  0  0  0  0
  136.9950   76.0820  222.4260 C   0  0  0  0  0  0  0  0  0  0  0  0
  138.1930   76.5520  222.7280 C   0  0  0  0  0  0  0  0  0  0  0  0
  139.4020   75.9540  222.1200 C   0  0  0  0  0  0  0  0  0  0  0  0
  139.5430   74.6250  222.2680 N   0  0  0  0  0  0  0  0  0  0  0  0
  140.5960   73.9540  221.7730 C   0  0  0  0  0  0  0  0  0  0  0  0
  140.7240   72.5790  221.9360 C   0  0  0  0  0  0  0  0  0  0  0  0
  141.8360   71.9630  221.3980 C   0  0  0  0  0  0  0  0  0  0  0  0
  142.8070   72.6650  220.7120 C   0  0  0  0  0  0  0  0  0  0  0  0
  142.6480   74.0450  220.5660 C   0  0  0  0  0  0  0  0  0  0  0  0
  143.8610   74.9920  219.6960 Cl  0  0  0  0  0  0  0  0  0  0  0  0
  141.5460   74.6860  221.0950 C   0  0  0  0  0  0  0  0  0  0  0  0
  141.3720   76.0510  220.9590 C   0  0  0  0  0  0  0  0  0  0  0  0
  142.3010   76.6510  220.3210 O   0  0  0  0  0  0  0  0  0  0  0  0
  140.3070   76.7090  221.4610 N   0  0  0  0  0  0  0  0  0  0  0  0
  140.1310   78.1160  221.2870 C   0  0  0  0  0  0  0  0  0  0  0  0
  140.3700   78.8350  222.5810 C   0  0  0  0  0  0  0  0  0  0  0  0
  141.7450   78.5040  223.1480 C   0  0  0  0  0  0  0  0  0  0  0  0
  142.1990   79.6740  223.9650 C   0  0  0  0  0  0  0  0  0  0  0  0
  142.4420   80.8930  223.1030 C   0  0  0  0  0  0  0  0  0  0  0  0
  141.3040   81.1060  222.1170 C   0  0  0  0  0  0  0  0  0  0  0  0
  140.0990   80.2930  222.5580 C   0  0  0  0  0  0  0  0  0  0  0  0
  135.3250   76.4030  224.2070 C   0  0  0  0  0  0  0  0  0  0  0  0
  134.4220   75.9310  225.1360 C   0  0  0  0  0  0  0  0  0  0  0  0
  133.1470   72.4800  228.1570 H   0  0  0  0  0  0  0  0  0  0  0  0
  133.4130   71.6890  226.6420 H   0  0  0  0  0  0  0  0  0  0  0  0
  134.7677   72.6249  224.5972 H   0  0  0  0  0  0  0  0  0  0  0  0
  136.3696   73.4789  222.9468 H   0  0  0  0  0  0  0  0  0  0  0  0
  136.6887   76.1037  221.3697 H   0  0  0  0  0  0  0  0  0  0  0  0
  138.2913   77.3902  223.4335 H   0  0  0  0  0  0  0  0  0  0  0  0
  139.9619   71.9995  222.4775 H   0  0  0  0  0  0  0  0  0  0  0  0
  141.9525   70.8760  221.5199 H   0  0  0  0  0  0  0  0  0  0  0  0
  143.6835   72.1506  220.2912 H   0  0  0  0  0  0  0  0  0  0  0  0
  140.8439   78.4802  220.5326 H   0  0  0  0  0  0  0  0  0  0  0  0
  139.1000   78.3091  220.9558 H   0  0  0  0  0  0  0  0  0  0  0  0
  139.6069   78.4450  223.2706 H   0  0  0  0  0  0  0  0  0  0  0  0
  141.6820   77.6072  223.7819 H   0  0  0  0  0  0  0  0  0  0  0  0
  142.4577   78.3050  222.3341 H   0  0  0  0  0  0  0  0  0  0  0  0
  141.4249   79.9116  224.7095 H   0  0  0  0  0  0  0  0  0  0  0  0
  143.1459   79.4048  224.4558 H   0  0  0  0  0  0  0  0  0  0  0  0
  142.5266   81.7786  223.7499 H   0  0  0  0  0  0  0  0  0  0  0  0
  143.3706   80.7375  222.5343 H   0  0  0  0  0  0  0  0  0  0  0  0
  141.0371   82.1728  222.0887 H   0  0  0  0  0  0  0  0  0  0  0  0
  141.6198   80.7825  221.1142 H   0  0  0  0  0  0  0  0  0  0  0  0
  139.8095   80.6132  223.5698 H   0  0  0  0  0  0  0  0  0  0  0  0
  139.2940   80.4700  221.8296 H   0  0  0  0  0  0  0  0  0  0  0  0
  135.4718   77.4888  224.1093 H   0  0  0  0  0  0  0  0  0  0  0  0
  133.8655   76.6446  225.7614 H   0  0  0  0  0  0  0  0  0  0  0  0
  1  2  1  0
  2  3  2  0
  2  4  2  0
  2  5  1  0
  5  6  2  0
  6  7  1  0
  7  8  2  0
  8  9  1  0
  9 10  2  0
 10 11  1  0
 11 12  2  0
 12 13  1  0
 13 14  2  0
 14 15  1  0
 15 16  2  0
 16 17  1  0
 17 18  1  0
 17 19  2  0
 19 20  1  0
 20 21  2  0
 20 22  1  0
 22 23  1  0
 23 24  1  0
 24 25  1  0
 25 26  1  0
 26 27  1  0
 27 28  1  0
 28 29  1  0
  8 30  1  0
 30 31  2  0
 31  5  1  0
 22 11  1  0
 29 24  1  0
 19 13  1  0
  1 32  1  0
  1 33  1  0
  6 34  1  0
  7 35  1  0
  9 36  1  0
 10 37  1  0
 14 38  1  0
 15 39  1  0
 16 40  1  0
 23 41  1  0
 23 42  1  0
 24 43  1  0
 25 44  1  0
 25 45  1  0
 26 46  1  0
 26 47  1  0
 27 48  1  0
 27 49  1  0
 28 50  1  0
 28 51  1  0
 29 52  1  0
 29 53  1  0
 30 54  1  0
 31 55  1  0
M  END
>  <smiles>  (3) 
NS(=O)(=O)c1ccc(/C=C/c2nc3cccc(Cl)c3c(=O)n2CC2CCCCC2)cc1

>  <score_type>  (3) 
oracle

>  <origin>  (3) 
autodockgpu

>  <m_score__min__energy>  (3) 
-9.5

>  <m_primary>  (3) 
energy

>  <rmsd>  (3) 
7.837379746164578

>  <m_score__min__rmsd>  (3) 
7.837379746164578

>  <meeko>  (3) 
{"free_energy": -8.54, "intermolecular_energy": -10.63, "internal_energy": -1.32, "cluster_size": 4, "cluster_id": 4, "rank_in_cluster": 2}

>  <energy>  (3) 
-9.1

>  <cluster_rmsd>  (3) 
1.29

>  <cluster>  (3) 
1

$$$$

     RDKit          3D

 55 58  0  0  0  0  0  0  0  0999 V2000
  146.3280   72.1720  220.4230 N   0  0  0  0  0  0  0  0  0  0  0  0
  145.1920   72.5190  219.1780 S   0  0  0  0  0  0  0  0  0  0  0  0
  144.6920   71.2040  218.6510 O   0  0  0  0  0  0  0  0  0  0  0  0
  145.9340   73.1800  218.0490 O   0  0  0  0  0  0  0  0  0  0  0  0
  143.8820   73.5220  219.7570 C   0  0  0  0  0  0  0  0  0  0  0  0
  143.9150   74.8920  219.6190 C   0  0  0  0  0  0  0  0  0  0  0  0
  142.8660   75.6610  220.0850 C   0  0  0  0  0  0  0  0  0  0  0  0
  141.7530   75.1310  220.7000 C   0  0  0  0  0  0  0  0  0  0  0  0
  140.6430   75.9080  221.1970 C   0  0  0  0  0  0  0  0  0  0  0  0
  140.5750   76.4300  222.4100 C   0  0  0  0  0  0  0  0  0  0  0  0
  139.6240   77.5270  222.6960 C   0  0  0  0  0  0  0  0  0  0  0  0
  138.3460   77.3110  222.3370 N   0  0  0  0  0  0  0  0  0  0  0  0
  137.3810   78.2240  222.5310 C   0  0  0  0  0  0  0  0  0  0  0  0
  136.0650   77.9820  222.1520 C   0  0  0  0  0  0  0  0  0  0  0  0
  135.1300   78.9720  222.3860 C   0  0  0  0  0  0  0  0  0  0  0  0
  135.4640   80.1750  222.9760 C   0  0  0  0  0  0  0  0  0  0  0  0
  136.7950   80.3850  223.3440 C   0  0  0  0  0  0  0  0  0  0  0  0
  137.2760   81.9070  224.1040 Cl  0  0  0  0  0  0  0  0  0  0  0  0
  137.7490   79.4130  223.1220 C   0  0  0  0  0  0  0  0  0  0  0  0
  139.0710   79.6040  223.4800 C   0  0  0  0  0  0  0  0  0  0  0  0
  139.3240   80.7350  224.0170 O   0  0  0  0  0  0  0  0  0  0  0  0
  140.0280   78.6750  223.2800 N   0  0  0  0  0  0  0  0  0  0  0  0
  141.3830   78.8800  223.6820 C   0  0  0  0  0  0  0  0  0  0  0  0
  142.1550   79.5530  222.5870 C   0  0  0  0  0  0  0  0  0  0  0  0
  141.4830   79.3470  221.2340 C   0  0  0  0  0  0  0  0  0  0  0  0
  141.8310   80.5160  220.3660 C   0  0  0  0  0  0  0  0  0  0  0  0
  141.2190   81.7980  220.8870 C   0  0  0  0  0  0  0  0  0  0  0  0
  141.4230   81.9350  222.3880 C   0  0  0  0  0  0  0  0  0  0  0  0
  142.5090   80.9720  222.8370 C   0  0  0  0  0  0  0  0  0  0  0  0
  141.7450   73.7380  220.8280 C   0  0  0  0  0  0  0  0  0  0  0  0
  142.7840   72.9560  220.3670 C   0  0  0  0  0  0  0  0  0  0  0  0
  145.8260   72.2320  221.3330 H   0  0  0  0  0  0  0  0  0  0  0  0
  146.8100   71.2560  220.2970 H   0  0  0  0  0  0  0  0  0  0  0  0
  144.7779   75.3747  219.1370 H   0  0  0  0  0  0  0  0  0  0  0  0
  142.9224   76.7522  219.9585 H   0  0  0  0  0  0  0  0  0  0  0  0
  139.7937   76.0780  220.5190 H   0  0  0  0  0  0  0  0  0  0  0  0
  141.2273   76.0476  223.2089 H   0  0  0  0  0  0  0  0  0  0  0  0
  135.7771   77.0310  221.6801 H   0  0  0  0  0  0  0  0  0  0  0  0
  134.0846   78.7960  222.0925 H   0  0  0  0  0  0  0  0  0  0  0  0
  134.7015   80.9481  223.1517 H   0  0  0  0  0  0  0  0  0  0  0  0
  141.4028   79.5128  224.5816 H   0  0  0  0  0  0  0  0  0  0  0  0
  141.8437   77.9045  223.8969 H   0  0  0  0  0  0  0  0  0  0  0  0
  143.1311   79.0461  222.5715 H   0  0  0  0  0  0  0  0  0  0  0  0
  141.8477   78.4172  220.7730 H   0  0  0  0  0  0  0  0  0  0  0  0
  140.3924   79.2702  221.3550 H   0  0  0  0  0  0  0  0  0  0  0  0
  142.9250   80.6277  220.3393 H   0  0  0  0  0  0  0  0  0  0  0  0
  141.4307   80.3280  219.3588 H   0  0  0  0  0  0  0  0  0  0  0  0
  141.6919   82.6527  220.3812 H   0  0  0  0  0  0  0  0  0  0  0  0
  140.1383   81.7759  220.6831 H   0  0  0  0  0  0  0  0  0  0  0  0
  141.7249   82.9658  222.6252 H   0  0  0  0  0  0  0  0  0  0  0  0
  140.4838   81.7008  222.9105 H   0  0  0  0  0  0  0  0  0  0  0  0
  143.4345   81.2054  222.2902 H   0  0  0  0  0  0  0  0  0  0  0  0
  142.6356   81.0966  223.9226 H   0  0  0  0  0  0  0  0  0  0  0  0
  140.8845   73.2515  221.3107 H   0  0  0  0  0  0  0  0  0  0  0  0
  142.7349   71.8638  220.4884 H   0  0  0  0  0  0  0  0  0  0  0  0
  1  2  1  0
  2  3  2  0
  2  4  2  0
  2  5  1  0
  5  6  2  0
  6  7  1  0
  7  8  2  0
  8  9  1  0
  9 10  2  0
 10 11  1  0
 11 12  2  0
 12 13  1  0
 13 14  2  0
 14 15  1  0
 15 16  2  0
 16 17  1  0
 17 18  1  0
 17 19  2  0
 19 20  1  0
 20 21  2  0
 20 22  1  0
 22 23  1  0
 23 24  1  0
 24 25  1  0
 25 26  1  0
 26 27  1  0
 27 28  1  0
 28 29  1  0
  8 30  1  0
 30 31  2  0
 31  5  1  0
 22 11  1  0
 29 24  1  0
 19 13  1  0
  1 32  1  0
  1 33  1  0
  6 34  1  0
  7 35  1  0
  9 36  1  0
 10 37  1  0
 14 38  1  0
 15 39  1  0
 16 40  1  0
 23 41  1  0
 23 42  1  0
 24 43  1  0
 25 44  1  0
 25 45  1  0
 26 46  1  0
 26 47  1  0
 27 48  1  0
 27 49  1  0
 28 50  1  0
 28 51  1  0
 29 52  1  0
 29 53  1  0
 30 54  1  0
 31 55  1  0
M  END
>  <smiles>  (4) 
NS(=O)(=O)c1ccc(/C=C/c2nc3cccc(Cl)c3c(=O)n2CC2CCCCC2)cc1

>  <score_type>  (4) 
oracle

>  <origin>  (4) 
autodockgpu

>  <m_score__min__energy>  (4) 
-9.5

>  <m_primary>  (4) 
energy

>  <rmsd>  (4) 
5.105004819754015

>  <m_score__min__rmsd>  (4) 
5.105004819754015

>  <meeko>  (4) 
{"free_energy": -8.17, "intermolecular_energy": -10.26, "internal_energy": -1.67, "cluster_size": 6, "cluster_id": 6, "rank_in_cluster": 6}

>  <energy>  (4) 
-9.02

>  <cluster_rmsd>  (4) 
0.87

>  <cluster>  (4) 
1

$$$$

     RDKit          3D

 55 58  0  0  0  0  0  0  0  0999 V2000
  141.2510   67.6610  226.8440 N   0  0  0  0  0  0  0  0  0  0  0  0
  139.7630   68.4360  226.4630 S   0  0  0  0  0  0  0  0  0  0  0  0
  139.2780   69.1120  227.7140 O   0  0  0  0  0  0  0  0  0  0  0  0
  138.7580   67.3660  226.1350 O   0  0  0  0  0  0  0  0  0  0  0  0
  139.9430   69.5710  225.1450 C   0  0  0  0  0  0  0  0  0  0  0  0
  140.6140   70.7620  225.3140 C   0  0  0  0  0  0  0  0  0  0  0  0
  140.7420   71.6420  224.2560 C   0  0  0  0  0  0  0  0  0  0  0  0
  140.2270   71.3980  223.0020 C   0  0  0  0  0  0  0  0  0  0  0  0
  140.3460   72.2960  221.8780 C   0  0  0  0  0  0  0  0  0  0  0  0
  141.4630   72.9080  221.5210 C   0  0  0  0  0  0  0  0  0  0  0  0
  141.4390   74.3370  221.1390 C   0  0  0  0  0  0  0  0  0  0  0  0
  140.8610   75.1750  222.0180 N   0  0  0  0  0  0  0  0  0  0  0  0
  140.7640   76.4950  221.7950 C   0  0  0  0  0  0  0  0  0  0  0  0
  140.1620   77.3460  222.7160 C   0  0  0  0  0  0  0  0  0  0  0  0
  140.1010   78.6920  222.4130 C   0  0  0  0  0  0  0  0  0  0  0  0
  140.6150   79.2060  221.2390 C   0  0  0  0  0  0  0  0  0  0  0  0
  141.2130   78.3240  220.3360 C   0  0  0  0  0  0  0  0  0  0  0  0
  141.8870   78.9300  218.8180 Cl  0  0  0  0  0  0  0  0  0  0  0  0
  141.2860   76.9740  220.6130 C   0  0  0  0  0  0  0  0  0  0  0  0
  141.8750   76.0870  219.7310 C   0  0  0  0  0  0  0  0  0  0  0  0
  142.3290   76.6160  218.6600 O   0  0  0  0  0  0  0  0  0  0  0  0
  141.9650   74.7630  219.9720 N   0  0  0  0  0  0  0  0  0  0  0  0
  142.6020   73.8670  219.0590 C   0  0  0  0  0  0  0  0  0  0  0  0
  144.0890   74.0540  219.0970 C   0  0  0  0  0  0  0  0  0  0  0  0
  144.5390   74.6090  220.4430 C   0  0  0  0  0  0  0  0  0  0  0  0
  145.9410   74.1420  220.6870 C   0  0  0  0  0  0  0  0  0  0  0  0
  146.0030   72.6420  220.8700 C   0  0  0  0  0  0  0  0  0  0  0  0
  145.1830   71.9230  219.8100 C   0  0  0  0  0  0  0  0  0  0  0  0
  144.8890   72.8800  218.6680 C   0  0  0  0  0  0  0  0  0  0  0  0
  139.5520   70.1810  222.8570 C   0  0  0  0  0  0  0  0  0  0  0  0
  139.4150   69.2930  223.9030 C   0  0  0  0  0  0  0  0  0  0  0  0
  141.7500   68.2580  227.5360 H   0  0  0  0  0  0  0  0  0  0  0  0
  141.1310   66.6810  227.1810 H   0  0  0  0  0  0  0  0  0  0  0  0
  141.0487   71.0132  226.2927 H   0  0  0  0  0  0  0  0  0  0  0  0
  141.2826   72.5852  224.4239 H   0  0  0  0  0  0  0  0  0  0  0  0
  139.4447   72.4845  221.2763 H   0  0  0  0  0  0  0  0  0  0  0  0
  142.4125   72.3528  221.5081 H   0  0  0  0  0  0  0  0  0  0  0  0
  139.7468   76.9583  223.6579 H   0  0  0  0  0  0  0  0  0  0  0  0
  139.6271   79.3776  223.1309 H   0  0  0  0  0  0  0  0  0  0  0  0
  140.5551   80.2824  221.0205 H   0  0  0  0  0  0  0  0  0  0  0  0
  142.3595   72.8312  219.3387 H   0  0  0  0  0  0  0  0  0  0  0  0
  142.2412   74.0774  218.0414 H   0  0  0  0  0  0  0  0  0  0  0  0
  144.3034   74.8051  218.3225 H   0  0  0  0  0  0  0  0  0  0  0  0
  144.5093   75.7084  220.4229 H   0  0  0  0  0  0  0  0  0  0  0  0
  143.8728   74.2579  221.2448 H   0  0  0  0  0  0  0  0  0  0  0  0
  146.5659   74.4230  219.8265 H   0  0  0  0  0  0  0  0  0  0  0  0
  146.3068   74.6170  221.6092 H   0  0  0  0  0  0  0  0  0  0  0  0
  147.0506   72.3147  220.7960 H   0  0  0  0  0  0  0  0  0  0  0  0
  145.5876   72.3947  221.8581 H   0  0  0  0  0  0  0  0  0  0  0  0
  145.7496   71.0602  219.4297 H   0  0  0  0  0  0  0  0  0  0  0  0
  144.2376   71.5731  220.2501 H   0  0  0  0  0  0  0  0  0  0  0  0
  145.8433   73.2368  218.2532 H   0  0  0  0  0  0  0  0  0  0  0  0
  144.2995   72.3319  217.9182 H   0  0  0  0  0  0  0  0  0  0  0  0
  139.1176   69.9250  221.8794 H   0  0  0  0  0  0  0  0  0  0  0  0
  138.8756   68.3477  223.7434 H   0  0  0  0  0  0  0  0  0  0  0  0
  1  2  1  0
  2  3  2  0
  2  4  2  0
  2  5  1  0
  5  6  2  0
  6  7  1  0
  7  8  2  0
  8  9  1  0
  9 10  2  0
 10 11  1  0
 11 12  2  0
 12 13  1  0
 13 14  2  0
 14 15  1  0
 15 16  2  0
 16 17  1  0
 17 18  1  0
 17 19  2  0
 19 20  1  0
 20 21  2  0
 20 22  1  0
 22 23  1  0
 23 24  1  0
 24 25  1  0
 25 26  1  0
 26 27  1  0
 27 28  1  0
 28 29  1  0
  8 30  1  0
 30 31  2  0
 31  5  1  0
 22 11  1  0
 29 24  1  0
 19 13  1  0
  1 32  1  0
  1 33  1  0
  6 34  1  0
  7 35  1  0
  9 36  1  0
 10 37  1  0
 14 38  1  0
 15 39  1  0
 16 40  1  0
 23 41  1  0
 23 42  1  0
 24 43  1  0
 25 44  1  0
 25 45  1  0
 26 46  1  0
 26 47  1  0
 27 48  1  0
 27 49  1  0
 28 50  1  0
 28 51  1  0
 29 52  1  0
 29 53  1  0
 30 54  1  0
 31 55  1  0
M  END
>  <smiles>  (5) 
NS(=O)(=O)c1ccc(/C=C/c2nc3cccc(Cl)c3c(=O)n2CC2CCCCC2)cc1

>  <score_type>  (5) 
oracle

>  <origin>  (5) 
autodockgpu

>  <m_score__min__energy>  (5) 
-9.5

>  <m_primary>  (5) 
energy

>  <rmsd>  (5) 
5.592024947659958

>  <m_score__min__rmsd>  (5) 
5.592024947659958

>  <meeko>  (5) 
{"free_energy": -8.72, "intermolecular_energy": -10.8, "internal_energy": -1.42, "cluster_size": 4, "cluster_id": 2, "rank_in_cluster": 2}

>  <energy>  (5) 
-9.0

>  <cluster_rmsd>  (5) 
1.32

>  <cluster>  (5) 
1

$$$$

     RDKit          3D

 55 58  0  0  0  0  0  0  0  0999 V2000
  140.2580   67.7690  227.6700 N   0  0  0  0  0  0  0  0  0  0  0  0
  140.1960   69.4840  227.7910 S   0  0  0  0  0  0  0  0  0  0  0  0
  141.4500   69.9290  228.4870 O   0  0  0  0  0  0  0  0  0  0  0  0
  139.0500   69.8400  228.6980 O   0  0  0  0  0  0  0  0  0  0  0  0
  140.0280   70.2380  226.2210 C   0  0  0  0  0  0  0  0  0  0  0  0
  140.8570   71.2640  225.8290 C   0  0  0  0  0  0  0  0  0  0  0  0
  140.7040   71.8420  224.5830 C   0  0  0  0  0  0  0  0  0  0  0  0
  139.7440   71.4450  223.6770 C   0  0  0  0  0  0  0  0  0  0  0  0
  139.5600   72.0280  222.3700 C   0  0  0  0  0  0  0  0  0  0  0  0
  140.5110   72.1420  221.4580 C   0  0  0  0  0  0  0  0  0  0  0  0
  140.9590   73.4800  221.0140 C   0  0  0  0  0  0  0  0  0  0  0  0
  140.6990   74.5000  221.8510 N   0  0  0  0  0  0  0  0  0  0  0  0
  141.0430   75.7670  221.5700 C   0  0  0  0  0  0  0  0  0  0  0  0
  140.7650   76.8080  222.4480 C   0  0  0  0  0  0  0  0  0  0  0  0
  141.1520   78.0840  222.0860 C   0  0  0  0  0  0  0  0  0  0  0  0
  141.7980   78.3460  220.8950 C   0  0  0  0  0  0  0  0  0  0  0  0
  142.0620   77.2780  220.0350 C   0  0  0  0  0  0  0  0  0  0  0  0
  142.8870   77.5590  218.4960 Cl  0  0  0  0  0  0  0  0  0  0  0  0
  141.6860   75.9930  220.3720 C   0  0  0  0  0  0  0  0  0  0  0  0
  141.9400   74.9240  219.5330 C   0  0  0  0  0  0  0  0  0  0  0  0
  142.5350   75.2240  218.4430 O   0  0  0  0  0  0  0  0  0  0  0  0
  141.5880   73.6560  219.8320 N   0  0  0  0  0  0  0  0  0  0  0  0
  141.8840   72.5600  218.9640 C   0  0  0  0  0  0  0  0  0  0  0  0
  143.2990   72.1060  219.1630 C   0  0  0  0  0  0  0  0  0  0  0  0
  144.2460   72.8260  218.2100 C   0  0  0  0  0  0  0  0  0  0  0  0
  145.5930   72.8890  218.8620 C   0  0  0  0  0  0  0  0  0  0  0  0
  145.5740   73.7670  220.0930 C   0  0  0  0  0  0  0  0  0  0  0  0
  144.3680   73.4630  220.9690 C   0  0  0  0  0  0  0  0  0  0  0  0
  143.7810   72.1220  220.5660 C   0  0  0  0  0  0  0  0  0  0  0  0
  138.9150   70.4010  224.1010 C   0  0  0  0  0  0  0  0  0  0  0  0
  139.0560   69.8130  225.3410 C   0  0  0  0  0  0  0  0  0  0  0  0
  141.0440   67.4390  228.2690 H   0  0  0  0  0  0  0  0  0  0  0  0
  139.3560   67.3060  227.9130 H   0  0  0  0  0  0  0  0  0  0  0  0
  141.6430   71.6248  226.5087 H   0  0  0  0  0  0  0  0  0  0  0  0
  141.3826   72.6602  224.3000 H   0  0  0  0  0  0  0  0  0  0  0  0
  138.5584   72.4040  222.1142 H   0  0  0  0  0  0  0  0  0  0  0  0
  140.9701   71.2394  221.0285 H   0  0  0  0  0  0  0  0  0  0  0  0
  140.2520   76.6215  223.4030 H   0  0  0  0  0  0  0  0  0  0  0  0
  140.9381   78.9187  222.7698 H   0  0  0  0  0  0  0  0  0  0  0  0
  142.0975   79.3707  220.6297 H   0  0  0  0  0  0  0  0  0  0  0  0
  141.2010   71.7268  219.1858 H   0  0  0  0  0  0  0  0  0  0  0  0
  141.7558   72.8849  217.9209 H   0  0  0  0  0  0  0  0  0  0  0  0
  143.2957   71.0361  218.9074 H   0  0  0  0  0  0  0  0  0  0  0  0
  144.3149   72.2723  217.2620 H   0  0  0  0  0  0  0  0  0  0  0  0
  143.8763   73.8393  217.9944 H   0  0  0  0  0  0  0  0  0  0  0  0
  145.8969   71.8726  219.1529 H   0  0  0  0  0  0  0  0  0  0  0  0
  146.3043   73.3203  218.1422 H   0  0  0  0  0  0  0  0  0  0  0  0
  146.4919   73.5910  220.6731 H   0  0  0  0  0  0  0  0  0  0  0  0
  145.5134   74.8168  219.7703 H   0  0  0  0  0  0  0  0  0  0  0  0
  144.6795   73.4259  222.0233 H   0  0  0  0  0  0  0  0  0  0  0  0
  143.6109   74.2505  220.8403 H   0  0  0  0  0  0  0  0  0  0  0  0
  144.5561   71.3499  220.6806 H   0  0  0  0  0  0  0  0  0  0  0  0
  142.9153   71.9293  221.2168 H   0  0  0  0  0  0  0  0  0  0  0  0
  138.1267   70.0379  223.4251 H   0  0  0  0  0  0  0  0  0  0  0  0
  138.3829   68.9930  225.6317 H   0  0  0  0  0  0  0  0  0  0  0  0
  1  2  1  0
  2  3  2  0
  2  4  2  0
  2  5  1  0
  5  6  2  0
  6  7  1  0
  7  8  2  0
  8  9  1  0
  9 10  2  0
 10 11  1  0
 11 12  2  0
 12 13  1  0
 13 14  2  0
 14 15  1  0
 15 16  2  0
 16 17  1  0
 17 18  1  0
 17 19  2  0
 19 20  1  0
 20 21  2  0
 20 22  1  0
 22 23  1  0
 23 24  1  0
 24 25  1  0
 25 26  1  0
 26 27  1  0
 27 28  1  0
 28 29  1  0
  8 30  1  0
 30 31  2  0
 31  5  1  0
 22 11  1  0
 29 24  1  0
 19 13  1  0
  1 32  1  0
  1 33  1  0
  6 34  1  0
  7 35  1  0
  9 36  1  0
 10 37  1  0
 14 38  1  0
 15 39  1  0
 16 40  1  0
 23 41  1  0
 23 42  1  0
 24 43  1  0
 25 44  1  0
 25 45  1  0
 26 46  1  0
 26 47  1  0
 27 48  1  0
 27 49  1  0
 28 50  1  0
 28 51  1  0
 29 52  1  0
 29 53  1  0
 30 54  1  0
 31 55  1  0
M  END
>  <smiles>  (6) 
NS(=O)(=O)c1ccc(/C=C/c2nc3cccc(Cl)c3c(=O)n2CC2CCCCC2)cc1

>  <score_type>  (6) 
oracle

>  <origin>  (6) 
autodockgpu

>  <m_score__min__energy>  (6) 
-9.5

>  <m_primary>  (6) 
energy

>  <rmsd>  (6) 
6.064098875600918

>  <m_score__min__rmsd>  (6) 
6.064098875600918

>  <meeko>  (6) 
{"free_energy": -8.67, "intermolecular_energy": -10.76, "internal_energy": -1.76, "cluster_size": 4, "cluster_id": 2, "rank_in_cluster": 3}

>  <energy>  (6) 
-9.0

>  <cluster_rmsd>  (6) 
0.57

>  <cluster>  (6) 
1

$$$$

     RDKit          3D

 55 58  0  0  0  0  0  0  0  0999 V2000
  142.1340   78.8570  221.4800 N   0  0  0  0  0  0  0  0  0  0  0  0
  141.0830   78.2550  222.7020 S   0  0  0  0  0  0  0  0  0  0  0  0
  139.9220   79.2040  222.7990 O   0  0  0  0  0  0  0  0  0  0  0  0
  141.8120   78.3320  224.0150 O   0  0  0  0  0  0  0  0  0  0  0  0
  140.5560   76.6240  222.3560 C   0  0  0  0  0  0  0  0  0  0  0  0
  141.4270   75.6820  221.8560 C   0  0  0  0  0  0  0  0  0  0  0  0
  140.9850   74.4000  221.5920 C   0  0  0  0  0  0  0  0  0  0  0  0
  139.6870   73.9880  221.8030 C   0  0  0  0  0  0  0  0  0  0  0  0
  139.1970   72.6570  221.5370 C   0  0  0  0  0  0  0  0  0  0  0  0
  139.8870   71.5470  221.7430 C   0  0  0  0  0  0  0  0  0  0  0  0
  139.9230   70.9320  223.0890 C   0  0  0  0  0  0  0  0  0  0  0  0
  140.4560   71.6830  224.0680 N   0  0  0  0  0  0  0  0  0  0  0  0
  140.5580   71.2470  225.3340 C   0  0  0  0  0  0  0  0  0  0  0  0
  141.1120   72.0380  226.3340 C   0  0  0  0  0  0  0  0  0  0  0  0
  141.1820   71.5170  227.6110 C   0  0  0  0  0  0  0  0  0  0  0  0
  140.7220   70.2510  227.9140 C   0  0  0  0  0  0  0  0  0  0  0  0
  140.1710   69.4820  226.8870 C   0  0  0  0  0  0  0  0  0  0  0  0
  139.5670   67.8550  227.2220 Cl  0  0  0  0  0  0  0  0  0  0  0  0
  140.0900   69.9790  225.6020 C   0  0  0  0  0  0  0  0  0  0  0  0
  139.5470   69.2320  224.5730 C   0  0  0  0  0  0  0  0  0  0  0  0
  139.1420   68.0680  224.9090 O   0  0  0  0  0  0  0  0  0  0  0  0
  139.4500   69.6870  223.3070 N   0  0  0  0  0  0  0  0  0  0  0  0
  138.8610   68.9100  222.2620 C   0  0  0  0  0  0  0  0  0  0  0  0
  137.4110   69.2570  222.1100 C   0  0  0  0  0  0  0  0  0  0  0  0
  136.5280   68.0340  222.3310 C   0  0  0  0  0  0  0  0  0  0  0  0
  135.2040   68.5100  222.8460 C   0  0  0  0  0  0  0  0  0  0  0  0
  135.3320   69.1230  224.2230 C   0  0  0  0  0  0  0  0  0  0  0  0
  136.5130   70.0780  224.2940 C   0  0  0  0  0  0  0  0  0  0  0  0
  136.9540   70.4370  222.8850 C   0  0  0  0  0  0  0  0  0  0  0  0
  138.8240   74.9640  222.3120 C   0  0  0  0  0  0  0  0  0  0  0  0
  139.2490   76.2480  222.5820 C   0  0  0  0  0  0  0  0  0  0  0  0
  143.0860   78.4790  221.6690 H   0  0  0  0  0  0  0  0  0  0  0  0
  141.8080   78.6410  220.5140 H   0  0  0  0  0  0  0  0  0  0  0  0
  142.4767   75.9507  221.6664 H   0  0  0  0  0  0  0  0  0  0  0  0
  141.7058   73.6711  221.1931 H   0  0  0  0  0  0  0  0  0  0  0  0
  138.1780   72.5583  221.1346 H   0  0  0  0  0  0  0  0  0  0  0  0
  140.4354   71.0799  220.9117 H   0  0  0  0  0  0  0  0  0  0  0  0
  141.4839   73.0497  226.1144 H   0  0  0  0  0  0  0  0  0  0  0  0
  141.6185   72.1306  228.4128 H   0  0  0  0  0  0  0  0  0  0  0  0
  140.7879   69.8578  228.9392 H   0  0  0  0  0  0  0  0  0  0  0  0
  139.3846   69.1167  221.3169 H   0  0  0  0  0  0  0  0  0  0  0  0
  138.9490   67.8434  222.5161 H   0  0  0  0  0  0  0  0  0  0  0  0
  137.3017   69.5814  221.0646 H   0  0  0  0  0  0  0  0  0  0  0  0
  136.3886   67.4969  221.3812 H   0  0  0  0  0  0  0  0  0  0  0  0
  136.9961   67.3483  223.0525 H   0  0  0  0  0  0  0  0  0  0  0  0
  134.8022   69.2653  222.1546 H   0  0  0  0  0  0  0  0  0  0  0  0
  134.5293   67.6440  222.9154 H   0  0  0  0  0  0  0  0  0  0  0  0
  134.4098   69.6753  224.4567 H   0  0  0  0  0  0  0  0  0  0  0  0
  135.4952   68.3137  224.9499 H   0  0  0  0  0  0  0  0  0  0  0  0
  136.2152   70.9914  224.8298 H   0  0  0  0  0  0  0  0  0  0  0  0
  137.3447   69.5963  224.8289 H   0  0  0  0  0  0  0  0  0  0  0  0
  136.1058   70.8976  222.3574 H   0  0  0  0  0  0  0  0  0  0  0  0
  137.8048   71.1291  222.9693 H   0  0  0  0  0  0  0  0  0  0  0  0
  137.7736   74.6992  222.5029 H   0  0  0  0  0  0  0  0  0  0  0  0
  138.5351   76.9824  222.9833 H   0  0  0  0  0  0  0  0  0  0  0  0
  1  2  1  0
  2  3  2  0
  2  4  2  0
  2  5  1  0
  5  6  2  0
  6  7  1  0
  7  8  2  0
  8  9  1  0
  9 10  2  0
 10 11  1  0
 11 12  2  0
 12 13  1  0
 13 14  2  0
 14 15  1  0
 15 16  2  0
 16 17  1  0
 17 18  1  0
 17 19  2  0
 19 20  1  0
 20 21  2  0
 20 22  1  0
 22 23  1  0
 23 24  1  0
 24 25  1  0
 25 26  1  0
 26 27  1  0
 27 28  1  0
 28 29  1  0
  8 30  1  0
 30 31  2  0
 31  5  1  0
 22 11  1  0
 29 24  1  0
 19 13  1  0
  1 32  1  0
  1 33  1  0
  6 34  1  0
  7 35  1  0
  9 36  1  0
 10 37  1  0
 14 38  1  0
 15 39  1  0
 16 40  1  0
 23 41  1  0
 23 42  1  0
 24 43  1  0
 25 44  1  0
 25 45  1  0
 26 46  1  0
 26 47  1  0
 27 48  1  0
 27 49  1  0
 28 50  1  0
 28 51  1  0
 29 52  1  0
 29 53  1  0
 30 54  1  0
 31 55  1  0
M  END
>  <smiles>  (7) 
NS(=O)(=O)c1ccc(/C=C/c2nc3cccc(Cl)c3c(=O)n2CC2CCCCC2)cc1

>  <score_type>  (7) 
oracle

>  <origin>  (7) 
autodockgpu

>  <m_score__min__energy>  (7) 
-9.5

>  <m_primary>  (7) 
energy

>  <rmsd>  (7) 
11.142631162975249

>  <m_score__min__rmsd>  (7) 
11.142631162975249

>  <meeko>  (7) 
{"free_energy": -8.53, "intermolecular_energy": -10.62, "internal_energy": -1.78, "cluster_size": 11, "cluster_id": 3, "rank_in_cluster": 9}

>  <energy>  (7) 
-8.97

>  <cluster_rmsd>  (7) 
0.54

>  <cluster>  (7) 
1

$$$$

     RDKit          3D

 55 58  0  0  0  0  0  0  0  0999 V2000
  146.0140   73.4620  218.3590 N   0  0  0  0  0  0  0  0  0  0  0  0
  145.7900   72.8990  219.9700 S   0  0  0  0  0  0  0  0  0  0  0  0
  146.6730   73.7280  220.8590 O   0  0  0  0  0  0  0  0  0  0  0  0
  146.3090   71.4900  220.0410 O   0  0  0  0  0  0  0  0  0  0  0  0
  144.1140   72.9900  220.4600 C   0  0  0  0  0  0  0  0  0  0  0  0
  143.4400   74.1910  220.4830 C   0  0  0  0  0  0  0  0  0  0  0  0
  142.1150   74.2350  220.8730 C   0  0  0  0  0  0  0  0  0  0  0  0
  141.4000   73.1200  221.2540 C   0  0  0  0  0  0  0  0  0  0  0  0
  140.0170   73.1350  221.6660 C   0  0  0  0  0  0  0  0  0  0  0  0
  139.2800   72.0530  221.8610 C   0  0  0  0  0  0  0  0  0  0  0  0
  139.4600   71.2420  223.0850 C   0  0  0  0  0  0  0  0  0  0  0  0
  140.1270   71.8310  224.0930 N   0  0  0  0  0  0  0  0  0  0  0  0
  140.3690   71.2070  225.2570 C   0  0  0  0  0  0  0  0  0  0  0  0
  141.0600   71.8330  226.2880 C   0  0  0  0  0  0  0  0  0  0  0  0
  141.2680   71.1230  227.4550 C   0  0  0  0  0  0  0  0  0  0  0  0
  140.8120   69.8310  227.6210 C   0  0  0  0  0  0  0  0  0  0  0  0
  140.1210   69.2310  226.5660 C   0  0  0  0  0  0  0  0  0  0  0  0
  139.5160   67.5780  226.7260 Cl  0  0  0  0  0  0  0  0  0  0  0  0
  139.9000   69.9170  225.3890 C   0  0  0  0  0  0  0  0  0  0  0  0
  139.2170   69.3400  224.3340 C   0  0  0  0  0  0  0  0  0  0  0  0
  138.8230   68.1430  224.5400 O   0  0  0  0  0  0  0  0  0  0  0  0
  138.9830   69.9820  223.1710 N   0  0  0  0  0  0  0  0  0  0  0  0
  138.2510   69.3780  222.1030 C   0  0  0  0  0  0  0  0  0  0  0  0
  139.1270   68.4250  221.3460 C   0  0  0  0  0  0  0  0  0  0  0  0
  138.3300   67.6690  220.2890 C   0  0  0  0  0  0  0  0  0  0  0  0
  139.2690   67.3070  219.1790 C   0  0  0  0  0  0  0  0  0  0  0  0
  139.7690   68.5350  218.4520 C   0  0  0  0  0  0  0  0  0  0  0  0
  140.2000   69.6170  219.4290 C   0  0  0  0  0  0  0  0  0  0  0  0
  140.3820   69.0050  220.8080 C   0  0  0  0  0  0  0  0  0  0  0  0
  142.1080   71.9140  221.2210 C   0  0  0  0  0  0  0  0  0  0  0  0
  143.4310   71.8530  220.8330 C   0  0  0  0  0  0  0  0  0  0  0  0
  145.2280   74.1080  218.1390 H   0  0  0  0  0  0  0  0  0  0  0  0
  146.9450   73.9060  218.2040 H   0  0  0  0  0  0  0  0  0  0  0  0
  143.9573   75.1166  220.1904 H   0  0  0  0  0  0  0  0  0  0  0  0
  141.6050   75.2096  220.8797 H   0  0  0  0  0  0  0  0  0  0  0  0
  139.5423   74.1138  221.8294 H   0  0  0  0  0  0  0  0  0  0  0  0
  138.5319   71.7562  221.1111 H   0  0  0  0  0  0  0  0  0  0  0  0
  141.4302   72.8630  226.1781 H   0  0  0  0  0  0  0  0  0  0  0  0
  141.8153   71.6036  228.2793 H   0  0  0  0  0  0  0  0  0  0  0  0
  140.9884   69.2874  228.5609 H   0  0  0  0  0  0  0  0  0  0  0  0
  137.3912   68.8304  222.5164 H   0  0  0  0  0  0  0  0  0  0  0  0
  137.9023   70.1649  221.4180 H   0  0  0  0  0  0  0  0  0  0  0  0
  139.4822   67.7030  222.0960 H   0  0  0  0  0  0  0  0  0  0  0  0
  137.8990   66.7566  220.7269 H   0  0  0  0  0  0  0  0  0  0  0  0
  137.5079   68.2930  219.9085 H   0  0  0  0  0  0  0  0  0  0  0  0
  140.1292   66.7666  219.6008 H   0  0  0  0  0  0  0  0  0  0  0  0
  138.7252   66.6778  218.4590 H   0  0  0  0  0  0  0  0  0  0  0  0
  140.6284   68.2553  217.8249 H   0  0  0  0  0  0  0  0  0  0  0  0
  138.9495   68.9309  217.8342 H   0  0  0  0  0  0  0  0  0  0  0  0
  141.1508   70.0571  219.0939 H   0  0  0  0  0  0  0  0  0  0  0  0
  139.4304   70.4017  219.4728 H   0  0  0  0  0  0  0  0  0  0  0  0
  141.1383   68.2089  220.7429 H   0  0  0  0  0  0  0  0  0  0  0  0
  140.6961   69.8089  221.4900 H   0  0  0  0  0  0  0  0  0  0  0  0
  141.5946   70.9861  221.5132 H   0  0  0  0  0  0  0  0  0  0  0  0
  143.9480   70.8821  220.8213 H   0  0  0  0  0  0  0  0  0  0  0  0
  1  2  1  0
  2  3  2  0
  2  4  2  0
  2  5  1  0
  5  6  2  0
  6  7  1  0
  7  8  2  0
  8  9  1  0
  9 10  2  0
 10 11  1  0
 11 12  2  0
 12 13  1  0
 13 14  2  0
 14 15  1  0
 15 16  2  0
 16 17  1  0
 17 18  1  0
 17 19  2  0
 19 20  1  0
 20 21  2  0
 20 22  1  0
 22 23  1  0
 23 24  1  0
 24 25  1  0
 25 26  1  0
 26 27  1  0
 27 28  1  0
 28 29  1  0
  8 30  1  0
 30 31  2  0
 31  5  1  0
 22 11  1  0
 29 24  1  0
 19 13  1  0
  1 32  1  0
  1 33  1  0
  6 34  1  0
  7 35  1  0
  9 36  1  0
 10 37  1  0
 14 38  1  0
 15 39  1  0
 16 40  1  0
 23 41  1  0
 23 42  1  0
 24 43  1  0
 25 44  1  0
 25 45  1  0
 26 46  1  0
 26 47  1  0
 27 48  1  0
 27 49  1  0
 28 50  1  0
 28 51  1  0
 29 52  1  0
 29 53  1  0
 30 54  1  0
 31 55  1  0
M  END
>  <smiles>  (8) 
NS(=O)(=O)c1ccc(/C=C/c2nc3cccc(Cl)c3c(=O)n2CC2CCCCC2)cc1

>  <score_type>  (8) 
oracle

>  <origin>  (8) 
autodockgpu

>  <m_score__min__energy>  (8) 
-9.5

>  <m_primary>  (8) 
energy

>  <rmsd>  (8) 
10.741247359064115

>  <m_score__min__rmsd>  (8) 
10.741247359064115

>  <meeko>  (8) 
{"free_energy": -9.0, "intermolecular_energy": -11.09, "internal_energy": -1.91, "cluster_size": 13, "cluster_id": 1, "rank_in_cluster": 5}

>  <energy>  (8) 
-8.89

>  <cluster_rmsd>  (8) 
0.85

>  <cluster>  (8) 
1

$$$$

     RDKit          3D

 55 58  0  0  0  0  0  0  0  0999 V2000
  146.3120   73.4000  218.6720 N   0  0  0  0  0  0  0  0  0  0  0  0
  145.4410   72.7400  220.0010 S   0  0  0  0  0  0  0  0  0  0  0  0
  146.3330   72.8270  221.2070 O   0  0  0  0  0  0  0  0  0  0  0  0
  145.2260   71.2760  219.7290 O   0  0  0  0  0  0  0  0  0  0  0  0
  143.9250   73.5730  220.2580 C   0  0  0  0  0  0  0  0  0  0  0  0
  143.7570   74.8860  219.8780 C   0  0  0  0  0  0  0  0  0  0  0  0
  142.5490   75.5200  220.0930 C   0  0  0  0  0  0  0  0  0  0  0  0
  141.4650   74.9060  220.6800 C   0  0  0  0  0  0  0  0  0  0  0  0
  140.1900   75.5420  220.9160 C   0  0  0  0  0  0  0  0  0  0  0  0
  139.8840   76.7730  220.5390 C   0  0  0  0  0  0  0  0  0  0  0  0
  139.1470   77.6700  221.4560 C   0  0  0  0  0  0  0  0  0  0  0  0
  137.8420   77.8500  221.1860 N   0  0  0  0  0  0  0  0  0  0  0  0
  137.0570   78.6440  221.9310 C   0  0  0  0  0  0  0  0  0  0  0  0
  135.7090   78.8180  221.6350 C   0  0  0  0  0  0  0  0  0  0  0  0
  134.9680   79.6510  222.4510 C   0  0  0  0  0  0  0  0  0  0  0  0
  135.5220   80.3040  223.5340 C   0  0  0  0  0  0  0  0  0  0  0  0
  136.8790   80.1070  223.8030 C   0  0  0  0  0  0  0  0  0  0  0  0
  137.6380   80.9190  225.1770 Cl  0  0  0  0  0  0  0  0  0  0  0  0
  137.6420   79.2800  223.0040 C   0  0  0  0  0  0  0  0  0  0  0  0
  138.9860   79.0740  223.2560 C   0  0  0  0  0  0  0  0  0  0  0  0
  139.4470   79.7050  224.2660 O   0  0  0  0  0  0  0  0  0  0  0  0
  139.7610   78.2710  222.4970 N   0  0  0  0  0  0  0  0  0  0  0  0
  141.1410   78.0500  222.7900 C   0  0  0  0  0  0  0  0  0  0  0  0
  141.9840   79.1260  222.1740 C   0  0  0  0  0  0  0  0  0  0  0  0
  141.2210   79.8620  221.0790 C   0  0  0  0  0  0  0  0  0  0  0  0
  141.7630   81.2560  220.9990 C   0  0  0  0  0  0  0  0  0  0  0  0
  141.4570   82.0440  222.2530 C   0  0  0  0  0  0  0  0  0  0  0  0
  141.7560   81.2310  223.5020 C   0  0  0  0  0  0  0  0  0  0  0  0
  142.6370   80.0500  223.1330 C   0  0  0  0  0  0  0  0  0  0  0  0
  141.6610   73.5730  221.0550 C   0  0  0  0  0  0  0  0  0  0  0  0
  142.8610   72.9250  220.8480 C   0  0  0  0  0  0  0  0  0  0  0  0
  145.6270   73.8790  218.0520 H   0  0  0  0  0  0  0  0  0  0  0  0
  147.0910   74.0300  218.9620 H   0  0  0  0  0  0  0  0  0  0  0  0
  144.5861   75.4306  219.4026 H   0  0  0  0  0  0  0  0  0  0  0  0
  142.4475   76.5694  219.7792 H   0  0  0  0  0  0  0  0  0  0  0  0
  139.4196   74.9628  221.4461 H   0  0  0  0  0  0  0  0  0  0  0  0
  140.1784   77.1303  219.5412 H   0  0  0  0  0  0  0  0  0  0  0  0
  135.2469   78.3077  220.7770 H   0  0  0  0  0  0  0  0  0  0  0  0
  133.9006   79.7990  222.2304 H   0  0  0  0  0  0  0  0  0  0  0  0
  134.9109   80.9624  224.1688 H   0  0  0  0  0  0  0  0  0  0  0  0
  141.2856   78.0557  223.8804 H   0  0  0  0  0  0  0  0  0  0  0  0
  141.4432   77.0775  222.3742 H   0  0  0  0  0  0  0  0  0  0  0  0
  142.8314   78.5977  221.7127 H   0  0  0  0  0  0  0  0  0  0  0  0
  141.3625   79.3499  220.1158 H   0  0  0  0  0  0  0  0  0  0  0  0
  140.1452   79.8812  221.3076 H   0  0  0  0  0  0  0  0  0  0  0  0
  142.8537   81.2080  220.8646 H   0  0  0  0  0  0  0  0  0  0  0  0
  141.2848   81.7632  220.1481 H   0  0  0  0  0  0  0  0  0  0  0  0
  142.0726   82.9555  222.2627 H   0  0  0  0  0  0  0  0  0  0  0  0
  140.3867   82.2977  222.2515 H   0  0  0  0  0  0  0  0  0  0  0  0
  142.2773   81.8632  224.2359 H   0  0  0  0  0  0  0  0  0  0  0  0
  140.8145   80.8663  223.9385 H   0  0  0  0  0  0  0  0  0  0  0  0
  143.5639   80.4307  222.6792 H   0  0  0  0  0  0  0  0  0  0  0  0
  142.8377   79.4845  224.0549 H   0  0  0  0  0  0  0  0  0  0  0  0
  140.8335   73.0249  221.5292 H   0  0  0  0  0  0  0  0  0  0  0  0
  142.9705   71.8754  221.1584 H   0  0  0  0  0  0  0  0  0  0  0  0
  1  2  1  0
  2  3  2  0
  2  4  2  0
  2  5  1  0
  5  6  2  0
  6  7  1  0
  7  8  2  0
  8  9  1  0
  9 10  2  0
 10 11  1  0
 11 12  2  0
 12 13  1  0
 13 14  2  0
 14 15  1  0
 15 16  2  0
 16 17  1  0
 17 18  1  0
 17 19  2  0
 19 20  1  0
 20 21  2  0
 20 22  1  0
 22 23  1  0
 23 24  1  0
 24 25  1  0
 25 26  1  0
 26 27  1  0
 27 28  1  0
 28 29  1  0
  8 30  1  0
 30 31  2  0
 31  5  1  0
 22 11  1  0
 29 24  1  0
 19 13  1  0
  1 32  1  0
  1 33  1  0
  6 34  1  0
  7 35  1  0
  9 36  1  0
 10 37  1  0
 14 38  1  0
 15 39  1  0
 16 40  1  0
 23 41  1  0
 23 42  1  0
 24 43  1  0
 25 44  1  0
 25 45  1  0
 26 46  1  0
 26 47  1  0
 27 48  1  0
 27 49  1  0
 28 50  1  0
 28 51  1  0
 29 52  1  0
 29 53  1  0
 30 54  1  0
 31 55  1  0
M  END
>  <smiles>  (9) 
NS(=O)(=O)c1ccc(/C=C/c2nc3cccc(Cl)c3c(=O)n2CC2CCCCC2)cc1

>  <score_type>  (9) 
oracle

>  <origin>  (9) 
autodockgpu

>  <m_score__min__energy>  (9) 
-9.5

>  <m_primary>  (9) 
energy

>  <rmsd>  (9) 
5.249637064810434

>  <m_score__min__rmsd>  (9) 
5.249637064810434

>  <meeko>  (9) 
{"free_energy": -8.37, "intermolecular_energy": -10.46, "internal_energy": -1.7, "cluster_size": 6, "cluster_id": 6, "rank_in_cluster": 2}

>  <energy>  (9) 
-8.55

>  <cluster_rmsd>  (9) 
1.38

>  <cluster>  (9) 
1

$$$$

     RDKit          3D

 55 58  0  0  0  0  0  0  0  0999 V2000
  145.9560   73.4410  218.5680 N   0  0  0  0  0  0  0  0  0  0  0  0
  145.6850   72.4650  219.9590 S   0  0  0  0  0  0  0  0  0  0  0  0
  146.4070   73.1120  221.1060 O   0  0  0  0  0  0  0  0  0  0  0  0
  146.3500   71.1360  219.7260 O   0  0  0  0  0  0  0  0  0  0  0  0
  143.9790   72.2770  220.2940 C   0  0  0  0  0  0  0  0  0  0  0  0
  143.3600   71.0510  220.1870 C   0  0  0  0  0  0  0  0  0  0  0  0
  142.0110   70.9300  220.4590 C   0  0  0  0  0  0  0  0  0  0  0  0
  141.2170   71.9890  220.8410 C   0  0  0  0  0  0  0  0  0  0  0  0
  139.8060   71.8930  221.1320 C   0  0  0  0  0  0  0  0  0  0  0  0
  139.2600   72.1730  222.3040 C   0  0  0  0  0  0  0  0  0  0  0  0
  139.5100   71.2960  223.4690 C   0  0  0  0  0  0  0  0  0  0  0  0
  140.0890   71.8770  224.5340 N   0  0  0  0  0  0  0  0  0  0  0  0
  140.3790   71.1980  225.6550 C   0  0  0  0  0  0  0  0  0  0  0  0
  140.9780   71.8160  226.7460 C   0  0  0  0  0  0  0  0  0  0  0  0
  141.2450   71.0480  227.8630 C   0  0  0  0  0  0  0  0  0  0  0  0
  140.9350   69.7040  227.9220 C   0  0  0  0  0  0  0  0  0  0  0  0
  140.3340   69.1130  226.8080 C   0  0  0  0  0  0  0  0  0  0  0  0
  139.9170   67.3950  226.8310 Cl  0  0  0  0  0  0  0  0  0  0  0  0
  140.0570   69.8580  225.6790 C   0  0  0  0  0  0  0  0  0  0  0  0
  139.4620   69.2900  224.5690 C   0  0  0  0  0  0  0  0  0  0  0  0
  139.2020   68.0430  224.6760 O   0  0  0  0  0  0  0  0  0  0  0  0
  139.1760   69.9880  223.4500 N   0  0  0  0  0  0  0  0  0  0  0  0
  138.5350   69.3890  222.3230 C   0  0  0  0  0  0  0  0  0  0  0  0
  137.3060   68.6480  222.7550 C   0  0  0  0  0  0  0  0  0  0  0  0
  136.1510   69.6070  223.0170 C   0  0  0  0  0  0  0  0  0  0  0  0
  134.8730   68.8690  222.7600 C   0  0  0  0  0  0  0  0  0  0  0  0
  134.7250   68.5080  221.2980 C   0  0  0  0  0  0  0  0  0  0  0  0
  136.0140   67.9240  220.7410 C   0  0  0  0  0  0  0  0  0  0  0  0
  136.9140   67.5070  221.8910 C   0  0  0  0  0  0  0  0  0  0  0  0
  141.8700   73.2220  220.9420 C   0  0  0  0  0  0  0  0  0  0  0  0
  143.2160   73.3590  220.6760 C   0  0  0  0  0  0  0  0  0  0  0  0
  145.1780   74.1290  218.5080 H   0  0  0  0  0  0  0  0  0  0  0  0
  146.8920   73.9020  218.5650 H   0  0  0  0  0  0  0  0  0  0  0  0
  143.9407   70.1671  219.8845 H   0  0  0  0  0  0  0  0  0  0  0  0
  141.5470   69.9370  220.3658 H   0  0  0  0  0  0  0  0  0  0  0  0
  139.1381   71.5639  220.3223 H   0  0  0  0  0  0  0  0  0  0  0  0
  138.6186   73.0600  222.4126 H   0  0  0  0  0  0  0  0  0  0  0  0
  141.2323   72.8859  226.7210 H   0  0  0  0  0  0  0  0  0  0  0  0
  141.7202   71.5230  228.7340 H   0  0  0  0  0  0  0  0  0  0  0  0
  141.1557   69.1134  228.8234 H   0  0  0  0  0  0  0  0  0  0  0  0
  138.2519   70.1746  221.6070 H   0  0  0  0  0  0  0  0  0  0  0  0
  139.2316   68.6808  221.8505 H   0  0  0  0  0  0  0  0  0  0  0  0
  137.5807   68.1656  223.7047 H   0  0  0  0  0  0  0  0  0  0  0  0
  136.1804   69.9511  224.0614 H   0  0  0  0  0  0  0  0  0  0  0  0
  136.2254   70.4855  222.3591 H   0  0  0  0  0  0  0  0  0  0  0  0
  134.8668   67.9460  223.3584 H   0  0  0  0  0  0  0  0  0  0  0  0
  134.0344   69.5234  223.0403 H   0  0  0  0  0  0  0  0  0  0  0  0
  133.9199   67.7661  221.1916 H   0  0  0  0  0  0  0  0  0  0  0  0
  134.4867   69.4233  220.7363 H   0  0  0  0  0  0  0  0  0  0  0  0
  135.7815   67.0467  220.1195 H   0  0  0  0  0  0  0  0  0  0  0  0
  136.5262   68.6799  220.1275 H   0  0  0  0  0  0  0  0  0  0  0  0
  136.3797   66.7676  222.5057 H   0  0  0  0  0  0  0  0  0  0  0  0
  137.8338   67.0875  221.4575 H   0  0  0  0  0  0  0  0  0  0  0  0
  141.2925   74.1087  221.2426 H   0  0  0  0  0  0  0  0  0  0  0  0
  143.6883   74.3480  220.7702 H   0  0  0  0  0  0  0  0  0  0  0  0
  1  2  1  0
  2  3  2  0
  2  4  2  0
  2  5  1  0
  5  6  2  0
  6  7  1  0
  7  8  2  0
  8  9  1  0
  9 10  2  0
 10 11  1  0
 11 12  2  0
 12 13  1  0
 13 14  2  0
 14 15  1  0
 15 16  2  0
 16 17  1  0
 17 18  1  0
 17 19  2  0
 19 20  1  0
 20 21  2  0
 20 22  1  0
 22 23  1  0
 23 24  1  0
 24 25  1  0
 25 26  1  0
 26 27  1  0
 27 28  1  0
 28 29  1  0
  8 30  1  0
 30 31  2  0
 31  5  1  0
 22 11  1  0
 29 24  1  0
 19 13  1  0
  1 32  1  0
  1 33  1  0
  6 34  1  0
  7 35  1  0
  9 36  1  0
 10 37  1  0
 14 38  1  0
 15 39  1  0
 16 40  1  0
 23 41  1  0
 23 42  1  0
 24 43  1  0
 25 44  1  0
 25 45  1  0
 26 46  1  0
 26 47  1  0
 27 48  1  0
 27 49  1  0
 28 50  1  0
 28 51  1  0
 29 52  1  0
 29 53  1  0
 30 54  1  0
 31 55  1  0
M  END
>  <smiles>  (10) 
NS(=O)(=O)c1ccc(/C=C/c2nc3cccc(Cl)c3c(=O)n2CC2CCCCC2)cc1

>  <score_type>  (10) 
oracle

>  <origin>  (10) 
autodockgpu

>  <m_score__min__energy>  (10) 
-9.5

>  <m_primary>  (10) 
energy

>  <rmsd>  (10) 
11.170501010783862

>  <m_score__min__rmsd>  (10) 
11.170501010783862

>  <meeko>  (10) 
{"free_energy": -9.02, "intermolecular_energy": -11.11, "internal_energy": -1.39, "cluster_size": 13, "cluster_id": 1, "rank_in_cluster": 4}

>  <energy>  (10) 
-8.55

>  <cluster_rmsd>  (10) 
1.32

>  <cluster>  (10) 
1

$$$$

     RDKit          3D

 55 58  0  0  0  0  0  0  0  0999 V2000
  133.6390   73.5600  226.4310 N   0  0  0  0  0  0  0  0  0  0  0  0
  133.3900   71.8640  226.5890 S   0  0  0  0  0  0  0  0  0  0  0  0
  131.9210   71.6090  226.3980 O   0  0  0  0  0  0  0  0  0  0  0  0
  133.7120   71.4830  228.0080 O   0  0  0  0  0  0  0  0  0  0  0  0
  134.3560   70.9590  225.4470 C   0  0  0  0  0  0  0  0  0  0  0  0
  134.3230   69.5820  225.4150 C   0  0  0  0  0  0  0  0  0  0  0  0
  135.0960   68.8910  224.5030 C   0  0  0  0  0  0  0  0  0  0  0  0
  135.9260   69.5080  223.5920 C   0  0  0  0  0  0  0  0  0  0  0  0
  136.7440   68.8140  222.6270 C   0  0  0  0  0  0  0  0  0  0  0  0
  138.0000   68.4500  222.8300 C   0  0  0  0  0  0  0  0  0  0  0  0
  138.7670   69.0250  223.9570 C   0  0  0  0  0  0  0  0  0  0  0  0
  138.9830   68.2100  225.0040 N   0  0  0  0  0  0  0  0  0  0  0  0
  139.6580   68.6040  226.0950 C   0  0  0  0  0  0  0  0  0  0  0  0
  139.8710   67.7460  227.1680 C   0  0  0  0  0  0  0  0  0  0  0  0
  140.5750   68.2270  228.2550 C   0  0  0  0  0  0  0  0  0  0  0  0
  141.0650   69.5170  228.3010 C   0  0  0  0  0  0  0  0  0  0  0  0
  140.8340   70.3530  227.2060 C   0  0  0  0  0  0  0  0  0  0  0  0
  141.4390   72.0140  227.2140 Cl  0  0  0  0  0  0  0  0  0  0  0  0
  140.1330   69.8980  226.1080 C   0  0  0  0  0  0  0  0  0  0  0  0
  139.8950   70.7110  225.0160 C   0  0  0  0  0  0  0  0  0  0  0  0
  140.3660   71.8950  225.1140 O   0  0  0  0  0  0  0  0  0  0  0  0
  139.2160   70.2980  223.9260 N   0  0  0  0  0  0  0  0  0  0  0  0
  139.0040   71.1460  222.7960 C   0  0  0  0  0  0  0  0  0  0  0  0
  140.3120   71.4920  222.1520 C   0  0  0  0  0  0  0  0  0  0  0  0
  140.3930   70.9340  220.7360 C   0  0  0  0  0  0  0  0  0  0  0  0
  141.3000   71.8230  219.9430 C   0  0  0  0  0  0  0  0  0  0  0  0
  140.7070   73.2030  219.7600 C   0  0  0  0  0  0  0  0  0  0  0  0
  140.1440   73.7380  221.0670 C   0  0  0  0  0  0  0  0  0  0  0  0
  140.6980   72.9230  222.2230 C   0  0  0  0  0  0  0  0  0  0  0  0
  135.9410   70.9060  223.6460 C   0  0  0  0  0  0  0  0  0  0  0  0
  135.1740   71.6110  224.5500 C   0  0  0  0  0  0  0  0  0  0  0  0
  134.4430   73.7020  225.7860 H   0  0  0  0  0  0  0  0  0  0  0  0
  132.7870   74.0730  226.1180 H   0  0  0  0  0  0  0  0  0  0  0  0
  133.6795   69.0319  226.1174 H   0  0  0  0  0  0  0  0  0  0  0  0
  135.0468   67.7921  224.5036 H   0  0  0  0  0  0  0  0  0  0  0  0
  136.2918   68.5704  221.6543 H   0  0  0  0  0  0  0  0  0  0  0  0
  138.4747   67.7185  222.1595 H   0  0  0  0  0  0  0  0  0  0  0  0
  139.4901   66.7142  227.1519 H   0  0  0  0  0  0  0  0  0  0  0  0
  140.7509   67.5603  229.1121 H   0  0  0  0  0  0  0  0  0  0  0  0
  141.6232   69.8773  229.1777 H   0  0  0  0  0  0  0  0  0  0  0  0
  138.3668   70.6252  222.0661 H   0  0  0  0  0  0  0  0  0  0  0  0
  138.5143   72.0723  223.1310 H   0  0  0  0  0  0  0  0  0  0  0  0
  141.0744   70.9915  222.7670 H   0  0  0  0  0  0  0  0  0  0  0  0
  140.7985   69.9117  220.7596 H   0  0  0  0  0  0  0  0  0  0  0  0
  139.3929   70.9009  220.2791 H   0  0  0  0  0  0  0  0  0  0  0  0
  142.2609   71.9145  220.4706 H   0  0  0  0  0  0  0  0  0  0  0  0
  141.4390   71.3736  218.9486 H   0  0  0  0  0  0  0  0  0  0  0  0
  141.4913   73.8857  219.4012 H   0  0  0  0  0  0  0  0  0  0  0  0
  139.8872   73.1355  219.0297 H   0  0  0  0  0  0  0  0  0  0  0  0
  140.4344   74.7921  221.1881 H   0  0  0  0  0  0  0  0  0  0  0  0
  139.0467   73.6613  221.0545 H   0  0  0  0  0  0  0  0  0  0  0  0
  141.7957   72.9925  222.2083 H   0  0  0  0  0  0  0  0  0  0  0  0
  140.2766   73.3350  223.1518 H   0  0  0  0  0  0  0  0  0  0  0  0
  136.5841   71.4598  222.9462 H   0  0  0  0  0  0  0  0  0  0  0  0
  135.2159   72.7102  224.5550 H   0  0  0  0  0  0  0  0  0  0  0  0
  1  2  1  0
  2  3  2  0
  2  4  2  0
  2  5  1  0
  5  6  2  0
  6  7  1  0
  7  8  2  0
  8  9  1  0
  9 10  2  0
 10 11  1  0
 11 12  2  0
 12 13  1  0
 13 14  2  0
 14 15  1  0
 15 16  2  0
 16 17  1  0
 17 18  1  0
 17 19  2  0
 19 20  1  0
 20 21  2  0
 20 22  1  0
 22 23  1  0
 23 24  1  0
 24 25  1  0
 25 26  1  0
 26 27  1  0
 27 28  1  0
 28 29  1  0
  8 30  1  0
 30 31  2  0
 31  5  1  0
 22 11  1  0
 29 24  1  0
 19 13  1  0
  1 32  1  0
  1 33  1  0
  6 34  1  0
  7 35  1  0
  9 36  1  0
 10 37  1  0
 14 38  1  0
 15 39  1  0
 16 40  1  0
 23 41  1  0
 23 42  1  0
 24 43  1  0
 25 44  1  0
 25 45  1  0
 26 46  1  0
 26 47  1  0
 27 48  1  0
 27 49  1  0
 28 50  1  0
 28 51  1  0
 29 52  1  0
 29 53  1  0
 30 54  1  0
 31 55  1  0
M  END
>  <smiles>  (11) 
NS(=O)(=O)c1ccc(/C=C/c2nc3cccc(Cl)c3c(=O)n2CC2CCCCC2)cc1

>  <score_type>  (11) 
oracle

>  <origin>  (11) 
autodockgpu

>  <m_score__min__energy>  (11) 
-9.5

>  <m_primary>  (11) 
energy

>  <rmsd>  (11) 
10.405640816358511

>  <m_score__min__rmsd>  (11) 
10.405640816358511

>  <meeko>  (11) 
{"free_energy": -8.21, "intermolecular_energy": -10.29, "internal_energy": -1.79, "cluster_size": 5, "cluster_id": 5, "rank_in_cluster": 5}

>  <energy>  (11) 
-8.41

>  <cluster_rmsd>  (11) 
1.47

>  <cluster>  (11) 
1

$$$$

     RDKit          3D

 55 58  0  0  0  0  0  0  0  0999 V2000
  133.2090   72.1240  227.5920 N   0  0  0  0  0  0  0  0  0  0  0  0
  133.5750   72.7300  226.0240 S   0  0  0  0  0  0  0  0  0  0  0  0
  134.3390   74.0110  226.2070 O   0  0  0  0  0  0  0  0  0  0  0  0
  132.2770   73.0950  225.3570 O   0  0  0  0  0  0  0  0  0  0  0  0
  134.4770   71.5700  225.0760 C   0  0  0  0  0  0  0  0  0  0  0  0
  134.9890   71.9000  223.8400 C   0  0  0  0  0  0  0  0  0  0  0  0
  135.6990   70.9650  223.1120 C   0  0  0  0  0  0  0  0  0  0  0  0
  135.9360   69.6820  223.5550 C   0  0  0  0  0  0  0  0  0  0  0  0
  136.6740   68.6840  222.8170 C   0  0  0  0  0  0  0  0  0  0  0  0
  137.9840   68.5150  222.8860 C   0  0  0  0  0  0  0  0  0  0  0  0
  138.7480   69.0780  224.0220 C   0  0  0  0  0  0  0  0  0  0  0  0
  138.9660   68.2480  225.0570 N   0  0  0  0  0  0  0  0  0  0  0  0
  139.6380   68.6300  226.1550 C   0  0  0  0  0  0  0  0  0  0  0  0
  139.8540   67.7570  227.2160 C   0  0  0  0  0  0  0  0  0  0  0  0
  140.5540   68.2260  228.3100 C   0  0  0  0  0  0  0  0  0  0  0  0
  141.0370   69.5180  228.3760 C   0  0  0  0  0  0  0  0  0  0  0  0
  140.8030   70.3690  227.2930 C   0  0  0  0  0  0  0  0  0  0  0  0
  141.4010   72.0320  227.3260 Cl  0  0  0  0  0  0  0  0  0  0  0  0
  140.1060   69.9260  226.1880 C   0  0  0  0  0  0  0  0  0  0  0  0
  139.8660   70.7540  225.1070 C   0  0  0  0  0  0  0  0  0  0  0  0
  140.3310   71.9380  225.2230 O   0  0  0  0  0  0  0  0  0  0  0  0
  139.1900   70.3530  224.0100 N   0  0  0  0  0  0  0  0  0  0  0  0
  138.9750   71.2160  222.8920 C   0  0  0  0  0  0  0  0  0  0  0  0
  140.2790   71.5430  222.2280 C   0  0  0  0  0  0  0  0  0  0  0  0
  140.4070   70.8290  220.8880 C   0  0  0  0  0  0  0  0  0  0  0  0
  141.2900   71.6590  220.0080 C   0  0  0  0  0  0  0  0  0  0  0  0
  140.6420   72.9800  219.6590 C   0  0  0  0  0  0  0  0  0  0  0  0
  140.0340   73.6380  220.8880 C   0  0  0  0  0  0  0  0  0  0  0  0
  140.6020   72.9880  222.1370 C   0  0  0  0  0  0  0  0  0  0  0  0
  135.4060   69.3730  224.8120 C   0  0  0  0  0  0  0  0  0  0  0  0
  134.6960   70.2960  225.5520 C   0  0  0  0  0  0  0  0  0  0  0  0
  132.8630   72.9220  228.1650 H   0  0  0  0  0  0  0  0  0  0  0  0
  132.5370   71.3270  227.5790 H   0  0  0  0  0  0  0  0  0  0  0  0
  134.8321   72.9096  223.4324 H   0  0  0  0  0  0  0  0  0  0  0  0
  136.0952   71.2596  222.1290 H   0  0  0  0  0  0  0  0  0  0  0  0
  136.1068   68.0175  222.1506 H   0  0  0  0  0  0  0  0  0  0  0  0
  138.5071   67.9546  222.0971 H   0  0  0  0  0  0  0  0  0  0  0  0
  139.4784   66.7236  227.1846 H   0  0  0  0  0  0  0  0  0  0  0  0
  140.7329   67.5477  229.1573 H   0  0  0  0  0  0  0  0  0  0  0  0
  141.5919   69.8682  229.2589 H   0  0  0  0  0  0  0  0  0  0  0  0
  138.3151   70.7149  222.1685 H   0  0  0  0  0  0  0  0  0  0  0  0
  138.5094   72.1483  223.2443 H   0  0  0  0  0  0  0  0  0  0  0  0
  141.0521   71.1518  222.9057 H   0  0  0  0  0  0  0  0  0  0  0  0
  140.8540   69.8348  221.0352 H   0  0  0  0  0  0  0  0  0  0  0  0
  139.4171   70.6999  220.4260 H   0  0  0  0  0  0  0  0  0  0  0  0
  142.2368   71.8532  220.5332 H   0  0  0  0  0  0  0  0  0  0  0  0
  141.4660   71.1041  219.0746 H   0  0  0  0  0  0  0  0  0  0  0  0
  141.4024   73.6507  219.2325 H   0  0  0  0  0  0  0  0  0  0  0  0
  139.8382   72.7916  218.9321 H   0  0  0  0  0  0  0  0  0  0  0  0
  140.2772   74.7108  220.8889 H   0  0  0  0  0  0  0  0  0  0  0  0
  138.9413   73.5123  220.8712 H   0  0  0  0  0  0  0  0  0  0  0  0
  141.6958   73.1042  222.1277 H   0  0  0  0  0  0  0  0  0  0  0  0
  140.1473   73.4854  223.0064 H   0  0  0  0  0  0  0  0  0  0  0  0
  135.5598   68.3642  225.2227 H   0  0  0  0  0  0  0  0  0  0  0  0
  134.2987   70.0102  226.5371 H   0  0  0  0  0  0  0  0  0  0  0  0
  1  2  1  0
  2  3  2  0
  2  4  2  0
  2  5  1  0
  5  6  2  0
  6  7  1  0
  7  8  2  0
  8  9  1  0
  9 10  2  0
 10 11  1  0
 11 12  2  0
 12 13  1  0
 13 14  2  0
 14 15  1  0
 15 16  2  0
 16 17  1  0
 17 18  1  0
 17 19  2  0
 19 20  1  0
 20 21  2  0
 20 22  1  0
 22 23  1  0
 23 24  1  0
 24 25  1  0
 25 26  1  0
 26 27  1  0
 27 28  1  0
 28 29  1  0
  8 30  1  0
 30 31  2  0
 31  5  1  0
 22 11  1  0
 29 24  1  0
 19 13  1  0
  1 32  1  0
  1 33  1  0
  6 34  1  0
  7 35  1  0
  9 36  1  0
 10 37  1  0
 14 38  1  0
 15 39  1  0
 16 40  1  0
 23 41  1  0
 23 42  1  0
 24 43  1  0
 25 44  1  0
 25 45  1  0
 26 46  1  0
 26 47  1  0
 27 48  1  0
 27 49  1  0
 28 50  1  0
 28 51  1  0
 29 52  1  0
 29 53  1  0
 30 54  1  0
 31 55  1  0
M  END
>  <smiles>  (12) 
NS(=O)(=O)c1ccc(/C=C/c2nc3cccc(Cl)c3c(=O)n2CC2CCCCC2)cc1

>  <score_type>  (12) 
oracle

>  <origin>  (12) 
autodockgpu

>  <m_score__min__energy>  (12) 
-9.5

>  <m_primary>  (12) 
energy

>  <rmsd>  (12) 
10.43613116244682

>  <m_score__min__rmsd>  (12) 
10.43613116244682

>  <meeko>  (12) 
{"free_energy": -8.5, "intermolecular_energy": -10.59, "internal_energy": -1.89, "cluster_size": 5, "cluster_id": 5, "rank_in_cluster": 3}

>  <energy>  (12) 
-7.84

>  <cluster_rmsd>  (12) 
1.9

>  <cluster>  (12) 
1

$$$$

     RDKit          3D

 55 58  0  0  0  0  0  0  0  0999 V2000
  136.0260   81.3400  230.5930 N   0  0  0  0  0  0  0  0  0  0  0  0
  134.8130   81.8730  229.4960 S   0  0  0  0  0  0  0  0  0  0  0  0
  134.2530   83.1570  230.0380 O   0  0  0  0  0  0  0  0  0  0  0  0
  133.6940   80.8690  229.5250 O   0  0  0  0  0  0  0  0  0  0  0  0
  135.4480   82.0780  227.8790 C   0  0  0  0  0  0  0  0  0  0  0  0
  136.5600   81.3860  227.4550 C   0  0  0  0  0  0  0  0  0  0  0  0
  137.0410   81.5660  226.1720 C   0  0  0  0  0  0  0  0  0  0  0  0
  136.4620   82.4200  225.2590 C   0  0  0  0  0  0  0  0  0  0  0  0
  136.9410   82.6290  223.9130 C   0  0  0  0  0  0  0  0  0  0  0  0
  136.7350   81.7970  222.9060 C   0  0  0  0  0  0  0  0  0  0  0  0
  136.2920   80.4090  223.1660 C   0  0  0  0  0  0  0  0  0  0  0  0
  135.0750   80.2700  223.7200 N   0  0  0  0  0  0  0  0  0  0  0  0
  134.5530   79.0690  224.0160 C   0  0  0  0  0  0  0  0  0  0  0  0
  133.2920   78.9450  224.5890 C   0  0  0  0  0  0  0  0  0  0  0  0
  132.8260   77.6750  224.8630 C   0  0  0  0  0  0  0  0  0  0  0  0
  133.5670   76.5430  224.5870 C   0  0  0  0  0  0  0  0  0  0  0  0
  134.8300   76.7020  224.0110 C   0  0  0  0  0  0  0  0  0  0  0  0
  135.8200   75.2870  223.6370 Cl  0  0  0  0  0  0  0  0  0  0  0  0
  135.3200   77.9610  223.7270 C   0  0  0  0  0  0  0  0  0  0  0  0
  136.5670   78.1370  223.1570 C   0  0  0  0  0  0  0  0  0  0  0  0
  137.2110   77.0580  222.9270 O   0  0  0  0  0  0  0  0  0  0  0  0
  137.0760   79.3520  222.8650 N   0  0  0  0  0  0  0  0  0  0  0  0
  138.3560   79.5120  222.2510 C   0  0  0  0  0  0  0  0  0  0  0  0
  139.4450   79.3730  223.2720 C   0  0  0  0  0  0  0  0  0  0  0  0
  140.5450   78.4410  222.7780 C   0  0  0  0  0  0  0  0  0  0  0  0
  141.8260   78.8550  223.4340 C   0  0  0  0  0  0  0  0  0  0  0  0
  142.2710   80.2250  222.9690 C   0  0  0  0  0  0  0  0  0  0  0  0
  141.1130   81.2100  222.9740 C   0  0  0  0  0  0  0  0  0  0  0  0
  139.9780   80.6480  223.8120 C   0  0  0  0  0  0  0  0  0  0  0  0
  135.3340   83.1100  225.7160 C   0  0  0  0  0  0  0  0  0  0  0  0
  134.8410   82.9410  226.9930 C   0  0  0  0  0  0  0  0  0  0  0  0
  136.5760   82.1740  230.8860 H   0  0  0  0  0  0  0  0  0  0  0  0
  135.6420   80.8140  231.4080 H   0  0  0  0  0  0  0  0  0  0  0  0
  137.0665   80.6887  228.1385 H   0  0  0  0  0  0  0  0  0  0  0  0
  137.9316   80.9985  225.8640 H   0  0  0  0  0  0  0  0  0  0  0  0
  137.5173   83.5439  223.7112 H   0  0  0  0  0  0  0  0  0  0  0  0
  136.8934   82.1375  221.8721 H   0  0  0  0  0  0  0  0  0  0  0  0
  132.6839   79.8328  224.8171 H   0  0  0  0  0  0  0  0  0  0  0  0
  131.8304   77.5608  225.3167 H   0  0  0  0  0  0  0  0  0  0  0  0
  133.1730   75.5416  224.8148 H   0  0  0  0  0  0  0  0  0  0  0  0
  138.4852   78.7423  221.4759 H   0  0  0  0  0  0  0  0  0  0  0  0
  138.4138   80.5141  221.8010 H   0  0  0  0  0  0  0  0  0  0  0  0
  138.9622   78.9094  224.1449 H   0  0  0  0  0  0  0  0  0  0  0  0
  140.3047   77.4023  223.0488 H   0  0  0  0  0  0  0  0  0  0  0  0
  140.6370   78.5021  221.6836 H   0  0  0  0  0  0  0  0  0  0  0  0
  141.6781   78.8782  224.5238 H   0  0  0  0  0  0  0  0  0  0  0  0
  142.6046   78.1281  223.1594 H   0  0  0  0  0  0  0  0  0  0  0  0
  143.0589   80.5940  223.6421 H   0  0  0  0  0  0  0  0  0  0  0  0
  142.6497   80.1377  221.9399 H   0  0  0  0  0  0  0  0  0  0  0  0
  141.4466   82.1668  223.4020 H   0  0  0  0  0  0  0  0  0  0  0  0
  140.7640   81.3728  221.9436 H   0  0  0  0  0  0  0  0  0  0  0  0
  140.3483   80.4706  224.8325 H   0  0  0  0  0  0  0  0  0  0  0  0
  139.1595   81.3827  223.7985 H   0  0  0  0  0  0  0  0  0  0  0  0
  134.8247   83.8087  225.0360 H   0  0  0  0  0  0  0  0  0  0  0  0
  133.9500   83.5036  227.3087 H   0  0  0  0  0  0  0  0  0  0  0  0
  1  2  1  0
  2  3  2  0
  2  4  2  0
  2  5  1  0
  5  6  2  0
  6  7  1  0
  7  8  2  0
  8  9  1  0
  9 10  2  0
 10 11  1  0
 11 12  2  0
 12 13  1  0
 13 14  2  0
 14 15  1  0
 15 16  2  0
 16 17  1  0
 17 18  1  0
 17 19  2  0
 19 20  1  0
 20 21  2  0
 20 22  1  0
 22 23  1  0
 23 24  1  0
 24 25  1  0
 25 26  1  0
 26 27  1  0
 27 28  1  0
 28 29  1  0
  8 30  1  0
 30 31  2  0
 31  5  1  0
 22 11  1  0
 29 24  1  0
 19 13  1  0
  1 32  1  0
  1 33  1  0
  6 34  1  0
  7 35  1  0
  9 36  1  0
 10 37  1  0
 14 38  1  0
 15 39  1  0
 16 40  1  0
 23 41  1  0
 23 42  1  0
 24 43  1  0
 25 44  1  0
 25 45  1  0
 26 46  1  0
 26 47  1  0
 27 48  1  0
 27 49  1  0
 28 50  1  0
 28 51  1  0
 29 52  1  0
 29 53  1  0
 30 54  1  0
 31 55  1  0
M  END
>  <smiles>  (13) 
NS(=O)(=O)c1ccc(/C=C/c2nc3cccc(Cl)c3c(=O)n2CC2CCCCC2)cc1

>  <score_type>  (13) 
oracle

>  <origin>  (13) 
autodockgpu

>  <m_score__min__energy>  (13) 
-9.5

>  <m_primary>  (13) 
energy

>  <rmsd>  (13) 
6.931017259033687

>  <m_score__min__rmsd>  (13) 
6.931017259033687

>  <meeko>  (13) 
{"free_energy": -7.39, "intermolecular_energy": -9.48, "internal_energy": -2.05, "cluster_size": 1, "cluster_id": 10, "rank_in_cluster": 1}

>  <energy>  (13) 
-7.77

>  <cluster_rmsd>  (13) 
1.04

>  <cluster>  (13) 
1

$$$$

     RDKit          3D

 55 58  0  0  0  0  0  0  0  0999 V2000
  133.2720   72.1220  227.5960 N   0  0  0  0  0  0  0  0  0  0  0  0
  133.5930   72.6800  226.0010 S   0  0  0  0  0  0  0  0  0  0  0  0
  134.3500   73.9720  226.1230 O   0  0  0  0  0  0  0  0  0  0  0  0
  132.2760   73.0120  225.3550 O   0  0  0  0  0  0  0  0  0  0  0  0
  134.4830   71.4970  225.0690 C   0  0  0  0  0  0  0  0  0  0  0  0
  134.6320   70.2020  225.5130 C   0  0  0  0  0  0  0  0  0  0  0  0
  135.3390   69.2870  224.7570 C   0  0  0  0  0  0  0  0  0  0  0  0
  135.9250   69.5940  223.5490 C   0  0  0  0  0  0  0  0  0  0  0  0
  136.6690   68.6610  222.7370 C   0  0  0  0  0  0  0  0  0  0  0  0
  137.9350   68.3350  222.9370 C   0  0  0  0  0  0  0  0  0  0  0  0
  138.6970   68.9560  224.0430 C   0  0  0  0  0  0  0  0  0  0  0  0
  138.9370   68.1740  225.1090 N   0  0  0  0  0  0  0  0  0  0  0  0
  139.6100   68.6110  226.1850 C   0  0  0  0  0  0  0  0  0  0  0  0
  139.8480   67.7860  227.2790 C   0  0  0  0  0  0  0  0  0  0  0  0
  140.5480   68.3110  228.3480 C   0  0  0  0  0  0  0  0  0  0  0  0
  141.0110   69.6120  228.3570 C   0  0  0  0  0  0  0  0  0  0  0  0
  140.7540   70.4140  227.2420 C   0  0  0  0  0  0  0  0  0  0  0  0
  141.3240   72.0870  227.2020 Cl  0  0  0  0  0  0  0  0  0  0  0  0
  140.0570   69.9140  226.1610 C   0  0  0  0  0  0  0  0  0  0  0  0
  139.7950   70.6940  225.0500 C   0  0  0  0  0  0  0  0  0  0  0  0
  140.2400   71.8890  225.1130 O   0  0  0  0  0  0  0  0  0  0  0  0
  139.1180   70.2370  223.9760 N   0  0  0  0  0  0  0  0  0  0  0  0
  138.8800   71.0500  222.8250 C   0  0  0  0  0  0  0  0  0  0  0  0
  140.1700   71.3390  222.1160 C   0  0  0  0  0  0  0  0  0  0  0  0
  140.1040   70.9040  220.6570 C   0  0  0  0  0  0  0  0  0  0  0  0
  141.0350   71.7790  219.8750 C   0  0  0  0  0  0  0  0  0  0  0  0
  140.5590   73.2140  219.8510 C   0  0  0  0  0  0  0  0  0  0  0  0
  140.1360   73.6780  221.2360 C   0  0  0  0  0  0  0  0  0  0  0  0
  140.6880   72.7200  222.2770 C   0  0  0  0  0  0  0  0  0  0  0  0
  135.7580   70.9160  223.1210 C   0  0  0  0  0  0  0  0  0  0  0  0
  135.0550   71.8410  223.8630 C   0  0  0  0  0  0  0  0  0  0  0  0
  134.1360   72.2610  228.1590 H   0  0  0  0  0  0  0  0  0  0  0  0
  132.4400   72.5770  228.0320 H   0  0  0  0  0  0  0  0  0  0  0  0
  134.1873   69.8956  226.4713 H   0  0  0  0  0  0  0  0  0  0  0  0
  135.4391   68.2605  225.1395 H   0  0  0  0  0  0  0  0  0  0  0  0
  136.1463   68.1879  221.8926 H   0  0  0  0  0  0  0  0  0  0  0  0
  138.4228   67.6003  222.2795 H   0  0  0  0  0  0  0  0  0  0  0  0
  139.4895   66.7462  227.2927 H   0  0  0  0  0  0  0  0  0  0  0  0
  140.7431   67.6713  229.2213 H   0  0  0  0  0  0  0  0  0  0  0  0
  141.5678   70.0068  229.2197 H   0  0  0  0  0  0  0  0  0  0  0  0
  138.2006   70.5205  222.1409 H   0  0  0  0  0  0  0  0  0  0  0  0
  138.4271   71.9999  223.1453 H   0  0  0  0  0  0  0  0  0  0  0  0
  140.9240   70.7231  222.6280 H   0  0  0  0  0  0  0  0  0  0  0  0
  140.4138   69.8525  220.5658 H   0  0  0  0  0  0  0  0  0  0  0  0
  139.0769   70.9977  220.2745 H   0  0  0  0  0  0  0  0  0  0  0  0
  142.0329   71.7412  220.3363 H   0  0  0  0  0  0  0  0  0  0  0  0
  141.0676   71.4092  218.8395 H   0  0  0  0  0  0  0  0  0  0  0  0
  141.3761   73.8568  219.4916 H   0  0  0  0  0  0  0  0  0  0  0  0
  139.6889   73.2805  219.1813 H   0  0  0  0  0  0  0  0  0  0  0  0
  140.5296   74.6883  221.4211 H   0  0  0  0  0  0  0  0  0  0  0  0
  139.0380   73.6972  221.2986 H   0  0  0  0  0  0  0  0  0  0  0  0
  141.7842   72.6973  222.1882 H   0  0  0  0  0  0  0  0  0  0  0  0
  140.3673   73.0821  223.2650 H   0  0  0  0  0  0  0  0  0  0  0  0
  136.2012   71.2264  222.1633 H   0  0  0  0  0  0  0  0  0  0  0  0
  134.9489   72.8693  223.4869 H   0  0  0  0  0  0  0  0  0  0  0  0
  1  2  1  0
  2  3  2  0
  2  4  2  0
  2  5  1  0
  5  6  2  0
  6  7  1  0
  7  8  2  0
  8  9  1  0
  9 10  2  0
 10 11  1  0
 11 12  2  0
 12 13  1  0
 13 14  2  0
 14 15  1  0
 15 16  2  0
 16 17  1  0
 17 18  1  0
 17 19  2  0
 19 20  1  0
 20 21  2  0
 20 22  1  0
 22 23  1  0
 23 24  1  0
 24 25  1  0
 25 26  1  0
 26 27  1  0
 27 28  1  0
 28 29  1  0
  8 30  1  0
 30 31  2  0
 31  5  1  0
 22 11  1  0
 29 24  1  0
 19 13  1  0
  1 32  1  0
  1 33  1  0
  6 34  1  0
  7 35  1  0
  9 36  1  0
 10 37  1  0
 14 38  1  0
 15 39  1  0
 16 40  1  0
 23 41  1  0
 23 42  1  0
 24 43  1  0
 25 44  1  0
 25 45  1  0
 26 46  1  0
 26 47  1  0
 27 48  1  0
 27 49  1  0
 28 50  1  0
 28 51  1  0
 29 52  1  0
 29 53  1  0
 30 54  1  0
 31 55  1  0
M  END
>  <smiles>  (14) 
NS(=O)(=O)c1ccc(/C=C/c2nc3cccc(Cl)c3c(=O)n2CC2CCCCC2)cc1

>  <score_type>  (14) 
oracle

>  <origin>  (14) 
autodockgpu

>  <m_score__min__energy>  (14) 
-9.5

>  <m_primary>  (14) 
energy

>  <rmsd>  (14) 
10.404254080943543

>  <m_score__min__rmsd>  (14) 
10.404254080943543

>  <meeko>  (14) 
{"free_energy": -8.69, "intermolecular_energy": -10.77, "internal_energy": -1.85, "cluster_size": 5, "cluster_id": 5, "rank_in_cluster": 1}

>  <energy>  (14) 
-9.04

>  <cluster_rmsd>  (14) 
0.0

>  <cluster>  (14) 
2

$$$$

     RDKit          3D

 55 58  0  0  0  0  0  0  0  0999 V2000
  132.4580   74.1610  227.6500 N   0  0  0  0  0  0  0  0  0  0  0  0
  133.1880   73.0710  226.5360 S   0  0  0  0  0  0  0  0  0  0  0  0
  132.0780   72.3540  225.8210 O   0  0  0  0  0  0  0  0  0  0  0  0
  133.9310   72.0320  227.3290 O   0  0  0  0  0  0  0  0  0  0  0  0
  134.2450   73.9010  225.4180 C   0  0  0  0  0  0  0  0  0  0  0  0
  134.4570   75.2590  225.5080 C   0  0  0  0  0  0  0  0  0  0  0  0
  135.2980   75.8900  224.6110 C   0  0  0  0  0  0  0  0  0  0  0  0
  135.9600   75.2290  223.6000 C   0  0  0  0  0  0  0  0  0  0  0  0
  136.8450   75.8610  222.6500 C   0  0  0  0  0  0  0  0  0  0  0  0
  138.0250   76.3770  222.9510 C   0  0  0  0  0  0  0  0  0  0  0  0
  139.2470   75.8800  222.2800 C   0  0  0  0  0  0  0  0  0  0  0  0
  139.4430   74.5510  222.3170 N   0  0  0  0  0  0  0  0  0  0  0  0
  140.5140   73.9660  221.7560 C   0  0  0  0  0  0  0  0  0  0  0  0
  140.7000   72.5890  221.8050 C   0  0  0  0  0  0  0  0  0  0  0  0
  141.8270   72.0650  221.2030 C   0  0  0  0  0  0  0  0  0  0  0  0
  142.7570   72.8600  220.5640 C   0  0  0  0  0  0  0  0  0  0  0  0
  142.5410   74.2400  220.5330 C   0  0  0  0  0  0  0  0  0  0  0  0
  143.7010   75.3030  219.7280 Cl  0  0  0  0  0  0  0  0  0  0  0  0
  141.4230   74.7900  221.1270 C   0  0  0  0  0  0  0  0  0  0  0  0
  141.1910   76.1530  221.1060 C   0  0  0  0  0  0  0  0  0  0  0  0
  142.0850   76.8410  220.5060 O   0  0  0  0  0  0  0  0  0  0  0  0
  140.1090   76.7230  221.6740 N   0  0  0  0  0  0  0  0  0  0  0  0
  139.8740   78.1310  221.6170 C   0  0  0  0  0  0  0  0  0  0  0  0
  140.3070   78.7830  222.8960 C   0  0  0  0  0  0  0  0  0  0  0  0
  141.8270   78.8360  222.9980 C   0  0  0  0  0  0  0  0  0  0  0  0
  142.1900   80.0200  223.8410 C   0  0  0  0  0  0  0  0  0  0  0  0
  141.8230   81.3200  223.1600 C   0  0  0  0  0  0  0  0  0  0  0  0
  140.4200   81.2600  222.5770 C   0  0  0  0  0  0  0  0  0  0  0  0
  139.6710   80.0900  223.1910 C   0  0  0  0  0  0  0  0  0  0  0  0
  135.7280   73.8520  223.5310 C   0  0  0  0  0  0  0  0  0  0  0  0
  134.8920   73.2060  224.4190 C   0  0  0  0  0  0  0  0  0  0  0  0
  131.5400   74.4500  227.2540 H   0  0  0  0  0  0  0  0  0  0  0  0
  132.3660   73.7670  228.6120 H   0  0  0  0  0  0  0  0  0  0  0  0
  133.9562   75.8421  226.2949 H   0  0  0  0  0  0  0  0  0  0  0  0
  135.4463   76.9755  224.7094 H   0  0  0  0  0  0  0  0  0  0  0  0
  136.5145   75.9172  221.6023 H   0  0  0  0  0  0  0  0  0  0  0  0
  138.0984   77.1775  223.7019 H   0  0  0  0  0  0  0  0  0  0  0  0
  139.9713   71.9365  222.3082 H   0  0  0  0  0  0  0  0  0  0  0  0
  141.9890   70.9774  221.2338 H   0  0  0  0  0  0  0  0  0  0  0  0
  143.6462   72.4180  220.0908 H   0  0  0  0  0  0  0  0  0  0  0  0
  140.4438   78.5604  220.7798 H   0  0  0  0  0  0  0  0  0  0  0  0
  138.7983   78.3086  221.4711 H   0  0  0  0  0  0  0  0  0  0  0  0
  139.9269   78.1287  223.6944 H   0  0  0  0  0  0  0  0  0  0  0  0
  142.2027   77.9143  223.4663 H   0  0  0  0  0  0  0  0  0  0  0  0
  142.2757   78.9254  221.9976 H   0  0  0  0  0  0  0  0  0  0  0  0
  141.6533   79.9545  224.7989 H   0  0  0  0  0  0  0  0  0  0  0  0
  143.2784   80.0093  223.9999 H   0  0  0  0  0  0  0  0  0  0  0  0
  141.8709   82.1362  223.8959 H   0  0  0  0  0  0  0  0  0  0  0  0
  142.5336   81.4950  222.3388 H   0  0  0  0  0  0  0  0  0  0  0  0
  139.8880   82.1960  222.8026 H   0  0  0  0  0  0  0  0  0  0  0  0
  140.4794   81.1282  221.4865 H   0  0  0  0  0  0  0  0  0  0  0  0
  139.6384   80.2269  224.2820 H   0  0  0  0  0  0  0  0  0  0  0  0
  138.6626   80.0747  222.7518 H   0  0  0  0  0  0  0  0  0  0  0  0
  136.2268   73.2658  222.7452 H   0  0  0  0  0  0  0  0  0  0  0  0
  134.7398   72.1204  224.3281 H   0  0  0  0  0  0  0  0  0  0  0  0
  1  2  1  0
  2  3  2  0
  2  4  2  0
  2  5  1  0
  5  6  2  0
  6  7  1  0
  7  8  2  0
  8  9  1  0
  9 10  2  0
 10 11  1  0
 11 12  2  0
 12 13  1  0
 13 14  2  0
 14 15  1  0
 15 16  2  0
 16 17  1  0
 17 18  1  0
 17 19  2  0
 19 20  1  0
 20 21  2  0
 20 22  1  0
 22 23  1  0
 23 24  1  0
 24 25  1  0
 25 26  1  0
 26 27  1  0
 27 28  1  0
 28 29  1  0
  8 30  1  0
 30 31  2  0
 31  5  1  0
 22 11  1  0
 29 24  1  0
 19 13  1  0
  1 32  1  0
  1 33  1  0
  6 34  1  0
  7 35  1  0
  9 36  1  0
 10 37  1  0
 14 38  1  0
 15 39  1  0
 16 40  1  0
 23 41  1  0
 23 42  1  0
 24 43  1  0
 25 44  1  0
 25 45  1  0
 26 46  1  0
 26 47  1  0
 27 48  1  0
 27 49  1  0
 28 50  1  0
 28 51  1  0
 29 52  1  0
 29 53  1  0
 30 54  1  0
 31 55  1  0
M  END
>  <smiles>  (15) 
NS(=O)(=O)c1ccc(/C=C/c2nc3cccc(Cl)c3c(=O)n2CC2CCCCC2)cc1

>  <score_type>  (15) 
oracle

>  <origin>  (15) 
autodockgpu

>  <m_score__min__energy>  (15) 
-9.5

>  <m_primary>  (15) 
energy

>  <rmsd>  (15) 
7.798022019051745

>  <m_score__min__rmsd>  (15) 
7.798022019051745

>  <meeko>  (15) 
{"free_energy": -8.75, "intermolecular_energy": -10.84, "internal_energy": -1.31, "cluster_size": 4, "cluster_id": 4, "rank_in_cluster": 1}

>  <energy>  (15) 
-8.72

>  <cluster_rmsd>  (15) 
0.47

>  <cluster>  (15) 
2

$$$$

     RDKit          3D

 55 58  0  0  0  0  0  0  0  0999 V2000
  132.8830   73.7370  227.2880 N   0  0  0  0  0  0  0  0  0  0  0  0
  132.6770   75.2900  226.5770 S   0  0  0  0  0  0  0  0  0  0  0  0
  132.6860   76.2970  227.6920 O   0  0  0  0  0  0  0  0  0  0  0  0
  131.3030   75.3370  225.9660 O   0  0  0  0  0  0  0  0  0  0  0  0
  133.9170   75.6290  225.3920 C   0  0  0  0  0  0  0  0  0  0  0  0
  134.0000   76.8580  224.7750 C   0  0  0  0  0  0  0  0  0  0  0  0
  134.9900   77.1000  223.8420 C   0  0  0  0  0  0  0  0  0  0  0  0
  135.9310   76.1630  223.4760 C   0  0  0  0  0  0  0  0  0  0  0  0
  136.9770   76.3860  222.5070 C   0  0  0  0  0  0  0  0  0  0  0  0
  138.2310   76.6780  222.8090 C   0  0  0  0  0  0  0  0  0  0  0  0
  139.3390   75.8870  222.2300 C   0  0  0  0  0  0  0  0  0  0  0  0
  139.2330   74.5510  222.3400 N   0  0  0  0  0  0  0  0  0  0  0  0
  140.1700   73.7140  221.8660 C   0  0  0  0  0  0  0  0  0  0  0  0
  140.0430   72.3350  221.9890 C   0  0  0  0  0  0  0  0  0  0  0  0
  141.0500   71.5420  221.4750 C   0  0  0  0  0  0  0  0  0  0  0  0
  142.1600   72.0740  220.8520 C   0  0  0  0  0  0  0  0  0  0  0  0
  142.2570   73.4640  220.7440 C   0  0  0  0  0  0  0  0  0  0  0  0
  143.6580   74.1970  219.9550 Cl  0  0  0  0  0  0  0  0  0  0  0  0
  141.2650   74.2800  221.2500 C   0  0  0  0  0  0  0  0  0  0  0  0
  141.3440   75.6560  221.1510 C   0  0  0  0  0  0  0  0  0  0  0  0
  142.3940   76.0950  220.5700 O   0  0  0  0  0  0  0  0  0  0  0  0
  140.3930   76.4830  221.6320 N   0  0  0  0  0  0  0  0  0  0  0  0
  140.4800   77.9030  221.4970 C   0  0  0  0  0  0  0  0  0  0  0  0
  141.1140   78.5040  222.7150 C   0  0  0  0  0  0  0  0  0  0  0  0
  142.3780   79.2750  222.3520 C   0  0  0  0  0  0  0  0  0  0  0  0
  142.5610   80.3600  223.3690 C   0  0  0  0  0  0  0  0  0  0  0  0
  141.4620   81.3950  223.2810 C   0  0  0  0  0  0  0  0  0  0  0  0
  140.0940   80.7390  223.1740 C   0  0  0  0  0  0  0  0  0  0  0  0
  140.2030   79.2820  223.5890 C   0  0  0  0  0  0  0  0  0  0  0  0
  135.8250   74.9240  224.1180 C   0  0  0  0  0  0  0  0  0  0  0  0
  134.8430   74.6670  225.0510 C   0  0  0  0  0  0  0  0  0  0  0  0
  133.8140   73.3760  226.9930 H   0  0  0  0  0  0  0  0  0  0  0  0
  132.7720   73.7410  228.3250 H   0  0  0  0  0  0  0  0  0  0  0  0
  133.2768   77.6481  225.0256 H   0  0  0  0  0  0  0  0  0  0  0  0
  135.0287   78.0915  223.3673 H   0  0  0  0  0  0  0  0  0  0  0  0
  136.7126   76.3076  221.4421 H   0  0  0  0  0  0  0  0  0  0  0  0
  138.4508   77.5113  223.4926 H   0  0  0  0  0  0  0  0  0  0  0  0
  139.1663   71.8888  222.4812 H   0  0  0  0  0  0  0  0  0  0  0  0
  140.9642   70.4491  221.5654 H   0  0  0  0  0  0  0  0  0  0  0  0
  142.9487   71.4207  220.4505 H   0  0  0  0  0  0  0  0  0  0  0  0
  141.0884   78.1468  220.6136 H   0  0  0  0  0  0  0  0  0  0  0  0
  139.4662   78.3140  221.3818 H   0  0  0  0  0  0  0  0  0  0  0  0
  141.3975   77.6467  223.3433 H   0  0  0  0  0  0  0  0  0  0  0  0
  143.2456   78.5989  222.3659 H   0  0  0  0  0  0  0  0  0  0  0  0
  142.2893   79.7049  221.3434 H   0  0  0  0  0  0  0  0  0  0  0  0
  142.5510   79.9129  224.3740 H   0  0  0  0  0  0  0  0  0  0  0  0
  143.5211   80.8592  223.1713 H   0  0  0  0  0  0  0  0  0  0  0  0
  141.4885   82.0237  224.1832 H   0  0  0  0  0  0  0  0  0  0  0  0
  141.6278   82.0024  222.3790 H   0  0  0  0  0  0  0  0  0  0  0  0
  139.3848   81.2577  223.8359 H   0  0  0  0  0  0  0  0  0  0  0  0
  139.7354   80.8010  222.1359 H   0  0  0  0  0  0  0  0  0  0  0  0
  140.5821   79.2375  224.6207 H   0  0  0  0  0  0  0  0  0  0  0  0
  139.2008   78.8367  223.5040 H   0  0  0  0  0  0  0  0  0  0  0  0
  136.5467   74.1315  223.8708 H   0  0  0  0  0  0  0  0  0  0  0  0
  134.7979   73.6782  225.5309 H   0  0  0  0  0  0  0  0  0  0  0  0
  1  2  1  0
  2  3  2  0
  2  4  2  0
  2  5  1  0
  5  6  2  0
  6  7  1  0
  7  8  2  0
  8  9  1  0
  9 10  2  0
 10 11  1  0
 11 12  2  0
 12 13  1  0
 13 14  2  0
 14 15  1  0
 15 16  2  0
 16 17  1  0
 17 18  1  0
 17 19  2  0
 19 20  1  0
 20 21  2  0
 20 22  1  0
 22 23  1  0
 23 24  1  0
 24 25  1  0
 25 26  1  0
 26 27  1  0
 27 28  1  0
 28 29  1  0
  8 30  1  0
 30 31  2  0
 31  5  1  0
 22 11  1  0
 29 24  1  0
 19 13  1  0
  1 32  1  0
  1 33  1  0
  6 34  1  0
  7 35  1  0
  9 36  1  0
 10 37  1  0
 14 38  1  0
 15 39  1  0
 16 40  1  0
 23 41  1  0
 23 42  1  0
 24 43  1  0
 25 44  1  0
 25 45  1  0
 26 46  1  0
 26 47  1  0
 27 48  1  0
 27 49  1  0
 28 50  1  0
 28 51  1  0
 29 52  1  0
 29 53  1  0
 30 54  1  0
 31 55  1  0
M  END
>  <smiles>  (16) 
NS(=O)(=O)c1ccc(/C=C/c2nc3cccc(Cl)c3c(=O)n2CC2CCCCC2)cc1

>  <score_type>  (16) 
oracle

>  <origin>  (16) 
autodockgpu

>  <m_score__min__energy>  (16) 
-9.5

>  <m_primary>  (16) 
energy

>  <rmsd>  (16) 
7.94523406814215

>  <m_score__min__rmsd>  (16) 
7.94523406814215

>  <meeko>  (16) 
{"free_energy": -8.38, "intermolecular_energy": -10.47, "internal_energy": -1.29, "cluster_size": 4, "cluster_id": 4, "rank_in_cluster": 3}

>  <energy>  (16) 
-8.67

>  <cluster_rmsd>  (16) 
1.22

>  <cluster>  (16) 
2

$$$$

     RDKit          3D

 55 58  0  0  0  0  0  0  0  0999 V2000
  145.7720   71.5370  220.0560 N   0  0  0  0  0  0  0  0  0  0  0  0
  145.6890   73.2240  219.7250 S   0  0  0  0  0  0  0  0  0  0  0  0
  146.0010   73.4080  218.2670 O   0  0  0  0  0  0  0  0  0  0  0  0
  146.7950   73.8970  220.4910 O   0  0  0  0  0  0  0  0  0  0  0  0
  144.1260   73.8890  220.1390 C   0  0  0  0  0  0  0  0  0  0  0  0
  143.7720   75.1680  219.7690 C   0  0  0  0  0  0  0  0  0  0  0  0
  142.5300   75.6690  220.1090 C   0  0  0  0  0  0  0  0  0  0  0  0
  141.5910   74.9510  220.8160 C   0  0  0  0  0  0  0  0  0  0  0  0
  140.2870   75.4470  221.1850 C   0  0  0  0  0  0  0  0  0  0  0  0
  139.7270   76.5340  220.6810 C   0  0  0  0  0  0  0  0  0  0  0  0
  139.0340   77.4940  221.5690 C   0  0  0  0  0  0  0  0  0  0  0  0
  137.7160   77.6500  221.3570 N   0  0  0  0  0  0  0  0  0  0  0  0
  136.9650   78.4930  222.0840 C   0  0  0  0  0  0  0  0  0  0  0  0
  135.6030   78.6410  221.8500 C   0  0  0  0  0  0  0  0  0  0  0  0
  134.9010   79.5290  222.6420 C   0  0  0  0  0  0  0  0  0  0  0  0
  135.5080   80.2610  223.6420 C   0  0  0  0  0  0  0  0  0  0  0  0
  136.8780   80.0890  223.8510 C   0  0  0  0  0  0  0  0  0  0  0  0
  137.7050   81.0020  225.1190 Cl  0  0  0  0  0  0  0  0  0  0  0  0
  137.6040   79.2090  223.0740 C   0  0  0  0  0  0  0  0  0  0  0  0
  138.9600   79.0250  223.2670 C   0  0  0  0  0  0  0  0  0  0  0  0
  139.4710   79.7310  224.2020 O   0  0  0  0  0  0  0  0  0  0  0  0
  139.6990   78.1720  222.5280 N   0  0  0  0  0  0  0  0  0  0  0  0
  141.0950   77.9770  222.7610 C   0  0  0  0  0  0  0  0  0  0  0  0
  141.8920   79.0430  222.0720 C   0  0  0  0  0  0  0  0  0  0  0  0
  141.0230   79.8420  221.1080 C   0  0  0  0  0  0  0  0  0  0  0  0
  141.6040   81.2180  220.9980 C   0  0  0  0  0  0  0  0  0  0  0  0
  141.4940   81.9740  222.3040 C   0  0  0  0  0  0  0  0  0  0  0  0
  141.9190   81.1080  223.4800 C   0  0  0  0  0  0  0  0  0  0  0  0
  142.6990   79.9110  222.9650 C   0  0  0  0  0  0  0  0  0  0  0  0
  141.9760   73.6560  221.1790 C   0  0  0  0  0  0  0  0  0  0  0  0
  143.2110   73.1400  220.8480 C   0  0  0  0  0  0  0  0  0  0  0  0
  146.6600   71.3590  220.5690 H   0  0  0  0  0  0  0  0  0  0  0  0
  144.9400   71.1780  220.5730 H   0  0  0  0  0  0  0  0  0  0  0  0
  144.4792   75.7913  219.2020 H   0  0  0  0  0  0  0  0  0  0  0  0
  142.2782   76.6940  219.7991 H   0  0  0  0  0  0  0  0  0  0  0  0
  139.7190   74.8813  221.9383 H   0  0  0  0  0  0  0  0  0  0  0  0
  139.7765   76.7251  219.5989 H   0  0  0  0  0  0  0  0  0  0  0  0
  135.0990   78.0681  221.0577 H   0  0  0  0  0  0  0  0  0  0  0  0
  133.8221   79.6568  222.4697 H   0  0  0  0  0  0  0  0  0  0  0  0
  134.9273   80.9624  224.2590 H   0  0  0  0  0  0  0  0  0  0  0  0
  141.2916   78.0190  223.8425 H   0  0  0  0  0  0  0  0  0  0  0  0
  141.3904   76.9955  222.3618 H   0  0  0  0  0  0  0  0  0  0  0  0
  142.6512   78.5017  221.4885 H   0  0  0  0  0  0  0  0  0  0  0  0
  141.0182   79.3581  220.1202 H   0  0  0  0  0  0  0  0  0  0  0  0
  139.9875   79.8913  221.4760 H   0  0  0  0  0  0  0  0  0  0  0  0
  142.6654   81.1364  220.7208 H   0  0  0  0  0  0  0  0  0  0  0  0
  141.0397   81.7700  220.2319 H   0  0  0  0  0  0  0  0  0  0  0  0
  142.1419   82.8619  222.2600 H   0  0  0  0  0  0  0  0  0  0  0  0
  140.4435   82.2663  222.4492 H   0  0  0  0  0  0  0  0  0  0  0  0
  142.5540   81.6960  224.1589 H   0  0  0  0  0  0  0  0  0  0  0  0
  141.0278   80.7612  224.0237 H   0  0  0  0  0  0  0  0  0  0  0  0
  143.5735   80.2749  222.4058 H   0  0  0  0  0  0  0  0  0  0  0  0
  142.9953   79.3078  223.8358 H   0  0  0  0  0  0  0  0  0  0  0  0
  141.2715   73.0299  221.7462 H   0  0  0  0  0  0  0  0  0  0  0  0
  143.4701   72.1157  221.1541 H   0  0  0  0  0  0  0  0  0  0  0  0
  1  2  1  0
  2  3  2  0
  2  4  2  0
  2  5  1  0
  5  6  2  0
  6  7  1  0
  7  8  2  0
  8  9  1  0
  9 10  2  0
 10 11  1  0
 11 12  2  0
 12 13  1  0
 13 14  2  0
 14 15  1  0
 15 16  2  0
 16 17  1  0
 17 18  1  0
 17 19  2  0
 19 20  1  0
 20 21  2  0
 20 22  1  0
 22 23  1  0
 23 24  1  0
 24 25  1  0
 25 26  1  0
 26 27  1  0
 27 28  1  0
 28 29  1  0
  8 30  1  0
 30 31  2  0
 31  5  1  0
 22 11  1  0
 29 24  1  0
 19 13  1  0
  1 32  1  0
  1 33  1  0
  6 34  1  0
  7 35  1  0
  9 36  1  0
 10 37  1  0
 14 38  1  0
 15 39  1  0
 16 40  1  0
 23 41  1  0
 23 42  1  0
 24 43  1  0
 25 44  1  0
 25 45  1  0
 26 46  1  0
 26 47  1  0
 27 48  1  0
 27 49  1  0
 28 50  1  0
 28 51  1  0
 29 52  1  0
 29 53  1  0
 30 54  1  0
 31 55  1  0
M  END
>  <smiles>  (17) 
NS(=O)(=O)c1ccc(/C=C/c2nc3cccc(Cl)c3c(=O)n2CC2CCCCC2)cc1

>  <score_type>  (17) 
oracle

>  <origin>  (17) 
autodockgpu

>  <m_score__min__energy>  (17) 
-9.5

>  <m_primary>  (17) 
energy

>  <rmsd>  (17) 
5.282142250973955

>  <m_score__min__rmsd>  (17) 
5.282142250973955

>  <meeko>  (17) 
{"free_energy": -8.35, "intermolecular_energy": -10.44, "internal_energy": -1.69, "cluster_size": 6, "cluster_id": 6, "rank_in_cluster": 4}

>  <energy>  (17) 
-8.67

>  <cluster_rmsd>  (17) 
1.23

>  <cluster>  (17) 
2

$$$$

     RDKit          3D

 55 58  0  0  0  0  0  0  0  0999 V2000
  146.0350   73.3780  217.5980 N   0  0  0  0  0  0  0  0  0  0  0  0
  145.5250   72.8480  219.1540 S   0  0  0  0  0  0  0  0  0  0  0  0
  146.7010   72.9820  220.0790 O   0  0  0  0  0  0  0  0  0  0  0  0
  145.2170   71.3790  219.0610 O   0  0  0  0  0  0  0  0  0  0  0  0
  144.1460   73.7570  219.7270 C   0  0  0  0  0  0  0  0  0  0  0  0
  143.1240   73.1450  220.4190 C   0  0  0  0  0  0  0  0  0  0  0  0
  142.0450   73.8870  220.8610 C   0  0  0  0  0  0  0  0  0  0  0  0
  141.9210   75.2430  220.6490 C   0  0  0  0  0  0  0  0  0  0  0  0
  140.8070   76.0440  221.0990 C   0  0  0  0  0  0  0  0  0  0  0  0
  140.5850   76.3800  222.3590 C   0  0  0  0  0  0  0  0  0  0  0  0
  139.6440   77.4750  222.6820 C   0  0  0  0  0  0  0  0  0  0  0  0
  138.3660   77.2860  222.3090 N   0  0  0  0  0  0  0  0  0  0  0  0
  137.4090   78.2010  222.5320 C   0  0  0  0  0  0  0  0  0  0  0  0
  136.0930   77.9880  222.1390 C   0  0  0  0  0  0  0  0  0  0  0  0
  135.1670   78.9780  222.4060 C   0  0  0  0  0  0  0  0  0  0  0  0
  135.5100   80.1540  223.0420 C   0  0  0  0  0  0  0  0  0  0  0  0
  136.8410   80.3370  223.4240 C   0  0  0  0  0  0  0  0  0  0  0  0
  137.3340   81.8240  224.2420 Cl  0  0  0  0  0  0  0  0  0  0  0  0
  137.7860   79.3640  223.1700 C   0  0  0  0  0  0  0  0  0  0  0  0
  139.1080   79.5270  223.5410 C   0  0  0  0  0  0  0  0  0  0  0  0
  139.3710   80.6350  224.1210 O   0  0  0  0  0  0  0  0  0  0  0  0
  140.0570   78.5970  223.3100 N   0  0  0  0  0  0  0  0  0  0  0  0
  141.4120   78.7730  223.7250 C   0  0  0  0  0  0  0  0  0  0  0  0
  142.1940   79.4850  222.6630 C   0  0  0  0  0  0  0  0  0  0  0  0
  141.5250   79.3450  221.3010 C   0  0  0  0  0  0  0  0  0  0  0  0
  141.8870   80.5470  220.4850 C   0  0  0  0  0  0  0  0  0  0  0  0
  141.2870   81.8110  221.0600 C   0  0  0  0  0  0  0  0  0  0  0  0
  141.4870   81.8800  222.5660 C   0  0  0  0  0  0  0  0  0  0  0  0
  142.5620   80.8880  222.9760 C   0  0  0  0  0  0  0  0  0  0  0  0
  142.9720   75.8390  219.9450 C   0  0  0  0  0  0  0  0  0  0  0  0
  144.0560   75.1120  219.4970 C   0  0  0  0  0  0  0  0  0  0  0  0
  145.4310   72.9100  216.8910 H   0  0  0  0  0  0  0  0  0  0  0  0
  146.0320   74.4150  217.4950 H   0  0  0  0  0  0  0  0  0  0  0  0
  143.1668   72.0644  220.6200 H   0  0  0  0  0  0  0  0  0  0  0  0
  141.2447   73.3690  221.4098 H   0  0  0  0  0  0  0  0  0  0  0  0
  140.0933   76.3995  220.3412 H   0  0  0  0  0  0  0  0  0  0  0  0
  141.1014   75.8438  223.1688 H   0  0  0  0  0  0  0  0  0  0  0  0
  135.7974   77.0585  221.6304 H   0  0  0  0  0  0  0  0  0  0  0  0
  134.1213   78.8238  222.1015 H   0  0  0  0  0  0  0  0  0  0  0  0
  134.7542   80.9276  223.2430 H   0  0  0  0  0  0  0  0  0  0  0  0
  141.4336   79.3667  224.6508 H   0  0  0  0  0  0  0  0  0  0  0  0
  141.8635   77.7852  223.8996 H   0  0  0  0  0  0  0  0  0  0  0  0
  143.1650   78.9693  222.6279 H   0  0  0  0  0  0  0  0  0  0  0  0
  141.8821   78.4325  220.8012 H   0  0  0  0  0  0  0  0  0  0  0  0
  140.4333   79.2742  221.4157 H   0  0  0  0  0  0  0  0  0  0  0  0
  142.9821   80.6485  220.4652 H   0  0  0  0  0  0  0  0  0  0  0  0
  141.4873   80.4070  219.4698 H   0  0  0  0  0  0  0  0  0  0  0  0
  141.7707   82.6820  220.5937 H   0  0  0  0  0  0  0  0  0  0  0  0
  140.2068   81.8092  220.8521 H   0  0  0  0  0  0  0  0  0  0  0  0
  141.7978   82.8965  222.8491 H   0  0  0  0  0  0  0  0  0  0  0  0
  140.5437   81.6321  223.0746 H   0  0  0  0  0  0  0  0  0  0  0  0
  143.4916   81.1356  222.4426 H   0  0  0  0  0  0  0  0  0  0  0  0
  142.6868   80.9641  224.0662 H   0  0  0  0  0  0  0  0  0  0  0  0
  142.9335   76.9195  219.7423 H   0  0  0  0  0  0  0  0  0  0  0  0
  144.8607   75.6226  218.9477 H   0  0  0  0  0  0  0  0  0  0  0  0
  1  2  1  0
  2  3  2  0
  2  4  2  0
  2  5  1  0
  5  6  2  0
  6  7  1  0
  7  8  2  0
  8  9  1  0
  9 10  2  0
 10 11  1  0
 11 12  2  0
 12 13  1  0
 13 14  2  0
 14 15  1  0
 15 16  2  0
 16 17  1  0
 17 18  1  0
 17 19  2  0
 19 20  1  0
 20 21  2  0
 20 22  1  0
 22 23  1  0
 23 24  1  0
 24 25  1  0
 25 26  1  0
 26 27  1  0
 27 28  1  0
 28 29  1  0
  8 30  1  0
 30 31  2  0
 31  5  1  0
 22 11  1  0
 29 24  1  0
 19 13  1  0
  1 32  1  0
  1 33  1  0
  6 34  1  0
  7 35  1  0
  9 36  1  0
 10 37  1  0
 14 38  1  0
 15 39  1  0
 16 40  1  0
 23 41  1  0
 23 42  1  0
 24 43  1  0
 25 44  1  0
 25 45  1  0
 26 46  1  0
 26 47  1  0
 27 48  1  0
 27 49  1  0
 28 50  1  0
 28 51  1  0
 29 52  1  0
 29 53  1  0
 30 54  1  0
 31 55  1  0
M  END
>  <smiles>  (18) 
NS(=O)(=O)c1ccc(/C=C/c2nc3cccc(Cl)c3c(=O)n2CC2CCCCC2)cc1

>  <score_type>  (18) 
oracle

>  <origin>  (18) 
autodockgpu

>  <m_score__min__energy>  (18) 
-9.5

>  <m_primary>  (18) 
energy

>  <rmsd>  (18) 
5.134012027342563

>  <m_score__min__rmsd>  (18) 
5.134012027342563

>  <meeko>  (18) 
{"free_energy": -8.28, "intermolecular_energy": -10.37, "internal_energy": -1.69, "cluster_size": 6, "cluster_id": 6, "rank_in_cluster": 5}

>  <energy>  (18) 
-8.9

>  <cluster_rmsd>  (18) 
0.0

>  <cluster>  (18) 
3

$$$$

     RDKit          3D

 55 58  0  0  0  0  0  0  0  0999 V2000
  142.5570   79.1470  222.2970 N   0  0  0  0  0  0  0  0  0  0  0  0
  140.8500   78.9350  222.2670 S   0  0  0  0  0  0  0  0  0  0  0  0
  140.3200   79.7390  221.1140 O   0  0  0  0  0  0  0  0  0  0  0  0
  140.2870   79.5540  223.5170 O   0  0  0  0  0  0  0  0  0  0  0  0
  140.4090   77.2480  222.1340 C   0  0  0  0  0  0  0  0  0  0  0  0
  141.3100   76.3070  221.6870 C   0  0  0  0  0  0  0  0  0  0  0  0
  140.9370   74.9800  221.5910 C   0  0  0  0  0  0  0  0  0  0  0  0
  139.6810   74.5210  221.9250 C   0  0  0  0  0  0  0  0  0  0  0  0
  139.2630   73.1420  221.8360 C   0  0  0  0  0  0  0  0  0  0  0  0
  140.0680   72.1020  221.9770 C   0  0  0  0  0  0  0  0  0  0  0  0
  140.0440   71.3070  223.2250 C   0  0  0  0  0  0  0  0  0  0  0  0
  140.5350   71.9120  224.3210 N   0  0  0  0  0  0  0  0  0  0  0  0
  140.5810   71.3040  225.5180 C   0  0  0  0  0  0  0  0  0  0  0  0
  141.0920   71.9460  226.6400 C   0  0  0  0  0  0  0  0  0  0  0  0
  141.1050   71.2520  227.8350 C   0  0  0  0  0  0  0  0  0  0  0  0
  140.6300   69.9600  227.9400 C   0  0  0  0  0  0  0  0  0  0  0  0
  140.1240   69.3440  226.7940 C   0  0  0  0  0  0  0  0  0  0  0  0
  139.5040   67.6910  226.8740 Cl  0  0  0  0  0  0  0  0  0  0  0  0
  140.1000   70.0140  225.5870 C   0  0  0  0  0  0  0  0  0  0  0  0
  139.6020   69.4210  224.4420 C   0  0  0  0  0  0  0  0  0  0  0  0
  139.1810   68.2240  224.5960 O   0  0  0  0  0  0  0  0  0  0  0  0
  139.5610   70.0470  223.2480 N   0  0  0  0  0  0  0  0  0  0  0  0
  139.0180   69.4260  222.0820 C   0  0  0  0  0  0  0  0  0  0  0  0
  137.5240   69.5580  222.0700 C   0  0  0  0  0  0  0  0  0  0  0  0
  136.8660   68.4100  222.8260 C   0  0  0  0  0  0  0  0  0  0  0  0
  135.5610   68.9060  223.3700 C   0  0  0  0  0  0  0  0  0  0  0  0
  135.7680   69.9690  224.4260 C   0  0  0  0  0  0  0  0  0  0  0  0
  136.7950   70.9980  223.9790 C   0  0  0  0  0  0  0  0  0  0  0  0
  136.9990   70.8840  222.4780 C   0  0  0  0  0  0  0  0  0  0  0  0
  138.7870   75.4960  222.3770 C   0  0  0  0  0  0  0  0  0  0  0  0
  139.1440   76.8250  222.4780 C   0  0  0  0  0  0  0  0  0  0  0  0
  142.9750   78.2820  222.6990 H   0  0  0  0  0  0  0  0  0  0  0  0
  142.9590   79.3830  221.3640 H   0  0  0  0  0  0  0  0  0  0  0  0
  142.3286   76.6125  221.4058 H   0  0  0  0  0  0  0  0  0  0  0  0
  141.6797   74.2534  221.2299 H   0  0  0  0  0  0  0  0  0  0  0  0
  138.1998   72.9421  221.6368 H   0  0  0  0  0  0  0  0  0  0  0  0
  140.7570   71.8273  221.1647 H   0  0  0  0  0  0  0  0  0  0  0  0
  141.4745   72.9755  226.5786 H   0  0  0  0  0  0  0  0  0  0  0  0
  141.5071   71.7454  228.7322 H   0  0  0  0  0  0  0  0  0  0  0  0
  140.6498   69.4289  228.9031 H   0  0  0  0  0  0  0  0  0  0  0  0
  139.4324   69.9113  221.1860 H   0  0  0  0  0  0  0  0  0  0  0  0
  139.2829   68.3584  222.0888 H   0  0  0  0  0  0  0  0  0  0  0  0
  137.2379   69.4865  221.0103 H   0  0  0  0  0  0  0  0  0  0  0  0
  136.6898   67.5653  222.1437 H   0  0  0  0  0  0  0  0  0  0  0  0
  137.5166   68.0665  223.6437 H   0  0  0  0  0  0  0  0  0  0  0  0
  134.9690   69.3312  222.5462 H   0  0  0  0  0  0  0  0  0  0  0  0
  135.0356   68.0577  223.8330 H   0  0  0  0  0  0  0  0  0  0  0  0
  134.8109   70.4768  224.6159 H   0  0  0  0  0  0  0  0  0  0  0  0
  136.1383   69.4829  225.3407 H   0  0  0  0  0  0  0  0  0  0  0  0
  136.4348   72.0077  224.2253 H   0  0  0  0  0  0  0  0  0  0  0  0
  137.7488   70.8153  224.4956 H   0  0  0  0  0  0  0  0  0  0  0  0
  136.0331   71.0489  221.9782 H   0  0  0  0  0  0  0  0  0  0  0  0
  137.7429   71.6398  222.1858 H   0  0  0  0  0  0  0  0  0  0  0  0
  137.7679   75.1945  222.6608 H   0  0  0  0  0  0  0  0  0  0  0  0
  138.4072   77.5578  222.8387 H   0  0  0  0  0  0  0  0  0  0  0  0
  1  2  1  0
  2  3  2  0
  2  4  2  0
  2  5  1  0
  5  6  2  0
  6  7  1  0
  7  8  2  0
  8  9  1  0
  9 10  2  0
 10 11  1  0
 11 12  2  0
 12 13  1  0
 13 14  2  0
 14 15  1  0
 15 16  2  0
 16 17  1  0
 17 18  1  0
 17 19  2  0
 19 20  1  0
 20 21  2  0
 20 22  1  0
 22 23  1  0
 23 24  1  0
 24 25  1  0
 25 26  1  0
 26 27  1  0
 27 28  1  0
 28 29  1  0
  8 30  1  0
 30 31  2  0
 31  5  1  0
 22 11  1  0
 29 24  1  0
 19 13  1  0
  1 32  1  0
  1 33  1  0
  6 34  1  0
  7 35  1  0
  9 36  1  0
 10 37  1  0
 14 38  1  0
 15 39  1  0
 16 40  1  0
 23 41  1  0
 23 42  1  0
 24 43  1  0
 25 44  1  0
 25 45  1  0
 26 46  1  0
 26 47  1  0
 27 48  1  0
 27 49  1  0
 28 50  1  0
 28 51  1  0
 29 52  1  0
 29 53  1  0
 30 54  1  0
 31 55  1  0
M  END
>  <smiles>  (19) 
NS(=O)(=O)c1ccc(/C=C/c2nc3cccc(Cl)c3c(=O)n2CC2CCCCC2)cc1

>  <score_type>  (19) 
oracle

>  <origin>  (19) 
autodockgpu

>  <m_score__min__energy>  (19) 
-9.5

>  <m_primary>  (19) 
energy

>  <rmsd>  (19) 
11.082134047218323

>  <m_score__min__rmsd>  (19) 
11.082134047218323

>  <meeko>  (19) 
{"free_energy": -8.85, "intermolecular_energy": -10.93, "internal_energy": -1.83, "cluster_size": 11, "cluster_id": 3, "rank_in_cluster": 3}

>  <energy>  (19) 
-8.86

>  <cluster_rmsd>  (19) 
0.35

>  <cluster>  (19) 
3

$$$$

     RDKit          3D

 55 58  0  0  0  0  0  0  0  0999 V2000
  133.6110   73.4950  226.5450 N   0  0  0  0  0  0  0  0  0  0  0  0
  133.4600   71.7900  226.7300 S   0  0  0  0  0  0  0  0  0  0  0  0
  132.0000   71.4560  226.6120 O   0  0  0  0  0  0  0  0  0  0  0  0
  133.8700   71.4420  228.1350 O   0  0  0  0  0  0  0  0  0  0  0  0
  134.4180   70.9240  225.5500 C   0  0  0  0  0  0  0  0  0  0  0  0
  134.9090   71.5530  224.4280 C   0  0  0  0  0  0  0  0  0  0  0  0
  135.6630   70.8460  223.5110 C   0  0  0  0  0  0  0  0  0  0  0  0
  135.9670   69.5090  223.6510 C   0  0  0  0  0  0  0  0  0  0  0  0
  136.7520   68.7450  222.7120 C   0  0  0  0  0  0  0  0  0  0  0  0
  138.0310   68.4470  222.8700 C   0  0  0  0  0  0  0  0  0  0  0  0
  138.7940   69.0200  224.0010 C   0  0  0  0  0  0  0  0  0  0  0  0
  139.0310   68.1940  225.0340 N   0  0  0  0  0  0  0  0  0  0  0  0
  139.7040   68.5850  226.1280 C   0  0  0  0  0  0  0  0  0  0  0  0
  139.9390   67.7160  227.1870 C   0  0  0  0  0  0  0  0  0  0  0  0
  140.6400   68.1950  228.2770 C   0  0  0  0  0  0  0  0  0  0  0  0
  141.1060   69.4930  228.3390 C   0  0  0  0  0  0  0  0  0  0  0  0
  140.8530   70.3400  227.2580 C   0  0  0  0  0  0  0  0  0  0  0  0
  141.4280   72.0120  227.2860 Cl  0  0  0  0  0  0  0  0  0  0  0  0
  140.1550   69.8870  226.1570 C   0  0  0  0  0  0  0  0  0  0  0  0
  139.8960   70.7120  225.0780 C   0  0  0  0  0  0  0  0  0  0  0  0
  140.3450   71.9020  225.1900 O   0  0  0  0  0  0  0  0  0  0  0  0
  139.2180   70.3010  223.9860 N   0  0  0  0  0  0  0  0  0  0  0  0
  138.9840   71.1610  222.8690 C   0  0  0  0  0  0  0  0  0  0  0  0
  140.2810   71.5230  222.2100 C   0  0  0  0  0  0  0  0  0  0  0  0
  140.3350   71.0000  220.7790 C   0  0  0  0  0  0  0  0  0  0  0  0
  141.2280   71.9080  219.9910 C   0  0  0  0  0  0  0  0  0  0  0  0
  140.6320   73.2910  219.8530 C   0  0  0  0  0  0  0  0  0  0  0  0
  140.0920   73.7940  221.1830 C   0  0  0  0  0  0  0  0  0  0  0  0
  140.6680   72.9520  222.3080 C   0  0  0  0  0  0  0  0  0  0  0  0
  135.4560   68.8950  224.7990 C   0  0  0  0  0  0  0  0  0  0  0  0
  134.7020   69.5870  225.7240 C   0  0  0  0  0  0  0  0  0  0  0  0
  133.1770   73.7530  225.6350 H   0  0  0  0  0  0  0  0  0  0  0  0
  133.2060   74.0320  227.3420 H   0  0  0  0  0  0  0  0  0  0  0  0
  134.7007   72.6202  224.2613 H   0  0  0  0  0  0  0  0  0  0  0  0
  136.0397   71.3771  222.6244 H   0  0  0  0  0  0  0  0  0  0  0  0
  136.2518   68.3851  221.8008 H   0  0  0  0  0  0  0  0  0  0  0  0
  138.5288   67.7714  222.1588 H   0  0  0  0  0  0  0  0  0  0  0  0
  139.5775   66.6775  227.1581 H   0  0  0  0  0  0  0  0  0  0  0  0
  140.8332   67.5197  229.1235 H   0  0  0  0  0  0  0  0  0  0  0  0
  141.6625   69.8510  229.2177 H   0  0  0  0  0  0  0  0  0  0  0  0
  138.3395   70.6447  222.1423 H   0  0  0  0  0  0  0  0  0  0  0  0
  138.4933   72.0801  223.2218 H   0  0  0  0  0  0  0  0  0  0  0  0
  141.0545   71.0082  222.7988 H   0  0  0  0  0  0  0  0  0  0  0  0
  140.7399   69.9773  220.7698 H   0  0  0  0  0  0  0  0  0  0  0  0
  139.3265   70.9787  220.3403 H   0  0  0  0  0  0  0  0  0  0  0  0
  142.1985   71.9868  220.5028 H   0  0  0  0  0  0  0  0  0  0  0  0
  141.3490   71.4830  218.9837 H   0  0  0  0  0  0  0  0  0  0  0  0
  141.4098   73.9827  219.4971 H   0  0  0  0  0  0  0  0  0  0  0  0
  139.7991   73.2408  219.1362 H   0  0  0  0  0  0  0  0  0  0  0  0
  140.3835   74.8452  221.3242 H   0  0  0  0  0  0  0  0  0  0  0  0
  138.9947   73.7165  221.1887 H   0  0  0  0  0  0  0  0  0  0  0  0
  141.7652   73.0225  222.2740 H   0  0  0  0  0  0  0  0  0  0  0  0
  140.2643   73.3413  223.2543 H   0  0  0  0  0  0  0  0  0  0  0  0
  135.6616   67.8279  224.9695 H   0  0  0  0  0  0  0  0  0  0  0  0
  134.3218   69.0636  226.6137 H   0  0  0  0  0  0  0  0  0  0  0  0
  1  2  1  0
  2  3  2  0
  2  4  2  0
  2  5  1  0
  5  6  2  0
  6  7  1  0
  7  8  2  0
  8  9  1  0
  9 10  2  0
 10 11  1  0
 11 12  2  0
 12 13  1  0
 13 14  2  0
 14 15  1  0
 15 16  2  0
 16 17  1  0
 17 18  1  0
 17 19  2  0
 19 20  1  0
 20 21  2  0
 20 22  1  0
 22 23  1  0
 23 24  1  0
 24 25  1  0
 25 26  1  0
 26 27  1  0
 27 28  1  0
 28 29  1  0
  8 30  1  0
 30 31  2  0
 31  5  1  0
 22 11  1  0
 29 24  1  0
 19 13  1  0
  1 32  1  0
  1 33  1  0
  6 34  1  0
  7 35  1  0
  9 36  1  0
 10 37  1  0
 14 38  1  0
 15 39  1  0
 16 40  1  0
 23 41  1  0
 23 42  1  0
 24 43  1  0
 25 44  1  0
 25 45  1  0
 26 46  1  0
 26 47  1  0
 27 48  1  0
 27 49  1  0
 28 50  1  0
 28 51  1  0
 29 52  1  0
 29 53  1  0
 30 54  1  0
 31 55  1  0
M  END
>  <smiles>  (20) 
NS(=O)(=O)c1ccc(/C=C/c2nc3cccc(Cl)c3c(=O)n2CC2CCCCC2)cc1

>  <score_type>  (20) 
oracle

>  <origin>  (20) 
autodockgpu

>  <m_score__min__energy>  (20) 
-9.5

>  <m_primary>  (20) 
energy

>  <rmsd>  (20) 
10.418306301003986

>  <m_score__min__rmsd>  (20) 
10.418306301003986

>  <meeko>  (20) 
{"free_energy": -8.27, "intermolecular_energy": -10.36, "internal_energy": -1.87, "cluster_size": 5, "cluster_id": 5, "rank_in_cluster": 4}

>  <energy>  (20) 
-8.85

>  <cluster_rmsd>  (20) 
0.11

>  <cluster>  (20) 
3

$$$$

     RDKit          3D

 55 58  0  0  0  0  0  0  0  0999 V2000
  146.3060   71.5440  219.9780 N   0  0  0  0  0  0  0  0  0  0  0  0
  145.9090   73.1820  219.6310 S   0  0  0  0  0  0  0  0  0  0  0  0
  146.0950   73.3830  218.1530 O   0  0  0  0  0  0  0  0  0  0  0  0
  146.9240   74.0570  220.3150 O   0  0  0  0  0  0  0  0  0  0  0  0
  144.2810   73.5750  220.1350 C   0  0  0  0  0  0  0  0  0  0  0  0
  143.4010   72.5940  220.5350 C   0  0  0  0  0  0  0  0  0  0  0  0
  142.1200   72.9310  220.9300 C   0  0  0  0  0  0  0  0  0  0  0  0
  141.6500   74.2260  220.9510 C   0  0  0  0  0  0  0  0  0  0  0  0
  140.3190   74.6090  221.3580 C   0  0  0  0  0  0  0  0  0  0  0  0
  139.6450   75.6290  220.8550 C   0  0  0  0  0  0  0  0  0  0  0  0
  140.0930   77.0160  221.1100 C   0  0  0  0  0  0  0  0  0  0  0  0
  140.7250   77.2280  222.2780 N   0  0  0  0  0  0  0  0  0  0  0  0
  141.1780   78.4380  222.6410 C   0  0  0  0  0  0  0  0  0  0  0  0
  141.8290   78.6380  223.8530 C   0  0  0  0  0  0  0  0  0  0  0  0
  142.2650   79.9140  224.1530 C   0  0  0  0  0  0  0  0  0  0  0  0
  142.0740   80.9770  223.2940 C   0  0  0  0  0  0  0  0  0  0  0  0
  141.4160   80.7430  222.0850 C   0  0  0  0  0  0  0  0  0  0  0  0
  141.1460   82.0700  220.9490 Cl  0  0  0  0  0  0  0  0  0  0  0  0
  140.9700   79.4780  221.7600 C   0  0  0  0  0  0  0  0  0  0  0  0
  140.3170   79.2270  220.5680 C   0  0  0  0  0  0  0  0  0  0  0  0
  140.1630   80.2470  219.8140 O   0  0  0  0  0  0  0  0  0  0  0  0
  139.8700   78.0040  220.2180 N   0  0  0  0  0  0  0  0  0  0  0  0
  139.2220   77.7590  218.9680 C   0  0  0  0  0  0  0  0  0  0  0  0
  140.2310   77.7010  217.8610 C   0  0  0  0  0  0  0  0  0  0  0  0
  140.4700   79.0820  217.2620 C   0  0  0  0  0  0  0  0  0  0  0  0
  141.8660   79.1120  216.7200 C   0  0  0  0  0  0  0  0  0  0  0  0
  142.8930   79.0080  217.8260 C   0  0  0  0  0  0  0  0  0  0  0  0
  142.5320   77.9100  218.8130 C   0  0  0  0  0  0  0  0  0  0  0  0
  141.4940   76.9950  218.1870 C   0  0  0  0  0  0  0  0  0  0  0  0
  142.5650   75.2020  220.5400 C   0  0  0  0  0  0  0  0  0  0  0  0
  143.8460   74.8820  220.1440 C   0  0  0  0  0  0  0  0  0  0  0  0
  146.8970   71.5380  220.8350 H   0  0  0  0  0  0  0  0  0  0  0  0
  145.4690   70.9290  220.0710 H   0  0  0  0  0  0  0  0  0  0  0  0
  143.7181   71.5407  220.5402 H   0  0  0  0  0  0  0  0  0  0  0  0
  141.4412   72.1242  221.2435 H   0  0  0  0  0  0  0  0  0  0  0  0
  139.8315   74.0103  222.1415 H   0  0  0  0  0  0  0  0  0  0  0  0
  138.7482   75.4460  220.2449 H   0  0  0  0  0  0  0  0  0  0  0  0
  141.9921   77.8048  224.5524 H   0  0  0  0  0  0  0  0  0  0  0  0
  142.7816   80.0885  225.1083 H   0  0  0  0  0  0  0  0  0  0  0  0
  142.4314   81.9840  223.5554 H   0  0  0  0  0  0  0  0  0  0  0  0
  138.6846   76.8006  219.0197 H   0  0  0  0  0  0  0  0  0  0  0  0
  138.5152   78.5771  218.7652 H   0  0  0  0  0  0  0  0  0  0  0  0
  139.7742   77.0622  217.0907 H   0  0  0  0  0  0  0  0  0  0  0  0
  139.7500   79.2677  216.4513 H   0  0  0  0  0  0  0  0  0  0  0  0
  140.3390   79.8604  218.0281 H   0  0  0  0  0  0  0  0  0  0  0  0
  141.9990   78.2671  216.0282 H   0  0  0  0  0  0  0  0  0  0  0  0
  142.0140   80.0705  216.2009 H   0  0  0  0  0  0  0  0  0  0  0  0
  143.8747   78.7835  217.3835 H   0  0  0  0  0  0  0  0  0  0  0  0
  142.9197   79.9658  218.3664 H   0  0  0  0  0  0  0  0  0  0  0  0
  143.4322   77.3288  219.0618 H   0  0  0  0  0  0  0  0  0  0  0  0
  142.1231   78.3585  219.7304 H   0  0  0  0  0  0  0  0  0  0  0  0
  141.9102   76.5725  217.2606 H   0  0  0  0  0  0  0  0  0  0  0  0
  141.2565   76.2108  218.9209 H   0  0  0  0  0  0  0  0  0  0  0  0
  142.2524   76.2566  220.5327 H   0  0  0  0  0  0  0  0  0  0  0  0
  144.5316   75.6829  219.8303 H   0  0  0  0  0  0  0  0  0  0  0  0
  1  2  1  0
  2  3  2  0
  2  4  2  0
  2  5  1  0
  5  6  2  0
  6  7  1  0
  7  8  2  0
  8  9  1  0
  9 10  2  0
 10 11  1  0
 11 12  2  0
 12 13  1  0
 13 14  2  0
 14 15  1  0
 15 16  2  0
 16 17  1  0
 17 18  1  0
 17 19  2  0
 19 20  1  0
 20 21  2  0
 20 22  1  0
 22 23  1  0
 23 24  1  0
 24 25  1  0
 25 26  1  0
 26 27  1  0
 27 28  1  0
 28 29  1  0
  8 30  1  0
 30 31  2  0
 31  5  1  0
 22 11  1  0
 29 24  1  0
 19 13  1  0
  1 32  1  0
  1 33  1  0
  6 34  1  0
  7 35  1  0
  9 36  1  0
 10 37  1  0
 14 38  1  0
 15 39  1  0
 16 40  1  0
 23 41  1  0
 23 42  1  0
 24 43  1  0
 25 44  1  0
 25 45  1  0
 26 46  1  0
 26 47  1  0
 27 48  1  0
 27 49  1  0
 28 50  1  0
 28 51  1  0
 29 52  1  0
 29 53  1  0
 30 54  1  0
 31 55  1  0
M  END
>  <smiles>  (21) 
NS(=O)(=O)c1ccc(/C=C/c2nc3cccc(Cl)c3c(=O)n2CC2CCCCC2)cc1

>  <score_type>  (21) 
oracle

>  <origin>  (21) 
autodockgpu

>  <m_score__min__energy>  (21) 
-9.5

>  <m_primary>  (21) 
energy

>  <rmsd>  (21) 
4.211056718680393

>  <m_score__min__rmsd>  (21) 
4.211056718680393

>  <meeko>  (21) 
{"free_energy": -7.81, "intermolecular_energy": -9.9, "internal_energy": -2.2, "cluster_size": 4, "cluster_id": 9, "rank_in_cluster": 3}

>  <energy>  (21) 
-8.81

>  <cluster_rmsd>  (21) 
0.3

>  <cluster>  (21) 
3

$$$$

     RDKit          3D

 55 58  0  0  0  0  0  0  0  0999 V2000
  146.1580   73.6660  218.0640 N   0  0  0  0  0  0  0  0  0  0  0  0
  145.8090   73.1500  219.6670 S   0  0  0  0  0  0  0  0  0  0  0  0
  146.8460   73.7580  220.5680 O   0  0  0  0  0  0  0  0  0  0  0  0
  146.0090   71.6600  219.7250 O   0  0  0  0  0  0  0  0  0  0  0  0
  144.1900   73.5970  220.1530 C   0  0  0  0  0  0  0  0  0  0  0  0
  143.3000   72.6580  220.6250 C   0  0  0  0  0  0  0  0  0  0  0  0
  142.0260   73.0390  221.0030 C   0  0  0  0  0  0  0  0  0  0  0  0
  141.5730   74.3380  220.9360 C   0  0  0  0  0  0  0  0  0  0  0  0
  140.2500   74.7650  221.3240 C   0  0  0  0  0  0  0  0  0  0  0  0
  139.6120   75.7990  220.8010 C   0  0  0  0  0  0  0  0  0  0  0  0
  140.0610   77.1780  221.0960 C   0  0  0  0  0  0  0  0  0  0  0  0
  140.7250   77.3490  222.2530 N   0  0  0  0  0  0  0  0  0  0  0  0
  141.1820   78.5470  222.6490 C   0  0  0  0  0  0  0  0  0  0  0  0
  141.8670   78.7050  223.8480 C   0  0  0  0  0  0  0  0  0  0  0  0
  142.3060   79.9710  224.1840 C   0  0  0  0  0  0  0  0  0  0  0  0
  142.0860   81.0650  223.3720 C   0  0  0  0  0  0  0  0  0  0  0  0
  141.3950   80.8730  222.1740 C   0  0  0  0  0  0  0  0  0  0  0  0
  141.0860   82.2400  221.0970 Cl  0  0  0  0  0  0  0  0  0  0  0  0
  140.9450   79.6180  221.8140 C   0  0  0  0  0  0  0  0  0  0  0  0
  140.2600   79.4090  220.6320 C   0  0  0  0  0  0  0  0  0  0  0  0
  140.0800   80.4560  219.9220 O   0  0  0  0  0  0  0  0  0  0  0  0
  139.8080   78.1970  220.2480 N   0  0  0  0  0  0  0  0  0  0  0  0
  139.1260   77.9970  219.0090 C   0  0  0  0  0  0  0  0  0  0  0  0
  140.1070   77.9500  217.8760 C   0  0  0  0  0  0  0  0  0  0  0  0
  140.4050   79.3490  217.3500 C   0  0  0  0  0  0  0  0  0  0  0  0
  141.7890   79.3380  216.7770 C   0  0  0  0  0  0  0  0  0  0  0  0
  142.8330   79.1210  217.8500 C   0  0  0  0  0  0  0  0  0  0  0  0
  142.4360   77.9880  218.7830 C   0  0  0  0  0  0  0  0  0  0  0  0
  141.3380   77.1630  218.1330 C   0  0  0  0  0  0  0  0  0  0  0  0
  142.4970   75.2710  220.4540 C   0  0  0  0  0  0  0  0  0  0  0  0
  143.7720   74.9080  220.0740 C   0  0  0  0  0  0  0  0  0  0  0  0
  145.3720   74.2720  217.7490 H   0  0  0  0  0  0  0  0  0  0  0  0
  147.0820   74.1410  217.9760 H   0  0  0  0  0  0  0  0  0  0  0  0
  143.6033   71.6034  220.7013 H   0  0  0  0  0  0  0  0  0  0  0  0
  141.3390   72.2653  221.3763 H   0  0  0  0  0  0  0  0  0  0  0  0
  139.7366   74.1907  222.1092 H   0  0  0  0  0  0  0  0  0  0  0  0
  138.7449   75.6334  220.1447 H   0  0  0  0  0  0  0  0  0  0  0  0
  142.0542   77.8468  224.5102 H   0  0  0  0  0  0  0  0  0  0  0  0
  142.8490   80.1118  225.1302 H   0  0  0  0  0  0  0  0  0  0  0  0
  142.4460   82.0633  223.6614 H   0  0  0  0  0  0  0  0  0  0  0  0
  138.5722   77.0474  219.0489 H   0  0  0  0  0  0  0  0  0  0  0  0
  138.4301   78.8329  218.8449 H   0  0  0  0  0  0  0  0  0  0  0  0
  139.6022   77.3803  217.0819 H   0  0  0  0  0  0  0  0  0  0  0  0
  139.6787   79.6175  216.5687 H   0  0  0  0  0  0  0  0  0  0  0  0
  140.3311   80.0882  218.1613 H   0  0  0  0  0  0  0  0  0  0  0  0
  141.8630   78.5271  216.0375 H   0  0  0  0  0  0  0  0  0  0  0  0
  141.9753   80.3152  216.3075 H   0  0  0  0  0  0  0  0  0  0  0  0
  143.7922   78.8728  217.3722 H   0  0  0  0  0  0  0  0  0  0  0  0
  142.9214   80.0442  218.4415 H   0  0  0  0  0  0  0  0  0  0  0  0
  143.3098   77.3487  218.9771 H   0  0  0  0  0  0  0  0  0  0  0  0
  142.0703   78.4044  219.7332 H   0  0  0  0  0  0  0  0  0  0  0  0
  141.7119   76.7716  217.1754 H   0  0  0  0  0  0  0  0  0  0  0  0
  141.0752   76.3525  218.8287 H   0  0  0  0  0  0  0  0  0  0  0  0
  142.1975   76.3265  220.3756 H   0  0  0  0  0  0  0  0  0  0  0  0
  144.4659   75.6763  219.7023 H   0  0  0  0  0  0  0  0  0  0  0  0
  1  2  1  0
  2  3  2  0
  2  4  2  0
  2  5  1  0
  5  6  2  0
  6  7  1  0
  7  8  2  0
  8  9  1  0
  9 10  2  0
 10 11  1  0
 11 12  2  0
 12 13  1  0
 13 14  2  0
 14 15  1  0
 15 16  2  0
 16 17  1  0
 17 18  1  0
 17 19  2  0
 19 20  1  0
 20 21  2  0
 20 22  1  0
 22 23  1  0
 23 24  1  0
 24 25  1  0
 25 26  1  0
 26 27  1  0
 27 28  1  0
 28 29  1  0
  8 30  1  0
 30 31  2  0
 31  5  1  0
 22 11  1  0
 29 24  1  0
 19 13  1  0
  1 32  1  0
  1 33  1  0
  6 34  1  0
  7 35  1  0
  9 36  1  0
 10 37  1  0
 14 38  1  0
 15 39  1  0
 16 40  1  0
 23 41  1  0
 23 42  1  0
 24 43  1  0
 25 44  1  0
 25 45  1  0
 26 46  1  0
 26 47  1  0
 27 48  1  0
 27 49  1  0
 28 50  1  0
 28 51  1  0
 29 52  1  0
 29 53  1  0
 30 54  1  0
 31 55  1  0
M  END
>  <smiles>  (22) 
NS(=O)(=O)c1ccc(/C=C/c2nc3cccc(Cl)c3c(=O)n2CC2CCCCC2)cc1

>  <score_type>  (22) 
oracle

>  <origin>  (22) 
autodockgpu

>  <m_score__min__energy>  (22) 
-9.5

>  <m_primary>  (22) 
energy

>  <rmsd>  (22) 
4.2449449692022725

>  <m_score__min__rmsd>  (22) 
4.2449449692022725

>  <meeko>  (22) 
{"free_energy": -7.94, "intermolecular_energy": -10.03, "internal_energy": -2.18, "cluster_size": 4, "cluster_id": 9, "rank_in_cluster": 1}

>  <energy>  (22) 
-8.8

>  <cluster_rmsd>  (22) 
0.5

>  <cluster>  (22) 
3

$$$$

     RDKit          3D

 55 58  0  0  0  0  0  0  0  0999 V2000
  145.8240   71.5130  220.0690 N   0  0  0  0  0  0  0  0  0  0  0  0
  145.6460   73.1920  219.7400 S   0  0  0  0  0  0  0  0  0  0  0  0
  145.8760   73.3860  218.2680 O   0  0  0  0  0  0  0  0  0  0  0  0
  146.7560   73.9200  220.4480 O   0  0  0  0  0  0  0  0  0  0  0  0
  144.0760   73.7850  220.2320 C   0  0  0  0  0  0  0  0  0  0  0  0
  143.1410   72.9480  220.7980 C   0  0  0  0  0  0  0  0  0  0  0  0
  141.9070   73.4420  221.1770 C   0  0  0  0  0  0  0  0  0  0  0  0
  141.5390   74.7610  221.0220 C   0  0  0  0  0  0  0  0  0  0  0  0
  140.2600   75.3060  221.4090 C   0  0  0  0  0  0  0  0  0  0  0  0
  139.6900   76.3570  220.8450 C   0  0  0  0  0  0  0  0  0  0  0  0
  138.9950   77.3640  221.6780 C   0  0  0  0  0  0  0  0  0  0  0  0
  137.6730   77.4920  221.4710 N   0  0  0  0  0  0  0  0  0  0  0  0
  136.9210   78.3710  222.1520 C   0  0  0  0  0  0  0  0  0  0  0  0
  135.5550   78.4900  221.9240 C   0  0  0  0  0  0  0  0  0  0  0  0
  134.8510   79.4190  222.6650 C   0  0  0  0  0  0  0  0  0  0  0  0
  135.4590   80.2180  223.6120 C   0  0  0  0  0  0  0  0  0  0  0  0
  136.8340   80.0740  223.8170 C   0  0  0  0  0  0  0  0  0  0  0  0
  137.6620   81.0730  225.0170 Cl  0  0  0  0  0  0  0  0  0  0  0  0
  137.5610   79.1540  223.0890 C   0  0  0  0  0  0  0  0  0  0  0  0
  138.9210   78.9970  223.2780 C   0  0  0  0  0  0  0  0  0  0  0  0
  139.4330   79.7650  224.1620 O   0  0  0  0  0  0  0  0  0  0  0  0
  139.6620   78.1070  222.5860 N   0  0  0  0  0  0  0  0  0  0  0  0
  141.0620   77.9410  222.8160 C   0  0  0  0  0  0  0  0  0  0  0  0
  141.8370   79.0080  222.1030 C   0  0  0  0  0  0  0  0  0  0  0  0
  140.9440   79.7870  221.1440 C   0  0  0  0  0  0  0  0  0  0  0  0
  141.5090   81.1680  221.0100 C   0  0  0  0  0  0  0  0  0  0  0  0
  141.4110   81.9370  222.3080 C   0  0  0  0  0  0  0  0  0  0  0  0
  141.8650   81.0900  223.4870 C   0  0  0  0  0  0  0  0  0  0  0  0
  142.6490   79.8950  222.9730 C   0  0  0  0  0  0  0  0  0  0  0  0
  142.5080   75.5890  220.4450 C   0  0  0  0  0  0  0  0  0  0  0  0
  143.7430   75.1120  220.0610 C   0  0  0  0  0  0  0  0  0  0  0  0
  146.7070   71.3880  220.6060 H   0  0  0  0  0  0  0  0  0  0  0  0
  145.0020   71.1000  220.5600 H   0  0  0  0  0  0  0  0  0  0  0  0
  143.3764   71.8841  220.9489 H   0  0  0  0  0  0  0  0  0  0  0  0
  141.1817   72.7469  221.6252 H   0  0  0  0  0  0  0  0  0  0  0  0
  139.7214   74.8121  222.2312 H   0  0  0  0  0  0  0  0  0  0  0  0
  139.7323   76.4836  219.7531 H   0  0  0  0  0  0  0  0  0  0  0  0
  135.0494   77.8626  221.1752 H   0  0  0  0  0  0  0  0  0  0  0  0
  133.7695   79.5256  222.4947 H   0  0  0  0  0  0  0  0  0  0  0  0
  134.8761   80.9496  224.1908 H   0  0  0  0  0  0  0  0  0  0  0  0
  141.2626   78.0069  223.8955 H   0  0  0  0  0  0  0  0  0  0  0  0
  141.3730   76.9574  222.4340 H   0  0  0  0  0  0  0  0  0  0  0  0
  142.5931   78.4680  221.5142 H   0  0  0  0  0  0  0  0  0  0  0  0
  140.9288   79.2922  220.1617 H   0  0  0  0  0  0  0  0  0  0  0  0
  139.9139   79.8293  221.5275 H   0  0  0  0  0  0  0  0  0  0  0  0
  142.5669   81.0942  220.7176 H   0  0  0  0  0  0  0  0  0  0  0  0
  140.9274   81.7055  220.2465 H   0  0  0  0  0  0  0  0  0  0  0  0
  142.0474   82.8319  222.2434 H   0  0  0  0  0  0  0  0  0  0  0  0
  140.3595   82.2183  222.4667 H   0  0  0  0  0  0  0  0  0  0  0  0
  142.5051   81.6929  224.1479 H   0  0  0  0  0  0  0  0  0  0  0  0
  140.9870   80.7406  224.0500 H   0  0  0  0  0  0  0  0  0  0  0  0
  143.5106   80.2614  222.3956 H   0  0  0  0  0  0  0  0  0  0  0  0
  142.9653   79.3050  223.8459 H   0  0  0  0  0  0  0  0  0  0  0  0
  142.2772   76.6537  220.2931 H   0  0  0  0  0  0  0  0  0  0  0  0
  144.4738   75.8004  219.6114 H   0  0  0  0  0  0  0  0  0  0  0  0
  1  2  1  0
  2  3  2  0
  2  4  2  0
  2  5  1  0
  5  6  2  0
  6  7  1  0
  7  8  2  0
  8  9  1  0
  9 10  2  0
 10 11  1  0
 11 12  2  0
 12 13  1  0
 13 14  2  0
 14 15  1  0
 15 16  2  0
 16 17  1  0
 17 18  1  0
 17 19  2  0
 19 20  1  0
 20 21  2  0
 20 22  1  0
 22 23  1  0
 23 24  1  0
 24 25  1  0
 25 26  1  0
 26 27  1  0
 27 28  1  0
 28 29  1  0
  8 30  1  0
 30 31  2  0
 31  5  1  0
 22 11  1  0
 29 24  1  0
 19 13  1  0
  1 32  1  0
  1 33  1  0
  6 34  1  0
  7 35  1  0
  9 36  1  0
 10 37  1  0
 14 38  1  0
 15 39  1  0
 16 40  1  0
 23 41  1  0
 23 42  1  0
 24 43  1  0
 25 44  1  0
 25 45  1  0
 26 46  1  0
 26 47  1  0
 27 48  1  0
 27 49  1  0
 28 50  1  0
 28 51  1  0
 29 52  1  0
 29 53  1  0
 30 54  1  0
 31 55  1  0
M  END
>  <smiles>  (23) 
NS(=O)(=O)c1ccc(/C=C/c2nc3cccc(Cl)c3c(=O)n2CC2CCCCC2)cc1

>  <score_type>  (23) 
oracle

>  <origin>  (23) 
autodockgpu

>  <m_score__min__energy>  (23) 
-9.5

>  <m_primary>  (23) 
energy

>  <rmsd>  (23) 
5.298999023718228

>  <m_score__min__rmsd>  (23) 
5.298999023718228

>  <meeko>  (23) 
{"free_energy": -8.38, "intermolecular_energy": -10.47, "internal_energy": -1.66, "cluster_size": 6, "cluster_id": 6, "rank_in_cluster": 1}

>  <energy>  (23) 
-8.73

>  <cluster_rmsd>  (23) 
0.57

>  <cluster>  (23) 
3

$$$$

     RDKit          3D

 55 58  0  0  0  0  0  0  0  0999 V2000
  145.8150   73.3460  217.9210 N   0  0  0  0  0  0  0  0  0  0  0  0
  145.8040   72.8750  219.5760 S   0  0  0  0  0  0  0  0  0  0  0  0
  146.7840   73.7570  220.2970 O   0  0  0  0  0  0  0  0  0  0  0  0
  146.3430   71.4740  219.6590 O   0  0  0  0  0  0  0  0  0  0  0  0
  144.2030   72.9880  220.2700 C   0  0  0  0  0  0  0  0  0  0  0  0
  143.5330   74.1890  220.3310 C   0  0  0  0  0  0  0  0  0  0  0  0
  142.2680   74.2510  220.8840 C   0  0  0  0  0  0  0  0  0  0  0  0
  141.6110   73.1530  221.3960 C   0  0  0  0  0  0  0  0  0  0  0  0
  140.2910   73.1860  221.9790 C   0  0  0  0  0  0  0  0  0  0  0  0
  139.5130   72.1270  222.1350 C   0  0  0  0  0  0  0  0  0  0  0  0
  139.6370   71.2840  223.3440 C   0  0  0  0  0  0  0  0  0  0  0  0
  140.1980   71.8680  224.4180 N   0  0  0  0  0  0  0  0  0  0  0  0
  140.3790   71.2170  225.5770 C   0  0  0  0  0  0  0  0  0  0  0  0
  140.9610   71.8370  226.6770 C   0  0  0  0  0  0  0  0  0  0  0  0
  141.1130   71.0990  227.8350 C   0  0  0  0  0  0  0  0  0  0  0  0
  140.7070   69.7830  227.9260 C   0  0  0  0  0  0  0  0  0  0  0  0
  140.1260   69.1890  226.8030 C   0  0  0  0  0  0  0  0  0  0  0  0
  139.5890   67.5060  226.8670 Cl  0  0  0  0  0  0  0  0  0  0  0  0
  139.9630   69.9040  225.6340 C   0  0  0  0  0  0  0  0  0  0  0  0
  139.3900   69.3330  224.5130 C   0  0  0  0  0  0  0  0  0  0  0  0
  139.0370   68.1130  224.6520 O   0  0  0  0  0  0  0  0  0  0  0  0
  139.2140   70.0020  223.3550 N   0  0  0  0  0  0  0  0  0  0  0  0
  138.5940   69.4020  222.2160 C   0  0  0  0  0  0  0  0  0  0  0  0
  139.5670   68.5130  221.5020 C   0  0  0  0  0  0  0  0  0  0  0  0
  138.8780   67.2650  220.9640 C   0  0  0  0  0  0  0  0  0  0  0  0
  139.6350   66.8080  219.7550 C   0  0  0  0  0  0  0  0  0  0  0  0
  139.5260   67.8030  218.6220 C   0  0  0  0  0  0  0  0  0  0  0  0
  139.7530   69.2240  219.1130 C   0  0  0  0  0  0  0  0  0  0  0  0
  140.4100   69.1830  220.4810 C   0  0  0  0  0  0  0  0  0  0  0  0
  142.3140   71.9450  221.3210 C   0  0  0  0  0  0  0  0  0  0  0  0
  143.5760   71.8670  220.7720 C   0  0  0  0  0  0  0  0  0  0  0  0
  144.9290   73.0080  217.4910 H   0  0  0  0  0  0  0  0  0  0  0  0
  145.9540   74.3710  217.7850 H   0  0  0  0  0  0  0  0  0  0  0  0
  144.0056   75.1015  219.9386 H   0  0  0  0  0  0  0  0  0  0  0  0
  141.7598   75.2260  220.9172 H   0  0  0  0  0  0  0  0  0  0  0  0
  139.9050   74.1590  222.3171 H   0  0  0  0  0  0  0  0  0  0  0  0
  138.7717   71.8728  221.3631 H   0  0  0  0  0  0  0  0  0  0  0  0
  141.2910   72.8851  226.6267 H   0  0  0  0  0  0  0  0  0  0  0  0
  141.5727   71.5759  228.7133 H   0  0  0  0  0  0  0  0  0  0  0  0
  140.8377   69.2160  228.8595 H   0  0  0  0  0  0  0  0  0  0  0  0
  137.7309   68.8048  222.5452 H   0  0  0  0  0  0  0  0  0  0  0  0
  138.2635   70.1952  221.5292 H   0  0  0  0  0  0  0  0  0  0  0  0
  140.2922   68.2063  222.2701 H   0  0  0  0  0  0  0  0  0  0  0  0
  138.8838   66.4751  221.7296 H   0  0  0  0  0  0  0  0  0  0  0  0
  137.8330   67.4865  220.7015 H   0  0  0  0  0  0  0  0  0  0  0  0
  140.6950   66.6860  220.0224 H   0  0  0  0  0  0  0  0  0  0  0  0
  139.2028   65.8541  219.4184 H   0  0  0  0  0  0  0  0  0  0  0  0
  140.2812   67.5622  217.8593 H   0  0  0  0  0  0  0  0  0  0  0  0
  138.5126   67.7388  218.1989 H   0  0  0  0  0  0  0  0  0  0  0  0
  140.4071   69.7567  218.4070 H   0  0  0  0  0  0  0  0  0  0  0  0
  138.7885   69.7483  219.1829 H   0  0  0  0  0  0  0  0  0  0  0  0
  141.3618   68.6379  220.3979 H   0  0  0  0  0  0  0  0  0  0  0  0
  140.5631   70.2224  220.8070 H   0  0  0  0  0  0  0  0  0  0  0  0
  141.8451   71.0300  221.7121 H   0  0  0  0  0  0  0  0  0  0  0  0
  144.0909   70.8957  220.7337 H   0  0  0  0  0  0  0  0  0  0  0  0
  1  2  1  0
  2  3  2  0
  2  4  2  0
  2  5  1  0
  5  6  2  0
  6  7  1  0
  7  8  2  0
  8  9  1  0
  9 10  2  0
 10 11  1  0
 11 12  2  0
 12 13  1  0
 13 14  2  0
 14 15  1  0
 15 16  2  0
 16 17  1  0
 17 18  1  0
 17 19  2  0
 19 20  1  0
 20 21  2  0
 20 22  1  0
 22 23  1  0
 23 24  1  0
 24 25  1  0
 25 26  1  0
 26 27  1  0
 27 28  1  0
 28 29  1  0
  8 30  1  0
 30 31  2  0
 31  5  1  0
 22 11  1  0
 29 24  1  0
 19 13  1  0
  1 32  1  0
  1 33  1  0
  6 34  1  0
  7 35  1  0
  9 36  1  0
 10 37  1  0
 14 38  1  0
 15 39  1  0
 16 40  1  0
 23 41  1  0
 23 42  1  0
 24 43  1  0
 25 44  1  0
 25 45  1  0
 26 46  1  0
 26 47  1  0
 27 48  1  0
 27 49  1  0
 28 50  1  0
 28 51  1  0
 29 52  1  0
 29 53  1  0
 30 54  1  0
 31 55  1  0
M  END
>  <smiles>  (24) 
NS(=O)(=O)c1ccc(/C=C/c2nc3cccc(Cl)c3c(=O)n2CC2CCCCC2)cc1

>  <score_type>  (24) 
oracle

>  <origin>  (24) 
autodockgpu

>  <m_score__min__energy>  (24) 
-9.5

>  <m_primary>  (24) 
energy

>  <rmsd>  (24) 
10.957902046375034

>  <m_score__min__rmsd>  (24) 
10.957902046375034

>  <meeko>  (24) 
{"free_energy": -9.1, "intermolecular_energy": -11.19, "internal_energy": -1.75, "cluster_size": 13, "cluster_id": 1, "rank_in_cluster": 3}

>  <energy>  (24) 
-8.71

>  <cluster_rmsd>  (24) 
0.93

>  <cluster>  (24) 
3

$$$$

     RDKit          3D

 55 58  0  0  0  0  0  0  0  0999 V2000
  142.2070   79.1940  221.4770 N   0  0  0  0  0  0  0  0  0  0  0  0
  141.0220   78.6620  222.6060 S   0  0  0  0  0  0  0  0  0  0  0  0
  139.8550   79.6020  222.5050 O   0  0  0  0  0  0  0  0  0  0  0  0
  141.5940   78.8310  223.9860 O   0  0  0  0  0  0  0  0  0  0  0  0
  140.5440   77.0060  222.3090 C   0  0  0  0  0  0  0  0  0  0  0  0
  141.4410   76.0780  221.8270 C   0  0  0  0  0  0  0  0  0  0  0  0
  141.0370   74.7760  221.6020 C   0  0  0  0  0  0  0  0  0  0  0  0
  139.7550   74.3300  221.8360 C   0  0  0  0  0  0  0  0  0  0  0  0
  139.3040   72.9770  221.6110 C   0  0  0  0  0  0  0  0  0  0  0  0
  140.0520   71.8990  221.7780 C   0  0  0  0  0  0  0  0  0  0  0  0
  140.0390   71.1760  223.0680 C   0  0  0  0  0  0  0  0  0  0  0  0
  140.5270   71.8450  224.1270 N   0  0  0  0  0  0  0  0  0  0  0  0
  140.5820   71.3060  225.3560 C   0  0  0  0  0  0  0  0  0  0  0  0
  141.0910   72.0140  226.4390 C   0  0  0  0  0  0  0  0  0  0  0  0
  141.1120   71.3900  227.6700 C   0  0  0  0  0  0  0  0  0  0  0  0
  140.6480   70.1020  227.8500 C   0  0  0  0  0  0  0  0  0  0  0  0
  140.1430   69.4190  226.7420 C   0  0  0  0  0  0  0  0  0  0  0  0
  139.5360   67.7680  226.9180 Cl  0  0  0  0  0  0  0  0  0  0  0  0
  140.1100   70.0190  225.5000 C   0  0  0  0  0  0  0  0  0  0  0  0
  139.6140   69.3580  224.3920 C   0  0  0  0  0  0  0  0  0  0  0  0
  139.2030   68.1690  224.6140 O   0  0  0  0  0  0  0  0  0  0  0  0
  139.5650   69.9150  223.1640 N   0  0  0  0  0  0  0  0  0  0  0  0
  139.0230   69.2250  222.0370 C   0  0  0  0  0  0  0  0  0  0  0  0
  137.5320   69.3820  221.9980 C   0  0  0  0  0  0  0  0  0  0  0  0
  136.8400   68.2260  222.7090 C   0  0  0  0  0  0  0  0  0  0  0  0
  135.5320   68.7300  223.2390 C   0  0  0  0  0  0  0  0  0  0  0  0
  135.7340   69.7610  224.3270 C   0  0  0  0  0  0  0  0  0  0  0  0
  136.7870   70.7840  223.9280 C   0  0  0  0  0  0  0  0  0  0  0  0
  137.0200   70.7060  222.4300 C   0  0  0  0  0  0  0  0  0  0  0  0
  138.8650   75.2920  222.3260 C   0  0  0  0  0  0  0  0  0  0  0  0
  139.2520   76.5950  222.5560 C   0  0  0  0  0  0  0  0  0  0  0  0
  143.1430   78.9720  221.8740 H   0  0  0  0  0  0  0  0  0  0  0  0
  142.0770   78.7920  220.5230 H   0  0  0  0  0  0  0  0  0  0  0  0
  142.4802   76.3740  221.6210 H   0  0  0  0  0  0  0  0  0  0  0  0
  141.7769   74.0591  221.2164 H   0  0  0  0  0  0  0  0  0  0  0  0
  138.2658   72.8326  221.2774 H   0  0  0  0  0  0  0  0  0  0  0  0
  140.6860   71.5390  220.9544 H   0  0  0  0  0  0  0  0  0  0  0  0
  141.4659   73.0411  226.3183 H   0  0  0  0  0  0  0  0  0  0  0  0
  141.5117   71.9370  228.5366 H   0  0  0  0  0  0  0  0  0  0  0  0
  140.6755   69.6261  228.8413 H   0  0  0  0  0  0  0  0  0  0  0  0
  139.4558   69.6401  221.1149 H   0  0  0  0  0  0  0  0  0  0  0  0
  139.2680   68.1559  222.1204 H   0  0  0  0  0  0  0  0  0  0  0  0
  137.2668   69.3429  220.9312 H   0  0  0  0  0  0  0  0  0  0  0  0
  136.6644   67.4027  222.0009 H   0  0  0  0  0  0  0  0  0  0  0  0
  137.4675   67.8497  223.5303 H   0  0  0  0  0  0  0  0  0  0  0  0
  134.9647   69.1869  222.4147 H   0  0  0  0  0  0  0  0  0  0  0  0
  134.9830   67.8789  223.6682 H   0  0  0  0  0  0  0  0  0  0  0  0
  134.7816   70.2797  224.5109 H   0  0  0  0  0  0  0  0  0  0  0  0
  136.0769   69.2451  225.2360 H   0  0  0  0  0  0  0  0  0  0  0  0
  136.4384   71.7929  224.1936 H   0  0  0  0  0  0  0  0  0  0  0  0
  137.7268   70.5716  224.4586 H   0  0  0  0  0  0  0  0  0  0  0  0
  136.0675   70.9000  221.9152 H   0  0  0  0  0  0  0  0  0  0  0  0
  137.7818   71.4567  222.1728 H   0  0  0  0  0  0  0  0  0  0  0  0
  137.8251   74.9998  222.5340 H   0  0  0  0  0  0  0  0  0  0  0  0
  138.5183   77.3177  222.9426 H   0  0  0  0  0  0  0  0  0  0  0  0
  1  2  1  0
  2  3  2  0
  2  4  2  0
  2  5  1  0
  5  6  2  0
  6  7  1  0
  7  8  2  0
  8  9  1  0
  9 10  2  0
 10 11  1  0
 11 12  2  0
 12 13  1  0
 13 14  2  0
 14 15  1  0
 15 16  2  0
 16 17  1  0
 17 18  1  0
 17 19  2  0
 19 20  1  0
 20 21  2  0
 20 22  1  0
 22 23  1  0
 23 24  1  0
 24 25  1  0
 25 26  1  0
 26 27  1  0
 27 28  1  0
 28 29  1  0
  8 30  1  0
 30 31  2  0
 31  5  1  0
 22 11  1  0
 29 24  1  0
 19 13  1  0
  1 32  1  0
  1 33  1  0
  6 34  1  0
  7 35  1  0
  9 36  1  0
 10 37  1  0
 14 38  1  0
 15 39  1  0
 16 40  1  0
 23 41  1  0
 23 42  1  0
 24 43  1  0
 25 44  1  0
 25 45  1  0
 26 46  1  0
 26 47  1  0
 27 48  1  0
 27 49  1  0
 28 50  1  0
 28 51  1  0
 29 52  1  0
 29 53  1  0
 30 54  1  0
 31 55  1  0
M  END
>  <smiles>  (25) 
NS(=O)(=O)c1ccc(/C=C/c2nc3cccc(Cl)c3c(=O)n2CC2CCCCC2)cc1

>  <score_type>  (25) 
oracle

>  <origin>  (25) 
autodockgpu

>  <m_score__min__energy>  (25) 
-9.5

>  <m_primary>  (25) 
energy

>  <rmsd>  (25) 
11.065040754217764

>  <m_score__min__rmsd>  (25) 
11.065040754217764

>  <meeko>  (25) 
{"free_energy": -8.54, "intermolecular_energy": -10.63, "internal_energy": -1.89, "cluster_size": 11, "cluster_id": 3, "rank_in_cluster": 8}

>  <energy>  (25) 
-8.54

>  <cluster_rmsd>  (25) 
0.56

>  <cluster>  (25) 
3

$$$$

     RDKit          3D

 55 58  0  0  0  0  0  0  0  0999 V2000
  145.9830   71.6240  220.0760 N   0  0  0  0  0  0  0  0  0  0  0  0
  145.7740   73.2750  219.6390 S   0  0  0  0  0  0  0  0  0  0  0  0
  145.9730   73.3720  218.1530 O   0  0  0  0  0  0  0  0  0  0  0  0
  146.8860   74.0630  220.2740 O   0  0  0  0  0  0  0  0  0  0  0  0
  144.2050   73.8790  220.1210 C   0  0  0  0  0  0  0  0  0  0  0  0
  143.3050   73.0780  220.7890 C   0  0  0  0  0  0  0  0  0  0  0  0
  142.0720   73.5800  221.1590 C   0  0  0  0  0  0  0  0  0  0  0  0
  141.6700   74.8710  220.8950 C   0  0  0  0  0  0  0  0  0  0  0  0
  140.3900   75.4230  221.2690 C   0  0  0  0  0  0  0  0  0  0  0  0
  139.8660   76.5220  220.7510 C   0  0  0  0  0  0  0  0  0  0  0  0
  139.1330   77.4750  221.6140 C   0  0  0  0  0  0  0  0  0  0  0  0
  137.8140   77.5890  221.3810 N   0  0  0  0  0  0  0  0  0  0  0  0
  137.0290   78.4210  222.0850 C   0  0  0  0  0  0  0  0  0  0  0  0
  135.6660   78.5260  221.8290 C   0  0  0  0  0  0  0  0  0  0  0  0
  134.9280   79.4060  222.5970 C   0  0  0  0  0  0  0  0  0  0  0  0
  135.4990   80.1690  223.5950 C   0  0  0  0  0  0  0  0  0  0  0  0
  136.8700   80.0400  223.8260 C   0  0  0  0  0  0  0  0  0  0  0  0
  137.6510   80.9950  225.0920 Cl  0  0  0  0  0  0  0  0  0  0  0  0
  137.6320   79.1690  223.0730 C   0  0  0  0  0  0  0  0  0  0  0  0
  138.9900   79.0280  223.2880 C   0  0  0  0  0  0  0  0  0  0  0  0
  139.4670   79.7620  224.2190 O   0  0  0  0  0  0  0  0  0  0  0  0
  139.7640   78.1860  222.5730 N   0  0  0  0  0  0  0  0  0  0  0  0
  141.1610   78.0340  222.8280 C   0  0  0  0  0  0  0  0  0  0  0  0
  141.9360   79.1200  222.1450 C   0  0  0  0  0  0  0  0  0  0  0  0
  141.0690   79.8610  221.1340 C   0  0  0  0  0  0  0  0  0  0  0  0
  141.5950   81.2590  221.0150 C   0  0  0  0  0  0  0  0  0  0  0  0
  141.4060   82.0350  222.3000 C   0  0  0  0  0  0  0  0  0  0  0  0
  141.8260   81.2120  223.5080 C   0  0  0  0  0  0  0  0  0  0  0  0
  142.6740   80.0390  223.0460 C   0  0  0  0  0  0  0  0  0  0  0  0
  142.6020   75.6620  220.2160 C   0  0  0  0  0  0  0  0  0  0  0  0
  143.8370   75.1770  219.8400 C   0  0  0  0  0  0  0  0  0  0  0  0
  146.7010   71.5850  220.8280 H   0  0  0  0  0  0  0  0  0  0  0  0
  145.0930   71.1560  220.3550 H   0  0  0  0  0  0  0  0  0  0  0  0
  143.5684   72.0371  221.0282 H   0  0  0  0  0  0  0  0  0  0  0  0
  141.3760   72.9151  221.6914 H   0  0  0  0  0  0  0  0  0  0  0  0
  139.8095   74.8930  222.0385 H   0  0  0  0  0  0  0  0  0  0  0  0
  139.9755   76.7279  219.6760 H   0  0  0  0  0  0  0  0  0  0  0  0
  135.1900   77.9266  221.0390 H   0  0  0  0  0  0  0  0  0  0  0  0
  133.8488   79.5016  222.4065 H   0  0  0  0  0  0  0  0  0  0  0  0
  134.8892   80.8616  224.1937 H   0  0  0  0  0  0  0  0  0  0  0  0
  141.3398   78.0874  223.9121 H   0  0  0  0  0  0  0  0  0  0  0  0
  141.4917   77.0597  222.4389 H   0  0  0  0  0  0  0  0  0  0  0  0
  142.7382   78.6006  221.6002 H   0  0  0  0  0  0  0  0  0  0  0  0
  141.1204   79.3577  220.1573 H   0  0  0  0  0  0  0  0  0  0  0  0
  140.0197   79.8727  221.4640 H   0  0  0  0  0  0  0  0  0  0  0  0
  142.6682   81.2179  220.7771 H   0  0  0  0  0  0  0  0  0  0  0  0
  141.0359   81.7709  220.2179 H   0  0  0  0  0  0  0  0  0  0  0  0
  142.0159   82.9495  222.2596 H   0  0  0  0  0  0  0  0  0  0  0  0
  140.3394   82.2835  222.4024 H   0  0  0  0  0  0  0  0  0  0  0  0
  142.4114   81.8405  224.1953 H   0  0  0  0  0  0  0  0  0  0  0  0
  140.9318   80.8381  224.0281 H   0  0  0  0  0  0  0  0  0  0  0  0
  143.5516   80.4287  222.5094 H   0  0  0  0  0  0  0  0  0  0  0  0
  142.9650   79.4667  223.9392 H   0  0  0  0  0  0  0  0  0  0  0  0
  142.3421   76.7032  219.9743 H   0  0  0  0  0  0  0  0  0  0  0  0
  144.5388   75.8360  219.3079 H   0  0  0  0  0  0  0  0  0  0  0  0
  1  2  1  0
  2  3  2  0
  2  4  2  0
  2  5  1  0
  5  6  2  0
  6  7  1  0
  7  8  2  0
  8  9  1  0
  9 10  2  0
 10 11  1  0
 11 12  2  0
 12 13  1  0
 13 14  2  0
 14 15  1  0
 15 16  2  0
 16 17  1  0
 17 18  1  0
 17 19  2  0
 19 20  1  0
 20 21  2  0
 20 22  1  0
 22 23  1  0
 23 24  1  0
 24 25  1  0
 25 26  1  0
 26 27  1  0
 27 28  1  0
 28 29  1  0
  8 30  1  0
 30 31  2  0
 31  5  1  0
 22 11  1  0
 29 24  1  0
 19 13  1  0
  1 32  1  0
  1 33  1  0
  6 34  1  0
  7 35  1  0
  9 36  1  0
 10 37  1  0
 14 38  1  0
 15 39  1  0
 16 40  1  0
 23 41  1  0
 23 42  1  0
 24 43  1  0
 25 44  1  0
 25 45  1  0
 26 46  1  0
 26 47  1  0
 27 48  1  0
 27 49  1  0
 28 50  1  0
 28 51  1  0
 29 52  1  0
 29 53  1  0
 30 54  1  0
 31 55  1  0
M  END
>  <smiles>  (26) 
NS(=O)(=O)c1ccc(/C=C/c2nc3cccc(Cl)c3c(=O)n2CC2CCCCC2)cc1

>  <score_type>  (26) 
oracle

>  <origin>  (26) 
autodockgpu

>  <m_score__min__energy>  (26) 
-9.5

>  <m_primary>  (26) 
energy

>  <rmsd>  (26) 
5.3094864692931285

>  <m_score__min__rmsd>  (26) 
5.3094864692931285

>  <meeko>  (26) 
{"free_energy": -8.36, "intermolecular_energy": -10.45, "internal_energy": -1.69, "cluster_size": 6, "cluster_id": 6, "rank_in_cluster": 3}

>  <energy>  (26) 
-8.53

>  <cluster_rmsd>  (26) 
0.78

>  <cluster>  (26) 
3

$$$$

     RDKit          3D

 55 58  0  0  0  0  0  0  0  0999 V2000
  132.7440   72.2890  227.5790 N   0  0  0  0  0  0  0  0  0  0  0  0
  133.3870   72.8540  226.0850 S   0  0  0  0  0  0  0  0  0  0  0  0
  134.2620   74.0350  226.3940 O   0  0  0  0  0  0  0  0  0  0  0  0
  132.2430   73.3700  225.2580 O   0  0  0  0  0  0  0  0  0  0  0  0
  134.2700   71.5990  225.2460 C   0  0  0  0  0  0  0  0  0  0  0  0
  134.2950   70.3050  225.7170 C   0  0  0  0  0  0  0  0  0  0  0  0
  135.0000   69.3320  225.0340 C   0  0  0  0  0  0  0  0  0  0  0  0
  135.7030   69.5800  223.8750 C   0  0  0  0  0  0  0  0  0  0  0  0
  136.4470   68.5850  223.1400 C   0  0  0  0  0  0  0  0  0  0  0  0
  137.7670   68.5370  223.0680 C   0  0  0  0  0  0  0  0  0  0  0  0
  138.5930   69.0900  224.1640 C   0  0  0  0  0  0  0  0  0  0  0  0
  138.8470   68.2590  225.1900 N   0  0  0  0  0  0  0  0  0  0  0  0
  139.5760   68.6320  226.2540 C   0  0  0  0  0  0  0  0  0  0  0  0
  139.8280   67.7580  227.3060 C   0  0  0  0  0  0  0  0  0  0  0  0
  140.5870   68.2180  228.3650 C   0  0  0  0  0  0  0  0  0  0  0  0
  141.0940   69.5020  228.4030 C   0  0  0  0  0  0  0  0  0  0  0  0
  140.8220   70.3540  227.3310 C   0  0  0  0  0  0  0  0  0  0  0  0
  141.4470   72.0080  227.3300 Cl  0  0  0  0  0  0  0  0  0  0  0  0
  140.0660   69.9200  226.2610 C   0  0  0  0  0  0  0  0  0  0  0  0
  139.7880   70.7500  225.1900 C   0  0  0  0  0  0  0  0  0  0  0  0
  140.2770   71.9260  225.2800 O   0  0  0  0  0  0  0  0  0  0  0  0
  139.0540   70.3580  224.1280 N   0  0  0  0  0  0  0  0  0  0  0  0
  138.8010   71.2220  223.0190 C   0  0  0  0  0  0  0  0  0  0  0  0
  139.9730   71.2270  222.0840 C   0  0  0  0  0  0  0  0  0  0  0  0
  139.5170   71.1740  220.6310 C   0  0  0  0  0  0  0  0  0  0  0  0
  140.5610   71.8510  219.7970 C   0  0  0  0  0  0  0  0  0  0  0  0
  140.6420   73.3310  220.1020 C   0  0  0  0  0  0  0  0  0  0  0  0
  140.6470   73.5850  221.6010 C   0  0  0  0  0  0  0  0  0  0  0  0
  140.9760   72.2930  222.3280 C   0  0  0  0  0  0  0  0  0  0  0  0
  135.6610   70.9020  223.4190 C   0  0  0  0  0  0  0  0  0  0  0  0
  134.9620   71.8840  224.0890 C   0  0  0  0  0  0  0  0  0  0  0  0
  133.4440   71.6450  228.0000 H   0  0  0  0  0  0  0  0  0  0  0  0
  132.4750   73.0600  228.2280 H   0  0  0  0  0  0  0  0  0  0  0  0
  133.7529   70.0455  226.6383 H   0  0  0  0  0  0  0  0  0  0  0  0
  134.9999   68.3080  225.4358 H   0  0  0  0  0  0  0  0  0  0  0  0
  135.8767   67.8131  222.6025 H   0  0  0  0  0  0  0  0  0  0  0  0
  138.2521   68.0845  222.1905 H   0  0  0  0  0  0  0  0  0  0  0  0
  139.4347   66.7308  227.2953 H   0  0  0  0  0  0  0  0  0  0  0  0
  140.7942   67.5392  229.2054 H   0  0  0  0  0  0  0  0  0  0  0  0
  141.6971   69.8449  229.2566 H   0  0  0  0  0  0  0  0  0  0  0  0
  137.9090   70.8693  222.4806 H   0  0  0  0  0  0  0  0  0  0  0  0
  138.6371   72.2437  223.3921 H   0  0  0  0  0  0  0  0  0  0  0  0
  140.5239   70.3018  222.3090 H   0  0  0  0  0  0  0  0  0  0  0  0
  139.4047   70.1272  220.3123 H   0  0  0  0  0  0  0  0  0  0  0  0
  138.5465   71.6786  220.5148 H   0  0  0  0  0  0  0  0  0  0  0  0
  141.5379   71.3896  220.0037 H   0  0  0  0  0  0  0  0  0  0  0  0
  140.2873   71.7317  218.7383 H   0  0  0  0  0  0  0  0  0  0  0  0
  141.5670   73.7368  219.6664 H   0  0  0  0  0  0  0  0  0  0  0  0
  139.7596   73.8243  219.6685 H   0  0  0  0  0  0  0  0  0  0  0  0
  141.4043   74.3455  221.8423 H   0  0  0  0  0  0  0  0  0  0  0  0
  139.6564   73.9437  221.9172 H   0  0  0  0  0  0  0  0  0  0  0  0
  141.9586   71.9367  221.9852 H   0  0  0  0  0  0  0  0  0  0  0  0
  140.9752   72.5093  223.4065 H   0  0  0  0  0  0  0  0  0  0  0  0
  136.2018   71.1661  222.4983 H   0  0  0  0  0  0  0  0  0  0  0  0
  134.9568   72.9105  223.6938 H   0  0  0  0  0  0  0  0  0  0  0  0
  1  2  1  0
  2  3  2  0
  2  4  2  0
  2  5  1  0
  5  6  2  0
  6  7  1  0
  7  8  2  0
  8  9  1  0
  9 10  2  0
 10 11  1  0
 11 12  2  0
 12 13  1  0
 13 14  2  0
 14 15  1  0
 15 16  2  0
 16 17  1  0
 17 18  1  0
 17 19  2  0
 19 20  1  0
 20 21  2  0
 20 22  1  0
 22 23  1  0
 23 24  1  0
 24 25  1  0
 25 26  1  0
 26 27  1  0
 27 28  1  0
 28 29  1  0
  8 30  1  0
 30 31  2  0
 31  5  1  0
 22 11  1  0
 29 24  1  0
 19 13  1  0
  1 32  1  0
  1 33  1  0
  6 34  1  0
  7 35  1  0
  9 36  1  0
 10 37  1  0
 14 38  1  0
 15 39  1  0
 16 40  1  0
 23 41  1  0
 23 42  1  0
 24 43  1  0
 25 44  1  0
 25 45  1  0
 26 46  1  0
 26 47  1  0
 27 48  1  0
 27 49  1  0
 28 50  1  0
 28 51  1  0
 29 52  1  0
 29 53  1  0
 30 54  1  0
 31 55  1  0
M  END
>  <smiles>  (27) 
NS(=O)(=O)c1ccc(/C=C/c2nc3cccc(Cl)c3c(=O)n2CC2CCCCC2)cc1

>  <score_type>  (27) 
oracle

>  <origin>  (27) 
autodockgpu

>  <m_score__min__energy>  (27) 
-9.5

>  <m_primary>  (27) 
energy

>  <rmsd>  (27) 
10.428536005405254

>  <m_score__min__rmsd>  (27) 
10.428536005405254

>  <meeko>  (27) 
{"free_energy": -8.62, "intermolecular_energy": -10.71, "internal_energy": -1.85, "cluster_size": 5, "cluster_id": 5, "rank_in_cluster": 2}

>  <energy>  (27) 
-8.41

>  <cluster_rmsd>  (27) 
0.56

>  <cluster>  (27) 
3

$$$$

     RDKit          3D

 55 58  0  0  0  0  0  0  0  0999 V2000
  146.3820   73.4140  218.8610 N   0  0  0  0  0  0  0  0  0  0  0  0
  145.2210   72.1540  218.7030 S   0  0  0  0  0  0  0  0  0  0  0  0
  145.8930   70.8740  219.1160 O   0  0  0  0  0  0  0  0  0  0  0  0
  144.8890   72.0140  217.2430 O   0  0  0  0  0  0  0  0  0  0  0  0
  143.7900   72.4680  219.6590 C   0  0  0  0  0  0  0  0  0  0  0  0
  143.0200   73.5900  219.4440 C   0  0  0  0  0  0  0  0  0  0  0  0
  141.8940   73.8140  220.2130 C   0  0  0  0  0  0  0  0  0  0  0  0
  141.4770   72.9620  221.2120 C   0  0  0  0  0  0  0  0  0  0  0  0
  140.3060   73.1690  222.0310 C   0  0  0  0  0  0  0  0  0  0  0  0
  139.3940   72.2460  222.2830 C   0  0  0  0  0  0  0  0  0  0  0  0
  139.5370   71.3600  223.4600 C   0  0  0  0  0  0  0  0  0  0  0  0
  140.1060   71.9090  224.5480 N   0  0  0  0  0  0  0  0  0  0  0  0
  140.3040   71.2180  225.6810 C   0  0  0  0  0  0  0  0  0  0  0  0
  140.8950   71.8030  226.7960 C   0  0  0  0  0  0  0  0  0  0  0  0
  141.0640   71.0240  227.9250 C   0  0  0  0  0  0  0  0  0  0  0  0
  140.6680   69.7030  227.9730 C   0  0  0  0  0  0  0  0  0  0  0  0
  140.0780   69.1460  226.8360 C   0  0  0  0  0  0  0  0  0  0  0  0
  139.5530   67.4580  226.8440 Cl  0  0  0  0  0  0  0  0  0  0  0  0
  139.8980   69.9010  225.6950 C   0  0  0  0  0  0  0  0  0  0  0  0
  139.3160   69.3660  224.5600 C   0  0  0  0  0  0  0  0  0  0  0  0
  138.9730   68.1400  224.6590 O   0  0  0  0  0  0  0  0  0  0  0  0
  139.1220   70.0760  223.4300 N   0  0  0  0  0  0  0  0  0  0  0  0
  138.4940   69.5130  222.2770 C   0  0  0  0  0  0  0  0  0  0  0  0
  139.4690   68.6680  221.5130 C   0  0  0  0  0  0  0  0  0  0  0  0
  138.7920   67.4260  220.9460 C   0  0  0  0  0  0  0  0  0  0  0  0
  139.5320   67.0240  219.7070 C   0  0  0  0  0  0  0  0  0  0  0  0
  139.3830   68.0560  218.6110 C   0  0  0  0  0  0  0  0  0  0  0  0
  139.5940   69.4640  219.1470 C   0  0  0  0  0  0  0  0  0  0  0  0
  140.2790   69.3880  220.5000 C   0  0  0  0  0  0  0  0  0  0  0  0
  142.2770   71.8310  221.4080 C   0  0  0  0  0  0  0  0  0  0  0  0
  143.4040   71.5920  220.6500 C   0  0  0  0  0  0  0  0  0  0  0  0
  146.3970   73.9430  217.9640 H   0  0  0  0  0  0  0  0  0  0  0  0
  146.2080   74.0340  219.6810 H   0  0  0  0  0  0  0  0  0  0  0  0
  143.3017   74.3080  218.6597 H   0  0  0  0  0  0  0  0  0  0  0  0
  141.3001   74.7190  220.0174 H   0  0  0  0  0  0  0  0  0  0  0  0
  140.1628   74.1645  222.4764 H   0  0  0  0  0  0  0  0  0  0  0  0
  138.5262   72.1360  221.6160 H   0  0  0  0  0  0  0  0  0  0  0  0
  141.2182   72.8543  226.7797 H   0  0  0  0  0  0  0  0  0  0  0  0
  141.5298   71.4720  228.8151 H   0  0  0  0  0  0  0  0  0  0  0  0
  140.8133   69.1036  228.8838 H   0  0  0  0  0  0  0  0  0  0  0  0
  137.6448   68.8900  222.5943 H   0  0  0  0  0  0  0  0  0  0  0  0
  138.1419   70.3282  221.6277 H   0  0  0  0  0  0  0  0  0  0  0  0
  140.2156   68.3496  222.2554 H   0  0  0  0  0  0  0  0  0  0  0  0
  138.8278   66.6110  221.6838 H   0  0  0  0  0  0  0  0  0  0  0  0
  137.7381   67.6369  220.7117 H   0  0  0  0  0  0  0  0  0  0  0  0
  140.5991   66.9115  219.9490 H   0  0  0  0  0  0  0  0  0  0  0  0
  139.1094   66.0747  219.3461 H   0  0  0  0  0  0  0  0  0  0  0  0
  140.1274   67.8557  217.8263 H   0  0  0  0  0  0  0  0  0  0  0  0
  138.3629   67.9876  218.2053 H   0  0  0  0  0  0  0  0  0  0  0  0
  140.2241   70.0330  218.4475 H   0  0  0  0  0  0  0  0  0  0  0  0
  138.6218   69.9674  219.2538 H   0  0  0  0  0  0  0  0  0  0  0  0
  141.2385   68.8638  220.3795 H   0  0  0  0  0  0  0  0  0  0  0  0
  140.4201   70.4182  220.8589 H   0  0  0  0  0  0  0  0  0  0  0  0
  141.9984   71.1102  222.1909 H   0  0  0  0  0  0  0  0  0  0  0  0
  144.0033   70.6892  220.8392 H   0  0  0  0  0  0  0  0  0  0  0  0
  1  2  1  0
  2  3  2  0
  2  4  2  0
  2  5  1  0
  5  6  2  0
  6  7  1  0
  7  8  2  0
  8  9  1  0
  9 10  2  0
 10 11  1  0
 11 12  2  0
 12 13  1  0
 13 14  2  0
 14 15  1  0
 15 16  2  0
 16 17  1  0
 17 18  1  0
 17 19  2  0
 19 20  1  0
 20 21  2  0
 20 22  1  0
 22 23  1  0
 23 24  1  0
 24 25  1  0
 25 26  1  0
 26 27  1  0
 27 28  1  0
 28 29  1  0
  8 30  1  0
 30 31  2  0
 31  5  1  0
 22 11  1  0
 29 24  1  0
 19 13  1  0
  1 32  1  0
  1 33  1  0
  6 34  1  0
  7 35  1  0
  9 36  1  0
 10 37  1  0
 14 38  1  0
 15 39  1  0
 16 40  1  0
 23 41  1  0
 23 42  1  0
 24 43  1  0
 25 44  1  0
 25 45  1  0
 26 46  1  0
 26 47  1  0
 27 48  1  0
 27 49  1  0
 28 50  1  0
 28 51  1  0
 29 52  1  0
 29 53  1  0
 30 54  1  0
 31 55  1  0
M  END
>  <smiles>  (28) 
NS(=O)(=O)c1ccc(/C=C/c2nc3cccc(Cl)c3c(=O)n2CC2CCCCC2)cc1

>  <score_type>  (28) 
oracle

>  <origin>  (28) 
autodockgpu

>  <m_score__min__energy>  (28) 
-9.5

>  <m_primary>  (28) 
energy

>  <rmsd>  (28) 
10.922995941560123

>  <m_score__min__rmsd>  (28) 
10.922995941560123

>  <meeko>  (28) 
{"free_energy": -8.41, "intermolecular_energy": -10.5, "internal_energy": -1.87, "cluster_size": 13, "cluster_id": 1, "rank_in_cluster": 11}

>  <energy>  (28) 
-8.24

>  <cluster_rmsd>  (28) 
0.67

>  <cluster>  (28) 
3

$$$$

     RDKit          3D

 55 58  0  0  0  0  0  0  0  0999 V2000
  146.8310   73.8110  219.8950 N   0  0  0  0  0  0  0  0  0  0  0  0
  145.5920   72.7860  219.2830 S   0  0  0  0  0  0  0  0  0  0  0  0
  145.9770   71.3730  219.6150 O   0  0  0  0  0  0  0  0  0  0  0  0
  145.6050   72.8950  217.7830 O   0  0  0  0  0  0  0  0  0  0  0  0
  144.0260   73.2000  219.9420 C   0  0  0  0  0  0  0  0  0  0  0  0
  143.0220   72.2620  220.0430 C   0  0  0  0  0  0  0  0  0  0  0  0
  141.7940   72.6150  220.5670 C   0  0  0  0  0  0  0  0  0  0  0  0
  141.4960   73.8850  221.0110 C   0  0  0  0  0  0  0  0  0  0  0  0
  140.2240   74.2830  221.5640 C   0  0  0  0  0  0  0  0  0  0  0  0
  139.5030   75.3040  221.1310 C   0  0  0  0  0  0  0  0  0  0  0  0
  140.0280   76.6830  221.2380 C   0  0  0  0  0  0  0  0  0  0  0  0
  140.6520   76.9920  222.3880 N   0  0  0  0  0  0  0  0  0  0  0  0
  141.1690   78.2080  222.6220 C   0  0  0  0  0  0  0  0  0  0  0  0
  141.8100   78.5090  223.8180 C   0  0  0  0  0  0  0  0  0  0  0  0
  142.3150   79.7840  223.9820 C   0  0  0  0  0  0  0  0  0  0  0  0
  142.2020   80.7510  223.0030 C   0  0  0  0  0  0  0  0  0  0  0  0
  141.5520   80.4170  221.8130 C   0  0  0  0  0  0  0  0  0  0  0  0
  141.3800   81.6180  220.5270 Cl  0  0  0  0  0  0  0  0  0  0  0  0
  141.0380   79.1500  221.6240 C   0  0  0  0  0  0  0  0  0  0  0  0
  140.3920   78.8010  220.4520 C   0  0  0  0  0  0  0  0  0  0  0  0
  140.3120   79.7350  219.5840 O   0  0  0  0  0  0  0  0  0  0  0  0
  139.8790   77.5730  220.2340 N   0  0  0  0  0  0  0  0  0  0  0  0
  139.2390   77.2230  219.0050 C   0  0  0  0  0  0  0  0  0  0  0  0
  140.2620   76.9920  217.9330 C   0  0  0  0  0  0  0  0  0  0  0  0
  140.5170   78.2640  217.1330 C   0  0  0  0  0  0  0  0  0  0  0  0
  141.9200   78.2040  216.6120 C   0  0  0  0  0  0  0  0  0  0  0  0
  142.9330   78.2670  217.7330 C   0  0  0  0  0  0  0  0  0  0  0  0
  142.5520   77.3340  218.8720 C   0  0  0  0  0  0  0  0  0  0  0  0
  141.5160   76.3380  218.3800 C   0  0  0  0  0  0  0  0  0  0  0  0
  142.5330   74.8170  220.8980 C   0  0  0  0  0  0  0  0  0  0  0  0
  143.7650   74.4810  220.3770 C   0  0  0  0  0  0  0  0  0  0  0  0
  147.4120   74.1210  219.0880 H   0  0  0  0  0  0  0  0  0  0  0  0
  146.4640   74.6150  220.4490 H   0  0  0  0  0  0  0  0  0  0  0  0
  143.1988   71.2300  219.7057 H   0  0  0  0  0  0  0  0  0  0  0  0
  141.0136   71.8426  220.6334 H   0  0  0  0  0  0  0  0  0  0  0  0
  139.8259   73.6960  222.4048 H   0  0  0  0  0  0  0  0  0  0  0  0
  138.5107   75.1273  220.6903 H   0  0  0  0  0  0  0  0  0  0  0  0
  141.9121   77.7536  224.6110 H   0  0  0  0  0  0  0  0  0  0  0  0
  142.8240   80.0374  224.9236 H   0  0  0  0  0  0  0  0  0  0  0  0
  142.6137   81.7594  223.1566 H   0  0  0  0  0  0  0  0  0  0  0  0
  138.6519   76.3042  219.1504 H   0  0  0  0  0  0  0  0  0  0  0  0
  138.5787   78.0474  218.6979 H   0  0  0  0  0  0  0  0  0  0  0  0
  139.8111   76.2451  217.2630 H   0  0  0  0  0  0  0  0  0  0  0  0
  139.8086   78.3265  216.2938 H   0  0  0  0  0  0  0  0  0  0  0  0
  140.3809   79.1513  217.7687 H   0  0  0  0  0  0  0  0  0  0  0  0
  142.0560   77.2621  216.0604 H   0  0  0  0  0  0  0  0  0  0  0  0
  142.0802   79.0710  215.9542 H   0  0  0  0  0  0  0  0  0  0  0  0
  143.9186   77.9730  217.3429 H   0  0  0  0  0  0  0  0  0  0  0  0
  142.9602   79.2962  218.1203 H   0  0  0  0  0  0  0  0  0  0  0  0
  143.4452   76.7939  219.2190 H   0  0  0  0  0  0  0  0  0  0  0  0
  142.1340   77.9197  219.7040 H   0  0  0  0  0  0  0  0  0  0  0  0
  141.9409   75.7764  217.5349 H   0  0  0  0  0  0  0  0  0  0  0  0
  141.2644   75.6763  219.2219 H   0  0  0  0  0  0  0  0  0  0  0  0
  142.3605   75.8498  221.2351 H   0  0  0  0  0  0  0  0  0  0  0  0
  144.5511   75.2473  220.3077 H   0  0  0  0  0  0  0  0  0  0  0  0
  1  2  1  0
  2  3  2  0
  2  4  2  0
  2  5  1  0
  5  6  2  0
  6  7  1  0
  7  8  2  0
  8  9  1  0
  9 10  2  0
 10 11  1  0
 11 12  2  0
 12 13  1  0
 13 14  2  0
 14 15  1  0
 15 16  2  0
 16 17  1  0
 17 18  1  0
 17 19  2  0
 19 20  1  0
 20 21  2  0
 20 22  1  0
 22 23  1  0
 23 24  1  0
 24 25  1  0
 25 26  1  0
 26 27  1  0
 27 28  1  0
 28 29  1  0
  8 30  1  0
 30 31  2  0
 31  5  1  0
 22 11  1  0
 29 24  1  0
 19 13  1  0
  1 32  1  0
  1 33  1  0
  6 34  1  0
  7 35  1  0
  9 36  1  0
 10 37  1  0
 14 38  1  0
 15 39  1  0
 16 40  1  0
 23 41  1  0
 23 42  1  0
 24 43  1  0
 25 44  1  0
 25 45  1  0
 26 46  1  0
 26 47  1  0
 27 48  1  0
 27 49  1  0
 28 50  1  0
 28 51  1  0
 29 52  1  0
 29 53  1  0
 30 54  1  0
 31 55  1  0
M  END
>  <smiles>  (29) 
NS(=O)(=O)c1ccc(/C=C/c2nc3cccc(Cl)c3c(=O)n2CC2CCCCC2)cc1

>  <score_type>  (29) 
oracle

>  <origin>  (29) 
autodockgpu

>  <m_score__min__energy>  (29) 
-9.5

>  <m_primary>  (29) 
energy

>  <rmsd>  (29) 
4.0756542642658555

>  <m_score__min__rmsd>  (29) 
4.0756542642658555

>  <meeko>  (29) 
{"free_energy": -7.58, "intermolecular_energy": -9.67, "internal_energy": -2.3, "cluster_size": 4, "cluster_id": 9, "rank_in_cluster": 4}

>  <energy>  (29) 
-8.75

>  <cluster_rmsd>  (29) 
0.0

>  <cluster>  (29) 
4

$$$$

     RDKit          3D

 55 58  0  0  0  0  0  0  0  0999 V2000
  142.1990   78.5410  221.0900 N   0  0  0  0  0  0  0  0  0  0  0  0
  141.0590   78.2370  222.3420 S   0  0  0  0  0  0  0  0  0  0  0  0
  140.0130   79.3140  222.2650 O   0  0  0  0  0  0  0  0  0  0  0  0
  141.7640   78.4150  223.6590 O   0  0  0  0  0  0  0  0  0  0  0  0
  140.3540   76.6430  222.2040 C   0  0  0  0  0  0  0  0  0  0  0  0
  141.1230   75.5470  221.8780 C   0  0  0  0  0  0  0  0  0  0  0  0
  140.5410   74.2980  221.7750 C   0  0  0  0  0  0  0  0  0  0  0  0
  139.1990   74.0680  221.9840 C   0  0  0  0  0  0  0  0  0  0  0  0
  138.5630   72.7760  221.8840 C   0  0  0  0  0  0  0  0  0  0  0  0
  139.1910   71.6190  222.0140 C   0  0  0  0  0  0  0  0  0  0  0  0
  139.4350   71.0520  223.3590 C   0  0  0  0  0  0  0  0  0  0  0  0
  140.1200   71.8310  224.2140 N   0  0  0  0  0  0  0  0  0  0  0  0
  140.4180   71.4400  225.4630 C   0  0  0  0  0  0  0  0  0  0  0  0
  141.1270   72.2600  226.3340 C   0  0  0  0  0  0  0  0  0  0  0  0
  141.3940   71.7830  227.6020 C   0  0  0  0  0  0  0  0  0  0  0  0
  140.9800   70.5350  228.0220 C   0  0  0  0  0  0  0  0  0  0  0  0
  140.2690   69.7360  227.1230 C   0  0  0  0  0  0  0  0  0  0  0  0
  139.7160   68.1290  227.6090 Cl  0  0  0  0  0  0  0  0  0  0  0  0
  139.9900   70.1870  225.8490 C   0  0  0  0  0  0  0  0  0  0  0  0
  139.2870   69.4110  224.9470 C   0  0  0  0  0  0  0  0  0  0  0  0
  138.9330   68.2640  225.3850 O   0  0  0  0  0  0  0  0  0  0  0  0
  138.9950   69.8210  223.6950 N   0  0  0  0  0  0  0  0  0  0  0  0
  138.2440   69.0140  222.7860 C   0  0  0  0  0  0  0  0  0  0  0  0
  136.8140   69.4610  222.7530 C   0  0  0  0  0  0  0  0  0  0  0  0
  135.8670   68.2680  222.6830 C   0  0  0  0  0  0  0  0  0  0  0  0
  134.5750   68.6690  223.3250 C   0  0  0  0  0  0  0  0  0  0  0  0
  134.7440   68.9160  224.8080 C   0  0  0  0  0  0  0  0  0  0  0  0
  135.9760   69.7630  225.0890 C   0  0  0  0  0  0  0  0  0  0  0  0
  136.4260   70.4350  223.8030 C   0  0  0  0  0  0  0  0  0  0  0  0
  138.4420   75.1970  222.3140 C   0  0  0  0  0  0  0  0  0  0  0  0
  139.0070   76.4510  222.4200 C   0  0  0  0  0  0  0  0  0  0  0  0
  142.6530   79.4550  221.2920 H   0  0  0  0  0  0  0  0  0  0  0  0
  142.8930   77.7720  220.9700 H   0  0  0  0  0  0  0  0  0  0  0  0
  142.2018   75.6666  221.6995 H   0  0  0  0  0  0  0  0  0  0  0  0
  141.1822   73.4436  221.5126 H   0  0  0  0  0  0  0  0  0  0  0  0
  137.4812   72.7519  221.6860 H   0  0  0  0  0  0  0  0  0  0  0  0
  139.5327   71.0769  221.1200 H   0  0  0  0  0  0  0  0  0  0  0  0
  141.4652   73.2592  226.0221 H   0  0  0  0  0  0  0  0  0  0  0  0
  141.9559   72.4194  228.3015 H   0  0  0  0  0  0  0  0  0  0  0  0
  141.2041   70.1787  229.0383 H   0  0  0  0  0  0  0  0  0  0  0  0
  138.6759   69.1046  221.7784 H   0  0  0  0  0  0  0  0  0  0  0  0
  138.2839   67.9668  223.1203 H   0  0  0  0  0  0  0  0  0  0  0  0
  136.7164   70.0387  221.8220 H   0  0  0  0  0  0  0  0  0  0  0  0
  135.6925   67.9902  221.6331 H   0  0  0  0  0  0  0  0  0  0  0  0
  136.3017   67.4021  223.2039 H   0  0  0  0  0  0  0  0  0  0  0  0
  134.2106   69.5911  222.8486 H   0  0  0  0  0  0  0  0  0  0  0  0
  133.8551   67.8479  223.1925 H   0  0  0  0  0  0  0  0  0  0  0  0
  133.8545   69.4398  225.1879 H   0  0  0  0  0  0  0  0  0  0  0  0
  134.8674   67.9452  225.3104 H   0  0  0  0  0  0  0  0  0  0  0  0
  135.7316   70.5301  225.8386 H   0  0  0  0  0  0  0  0  0  0  0  0
  136.7840   69.1230  225.4731 H   0  0  0  0  0  0  0  0  0  0  0  0
  135.6001   71.0533  223.4215 H   0  0  0  0  0  0  0  0  0  0  0  0
  137.3133   71.0412  224.0379 H   0  0  0  0  0  0  0  0  0  0  0  0
  137.3631   75.0814  222.4945 H   0  0  0  0  0  0  0  0  0  0  0  0
  138.3724   77.3107  222.6810 H   0  0  0  0  0  0  0  0  0  0  0  0
  1  2  1  0
  2  3  2  0
  2  4  2  0
  2  5  1  0
  5  6  2  0
  6  7  1  0
  7  8  2  0
  8  9  1  0
  9 10  2  0
 10 11  1  0
 11 12  2  0
 12 13  1  0
 13 14  2  0
 14 15  1  0
 15 16  2  0
 16 17  1  0
 17 18  1  0
 17 19  2  0
 19 20  1  0
 20 21  2  0
 20 22  1  0
 22 23  1  0
 23 24  1  0
 24 25  1  0
 25 26  1  0
 26 27  1  0
 27 28  1  0
 28 29  1  0
  8 30  1  0
 30 31  2  0
 31  5  1  0
 22 11  1  0
 29 24  1  0
 19 13  1  0
  1 32  1  0
  1 33  1  0
  6 34  1  0
  7 35  1  0
  9 36  1  0
 10 37  1  0
 14 38  1  0
 15 39  1  0
 16 40  1  0
 23 41  1  0
 23 42  1  0
 24 43  1  0
 25 44  1  0
 25 45  1  0
 26 46  1  0
 26 47  1  0
 27 48  1  0
 27 49  1  0
 28 50  1  0
 28 51  1  0
 29 52  1  0
 29 53  1  0
 30 54  1  0
 31 55  1  0
M  END
>  <smiles>  (30) 
NS(=O)(=O)c1ccc(/C=C/c2nc3cccc(Cl)c3c(=O)n2CC2CCCCC2)cc1

>  <score_type>  (30) 
oracle

>  <origin>  (30) 
autodockgpu

>  <m_score__min__energy>  (30) 
-9.5

>  <m_primary>  (30) 
energy

>  <rmsd>  (30) 
11.243151348102055

>  <m_score__min__rmsd>  (30) 
11.243151348102055

>  <meeko>  (30) 
{"free_energy": -8.71, "intermolecular_energy": -10.8, "internal_energy": -1.73, "cluster_size": 11, "cluster_id": 3, "rank_in_cluster": 7}

>  <energy>  (30) 
-8.54

>  <cluster_rmsd>  (30) 
1.02

>  <cluster>  (30) 
4

$$$$

     RDKit          3D

 55 58  0  0  0  0  0  0  0  0999 V2000
  145.8780   73.3590  218.0270 N   0  0  0  0  0  0  0  0  0  0  0  0
  145.8140   72.8870  219.6810 S   0  0  0  0  0  0  0  0  0  0  0  0
  146.7710   73.7670  220.4340 O   0  0  0  0  0  0  0  0  0  0  0  0
  146.3480   71.4850  219.7800 O   0  0  0  0  0  0  0  0  0  0  0  0
  144.1910   73.0020  220.3230 C   0  0  0  0  0  0  0  0  0  0  0  0
  143.5300   74.2080  220.3860 C   0  0  0  0  0  0  0  0  0  0  0  0
  142.2480   74.2710  220.8980 C   0  0  0  0  0  0  0  0  0  0  0  0
  141.5650   73.1700  221.3650 C   0  0  0  0  0  0  0  0  0  0  0  0
  140.2270   73.2040  221.9050 C   0  0  0  0  0  0  0  0  0  0  0  0
  139.4550   72.1410  222.0670 C   0  0  0  0  0  0  0  0  0  0  0  0
  139.5890   71.3030  223.2790 C   0  0  0  0  0  0  0  0  0  0  0  0
  140.1670   71.8890  224.3430 N   0  0  0  0  0  0  0  0  0  0  0  0
  140.3580   71.2430  225.5040 C   0  0  0  0  0  0  0  0  0  0  0  0
  140.9570   71.8650  226.5930 C   0  0  0  0  0  0  0  0  0  0  0  0
  141.1180   71.1320  227.7520 C   0  0  0  0  0  0  0  0  0  0  0  0
  140.7050   69.8190  227.8550 C   0  0  0  0  0  0  0  0  0  0  0  0
  140.1070   69.2230  226.7430 C   0  0  0  0  0  0  0  0  0  0  0  0
  139.5590   67.5440  226.8210 Cl  0  0  0  0  0  0  0  0  0  0  0  0
  139.9340   69.9330  225.5720 C   0  0  0  0  0  0  0  0  0  0  0  0
  139.3430   69.3600  224.4610 C   0  0  0  0  0  0  0  0  0  0  0  0
  138.9850   68.1430  224.6100 O   0  0  0  0  0  0  0  0  0  0  0  0
  139.1580   70.0250  223.3020 N   0  0  0  0  0  0  0  0  0  0  0  0
  138.5210   69.4230  222.1740 C   0  0  0  0  0  0  0  0  0  0  0  0
  137.0320   69.5710  222.2760 C   0  0  0  0  0  0  0  0  0  0  0  0
  136.4470   68.5680  223.2630 C   0  0  0  0  0  0  0  0  0  0  0  0
  135.1970   69.1620  223.8360 C   0  0  0  0  0  0  0  0  0  0  0  0
  135.4980   70.3780  224.6840 C   0  0  0  0  0  0  0  0  0  0  0  0
  136.4790   71.3070  223.9870 C   0  0  0  0  0  0  0  0  0  0  0  0
  136.5450   70.9520  222.5110 C   0  0  0  0  0  0  0  0  0  0  0  0
  142.2590   71.9570  221.2900 C   0  0  0  0  0  0  0  0  0  0  0  0
  143.5380   71.8780  220.7810 C   0  0  0  0  0  0  0  0  0  0  0  0
  145.0590   72.9340  217.5460 H   0  0  0  0  0  0  0  0  0  0  0  0
  145.9210   74.3930  217.8960 H   0  0  0  0  0  0  0  0  0  0  0  0
  144.0235   75.1236  220.0280 H   0  0  0  0  0  0  0  0  0  0  0  0
  141.7477   75.2500  220.9344 H   0  0  0  0  0  0  0  0  0  0  0  0
  139.8203   74.1817  222.2028 H   0  0  0  0  0  0  0  0  0  0  0  0
  138.7122   71.8801  221.2988 H   0  0  0  0  0  0  0  0  0  0  0  0
  141.2930   72.9107  226.5333 H   0  0  0  0  0  0  0  0  0  0  0  0
  141.5911   71.6104  228.6222 H   0  0  0  0  0  0  0  0  0  0  0  0
  140.8436   69.2562  228.7899 H   0  0  0  0  0  0  0  0  0  0  0  0
  138.8722   69.9138  221.2543 H   0  0  0  0  0  0  0  0  0  0  0  0
  138.7731   68.3525  222.1501 H   0  0  0  0  0  0  0  0  0  0  0  0
  136.6504   69.3339  221.2720 H   0  0  0  0  0  0  0  0  0  0  0  0
  136.2101   67.6275  222.7440 H   0  0  0  0  0  0  0  0  0  0  0  0
  137.1701   68.3512  224.0631 H   0  0  0  0  0  0  0  0  0  0  0  0
  134.5313   69.4573  223.0116 H   0  0  0  0  0  0  0  0  0  0  0  0
  134.7178   68.4060  224.4753 H   0  0  0  0  0  0  0  0  0  0  0  0
  134.5617   70.9230  224.8745 H   0  0  0  0  0  0  0  0  0  0  0  0
  135.9500   70.0402  225.6282 H   0  0  0  0  0  0  0  0  0  0  0  0
  136.1425   72.3482  224.0998 H   0  0  0  0  0  0  0  0  0  0  0  0
  137.4761   71.1951  224.4378 H   0  0  0  0  0  0  0  0  0  0  0  0
  135.5373   71.0479  222.0805 H   0  0  0  0  0  0  0  0  0  0  0  0
  137.2578   71.6413  222.0349 H   0  0  0  0  0  0  0  0  0  0  0  0
  141.7695   71.0392  221.6478 H   0  0  0  0  0  0  0  0  0  0  0  0
  144.0451   70.9027  220.7398 H   0  0  0  0  0  0  0  0  0  0  0  0
  1  2  1  0
  2  3  2  0
  2  4  2  0
  2  5  1  0
  5  6  2  0
  6  7  1  0
  7  8  2  0
  8  9  1  0
  9 10  2  0
 10 11  1  0
 11 12  2  0
 12 13  1  0
 13 14  2  0
 14 15  1  0
 15 16  2  0
 16 17  1  0
 17 18  1  0
 17 19  2  0
 19 20  1  0
 20 21  2  0
 20 22  1  0
 22 23  1  0
 23 24  1  0
 24 25  1  0
 25 26  1  0
 26 27  1  0
 27 28  1  0
 28 29  1  0
  8 30  1  0
 30 31  2  0
 31  5  1  0
 22 11  1  0
 29 24  1  0
 19 13  1  0
  1 32  1  0
  1 33  1  0
  6 34  1  0
  7 35  1  0
  9 36  1  0
 10 37  1  0
 14 38  1  0
 15 39  1  0
 16 40  1  0
 23 41  1  0
 23 42  1  0
 24 43  1  0
 25 44  1  0
 25 45  1  0
 26 46  1  0
 26 47  1  0
 27 48  1  0
 27 49  1  0
 28 50  1  0
 28 51  1  0
 29 52  1  0
 29 53  1  0
 30 54  1  0
 31 55  1  0
M  END
>  <smiles>  (31) 
NS(=O)(=O)c1ccc(/C=C/c2nc3cccc(Cl)c3c(=O)n2CC2CCCCC2)cc1

>  <score_type>  (31) 
oracle

>  <origin>  (31) 
autodockgpu

>  <m_score__min__energy>  (31) 
-9.5

>  <m_primary>  (31) 
energy

>  <rmsd>  (31) 
11.222835490860547

>  <m_score__min__rmsd>  (31) 
11.222835490860547

>  <meeko>  (31) 
{"free_energy": -9.42, "intermolecular_energy": -11.51, "internal_energy": -1.77, "cluster_size": 13, "cluster_id": 1, "rank_in_cluster": 2}

>  <energy>  (31) 
-8.38

>  <cluster_rmsd>  (31) 
1.31

>  <cluster>  (31) 
4

$$$$

     RDKit          3D

 55 58  0  0  0  0  0  0  0  0999 V2000
  146.2100   73.3010  219.1050 N   0  0  0  0  0  0  0  0  0  0  0  0
  145.5110   73.6360  220.6410 S   0  0  0  0  0  0  0  0  0  0  0  0
  145.5720   75.1230  220.8450 O   0  0  0  0  0  0  0  0  0  0  0  0
  146.3930   73.0210  221.6920 O   0  0  0  0  0  0  0  0  0  0  0  0
  143.8710   73.0370  220.7500 C   0  0  0  0  0  0  0  0  0  0  0  0
  143.6020   71.6860  220.7370 C   0  0  0  0  0  0  0  0  0  0  0  0
  142.2970   71.2400  220.8250 C   0  0  0  0  0  0  0  0  0  0  0  0
  141.2130   72.0830  220.9280 C   0  0  0  0  0  0  0  0  0  0  0  0
  139.8400   71.6470  221.0220 C   0  0  0  0  0  0  0  0  0  0  0  0
  139.0570   71.8500  222.0690 C   0  0  0  0  0  0  0  0  0  0  0  0
  139.3160   71.1400  223.3410 C   0  0  0  0  0  0  0  0  0  0  0  0
  140.0040   71.8250  224.2710 N   0  0  0  0  0  0  0  0  0  0  0  0
  140.3150   71.2990  225.4670 C   0  0  0  0  0  0  0  0  0  0  0  0
  141.0280   72.0230  226.4160 C   0  0  0  0  0  0  0  0  0  0  0  0
  141.3090   71.4110  227.6230 C   0  0  0  0  0  0  0  0  0  0  0  0
  140.9050   70.1210  227.9050 C   0  0  0  0  0  0  0  0  0  0  0  0
  140.1910   69.4220  226.9290 C   0  0  0  0  0  0  0  0  0  0  0  0
  139.6510   67.7670  227.2390 Cl  0  0  0  0  0  0  0  0  0  0  0  0
  139.8980   70.0090  225.7150 C   0  0  0  0  0  0  0  0  0  0  0  0
  139.1910   69.3320  224.7380 C   0  0  0  0  0  0  0  0  0  0  0  0
  138.8480   68.1420  225.0500 O   0  0  0  0  0  0  0  0  0  0  0  0
  138.8860   69.8770  223.5420 N   0  0  0  0  0  0  0  0  0  0  0  0
  138.1320   69.1700  222.5560 C   0  0  0  0  0  0  0  0  0  0  0  0
  136.6630   69.3700  222.7820 C   0  0  0  0  0  0  0  0  0  0  0  0
  136.2800   69.0430  224.2200 C   0  0  0  0  0  0  0  0  0  0  0  0
  135.0790   69.8660  224.5740 C   0  0  0  0  0  0  0  0  0  0  0  0
  135.4090   71.3420  224.6090 C   0  0  0  0  0  0  0  0  0  0  0  0
  136.2260   71.7530  223.3950 C   0  0  0  0  0  0  0  0  0  0  0  0
  136.1210   70.6750  222.3300 C   0  0  0  0  0  0  0  0  0  0  0  0
  141.5150   73.4490  220.9390 C   0  0  0  0  0  0  0  0  0  0  0  0
  142.8120   73.9120  220.8530 C   0  0  0  0  0  0  0  0  0  0  0  0
  145.4630   72.9060  218.4970 H   0  0  0  0  0  0  0  0  0  0  0  0
  146.6720   74.1310  218.6730 H   0  0  0  0  0  0  0  0  0  0  0  0
  144.4262   70.9620  220.6565 H   0  0  0  0  0  0  0  0  0  0  0  0
  142.1147   70.1553  220.8121 H   0  0  0  0  0  0  0  0  0  0  0  0
  139.4148   71.1080  220.1625 H   0  0  0  0  0  0  0  0  0  0  0  0
  138.2108   72.5488  221.9936 H   0  0  0  0  0  0  0  0  0  0  0  0
  141.3586   73.0522  226.2123 H   0  0  0  0  0  0  0  0  0  0  0  0
  141.8731   71.9700  228.3841 H   0  0  0  0  0  0  0  0  0  0  0  0
  141.1395   69.6557  228.8737 H   0  0  0  0  0  0  0  0  0  0  0  0
  138.3998   69.5445  221.5570 H   0  0  0  0  0  0  0  0  0  0  0  0
  138.3627   68.0970  222.6305 H   0  0  0  0  0  0  0  0  0  0  0  0
  136.1690   68.6462  222.1170 H   0  0  0  0  0  0  0  0  0  0  0  0
  136.0397   67.9733  224.3090 H   0  0  0  0  0  0  0  0  0  0  0  0
  137.1143   69.2694  224.9002 H   0  0  0  0  0  0  0  0  0  0  0  0
  134.2934   69.6931  223.8237 H   0  0  0  0  0  0  0  0  0  0  0  0
  134.7373   69.5649  225.5753 H   0  0  0  0  0  0  0  0  0  0  0  0
  134.4723   71.9186  224.6227 H   0  0  0  0  0  0  0  0  0  0  0  0
  136.0030   71.5441  225.5125 H   0  0  0  0  0  0  0  0  0  0  0  0
  135.8391   72.7023  222.9961 H   0  0  0  0  0  0  0  0  0  0  0  0
  137.2789   71.8816  223.6862 H   0  0  0  0  0  0  0  0  0  0  0  0
  135.0614   70.5435  222.0654 H   0  0  0  0  0  0  0  0  0  0  0  0
  136.7181   71.0018  221.4659 H   0  0  0  0  0  0  0  0  0  0  0  0
  140.6934   74.1761  221.0186 H   0  0  0  0  0  0  0  0  0  0  0  0
  143.0030   74.9952  220.8669 H   0  0  0  0  0  0  0  0  0  0  0  0
  1  2  1  0
  2  3  2  0
  2  4  2  0
  2  5  1  0
  5  6  2  0
  6  7  1  0
  7  8  2  0
  8  9  1  0
  9 10  2  0
 10 11  1  0
 11 12  2  0
 12 13  1  0
 13 14  2  0
 14 15  1  0
 15 16  2  0
 16 17  1  0
 17 18  1  0
 17 19  2  0
 19 20  1  0
 20 21  2  0
 20 22  1  0
 22 23  1  0
 23 24  1  0
 24 25  1  0
 25 26  1  0
 26 27  1  0
 27 28  1  0
 28 29  1  0
  8 30  1  0
 30 31  2  0
 31  5  1  0
 22 11  1  0
 29 24  1  0
 19 13  1  0
  1 32  1  0
  1 33  1  0
  6 34  1  0
  7 35  1  0
  9 36  1  0
 10 37  1  0
 14 38  1  0
 15 39  1  0
 16 40  1  0
 23 41  1  0
 23 42  1  0
 24 43  1  0
 25 44  1  0
 25 45  1  0
 26 46  1  0
 26 47  1  0
 27 48  1  0
 27 49  1  0
 28 50  1  0
 28 51  1  0
 29 52  1  0
 29 53  1  0
 30 54  1  0
 31 55  1  0
M  END
>  <smiles>  (32) 
NS(=O)(=O)c1ccc(/C=C/c2nc3cccc(Cl)c3c(=O)n2CC2CCCCC2)cc1

>  <score_type>  (32) 
oracle

>  <origin>  (32) 
autodockgpu

>  <m_score__min__energy>  (32) 
-9.5

>  <m_primary>  (32) 
energy

>  <rmsd>  (32) 
11.20491920754391

>  <m_score__min__rmsd>  (32) 
11.20491920754391

>  <meeko>  (32) 
{"free_energy": -8.89, "intermolecular_energy": -10.98, "internal_energy": -1.64, "cluster_size": 13, "cluster_id": 1, "rank_in_cluster": 8}

>  <energy>  (32) 
-8.27

>  <cluster_rmsd>  (32) 
1.02

>  <cluster>  (32) 
4

$$$$

     RDKit          3D

 55 58  0  0  0  0  0  0  0  0999 V2000
  146.3930   71.0160  219.7210 N   0  0  0  0  0  0  0  0  0  0  0  0
  145.3710   72.1270  218.8950 S   0  0  0  0  0  0  0  0  0  0  0  0
  145.0670   71.5370  217.5470 O   0  0  0  0  0  0  0  0  0  0  0  0
  146.1600   73.3820  218.6470 O   0  0  0  0  0  0  0  0  0  0  0  0
  143.9100   72.4570  219.7990 C   0  0  0  0  0  0  0  0  0  0  0  0
  143.5470   73.7440  220.1250 C   0  0  0  0  0  0  0  0  0  0  0  0
  142.3880   73.9770  220.8400 C   0  0  0  0  0  0  0  0  0  0  0  0
  141.5430   72.9740  221.2610 C   0  0  0  0  0  0  0  0  0  0  0  0
  140.3260   73.1860  222.0070 C   0  0  0  0  0  0  0  0  0  0  0  0
  139.4240   72.2510  222.2550 C   0  0  0  0  0  0  0  0  0  0  0  0
  139.5680   71.3720  223.4360 C   0  0  0  0  0  0  0  0  0  0  0  0
  140.1420   71.9260  224.5190 N   0  0  0  0  0  0  0  0  0  0  0  0
  140.3410   71.2410  225.6560 C   0  0  0  0  0  0  0  0  0  0  0  0
  140.9360   71.8300  226.7660 C   0  0  0  0  0  0  0  0  0  0  0  0
  141.1060   71.0580  227.8990 C   0  0  0  0  0  0  0  0  0  0  0  0
  140.7060   69.7380  227.9560 C   0  0  0  0  0  0  0  0  0  0  0  0
  140.1120   69.1760  226.8240 C   0  0  0  0  0  0  0  0  0  0  0  0
  139.5820   67.4900  226.8440 Cl  0  0  0  0  0  0  0  0  0  0  0  0
  139.9310   69.9250  225.6790 C   0  0  0  0  0  0  0  0  0  0  0  0
  139.3440   69.3850  224.5490 C   0  0  0  0  0  0  0  0  0  0  0  0
  138.9980   68.1600  224.6560 O   0  0  0  0  0  0  0  0  0  0  0  0
  139.1500   70.0890  223.4150 N   0  0  0  0  0  0  0  0  0  0  0  0
  138.5170   69.5210  222.2670 C   0  0  0  0  0  0  0  0  0  0  0  0
  137.0280   69.6700  222.3660 C   0  0  0  0  0  0  0  0  0  0  0  0
  136.4790   68.9120  223.5690 C   0  0  0  0  0  0  0  0  0  0  0  0
  135.2300   69.6060  224.0180 C   0  0  0  0  0  0  0  0  0  0  0  0
  135.5260   70.9870  224.5590 C   0  0  0  0  0  0  0  0  0  0  0  0
  136.4770   71.7440  223.6460 C   0  0  0  0  0  0  0  0  0  0  0  0
  136.5210   71.0620  222.2900 C   0  0  0  0  0  0  0  0  0  0  0  0
  141.9350   71.6760  220.9160 C   0  0  0  0  0  0  0  0  0  0  0  0
  143.0890   71.4270  220.2030 C   0  0  0  0  0  0  0  0  0  0  0  0
  146.5360   71.3770  220.6870 H   0  0  0  0  0  0  0  0  0  0  0  0
  146.0300   70.0390  219.7140 H   0  0  0  0  0  0  0  0  0  0  0  0
  144.1806   74.5883  219.8158 H   0  0  0  0  0  0  0  0  0  0  0  0
  142.1266   75.0169  221.0857 H   0  0  0  0  0  0  0  0  0  0  0  0
  140.1350   74.1967  222.3970 H   0  0  0  0  0  0  0  0  0  0  0  0
  138.5638   72.1266  221.5807 H   0  0  0  0  0  0  0  0  0  0  0  0
  141.2620   72.8803  226.7428 H   0  0  0  0  0  0  0  0  0  0  0  0
  141.5756   71.5101  228.7850 H   0  0  0  0  0  0  0  0  0  0  0  0
  140.8515   69.1438  228.8702 H   0  0  0  0  0  0  0  0  0  0  0  0
  138.8739   70.0369  221.3634 H   0  0  0  0  0  0  0  0  0  0  0  0
  138.7666   68.4510  222.2137 H   0  0  0  0  0  0  0  0  0  0  0  0
  136.6320   69.2048  221.4512 H   0  0  0  0  0  0  0  0  0  0  0  0
  136.2487   67.8748  223.2842 H   0  0  0  0  0  0  0  0  0  0  0  0
  137.2204   68.8928  224.3813 H   0  0  0  0  0  0  0  0  0  0  0  0
  134.5445   69.6968  223.1625 H   0  0  0  0  0  0  0  0  0  0  0  0
  134.7752   69.0105  224.8233 H   0  0  0  0  0  0  0  0  0  0  0  0
  134.5842   71.5493  224.6414 H   0  0  0  0  0  0  0  0  0  0  0  0
  136.0018   70.8798  225.5450 H   0  0  0  0  0  0  0  0  0  0  0  0
  136.1246   72.7790  223.5254 H   0  0  0  0  0  0  0  0  0  0  0  0
  137.4844   71.7508  224.0877 H   0  0  0  0  0  0  0  0  0  0  0  0
  135.5037   71.0438  221.8720 H   0  0  0  0  0  0  0  0  0  0  0  0
  137.2122   71.6332  221.6528 H   0  0  0  0  0  0  0  0  0  0  0  0
  141.3039   70.8288  221.2226 H   0  0  0  0  0  0  0  0  0  0  0  0
  143.3581   70.3901  219.9531 H   0  0  0  0  0  0  0  0  0  0  0  0
  1  2  1  0
  2  3  2  0
  2  4  2  0
  2  5  1  0
  5  6  2  0
  6  7  1  0
  7  8  2  0
  8  9  1  0
  9 10  2  0
 10 11  1  0
 11 12  2  0
 12 13  1  0
 13 14  2  0
 14 15  1  0
 15 16  2  0
 16 17  1  0
 17 18  1  0
 17 19  2  0
 19 20  1  0
 20 21  2  0
 20 22  1  0
 22 23  1  0
 23 24  1  0
 24 25  1  0
 25 26  1  0
 26 27  1  0
 27 28  1  0
 28 29  1  0
  8 30  1  0
 30 31  2  0
 31  5  1  0
 22 11  1  0
 29 24  1  0
 19 13  1  0
  1 32  1  0
  1 33  1  0
  6 34  1  0
  7 35  1  0
  9 36  1  0
 10 37  1  0
 14 38  1  0
 15 39  1  0
 16 40  1  0
 23 41  1  0
 23 42  1  0
 24 43  1  0
 25 44  1  0
 25 45  1  0
 26 46  1  0
 26 47  1  0
 27 48  1  0
 27 49  1  0
 28 50  1  0
 28 51  1  0
 29 52  1  0
 29 53  1  0
 30 54  1  0
 31 55  1  0
M  END
>  <smiles>  (33) 
NS(=O)(=O)c1ccc(/C=C/c2nc3cccc(Cl)c3c(=O)n2CC2CCCCC2)cc1

>  <score_type>  (33) 
oracle

>  <origin>  (33) 
autodockgpu

>  <m_score__min__energy>  (33) 
-9.5

>  <m_primary>  (33) 
energy

>  <rmsd>  (33) 
11.195116818496247

>  <m_score__min__rmsd>  (33) 
11.195116818496247

>  <meeko>  (33) 
{"free_energy": -8.55, "intermolecular_energy": -10.63, "internal_energy": -1.65, "cluster_size": 13, "cluster_id": 1, "rank_in_cluster": 10}

>  <energy>  (33) 
-8.69

>  <cluster_rmsd>  (33) 
0.0

>  <cluster>  (33) 
5

$$$$

     RDKit          3D

 55 58  0  0  0  0  0  0  0  0999 V2000
  145.8770   73.3980  217.9730 N   0  0  0  0  0  0  0  0  0  0  0  0
  145.8300   72.9240  219.6260 S   0  0  0  0  0  0  0  0  0  0  0  0
  146.7890   73.8090  220.3720 O   0  0  0  0  0  0  0  0  0  0  0  0
  146.3730   71.5250  219.7200 O   0  0  0  0  0  0  0  0  0  0  0  0
  144.2120   73.0280  220.2830 C   0  0  0  0  0  0  0  0  0  0  0  0
  143.5480   74.2320  220.3590 C   0  0  0  0  0  0  0  0  0  0  0  0
  142.2700   74.2870  220.8820 C   0  0  0  0  0  0  0  0  0  0  0  0
  141.5950   73.1800  221.3480 C   0  0  0  0  0  0  0  0  0  0  0  0
  140.2610   73.2060  221.8990 C   0  0  0  0  0  0  0  0  0  0  0  0
  139.4940   72.1400  222.0580 C   0  0  0  0  0  0  0  0  0  0  0  0
  139.6220   71.3060  223.2730 C   0  0  0  0  0  0  0  0  0  0  0  0
  140.1810   71.9000  224.3420 N   0  0  0  0  0  0  0  0  0  0  0  0
  140.3660   71.2580  225.5070 C   0  0  0  0  0  0  0  0  0  0  0  0
  140.9460   71.8890  226.6010 C   0  0  0  0  0  0  0  0  0  0  0  0
  141.1010   71.1600  227.7640 C   0  0  0  0  0  0  0  0  0  0  0  0
  140.7000   69.8430  227.8660 C   0  0  0  0  0  0  0  0  0  0  0  0
  140.1210   69.2380  226.7480 C   0  0  0  0  0  0  0  0  0  0  0  0
  139.5890   67.5540  226.8240 Cl  0  0  0  0  0  0  0  0  0  0  0  0
  139.9540   69.9440  225.5730 C   0  0  0  0  0  0  0  0  0  0  0  0
  139.3820   69.3620  224.4570 C   0  0  0  0  0  0  0  0  0  0  0  0
  139.0350   68.1420  224.6050 O   0  0  0  0  0  0  0  0  0  0  0  0
  139.2030   70.0230  223.2950 N   0  0  0  0  0  0  0  0  0  0  0  0
  138.5850   69.4120  222.1610 C   0  0  0  0  0  0  0  0  0  0  0  0
  137.0960   69.5700  222.2310 C   0  0  0  0  0  0  0  0  0  0  0  0
  136.4250   68.2670  222.6500 C   0  0  0  0  0  0  0  0  0  0  0  0
  135.1470   68.6130  223.3510 C   0  0  0  0  0  0  0  0  0  0  0  0
  135.4070   69.3270  224.6590 C   0  0  0  0  0  0  0  0  0  0  0  0
  136.4500   70.4210  224.4910 C   0  0  0  0  0  0  0  0  0  0  0  0
  136.6160   70.7350  223.0150 C   0  0  0  0  0  0  0  0  0  0  0  0
  142.2920   71.9710  221.2590 C   0  0  0  0  0  0  0  0  0  0  0  0
  143.5680   71.8990  220.7390 C   0  0  0  0  0  0  0  0  0  0  0  0
  145.0330   73.0050  217.5080 H   0  0  0  0  0  0  0  0  0  0  0  0
  145.9560   74.4300  217.8420 H   0  0  0  0  0  0  0  0  0  0  0  0
  144.0356   75.1514  220.0028 H   0  0  0  0  0  0  0  0  0  0  0  0
  141.7663   75.2638  220.9286 H   0  0  0  0  0  0  0  0  0  0  0  0
  139.8539   74.1800  222.2082 H   0  0  0  0  0  0  0  0  0  0  0  0
  138.7589   71.8730  221.2845 H   0  0  0  0  0  0  0  0  0  0  0  0
  141.2720   72.9380  226.5425 H   0  0  0  0  0  0  0  0  0  0  0  0
  141.5594   71.6452  228.6383 H   0  0  0  0  0  0  0  0  0  0  0  0
  140.8331   69.2841  228.8040 H   0  0  0  0  0  0  0  0  0  0  0  0
  138.9578   69.8902  221.2432 H   0  0  0  0  0  0  0  0  0  0  0  0
  138.8308   68.3398  222.1543 H   0  0  0  0  0  0  0  0  0  0  0  0
  136.7840   69.8080  221.2034 H   0  0  0  0  0  0  0  0  0  0  0  0
  136.2104   67.6545  221.7619 H   0  0  0  0  0  0  0  0  0  0  0  0
  137.0850   67.6928  223.3169 H   0  0  0  0  0  0  0  0  0  0  0  0
  134.5481   69.2668  222.7000 H   0  0  0  0  0  0  0  0  0  0  0  0
  134.6095   67.6784  223.5693 H   0  0  0  0  0  0  0  0  0  0  0  0
  134.4686   69.7776  225.0144 H   0  0  0  0  0  0  0  0  0  0  0  0
  135.7855   68.5939  225.3866 H   0  0  0  0  0  0  0  0  0  0  0  0
  136.1226   71.3256  225.0244 H   0  0  0  0  0  0  0  0  0  0  0  0
  137.4105   70.0805  224.9051 H   0  0  0  0  0  0  0  0  0  0  0  0
  135.6435   71.0537  222.6117 H   0  0  0  0  0  0  0  0  0  0  0  0
  137.3730   71.5283  222.9277 H   0  0  0  0  0  0  0  0  0  0  0  0
  141.8083   71.0492  221.6144 H   0  0  0  0  0  0  0  0  0  0  0  0
  144.0784   70.9259  220.6878 H   0  0  0  0  0  0  0  0  0  0  0  0
  1  2  1  0
  2  3  2  0
  2  4  2  0
  2  5  1  0
  5  6  2  0
  6  7  1  0
  7  8  2  0
  8  9  1  0
  9 10  2  0
 10 11  1  0
 11 12  2  0
 12 13  1  0
 13 14  2  0
 14 15  1  0
 15 16  2  0
 16 17  1  0
 17 18  1  0
 17 19  2  0
 19 20  1  0
 20 21  2  0
 20 22  1  0
 22 23  1  0
 23 24  1  0
 24 25  1  0
 25 26  1  0
 26 27  1  0
 27 28  1  0
 28 29  1  0
  8 30  1  0
 30 31  2  0
 31  5  1  0
 22 11  1  0
 29 24  1  0
 19 13  1  0
  1 32  1  0
  1 33  1  0
  6 34  1  0
  7 35  1  0
  9 36  1  0
 10 37  1  0
 14 38  1  0
 15 39  1  0
 16 40  1  0
 23 41  1  0
 23 42  1  0
 24 43  1  0
 25 44  1  0
 25 45  1  0
 26 46  1  0
 26 47  1  0
 27 48  1  0
 27 49  1  0
 28 50  1  0
 28 51  1  0
 29 52  1  0
 29 53  1  0
 30 54  1  0
 31 55  1  0
M  END
>  <smiles>  (34) 
NS(=O)(=O)c1ccc(/C=C/c2nc3cccc(Cl)c3c(=O)n2CC2CCCCC2)cc1

>  <score_type>  (34) 
oracle

>  <origin>  (34) 
autodockgpu

>  <m_score__min__energy>  (34) 
-9.5

>  <m_primary>  (34) 
energy

>  <rmsd>  (34) 
11.266020507001315

>  <m_score__min__rmsd>  (34) 
11.266020507001315

>  <meeko>  (34) 
{"free_energy": -9.5, "intermolecular_energy": -11.59, "internal_energy": -1.75, "cluster_size": 13, "cluster_id": 1, "rank_in_cluster": 1}

>  <energy>  (34) 
-8.62

>  <cluster_rmsd>  (34) 
0.37

>  <cluster>  (34) 
5

$$$$

     RDKit          3D

 55 58  0  0  0  0  0  0  0  0999 V2000
  142.1780   79.0710  221.3940 N   0  0  0  0  0  0  0  0  0  0  0  0
  140.9820   78.6170  222.5440 S   0  0  0  0  0  0  0  0  0  0  0  0
  139.8450   79.5900  222.4140 O   0  0  0  0  0  0  0  0  0  0  0  0
  141.5650   78.8160  223.9160 O   0  0  0  0  0  0  0  0  0  0  0  0
  140.4500   76.9680  222.3080 C   0  0  0  0  0  0  0  0  0  0  0  0
  139.1450   76.5960  222.5470 C   0  0  0  0  0  0  0  0  0  0  0  0
  138.7510   75.2870  222.3520 C   0  0  0  0  0  0  0  0  0  0  0  0
  139.6040   74.2950  221.9190 C   0  0  0  0  0  0  0  0  0  0  0  0
  139.2210   72.9200  221.7050 C   0  0  0  0  0  0  0  0  0  0  0  0
  140.0190   71.8810  221.8890 C   0  0  0  0  0  0  0  0  0  0  0  0
  140.0180   71.1620  223.1830 C   0  0  0  0  0  0  0  0  0  0  0  0
  140.5140   71.8360  224.2350 N   0  0  0  0  0  0  0  0  0  0  0  0
  140.5800   71.3020  225.4650 C   0  0  0  0  0  0  0  0  0  0  0  0
  141.0970   72.0150  226.5410 C   0  0  0  0  0  0  0  0  0  0  0  0
  141.1310   71.3940  227.7740 C   0  0  0  0  0  0  0  0  0  0  0  0
  140.6720   70.1060  227.9630 C   0  0  0  0  0  0  0  0  0  0  0  0
  140.1590   69.4180  226.8610 C   0  0  0  0  0  0  0  0  0  0  0  0
  139.5570   67.7660  227.0470 Cl  0  0  0  0  0  0  0  0  0  0  0  0
  140.1140   70.0140  225.6170 C   0  0  0  0  0  0  0  0  0  0  0  0
  139.6090   69.3480  224.5160 C   0  0  0  0  0  0  0  0  0  0  0  0
  139.2030   68.1590  224.7460 O   0  0  0  0  0  0  0  0  0  0  0  0
  139.5480   69.9010  223.2870 N   0  0  0  0  0  0  0  0  0  0  0  0
  138.9980   69.2060  222.1660 C   0  0  0  0  0  0  0  0  0  0  0  0
  137.5100   69.3840  222.1230 C   0  0  0  0  0  0  0  0  0  0  0  0
  136.7940   68.1650  222.6940 C   0  0  0  0  0  0  0  0  0  0  0  0
  135.4840   68.6240  223.2560 C   0  0  0  0  0  0  0  0  0  0  0  0
  135.6790   69.5280  224.4530 C   0  0  0  0  0  0  0  0  0  0  0  0
  136.7490   70.5750  224.1840 C   0  0  0  0  0  0  0  0  0  0  0  0
  137.0050   70.6580  222.6890 C   0  0  0  0  0  0  0  0  0  0  0  0
  140.9220   74.6990  221.6830 C   0  0  0  0  0  0  0  0  0  0  0  0
  141.3320   76.0030  221.8730 C   0  0  0  0  0  0  0  0  0  0  0  0
  142.9770   79.4870  221.9160 H   0  0  0  0  0  0  0  0  0  0  0  0
  142.4760   78.2850  220.7770 H   0  0  0  0  0  0  0  0  0  0  0  0
  138.4158   77.3430  222.8937 H   0  0  0  0  0  0  0  0  0  0  0  0
  137.7023   75.0224  222.5526 H   0  0  0  0  0  0  0  0  0  0  0  0
  138.1937   72.7221  221.3651 H   0  0  0  0  0  0  0  0  0  0  0  0
  140.6850   71.5505  221.0783 H   0  0  0  0  0  0  0  0  0  0  0  0
  141.4678   73.0428  226.4139 H   0  0  0  0  0  0  0  0  0  0  0  0
  141.5378   71.9446  228.6350 H   0  0  0  0  0  0  0  0  0  0  0  0
  140.7093   69.6337  228.9557 H   0  0  0  0  0  0  0  0  0  0  0  0
  139.4382   69.6048  221.2401 H   0  0  0  0  0  0  0  0  0  0  0  0
  139.2278   68.1345  222.2612 H   0  0  0  0  0  0  0  0  0  0  0  0
  137.2618   69.4643  221.0544 H   0  0  0  0  0  0  0  0  0  0  0  0
  136.6211   67.4258  221.8979 H   0  0  0  0  0  0  0  0  0  0  0  0
  137.4043   67.6939  223.4786 H   0  0  0  0  0  0  0  0  0  0  0  0
  134.9349   69.1748  222.4781 H   0  0  0  0  0  0  0  0  0  0  0  0
  134.9194   67.7379  223.5818 H   0  0  0  0  0  0  0  0  0  0  0  0
  134.7292   70.0353  224.6778 H   0  0  0  0  0  0  0  0  0  0  0  0
  136.0014   68.9120  225.3054 H   0  0  0  0  0  0  0  0  0  0  0  0
  136.4071   71.5532  224.5532 H   0  0  0  0  0  0  0  0  0  0  0  0
  137.6779   70.2944  224.7021 H   0  0  0  0  0  0  0  0  0  0  0  0
  136.0627   70.9181  222.1846 H   0  0  0  0  0  0  0  0  0  0  0  0
  137.7783   71.4232  222.5265 H   0  0  0  0  0  0  0  0  0  0  0  0
  141.6539   73.9550  221.3355 H   0  0  0  0  0  0  0  0  0  0  0  0
  142.3788   76.2761  221.6741 H   0  0  0  0  0  0  0  0  0  0  0  0
  1  2  1  0
  2  3  2  0
  2  4  2  0
  2  5  1  0
  5  6  2  0
  6  7  1  0
  7  8  2  0
  8  9  1  0
  9 10  2  0
 10 11  1  0
 11 12  2  0
 12 13  1  0
 13 14  2  0
 14 15  1  0
 15 16  2  0
 16 17  1  0
 17 18  1  0
 17 19  2  0
 19 20  1  0
 20 21  2  0
 20 22  1  0
 22 23  1  0
 23 24  1  0
 24 25  1  0
 25 26  1  0
 26 27  1  0
 27 28  1  0
 28 29  1  0
  8 30  1  0
 30 31  2  0
 31  5  1  0
 22 11  1  0
 29 24  1  0
 19 13  1  0
  1 32  1  0
  1 33  1  0
  6 34  1  0
  7 35  1  0
  9 36  1  0
 10 37  1  0
 14 38  1  0
 15 39  1  0
 16 40  1  0
 23 41  1  0
 23 42  1  0
 24 43  1  0
 25 44  1  0
 25 45  1  0
 26 46  1  0
 26 47  1  0
 27 48  1  0
 27 49  1  0
 28 50  1  0
 28 51  1  0
 29 52  1  0
 29 53  1  0
 30 54  1  0
 31 55  1  0
M  END
>  <smiles>  (35) 
NS(=O)(=O)c1ccc(/C=C/c2nc3cccc(Cl)c3c(=O)n2CC2CCCCC2)cc1

>  <score_type>  (35) 
oracle

>  <origin>  (35) 
autodockgpu

>  <m_score__min__energy>  (35) 
-9.5

>  <m_primary>  (35) 
energy

>  <rmsd>  (35) 
11.133971932438602

>  <m_score__min__rmsd>  (35) 
11.133971932438602

>  <meeko>  (35) 
{"free_energy": -8.73, "intermolecular_energy": -10.82, "internal_energy": -1.85, "cluster_size": 11, "cluster_id": 3, "rank_in_cluster": 6}

>  <energy>  (35) 
-8.5

>  <cluster_rmsd>  (35) 
0.3

>  <cluster>  (35) 
5

$$$$

     RDKit          3D

 55 58  0  0  0  0  0  0  0  0999 V2000
  131.9330   72.5410  225.7130 N   0  0  0  0  0  0  0  0  0  0  0  0
  133.3040   73.2020  226.5160 S   0  0  0  0  0  0  0  0  0  0  0  0
  134.0060   72.0670  227.2080 O   0  0  0  0  0  0  0  0  0  0  0  0
  132.8060   74.1220  227.5960 O   0  0  0  0  0  0  0  0  0  0  0  0
  134.3660   74.0350  225.4040 C   0  0  0  0  0  0  0  0  0  0  0  0
  134.5770   75.3930  225.4980 C   0  0  0  0  0  0  0  0  0  0  0  0
  135.4210   76.0270  224.6070 C   0  0  0  0  0  0  0  0  0  0  0  0
  136.0890   75.3690  223.5970 C   0  0  0  0  0  0  0  0  0  0  0  0
  136.9770   76.0030  222.6530 C   0  0  0  0  0  0  0  0  0  0  0  0
  138.1890   76.4460  222.9430 C   0  0  0  0  0  0  0  0  0  0  0  0
  139.3740   75.8570  222.2820 C   0  0  0  0  0  0  0  0  0  0  0  0
  139.4710   74.5170  222.3240 N   0  0  0  0  0  0  0  0  0  0  0  0
  140.4980   73.8520  221.7720 C   0  0  0  0  0  0  0  0  0  0  0  0
  140.5800   72.4650  221.8270 C   0  0  0  0  0  0  0  0  0  0  0  0
  141.6690   71.8550  221.2340 C   0  0  0  0  0  0  0  0  0  0  0  0
  142.6600   72.5760  220.5990 C   0  0  0  0  0  0  0  0  0  0  0  0
  142.5470   73.9680  220.5620 C   0  0  0  0  0  0  0  0  0  0  0  0
  143.7890   74.9390  219.7610 Cl  0  0  0  0  0  0  0  0  0  0  0  0
  141.4700   74.6030  221.1460 C   0  0  0  0  0  0  0  0  0  0  0  0
  141.3410   75.9790  221.1190 C   0  0  0  0  0  0  0  0  0  0  0  0
  142.2880   76.5960  220.5230 O   0  0  0  0  0  0  0  0  0  0  0  0
  140.3010   76.6310  221.6780 N   0  0  0  0  0  0  0  0  0  0  0  0
  140.1730   78.0520  221.6150 C   0  0  0  0  0  0  0  0  0  0  0  0
  140.7450   78.6820  222.8490 C   0  0  0  0  0  0  0  0  0  0  0  0
  142.2170   79.0300  222.6560 C   0  0  0  0  0  0  0  0  0  0  0  0
  142.5330   80.1970  223.5400 C   0  0  0  0  0  0  0  0  0  0  0  0
  141.8000   81.4440  223.0970 C   0  0  0  0  0  0  0  0  0  0  0  0
  140.3390   81.1480  222.7970 C   0  0  0  0  0  0  0  0  0  0  0  0
  139.9620   79.8100  223.4100 C   0  0  0  0  0  0  0  0  0  0  0  0
  135.8570   73.9910  223.5240 C   0  0  0  0  0  0  0  0  0  0  0  0
  135.0180   73.3430  224.4060 C   0  0  0  0  0  0  0  0  0  0  0  0
  131.7990   73.0730  224.8280 H   0  0  0  0  0  0  0  0  0  0  0  0
  132.0080   71.5140  225.5480 H   0  0  0  0  0  0  0  0  0  0  0  0
  134.0724   75.9737  226.2842 H   0  0  0  0  0  0  0  0  0  0  0  0
  135.5674   77.1125  224.7088 H   0  0  0  0  0  0  0  0  0  0  0  0
  136.6210   76.1266  221.6196 H   0  0  0  0  0  0  0  0  0  0  0  0
  138.3161   77.2547  223.6778 H   0  0  0  0  0  0  0  0  0  0  0  0
  139.8012   71.8710  222.3276 H   0  0  0  0  0  0  0  0  0  0  0  0
  141.7487   70.7585  221.2692 H   0  0  0  0  0  0  0  0  0  0  0  0
  143.5172   72.0674  220.1338 H   0  0  0  0  0  0  0  0  0  0  0  0
  140.7134   78.4261  220.7330 H   0  0  0  0  0  0  0  0  0  0  0  0
  139.1066   78.3119  221.5425 H   0  0  0  0  0  0  0  0  0  0  0  0
  140.6689   77.9082  223.6271 H   0  0  0  0  0  0  0  0  0  0  0  0
  142.8440   78.1700  222.9337 H   0  0  0  0  0  0  0  0  0  0  0  0
  142.4171   79.2806  221.6038 H   0  0  0  0  0  0  0  0  0  0  0  0
  142.2355   79.9550  224.5710 H   0  0  0  0  0  0  0  0  0  0  0  0
  143.6138   80.3926  223.4793 H   0  0  0  0  0  0  0  0  0  0  0  0
  141.8563   82.1963  223.8975 H   0  0  0  0  0  0  0  0  0  0  0  0
  142.2746   81.8180  222.1779 H   0  0  0  0  0  0  0  0  0  0  0  0
  139.7079   81.9399  223.2265 H   0  0  0  0  0  0  0  0  0  0  0  0
  140.1864   81.1108  221.7083 H   0  0  0  0  0  0  0  0  0  0  0  0
  140.1403   79.8571  224.4944 H   0  0  0  0  0  0  0  0  0  0  0  0
  138.9023   79.6258  223.1794 H   0  0  0  0  0  0  0  0  0  0  0  0
  136.3593   73.4067  222.7390 H   0  0  0  0  0  0  0  0  0  0  0  0
  134.8668   72.2575  224.3117 H   0  0  0  0  0  0  0  0  0  0  0  0
  1  2  1  0
  2  3  2  0
  2  4  2  0
  2  5  1  0
  5  6  2  0
  6  7  1  0
  7  8  2  0
  8  9  1  0
  9 10  2  0
 10 11  1  0
 11 12  2  0
 12 13  1  0
 13 14  2  0
 14 15  1  0
 15 16  2  0
 16 17  1  0
 17 18  1  0
 17 19  2  0
 19 20  1  0
 20 21  2  0
 20 22  1  0
 22 23  1  0
 23 24  1  0
 24 25  1  0
 25 26  1  0
 26 27  1  0
 27 28  1  0
 28 29  1  0
  8 30  1  0
 30 31  2  0
 31  5  1  0
 22 11  1  0
 29 24  1  0
 19 13  1  0
  1 32  1  0
  1 33  1  0
  6 34  1  0
  7 35  1  0
  9 36  1  0
 10 37  1  0
 14 38  1  0
 15 39  1  0
 16 40  1  0
 23 41  1  0
 23 42  1  0
 24 43  1  0
 25 44  1  0
 25 45  1  0
 26 46  1  0
 26 47  1  0
 27 48  1  0
 27 49  1  0
 28 50  1  0
 28 51  1  0
 29 52  1  0
 29 53  1  0
 30 54  1  0
 31 55  1  0
M  END
>  <smiles>  (36) 
NS(=O)(=O)c1ccc(/C=C/c2nc3cccc(Cl)c3c(=O)n2CC2CCCCC2)cc1

>  <score_type>  (36) 
oracle

>  <origin>  (36) 
autodockgpu

>  <m_score__min__energy>  (36) 
-9.5

>  <m_primary>  (36) 
energy

>  <rmsd>  (36) 
7.864284633914439

>  <m_score__min__rmsd>  (36) 
7.864284633914439

>  <meeko>  (36) 
{"free_energy": -8.27, "intermolecular_energy": -10.35, "internal_energy": -1.31, "cluster_size": 4, "cluster_id": 4, "rank_in_cluster": 4}

>  <energy>  (36) 
-8.27

>  <cluster_rmsd>  (36) 
0.99

>  <cluster>  (36) 
5

$$$$

     RDKit          3D

 55 58  0  0  0  0  0  0  0  0999 V2000
  140.7460   67.7600  227.9210 N   0  0  0  0  0  0  0  0  0  0  0  0
  140.3840   69.4420  227.9310 S   0  0  0  0  0  0  0  0  0  0  0  0
  141.4890   70.1320  228.6790 O   0  0  0  0  0  0  0  0  0  0  0  0
  139.1300   69.6380  228.7390 O   0  0  0  0  0  0  0  0  0  0  0  0
  140.2070   70.0760  226.3110 C   0  0  0  0  0  0  0  0  0  0  0  0
  139.4360   69.4290  225.3700 C   0  0  0  0  0  0  0  0  0  0  0  0
  139.3130   69.9510  224.0970 C   0  0  0  0  0  0  0  0  0  0  0  0
  139.9290   71.1150  223.6930 C   0  0  0  0  0  0  0  0  0  0  0  0
  139.8180   71.6860  222.3720 C   0  0  0  0  0  0  0  0  0  0  0  0
  140.8360   71.8740  221.5480 C   0  0  0  0  0  0  0  0  0  0  0  0
  141.1970   73.2410  221.1120 C   0  0  0  0  0  0  0  0  0  0  0  0
  140.8700   74.2360  221.9540 N   0  0  0  0  0  0  0  0  0  0  0  0
  141.1310   75.5250  221.6820 C   0  0  0  0  0  0  0  0  0  0  0  0
  140.7850   76.5410  222.5650 C   0  0  0  0  0  0  0  0  0  0  0  0
  141.0880   77.8410  222.2110 C   0  0  0  0  0  0  0  0  0  0  0  0
  141.7170   78.1510  221.0220 C   0  0  0  0  0  0  0  0  0  0  0  0
  142.0520   77.1080  220.1570 C   0  0  0  0  0  0  0  0  0  0  0  0
  142.8580   77.4510  218.6220 Cl  0  0  0  0  0  0  0  0  0  0  0  0
  141.7590   75.7990  220.4860 C   0  0  0  0  0  0  0  0  0  0  0  0
  142.0840   74.7540  219.6420 C   0  0  0  0  0  0  0  0  0  0  0  0
  142.6590   75.0980  218.5550 O   0  0  0  0  0  0  0  0  0  0  0  0
  141.8140   73.4640  219.9330 N   0  0  0  0  0  0  0  0  0  0  0  0
  142.1820   72.3950  219.0590 C   0  0  0  0  0  0  0  0  0  0  0  0
  143.6190   72.0230  219.2670 C   0  0  0  0  0  0  0  0  0  0  0  0
  144.5390   72.8820  218.4080 C   0  0  0  0  0  0  0  0  0  0  0  0
  145.8600   72.9830  219.1060 C   0  0  0  0  0  0  0  0  0  0  0  0
  145.7450   73.7530  220.4030 C   0  0  0  0  0  0  0  0  0  0  0  0
  144.5400   73.2960  221.2110 C   0  0  0  0  0  0  0  0  0  0  0  0
  144.0610   71.9560  220.6820 C   0  0  0  0  0  0  0  0  0  0  0  0
  140.7050   71.7520  224.6680 C   0  0  0  0  0  0  0  0  0  0  0  0
  140.8380   71.2440  225.9430 C   0  0  0  0  0  0  0  0  0  0  0  0
  141.0510   67.4970  228.8810 H   0  0  0  0  0  0  0  0  0  0  0  0
  139.9550   67.1710  227.5820 H   0  0  0  0  0  0  0  0  0  0  0  0
  138.9175   68.4952  225.6329 H   0  0  0  0  0  0  0  0  0  0  0  0
  138.6914   69.4095  223.3687 H   0  0  0  0  0  0  0  0  0  0  0  0
  138.8176   71.9856  222.0263 H   0  0  0  0  0  0  0  0  0  0  0  0
  141.4154   71.0118  221.1862 H   0  0  0  0  0  0  0  0  0  0  0  0
  140.2843   76.3161  223.5183 H   0  0  0  0  0  0  0  0  0  0  0  0
  140.8193   78.6561  222.8990 H   0  0  0  0  0  0  0  0  0  0  0  0
  141.9486   79.1946  220.7625 H   0  0  0  0  0  0  0  0  0  0  0  0
  141.5473   71.5211  219.2676 H   0  0  0  0  0  0  0  0  0  0  0  0
  142.0444   72.7213  218.0176 H   0  0  0  0  0  0  0  0  0  0  0  0
  143.6967   70.9802  218.9255 H   0  0  0  0  0  0  0  0  0  0  0  0
  144.6726   72.4148  217.4212 H   0  0  0  0  0  0  0  0  0  0  0  0
  144.1047   73.8823  218.2639 H   0  0  0  0  0  0  0  0  0  0  0  0
  146.2276   71.9693  219.3236 H   0  0  0  0  0  0  0  0  0  0  0  0
  146.5581   73.5199  218.4469 H   0  0  0  0  0  0  0  0  0  0  0  0
  146.6567   73.5927  220.9972 H   0  0  0  0  0  0  0  0  0  0  0  0
  145.6192   74.8194  220.1642 H   0  0  0  0  0  0  0  0  0  0  0  0
  144.8242   73.1933  222.2687 H   0  0  0  0  0  0  0  0  0  0  0  0
  143.7328   74.0379  221.1211 H   0  0  0  0  0  0  0  0  0  0  0  0
  144.8858   71.2322  220.7590 H   0  0  0  0  0  0  0  0  0  0  0  0
  143.1940   71.6512  221.2865 H   0  0  0  0  0  0  0  0  0  0  0  0
  141.2247   72.6864  224.4094 H   0  0  0  0  0  0  0  0  0  0  0  0
  141.4574   71.7796  226.6775 H   0  0  0  0  0  0  0  0  0  0  0  0
  1  2  1  0
  2  3  2  0
  2  4  2  0
  2  5  1  0
  5  6  2  0
  6  7  1  0
  7  8  2  0
  8  9  1  0
  9 10  2  0
 10 11  1  0
 11 12  2  0
 12 13  1  0
 13 14  2  0
 14 15  1  0
 15 16  2  0
 16 17  1  0
 17 18  1  0
 17 19  2  0
 19 20  1  0
 20 21  2  0
 20 22  1  0
 22 23  1  0
 23 24  1  0
 24 25  1  0
 25 26  1  0
 26 27  1  0
 27 28  1  0
 28 29  1  0
  8 30  1  0
 30 31  2  0
 31  5  1  0
 22 11  1  0
 29 24  1  0
 19 13  1  0
  1 32  1  0
  1 33  1  0
  6 34  1  0
  7 35  1  0
  9 36  1  0
 10 37  1  0
 14 38  1  0
 15 39  1  0
 16 40  1  0
 23 41  1  0
 23 42  1  0
 24 43  1  0
 25 44  1  0
 25 45  1  0
 26 46  1  0
 26 47  1  0
 27 48  1  0
 27 49  1  0
 28 50  1  0
 28 51  1  0
 29 52  1  0
 29 53  1  0
 30 54  1  0
 31 55  1  0
M  END
>  <smiles>  (37) 
NS(=O)(=O)c1ccc(/C=C/c2nc3cccc(Cl)c3c(=O)n2CC2CCCCC2)cc1

>  <score_type>  (37) 
oracle

>  <origin>  (37) 
autodockgpu

>  <m_score__min__energy>  (37) 
-9.5

>  <m_primary>  (37) 
energy

>  <rmsd>  (37) 
6.234028539421077

>  <m_score__min__rmsd>  (37) 
6.234028539421077

>  <meeko>  (37) 
{"free_energy": -8.67, "intermolecular_energy": -10.76, "internal_energy": -1.76, "cluster_size": 4, "cluster_id": 2, "rank_in_cluster": 4}

>  <energy>  (37) 
-8.21

>  <cluster_rmsd>  (37) 
1.02

>  <cluster>  (37) 
5

$$$$

     RDKit          3D

 55 58  0  0  0  0  0  0  0  0999 V2000
  146.9980   73.7580  219.2280 N   0  0  0  0  0  0  0  0  0  0  0  0
  145.9760   72.8550  220.2780 S   0  0  0  0  0  0  0  0  0  0  0  0
  146.6410   72.8180  221.6250 O   0  0  0  0  0  0  0  0  0  0  0  0
  145.9380   71.4380  219.7770 O   0  0  0  0  0  0  0  0  0  0  0  0
  144.3710   73.5450  220.3700 C   0  0  0  0  0  0  0  0  0  0  0  0
  144.1310   74.8490  219.9960 C   0  0  0  0  0  0  0  0  0  0  0  0
  142.8540   75.3690  220.0770 C   0  0  0  0  0  0  0  0  0  0  0  0
  141.7690   74.6460  220.5230 C   0  0  0  0  0  0  0  0  0  0  0  0
  140.4240   75.1620  220.6190 C   0  0  0  0  0  0  0  0  0  0  0  0
  139.9790   75.9190  221.6080 C   0  0  0  0  0  0  0  0  0  0  0  0
  140.3500   77.3500  221.6740 C   0  0  0  0  0  0  0  0  0  0  0  0
  141.0420   77.7320  222.7620 N   0  0  0  0  0  0  0  0  0  0  0  0
  141.4360   79.0000  222.9540 C   0  0  0  0  0  0  0  0  0  0  0  0
  142.1510   79.3770  224.0860 C   0  0  0  0  0  0  0  0  0  0  0  0
  142.5200   80.7020  224.2100 C   0  0  0  0  0  0  0  0  0  0  0  0
  142.2030   81.6460  223.2550 C   0  0  0  0  0  0  0  0  0  0  0  0
  141.4850   81.2350  222.1290 C   0  0  0  0  0  0  0  0  0  0  0  0
  141.0530   82.4040  220.8760 Cl  0  0  0  0  0  0  0  0  0  0  0  0
  141.1030   79.9170  221.9810 C   0  0  0  0  0  0  0  0  0  0  0  0
  140.3920   79.4930  220.8740 C   0  0  0  0  0  0  0  0  0  0  0  0
  140.1220   80.4080  220.0240 O   0  0  0  0  0  0  0  0  0  0  0  0
  140.0050   78.2130  220.6960 N   0  0  0  0  0  0  0  0  0  0  0  0
  139.2940   77.7890  219.5310 C   0  0  0  0  0  0  0  0  0  0  0  0
  140.1220   78.0170  218.3030 C   0  0  0  0  0  0  0  0  0  0  0  0
  141.6100   77.9690  218.6280 C   0  0  0  0  0  0  0  0  0  0  0  0
  142.3340   77.5150  217.3980 C   0  0  0  0  0  0  0  0  0  0  0  0
  141.9890   76.0850  217.0460 C   0  0  0  0  0  0  0  0  0  0  0  0
  140.4900   75.8440  217.1250 C   0  0  0  0  0  0  0  0  0  0  0  0
  139.7670   77.1800  217.1310 C   0  0  0  0  0  0  0  0  0  0  0  0
  142.0400   73.3250  220.8960 C   0  0  0  0  0  0  0  0  0  0  0  0
  143.3090   72.7910  220.8200 C   0  0  0  0  0  0  0  0  0  0  0  0
  146.4220   74.0710  218.4200 H   0  0  0  0  0  0  0  0  0  0  0  0
  147.4770   74.5530  219.7040 H   0  0  0  0  0  0  0  0  0  0  0  0
  144.9576   75.4770  219.6323 H   0  0  0  0  0  0  0  0  0  0  0  0
  142.6950   76.4132  219.7699 H   0  0  0  0  0  0  0  0  0  0  0  0
  139.7199   74.9077  219.8130 H   0  0  0  0  0  0  0  0  0  0  0  0
  139.3315   75.4838  222.3834 H   0  0  0  0  0  0  0  0  0  0  0  0
  142.4148   78.6412  224.8599 H   0  0  0  0  0  0  0  0  0  0  0  0
  143.0856   81.0153  225.0999 H   0  0  0  0  0  0  0  0  0  0  0  0
  142.5079   82.6958  223.3770 H   0  0  0  0  0  0  0  0  0  0  0  0
  139.0618   76.7173  219.6179 H   0  0  0  0  0  0  0  0  0  0  0  0
  138.3644   78.3712  219.4482 H   0  0  0  0  0  0  0  0  0  0  0  0
  139.8706   79.0356  217.9725 H   0  0  0  0  0  0  0  0  0  0  0  0
  141.9613   78.9694  218.9209 H   0  0  0  0  0  0  0  0  0  0  0  0
  141.7986   77.2767  219.4618 H   0  0  0  0  0  0  0  0  0  0  0  0
  142.0541   78.1672  216.5576 H   0  0  0  0  0  0  0  0  0  0  0  0
  143.4149   77.5703  217.5943 H   0  0  0  0  0  0  0  0  0  0  0  0
  142.3324   75.8749  216.0223 H   0  0  0  0  0  0  0  0  0  0  0  0
  142.4865   75.4198  217.7671 H   0  0  0  0  0  0  0  0  0  0  0  0
  140.1661   75.2547  216.2545 H   0  0  0  0  0  0  0  0  0  0  0  0
  140.2533   75.2924  218.0468 H   0  0  0  0  0  0  0  0  0  0  0  0
  140.0315   77.7275  216.2143 H   0  0  0  0  0  0  0  0  0  0  0  0
  138.6878   76.9738  217.1842 H   0  0  0  0  0  0  0  0  0  0  0  0
  141.2163   72.6937  221.2607 H   0  0  0  0  0  0  0  0  0  0  0  0
  143.4762   71.7469  221.1233 H   0  0  0  0  0  0  0  0  0  0  0  0
  1  2  1  0
  2  3  2  0
  2  4  2  0
  2  5  1  0
  5  6  2  0
  6  7  1  0
  7  8  2  0
  8  9  1  0
  9 10  2  0
 10 11  1  0
 11 12  2  0
 12 13  1  0
 13 14  2  0
 14 15  1  0
 15 16  2  0
 16 17  1  0
 17 18  1  0
 17 19  2  0
 19 20  1  0
 20 21  2  0
 20 22  1  0
 22 23  1  0
 23 24  1  0
 24 25  1  0
 25 26  1  0
 26 27  1  0
 27 28  1  0
 28 29  1  0
  8 30  1  0
 30 31  2  0
 31  5  1  0
 22 11  1  0
 29 24  1  0
 19 13  1  0
  1 32  1  0
  1 33  1  0
  6 34  1  0
  7 35  1  0
  9 36  1  0
 10 37  1  0
 14 38  1  0
 15 39  1  0
 16 40  1  0
 23 41  1  0
 23 42  1  0
 24 43  1  0
 25 44  1  0
 25 45  1  0
 26 46  1  0
 26 47  1  0
 27 48  1  0
 27 49  1  0
 28 50  1  0
 28 51  1  0
 29 52  1  0
 29 53  1  0
 30 54  1  0
 31 55  1  0
M  END
>  <smiles>  (38) 
NS(=O)(=O)c1ccc(/C=C/c2nc3cccc(Cl)c3c(=O)n2CC2CCCCC2)cc1

>  <score_type>  (38) 
oracle

>  <origin>  (38) 
autodockgpu

>  <m_score__min__energy>  (38) 
-9.5

>  <m_primary>  (38) 
energy

>  <rmsd>  (38) 
3.6402373351869244

>  <m_score__min__rmsd>  (38) 
3.6402373351869244

>  <meeko>  (38) 
{"free_energy": -7.82, "intermolecular_energy": -9.91, "internal_energy": -2.02, "cluster_size": 4, "cluster_id": 9, "rank_in_cluster": 2}

>  <energy>  (38) 
-8.38

>  <cluster_rmsd>  (38) 
0.0

>  <cluster>  (38) 
6

$$$$

     RDKit          3D

 55 58  0  0  0  0  0  0  0  0999 V2000
  146.3890   69.6910  218.4970 N   0  0  0  0  0  0  0  0  0  0  0  0
  145.1750   68.7740  219.3020 S   0  0  0  0  0  0  0  0  0  0  0  0
  145.8270   68.1090  220.4810 O   0  0  0  0  0  0  0  0  0  0  0  0
  144.7400   67.6730  218.3740 O   0  0  0  0  0  0  0  0  0  0  0  0
  143.8250   69.7730  219.7890 C   0  0  0  0  0  0  0  0  0  0  0  0
  142.5280   69.3210  219.6850 C   0  0  0  0  0  0  0  0  0  0  0  0
  141.4790   70.1310  220.0780 C   0  0  0  0  0  0  0  0  0  0  0  0
  141.6510   71.4010  220.5830 C   0  0  0  0  0  0  0  0  0  0  0  0
  140.5760   72.2690  221.0020 C   0  0  0  0  0  0  0  0  0  0  0  0
  139.5070   71.8700  221.6720 C   0  0  0  0  0  0  0  0  0  0  0  0
  139.6600   71.1080  222.9310 C   0  0  0  0  0  0  0  0  0  0  0  0
  140.2530   71.7580  223.9480 N   0  0  0  0  0  0  0  0  0  0  0  0
  140.4630   71.1840  225.1440 C   0  0  0  0  0  0  0  0  0  0  0  0
  141.0780   71.8710  226.1840 C   0  0  0  0  0  0  0  0  0  0  0  0
  141.2570   71.2100  227.3830 C   0  0  0  0  0  0  0  0  0  0  0  0
  140.8460   69.9060  227.5730 C   0  0  0  0  0  0  0  0  0  0  0  0
  140.2310   69.2430  226.5080 C   0  0  0  0  0  0  0  0  0  0  0  0
  139.6870   67.5720  226.6970 Cl  0  0  0  0  0  0  0  0  0  0  0  0
  140.0410   69.8800  225.2980 C   0  0  0  0  0  0  0  0  0  0  0  0
  139.4340   69.2400  224.2340 C   0  0  0  0  0  0  0  0  0  0  0  0
  139.0790   68.0350  224.4630 O   0  0  0  0  0  0  0  0  0  0  0  0
  139.2300   69.8330  223.0390 N   0  0  0  0  0  0  0  0  0  0  0  0
  138.5760   69.1640  221.9600 C   0  0  0  0  0  0  0  0  0  0  0  0
  137.0910   69.3460  222.0570 C   0  0  0  0  0  0  0  0  0  0  0  0
  136.4240   68.1120  222.6530 C   0  0  0  0  0  0  0  0  0  0  0  0
  135.1730   68.5560  223.3460 C   0  0  0  0  0  0  0  0  0  0  0  0
  135.4800   69.4230  224.5470 C   0  0  0  0  0  0  0  0  0  0  0  0
  136.5260   70.4760  224.2130 C   0  0  0  0  0  0  0  0  0  0  0  0
  136.6460   70.6040  222.7050 C   0  0  0  0  0  0  0  0  0  0  0  0
  142.9780   71.8340  220.6790 C   0  0  0  0  0  0  0  0  0  0  0  0
  144.0360   71.0380  220.2910 C   0  0  0  0  0  0  0  0  0  0  0  0
  147.0990   69.0240  218.1320 H   0  0  0  0  0  0  0  0  0  0  0  0
  146.0080   70.3110  217.7500 H   0  0  0  0  0  0  0  0  0  0  0  0
  142.3268   68.3147  219.2889 H   0  0  0  0  0  0  0  0  0  0  0  0
  140.4547   69.7415  219.9826 H   0  0  0  0  0  0  0  0  0  0  0  0
  140.6509   73.3363  220.7465 H   0  0  0  0  0  0  0  0  0  0  0  0
  138.5019   72.1054  221.2920 H   0  0  0  0  0  0  0  0  0  0  0  0
  141.4124   72.9111  226.0556 H   0  0  0  0  0  0  0  0  0  0  0  0
  141.7435   71.7404  228.2148 H   0  0  0  0  0  0  0  0  0  0  0  0
  140.9988   69.4016  228.5385 H   0  0  0  0  0  0  0  0  0  0  0  0
  138.9310   69.5813  221.0061 H   0  0  0  0  0  0  0  0  0  0  0  0
  138.8085   68.0901  222.0120 H   0  0  0  0  0  0  0  0  0  0  0  0
  136.7469   69.4590  221.0183 H   0  0  0  0  0  0  0  0  0  0  0  0
  136.1755   67.3983  221.8536 H   0  0  0  0  0  0  0  0  0  0  0  0
  137.1009   67.6156  223.3639 H   0  0  0  0  0  0  0  0  0  0  0  0
  134.5577   69.1311  222.6384 H   0  0  0  0  0  0  0  0  0  0  0  0
  134.6369   67.6613  223.6953 H   0  0  0  0  0  0  0  0  0  0  0  0
  134.5569   69.9249  224.8724 H   0  0  0  0  0  0  0  0  0  0  0  0
  135.8757   68.7810  225.3478 H   0  0  0  0  0  0  0  0  0  0  0  0
  136.2233   71.4431  224.6409 H   0  0  0  0  0  0  0  0  0  0  0  0
  137.4968   70.1779  224.6357 H   0  0  0  0  0  0  0  0  0  0  0  0
  135.6633   70.8819  222.2962 H   0  0  0  0  0  0  0  0  0  0  0  0
  137.4055   71.3718  222.4963 H   0  0  0  0  0  0  0  0  0  0  0  0
  143.1839   72.8391  221.0757 H   0  0  0  0  0  0  0  0  0  0  0  0
  145.0635   71.4195  220.3840 H   0  0  0  0  0  0  0  0  0  0  0  0
  1  2  1  0
  2  3  2  0
  2  4  2  0
  2  5  1  0
  5  6  2  0
  6  7  1  0
  7  8  2  0
  8  9  1  0
  9 10  2  0
 10 11  1  0
 11 12  2  0
 12 13  1  0
 13 14  2  0
 14 15  1  0
 15 16  2  0
 16 17  1  0
 17 18  1  0
 17 19  2  0
 19 20  1  0
 20 21  2  0
 20 22  1  0
 22 23  1  0
 23 24  1  0
 24 25  1  0
 25 26  1  0
 26 27  1  0
 27 28  1  0
 28 29  1  0
  8 30  1  0
 30 31  2  0
 31  5  1  0
 22 11  1  0
 29 24  1  0
 19 13  1  0
  1 32  1  0
  1 33  1  0
  6 34  1  0
  7 35  1  0
  9 36  1  0
 10 37  1  0
 14 38  1  0
 15 39  1  0
 16 40  1  0
 23 41  1  0
 23 42  1  0
 24 43  1  0
 25 44  1  0
 25 45  1  0
 26 46  1  0
 26 47  1  0
 27 48  1  0
 27 49  1  0
 28 50  1  0
 28 51  1  0
 29 52  1  0
 29 53  1  0
 30 54  1  0
 31 55  1  0
M  END
>  <smiles>  (39) 
NS(=O)(=O)c1ccc(/C=C/c2nc3cccc(Cl)c3c(=O)n2CC2CCCCC2)cc1

>  <score_type>  (39) 
oracle

>  <origin>  (39) 
autodockgpu

>  <m_score__min__energy>  (39) 
-9.5

>  <m_primary>  (39) 
energy

>  <rmsd>  (39) 
11.232978476262337

>  <m_score__min__rmsd>  (39) 
11.232978476262337

>  <meeko>  (39) 
{"free_energy": -7.84, "intermolecular_energy": -9.92, "internal_energy": -1.96, "cluster_size": 13, "cluster_id": 1, "rank_in_cluster": 12}

>  <energy>  (39) 
-8.37

>  <cluster_rmsd>  (39) 
1.12

>  <cluster>  (39) 
6

$$$$

     RDKit          3D

 55 58  0  0  0  0  0  0  0  0999 V2000
  139.5060   67.1490  226.8240 N   0  0  0  0  0  0  0  0  0  0  0  0
  140.0180   68.7660  227.1170 S   0  0  0  0  0  0  0  0  0  0  0  0
  141.4490   68.7050  227.5720 O   0  0  0  0  0  0  0  0  0  0  0  0
  139.2200   69.2980  228.2760 O   0  0  0  0  0  0  0  0  0  0  0  0
  139.8350   69.7700  225.6980 C   0  0  0  0  0  0  0  0  0  0  0  0
  138.7950   69.5760  224.8150 C   0  0  0  0  0  0  0  0  0  0  0  0
  138.6730   70.3840  223.7000 C   0  0  0  0  0  0  0  0  0  0  0  0
  139.5500   71.4050  223.4050 C   0  0  0  0  0  0  0  0  0  0  0  0
  139.4480   72.2650  222.2500 C   0  0  0  0  0  0  0  0  0  0  0  0
  138.3950   73.0100  221.9600 C   0  0  0  0  0  0  0  0  0  0  0  0
  138.4360   74.4730  222.1750 C   0  0  0  0  0  0  0  0  0  0  0  0
  139.6390   75.0580  222.0350 N   0  0  0  0  0  0  0  0  0  0  0  0
  139.8220   76.3770  222.2090 C   0  0  0  0  0  0  0  0  0  0  0  0
  141.0730   76.9640  222.0600 C   0  0  0  0  0  0  0  0  0  0  0  0
  141.1790   78.3270  222.2570 C   0  0  0  0  0  0  0  0  0  0  0  0
  140.0910   79.1080  222.5900 C   0  0  0  0  0  0  0  0  0  0  0  0
  138.8470   78.4880  222.7330 C   0  0  0  0  0  0  0  0  0  0  0  0
  137.4220   79.4420  223.1590 Cl  0  0  0  0  0  0  0  0  0  0  0  0
  138.7140   77.1270  222.5430 C   0  0  0  0  0  0  0  0  0  0  0  0
  137.4920   76.4960  222.6780 C   0  0  0  0  0  0  0  0  0  0  0  0
  136.5220   77.2650  222.9930 O   0  0  0  0  0  0  0  0  0  0  0  0
  137.3260   75.1690  222.4980 N   0  0  0  0  0  0  0  0  0  0  0  0
  136.0490   74.5400  222.6170 C   0  0  0  0  0  0  0  0  0  0  0  0
  135.7710   74.1910  224.0480 C   0  0  0  0  0  0  0  0  0  0  0  0
  134.9920   75.3020  224.7430 C   0  0  0  0  0  0  0  0  0  0  0  0
  134.1780   74.6780  225.8350 C   0  0  0  0  0  0  0  0  0  0  0  0
  133.1040   73.7710  225.2780 C   0  0  0  0  0  0  0  0  0  0  0  0
  133.6580   72.8630  224.1910 C   0  0  0  0  0  0  0  0  0  0  0  0
  135.1740   72.8510  224.2720 C   0  0  0  0  0  0  0  0  0  0  0  0
  140.5960   71.5800  224.3180 C   0  0  0  0  0  0  0  0  0  0  0  0
  140.7320   70.7820  225.4350 C   0  0  0  0  0  0  0  0  0  0  0  0
  140.3490   66.5390  226.8660 H   0  0  0  0  0  0  0  0  0  0  0  0
  138.7560   66.8310  227.4750 H   0  0  0  0  0  0  0  0  0  0  0  0
  138.0610   68.7773  224.9976 H   0  0  0  0  0  0  0  0  0  0  0  0
  137.8330   70.2026  223.0133 H   0  0  0  0  0  0  0  0  0  0  0  0
  140.3064   72.3031  221.5632 H   0  0  0  0  0  0  0  0  0  0  0  0
  137.4854   72.5404  221.5575 H   0  0  0  0  0  0  0  0  0  0  0  0
  141.9531   76.3606  221.7929 H   0  0  0  0  0  0  0  0  0  0  0  0
  142.1630   78.8057  222.1448 H   0  0  0  0  0  0  0  0  0  0  0  0
  140.2005   80.1923  222.7392 H   0  0  0  0  0  0  0  0  0  0  0  0
  135.2709   75.2274  222.2536 H   0  0  0  0  0  0  0  0  0  0  0  0
  136.0477   73.6177  222.0176 H   0  0  0  0  0  0  0  0  0  0  0  0
  136.7609   74.1113  224.5211 H   0  0  0  0  0  0  0  0  0  0  0  0
  135.6898   76.0373  225.1702 H   0  0  0  0  0  0  0  0  0  0  0  0
  134.3386   75.8196  224.0252 H   0  0  0  0  0  0  0  0  0  0  0  0
  134.8426   74.0883  226.4835 H   0  0  0  0  0  0  0  0  0  0  0  0
  133.6888   75.4830  226.4031 H   0  0  0  0  0  0  0  0  0  0  0  0
  132.7008   73.1508  226.0921 H   0  0  0  0  0  0  0  0  0  0  0  0
  132.3137   74.3972  224.8385 H   0  0  0  0  0  0  0  0  0  0  0  0
  133.2742   71.8421  224.3340 H   0  0  0  0  0  0  0  0  0  0  0  0
  133.3445   73.2353  223.2045 H   0  0  0  0  0  0  0  0  0  0  0  0
  135.4701   72.4964  225.2703 H   0  0  0  0  0  0  0  0  0  0  0  0
  135.5435   72.1860  223.4775 H   0  0  0  0  0  0  0  0  0  0  0  0
  141.3319   72.3779  224.1396 H   0  0  0  0  0  0  0  0  0  0  0  0
  141.5696   70.9564  226.1264 H   0  0  0  0  0  0  0  0  0  0  0  0
  1  2  1  0
  2  3  2  0
  2  4  2  0
  2  5  1  0
  5  6  2  0
  6  7  1  0
  7  8  2  0
  8  9  1  0
  9 10  2  0
 10 11  1  0
 11 12  2  0
 12 13  1  0
 13 14  2  0
 14 15  1  0
 15 16  2  0
 16 17  1  0
 17 18  1  0
 17 19  2  0
 19 20  1  0
 20 21  2  0
 20 22  1  0
 22 23  1  0
 23 24  1  0
 24 25  1  0
 25 26  1  0
 26 27  1  0
 27 28  1  0
 28 29  1  0
  8 30  1  0
 30 31  2  0
 31  5  1  0
 22 11  1  0
 29 24  1  0
 19 13  1  0
  1 32  1  0
  1 33  1  0
  6 34  1  0
  7 35  1  0
  9 36  1  0
 10 37  1  0
 14 38  1  0
 15 39  1  0
 16 40  1  0
 23 41  1  0
 23 42  1  0
 24 43  1  0
 25 44  1  0
 25 45  1  0
 26 46  1  0
 26 47  1  0
 27 48  1  0
 27 49  1  0
 28 50  1  0
 28 51  1  0
 29 52  1  0
 29 53  1  0
 30 54  1  0
 31 55  1  0
M  END
>  <smiles>  (40) 
NS(=O)(=O)c1ccc(/C=C/c2nc3cccc(Cl)c3c(=O)n2CC2CCCCC2)cc1

>  <score_type>  (40) 
oracle

>  <origin>  (40) 
autodockgpu

>  <m_score__min__energy>  (40) 
-9.5

>  <m_primary>  (40) 
energy

>  <rmsd>  (40) 
7.099688235185488

>  <m_score__min__rmsd>  (40) 
7.099688235185488

>  <meeko>  (40) 
{"free_energy": -8.29, "intermolecular_energy": -10.38, "internal_energy": -1.55, "cluster_size": 1, "cluster_id": 8, "rank_in_cluster": 1}

>  <energy>  (40) 
-8.36

>  <cluster_rmsd>  (40) 
0.18

>  <cluster>  (40) 
6

$$$$

     RDKit          3D

 55 58  0  0  0  0  0  0  0  0999 V2000
  146.1020   73.4680  218.2970 N   0  0  0  0  0  0  0  0  0  0  0  0
  145.5510   72.0540  219.1090 S   0  0  0  0  0  0  0  0  0  0  0  0
  146.6380   71.6310  220.0560 O   0  0  0  0  0  0  0  0  0  0  0  0
  145.4200   70.9590  218.0870 O   0  0  0  0  0  0  0  0  0  0  0  0
  144.0400   72.3350  219.9440 C   0  0  0  0  0  0  0  0  0  0  0  0
  143.2960   71.2900  220.4460 C   0  0  0  0  0  0  0  0  0  0  0  0
  142.1060   71.5400  221.1030 C   0  0  0  0  0  0  0  0  0  0  0  0
  141.5980   72.8060  221.2940 C   0  0  0  0  0  0  0  0  0  0  0  0
  140.3590   73.0970  221.9750 C   0  0  0  0  0  0  0  0  0  0  0  0
  139.4260   72.2010  222.2530 C   0  0  0  0  0  0  0  0  0  0  0  0
  139.5720   71.3150  223.4290 C   0  0  0  0  0  0  0  0  0  0  0  0
  140.1160   71.8710  224.5250 N   0  0  0  0  0  0  0  0  0  0  0  0
  140.3140   71.1800  225.6590 C   0  0  0  0  0  0  0  0  0  0  0  0
  140.8780   71.7720  226.7830 C   0  0  0  0  0  0  0  0  0  0  0  0
  141.0490   70.9930  227.9110 C   0  0  0  0  0  0  0  0  0  0  0  0
  140.6780   69.6640  227.9500 C   0  0  0  0  0  0  0  0  0  0  0  0
  140.1140   69.1000  226.8040 C   0  0  0  0  0  0  0  0  0  0  0  0
  139.6220   67.4020  226.8000 Cl  0  0  0  0  0  0  0  0  0  0  0  0
  139.9330   69.8550  225.6630 C   0  0  0  0  0  0  0  0  0  0  0  0
  139.3760   69.3130  224.5200 C   0  0  0  0  0  0  0  0  0  0  0  0
  139.0560   68.0800  224.6100 O   0  0  0  0  0  0  0  0  0  0  0  0
  139.1830   70.0230  223.3890 N   0  0  0  0  0  0  0  0  0  0  0  0
  138.5810   69.4520  222.2260 C   0  0  0  0  0  0  0  0  0  0  0  0
  137.0890   69.5920  222.2900 C   0  0  0  0  0  0  0  0  0  0  0  0
  136.4280   68.2700  222.6610 C   0  0  0  0  0  0  0  0  0  0  0  0
  135.1420   68.5810  223.3620 C   0  0  0  0  0  0  0  0  0  0  0  0
  135.3840   69.2560  224.6940 C   0  0  0  0  0  0  0  0  0  0  0  0
  136.4180   70.3640  224.5700 C   0  0  0  0  0  0  0  0  0  0  0  0
  136.5920   70.7270  223.1060 C   0  0  0  0  0  0  0  0  0  0  0  0
  142.3730   73.8480  220.7750 C   0  0  0  0  0  0  0  0  0  0  0  0
  143.5630   73.6160  220.1170 C   0  0  0  0  0  0  0  0  0  0  0  0
  145.2820   74.0950  218.1640 H   0  0  0  0  0  0  0  0  0  0  0  0
  146.8880   73.9450  218.7890 H   0  0  0  0  0  0  0  0  0  0  0  0
  143.6494   70.2555  220.3238 H   0  0  0  0  0  0  0  0  0  0  0  0
  141.5355   70.6843  221.4933 H   0  0  0  0  0  0  0  0  0  0  0  0
  140.1777   74.1368  222.2846 H   0  0  0  0  0  0  0  0  0  0  0  0
  138.5392   72.1145  221.6080 H   0  0  0  0  0  0  0  0  0  0  0  0
  141.1794   72.8299  226.7746 H   0  0  0  0  0  0  0  0  0  0  0  0
  141.4957   71.4469  228.8079 H   0  0  0  0  0  0  0  0  0  0  0  0
  140.8230   69.0645  228.8608 H   0  0  0  0  0  0  0  0  0  0  0  0
  138.9561   69.9707  221.3314 H   0  0  0  0  0  0  0  0  0  0  0  0
  138.8384   68.3836  222.1778 H   0  0  0  0  0  0  0  0  0  0  0  0
  136.7814   69.8586  221.2681 H   0  0  0  0  0  0  0  0  0  0  0  0
  136.2263   67.6846  221.7518 H   0  0  0  0  0  0  0  0  0  0  0  0
  137.0884   67.6807  223.3141 H   0  0  0  0  0  0  0  0  0  0  0  0
  134.5416   69.2490  222.7270 H   0  0  0  0  0  0  0  0  0  0  0  0
  134.6127   67.6346  223.5466 H   0  0  0  0  0  0  0  0  0  0  0  0
  134.4383   69.6867  225.0549 H   0  0  0  0  0  0  0  0  0  0  0  0
  135.7631   68.5038  225.4015 H   0  0  0  0  0  0  0  0  0  0  0  0
  136.0783   71.2479  225.1298 H   0  0  0  0  0  0  0  0  0  0  0  0
  137.3784   70.0191  224.9806 H   0  0  0  0  0  0  0  0  0  0  0  0
  135.6196   71.0493  222.7053 H   0  0  0  0  0  0  0  0  0  0  0  0
  137.3415   71.5302  223.0496 H   0  0  0  0  0  0  0  0  0  0  0  0
  142.0231   74.8839  220.8951 H   0  0  0  0  0  0  0  0  0  0  0  0
  144.1398   74.4665  219.7245 H   0  0  0  0  0  0  0  0  0  0  0  0
  1  2  1  0
  2  3  2  0
  2  4  2  0
  2  5  1  0
  5  6  2  0
  6  7  1  0
  7  8  2  0
  8  9  1  0
  9 10  2  0
 10 11  1  0
 11 12  2  0
 12 13  1  0
 13 14  2  0
 14 15  1  0
 15 16  2  0
 16 17  1  0
 17 18  1  0
 17 19  2  0
 19 20  1  0
 20 21  2  0
 20 22  1  0
 22 23  1  0
 23 24  1  0
 24 25  1  0
 25 26  1  0
 26 27  1  0
 27 28  1  0
 28 29  1  0
  8 30  1  0
 30 31  2  0
 31  5  1  0
 22 11  1  0
 29 24  1  0
 19 13  1  0
  1 32  1  0
  1 33  1  0
  6 34  1  0
  7 35  1  0
  9 36  1  0
 10 37  1  0
 14 38  1  0
 15 39  1  0
 16 40  1  0
 23 41  1  0
 23 42  1  0
 24 43  1  0
 25 44  1  0
 25 45  1  0
 26 46  1  0
 26 47  1  0
 27 48  1  0
 27 49  1  0
 28 50  1  0
 28 51  1  0
 29 52  1  0
 29 53  1  0
 30 54  1  0
 31 55  1  0
M  END
>  <smiles>  (41) 
NS(=O)(=O)c1ccc(/C=C/c2nc3cccc(Cl)c3c(=O)n2CC2CCCCC2)cc1

>  <score_type>  (41) 
oracle

>  <origin>  (41) 
autodockgpu

>  <m_score__min__energy>  (41) 
-9.5

>  <m_primary>  (41) 
energy

>  <rmsd>  (41) 
11.361822728132841

>  <m_score__min__rmsd>  (41) 
11.361822728132841

>  <meeko>  (41) 
{"free_energy": -9.0, "intermolecular_energy": -11.09, "internal_energy": -1.76, "cluster_size": 13, "cluster_id": 1, "rank_in_cluster": 6}

>  <energy>  (41) 
-8.35

>  <cluster_rmsd>  (41) 
0.16

>  <cluster>  (41) 
6

$$$$

     RDKit          3D

 55 58  0  0  0  0  0  0  0  0999 V2000
  141.3820   67.5270  226.7660 N   0  0  0  0  0  0  0  0  0  0  0  0
  139.8710   68.3360  226.6160 S   0  0  0  0  0  0  0  0  0  0  0  0
  139.5310   68.9000  227.9670 O   0  0  0  0  0  0  0  0  0  0  0  0
  138.8240   67.3010  226.3060 O   0  0  0  0  0  0  0  0  0  0  0  0
  139.9220   69.5820  225.3910 C   0  0  0  0  0  0  0  0  0  0  0  0
  140.6470   70.7390  225.5770 C   0  0  0  0  0  0  0  0  0  0  0  0
  140.6710   71.7080  224.5920 C   0  0  0  0  0  0  0  0  0  0  0  0
  139.9970   71.5900  223.3970 C   0  0  0  0  0  0  0  0  0  0  0  0
  140.0040   72.5840  222.3510 C   0  0  0  0  0  0  0  0  0  0  0  0
  141.0890   73.0090  221.7260 C   0  0  0  0  0  0  0  0  0  0  0  0
  141.2030   74.4250  221.3120 C   0  0  0  0  0  0  0  0  0  0  0  0
  140.6200   75.3270  222.1210 N   0  0  0  0  0  0  0  0  0  0  0  0
  140.6410   76.6440  221.8630 C   0  0  0  0  0  0  0  0  0  0  0  0
  140.0320   77.5610  222.7110 C   0  0  0  0  0  0  0  0  0  0  0  0
  140.0970   78.9000  222.3750 C   0  0  0  0  0  0  0  0  0  0  0  0
  140.7410   79.3410  221.2370 C   0  0  0  0  0  0  0  0  0  0  0  0
  141.3420   78.3940  220.4050 C   0  0  0  0  0  0  0  0  0  0  0  0
  142.1800   78.9060  218.9350 Cl  0  0  0  0  0  0  0  0  0  0  0  0
  141.2920   77.0500  220.7180 C   0  0  0  0  0  0  0  0  0  0  0  0
  141.8820   76.0990  219.9070 C   0  0  0  0  0  0  0  0  0  0  0  0
  142.4590   76.5620  218.8660 O   0  0  0  0  0  0  0  0  0  0  0  0
  141.8530   74.7780  220.1830 N   0  0  0  0  0  0  0  0  0  0  0  0
  142.4920   73.8130  219.3460 C   0  0  0  0  0  0  0  0  0  0  0  0
  143.9660   74.0790  219.2760 C   0  0  0  0  0  0  0  0  0  0  0  0
  144.5720   74.1890  220.6700 C   0  0  0  0  0  0  0  0  0  0  0  0
  146.0060   73.7660  220.5830 C   0  0  0  0  0  0  0  0  0  0  0  0
  146.1320   72.2970  220.2440 C   0  0  0  0  0  0  0  0  0  0  0  0
  145.2010   71.9120  219.1050 C   0  0  0  0  0  0  0  0  0  0  0  0
  144.7350   73.1690  218.3910 C   0  0  0  0  0  0  0  0  0  0  0  0
  139.2690   70.4060  223.2340 C   0  0  0  0  0  0  0  0  0  0  0  0
  139.2350   69.4290  224.2060 C   0  0  0  0  0  0  0  0  0  0  0  0
  141.2210   66.6540  227.3100 H   0  0  0  0  0  0  0  0  0  0  0  0
  141.8420   67.3410  225.8490 H   0  0  0  0  0  0  0  0  0  0  0  0
  141.2076   70.8915  226.5111 H   0  0  0  0  0  0  0  0  0  0  0  0
  141.2586   72.6203  224.7718 H   0  0  0  0  0  0  0  0  0  0  0  0
  139.0387   73.0188  222.0525 H   0  0  0  0  0  0  0  0  0  0  0  0
  141.9094   72.3078  221.5132 H   0  0  0  0  0  0  0  0  0  0  0  0
  139.5133   77.2308  223.6231 H   0  0  0  0  0  0  0  0  0  0  0  0
  139.6198   79.6383  223.0363 H   0  0  0  0  0  0  0  0  0  0  0  0
  140.7800   80.4125  220.9912 H   0  0  0  0  0  0  0  0  0  0  0  0
  142.3240   72.8071  219.7583 H   0  0  0  0  0  0  0  0  0  0  0  0
  142.0678   73.8810  218.3334 H   0  0  0  0  0  0  0  0  0  0  0  0
  144.0575   75.0562  218.7794 H   0  0  0  0  0  0  0  0  0  0  0  0
  144.5098   75.2288  221.0236 H   0  0  0  0  0  0  0  0  0  0  0  0
  144.0255   73.5477  221.3772 H   0  0  0  0  0  0  0  0  0  0  0  0
  146.5061   74.3571  219.8017 H   0  0  0  0  0  0  0  0  0  0  0  0
  146.4754   73.9351  221.5633 H   0  0  0  0  0  0  0  0  0  0  0  0
  147.1695   72.0855  219.9460 H   0  0  0  0  0  0  0  0  0  0  0  0
  145.8555   71.7103  221.1324 H   0  0  0  0  0  0  0  0  0  0  0  0
  145.7365   71.2637  218.3958 H   0  0  0  0  0  0  0  0  0  0  0  0
  144.3308   71.3723  219.5067 H   0  0  0  0  0  0  0  0  0  0  0  0
  145.6172   73.7072  218.0142 H   0  0  0  0  0  0  0  0  0  0  0  0
  144.0678   72.8586  217.5734 H   0  0  0  0  0  0  0  0  0  0  0  0
  138.7066   70.2501  222.3016 H   0  0  0  0  0  0  0  0  0  0  0  0
  138.6506   68.5132  224.0332 H   0  0  0  0  0  0  0  0  0  0  0  0
  1  2  1  0
  2  3  2  0
  2  4  2  0
  2  5  1  0
  5  6  2  0
  6  7  1  0
  7  8  2  0
  8  9  1  0
  9 10  2  0
 10 11  1  0
 11 12  2  0
 12 13  1  0
 13 14  2  0
 14 15  1  0
 15 16  2  0
 16 17  1  0
 17 18  1  0
 17 19  2  0
 19 20  1  0
 20 21  2  0
 20 22  1  0
 22 23  1  0
 23 24  1  0
 24 25  1  0
 25 26  1  0
 26 27  1  0
 27 28  1  0
 28 29  1  0
  8 30  1  0
 30 31  2  0
 31  5  1  0
 22 11  1  0
 29 24  1  0
 19 13  1  0
  1 32  1  0
  1 33  1  0
  6 34  1  0
  7 35  1  0
  9 36  1  0
 10 37  1  0
 14 38  1  0
 15 39  1  0
 16 40  1  0
 23 41  1  0
 23 42  1  0
 24 43  1  0
 25 44  1  0
 25 45  1  0
 26 46  1  0
 26 47  1  0
 27 48  1  0
 27 49  1  0
 28 50  1  0
 28 51  1  0
 29 52  1  0
 29 53  1  0
 30 54  1  0
 31 55  1  0
M  END
>  <smiles>  (42) 
NS(=O)(=O)c1ccc(/C=C/c2nc3cccc(Cl)c3c(=O)n2CC2CCCCC2)cc1

>  <score_type>  (42) 
oracle

>  <origin>  (42) 
autodockgpu

>  <m_score__min__energy>  (42) 
-9.5

>  <m_primary>  (42) 
energy

>  <rmsd>  (42) 
5.6145625307359035

>  <m_score__min__rmsd>  (42) 
5.6145625307359035

>  <meeko>  (42) 
{"free_energy": -9.04, "intermolecular_energy": -11.13, "internal_energy": -1.33, "cluster_size": 4, "cluster_id": 2, "rank_in_cluster": 1}

>  <energy>  (42) 
-8.28

>  <cluster_rmsd>  (42) 
1.46

>  <cluster>  (42) 
6

$$$$

     RDKit          3D

 55 58  0  0  0  0  0  0  0  0999 V2000
  145.9840   73.3880  218.1200 N   0  0  0  0  0  0  0  0  0  0  0  0
  145.8030   72.7890  219.7230 S   0  0  0  0  0  0  0  0  0  0  0  0
  146.4650   73.7740  220.6450 O   0  0  0  0  0  0  0  0  0  0  0  0
  146.5860   71.5090  219.8280 O   0  0  0  0  0  0  0  0  0  0  0  0
  144.1210   72.5480  220.1380 C   0  0  0  0  0  0  0  0  0  0  0  0
  143.4130   73.5010  220.8340 C   0  0  0  0  0  0  0  0  0  0  0  0
  142.0850   73.2860  221.1490 C   0  0  0  0  0  0  0  0  0  0  0  0
  141.4000   72.1420  220.8000 C   0  0  0  0  0  0  0  0  0  0  0  0
  140.0140   71.8890  221.1140 C   0  0  0  0  0  0  0  0  0  0  0  0
  139.4310   72.2130  222.2560 C   0  0  0  0  0  0  0  0  0  0  0  0
  139.5600   71.3270  223.4350 C   0  0  0  0  0  0  0  0  0  0  0  0
  140.1120   71.8770  224.5310 N   0  0  0  0  0  0  0  0  0  0  0  0
  140.2950   71.1860  225.6670 C   0  0  0  0  0  0  0  0  0  0  0  0
  140.8680   71.7710  226.7900 C   0  0  0  0  0  0  0  0  0  0  0  0
  141.0230   70.9930  227.9210 C   0  0  0  0  0  0  0  0  0  0  0  0
  140.6280   69.6710  227.9630 C   0  0  0  0  0  0  0  0  0  0  0  0
  140.0560   69.1130  226.8170 C   0  0  0  0  0  0  0  0  0  0  0  0
  139.5330   67.4240  226.8180 Cl  0  0  0  0  0  0  0  0  0  0  0  0
  139.8900   69.8680  225.6740 C   0  0  0  0  0  0  0  0  0  0  0  0
  139.3250   69.3330  224.5320 C   0  0  0  0  0  0  0  0  0  0  0  0
  138.9840   68.1060  224.6250 O   0  0  0  0  0  0  0  0  0  0  0  0
  139.1470   70.0430  223.3980 N   0  0  0  0  0  0  0  0  0  0  0  0
  138.5360   69.4790  222.2360 C   0  0  0  0  0  0  0  0  0  0  0  0
  137.0460   69.6250  222.3080 C   0  0  0  0  0  0  0  0  0  0  0  0
  136.4240   68.5050  223.1340 C   0  0  0  0  0  0  0  0  0  0  0  0
  135.1580   69.0300  223.7390 C   0  0  0  0  0  0  0  0  0  0  0  0
  135.4360   70.1200  224.7500 C   0  0  0  0  0  0  0  0  0  0  0  0
  136.4430   71.1250  224.2140 C   0  0  0  0  0  0  0  0  0  0  0  0
  136.5570   70.9670  222.7080 C   0  0  0  0  0  0  0  0  0  0  0  0
  142.1430   71.1900  220.0940 C   0  0  0  0  0  0  0  0  0  0  0  0
  143.4690   71.3910  219.7720 C   0  0  0  0  0  0  0  0  0  0  0  0
  145.3040   72.8820  217.5160 H   0  0  0  0  0  0  0  0  0  0  0  0
  145.8780   74.4230  218.0530 H   0  0  0  0  0  0  0  0  0  0  0  0
  143.9053   74.4358  221.1402 H   0  0  0  0  0  0  0  0  0  0  0  0
  141.5473   74.0672  221.7064 H   0  0  0  0  0  0  0  0  0  0  0  0
  139.3993   71.3916  220.3494 H   0  0  0  0  0  0  0  0  0  0  0  0
  138.8487   73.1433  222.3300 H   0  0  0  0  0  0  0  0  0  0  0  0
  141.1888   72.8231  226.7786 H   0  0  0  0  0  0  0  0  0  0  0  0
  141.4760   71.4416  228.8174 H   0  0  0  0  0  0  0  0  0  0  0  0
  140.7603   69.0718  228.8760 H   0  0  0  0  0  0  0  0  0  0  0  0
  138.9086   69.9994  221.3414 H   0  0  0  0  0  0  0  0  0  0  0  0
  138.7882   68.4096  222.1828 H   0  0  0  0  0  0  0  0  0  0  0  0
  136.6973   69.5262  221.2694 H   0  0  0  0  0  0  0  0  0  0  0  0
  136.2005   67.6434  222.4877 H   0  0  0  0  0  0  0  0  0  0  0  0
  137.1187   68.1774  223.9214 H   0  0  0  0  0  0  0  0  0  0  0  0
  134.5224   69.4381  222.9394 H   0  0  0  0  0  0  0  0  0  0  0  0
  134.6534   68.2007  224.2563 H   0  0  0  0  0  0  0  0  0  0  0  0
  134.4962   70.6427  224.9813 H   0  0  0  0  0  0  0  0  0  0  0  0
  135.8555   69.6562  225.6549 H   0  0  0  0  0  0  0  0  0  0  0  0
  136.1065   72.1449  224.4520 H   0  0  0  0  0  0  0  0  0  0  0  0
  137.4241   70.9470  224.6785 H   0  0  0  0  0  0  0  0  0  0  0  0
  135.5647   71.1274  222.2613 H   0  0  0  0  0  0  0  0  0  0  0  0
  137.2885   71.7069  222.3510 H   0  0  0  0  0  0  0  0  0  0  0  0
  141.6552   70.2532  219.7865 H   0  0  0  0  0  0  0  0  0  0  0  0
  144.0143   70.6154  219.2143 H   0  0  0  0  0  0  0  0  0  0  0  0
  1  2  1  0
  2  3  2  0
  2  4  2  0
  2  5  1  0
  5  6  2  0
  6  7  1  0
  7  8  2  0
  8  9  1  0
  9 10  2  0
 10 11  1  0
 11 12  2  0
 12 13  1  0
 13 14  2  0
 14 15  1  0
 15 16  2  0
 16 17  1  0
 17 18  1  0
 17 19  2  0
 19 20  1  0
 20 21  2  0
 20 22  1  0
 22 23  1  0
 23 24  1  0
 24 25  1  0
 25 26  1  0
 26 27  1  0
 27 28  1  0
 28 29  1  0
  8 30  1  0
 30 31  2  0
 31  5  1  0
 22 11  1  0
 29 24  1  0
 19 13  1  0
  1 32  1  0
  1 33  1  0
  6 34  1  0
  7 35  1  0
  9 36  1  0
 10 37  1  0
 14 38  1  0
 15 39  1  0
 16 40  1  0
 23 41  1  0
 23 42  1  0
 24 43  1  0
 25 44  1  0
 25 45  1  0
 26 46  1  0
 26 47  1  0
 27 48  1  0
 27 49  1  0
 28 50  1  0
 28 51  1  0
 29 52  1  0
 29 53  1  0
 30 54  1  0
 31 55  1  0
M  END
>  <smiles>  (43) 
NS(=O)(=O)c1ccc(/C=C/c2nc3cccc(Cl)c3c(=O)n2CC2CCCCC2)cc1

>  <score_type>  (43) 
oracle

>  <origin>  (43) 
autodockgpu

>  <m_score__min__energy>  (43) 
-9.5

>  <m_primary>  (43) 
energy

>  <rmsd>  (43) 
11.315024232819663

>  <m_score__min__rmsd>  (43) 
11.315024232819663

>  <meeko>  (43) 
{"free_energy": -8.97, "intermolecular_energy": -11.06, "internal_energy": -1.66, "cluster_size": 13, "cluster_id": 1, "rank_in_cluster": 7}

>  <energy>  (43) 
-8.17

>  <cluster_rmsd>  (43) 
0.93

>  <cluster>  (43) 
6

$$$$

     RDKit          3D

 55 58  0  0  0  0  0  0  0  0999 V2000
  142.7020   79.2560  222.4050 N   0  0  0  0  0  0  0  0  0  0  0  0
  141.3840   78.9040  221.3550 S   0  0  0  0  0  0  0  0  0  0  0  0
  141.8580   79.1420  219.9490 O   0  0  0  0  0  0  0  0  0  0  0  0
  140.3020   79.9140  221.6210 O   0  0  0  0  0  0  0  0  0  0  0  0
  140.8030   77.2690  221.5730 C   0  0  0  0  0  0  0  0  0  0  0  0
  141.4500   76.1980  220.9970 C   0  0  0  0  0  0  0  0  0  0  0  0
  140.9690   74.9160  221.1850 C   0  0  0  0  0  0  0  0  0  0  0  0
  139.8500   74.6290  221.9350 C   0  0  0  0  0  0  0  0  0  0  0  0
  139.3250   73.3010  222.1490 C   0  0  0  0  0  0  0  0  0  0  0  0
  140.0590   72.2010  222.1860 C   0  0  0  0  0  0  0  0  0  0  0  0
  140.0370   71.3330  223.3840 C   0  0  0  0  0  0  0  0  0  0  0  0
  140.5130   71.8760  224.5180 N   0  0  0  0  0  0  0  0  0  0  0  0
  140.5590   71.1990  225.6760 C   0  0  0  0  0  0  0  0  0  0  0  0
  141.0560   71.7780  226.8390 C   0  0  0  0  0  0  0  0  0  0  0  0
  141.0690   71.0150  227.9900 C   0  0  0  0  0  0  0  0  0  0  0  0
  140.6090   69.7130  228.0150 C   0  0  0  0  0  0  0  0  0  0  0  0
  140.1170   69.1610  226.8300 C   0  0  0  0  0  0  0  0  0  0  0  0
  139.5160   67.4990  226.8070 Cl  0  0  0  0  0  0  0  0  0  0  0  0
  140.0920   69.9020  225.6650 C   0  0  0  0  0  0  0  0  0  0  0  0
  139.6080   69.3720  224.4840 C   0  0  0  0  0  0  0  0  0  0  0  0
  139.2010   68.1640  224.5630 O   0  0  0  0  0  0  0  0  0  0  0  0
  139.5680   70.0680  223.3290 N   0  0  0  0  0  0  0  0  0  0  0  0
  139.0390   69.5120  222.1240 C   0  0  0  0  0  0  0  0  0  0  0  0
  137.5450   69.6350  222.1060 C   0  0  0  0  0  0  0  0  0  0  0  0
  136.8850   68.4140  222.7360 C   0  0  0  0  0  0  0  0  0  0  0  0
  135.5710   68.8460  223.3100 C   0  0  0  0  0  0  0  0  0  0  0  0
  135.7570   69.8010  224.4680 C   0  0  0  0  0  0  0  0  0  0  0  0
  136.7820   70.8740  224.1380 C   0  0  0  0  0  0  0  0  0  0  0  0
  137.0050   70.9110  222.6360 C   0  0  0  0  0  0  0  0  0  0  0  0
  139.2130   75.7350  222.5080 C   0  0  0  0  0  0  0  0  0  0  0  0
  139.6800   77.0200  222.3310 C   0  0  0  0  0  0  0  0  0  0  0  0
  143.0980   78.3500  222.7290 H   0  0  0  0  0  0  0  0  0  0  0  0
  143.4240   79.8690  221.9680 H   0  0  0  0  0  0  0  0  0  0  0  0
  142.3503   76.3632  220.3869 H   0  0  0  0  0  0  0  0  0  0  0  0
  141.5075   74.0820  220.7113 H   0  0  0  0  0  0  0  0  0  0  0  0
  138.2392   73.1967  222.2911 H   0  0  0  0  0  0  0  0  0  0  0  0
  140.6871   71.9311  221.3242 H   0  0  0  0  0  0  0  0  0  0  0  0
  141.4278   72.8133  226.8418 H   0  0  0  0  0  0  0  0  0  0  0  0
  141.4587   71.4591  228.9179 H   0  0  0  0  0  0  0  0  0  0  0  0
  140.6296   69.1255  228.9447 H   0  0  0  0  0  0  0  0  0  0  0  0
  139.4578   70.0509  221.2613 H   0  0  0  0  0  0  0  0  0  0  0  0
  139.3109   68.4474  222.0717 H   0  0  0  0  0  0  0  0  0  0  0  0
  137.2733   69.6662  221.0405 H   0  0  0  0  0  0  0  0  0  0  0  0
  136.7225   67.6405  221.9709 H   0  0  0  0  0  0  0  0  0  0  0  0
  137.5280   67.9945  223.5238 H   0  0  0  0  0  0  0  0  0  0  0  0
  134.9856   69.3467  222.5247 H   0  0  0  0  0  0  0  0  0  0  0  0
  135.0470   67.9528  223.6810 H   0  0  0  0  0  0  0  0  0  0  0  0
  134.7941   70.2823  224.6941 H   0  0  0  0  0  0  0  0  0  0  0  0
  136.1187   69.2295  225.3355 H   0  0  0  0  0  0  0  0  0  0  0  0
  136.4123   71.8524  224.4787 H   0  0  0  0  0  0  0  0  0  0  0  0
  137.7307   70.6455  224.6456 H   0  0  0  0  0  0  0  0  0  0  0  0
  136.0441   71.1185  222.1425 H   0  0  0  0  0  0  0  0  0  0  0  0
  137.7463   71.6969  222.4293 H   0  0  0  0  0  0  0  0  0  0  0  0
  138.3121   75.5744  223.1184 H   0  0  0  0  0  0  0  0  0  0  0  0
  139.1477   77.8594  222.8023 H   0  0  0  0  0  0  0  0  0  0  0  0
  1  2  1  0
  2  3  2  0
  2  4  2  0
  2  5  1  0
  5  6  2  0
  6  7  1  0
  7  8  2  0
  8  9  1  0
  9 10  2  0
 10 11  1  0
 11 12  2  0
 12 13  1  0
 13 14  2  0
 14 15  1  0
 15 16  2  0
 16 17  1  0
 17 18  1  0
 17 19  2  0
 19 20  1  0
 20 21  2  0
 20 22  1  0
 22 23  1  0
 23 24  1  0
 24 25  1  0
 25 26  1  0
 26 27  1  0
 27 28  1  0
 28 29  1  0
  8 30  1  0
 30 31  2  0
 31  5  1  0
 22 11  1  0
 29 24  1  0
 19 13  1  0
  1 32  1  0
  1 33  1  0
  6 34  1  0
  7 35  1  0
  9 36  1  0
 10 37  1  0
 14 38  1  0
 15 39  1  0
 16 40  1  0
 23 41  1  0
 23 42  1  0
 24 43  1  0
 25 44  1  0
 25 45  1  0
 26 46  1  0
 26 47  1  0
 27 48  1  0
 27 49  1  0
 28 50  1  0
 28 51  1  0
 29 52  1  0
 29 53  1  0
 30 54  1  0
 31 55  1  0
M  END
>  <smiles>  (44) 
NS(=O)(=O)c1ccc(/C=C/c2nc3cccc(Cl)c3c(=O)n2CC2CCCCC2)cc1

>  <score_type>  (44) 
oracle

>  <origin>  (44) 
autodockgpu

>  <m_score__min__energy>  (44) 
-9.5

>  <m_primary>  (44) 
energy

>  <rmsd>  (44) 
11.187291948984317

>  <m_score__min__rmsd>  (44) 
11.187291948984317

>  <meeko>  (44) 
{"free_energy": -8.8, "intermolecular_energy": -10.89, "internal_energy": -1.76, "cluster_size": 11, "cluster_id": 3, "rank_in_cluster": 5}

>  <energy>  (44) 
-8.37

>  <cluster_rmsd>  (44) 
0.0

>  <cluster>  (44) 
7

$$$$

     RDKit          3D

 55 58  0  0  0  0  0  0  0  0999 V2000
  146.5570   73.0700  221.4270 N   0  0  0  0  0  0  0  0  0  0  0  0
  145.7230   72.5030  220.0330 S   0  0  0  0  0  0  0  0  0  0  0  0
  146.2950   71.1580  219.6870 O   0  0  0  0  0  0  0  0  0  0  0  0
  146.0600   73.4210  218.8900 O   0  0  0  0  0  0  0  0  0  0  0  0
  143.9970   72.4210  220.3000 C   0  0  0  0  0  0  0  0  0  0  0  0
  143.2070   73.5470  220.2230 C   0  0  0  0  0  0  0  0  0  0  0  0
  141.8450   73.4540  220.4390 C   0  0  0  0  0  0  0  0  0  0  0  0
  141.2040   72.2720  220.7350 C   0  0  0  0  0  0  0  0  0  0  0  0
  139.7850   72.1440  220.9650 C   0  0  0  0  0  0  0  0  0  0  0  0
  139.1880   72.3690  222.1240 C   0  0  0  0  0  0  0  0  0  0  0  0
  139.3890   71.4390  223.2570 C   0  0  0  0  0  0  0  0  0  0  0  0
  139.9990   71.9500  224.3400 N   0  0  0  0  0  0  0  0  0  0  0  0
  140.2520   71.2160  225.4360 C   0  0  0  0  0  0  0  0  0  0  0  0
  140.8840   71.7620  226.5480 C   0  0  0  0  0  0  0  0  0  0  0  0
  141.1080   70.9410  227.6360 C   0  0  0  0  0  0  0  0  0  0  0  0
  140.7240   69.6150  227.6480 C   0  0  0  0  0  0  0  0  0  0  0  0
  140.0910   69.0970  226.5150 C   0  0  0  0  0  0  0  0  0  0  0  0
  139.5810   67.4060  226.4780 Cl  0  0  0  0  0  0  0  0  0  0  0  0
  139.8560   69.8960  225.4140 C   0  0  0  0  0  0  0  0  0  0  0  0
  139.2310   69.4010  224.2850 C   0  0  0  0  0  0  0  0  0  0  0  0
  138.9030   68.1680  224.3480 O   0  0  0  0  0  0  0  0  0  0  0  0
  138.9840   70.1530  223.1930 N   0  0  0  0  0  0  0  0  0  0  0  0
  138.3110   69.6300  222.0450 C   0  0  0  0  0  0  0  0  0  0  0  0
  136.8260   69.7040  222.2340 C   0  0  0  0  0  0  0  0  0  0  0  0
  136.3210   68.5390  223.0770 C   0  0  0  0  0  0  0  0  0  0  0  0
  135.0830   68.9910  223.7890 C   0  0  0  0  0  0  0  0  0  0  0  0
  135.3870   70.0720  224.8020 C   0  0  0  0  0  0  0  0  0  0  0  0
  136.3030   71.1340  224.2160 C   0  0  0  0  0  0  0  0  0  0  0  0
  136.3080   71.0130  222.7020 C   0  0  0  0  0  0  0  0  0  0  0  0
  142.0290   71.1440  220.8070 C   0  0  0  0  0  0  0  0  0  0  0  0
  143.3900   71.2200  220.5940 C   0  0  0  0  0  0  0  0  0  0  0  0
  146.7220   72.2530  222.0500 H   0  0  0  0  0  0  0  0  0  0  0  0
  147.4400   73.5780  221.2000 H   0  0  0  0  0  0  0  0  0  0  0  0
  143.6608   74.5214  219.9893 H   0  0  0  0  0  0  0  0  0  0  0  0
  141.2421   74.3716  220.3709 H   0  0  0  0  0  0  0  0  0  0  0  0
  139.1553   71.8377  220.1167 H   0  0  0  0  0  0  0  0  0  0  0  0
  138.5405   73.2499  222.2456 H   0  0  0  0  0  0  0  0  0  0  0  0
  141.1963   72.8167  226.5607 H   0  0  0  0  0  0  0  0  0  0  0  0
  141.6090   71.3576  228.5223 H   0  0  0  0  0  0  0  0  0  0  0  0
  140.9117   68.9818  228.5277 H   0  0  0  0  0  0  0  0  0  0  0  0
  138.5938   70.2179  221.1594 H   0  0  0  0  0  0  0  0  0  0  0  0
  138.6023   68.5782  221.9078 H   0  0  0  0  0  0  0  0  0  0  0  0
  136.4034   69.6106  221.2227 H   0  0  0  0  0  0  0  0  0  0  0  0
  136.0877   67.6816  222.4286 H   0  0  0  0  0  0  0  0  0  0  0  0
  137.0884   68.2279  223.8011 H   0  0  0  0  0  0  0  0  0  0  0  0
  134.3697   69.3847  223.0499 H   0  0  0  0  0  0  0  0  0  0  0  0
  134.6588   68.1281  224.3233 H   0  0  0  0  0  0  0  0  0  0  0  0
  134.4446   70.5447  225.1157 H   0  0  0  0  0  0  0  0  0  0  0  0
  135.8949   69.6103  225.6616 H   0  0  0  0  0  0  0  0  0  0  0  0
  135.9399   72.1317  224.5036 H   0  0  0  0  0  0  0  0  0  0  0  0
  137.3240   70.9927  224.6003 H   0  0  0  0  0  0  0  0  0  0  0  0
  135.2780   71.1351  222.3358 H   0  0  0  0  0  0  0  0  0  0  0  0
  136.9750   71.7942  222.3084 H   0  0  0  0  0  0  0  0  0  0  0  0
  141.5791   70.1677  221.0404 H   0  0  0  0  0  0  0  0  0  0  0  0
  144.0000   70.3070  220.6600 H   0  0  0  0  0  0  0  0  0  0  0  0
  1  2  1  0
  2  3  2  0
  2  4  2  0
  2  5  1  0
  5  6  2  0
  6  7  1  0
  7  8  2  0
  8  9  1  0
  9 10  2  0
 10 11  1  0
 11 12  2  0
 12 13  1  0
 13 14  2  0
 14 15  1  0
 15 16  2  0
 16 17  1  0
 17 18  1  0
 17 19  2  0
 19 20  1  0
 20 21  2  0
 20 22  1  0
 22 23  1  0
 23 24  1  0
 24 25  1  0
 25 26  1  0
 26 27  1  0
 27 28  1  0
 28 29  1  0
  8 30  1  0
 30 31  2  0
 31  5  1  0
 22 11  1  0
 29 24  1  0
 19 13  1  0
  1 32  1  0
  1 33  1  0
  6 34  1  0
  7 35  1  0
  9 36  1  0
 10 37  1  0
 14 38  1  0
 15 39  1  0
 16 40  1  0
 23 41  1  0
 23 42  1  0
 24 43  1  0
 25 44  1  0
 25 45  1  0
 26 46  1  0
 26 47  1  0
 27 48  1  0
 27 49  1  0
 28 50  1  0
 28 51  1  0
 29 52  1  0
 29 53  1  0
 30 54  1  0
 31 55  1  0
M  END
>  <smiles>  (45) 
NS(=O)(=O)c1ccc(/C=C/c2nc3cccc(Cl)c3c(=O)n2CC2CCCCC2)cc1

>  <score_type>  (45) 
oracle

>  <origin>  (45) 
autodockgpu

>  <m_score__min__energy>  (45) 
-9.5

>  <m_primary>  (45) 
energy

>  <rmsd>  (45) 
11.281214517514277

>  <m_score__min__rmsd>  (45) 
11.281214517514277

>  <meeko>  (45) 
{"free_energy": -8.55, "intermolecular_energy": -10.64, "internal_energy": -1.81, "cluster_size": 13, "cluster_id": 1, "rank_in_cluster": 9}

>  <energy>  (45) 
-8.29

>  <cluster_rmsd>  (45) 
0.0

>  <cluster>  (45) 
8

$$$$

     RDKit          3D

 55 58  0  0  0  0  0  0  0  0999 V2000
  142.4230   79.0560  222.0960 N   0  0  0  0  0  0  0  0  0  0  0  0
  140.7610   78.8370  222.4840 S   0  0  0  0  0  0  0  0  0  0  0  0
  139.9710   79.7590  221.5990 O   0  0  0  0  0  0  0  0  0  0  0  0
  140.5510   79.3120  223.8960 O   0  0  0  0  0  0  0  0  0  0  0  0
  140.2640   77.1720  222.2870 C   0  0  0  0  0  0  0  0  0  0  0  0
  138.9640   76.7820  222.5180 C   0  0  0  0  0  0  0  0  0  0  0  0
  138.5980   75.4600  222.3550 C   0  0  0  0  0  0  0  0  0  0  0  0
  139.4760   74.4730  221.9640 C   0  0  0  0  0  0  0  0  0  0  0  0
  139.1230   73.0850  221.7840 C   0  0  0  0  0  0  0  0  0  0  0  0
  139.9640   72.0730  221.9220 C   0  0  0  0  0  0  0  0  0  0  0  0
  139.9710   71.2770  223.1700 C   0  0  0  0  0  0  0  0  0  0  0  0
  140.4780   71.8840  224.2570 N   0  0  0  0  0  0  0  0  0  0  0  0
  140.5520   71.2760  225.4510 C   0  0  0  0  0  0  0  0  0  0  0  0
  141.0800   71.9210  226.5640 C   0  0  0  0  0  0  0  0  0  0  0  0
  141.1220   71.2270  227.7580 C   0  0  0  0  0  0  0  0  0  0  0  0
  140.6600   69.9310  227.8710 C   0  0  0  0  0  0  0  0  0  0  0  0
  140.1360   69.3120  226.7340 C   0  0  0  0  0  0  0  0  0  0  0  0
  139.5310   67.6540  226.8250 Cl  0  0  0  0  0  0  0  0  0  0  0  0
  140.0830   69.9830  225.5290 C   0  0  0  0  0  0  0  0  0  0  0  0
  139.5670   69.3860  224.3940 C   0  0  0  0  0  0  0  0  0  0  0  0
  139.1590   68.1860  224.5540 O   0  0  0  0  0  0  0  0  0  0  0  0
  139.4990   70.0130  223.2010 N   0  0  0  0  0  0  0  0  0  0  0  0
  138.9370   69.3880  222.0450 C   0  0  0  0  0  0  0  0  0  0  0  0
  137.4430   69.5080  222.0620 C   0  0  0  0  0  0  0  0  0  0  0  0
  136.8030   68.3070  222.7470 C   0  0  0  0  0  0  0  0  0  0  0  0
  135.5030   68.7550  223.3410 C   0  0  0  0  0  0  0  0  0  0  0  0
  135.7170   69.7460  224.4640 C   0  0  0  0  0  0  0  0  0  0  0  0
  136.7310   70.8100  224.0740 C   0  0  0  0  0  0  0  0  0  0  0  0
  136.9140   70.8000  222.5660 C   0  0  0  0  0  0  0  0  0  0  0  0
  140.7900   74.8970  221.7360 C   0  0  0  0  0  0  0  0  0  0  0  0
  141.1710   76.2130  221.8940 C   0  0  0  0  0  0  0  0  0  0  0  0
  142.9540   78.2730  222.5310 H   0  0  0  0  0  0  0  0  0  0  0  0
  142.6000   79.1320  221.0720 H   0  0  0  0  0  0  0  0  0  0  0  0
  138.2157   77.5242  222.8328 H   0  0  0  0  0  0  0  0  0  0  0  0
  137.5515   75.1810  222.5473 H   0  0  0  0  0  0  0  0  0  0  0  0
  138.0825   72.8525  221.5133 H   0  0  0  0  0  0  0  0  0  0  0  0
  140.6596   71.8226  221.1075 H   0  0  0  0  0  0  0  0  0  0  0  0
  141.4533   72.9535  226.4959 H   0  0  0  0  0  0  0  0  0  0  0  0
  141.5371   71.7233  228.6476 H   0  0  0  0  0  0  0  0  0  0  0  0
  140.7035   69.3990  228.8328 H   0  0  0  0  0  0  0  0  0  0  0  0
  139.3299   69.8768  221.1413 H   0  0  0  0  0  0  0  0  0  0  0  0
  139.2100   68.3224  222.0466 H   0  0  0  0  0  0  0  0  0  0  0  0
  137.1433   69.5051  221.0036 H   0  0  0  0  0  0  0  0  0  0  0  0
  136.6227   67.5093  222.0113 H   0  0  0  0  0  0  0  0  0  0  0  0
  137.4672   67.9137  223.5307 H   0  0  0  0  0  0  0  0  0  0  0  0
  134.8966   69.2303  222.5559 H   0  0  0  0  0  0  0  0  0  0  0  0
  134.9904   67.8732  223.7528 H   0  0  0  0  0  0  0  0  0  0  0  0
  134.7592   70.2328  224.7001 H   0  0  0  0  0  0  0  0  0  0  0  0
  136.1024   69.2023  225.3391 H   0  0  0  0  0  0  0  0  0  0  0  0
  136.3683   71.7981  224.3936 H   0  0  0  0  0  0  0  0  0  0  0  0
  137.6933   70.5992  224.5635 H   0  0  0  0  0  0  0  0  0  0  0  0
  135.9398   70.9904  222.0920 H   0  0  0  0  0  0  0  0  0  0  0  0
  137.6477   71.5802  222.3150 H   0  0  0  0  0  0  0  0  0  0  0  0
  141.5417   74.1582  221.4212 H   0  0  0  0  0  0  0  0  0  0  0  0
  142.2153   76.5011  221.7032 H   0  0  0  0  0  0  0  0  0  0  0  0
  1  2  1  0
  2  3  2  0
  2  4  2  0
  2  5  1  0
  5  6  2  0
  6  7  1  0
  7  8  2  0
  8  9  1  0
  9 10  2  0
 10 11  1  0
 11 12  2  0
 12 13  1  0
 13 14  2  0
 14 15  1  0
 15 16  2  0
 16 17  1  0
 17 18  1  0
 17 19  2  0
 19 20  1  0
 20 21  2  0
 20 22  1  0
 22 23  1  0
 23 24  1  0
 24 25  1  0
 25 26  1  0
 26 27  1  0
 27 28  1  0
 28 29  1  0
  8 30  1  0
 30 31  2  0
 31  5  1  0
 22 11  1  0
 29 24  1  0
 19 13  1  0
  1 32  1  0
  1 33  1  0
  6 34  1  0
  7 35  1  0
  9 36  1  0
 10 37  1  0
 14 38  1  0
 15 39  1  0
 16 40  1  0
 23 41  1  0
 23 42  1  0
 24 43  1  0
 25 44  1  0
 25 45  1  0
 26 46  1  0
 26 47  1  0
 27 48  1  0
 27 49  1  0
 28 50  1  0
 28 51  1  0
 29 52  1  0
 29 53  1  0
 30 54  1  0
 31 55  1  0
M  END
>  <smiles>  (46) 
NS(=O)(=O)c1ccc(/C=C/c2nc3cccc(Cl)c3c(=O)n2CC2CCCCC2)cc1

>  <score_type>  (46) 
oracle

>  <origin>  (46) 
autodockgpu

>  <m_score__min__energy>  (46) 
-9.5

>  <m_primary>  (46) 
energy

>  <rmsd>  (46) 
11.126834059531355

>  <m_score__min__rmsd>  (46) 
11.126834059531355

>  <meeko>  (46) 
{"free_energy": -8.81, "intermolecular_energy": -10.9, "internal_energy": -1.86, "cluster_size": 11, "cluster_id": 3, "rank_in_cluster": 4}

>  <energy>  (46) 
-7.94

>  <cluster_rmsd>  (46) 
0.0

>  <cluster>  (46) 
9

$$$$

     RDKit          3D

 55 58  0  0  0  0  0  0  0  0999 V2000
  142.5680   79.2090  222.3590 N   0  0  0  0  0  0  0  0  0  0  0  0
  140.8650   78.9960  222.2330 S   0  0  0  0  0  0  0  0  0  0  0  0
  140.4060   79.7730  221.0310 O   0  0  0  0  0  0  0  0  0  0  0  0
  140.2300   79.6450  223.4320 O   0  0  0  0  0  0  0  0  0  0  0  0
  140.4310   77.3060  222.1130 C   0  0  0  0  0  0  0  0  0  0  0  0
  141.3270   76.3690  221.6490 C   0  0  0  0  0  0  0  0  0  0  0  0
  140.9590   75.0400  221.5650 C   0  0  0  0  0  0  0  0  0  0  0  0
  139.7140   74.5750  221.9270 C   0  0  0  0  0  0  0  0  0  0  0  0
  139.3000   73.1940  221.8520 C   0  0  0  0  0  0  0  0  0  0  0  0
  140.1100   72.1590  222.0010 C   0  0  0  0  0  0  0  0  0  0  0  0
  140.0760   71.3610  223.2470 C   0  0  0  0  0  0  0  0  0  0  0  0
  140.5510   71.9660  224.3500 N   0  0  0  0  0  0  0  0  0  0  0  0
  140.5860   71.3570  225.5460 C   0  0  0  0  0  0  0  0  0  0  0  0
  141.0810   71.9990  226.6750 C   0  0  0  0  0  0  0  0  0  0  0  0
  141.0840   71.3030  227.8690 C   0  0  0  0  0  0  0  0  0  0  0  0
  140.6140   70.0090  227.9660 C   0  0  0  0  0  0  0  0  0  0  0  0
  140.1230   69.3920  226.8130 C   0  0  0  0  0  0  0  0  0  0  0  0
  139.5100   67.7360  226.8830 Cl  0  0  0  0  0  0  0  0  0  0  0  0
  140.1100   70.0650  225.6070 C   0  0  0  0  0  0  0  0  0  0  0  0
  139.6280   69.4710  224.4560 C   0  0  0  0  0  0  0  0  0  0  0  0
  139.2110   68.2720  224.6030 O   0  0  0  0  0  0  0  0  0  0  0  0
  139.5980   70.0990  223.2620 N   0  0  0  0  0  0  0  0  0  0  0  0
  139.0710   69.4780  222.0890 C   0  0  0  0  0  0  0  0  0  0  0  0
  137.5770   69.5970  222.0640 C   0  0  0  0  0  0  0  0  0  0  0  0
  136.9220   68.4680  222.8500 C   0  0  0  0  0  0  0  0  0  0  0  0
  135.6100   68.9700  223.3700 C   0  0  0  0  0  0  0  0  0  0  0  0
  135.8020   70.0670  224.3940 C   0  0  0  0  0  0  0  0  0  0  0  0
  136.8240   71.0890  223.9220 C   0  0  0  0  0  0  0  0  0  0  0  0
  137.0380   70.9310  222.4270 C   0  0  0  0  0  0  0  0  0  0  0  0
  138.8230   75.5470  222.3960 C   0  0  0  0  0  0  0  0  0  0  0  0
  139.1760   76.8780  222.4860 C   0  0  0  0  0  0  0  0  0  0  0  0
  142.9960   78.2670  222.4730 H   0  0  0  0  0  0  0  0  0  0  0  0
  142.9780   79.7340  221.5560 H   0  0  0  0  0  0  0  0  0  0  0  0
  142.3375   76.6792  221.3447 H   0  0  0  0  0  0  0  0  0  0  0  0
  141.6978   74.3164  221.1900 H   0  0  0  0  0  0  0  0  0  0  0  0
  138.2371   72.9882  221.6574 H   0  0  0  0  0  0  0  0  0  0  0  0
  140.8108   71.8906  221.1967 H   0  0  0  0  0  0  0  0  0  0  0  0
  141.4591   73.0305  226.6198 H   0  0  0  0  0  0  0  0  0  0  0  0
  141.4737   71.7965  228.7715 H   0  0  0  0  0  0  0  0  0  0  0  0
  140.6258   69.4763  228.9283 H   0  0  0  0  0  0  0  0  0  0  0  0
  139.4892   69.9703  221.1987 H   0  0  0  0  0  0  0  0  0  0  0  0
  139.3451   68.4127  222.0942 H   0  0  0  0  0  0  0  0  0  0  0  0
  137.2996   69.4899  221.0050 H   0  0  0  0  0  0  0  0  0  0  0  0
  136.7567   67.6018  222.1925 H   0  0  0  0  0  0  0  0  0  0  0  0
  137.5694   68.1546  223.6822 H   0  0  0  0  0  0  0  0  0  0  0  0
  135.0200   69.3648  222.5297 H   0  0  0  0  0  0  0  0  0  0  0  0
  135.0882   68.1323  223.8557 H   0  0  0  0  0  0  0  0  0  0  0  0
  134.8399   70.5732  224.5618 H   0  0  0  0  0  0  0  0  0  0  0  0
  136.1696   69.6124  225.3258 H   0  0  0  0  0  0  0  0  0  0  0  0
  136.4551   72.1031  224.1353 H   0  0  0  0  0  0  0  0  0  0  0  0
  137.7759   70.9290  224.4495 H   0  0  0  0  0  0  0  0  0  0  0  0
  136.0738   71.0719  221.9166 H   0  0  0  0  0  0  0  0  0  0  0  0
  137.7768   71.6841  222.1155 H   0  0  0  0  0  0  0  0  0  0  0  0
  137.8116   75.2410  222.7018 H   0  0  0  0  0  0  0  0  0  0  0  0
  138.4440   77.6083  222.8613 H   0  0  0  0  0  0  0  0  0  0  0  0
  1  2  1  0
  2  3  2  0
  2  4  2  0
  2  5  1  0
  5  6  2  0
  6  7  1  0
  7  8  2  0
  8  9  1  0
  9 10  2  0
 10 11  1  0
 11 12  2  0
 12 13  1  0
 13 14  2  0
 14 15  1  0
 15 16  2  0
 16 17  1  0
 17 18  1  0
 17 19  2  0
 19 20  1  0
 20 21  2  0
 20 22  1  0
 22 23  1  0
 23 24  1  0
 24 25  1  0
 25 26  1  0
 26 27  1  0
 27 28  1  0
 28 29  1  0
  8 30  1  0
 30 31  2  0
 31  5  1  0
 22 11  1  0
 29 24  1  0
 19 13  1  0
  1 32  1  0
  1 33  1  0
  6 34  1  0
  7 35  1  0
  9 36  1  0
 10 37  1  0
 14 38  1  0
 15 39  1  0
 16 40  1  0
 23 41  1  0
 23 42  1  0
 24 43  1  0
 25 44  1  0
 25 45  1  0
 26 46  1  0
 26 47  1  0
 27 48  1  0
 27 49  1  0
 28 50  1  0
 28 51  1  0
 29 52  1  0
 29 53  1  0
 30 54  1  0
 31 55  1  0
M  END
>  <smiles>  (47) 
NS(=O)(=O)c1ccc(/C=C/c2nc3cccc(Cl)c3c(=O)n2CC2CCCCC2)cc1

>  <score_type>  (47) 
oracle

>  <origin>  (47) 
autodockgpu

>  <m_score__min__energy>  (47) 
-9.5

>  <m_primary>  (47) 
energy

>  <rmsd>  (47) 
11.034321573167917

>  <m_score__min__rmsd>  (47) 
11.034321573167917

>  <meeko>  (47) 
{"free_energy": -8.9, "intermolecular_energy": -10.98, "internal_energy": -1.83, "cluster_size": 11, "cluster_id": 3, "rank_in_cluster": 1}

>  <energy>  (47) 
-7.82

>  <cluster_rmsd>  (47) 
0.87

>  <cluster>  (47) 
9

$$$$

     RDKit          3D

 55 58  0  0  0  0  0  0  0  0999 V2000
  142.3400   79.0460  222.1510 N   0  0  0  0  0  0  0  0  0  0  0  0
  140.6570   78.8140  222.4290 S   0  0  0  0  0  0  0  0  0  0  0  0
  139.9200   79.7010  221.4660 O   0  0  0  0  0  0  0  0  0  0  0  0
  140.3450   79.3230  223.8090 O   0  0  0  0  0  0  0  0  0  0  0  0
  140.1960   77.1380  222.2450 C   0  0  0  0  0  0  0  0  0  0  0  0
  138.9070   76.7200  222.4910 C   0  0  0  0  0  0  0  0  0  0  0  0
  138.5680   75.3890  222.3370 C   0  0  0  0  0  0  0  0  0  0  0  0
  139.4640   74.4210  221.9410 C   0  0  0  0  0  0  0  0  0  0  0  0
  139.1400   73.0240  221.7710 C   0  0  0  0  0  0  0  0  0  0  0  0
  139.9960   72.0290  221.9380 C   0  0  0  0  0  0  0  0  0  0  0  0
  139.9940   71.2490  223.1950 C   0  0  0  0  0  0  0  0  0  0  0  0
  140.4760   71.8770  224.2820 N   0  0  0  0  0  0  0  0  0  0  0  0
  140.5400   71.2860  225.4850 C   0  0  0  0  0  0  0  0  0  0  0  0
  141.0420   71.9520  226.5980 C   0  0  0  0  0  0  0  0  0  0  0  0
  141.0740   71.2730  227.8010 C   0  0  0  0  0  0  0  0  0  0  0  0
  140.6270   69.9730  227.9240 C   0  0  0  0  0  0  0  0  0  0  0  0
  140.1290   69.3330  226.7870 C   0  0  0  0  0  0  0  0  0  0  0  0
  139.5440   67.6680  226.8900 Cl  0  0  0  0  0  0  0  0  0  0  0  0
  140.0860   69.9870  225.5730 C   0  0  0  0  0  0  0  0  0  0  0  0
  139.5960   69.3690  224.4370 C   0  0  0  0  0  0  0  0  0  0  0  0
  139.2010   68.1660  224.6070 O   0  0  0  0  0  0  0  0  0  0  0  0
  139.5380   69.9800  223.2360 N   0  0  0  0  0  0  0  0  0  0  0  0
  139.0020   69.3330  222.0800 C   0  0  0  0  0  0  0  0  0  0  0  0
  137.5080   69.4500  222.0630 C   0  0  0  0  0  0  0  0  0  0  0  0
  136.8510   68.1740  222.5750 C   0  0  0  0  0  0  0  0  0  0  0  0
  135.5310   68.5460  223.1760 C   0  0  0  0  0  0  0  0  0  0  0  0
  135.7040   69.3920  224.4180 C   0  0  0  0  0  0  0  0  0  0  0  0
  136.7260   70.4960  224.1940 C   0  0  0  0  0  0  0  0  0  0  0  0
  136.9580   70.6700  222.7030 C   0  0  0  0  0  0  0  0  0  0  0  0
  140.7660   74.8720  221.6970 C   0  0  0  0  0  0  0  0  0  0  0  0
  141.1200   76.1970  221.8450 C   0  0  0  0  0  0  0  0  0  0  0  0
  142.8500   78.2920  222.6570 H   0  0  0  0  0  0  0  0  0  0  0  0
  142.5890   79.0810  221.1390 H   0  0  0  0  0  0  0  0  0  0  0  0
  138.1458   77.4469  222.8107 H   0  0  0  0  0  0  0  0  0  0  0  0
  137.5300   75.0876  222.5411 H   0  0  0  0  0  0  0  0  0  0  0  0
  138.1095   72.7693  221.4825 H   0  0  0  0  0  0  0  0  0  0  0  0
  140.7112   71.7811  221.1399 H   0  0  0  0  0  0  0  0  0  0  0  0
  141.4028   72.9884  226.5228 H   0  0  0  0  0  0  0  0  0  0  0  0
  141.4690   71.7857  228.6904 H   0  0  0  0  0  0  0  0  0  0  0  0
  140.6621   69.4540  228.8932 H   0  0  0  0  0  0  0  0  0  0  0  0
  139.4132   69.8062  221.1761 H   0  0  0  0  0  0  0  0  0  0  0  0
  139.2768   68.2682  222.1067 H   0  0  0  0  0  0  0  0  0  0  0  0
  137.2426   69.5766  221.0030 H   0  0  0  0  0  0  0  0  0  0  0  0
  136.6980   67.4721  221.7420 H   0  0  0  0  0  0  0  0  0  0  0  0
  137.4910   67.6880  223.3261 H   0  0  0  0  0  0  0  0  0  0  0  0
  134.9488   69.1139  222.4354 H   0  0  0  0  0  0  0  0  0  0  0  0
  135.0088   67.6204  223.4598 H   0  0  0  0  0  0  0  0  0  0  0  0
  134.7370   69.8461  224.6803 H   0  0  0  0  0  0  0  0  0  0  0  0
  136.0627   68.7455  225.2325 H   0  0  0  0  0  0  0  0  0  0  0  0
  136.3490   71.4377  224.6196 H   0  0  0  0  0  0  0  0  0  0  0  0
  137.6727   70.2272  224.6854 H   0  0  0  0  0  0  0  0  0  0  0  0
  135.9990   70.9168  222.2241 H   0  0  0  0  0  0  0  0  0  0  0  0
  137.6965   71.4749  222.5734 H   0  0  0  0  0  0  0  0  0  0  0  0
  141.5302   74.1482  221.3776 H   0  0  0  0  0  0  0  0  0  0  0  0
  142.1554   76.5072  221.6407 H   0  0  0  0  0  0  0  0  0  0  0  0
  1  2  1  0
  2  3  2  0
  2  4  2  0
  2  5  1  0
  5  6  2  0
  6  7  1  0
  7  8  2  0
  8  9  1  0
  9 10  2  0
 10 11  1  0
 11 12  2  0
 12 13  1  0
 13 14  2  0
 14 15  1  0
 15 16  2  0
 16 17  1  0
 17 18  1  0
 17 19  2  0
 19 20  1  0
 20 21  2  0
 20 22  1  0
 22 23  1  0
 23 24  1  0
 24 25  1  0
 25 26  1  0
 26 27  1  0
 27 28  1  0
 28 29  1  0
  8 30  1  0
 30 31  2  0
 31  5  1  0
 22 11  1  0
 29 24  1  0
 19 13  1  0
  1 32  1  0
  1 33  1  0
  6 34  1  0
  7 35  1  0
  9 36  1  0
 10 37  1  0
 14 38  1  0
 15 39  1  0
 16 40  1  0
 23 41  1  0
 23 42  1  0
 24 43  1  0
 25 44  1  0
 25 45  1  0
 26 46  1  0
 26 47  1  0
 27 48  1  0
 27 49  1  0
 28 50  1  0
 28 51  1  0
 29 52  1  0
 29 53  1  0
 30 54  1  0
 31 55  1  0
M  END
>  <smiles>  (48) 
NS(=O)(=O)c1ccc(/C=C/c2nc3cccc(Cl)c3c(=O)n2CC2CCCCC2)cc1

>  <score_type>  (48) 
oracle

>  <origin>  (48) 
autodockgpu

>  <m_score__min__energy>  (48) 
-9.5

>  <m_primary>  (48) 
energy

>  <rmsd>  (48) 
11.147654620013965

>  <m_score__min__rmsd>  (48) 
11.147654620013965

>  <meeko>  (48) 
{"free_energy": -8.86, "intermolecular_energy": -10.95, "internal_energy": -1.82, "cluster_size": 11, "cluster_id": 3, "rank_in_cluster": 2}

>  <energy>  (48) 
-7.81

>  <cluster_rmsd>  (48) 
1.18

>  <cluster>  (48) 
9

$$$$

     RDKit          3D

 55 58  0  0  0  0  0  0  0  0999 V2000
  142.3690   79.3330  221.9890 N   0  0  0  0  0  0  0  0  0  0  0  0
  140.7430   78.7870  221.8480 S   0  0  0  0  0  0  0  0  0  0  0  0
  140.1520   79.4530  220.6380 O   0  0  0  0  0  0  0  0  0  0  0  0
  139.9810   79.3020  223.0380 O   0  0  0  0  0  0  0  0  0  0  0  0
  140.6530   77.0440  221.7340 C   0  0  0  0  0  0  0  0  0  0  0  0
  141.6000   76.3230  221.0410 C   0  0  0  0  0  0  0  0  0  0  0  0
  141.5050   74.9470  220.9670 C   0  0  0  0  0  0  0  0  0  0  0  0
  140.4930   74.2240  221.5600 C   0  0  0  0  0  0  0  0  0  0  0  0
  140.3680   72.7870  221.5000 C   0  0  0  0  0  0  0  0  0  0  0  0
  139.3390   72.1030  221.9710 C   0  0  0  0  0  0  0  0  0  0  0  0
  139.4860   71.2850  223.1950 C   0  0  0  0  0  0  0  0  0  0  0  0
  140.0890   71.8830  224.2370 N   0  0  0  0  0  0  0  0  0  0  0  0
  140.2950   71.2560  225.4060 C   0  0  0  0  0  0  0  0  0  0  0  0
  140.9210   71.8910  226.4730 C   0  0  0  0  0  0  0  0  0  0  0  0
  141.0960   71.1770  227.6420 C   0  0  0  0  0  0  0  0  0  0  0  0
  140.6710   69.8700  227.7760 C   0  0  0  0  0  0  0  0  0  0  0  0
  140.0460   69.2610  226.6850 C   0  0  0  0  0  0  0  0  0  0  0  0
  139.4840   67.5890  226.8040 Cl  0  0  0  0  0  0  0  0  0  0  0  0
  139.8600   69.9520  225.5050 C   0  0  0  0  0  0  0  0  0  0  0  0
  139.2430   69.3650  224.4160 C   0  0  0  0  0  0  0  0  0  0  0  0
  138.8750   68.1550  224.5930 O   0  0  0  0  0  0  0  0  0  0  0  0
  139.0420   70.0120  223.2490 N   0  0  0  0  0  0  0  0  0  0  0  0
  138.3780   69.3970  222.1430 C   0  0  0  0  0  0  0  0  0  0  0  0
  136.8960   69.5900  222.2540 C   0  0  0  0  0  0  0  0  0  0  0  0
  136.2600   68.4920  223.0980 C   0  0  0  0  0  0  0  0  0  0  0  0
  135.0270   69.0570  223.7340 C   0  0  0  0  0  0  0  0  0  0  0  0
  135.3650   70.1400  224.7350 C   0  0  0  0  0  0  0  0  0  0  0  0
  136.3900   71.1110  224.1710 C   0  0  0  0  0  0  0  0  0  0  0  0
  136.4600   70.9480  222.6630 C   0  0  0  0  0  0  0  0  0  0  0  0
  139.5450   74.9810  222.2570 C   0  0  0  0  0  0  0  0  0  0  0  0
  139.6250   76.3550  222.3410 C   0  0  0  0  0  0  0  0  0  0  0  0
  142.9120   78.5840  222.4670 H   0  0  0  0  0  0  0  0  0  0  0  0
  142.7920   79.6050  221.0750 H   0  0  0  0  0  0  0  0  0  0  0  0
  142.4330   76.8436  220.5459 H   0  0  0  0  0  0  0  0  0  0  0  0
  142.2770   74.4002  220.4057 H   0  0  0  0  0  0  0  0  0  0  0  0
  141.1859   72.2216  221.0296 H   0  0  0  0  0  0  0  0  0  0  0  0
  138.3705   72.1423  221.4510 H   0  0  0  0  0  0  0  0  0  0  0  0
  141.2668   72.9318  226.3883 H   0  0  0  0  0  0  0  0  0  0  0  0
  141.5903   71.6656  228.4946 H   0  0  0  0  0  0  0  0  0  0  0  0
  140.8208   69.3222  228.7180 H   0  0  0  0  0  0  0  0  0  0  0  0
  138.7342   69.8521  221.2071 H   0  0  0  0  0  0  0  0  0  0  0  0
  138.6000   68.3196  222.1462 H   0  0  0  0  0  0  0  0  0  0  0  0
  136.5177   69.5001  221.2250 H   0  0  0  0  0  0  0  0  0  0  0  0
  135.9931   67.6369  222.4596 H   0  0  0  0  0  0  0  0  0  0  0  0
  136.9639   68.1442  223.8684 H   0  0  0  0  0  0  0  0  0  0  0  0
  134.3838   69.4832  222.9500 H   0  0  0  0  0  0  0  0  0  0  0  0
  134.5103   68.2447  224.2662 H   0  0  0  0  0  0  0  0  0  0  0  0
  134.4485   70.6931  224.9882 H   0  0  0  0  0  0  0  0  0  0  0  0
  135.7919   69.6649  225.6306 H   0  0  0  0  0  0  0  0  0  0  0  0
  136.0932   72.1416  224.4157 H   0  0  0  0  0  0  0  0  0  0  0  0
  137.3765   70.9013  224.6102 H   0  0  0  0  0  0  0  0  0  0  0  0
  135.4621   71.1391  222.2416 H   0  0  0  0  0  0  0  0  0  0  0  0
  137.2047   71.6641  222.2854 H   0  0  0  0  0  0  0  0  0  0  0  0
  138.7103   74.4642  222.7532 H   0  0  0  0  0  0  0  0  0  0  0  0
  138.8572   76.9094  222.9006 H   0  0  0  0  0  0  0  0  0  0  0  0
  1  2  1  0
  2  3  2  0
  2  4  2  0
  2  5  1  0
  5  6  2  0
  6  7  1  0
  7  8  2  0
  8  9  1  0
  9 10  2  0
 10 11  1  0
 11 12  2  0
 12 13  1  0
 13 14  2  0
 14 15  1  0
 15 16  2  0
 16 17  1  0
 17 18  1  0
 17 19  2  0
 19 20  1  0
 20 21  2  0
 20 22  1  0
 22 23  1  0
 23 24  1  0
 24 25  1  0
 25 26  1  0
 26 27  1  0
 27 28  1  0
 28 29  1  0
  8 30  1  0
 30 31  2  0
 31  5  1  0
 22 11  1  0
 29 24  1  0
 19 13  1  0
  1 32  1  0
  1 33  1  0
  6 34  1  0
  7 35  1  0
  9 36  1  0
 10 37  1  0
 14 38  1  0
 15 39  1  0
 16 40  1  0
 23 41  1  0
 23 42  1  0
 24 43  1  0
 25 44  1  0
 25 45  1  0
 26 46  1  0
 26 47  1  0
 27 48  1  0
 27 49  1  0
 28 50  1  0
 28 51  1  0
 29 52  1  0
 29 53  1  0
 30 54  1  0
 31 55  1  0
M  END
>  <smiles>  (49) 
NS(=O)(=O)c1ccc(/C=C/c2nc3cccc(Cl)c3c(=O)n2CC2CCCCC2)cc1

>  <score_type>  (49) 
oracle

>  <origin>  (49) 
autodockgpu

>  <m_score__min__energy>  (49) 
-9.5

>  <m_primary>  (49) 
energy

>  <rmsd>  (49) 
11.228176128591672

>  <m_score__min__rmsd>  (49) 
11.228176128591672

>  <meeko>  (49) 
{"free_energy": -8.41, "intermolecular_energy": -10.5, "internal_energy": -1.71, "cluster_size": 11, "cluster_id": 3, "rank_in_cluster": 10}

>  <energy>  (49) 
-7.58

>  <cluster_rmsd>  (49) 
0.95

>  <cluster>  (49) 
9

$$$$

     RDKit          3D

 55 58  0  0  0  0  0  0  0  0999 V2000
  146.0300   72.8790  219.3380 N   0  0  0  0  0  0  0  0  0  0  0  0
  145.2580   73.4610  220.7620 S   0  0  0  0  0  0  0  0  0  0  0  0
  145.5160   74.9390  220.8380 O   0  0  0  0  0  0  0  0  0  0  0  0
  145.9500   72.8420  221.9460 O   0  0  0  0  0  0  0  0  0  0  0  0
  143.5460   73.1030  220.7620 C   0  0  0  0  0  0  0  0  0  0  0  0
  143.0780   71.8450  221.0700 C   0  0  0  0  0  0  0  0  0  0  0  0
  141.7200   71.5900  221.0620 C   0  0  0  0  0  0  0  0  0  0  0  0
  140.7720   72.5420  220.7580 C   0  0  0  0  0  0  0  0  0  0  0  0
  139.3480   72.3050  220.7430 C   0  0  0  0  0  0  0  0  0  0  0  0
  138.5940   72.1950  221.8240 C   0  0  0  0  0  0  0  0  0  0  0  0
  139.0090   71.3070  222.9330 C   0  0  0  0  0  0  0  0  0  0  0  0
  139.7500   71.8760  223.9000 N   0  0  0  0  0  0  0  0  0  0  0  0
  140.2010   71.1860  224.9600 C   0  0  0  0  0  0  0  0  0  0  0  0
  140.9670   71.7910  225.9500 C   0  0  0  0  0  0  0  0  0  0  0  0
  141.3920   71.0120  227.0080 C   0  0  0  0  0  0  0  0  0  0  0  0
  141.0800   69.6710  227.1070 C   0  0  0  0  0  0  0  0  0  0  0  0
  140.3090   69.0940  226.0960 C   0  0  0  0  0  0  0  0  0  0  0  0
  139.8810   67.3800  226.1730 Cl  0  0  0  0  0  0  0  0  0  0  0  0
  139.8710   69.8490  225.0260 C   0  0  0  0  0  0  0  0  0  0  0  0
  139.1070   69.2950  224.0170 C   0  0  0  0  0  0  0  0  0  0  0  0
  138.8520   68.0500  224.1560 O   0  0  0  0  0  0  0  0  0  0  0  0
  138.6610   70.0030  222.9590 N   0  0  0  0  0  0  0  0  0  0  0  0
  137.8500   69.4180  221.9390 C   0  0  0  0  0  0  0  0  0  0  0  0
  136.3980   69.5510  222.2890 C   0  0  0  0  0  0  0  0  0  0  0  0
  135.8210   68.2190  222.7540 C   0  0  0  0  0  0  0  0  0  0  0  0
  134.6920   68.5100  223.6940 C   0  0  0  0  0  0  0  0  0  0  0  0
  135.1840   69.1620  224.9680 C   0  0  0  0  0  0  0  0  0  0  0  0
  136.1740   70.2770  224.6700 C   0  0  0  0  0  0  0  0  0  0  0  0
  136.0640   70.6680  223.2070 C   0  0  0  0  0  0  0  0  0  0  0  0
  141.2740   73.8110  220.4500 C   0  0  0  0  0  0  0  0  0  0  0  0
  142.6270   74.0820  220.4530 C   0  0  0  0  0  0  0  0  0  0  0  0
  146.4680   73.6950  218.8610 H   0  0  0  0  0  0  0  0  0  0  0  0
  146.7160   72.1160  219.5240 H   0  0  0  0  0  0  0  0  0  0  0  0
  143.7862   71.0421  221.3227 H   0  0  0  0  0  0  0  0  0  0  0  0
  141.3784   70.5745  221.3112 H   0  0  0  0  0  0  0  0  0  0  0  0
  138.8557   72.2092  219.7640 H   0  0  0  0  0  0  0  0  0  0  0  0
  137.6561   72.7649  221.8991 H   0  0  0  0  0  0  0  0  0  0  0  0
  141.2267   72.8583  225.8922 H   0  0  0  0  0  0  0  0  0  0  0  0
  141.9998   71.4759  227.7988 H   0  0  0  0  0  0  0  0  0  0  0  0
  141.4299   69.0721  227.9608 H   0  0  0  0  0  0  0  0  0  0  0  0
  138.0417   69.9302  220.9846 H   0  0  0  0  0  0  0  0  0  0  0  0
  138.1006   68.3506  221.8506 H   0  0  0  0  0  0  0  0  0  0  0  0
  135.9018   69.8365  221.3497 H   0  0  0  0  0  0  0  0  0  0  0  0
  135.4499   67.6500  221.8889 H   0  0  0  0  0  0  0  0  0  0  0  0
  136.5947   67.6209  223.2576 H   0  0  0  0  0  0  0  0  0  0  0  0
  133.9798   69.1863  223.1985 H   0  0  0  0  0  0  0  0  0  0  0  0
  134.2092   67.5576  223.9583 H   0  0  0  0  0  0  0  0  0  0  0  0
  134.3244   69.5815  225.5112 H   0  0  0  0  0  0  0  0  0  0  0  0
  135.6925   68.3987  225.5753 H   0  0  0  0  0  0  0  0  0  0  0  0
  135.9467   71.1486  225.3014 H   0  0  0  0  0  0  0  0  0  0  0  0
  137.1957   69.9292  224.8826 H   0  0  0  0  0  0  0  0  0  0  0  0
  135.0322   70.9922  223.0060 H   0  0  0  0  0  0  0  0  0  0  0  0
  136.7873   71.4762  223.0238 H   0  0  0  0  0  0  0  0  0  0  0  0
  140.5690   74.6169  220.1979 H   0  0  0  0  0  0  0  0  0  0  0  0
  142.9772   75.0949  220.2050 H   0  0  0  0  0  0  0  0  0  0  0  0
  1  2  1  0
  2  3  2  0
  2  4  2  0
  2  5  1  0
  5  6  2  0
  6  7  1  0
  7  8  2  0
  8  9  1  0
  9 10  2  0
 10 11  1  0
 11 12  2  0
 12 13  1  0
 13 14  2  0
 14 15  1  0
 15 16  2  0
 16 17  1  0
 17 18  1  0
 17 19  2  0
 19 20  1  0
 20 21  2  0
 20 22  1  0
 22 23  1  0
 23 24  1  0
 24 25  1  0
 25 26  1  0
 26 27  1  0
 27 28  1  0
 28 29  1  0
  8 30  1  0
 30 31  2  0
 31  5  1  0
 22 11  1  0
 29 24  1  0
 19 13  1  0
  1 32  1  0
  1 33  1  0
  6 34  1  0
  7 35  1  0
  9 36  1  0
 10 37  1  0
 14 38  1  0
 15 39  1  0
 16 40  1  0
 23 41  1  0
 23 42  1  0
 24 43  1  0
 25 44  1  0
 25 45  1  0
 26 46  1  0
 26 47  1  0
 27 48  1  0
 27 49  1  0
 28 50  1  0
 28 51  1  0
 29 52  1  0
 29 53  1  0
 30 54  1  0
 31 55  1  0
M  END
>  <smiles>  (50) 
NS(=O)(=O)c1ccc(/C=C/c2nc3cccc(Cl)c3c(=O)n2CC2CCCCC2)cc1

>  <score_type>  (50) 
oracle

>  <origin>  (50) 
autodockgpu

>  <m_score__min__energy>  (50) 
-9.5

>  <m_primary>  (50) 
energy

>  <rmsd>  (50) 
11.38779955117246

>  <m_score__min__rmsd>  (50) 
11.38779955117246

>  <meeko>  (50) 
{"free_energy": -7.77, "intermolecular_energy": -9.86, "internal_energy": -1.93, "cluster_size": 13, "cluster_id": 1, "rank_in_cluster": 13}

>  <energy>  (50) 
-7.39

>  <cluster_rmsd>  (50) 
0.0

>  <cluster>  (50) 
10

$$$$
