
     RDKit          3D

 64 68  0  0  0  0  0  0  0  0999 V2000
  140.9500   67.8190  227.5370 C   0  0  0  0  0  0  0  0  0  0  0  0
  141.0340   69.1430  227.8820 C   0  0  0  0  0  0  0  0  0  0  0  0
  140.4750   70.1430  227.1290 C   0  0  0  0  0  0  0  0  0  0  0  0
  139.8020   69.7700  225.9700 C   0  0  0  0  0  0  0  0  0  0  0  0
  139.1920   70.8300  225.1400 C   0  0  0  0  0  0  0  0  0  0  0  0
  138.4520   70.2920  223.9330 C   0  0  0  0  0  0  0  0  0  0  0  0
  138.7480   71.0880  222.6830 C   0  0  0  0  0  0  0  0  0  0  0  0
  140.1460   71.3430  222.5910 N   0  0  0  0  0  0  0  0  0  0  0  0
  140.7410   72.5190  222.0670 C   0  0  0  0  0  0  0  0  0  0  0  0
  141.8810   72.5260  221.2940 C   0  0  0  0  0  0  0  0  0  0  0  0
  142.4440   73.6870  220.8060 C   0  0  0  0  0  0  0  0  0  0  0  0
  143.6190   73.7140  220.0070 N   0  0  0  0  0  0  0  0  0  0  0  0
  144.8930   74.2000  220.4350 C   0  0  0  0  0  0  0  0  0  0  0  0
  146.0230   73.3730  219.8310 C   0  0  0  0  0  0  0  0  0  0  0  0
  145.9520   73.3070  218.4040 N   0  0  0  0  0  0  0  0  0  0  0  0
  144.6950   73.7630  217.8580 C   0  0  0  0  0  0  0  0  0  0  0  0
  143.5300   73.2060  218.6310 C   0  0  0  0  0  0  0  0  0  0  0  0
  141.8130   74.8370  221.1300 N   0  0  0  0  0  0  0  0  0  0  0  0
  140.7050   74.8850  221.8750 C   0  0  0  0  0  0  0  0  0  0  0  0
  140.1100   76.1500  222.1630 N   0  0  0  0  0  0  0  0  0  0  0  0
  138.6720   76.1900  222.2650 C   0  0  0  0  0  0  0  0  0  0  0  0
  138.0710   77.4810  222.6550 C   0  0  0  0  0  0  0  0  0  0  0  0
  139.0010   78.5790  222.9410 C   0  0  0  0  0  0  0  0  0  0  0  0
  138.4350   79.7760  223.3930 C   0  0  0  0  0  0  0  0  0  0  0  0
  139.2660   80.8610  223.6860 C   0  0  0  0  0  0  0  0  0  0  0  0
  140.6390   80.7870  223.5400 C   0  0  0  0  0  0  0  0  0  0  0  0
  141.1500   79.5870  223.0930 C   0  0  0  0  0  0  0  0  0  0  0  0
  140.3550   78.5050  222.7980 C   0  0  0  0  0  0  0  0  0  0  0  0
  140.9920   77.2760  222.3290 C   0  0  0  0  0  0  0  0  0  0  0  0
  140.1960   73.7390  222.3240 N   0  0  0  0  0  0  0  0  0  0  0  0
  139.7160   68.4430  225.6190 C   0  0  0  0  0  0  0  0  0  0  0  0
  140.2780   67.4280  226.3770 C   0  0  0  0  0  0  0  0  0  0  0  0
  141.4161   67.0577  228.1797 H   0  0  0  0  0  0  0  0  0  0  0  0
  141.5726   69.4145  228.8019 H   0  0  0  0  0  0  0  0  0  0  0  0
  140.5554   71.1982  227.4292 H   0  0  0  0  0  0  0  0  0  0  0  0
  138.4822   71.3956  225.7616 H   0  0  0  0  0  0  0  0  0  0  0  0
  140.0100   71.4632  224.7660 H   0  0  0  0  0  0  0  0  0  0  0  0
  138.7545   69.2474  223.7681 H   0  0  0  0  0  0  0  0  0  0  0  0
  137.3735   70.3681  224.1354 H   0  0  0  0  0  0  0  0  0  0  0  0
  138.4226   70.5167  221.8011 H   0  0  0  0  0  0  0  0  0  0  0  0
  138.2072   72.0449  222.7262 H   0  0  0  0  0  0  0  0  0  0  0  0
  140.8260   70.6000  222.9400 H   0  0  0  0  0  0  0  0  0  0  0  0
  142.3624   71.5660  221.0559 H   0  0  0  0  0  0  0  0  0  0  0  0
  145.0040   75.2473  220.1174 H   0  0  0  0  0  0  0  0  0  0  0  0
  144.9482   74.1223  221.5309 H   0  0  0  0  0  0  0  0  0  0  0  0
  146.9835   73.8273  220.1156 H   0  0  0  0  0  0  0  0  0  0  0  0
  145.9298   72.3475  220.2178 H   0  0  0  0  0  0  0  0  0  0  0  0
  146.7320   73.7610  217.9000 H   0  0  0  0  0  0  0  0  0  0  0  0
  144.6623   74.8616  217.9024 H   0  0  0  0  0  0  0  0  0  0  0  0
  144.6208   73.4137  216.8176 H   0  0  0  0  0  0  0  0  0  0  0  0
  142.5856   73.5333  218.1718 H   0  0  0  0  0  0  0  0  0  0  0  0
  143.5560   72.1063  218.6253 H   0  0  0  0  0  0  0  0  0  0  0  0
  138.2603   75.9137  221.2831 H   0  0  0  0  0  0  0  0  0  0  0  0
  138.4204   75.4957  223.0803 H   0  0  0  0  0  0  0  0  0  0  0  0
  137.4145   77.8050  221.8340 H   0  0  0  0  0  0  0  0  0  0  0  0
  137.5533   77.2845  223.6055 H   0  0  0  0  0  0  0  0  0  0  0  0
  137.3454   79.8625  223.5167 H   0  0  0  0  0  0  0  0  0  0  0  0
  138.8156   81.7991  224.0424 H   0  0  0  0  0  0  0  0  0  0  0  0
  141.2910   81.6428  223.7690 H   0  0  0  0  0  0  0  0  0  0  0  0
  142.2386   79.4915  222.9673 H   0  0  0  0  0  0  0  0  0  0  0  0
  141.4613   77.4863  221.3566 H   0  0  0  0  0  0  0  0  0  0  0  0
  141.7092   76.9876  223.1115 H   0  0  0  0  0  0  0  0  0  0  0  0
  139.1782   68.1759  224.6973 H   0  0  0  0  0  0  0  0  0  0  0  0
  140.1990   66.3715  226.0809 H   0  0  0  0  0  0  0  0  0  0  0  0
  1  2  2  0
  2  3  1  0
  3  4  2  0
  4  5  1  0
  5  6  1  0
  6  7  1  0
  7  8  1  0
  8  9  1  0
  9 10  2  0
 10 11  1  0
 11 12  1  0
 12 13  1  0
 13 14  1  0
 14 15  1  0
 15 16  1  0
 16 17  1  0
 11 18  2  0
 18 19  1  0
 19 20  1  0
 20 21  1  0
 21 22  1  0
 22 23  1  0
 23 24  2  0
 24 25  1  0
 25 26  2  0
 26 27  1  0
 27 28  2  0
 28 29  1  0
 19 30  2  0
  4 31  1  0
 31 32  2  0
 32  1  1  0
 30  9  1  0
 17 12  1  0
 29 20  1  0
 28 23  1  0
  1 33  1  0
  2 34  1  0
  3 35  1  0
  5 36  1  0
  5 37  1  0
  6 38  1  0
  6 39  1  0
  7 40  1  0
  7 41  1  0
  8 42  1  0
 10 43  1  0
 13 44  1  0
 13 45  1  0
 14 46  1  0
 14 47  1  0
 15 48  1  0
 16 49  1  0
 16 50  1  0
 17 51  1  0
 17 52  1  0
 21 53  1  0
 21 54  1  0
 22 55  1  0
 22 56  1  0
 24 57  1  0
 25 58  1  0
 26 59  1  0
 27 60  1  0
 29 61  1  0
 29 62  1  0
 31 63  1  0
 32 64  1  0
M  END
>  <smiles>  (1) 
c1ccc(CCCNc2cc(N3CCNCC3)nc(N3CCc4ccccc4C3)n2)cc1

>  <score_type>  (1) 
oracle

>  <origin>  (1) 
autodockgpu

>  <m_score__min__energy>  (1) 
-10.25

>  <m_primary>  (1) 
energy

>  <rmsd>  (1) 
2.1304579281117317

>  <m_score__min__rmsd>  (1) 
2.1304579281117317

>  <meeko>  (1) 
{"free_energy": -9.72, "intermolecular_energy": -11.81, "internal_energy": -1.01, "cluster_size": 50, "cluster_id": 1, "rank_in_cluster": 38}

>  <energy>  (1) 
-10.25

>  <cluster_rmsd>  (1) 
0.0

>  <cluster>  (1) 
1

$$$$

     RDKit          3D

 64 68  0  0  0  0  0  0  0  0999 V2000
  142.3090   80.9710  223.6690 C   0  0  0  0  0  0  0  0  0  0  0  0
  140.9440   80.8870  223.7720 C   0  0  0  0  0  0  0  0  0  0  0  0
  140.2150   79.8890  223.1790 C   0  0  0  0  0  0  0  0  0  0  0  0
  140.9150   78.9350  222.4470 C   0  0  0  0  0  0  0  0  0  0  0  0
  140.1520   77.8490  221.7980 C   0  0  0  0  0  0  0  0  0  0  0  0
  139.1820   77.1580  222.7340 C   0  0  0  0  0  0  0  0  0  0  0  0
  138.1920   76.2920  221.9900 C   0  0  0  0  0  0  0  0  0  0  0  0
  138.8740   75.4890  221.0340 N   0  0  0  0  0  0  0  0  0  0  0  0
  139.8640   74.5150  221.3250 C   0  0  0  0  0  0  0  0  0  0  0  0
  141.0960   74.4620  220.7110 C   0  0  0  0  0  0  0  0  0  0  0  0
  142.0350   73.4960  221.0060 C   0  0  0  0  0  0  0  0  0  0  0  0
  143.3120   73.4260  220.3830 N   0  0  0  0  0  0  0  0  0  0  0  0
  144.3200   74.4360  220.4630 C   0  0  0  0  0  0  0  0  0  0  0  0
  145.7110   73.8140  220.5110 C   0  0  0  0  0  0  0  0  0  0  0  0
  145.9550   72.9290  219.4130 N   0  0  0  0  0  0  0  0  0  0  0  0
  144.7680   72.5750  218.6710 C   0  0  0  0  0  0  0  0  0  0  0  0
  143.6300   72.2290  219.5930 C   0  0  0  0  0  0  0  0  0  0  0  0
  141.6830   72.5890  221.9430 N   0  0  0  0  0  0  0  0  0  0  0  0
  140.5020   72.5960  222.5690 C   0  0  0  0  0  0  0  0  0  0  0  0
  140.2220   71.5940  223.5450 N   0  0  0  0  0  0  0  0  0  0  0  0
  139.4900   70.4340  223.1010 C   0  0  0  0  0  0  0  0  0  0  0  0
  139.2860   69.3600  224.0950 C   0  0  0  0  0  0  0  0  0  0  0  0
  139.8860   69.5650  225.4170 C   0  0  0  0  0  0  0  0  0  0  0  0
  139.7650   68.5110  226.3290 C   0  0  0  0  0  0  0  0  0  0  0  0
  140.3160   68.6410  227.6060 C   0  0  0  0  0  0  0  0  0  0  0  0
  140.9810   69.7880  227.9990 C   0  0  0  0  0  0  0  0  0  0  0  0
  141.0750   70.7990  227.0670 C   0  0  0  0  0  0  0  0  0  0  0  0
  140.5420   70.6960  225.8030 C   0  0  0  0  0  0  0  0  0  0  0  0
  140.6930   71.8240  224.8870 C   0  0  0  0  0  0  0  0  0  0  0  0
  139.6260   73.5480  222.2510 N   0  0  0  0  0  0  0  0  0  0  0  0
  142.2840   79.0150  222.3400 C   0  0  0  0  0  0  0  0  0  0  0  0
  143.0260   80.0220  222.9380 C   0  0  0  0  0  0  0  0  0  0  0  0
  142.8436   81.7934  224.1668 H   0  0  0  0  0  0  0  0  0  0  0  0
  140.4116   81.6529  224.3551 H   0  0  0  0  0  0  0  0  0  0  0  0
  139.1204   79.8442  223.2779 H   0  0  0  0  0  0  0  0  0  0  0  0
  139.5837   78.2749  220.9580 H   0  0  0  0  0  0  0  0  0  0  0  0
  140.8787   77.0934  221.4650 H   0  0  0  0  0  0  0  0  0  0  0  0
  139.7515   76.5263  223.4316 H   0  0  0  0  0  0  0  0  0  0  0  0
  138.6166   77.9350  223.2692 H   0  0  0  0  0  0  0  0  0  0  0  0
  137.6671   75.6413  222.7049 H   0  0  0  0  0  0  0  0  0  0  0  0
  137.4664   76.9354  221.4709 H   0  0  0  0  0  0  0  0  0  0  0  0
  138.6400   75.6110  220.0010 H   0  0  0  0  0  0  0  0  0  0  0  0
  141.3409   75.2216  219.9541 H   0  0  0  0  0  0  0  0  0  0  0  0
  144.2474   75.0880  219.5800 H   0  0  0  0  0  0  0  0  0  0  0  0
  144.1630   75.0170  221.3837 H   0  0  0  0  0  0  0  0  0  0  0  0
  146.4588   74.6204  220.4868 H   0  0  0  0  0  0  0  0  0  0  0  0
  145.7811   73.2243  221.4369 H   0  0  0  0  0  0  0  0  0  0  0  0
  146.6950   73.2300  218.7580 H   0  0  0  0  0  0  0  0  0  0  0  0
  144.4722   73.4265  218.0405 H   0  0  0  0  0  0  0  0  0  0  0  0
  144.9946   71.6936  218.0531 H   0  0  0  0  0  0  0  0  0  0  0  0
  142.7516   71.9244  219.0052 H   0  0  0  0  0  0  0  0  0  0  0  0
  143.9109   71.3959  220.2541 H   0  0  0  0  0  0  0  0  0  0  0  0
  138.4981   70.7728  222.7675 H   0  0  0  0  0  0  0  0  0  0  0  0
  140.1101   69.9845  222.3115 H   0  0  0  0  0  0  0  0  0  0  0  0
  138.2020   69.2377  224.2361 H   0  0  0  0  0  0  0  0  0  0  0  0
  139.7968   68.4793  223.6786 H   0  0  0  0  0  0  0  0  0  0  0  0
  139.2403   67.5875  226.0428 H   0  0  0  0  0  0  0  0  0  0  0  0
  140.2183   67.8085  228.3183 H   0  0  0  0  0  0  0  0  0  0  0  0
  141.4135   69.8885  229.0054 H   0  0  0  0  0  0  0  0  0  0  0  0
  141.5975   71.7261  227.3453 H   0  0  0  0  0  0  0  0  0  0  0  0
  140.1345   72.6760  225.3019 H   0  0  0  0  0  0  0  0  0  0  0  0
  141.7747   72.0053  224.8031 H   0  0  0  0  0  0  0  0  0  0  0  0
  142.8124   78.2476  221.7553 H   0  0  0  0  0  0  0  0  0  0  0  0
  144.1207   80.0706  222.8417 H   0  0  0  0  0  0  0  0  0  0  0  0
  1  2  2  0
  2  3  1  0
  3  4  2  0
  4  5  1  0
  5  6  1  0
  6  7  1  0
  7  8  1  0
  8  9  1  0
  9 10  2  0
 10 11  1  0
 11 12  1  0
 12 13  1  0
 13 14  1  0
 14 15  1  0
 15 16  1  0
 16 17  1  0
 11 18  2  0
 18 19  1  0
 19 20  1  0
 20 21  1  0
 21 22  1  0
 22 23  1  0
 23 24  2  0
 24 25  1  0
 25 26  2  0
 26 27  1  0
 27 28  2  0
 28 29  1  0
 19 30  2  0
  4 31  1  0
 31 32  2  0
 32  1  1  0
 30  9  1  0
 17 12  1  0
 29 20  1  0
 28 23  1  0
  1 33  1  0
  2 34  1  0
  3 35  1  0
  5 36  1  0
  5 37  1  0
  6 38  1  0
  6 39  1  0
  7 40  1  0
  7 41  1  0
  8 42  1  0
 10 43  1  0
 13 44  1  0
 13 45  1  0
 14 46  1  0
 14 47  1  0
 15 48  1  0
 16 49  1  0
 16 50  1  0
 17 51  1  0
 17 52  1  0
 21 53  1  0
 21 54  1  0
 22 55  1  0
 22 56  1  0
 24 57  1  0
 25 58  1  0
 26 59  1  0
 27 60  1  0
 29 61  1  0
 29 62  1  0
 31 63  1  0
 32 64  1  0
M  END
>  <smiles>  (2) 
c1ccc(CCCNc2cc(N3CCNCC3)nc(N3CCc4ccccc4C3)n2)cc1

>  <score_type>  (2) 
oracle

>  <origin>  (2) 
autodockgpu

>  <m_score__min__energy>  (2) 
-10.25

>  <m_primary>  (2) 
energy

>  <rmsd>  (2) 
9.142596990972262

>  <m_score__min__rmsd>  (2) 
9.142596990972262

>  <meeko>  (2) 
{"free_energy": -9.77, "intermolecular_energy": -11.86, "internal_energy": -1.13, "cluster_size": 50, "cluster_id": 1, "rank_in_cluster": 34}

>  <energy>  (2) 
-10.25

>  <cluster_rmsd>  (2) 
0.36

>  <cluster>  (2) 
1

$$$$

     RDKit          3D

 64 68  0  0  0  0  0  0  0  0999 V2000
  141.0910   71.4800  228.3310 C   0  0  0  0  0  0  0  0  0  0  0  0
  141.2360   72.1770  227.1590 C   0  0  0  0  0  0  0  0  0  0  0  0
  140.7650   71.7150  225.9570 C   0  0  0  0  0  0  0  0  0  0  0  0
  140.1190   70.4830  225.9550 C   0  0  0  0  0  0  0  0  0  0  0  0
  139.6040   69.9630  224.6710 C   0  0  0  0  0  0  0  0  0  0  0  0
  139.8050   70.9200  223.5150 C   0  0  0  0  0  0  0  0  0  0  0  0
  138.6890   70.8290  222.4990 C   0  0  0  0  0  0  0  0  0  0  0  0
  138.7240   71.9630  221.6390 N   0  0  0  0  0  0  0  0  0  0  0  0
  139.7890   72.8940  221.5380 C   0  0  0  0  0  0  0  0  0  0  0  0
  141.0660   72.5640  221.1420 C   0  0  0  0  0  0  0  0  0  0  0  0
  142.0860   73.4890  221.0640 C   0  0  0  0  0  0  0  0  0  0  0  0
  143.4090   73.1660  220.6570 N   0  0  0  0  0  0  0  0  0  0  0  0
  143.9010   71.8430  220.4390 C   0  0  0  0  0  0  0  0  0  0  0  0
  144.8880   71.8130  219.2770 C   0  0  0  0  0  0  0  0  0  0  0  0
  145.9640   72.7390  219.4470 N   0  0  0  0  0  0  0  0  0  0  0  0
  145.7470   73.7030  220.5000 C   0  0  0  0  0  0  0  0  0  0  0  0
  144.3540   74.2710  220.4410 C   0  0  0  0  0  0  0  0  0  0  0  0
  141.7660   74.7580  221.4010 N   0  0  0  0  0  0  0  0  0  0  0  0
  140.5430   75.1310  221.7910 C   0  0  0  0  0  0  0  0  0  0  0  0
  140.3030   76.4980  222.1270 N   0  0  0  0  0  0  0  0  0  0  0  0
  138.9450   76.8650  222.4420 C   0  0  0  0  0  0  0  0  0  0  0  0
  138.7210   78.2580  222.8790 C   0  0  0  0  0  0  0  0  0  0  0  0
  139.9080   79.1110  222.9900 C   0  0  0  0  0  0  0  0  0  0  0  0
  139.7060   80.4040  223.4850 C   0  0  0  0  0  0  0  0  0  0  0  0
  140.7950   81.2680  223.6170 C   0  0  0  0  0  0  0  0  0  0  0  0
  142.0770   80.8820  223.2700 C   0  0  0  0  0  0  0  0  0  0  0  0
  142.2280   79.5990  222.7870 C   0  0  0  0  0  0  0  0  0  0  0  0
  141.1720   78.7290  222.6470 C   0  0  0  0  0  0  0  0  0  0  0  0
  141.4330   77.3900  222.1240 C   0  0  0  0  0  0  0  0  0  0  0  0
  139.5900   74.2030  221.8510 N   0  0  0  0  0  0  0  0  0  0  0  0
  139.9720   69.7780  227.1280 C   0  0  0  0  0  0  0  0  0  0  0  0
  140.4440   70.2420  228.3460 C   0  0  0  0  0  0  0  0  0  0  0  0
  141.4876   71.8993  229.2674 H   0  0  0  0  0  0  0  0  0  0  0  0
  141.7521   73.1481  227.1842 H   0  0  0  0  0  0  0  0  0  0  0  0
  140.8929   72.2953  225.0313 H   0  0  0  0  0  0  0  0  0  0  0  0
  140.1256   69.0223  224.4406 H   0  0  0  0  0  0  0  0  0  0  0  0
  138.5202   69.8169  224.7892 H   0  0  0  0  0  0  0  0  0  0  0  0
  139.8441   71.9468  223.9076 H   0  0  0  0  0  0  0  0  0  0  0  0
  140.7443   70.6487  223.0108 H   0  0  0  0  0  0  0  0  0  0  0  0
  138.8133   69.9139  221.9014 H   0  0  0  0  0  0  0  0  0  0  0  0
  137.7225   70.8016  223.0236 H   0  0  0  0  0  0  0  0  0  0  0  0
  137.8880   72.1510  221.0050 H   0  0  0  0  0  0  0  0  0  0  0  0
  141.2816   71.5185  220.8767 H   0  0  0  0  0  0  0  0  0  0  0  0
  144.4073   71.4925  221.3505 H   0  0  0  0  0  0  0  0  0  0  0  0
  143.0514   71.1883  220.1949 H   0  0  0  0  0  0  0  0  0  0  0  0
  145.3055   70.7986  219.1952 H   0  0  0  0  0  0  0  0  0  0  0  0
  144.3410   72.1005  218.3670 H   0  0  0  0  0  0  0  0  0  0  0  0
  146.9010   72.3150  219.5550 H   0  0  0  0  0  0  0  0  0  0  0  0
  145.8925   73.2104  221.4727 H   0  0  0  0  0  0  0  0  0  0  0  0
  146.4643   74.5268  220.3707 H   0  0  0  0  0  0  0  0  0  0  0  0
  144.2263   75.0314  221.2255 H   0  0  0  0  0  0  0  0  0  0  0  0
  144.1736   74.7459  219.4653 H   0  0  0  0  0  0  0  0  0  0  0  0
  138.3361   76.6956  221.5417 H   0  0  0  0  0  0  0  0  0  0  0  0
  138.6690   76.2421  223.3056 H   0  0  0  0  0  0  0  0  0  0  0  0
  138.0385   78.7287  222.1561 H   0  0  0  0  0  0  0  0  0  0  0  0
  138.3236   78.1803  223.9017 H   0  0  0  0  0  0  0  0  0  0  0  0
  138.6967   80.7375  223.7681 H   0  0  0  0  0  0  0  0  0  0  0  0
  140.6288   82.2829  224.0075 H   0  0  0  0  0  0  0  0  0  0  0  0
  142.9335   81.5643  223.3741 H   0  0  0  0  0  0  0  0  0  0  0  0
  143.2341   79.2576  222.5021 H   0  0  0  0  0  0  0  0  0  0  0  0
  141.7824   77.4926  221.0860 H   0  0  0  0  0  0  0  0  0  0  0  0
  142.1778   76.9401  222.7969 H   0  0  0  0  0  0  0  0  0  0  0  0
  139.4585   68.8057  227.0976 H   0  0  0  0  0  0  0  0  0  0  0  0
  140.3160   69.6662  229.2745 H   0  0  0  0  0  0  0  0  0  0  0  0
  1  2  2  0
  2  3  1  0
  3  4  2  0
  4  5  1  0
  5  6  1  0
  6  7  1  0
  7  8  1  0
  8  9  1  0
  9 10  2  0
 10 11  1  0
 11 12  1  0
 12 13  1  0
 13 14  1  0
 14 15  1  0
 15 16  1  0
 16 17  1  0
 11 18  2  0
 18 19  1  0
 19 20  1  0
 20 21  1  0
 21 22  1  0
 22 23  1  0
 23 24  2  0
 24 25  1  0
 25 26  2  0
 26 27  1  0
 27 28  2  0
 28 29  1  0
 19 30  2  0
  4 31  1  0
 31 32  2  0
 32  1  1  0
 30  9  1  0
 17 12  1  0
 29 20  1  0
 28 23  1  0
  1 33  1  0
  2 34  1  0
  3 35  1  0
  5 36  1  0
  5 37  1  0
  6 38  1  0
  6 39  1  0
  7 40  1  0
  7 41  1  0
  8 42  1  0
 10 43  1  0
 13 44  1  0
 13 45  1  0
 14 46  1  0
 14 47  1  0
 15 48  1  0
 16 49  1  0
 16 50  1  0
 17 51  1  0
 17 52  1  0
 21 53  1  0
 21 54  1  0
 22 55  1  0
 22 56  1  0
 24 57  1  0
 25 58  1  0
 26 59  1  0
 27 60  1  0
 29 61  1  0
 29 62  1  0
 31 63  1  0
 32 64  1  0
M  END
>  <smiles>  (3) 
c1ccc(CCCNc2cc(N3CCNCC3)nc(N3CCc4ccccc4C3)n2)cc1

>  <score_type>  (3) 
oracle

>  <origin>  (3) 
autodockgpu

>  <m_score__min__energy>  (3) 
-10.25

>  <m_primary>  (3) 
energy

>  <rmsd>  (3) 
2.0825204797927

>  <m_score__min__rmsd>  (3) 
2.0825204797927

>  <meeko>  (3) 
{"free_energy": -9.78, "intermolecular_energy": -11.86, "internal_energy": -1.11, "cluster_size": 50, "cluster_id": 1, "rank_in_cluster": 33}

>  <energy>  (3) 
-10.19

>  <cluster_rmsd>  (3) 
1.37

>  <cluster>  (3) 
1

$$$$

     RDKit          3D

 64 68  0  0  0  0  0  0  0  0999 V2000
  141.5530   79.1180  223.2190 C   0  0  0  0  0  0  0  0  0  0  0  0
  140.4290   79.7760  223.6480 C   0  0  0  0  0  0  0  0  0  0  0  0
  139.1620   79.2920  223.4450 C   0  0  0  0  0  0  0  0  0  0  0  0
  139.0410   78.0810  222.7700 C   0  0  0  0  0  0  0  0  0  0  0  0
  137.6860   77.5390  222.5380 C   0  0  0  0  0  0  0  0  0  0  0  0
  137.5570   76.0750  222.9060 C   0  0  0  0  0  0  0  0  0  0  0  0
  136.7560   75.3010  221.8850 C   0  0  0  0  0  0  0  0  0  0  0  0
  137.6330   74.5710  221.0340 N   0  0  0  0  0  0  0  0  0  0  0  0
  138.8020   73.8800  221.4450 C   0  0  0  0  0  0  0  0  0  0  0  0
  140.0530   74.1000  220.9140 C   0  0  0  0  0  0  0  0  0  0  0  0
  141.1710   73.4050  221.3250 C   0  0  0  0  0  0  0  0  0  0  0  0
  142.4700   73.6190  220.7890 N   0  0  0  0  0  0  0  0  0  0  0  0
  143.5470   72.6810  220.8460 C   0  0  0  0  0  0  0  0  0  0  0  0
  144.3900   72.7420  219.5770 C   0  0  0  0  0  0  0  0  0  0  0  0
  144.8720   74.0610  219.3020 N   0  0  0  0  0  0  0  0  0  0  0  0
  144.2330   75.0930  220.0830 C   0  0  0  0  0  0  0  0  0  0  0  0
  142.7400   74.9010  220.1240 C   0  0  0  0  0  0  0  0  0  0  0  0
  140.9760   72.4810  222.2920 N   0  0  0  0  0  0  0  0  0  0  0  0
  139.7840   72.2290  222.8410 C   0  0  0  0  0  0  0  0  0  0  0  0
  139.6780   71.2320  223.8570 N   0  0  0  0  0  0  0  0  0  0  0  0
  138.9570   70.0300  223.5220 C   0  0  0  0  0  0  0  0  0  0  0  0
  138.9320   68.9660  224.5460 C   0  0  0  0  0  0  0  0  0  0  0  0
  139.6800   69.2240  225.7800 C   0  0  0  0  0  0  0  0  0  0  0  0
  139.7270   68.1830  226.7130 C   0  0  0  0  0  0  0  0  0  0  0  0
  140.4250   68.3630  227.9100 C   0  0  0  0  0  0  0  0  0  0  0  0
  141.0750   69.5480  228.2030 C   0  0  0  0  0  0  0  0  0  0  0  0
  141.0010   70.5450  227.2540 C   0  0  0  0  0  0  0  0  0  0  0  0
  140.3210   70.3930  226.0680 C   0  0  0  0  0  0  0  0  0  0  0  0
  140.2990   71.5100  225.1260 C   0  0  0  0  0  0  0  0  0  0  0  0
  138.7320   72.9250  222.4120 N   0  0  0  0  0  0  0  0  0  0  0  0
  140.1660   77.4170  222.3380 C   0  0  0  0  0  0  0  0  0  0  0  0
  141.4480   77.9010  222.5420 C   0  0  0  0  0  0  0  0  0  0  0  0
  142.5455   79.5523  223.4096 H   0  0  0  0  0  0  0  0  0  0  0  0
  140.5487   80.7327  224.1775 H   0  0  0  0  0  0  0  0  0  0  0  0
  138.2768   79.8391  223.8015 H   0  0  0  0  0  0  0  0  0  0  0  0
  136.9706   78.1157  223.1427 H   0  0  0  0  0  0  0  0  0  0  0  0
  137.4801   77.6243  221.4608 H   0  0  0  0  0  0  0  0  0  0  0  0
  138.5634   75.6363  222.9740 H   0  0  0  0  0  0  0  0  0  0  0  0
  137.0288   76.0129  223.8689 H   0  0  0  0  0  0  0  0  0  0  0  0
  136.0839   74.6011  222.4030 H   0  0  0  0  0  0  0  0  0  0  0  0
  136.1653   76.0040  221.2793 H   0  0  0  0  0  0  0  0  0  0  0  0
  137.4150   74.5240  219.9910 H   0  0  0  0  0  0  0  0  0  0  0  0
  140.1655   74.8622  220.1289 H   0  0  0  0  0  0  0  0  0  0  0  0
  144.1830   72.9152  221.7124 H   0  0  0  0  0  0  0  0  0  0  0  0
  143.1266   71.6689  220.9401 H   0  0  0  0  0  0  0  0  0  0  0  0
  145.2520   72.0686  219.6934 H   0  0  0  0  0  0  0  0  0  0  0  0
  143.7499   72.4380  218.7357 H   0  0  0  0  0  0  0  0  0  0  0  0
  145.8980   74.1760  219.3500 H   0  0  0  0  0  0  0  0  0  0  0  0
  144.6269   75.0615  221.1096 H   0  0  0  0  0  0  0  0  0  0  0  0
  144.4458   76.0654  219.6149 H   0  0  0  0  0  0  0  0  0  0  0  0
  142.2726   75.7212  220.6887 H   0  0  0  0  0  0  0  0  0  0  0  0
  142.3246   74.9004  219.1054 H   0  0  0  0  0  0  0  0  0  0  0  0
  137.9155   70.3137  223.3103 H   0  0  0  0  0  0  0  0  0  0  0  0
  139.4972   69.5968  222.6673 H   0  0  0  0  0  0  0  0  0  0  0  0
  137.8814   68.7938  224.8226 H   0  0  0  0  0  0  0  0  0  0  0  0
  139.4308   68.1035  224.0798 H   0  0  0  0  0  0  0  0  0  0  0  0
  139.2184   67.2299  226.5060 H   0  0  0  0  0  0  0  0  0  0  0  0
  140.4584   67.5399  228.6390 H   0  0  0  0  0  0  0  0  0  0  0  0
  141.6236   69.6879  229.1461 H   0  0  0  0  0  0  0  0  0  0  0  0
  141.5065   71.5014  227.4533 H   0  0  0  0  0  0  0  0  0  0  0  0
  139.7532   72.3410  225.5968 H   0  0  0  0  0  0  0  0  0  0  0  0
  141.3512   71.7430  224.9055 H   0  0  0  0  0  0  0  0  0  0  0  0
  140.0422   76.4611  221.8080 H   0  0  0  0  0  0  0  0  0  0  0  0
  142.3359   77.3557  222.1895 H   0  0  0  0  0  0  0  0  0  0  0  0
  1  2  2  0
  2  3  1  0
  3  4  2  0
  4  5  1  0
  5  6  1  0
  6  7  1  0
  7  8  1  0
  8  9  1  0
  9 10  2  0
 10 11  1  0
 11 12  1  0
 12 13  1  0
 13 14  1  0
 14 15  1  0
 15 16  1  0
 16 17  1  0
 11 18  2  0
 18 19  1  0
 19 20  1  0
 20 21  1  0
 21 22  1  0
 22 23  1  0
 23 24  2  0
 24 25  1  0
 25 26  2  0
 26 27  1  0
 27 28  2  0
 28 29  1  0
 19 30  2  0
  4 31  1  0
 31 32  2  0
 32  1  1  0
 30  9  1  0
 17 12  1  0
 29 20  1  0
 28 23  1  0
  1 33  1  0
  2 34  1  0
  3 35  1  0
  5 36  1  0
  5 37  1  0
  6 38  1  0
  6 39  1  0
  7 40  1  0
  7 41  1  0
  8 42  1  0
 10 43  1  0
 13 44  1  0
 13 45  1  0
 14 46  1  0
 14 47  1  0
 15 48  1  0
 16 49  1  0
 16 50  1  0
 17 51  1  0
 17 52  1  0
 21 53  1  0
 21 54  1  0
 22 55  1  0
 22 56  1  0
 24 57  1  0
 25 58  1  0
 26 59  1  0
 27 60  1  0
 29 61  1  0
 29 62  1  0
 31 63  1  0
 32 64  1  0
M  END
>  <smiles>  (4) 
c1ccc(CCCNc2cc(N3CCNCC3)nc(N3CCc4ccccc4C3)n2)cc1

>  <score_type>  (4) 
oracle

>  <origin>  (4) 
autodockgpu

>  <m_score__min__energy>  (4) 
-10.25

>  <m_primary>  (4) 
energy

>  <rmsd>  (4) 
8.135876877814974

>  <m_score__min__rmsd>  (4) 
8.135876877814974

>  <meeko>  (4) 
{"free_energy": -8.57, "intermolecular_energy": -10.66, "internal_energy": -1.49, "cluster_size": 50, "cluster_id": 1, "rank_in_cluster": 50}

>  <energy>  (4) 
-10.14

>  <cluster_rmsd>  (4) 
1.09

>  <cluster>  (4) 
1

$$$$

     RDKit          3D

 64 68  0  0  0  0  0  0  0  0999 V2000
  140.6100   69.4810  228.3190 C   0  0  0  0  0  0  0  0  0  0  0  0
  140.4360   68.7920  227.1460 C   0  0  0  0  0  0  0  0  0  0  0  0
  140.4580   69.4010  225.9170 C   0  0  0  0  0  0  0  0  0  0  0  0
  140.6660   70.7770  225.8900 C   0  0  0  0  0  0  0  0  0  0  0  0
  140.6940   71.4560  224.5770 C   0  0  0  0  0  0  0  0  0  0  0  0
  139.3340   71.5290  223.9140 C   0  0  0  0  0  0  0  0  0  0  0  0
  139.1520   70.4510  222.8700 C   0  0  0  0  0  0  0  0  0  0  0  0
  139.7650   70.8500  221.6490 N   0  0  0  0  0  0  0  0  0  0  0  0
  140.4450   72.0760  221.4250 C   0  0  0  0  0  0  0  0  0  0  0  0
  141.7030   72.1680  220.8720 C   0  0  0  0  0  0  0  0  0  0  0  0
  142.3440   73.3740  220.6770 C   0  0  0  0  0  0  0  0  0  0  0  0
  143.6420   73.4890  220.1070 N   0  0  0  0  0  0  0  0  0  0  0  0
  144.6770   74.3480  220.5890 C   0  0  0  0  0  0  0  0  0  0  0  0
  146.0450   73.6940  220.4340 C   0  0  0  0  0  0  0  0  0  0  0  0
  146.3050   73.2810  219.0890 N   0  0  0  0  0  0  0  0  0  0  0  0
  145.1390   73.2860  218.2380 C   0  0  0  0  0  0  0  0  0  0  0  0
  143.9550   72.6670  218.9300 C   0  0  0  0  0  0  0  0  0  0  0  0
  141.6670   74.4780  221.0600 N   0  0  0  0  0  0  0  0  0  0  0  0
  140.4450   74.4430  221.6000 C   0  0  0  0  0  0  0  0  0  0  0  0
  139.8100   75.6660  221.9740 N   0  0  0  0  0  0  0  0  0  0  0  0
  138.3760   75.6400  222.1210 C   0  0  0  0  0  0  0  0  0  0  0  0
  137.7380   76.8840  222.5970 C   0  0  0  0  0  0  0  0  0  0  0  0
  138.6310   78.0020  222.9140 C   0  0  0  0  0  0  0  0  0  0  0  0
  138.0340   79.1500  223.4470 C   0  0  0  0  0  0  0  0  0  0  0  0
  138.8290   80.2510  223.7730 C   0  0  0  0  0  0  0  0  0  0  0  0
  140.2000   80.2420  223.5820 C   0  0  0  0  0  0  0  0  0  0  0  0
  140.7430   79.0890  223.0560 C   0  0  0  0  0  0  0  0  0  0  0  0
  139.9820   77.9920  222.7270 C   0  0  0  0  0  0  0  0  0  0  0  0
  140.6520   76.8170  222.1730 C   0  0  0  0  0  0  0  0  0  0  0  0
  139.8640   73.2570  221.7700 N   0  0  0  0  0  0  0  0  0  0  0  0
  140.8410   71.4720  227.0640 C   0  0  0  0  0  0  0  0  0  0  0  0
  140.8200   70.8610  228.3080 C   0  0  0  0  0  0  0  0  0  0  0  0
  140.5838   68.9413  229.2771 H   0  0  0  0  0  0  0  0  0  0  0  0
  140.2719   67.7053  227.1926 H   0  0  0  0  0  0  0  0  0  0  0  0
  140.3170   68.8252  224.9904 H   0  0  0  0  0  0  0  0  0  0  0  0
  141.0682   72.4803  224.7210 H   0  0  0  0  0  0  0  0  0  0  0  0
  141.3479   70.8662  223.9178 H   0  0  0  0  0  0  0  0  0  0  0  0
  138.5572   71.4119  224.6840 H   0  0  0  0  0  0  0  0  0  0  0  0
  139.2539   72.5043  223.4116 H   0  0  0  0  0  0  0  0  0  0  0  0
  139.6166   69.5187  223.2236 H   0  0  0  0  0  0  0  0  0  0  0  0
  138.0773   70.2899  222.6997 H   0  0  0  0  0  0  0  0  0  0  0  0
  139.7230   70.1890  220.8140 H   0  0  0  0  0  0  0  0  0  0  0  0
  142.2174   71.2426  220.5738 H   0  0  0  0  0  0  0  0  0  0  0  0
  144.6604   75.2875  220.0171 H   0  0  0  0  0  0  0  0  0  0  0  0
  144.5010   74.5442  221.6570 H   0  0  0  0  0  0  0  0  0  0  0  0
  146.8176   74.4159  220.7371 H   0  0  0  0  0  0  0  0  0  0  0  0
  146.0601   72.7956  221.0686 H   0  0  0  0  0  0  0  0  0  0  0  0
  147.0800   73.7740  218.6170 H   0  0  0  0  0  0  0  0  0  0  0  0
  144.8950   74.3247  217.9704 H   0  0  0  0  0  0  0  0  0  0  0  0
  145.3634   72.6949  217.3379 H   0  0  0  0  0  0  0  0  0  0  0  0
  143.0921   72.6459  218.2482 H   0  0  0  0  0  0  0  0  0  0  0  0
  144.1835   71.6344  219.2324 H   0  0  0  0  0  0  0  0  0  0  0  0
  137.9441   75.3980  221.1387 H   0  0  0  0  0  0  0  0  0  0  0  0
  138.1780   74.8939  222.9047 H   0  0  0  0  0  0  0  0  0  0  0  0
  137.0440   77.2234  221.8140 H   0  0  0  0  0  0  0  0  0  0  0  0
  137.2594   76.6169  223.5507 H   0  0  0  0  0  0  0  0  0  0  0  0
  136.9464   79.1849  223.6080 H   0  0  0  0  0  0  0  0  0  0  0  0
  138.3529   81.1494  224.1928 H   0  0  0  0  0  0  0  0  0  0  0  0
  140.8246   81.1108  223.8370 H   0  0  0  0  0  0  0  0  0  0  0  0
  141.8299   79.0448  222.8928 H   0  0  0  0  0  0  0  0  0  0  0  0
  141.0802   77.0974  221.1993 H   0  0  0  0  0  0  0  0  0  0  0  0
  141.4060   76.5179  222.9160 H   0  0  0  0  0  0  0  0  0  0  0  0
  141.0045   72.5586  227.0135 H   0  0  0  0  0  0  0  0  0  0  0  0
  140.9613   71.4330  229.2369 H   0  0  0  0  0  0  0  0  0  0  0  0
  1  2  2  0
  2  3  1  0
  3  4  2  0
  4  5  1  0
  5  6  1  0
  6  7  1  0
  7  8  1  0
  8  9  1  0
  9 10  2  0
 10 11  1  0
 11 12  1  0
 12 13  1  0
 13 14  1  0
 14 15  1  0
 15 16  1  0
 16 17  1  0
 11 18  2  0
 18 19  1  0
 19 20  1  0
 20 21  1  0
 21 22  1  0
 22 23  1  0
 23 24  2  0
 24 25  1  0
 25 26  2  0
 26 27  1  0
 27 28  2  0
 28 29  1  0
 19 30  2  0
  4 31  1  0
 31 32  2  0
 32  1  1  0
 30  9  1  0
 17 12  1  0
 29 20  1  0
 28 23  1  0
  1 33  1  0
  2 34  1  0
  3 35  1  0
  5 36  1  0
  5 37  1  0
  6 38  1  0
  6 39  1  0
  7 40  1  0
  7 41  1  0
  8 42  1  0
 10 43  1  0
 13 44  1  0
 13 45  1  0
 14 46  1  0
 14 47  1  0
 15 48  1  0
 16 49  1  0
 16 50  1  0
 17 51  1  0
 17 52  1  0
 21 53  1  0
 21 54  1  0
 22 55  1  0
 22 56  1  0
 24 57  1  0
 25 58  1  0
 26 59  1  0
 27 60  1  0
 29 61  1  0
 29 62  1  0
 31 63  1  0
 32 64  1  0
M  END
>  <smiles>  (5) 
c1ccc(CCCNc2cc(N3CCNCC3)nc(N3CCc4ccccc4C3)n2)cc1

>  <score_type>  (5) 
oracle

>  <origin>  (5) 
autodockgpu

>  <m_score__min__energy>  (5) 
-10.25

>  <m_primary>  (5) 
energy

>  <rmsd>  (5) 
3.0949990100522484

>  <m_score__min__rmsd>  (5) 
3.0949990100522484

>  <meeko>  (5) 
{"free_energy": -9.56, "intermolecular_energy": -11.64, "internal_energy": -1.08, "cluster_size": 50, "cluster_id": 1, "rank_in_cluster": 44}

>  <energy>  (5) 
-10.14

>  <cluster_rmsd>  (5) 
1.36

>  <cluster>  (5) 
1

$$$$

     RDKit          3D

 64 68  0  0  0  0  0  0  0  0999 V2000
  140.8740   70.7600  228.2910 C   0  0  0  0  0  0  0  0  0  0  0  0
  140.4220   69.6380  227.6460 C   0  0  0  0  0  0  0  0  0  0  0  0
  140.2400   69.5850  226.2870 C   0  0  0  0  0  0  0  0  0  0  0  0
  140.5350   70.7330  225.5590 C   0  0  0  0  0  0  0  0  0  0  0  0
  140.3470   70.7010  224.0930 C   0  0  0  0  0  0  0  0  0  0  0  0
  138.8940   70.7860  223.6750 C   0  0  0  0  0  0  0  0  0  0  0  0
  138.7330   71.3820  222.2950 C   0  0  0  0  0  0  0  0  0  0  0  0
  138.8960   72.7950  222.3560 N   0  0  0  0  0  0  0  0  0  0  0  0
  140.0470   73.5140  221.9430 C   0  0  0  0  0  0  0  0  0  0  0  0
  141.2040   72.9210  221.4890 C   0  0  0  0  0  0  0  0  0  0  0  0
  142.3130   73.6460  221.1040 C   0  0  0  0  0  0  0  0  0  0  0  0
  143.5150   73.0510  220.6330 N   0  0  0  0  0  0  0  0  0  0  0  0
  143.6660   71.6740  220.2810 C   0  0  0  0  0  0  0  0  0  0  0  0
  144.6100   71.5150  219.0940 C   0  0  0  0  0  0  0  0  0  0  0  0
  145.8820   72.1310  219.3190 N   0  0  0  0  0  0  0  0  0  0  0  0
  145.9120   73.0140  220.4610 C   0  0  0  0  0  0  0  0  0  0  0  0
  144.7010   73.9070  220.4930 C   0  0  0  0  0  0  0  0  0  0  0  0
  142.2070   74.9900  221.1960 N   0  0  0  0  0  0  0  0  0  0  0  0
  141.1080   75.6150  221.6280 C   0  0  0  0  0  0  0  0  0  0  0  0
  141.0930   77.0410  221.6890 N   0  0  0  0  0  0  0  0  0  0  0  0
  141.0680   77.6400  223.0010 C   0  0  0  0  0  0  0  0  0  0  0  0
  141.1460   79.1130  223.0570 C   0  0  0  0  0  0  0  0  0  0  0  0
  141.2860   79.8130  221.7760 C   0  0  0  0  0  0  0  0  0  0  0  0
  141.4460   81.2020  221.8360 C   0  0  0  0  0  0  0  0  0  0  0  0
  141.5870   81.9300  220.6520 C   0  0  0  0  0  0  0  0  0  0  0  0
  141.5710   81.3140  219.4130 C   0  0  0  0  0  0  0  0  0  0  0  0
  141.4110   79.9450  219.4040 C   0  0  0  0  0  0  0  0  0  0  0  0
  141.2710   79.2060  220.5550 C   0  0  0  0  0  0  0  0  0  0  0  0
  141.1050   77.7590  220.4410 C   0  0  0  0  0  0  0  0  0  0  0  0
  140.0620   74.8740  221.9890 N   0  0  0  0  0  0  0  0  0  0  0  0
  140.9890   71.8610  226.2010 C   0  0  0  0  0  0  0  0  0  0  0  0
  141.1750   71.9200  227.5740 C   0  0  0  0  0  0  0  0  0  0  0  0
  141.0008   70.7465  229.3836 H   0  0  0  0  0  0  0  0  0  0  0  0
  140.1956   68.7423  228.2431 H   0  0  0  0  0  0  0  0  0  0  0  0
  139.8757   68.6720  225.7934 H   0  0  0  0  0  0  0  0  0  0  0  0
  140.8876   71.5518  223.6527 H   0  0  0  0  0  0  0  0  0  0  0  0
  140.7337   69.7353  223.7353 H   0  0  0  0  0  0  0  0  0  0  0  0
  138.4648   69.7732  223.6762 H   0  0  0  0  0  0  0  0  0  0  0  0
  138.3738   71.4409  224.3895 H   0  0  0  0  0  0  0  0  0  0  0  0
  139.4922   70.9559  221.6227 H   0  0  0  0  0  0  0  0  0  0  0  0
  137.7274   71.1493  221.9148 H   0  0  0  0  0  0  0  0  0  0  0  0
  138.0990   73.3870  222.7430 H   0  0  0  0  0  0  0  0  0  0  0  0
  141.2458   71.8233  221.4309 H   0  0  0  0  0  0  0  0  0  0  0  0
  144.0749   71.1251  221.1421 H   0  0  0  0  0  0  0  0  0  0  0  0
  142.6805   71.2730  220.0019 H   0  0  0  0  0  0  0  0  0  0  0  0
  144.7656   70.4420  218.9083 H   0  0  0  0  0  0  0  0  0  0  0  0
  144.1462   72.0121  218.2292 H   0  0  0  0  0  0  0  0  0  0  0  0
  146.6860   71.4840  219.3610 H   0  0  0  0  0  0  0  0  0  0  0  0
  145.9366   72.4104  221.3803 H   0  0  0  0  0  0  0  0  0  0  0  0
  146.8086   73.6470  220.3873 H   0  0  0  0  0  0  0  0  0  0  0  0
  144.7674   74.5970  221.3471 H   0  0  0  0  0  0  0  0  0  0  0  0
  144.6383   74.5024  219.5702 H   0  0  0  0  0  0  0  0  0  0  0  0
  140.1296   77.3368  223.4884 H   0  0  0  0  0  0  0  0  0  0  0  0
  141.9804   77.2822  223.5005 H   0  0  0  0  0  0  0  0  0  0  0  0
  140.2262   79.4777  223.5377 H   0  0  0  0  0  0  0  0  0  0  0  0
  142.0710   79.3333  223.6101 H   0  0  0  0  0  0  0  0  0  0  0  0
  141.4606   81.7167  222.8081 H   0  0  0  0  0  0  0  0  0  0  0  0
  141.7141   83.0213  220.7061 H   0  0  0  0  0  0  0  0  0  0  0  0
  141.6805   81.8885  218.4813 H   0  0  0  0  0  0  0  0  0  0  0  0
  141.3946   79.4222  218.4363 H   0  0  0  0  0  0  0  0  0  0  0  0
  140.1511   77.5657  219.9285 H   0  0  0  0  0  0  0  0  0  0  0  0
  141.9837   77.3945  219.8887 H   0  0  0  0  0  0  0  0  0  0  0  0
  141.2142   72.7544  225.6001 H   0  0  0  0  0  0  0  0  0  0  0  0
  141.5398   72.8309  228.0712 H   0  0  0  0  0  0  0  0  0  0  0  0
  1  2  2  0
  2  3  1  0
  3  4  2  0
  4  5  1  0
  5  6  1  0
  6  7  1  0
  7  8  1  0
  8  9  1  0
  9 10  2  0
 10 11  1  0
 11 12  1  0
 12 13  1  0
 13 14  1  0
 14 15  1  0
 15 16  1  0
 16 17  1  0
 11 18  2  0
 18 19  1  0
 19 20  1  0
 20 21  1  0
 21 22  1  0
 22 23  1  0
 23 24  2  0
 24 25  1  0
 25 26  2  0
 26 27  1  0
 27 28  2  0
 28 29  1  0
 19 30  2  0
  4 31  1  0
 31 32  2  0
 32  1  1  0
 30  9  1  0
 17 12  1  0
 29 20  1  0
 28 23  1  0
  1 33  1  0
  2 34  1  0
  3 35  1  0
  5 36  1  0
  5 37  1  0
  6 38  1  0
  6 39  1  0
  7 40  1  0
  7 41  1  0
  8 42  1  0
 10 43  1  0
 13 44  1  0
 13 45  1  0
 14 46  1  0
 14 47  1  0
 15 48  1  0
 16 49  1  0
 16 50  1  0
 17 51  1  0
 17 52  1  0
 21 53  1  0
 21 54  1  0
 22 55  1  0
 22 56  1  0
 24 57  1  0
 25 58  1  0
 26 59  1  0
 27 60  1  0
 29 61  1  0
 29 62  1  0
 31 63  1  0
 32 64  1  0
M  END
>  <smiles>  (6) 
c1ccc(CCCNc2cc(N3CCNCC3)nc(N3CCc4ccccc4C3)n2)cc1

>  <score_type>  (6) 
oracle

>  <origin>  (6) 
autodockgpu

>  <m_score__min__energy>  (6) 
-10.25

>  <m_primary>  (6) 
energy

>  <rmsd>  (6) 
2.6992983898766947

>  <m_score__min__rmsd>  (6) 
2.6992983898766947

>  <meeko>  (6) 
{"free_energy": -9.82, "intermolecular_energy": -11.9, "internal_energy": -1.15, "cluster_size": 50, "cluster_id": 1, "rank_in_cluster": 26}

>  <energy>  (6) 
-10.07

>  <cluster_rmsd>  (6) 
0.37

>  <cluster>  (6) 
1

$$$$

     RDKit          3D

 64 68  0  0  0  0  0  0  0  0999 V2000
  141.1400   68.1570  228.1110 C   0  0  0  0  0  0  0  0  0  0  0  0
  140.7810   67.4470  226.9950 C   0  0  0  0  0  0  0  0  0  0  0  0
  139.9740   67.9630  226.0140 C   0  0  0  0  0  0  0  0  0  0  0  0
  139.5150   69.2660  226.1850 C   0  0  0  0  0  0  0  0  0  0  0  0
  138.6440   69.8450  225.1400 C   0  0  0  0  0  0  0  0  0  0  0  0
  139.3300   69.9770  223.7960 C   0  0  0  0  0  0  0  0  0  0  0  0
  138.9060   71.2270  223.0610 C   0  0  0  0  0  0  0  0  0  0  0  0
  139.7310   71.4200  221.9170 N   0  0  0  0  0  0  0  0  0  0  0  0
  140.4840   72.5870  221.6250 C   0  0  0  0  0  0  0  0  0  0  0  0
  141.7200   72.5730  221.0180 C   0  0  0  0  0  0  0  0  0  0  0  0
  142.4340   73.7240  220.7560 C   0  0  0  0  0  0  0  0  0  0  0  0
  143.7110   73.7300  220.1300 N   0  0  0  0  0  0  0  0  0  0  0  0
  144.8320   74.5050  220.5590 C   0  0  0  0  0  0  0  0  0  0  0  0
  146.1350   73.7410  220.3500 C   0  0  0  0  0  0  0  0  0  0  0  0
  146.3020   73.3000  219.0000 N   0  0  0  0  0  0  0  0  0  0  0  0
  145.1030   73.3950  218.2000 C   0  0  0  0  0  0  0  0  0  0  0  0
  143.9040   72.8780  218.9480 C   0  0  0  0  0  0  0  0  0  0  0  0
  141.8530   74.8850  221.1310 N   0  0  0  0  0  0  0  0  0  0  0  0
  140.6560   74.9520  221.7220 C   0  0  0  0  0  0  0  0  0  0  0  0
  140.1240   76.2270  222.0810 N   0  0  0  0  0  0  0  0  0  0  0  0
  138.7020   76.3040  222.3040 C   0  0  0  0  0  0  0  0  0  0  0  0
  138.1740   77.6040  222.7650 C   0  0  0  0  0  0  0  0  0  0  0  0
  139.1550   78.6690  222.9910 C   0  0  0  0  0  0  0  0  0  0  0  0
  138.6650   79.8730  223.5100 C   0  0  0  0  0  0  0  0  0  0  0  0
  139.5480   80.9290  223.7500 C   0  0  0  0  0  0  0  0  0  0  0  0
  140.9020   80.8200  223.4880 C   0  0  0  0  0  0  0  0  0  0  0  0
  141.3380   79.6160  222.9790 C   0  0  0  0  0  0  0  0  0  0  0  0
  140.4900   78.5610  222.7340 C   0  0  0  0  0  0  0  0  0  0  0  0
  141.0490   77.3250  222.1910 C   0  0  0  0  0  0  0  0  0  0  0  0
  140.0030   73.8150  221.9550 N   0  0  0  0  0  0  0  0  0  0  0  0
  139.8730   69.9830  227.3020 C   0  0  0  0  0  0  0  0  0  0  0  0
  140.6880   69.4660  228.2970 C   0  0  0  0  0  0  0  0  0  0  0  0
  141.7898   67.6921  228.8671 H   0  0  0  0  0  0  0  0  0  0  0  0
  141.1564   66.4193  226.8815 H   0  0  0  0  0  0  0  0  0  0  0  0
  139.7004   67.3714  225.1279 H   0  0  0  0  0  0  0  0  0  0  0  0
  137.7632   69.1969  225.0206 H   0  0  0  0  0  0  0  0  0  0  0  0
  138.3703   70.8587  225.4678 H   0  0  0  0  0  0  0  0  0  0  0  0
  140.4179   70.0110  223.9551 H   0  0  0  0  0  0  0  0  0  0  0  0
  139.0428   69.1101  223.1829 H   0  0  0  0  0  0  0  0  0  0  0  0
  137.8582   71.1248  222.7420 H   0  0  0  0  0  0  0  0  0  0  0  0
  139.0079   72.0933  223.7312 H   0  0  0  0  0  0  0  0  0  0  0  0
  139.8070   70.6330  221.2010 H   0  0  0  0  0  0  0  0  0  0  0  0
  142.1557   71.6048  220.7304 H   0  0  0  0  0  0  0  0  0  0  0  0
  144.8660   75.4398  219.9802 H   0  0  0  0  0  0  0  0  0  0  0  0
  144.7197   74.7206  221.6318 H   0  0  0  0  0  0  0  0  0  0  0  0
  146.9759   74.3998  220.6123 H   0  0  0  0  0  0  0  0  0  0  0  0
  146.1048   72.8479  220.9915 H   0  0  0  0  0  0  0  0  0  0  0  0
  147.0920   73.7260  218.4890 H   0  0  0  0  0  0  0  0  0  0  0  0
  144.9324   74.4486  217.9339 H   0  0  0  0  0  0  0  0  0  0  0  0
  145.2391   72.7825  217.2965 H   0  0  0  0  0  0  0  0  0  0  0  0
  143.0131   72.9234  218.3044 H   0  0  0  0  0  0  0  0  0  0  0  0
  144.0607   71.8318  219.2496 H   0  0  0  0  0  0  0  0  0  0  0  0
  138.2017   76.0580  221.3557 H   0  0  0  0  0  0  0  0  0  0  0  0
  138.4989   75.6010  223.1253 H   0  0  0  0  0  0  0  0  0  0  0  0
  137.4615   77.9622  222.0073 H   0  0  0  0  0  0  0  0  0  0  0  0
  137.7320   77.4033  223.7521 H   0  0  0  0  0  0  0  0  0  0  0  0
  137.5927   79.9871  223.7273 H   0  0  0  0  0  0  0  0  0  0  0  0
  139.1560   81.8723  224.1582 H   0  0  0  0  0  0  0  0  0  0  0  0
  141.5957   81.6526  223.6765 H   0  0  0  0  0  0  0  0  0  0  0  0
  142.4089   79.4934  222.7594 H   0  0  0  0  0  0  0  0  0  0  0  0
  141.4401   77.5418  221.1860 H   0  0  0  0  0  0  0  0  0  0  0  0
  141.8213   77.0015  222.9044 H   0  0  0  0  0  0  0  0  0  0  0  0
  139.4966   71.0109  227.4108 H   0  0  0  0  0  0  0  0  0  0  0  0
  140.9639   70.0542  229.1846 H   0  0  0  0  0  0  0  0  0  0  0  0
  1  2  2  0
  2  3  1  0
  3  4  2  0
  4  5  1  0
  5  6  1  0
  6  7  1  0
  7  8  1  0
  8  9  1  0
  9 10  2  0
 10 11  1  0
 11 12  1  0
 12 13  1  0
 13 14  1  0
 14 15  1  0
 15 16  1  0
 16 17  1  0
 11 18  2  0
 18 19  1  0
 19 20  1  0
 20 21  1  0
 21 22  1  0
 22 23  1  0
 23 24  2  0
 24 25  1  0
 25 26  2  0
 26 27  1  0
 27 28  2  0
 28 29  1  0
 19 30  2  0
  4 31  1  0
 31 32  2  0
 32  1  1  0
 30  9  1  0
 17 12  1  0
 29 20  1  0
 28 23  1  0
  1 33  1  0
  2 34  1  0
  3 35  1  0
  5 36  1  0
  5 37  1  0
  6 38  1  0
  6 39  1  0
  7 40  1  0
  7 41  1  0
  8 42  1  0
 10 43  1  0
 13 44  1  0
 13 45  1  0
 14 46  1  0
 14 47  1  0
 15 48  1  0
 16 49  1  0
 16 50  1  0
 17 51  1  0
 17 52  1  0
 21 53  1  0
 21 54  1  0
 22 55  1  0
 22 56  1  0
 24 57  1  0
 25 58  1  0
 26 59  1  0
 27 60  1  0
 29 61  1  0
 29 62  1  0
 31 63  1  0
 32 64  1  0
M  END
>  <smiles>  (7) 
c1ccc(CCCNc2cc(N3CCNCC3)nc(N3CCc4ccccc4C3)n2)cc1

>  <score_type>  (7) 
oracle

>  <origin>  (7) 
autodockgpu

>  <m_score__min__energy>  (7) 
-10.25

>  <m_primary>  (7) 
energy

>  <rmsd>  (7) 
2.879387053565322

>  <m_score__min__rmsd>  (7) 
2.879387053565322

>  <meeko>  (7) 
{"free_energy": -9.96, "intermolecular_energy": -12.05, "internal_energy": -0.89, "cluster_size": 50, "cluster_id": 1, "rank_in_cluster": 17}

>  <energy>  (7) 
-10.07

>  <cluster_rmsd>  (7) 
1.2

>  <cluster>  (7) 
1

$$$$

     RDKit          3D

 64 68  0  0  0  0  0  0  0  0999 V2000
  141.0960   68.2540  228.3730 C   0  0  0  0  0  0  0  0  0  0  0  0
  140.6530   67.8780  227.1310 C   0  0  0  0  0  0  0  0  0  0  0  0
  140.4050   68.7780  226.1270 C   0  0  0  0  0  0  0  0  0  0  0  0
  140.6210   70.1230  226.4080 C   0  0  0  0  0  0  0  0  0  0  0  0
  140.3610   71.1130  225.3410 C   0  0  0  0  0  0  0  0  0  0  0  0
  140.0920   70.4800  223.9910 C   0  0  0  0  0  0  0  0  0  0  0  0
  139.0670   71.2530  223.1950 C   0  0  0  0  0  0  0  0  0  0  0  0
  139.6010   71.5940  221.9200 N   0  0  0  0  0  0  0  0  0  0  0  0
  140.3900   72.7370  221.6310 C   0  0  0  0  0  0  0  0  0  0  0  0
  141.6250   72.6860  221.0230 C   0  0  0  0  0  0  0  0  0  0  0  0
  142.3760   73.8140  220.7650 C   0  0  0  0  0  0  0  0  0  0  0  0
  143.6520   73.7820  220.1380 N   0  0  0  0  0  0  0  0  0  0  0  0
  144.7910   74.5380  220.5550 C   0  0  0  0  0  0  0  0  0  0  0  0
  146.0750   73.7410  220.3570 C   0  0  0  0  0  0  0  0  0  0  0  0
  146.2310   73.2760  219.0130 N   0  0  0  0  0  0  0  0  0  0  0  0
  145.0350   73.3860  218.2130 C   0  0  0  0  0  0  0  0  0  0  0  0
  143.8250   72.9080  218.9700 C   0  0  0  0  0  0  0  0  0  0  0  0
  141.8320   74.9920  221.1430 N   0  0  0  0  0  0  0  0  0  0  0  0
  140.6380   75.0960  221.7350 C   0  0  0  0  0  0  0  0  0  0  0  0
  140.1470   76.3860  222.0980 N   0  0  0  0  0  0  0  0  0  0  0  0
  138.7250   76.5130  222.2990 C   0  0  0  0  0  0  0  0  0  0  0  0
  138.2370   77.8260  222.7650 C   0  0  0  0  0  0  0  0  0  0  0  0
  139.2530   78.8530  223.0180 C   0  0  0  0  0  0  0  0  0  0  0  0
  138.7980   80.0690  223.5410 C   0  0  0  0  0  0  0  0  0  0  0  0
  139.7150   81.0890  223.8060 C   0  0  0  0  0  0  0  0  0  0  0  0
  141.0690   80.9330  223.5650 C   0  0  0  0  0  0  0  0  0  0  0  0
  141.4690   79.7180  223.0510 C   0  0  0  0  0  0  0  0  0  0  0  0
  140.5870   78.6980  222.7810 C   0  0  0  0  0  0  0  0  0  0  0  0
  141.1100   77.4480  222.2350 C   0  0  0  0  0  0  0  0  0  0  0  0
  139.9490   73.9790  221.9650 N   0  0  0  0  0  0  0  0  0  0  0  0
  141.0650   70.5060  227.6520 C   0  0  0  0  0  0  0  0  0  0  0  0
  141.3180   69.6010  228.6700 C   0  0  0  0  0  0  0  0  0  0  0  0
  141.2781   67.4887  229.1419 H   0  0  0  0  0  0  0  0  0  0  0  0
  140.4896   66.8086  226.9317 H   0  0  0  0  0  0  0  0  0  0  0  0
  140.0496   68.4497  225.1391 H   0  0  0  0  0  0  0  0  0  0  0  0
  139.4842   71.7126  225.6268 H   0  0  0  0  0  0  0  0  0  0  0  0
  141.2671   71.7281  225.2385 H   0  0  0  0  0  0  0  0  0  0  0  0
  141.0323   70.4469  223.4211 H   0  0  0  0  0  0  0  0  0  0  0  0
  139.6944   69.4691  224.1641 H   0  0  0  0  0  0  0  0  0  0  0  0
  138.1675   70.6344  223.0602 H   0  0  0  0  0  0  0  0  0  0  0  0
  138.8067   72.1741  223.7370 H   0  0  0  0  0  0  0  0  0  0  0  0
  139.4050   70.9500  221.0930 H   0  0  0  0  0  0  0  0  0  0  0  0
  142.0290   71.7054  220.7312 H   0  0  0  0  0  0  0  0  0  0  0  0
  144.8461   75.4629  219.9620 H   0  0  0  0  0  0  0  0  0  0  0  0
  144.6846   74.7730  221.6243 H   0  0  0  0  0  0  0  0  0  0  0  0
  146.9313   74.3837  220.6093 H   0  0  0  0  0  0  0  0  0  0  0  0
  146.0241   72.8584  221.0116 H   0  0  0  0  0  0  0  0  0  0  0  0
  147.0310   73.6760  218.4960 H   0  0  0  0  0  0  0  0  0  0  0  0
  144.8882   74.4390  217.9308 H   0  0  0  0  0  0  0  0  0  0  0  0
  145.1562   72.7568  217.3189 H   0  0  0  0  0  0  0  0  0  0  0  0
  142.9348   72.9633  218.3261 H   0  0  0  0  0  0  0  0  0  0  0  0
  143.9586   71.8635  219.2881 H   0  0  0  0  0  0  0  0  0  0  0  0
  138.2319   76.2950  221.3402 H   0  0  0  0  0  0  0  0  0  0  0  0
  138.4832   75.8099  223.1096 H   0  0  0  0  0  0  0  0  0  0  0  0
  137.5504   78.2174  221.9999 H   0  0  0  0  0  0  0  0  0  0  0  0
  137.7717   77.6318  223.7427 H   0  0  0  0  0  0  0  0  0  0  0  0
  137.7271   80.2202  223.7417 H   0  0  0  0  0  0  0  0  0  0  0  0
  139.3511   82.0421  224.2174 H   0  0  0  0  0  0  0  0  0  0  0  0
  141.7894   81.7378  223.7731 H   0  0  0  0  0  0  0  0  0  0  0  0
  142.5382   79.5577  222.8484 H   0  0  0  0  0  0  0  0  0  0  0  0
  141.5262   77.6599  221.2391 H   0  0  0  0  0  0  0  0  0  0  0  0
  141.8577   77.0895  222.9578 H   0  0  0  0  0  0  0  0  0  0  0  0
  141.2261   71.5765  227.8470 H   0  0  0  0  0  0  0  0  0  0  0  0
  141.6744   69.9255  229.6588 H   0  0  0  0  0  0  0  0  0  0  0  0
  1  2  2  0
  2  3  1  0
  3  4  2  0
  4  5  1  0
  5  6  1  0
  6  7  1  0
  7  8  1  0
  8  9  1  0
  9 10  2  0
 10 11  1  0
 11 12  1  0
 12 13  1  0
 13 14  1  0
 14 15  1  0
 15 16  1  0
 16 17  1  0
 11 18  2  0
 18 19  1  0
 19 20  1  0
 20 21  1  0
 21 22  1  0
 22 23  1  0
 23 24  2  0
 24 25  1  0
 25 26  2  0
 26 27  1  0
 27 28  2  0
 28 29  1  0
 19 30  2  0
  4 31  1  0
 31 32  2  0
 32  1  1  0
 30  9  1  0
 17 12  1  0
 29 20  1  0
 28 23  1  0
  1 33  1  0
  2 34  1  0
  3 35  1  0
  5 36  1  0
  5 37  1  0
  6 38  1  0
  6 39  1  0
  7 40  1  0
  7 41  1  0
  8 42  1  0
 10 43  1  0
 13 44  1  0
 13 45  1  0
 14 46  1  0
 14 47  1  0
 15 48  1  0
 16 49  1  0
 16 50  1  0
 17 51  1  0
 17 52  1  0
 21 53  1  0
 21 54  1  0
 22 55  1  0
 22 56  1  0
 24 57  1  0
 25 58  1  0
 26 59  1  0
 27 60  1  0
 29 61  1  0
 29 62  1  0
 31 63  1  0
 32 64  1  0
M  END
>  <smiles>  (8) 
c1ccc(CCCNc2cc(N3CCNCC3)nc(N3CCc4ccccc4C3)n2)cc1

>  <score_type>  (8) 
oracle

>  <origin>  (8) 
autodockgpu

>  <m_score__min__energy>  (8) 
-10.25

>  <m_primary>  (8) 
energy

>  <rmsd>  (8) 
2.9902244192981833

>  <m_score__min__rmsd>  (8) 
2.9902244192981833

>  <meeko>  (8) 
{"free_energy": -10.03, "intermolecular_energy": -12.12, "internal_energy": -0.98, "cluster_size": 50, "cluster_id": 1, "rank_in_cluster": 10}

>  <energy>  (8) 
-10.05

>  <cluster_rmsd>  (8) 
1.2

>  <cluster>  (8) 
1

$$$$

     RDKit          3D

 64 68  0  0  0  0  0  0  0  0999 V2000
  142.2140   81.4100  223.7950 C   0  0  0  0  0  0  0  0  0  0  0  0
  140.8800   81.0990  223.8520 C   0  0  0  0  0  0  0  0  0  0  0  0
  140.3900   79.8660  223.5090 C   0  0  0  0  0  0  0  0  0  0  0  0
  141.3070   78.9080  223.0880 C   0  0  0  0  0  0  0  0  0  0  0  0
  140.8030   77.5700  222.7130 C   0  0  0  0  0  0  0  0  0  0  0  0
  139.3640   77.5850  222.2410 C   0  0  0  0  0  0  0  0  0  0  0  0
  139.1780   76.8110  220.9560 C   0  0  0  0  0  0  0  0  0  0  0  0
  138.9140   75.4430  221.2490 N   0  0  0  0  0  0  0  0  0  0  0  0
  139.8920   74.4400  221.4750 C   0  0  0  0  0  0  0  0  0  0  0  0
  141.1170   74.4050  220.8470 C   0  0  0  0  0  0  0  0  0  0  0  0
  142.0450   73.4110  221.0780 C   0  0  0  0  0  0  0  0  0  0  0  0
  143.3150   73.3580  220.4410 N   0  0  0  0  0  0  0  0  0  0  0  0
  144.4630   74.1130  220.8350 C   0  0  0  0  0  0  0  0  0  0  0  0
  145.7400   73.3030  220.6390 C   0  0  0  0  0  0  0  0  0  0  0  0
  145.8800   72.8140  219.3020 N   0  0  0  0  0  0  0  0  0  0  0  0
  144.6780   72.9200  218.5100 C   0  0  0  0  0  0  0  0  0  0  0  0
  143.4710   72.4640  219.2860 C   0  0  0  0  0  0  0  0  0  0  0  0
  141.6870   72.4560  221.9660 N   0  0  0  0  0  0  0  0  0  0  0  0
  140.5120   72.4450  222.6020 C   0  0  0  0  0  0  0  0  0  0  0  0
  140.2250   71.3920  223.5230 N   0  0  0  0  0  0  0  0  0  0  0  0
  139.4880   70.2620  223.0160 C   0  0  0  0  0  0  0  0  0  0  0  0
  139.2760   69.1370  223.9490 C   0  0  0  0  0  0  0  0  0  0  0  0
  139.8760   69.2670  225.2810 C   0  0  0  0  0  0  0  0  0  0  0  0
  139.7490   68.1650  226.1340 C   0  0  0  0  0  0  0  0  0  0  0  0
  140.3000   68.2220  227.4170 C   0  0  0  0  0  0  0  0  0  0  0  0
  140.9700   69.3430  227.8720 C   0  0  0  0  0  0  0  0  0  0  0  0
  141.0710   70.4030  226.9960 C   0  0  0  0  0  0  0  0  0  0  0  0
  140.5380   70.3720  225.7280 C   0  0  0  0  0  0  0  0  0  0  0  0
  140.6960   71.5470  224.8740 C   0  0  0  0  0  0  0  0  0  0  0  0
  139.6470   73.4250  222.3470 N   0  0  0  0  0  0  0  0  0  0  0  0
  142.6470   79.2150  223.0290 C   0  0  0  0  0  0  0  0  0  0  0  0
  143.1480   80.4600  223.3750 C   0  0  0  0  0  0  0  0  0  0  0  0
  142.5519   82.4166  224.0825 H   0  0  0  0  0  0  0  0  0  0  0  0
  140.1729   81.8720  224.1873 H   0  0  0  0  0  0  0  0  0  0  0  0
  139.3144   79.6425  223.5643 H   0  0  0  0  0  0  0  0  0  0  0  0
  141.4326   77.1738  221.9027 H   0  0  0  0  0  0  0  0  0  0  0  0
  140.8448   76.9407  223.6142 H   0  0  0  0  0  0  0  0  0  0  0  0
  138.7306   77.1359  223.0202 H   0  0  0  0  0  0  0  0  0  0  0  0
  139.0815   78.6308  222.0500 H   0  0  0  0  0  0  0  0  0  0  0  0
  138.3318   77.2338  220.3946 H   0  0  0  0  0  0  0  0  0  0  0  0
  140.0958   76.8821  220.3539 H   0  0  0  0  0  0  0  0  0  0  0  0
  137.9010   75.1180  221.3090 H   0  0  0  0  0  0  0  0  0  0  0  0
  141.3658   75.2027  220.1316 H   0  0  0  0  0  0  0  0  0  0  0  0
  144.5193   75.0273  220.2259 H   0  0  0  0  0  0  0  0  0  0  0  0
  144.3679   74.3670  221.9010 H   0  0  0  0  0  0  0  0  0  0  0  0
  146.6032   73.9437  220.8723 H   0  0  0  0  0  0  0  0  0  0  0  0
  145.6891   72.4322  221.3092 H   0  0  0  0  0  0  0  0  0  0  0  0
  146.6780   73.2000  218.7710 H   0  0  0  0  0  0  0  0  0  0  0  0
  144.5368   73.9692  218.2113 H   0  0  0  0  0  0  0  0  0  0  0  0
  144.7865   72.2753  217.6253 H   0  0  0  0  0  0  0  0  0  0  0  0
  142.5755   72.5157  218.6493 H   0  0  0  0  0  0  0  0  0  0  0  0
  143.5997   71.4239  219.6201 H   0  0  0  0  0  0  0  0  0  0  0  0
  138.4986   70.6239  222.6996 H   0  0  0  0  0  0  0  0  0  0  0  0
  140.1078   69.8525  222.2047 H   0  0  0  0  0  0  0  0  0  0  0  0
  138.1911   69.0137  224.0822 H   0  0  0  0  0  0  0  0  0  0  0  0
  139.7813   68.2767  223.4858 H   0  0  0  0  0  0  0  0  0  0  0  0
  139.2198   67.2613  225.7974 H   0  0  0  0  0  0  0  0  0  0  0  0
  140.1981   67.3522  228.0826 H   0  0  0  0  0  0  0  0  0  0  0  0
  141.4011   69.3868  228.8830 H   0  0  0  0  0  0  0  0  0  0  0  0
  141.5992   71.3103  227.3243 H   0  0  0  0  0  0  0  0  0  0  0  0
  140.1420   72.3786  225.3339 H   0  0  0  0  0  0  0  0  0  0  0  0
  141.7787   71.7267  224.8004 H   0  0  0  0  0  0  0  0  0  0  0  0
  143.3506   78.4391  222.6929 H   0  0  0  0  0  0  0  0  0  0  0  0
  144.2228   80.6877  223.3218 H   0  0  0  0  0  0  0  0  0  0  0  0
  1  2  2  0
  2  3  1  0
  3  4  2  0
  4  5  1  0
  5  6  1  0
  6  7  1  0
  7  8  1  0
  8  9  1  0
  9 10  2  0
 10 11  1  0
 11 12  1  0
 12 13  1  0
 13 14  1  0
 14 15  1  0
 15 16  1  0
 16 17  1  0
 11 18  2  0
 18 19  1  0
 19 20  1  0
 20 21  1  0
 21 22  1  0
 22 23  1  0
 23 24  2  0
 24 25  1  0
 25 26  2  0
 26 27  1  0
 27 28  2  0
 28 29  1  0
 19 30  2  0
  4 31  1  0
 31 32  2  0
 32  1  1  0
 30  9  1  0
 17 12  1  0
 29 20  1  0
 28 23  1  0
  1 33  1  0
  2 34  1  0
  3 35  1  0
  5 36  1  0
  5 37  1  0
  6 38  1  0
  6 39  1  0
  7 40  1  0
  7 41  1  0
  8 42  1  0
 10 43  1  0
 13 44  1  0
 13 45  1  0
 14 46  1  0
 14 47  1  0
 15 48  1  0
 16 49  1  0
 16 50  1  0
 17 51  1  0
 17 52  1  0
 21 53  1  0
 21 54  1  0
 22 55  1  0
 22 56  1  0
 24 57  1  0
 25 58  1  0
 26 59  1  0
 27 60  1  0
 29 61  1  0
 29 62  1  0
 31 63  1  0
 32 64  1  0
M  END
>  <smiles>  (9) 
c1ccc(CCCNc2cc(N3CCNCC3)nc(N3CCc4ccccc4C3)n2)cc1

>  <score_type>  (9) 
oracle

>  <origin>  (9) 
autodockgpu

>  <m_score__min__energy>  (9) 
-10.25

>  <m_primary>  (9) 
energy

>  <rmsd>  (9) 
9.204606774957654

>  <m_score__min__rmsd>  (9) 
9.204606774957654

>  <meeko>  (9) 
{"free_energy": -10.01, "intermolecular_energy": -12.1, "internal_energy": -1.07, "cluster_size": 50, "cluster_id": 1, "rank_in_cluster": 11}

>  <energy>  (9) 
-10.05

>  <cluster_rmsd>  (9) 
0.81

>  <cluster>  (9) 
1

$$$$

     RDKit          3D

 64 68  0  0  0  0  0  0  0  0999 V2000
  141.0730   71.6520  228.3990 C   0  0  0  0  0  0  0  0  0  0  0  0
  140.4300   70.4470  228.2740 C   0  0  0  0  0  0  0  0  0  0  0  0
  140.1180   69.8940  227.0590 C   0  0  0  0  0  0  0  0  0  0  0  0
  140.4780   70.6090  225.9210 C   0  0  0  0  0  0  0  0  0  0  0  0
  140.1520   70.0340  224.5990 C   0  0  0  0  0  0  0  0  0  0  0  0
  138.7630   70.3960  224.1170 C   0  0  0  0  0  0  0  0  0  0  0  0
  138.7550   70.8110  222.6630 C   0  0  0  0  0  0  0  0  0  0  0  0
  138.6410   72.2270  222.5650 N   0  0  0  0  0  0  0  0  0  0  0  0
  139.6690   73.1140  222.1560 C   0  0  0  0  0  0  0  0  0  0  0  0
  140.8520   72.7080  221.5800 C   0  0  0  0  0  0  0  0  0  0  0  0
  141.8400   73.5940  221.2020 C   0  0  0  0  0  0  0  0  0  0  0  0
  143.0670   73.1940  220.6060 N   0  0  0  0  0  0  0  0  0  0  0  0
  144.0830   74.0850  220.1400 C   0  0  0  0  0  0  0  0  0  0  0  0
  145.4710   73.5050  220.3870 C   0  0  0  0  0  0  0  0  0  0  0  0
  145.6300   72.2030  219.8180 N   0  0  0  0  0  0  0  0  0  0  0  0
  144.3910   71.5880  219.4040 C   0  0  0  0  0  0  0  0  0  0  0  0
  143.3220   71.7550  220.4500 C   0  0  0  0  0  0  0  0  0  0  0  0
  141.5860   74.9020  221.4290 N   0  0  0  0  0  0  0  0  0  0  0  0
  140.4550   75.3480  221.9830 C   0  0  0  0  0  0  0  0  0  0  0  0
  140.2790   76.7500  222.1810 N   0  0  0  0  0  0  0  0  0  0  0  0
  138.9440   77.2070  222.4780 C   0  0  0  0  0  0  0  0  0  0  0  0
  138.7870   78.6450  222.7740 C   0  0  0  0  0  0  0  0  0  0  0  0
  140.0110   79.4530  222.7780 C   0  0  0  0  0  0  0  0  0  0  0  0
  139.8730   80.7970  223.1420 C   0  0  0  0  0  0  0  0  0  0  0  0
  141.0000   81.6210  223.1690 C   0  0  0  0  0  0  0  0  0  0  0  0
  142.2580   81.1460  222.8430 C   0  0  0  0  0  0  0  0  0  0  0  0
  142.3450   79.8160  222.4910 C   0  0  0  0  0  0  0  0  0  0  0  0
  141.2500   78.9830  222.4580 C   0  0  0  0  0  0  0  0  0  0  0  0
  141.4450   77.5880  222.0700 C   0  0  0  0  0  0  0  0  0  0  0  0
  139.5290   74.4560  222.3320 N   0  0  0  0  0  0  0  0  0  0  0  0
  141.1230   71.8180  226.0400 C   0  0  0  0  0  0  0  0  0  0  0  0
  141.4420   72.3810  227.2660 C   0  0  0  0  0  0  0  0  0  0  0  0
  141.3000   72.0477  229.3999 H   0  0  0  0  0  0  0  0  0  0  0  0
  140.1528   69.9009  229.1878 H   0  0  0  0  0  0  0  0  0  0  0  0
  139.6038   68.9242  226.9867 H   0  0  0  0  0  0  0  0  0  0  0  0
  140.8839   70.4048  223.8664 H   0  0  0  0  0  0  0  0  0  0  0  0
  140.1876   68.9393  224.7010 H   0  0  0  0  0  0  0  0  0  0  0  0
  138.1061   69.5223  224.2400 H   0  0  0  0  0  0  0  0  0  0  0  0
  138.4091   71.2491  224.7144 H   0  0  0  0  0  0  0  0  0  0  0  0
  139.6913   70.4863  222.1856 H   0  0  0  0  0  0  0  0  0  0  0  0
  137.8983   70.3423  222.1567 H   0  0  0  0  0  0  0  0  0  0  0  0
  137.7110   72.6850  222.8160 H   0  0  0  0  0  0  0  0  0  0  0  0
  141.0162   71.6330  221.4144 H   0  0  0  0  0  0  0  0  0  0  0  0
  143.9490   74.2511  219.0609 H   0  0  0  0  0  0  0  0  0  0  0  0
  143.9963   75.0344  220.6888 H   0  0  0  0  0  0  0  0  0  0  0  0
  146.2187   74.1780  219.9421 H   0  0  0  0  0  0  0  0  0  0  0  0
  145.6058   73.4129  221.4748 H   0  0  0  0  0  0  0  0  0  0  0  0
  146.3220   72.1350  219.0540 H   0  0  0  0  0  0  0  0  0  0  0  0
  144.0532   72.0571  218.4682 H   0  0  0  0  0  0  0  0  0  0  0  0
  144.5689   70.5124  219.2577 H   0  0  0  0  0  0  0  0  0  0  0  0
  142.4019   71.2445  220.1295 H   0  0  0  0  0  0  0  0  0  0  0  0
  143.6471   71.3166  221.4051 H   0  0  0  0  0  0  0  0  0  0  0  0
  138.3108   76.9742  221.6092 H   0  0  0  0  0  0  0  0  0  0  0  0
  138.6598   76.6878  223.4052 H   0  0  0  0  0  0  0  0  0  0  0  0
  138.1098   79.0692  222.0180 H   0  0  0  0  0  0  0  0  0  0  0  0
  138.4078   78.6886  223.8057 H   0  0  0  0  0  0  0  0  0  0  0  0
  138.8844   81.2013  223.4048 H   0  0  0  0  0  0  0  0  0  0  0  0
  140.8846   82.6763  223.4572 H   0  0  0  0  0  0  0  0  0  0  0  0
  143.1444   81.7971  222.8637 H   0  0  0  0  0  0  0  0  0  0  0  0
  143.3297   79.4038  222.2257 H   0  0  0  0  0  0  0  0  0  0  0  0
  141.7780   77.5701  221.0218 H   0  0  0  0  0  0  0  0  0  0  0  0
  142.1835   77.1767  222.7739 H   0  0  0  0  0  0  0  0  0  0  0  0
  141.3973   72.3611  225.1236 H   0  0  0  0  0  0  0  0  0  0  0  0
  141.9579   73.3495  227.3425 H   0  0  0  0  0  0  0  0  0  0  0  0
  1  2  2  0
  2  3  1  0
  3  4  2  0
  4  5  1  0
  5  6  1  0
  6  7  1  0
  7  8  1  0
  8  9  1  0
  9 10  2  0
 10 11  1  0
 11 12  1  0
 12 13  1  0
 13 14  1  0
 14 15  1  0
 15 16  1  0
 16 17  1  0
 11 18  2  0
 18 19  1  0
 19 20  1  0
 20 21  1  0
 21 22  1  0
 22 23  1  0
 23 24  2  0
 24 25  1  0
 25 26  2  0
 26 27  1  0
 27 28  2  0
 28 29  1  0
 19 30  2  0
  4 31  1  0
 31 32  2  0
 32  1  1  0
 30  9  1  0
 17 12  1  0
 29 20  1  0
 28 23  1  0
  1 33  1  0
  2 34  1  0
  3 35  1  0
  5 36  1  0
  5 37  1  0
  6 38  1  0
  6 39  1  0
  7 40  1  0
  7 41  1  0
  8 42  1  0
 10 43  1  0
 13 44  1  0
 13 45  1  0
 14 46  1  0
 14 47  1  0
 15 48  1  0
 16 49  1  0
 16 50  1  0
 17 51  1  0
 17 52  1  0
 21 53  1  0
 21 54  1  0
 22 55  1  0
 22 56  1  0
 24 57  1  0
 25 58  1  0
 26 59  1  0
 27 60  1  0
 29 61  1  0
 29 62  1  0
 31 63  1  0
 32 64  1  0
M  END
>  <smiles>  (10) 
c1ccc(CCCNc2cc(N3CCNCC3)nc(N3CCc4ccccc4C3)n2)cc1

>  <score_type>  (10) 
oracle

>  <origin>  (10) 
autodockgpu

>  <m_score__min__energy>  (10) 
-10.25

>  <m_primary>  (10) 
energy

>  <rmsd>  (10) 
2.7482364047823067

>  <m_score__min__rmsd>  (10) 
2.7482364047823067

>  <meeko>  (10) 
{"free_energy": -9.83, "intermolecular_energy": -11.92, "internal_energy": -1.2, "cluster_size": 50, "cluster_id": 1, "rank_in_cluster": 24}

>  <energy>  (10) 
-10.03

>  <cluster_rmsd>  (10) 
0.27

>  <cluster>  (10) 
1

$$$$

     RDKit          3D

 64 68  0  0  0  0  0  0  0  0999 V2000
  140.9410   69.7100  228.3360 C   0  0  0  0  0  0  0  0  0  0  0  0
  140.6250   68.9550  227.2370 C   0  0  0  0  0  0  0  0  0  0  0  0
  140.4070   69.5020  225.9980 C   0  0  0  0  0  0  0  0  0  0  0  0
  140.5170   70.8840  225.8820 C   0  0  0  0  0  0  0  0  0  0  0  0
  140.2870   71.4970  224.5570 C   0  0  0  0  0  0  0  0  0  0  0  0
  139.7720   70.5140  223.5260 C   0  0  0  0  0  0  0  0  0  0  0  0
  138.9100   71.1860  222.4810 C   0  0  0  0  0  0  0  0  0  0  0  0
  139.1380   72.5910  222.4960 N   0  0  0  0  0  0  0  0  0  0  0  0
  140.2670   73.2540  221.9480 C   0  0  0  0  0  0  0  0  0  0  0  0
  141.3480   72.6030  221.3980 C   0  0  0  0  0  0  0  0  0  0  0  0
  142.4380   73.2730  220.8820 C   0  0  0  0  0  0  0  0  0  0  0  0
  143.5630   72.6190  220.3090 N   0  0  0  0  0  0  0  0  0  0  0  0
  143.5620   71.2870  219.7910 C   0  0  0  0  0  0  0  0  0  0  0  0
  144.4650   71.1780  218.5680 C   0  0  0  0  0  0  0  0  0  0  0  0
  145.7980   71.6270  218.8280 N   0  0  0  0  0  0  0  0  0  0  0  0
  145.9400   72.3570  220.0660 C   0  0  0  0  0  0  0  0  0  0  0  0
  144.8300   73.3590  220.2390 C   0  0  0  0  0  0  0  0  0  0  0  0
  142.3920   74.6220  220.9450 N   0  0  0  0  0  0  0  0  0  0  0  0
  141.3670   75.3020  221.4680 C   0  0  0  0  0  0  0  0  0  0  0  0
  141.4110   76.7280  221.4900 N   0  0  0  0  0  0  0  0  0  0  0  0
  141.7990   77.3890  220.2690 C   0  0  0  0  0  0  0  0  0  0  0  0
  141.7520   78.8650  220.2720 C   0  0  0  0  0  0  0  0  0  0  0  0
  141.2730   79.5050  221.5010 C   0  0  0  0  0  0  0  0  0  0  0  0
  141.1480   80.8990  221.4740 C   0  0  0  0  0  0  0  0  0  0  0  0
  140.6950   81.5700  222.6120 C   0  0  0  0  0  0  0  0  0  0  0  0
  140.3670   80.8950  223.7740 C   0  0  0  0  0  0  0  0  0  0  0  0
  140.5060   79.5240  223.7530 C   0  0  0  0  0  0  0  0  0  0  0  0
  140.9490   78.8390  222.6460 C   0  0  0  0  0  0  0  0  0  0  0  0
  141.0650   77.3840  222.7240 C   0  0  0  0  0  0  0  0  0  0  0  0
  140.3360   74.6120  221.9540 N   0  0  0  0  0  0  0  0  0  0  0  0
  140.8340   71.6460  226.9820 C   0  0  0  0  0  0  0  0  0  0  0  0
  141.0560   71.0980  228.2360 C   0  0  0  0  0  0  0  0  0  0  0  0
  141.1056   69.2181  229.3060 H   0  0  0  0  0  0  0  0  0  0  0  0
  140.5427   67.8643  227.3532 H   0  0  0  0  0  0  0  0  0  0  0  0
  140.1554   68.8733  225.1312 H   0  0  0  0  0  0  0  0  0  0  0  0
  139.5490   72.3050  224.6690 H   0  0  0  0  0  0  0  0  0  0  0  0
  141.2570   71.8704  224.1968 H   0  0  0  0  0  0  0  0  0  0  0  0
  140.6306   70.0409  223.0270 H   0  0  0  0  0  0  0  0  0  0  0  0
  139.1535   69.7687  224.0475 H   0  0  0  0  0  0  0  0  0  0  0  0
  139.1623   70.7861  221.4878 H   0  0  0  0  0  0  0  0  0  0  0  0
  137.8510   70.9884  222.7032 H   0  0  0  0  0  0  0  0  0  0  0  0
  138.4120   73.2230  222.9540 H   0  0  0  0  0  0  0  0  0  0  0  0
  141.3425   71.5034  221.3687 H   0  0  0  0  0  0  0  0  0  0  0  0
  143.9240   70.5981  220.5684 H   0  0  0  0  0  0  0  0  0  0  0  0
  142.5354   71.0263  219.4941 H   0  0  0  0  0  0  0  0  0  0  0  0
  144.5031   70.1255  218.2507 H   0  0  0  0  0  0  0  0  0  0  0  0
  144.0429   71.8227  217.7831 H   0  0  0  0  0  0  0  0  0  0  0  0
  146.5300   70.9000  218.7700 H   0  0  0  0  0  0  0  0  0  0  0  0
  145.9161   71.6469  220.9057 H   0  0  0  0  0  0  0  0  0  0  0  0
  146.8970   72.8988  220.0424 H   0  0  0  0  0  0  0  0  0  0  0  0
  144.9820   73.9291  221.1674 H   0  0  0  0  0  0  0  0  0  0  0  0
  144.8158   74.0656  219.3961 H   0  0  0  0  0  0  0  0  0  0  0  0
  142.8323   77.0885  220.0407 H   0  0  0  0  0  0  0  0  0  0  0  0
  141.0550   77.0768  219.5213 H   0  0  0  0  0  0  0  0  0  0  0  0
  142.7713   79.2315  220.0805 H   0  0  0  0  0  0  0  0  0  0  0  0
  141.0155   79.1328  219.5001 H   0  0  0  0  0  0  0  0  0  0  0  0
  141.4044   81.4612  220.5640 H   0  0  0  0  0  0  0  0  0  0  0  0
  140.5964   82.6652  222.5835 H   0  0  0  0  0  0  0  0  0  0  0  0
  140.0129   81.4259  224.6700 H   0  0  0  0  0  0  0  0  0  0  0  0
  140.2521   78.9543  224.6591 H   0  0  0  0  0  0  0  0  0  0  0  0
  141.8410   77.1441  223.4658 H   0  0  0  0  0  0  0  0  0  0  0  0
  140.0659   77.0131  222.9963 H   0  0  0  0  0  0  0  0  0  0  0  0
  140.9148   72.7364  226.8618 H   0  0  0  0  0  0  0  0  0  0  0  0
  141.3091   71.7229  229.1052 H   0  0  0  0  0  0  0  0  0  0  0  0
  1  2  2  0
  2  3  1  0
  3  4  2  0
  4  5  1  0
  5  6  1  0
  6  7  1  0
  7  8  1  0
  8  9  1  0
  9 10  2  0
 10 11  1  0
 11 12  1  0
 12 13  1  0
 13 14  1  0
 14 15  1  0
 15 16  1  0
 16 17  1  0
 11 18  2  0
 18 19  1  0
 19 20  1  0
 20 21  1  0
 21 22  1  0
 22 23  1  0
 23 24  2  0
 24 25  1  0
 25 26  2  0
 26 27  1  0
 27 28  2  0
 28 29  1  0
 19 30  2  0
  4 31  1  0
 31 32  2  0
 32  1  1  0
 30  9  1  0
 17 12  1  0
 29 20  1  0
 28 23  1  0
  1 33  1  0
  2 34  1  0
  3 35  1  0
  5 36  1  0
  5 37  1  0
  6 38  1  0
  6 39  1  0
  7 40  1  0
  7 41  1  0
  8 42  1  0
 10 43  1  0
 13 44  1  0
 13 45  1  0
 14 46  1  0
 14 47  1  0
 15 48  1  0
 16 49  1  0
 16 50  1  0
 17 51  1  0
 17 52  1  0
 21 53  1  0
 21 54  1  0
 22 55  1  0
 22 56  1  0
 24 57  1  0
 25 58  1  0
 26 59  1  0
 27 60  1  0
 29 61  1  0
 29 62  1  0
 31 63  1  0
 32 64  1  0
M  END
>  <smiles>  (11) 
c1ccc(CCCNc2cc(N3CCNCC3)nc(N3CCc4ccccc4C3)n2)cc1

>  <score_type>  (11) 
oracle

>  <origin>  (11) 
autodockgpu

>  <m_score__min__energy>  (11) 
-10.25

>  <m_primary>  (11) 
energy

>  <rmsd>  (11) 
2.752879132095717

>  <m_score__min__rmsd>  (11) 
2.752879132095717

>  <meeko>  (11) 
{"free_energy": -9.92, "intermolecular_energy": -12.01, "internal_energy": -1.03, "cluster_size": 50, "cluster_id": 1, "rank_in_cluster": 20}

>  <energy>  (11) 
-10.01

>  <cluster_rmsd>  (11) 
1.35

>  <cluster>  (11) 
1

$$$$

     RDKit          3D

 64 68  0  0  0  0  0  0  0  0999 V2000
  141.0270   68.1180  228.2760 C   0  0  0  0  0  0  0  0  0  0  0  0
  141.1750   69.4080  228.7180 C   0  0  0  0  0  0  0  0  0  0  0  0
  141.0170   70.4960  227.8990 C   0  0  0  0  0  0  0  0  0  0  0  0
  140.6950   70.2520  226.5680 C   0  0  0  0  0  0  0  0  0  0  0  0
  140.5190   71.4090  225.6650 C   0  0  0  0  0  0  0  0  0  0  0  0
  140.6740   71.0520  224.2010 C   0  0  0  0  0  0  0  0  0  0  0  0
  139.3750   71.1940  223.4400 C   0  0  0  0  0  0  0  0  0  0  0  0
  139.6400   71.6180  222.1070 N   0  0  0  0  0  0  0  0  0  0  0  0
  140.3880   72.7640  221.7340 C   0  0  0  0  0  0  0  0  0  0  0  0
  141.5860   72.7140  221.0570 C   0  0  0  0  0  0  0  0  0  0  0  0
  142.2980   73.8460  220.7180 C   0  0  0  0  0  0  0  0  0  0  0  0
  143.5360   73.8140  220.0190 N   0  0  0  0  0  0  0  0  0  0  0  0
  144.7540   74.4020  220.4790 C   0  0  0  0  0  0  0  0  0  0  0  0
  145.9540   73.5490  220.0830 C   0  0  0  0  0  0  0  0  0  0  0  0
  146.0060   73.2940  218.6770 N   0  0  0  0  0  0  0  0  0  0  0  0
  144.7880   73.6240  217.9760 C   0  0  0  0  0  0  0  0  0  0  0  0
  143.5780   73.1270  218.7200 C   0  0  0  0  0  0  0  0  0  0  0  0
  141.7540   75.0260  221.0880 N   0  0  0  0  0  0  0  0  0  0  0  0
  140.5950   75.1290  221.7460 C   0  0  0  0  0  0  0  0  0  0  0  0
  140.1010   76.4220  222.0940 N   0  0  0  0  0  0  0  0  0  0  0  0
  138.6730   76.5610  222.2360 C   0  0  0  0  0  0  0  0  0  0  0  0
  138.1780   77.8770  222.6870 C   0  0  0  0  0  0  0  0  0  0  0  0
  139.1910   78.8930  222.9870 C   0  0  0  0  0  0  0  0  0  0  0  0
  138.7260   80.1110  223.4960 C   0  0  0  0  0  0  0  0  0  0  0  0
  139.6400   81.1210  223.8050 C   0  0  0  0  0  0  0  0  0  0  0  0
  141.0010   80.9540  223.6200 C   0  0  0  0  0  0  0  0  0  0  0  0
  141.4120   79.7380  223.1170 C   0  0  0  0  0  0  0  0  0  0  0  0
  140.5330   78.7270  222.8060 C   0  0  0  0  0  0  0  0  0  0  0  0
  141.0670   77.4740  222.2760 C   0  0  0  0  0  0  0  0  0  0  0  0
  139.9420   74.0090  222.0520 N   0  0  0  0  0  0  0  0  0  0  0  0
  140.5450   68.9600  226.1190 C   0  0  0  0  0  0  0  0  0  0  0  0
  140.7030   67.8570  226.9440 C   0  0  0  0  0  0  0  0  0  0  0  0
  141.1649   67.2820  228.9775 H   0  0  0  0  0  0  0  0  0  0  0  0
  141.4313   69.5767  229.7743 H   0  0  0  0  0  0  0  0  0  0  0  0
  141.1399   71.5209  228.2792 H   0  0  0  0  0  0  0  0  0  0  0  0
  139.5116   71.8228  225.8192 H   0  0  0  0  0  0  0  0  0  0  0  0
  141.3065   72.1372  225.9092 H   0  0  0  0  0  0  0  0  0  0  0  0
  141.4236   71.7193  223.7507 H   0  0  0  0  0  0  0  0  0  0  0  0
  140.9886   69.9997  224.1405 H   0  0  0  0  0  0  0  0  0  0  0  0
  138.8567   70.2240  223.4183 H   0  0  0  0  0  0  0  0  0  0  0  0
  138.7417   71.9419  223.9395 H   0  0  0  0  0  0  0  0  0  0  0  0
  139.2510   71.0400  221.2990 H   0  0  0  0  0  0  0  0  0  0  0  0
  141.9919   71.7313  220.7750 H   0  0  0  0  0  0  0  0  0  0  0  0
  144.8611   75.4025  220.0347 H   0  0  0  0  0  0  0  0  0  0  0  0
  144.7185   74.4705  221.5763 H   0  0  0  0  0  0  0  0  0  0  0  0
  146.8735   74.0745  220.3802 H   0  0  0  0  0  0  0  0  0  0  0  0
  145.8579   72.5799  220.5945 H   0  0  0  0  0  0  0  0  0  0  0  0
  146.8130   73.7080  218.1810 H   0  0  0  0  0  0  0  0  0  0  0  0
  144.7200   74.7168  217.8704 H   0  0  0  0  0  0  0  0  0  0  0  0
  144.8127   73.1388  216.9891 H   0  0  0  0  0  0  0  0  0  0  0  0
  142.6669   73.3540  218.1469 H   0  0  0  0  0  0  0  0  0  0  0  0
  143.6353   72.0378  218.8629 H   0  0  0  0  0  0  0  0  0  0  0  0
  138.2183   76.3513  221.2565 H   0  0  0  0  0  0  0  0  0  0  0  0
  138.3911   75.8568  223.0326 H   0  0  0  0  0  0  0  0  0  0  0  0
  137.5278   78.2779  221.8954 H   0  0  0  0  0  0  0  0  0  0  0  0
  137.6705   77.6831  223.6435 H   0  0  0  0  0  0  0  0  0  0  0  0
  137.6490   80.2717  223.6515 H   0  0  0  0  0  0  0  0  0  0  0  0
  139.2677   82.0751  224.2063 H   0  0  0  0  0  0  0  0  0  0  0  0
  141.7190   81.7514  223.8621 H   0  0  0  0  0  0  0  0  0  0  0  0
  142.4873   79.5694  222.9579 H   0  0  0  0  0  0  0  0  0  0  0  0
  141.5263   77.6864  221.2993 H   0  0  0  0  0  0  0  0  0  0  0  0
  141.7806   77.1052  223.0276 H   0  0  0  0  0  0  0  0  0  0  0  0
  140.2892   68.7955  225.0619 H   0  0  0  0  0  0  0  0  0  0  0  0
  140.5795   66.8305  226.5685 H   0  0  0  0  0  0  0  0  0  0  0  0
  1  2  2  0
  2  3  1  0
  3  4  2  0
  4  5  1  0
  5  6  1  0
  6  7  1  0
  7  8  1  0
  8  9  1  0
  9 10  2  0
 10 11  1  0
 11 12  1  0
 12 13  1  0
 13 14  1  0
 14 15  1  0
 15 16  1  0
 16 17  1  0
 11 18  2  0
 18 19  1  0
 19 20  1  0
 20 21  1  0
 21 22  1  0
 22 23  1  0
 23 24  2  0
 24 25  1  0
 25 26  2  0
 26 27  1  0
 27 28  2  0
 28 29  1  0
 19 30  2  0
  4 31  1  0
 31 32  2  0
 32  1  1  0
 30  9  1  0
 17 12  1  0
 29 20  1  0
 28 23  1  0
  1 33  1  0
  2 34  1  0
  3 35  1  0
  5 36  1  0
  5 37  1  0
  6 38  1  0
  6 39  1  0
  7 40  1  0
  7 41  1  0
  8 42  1  0
 10 43  1  0
 13 44  1  0
 13 45  1  0
 14 46  1  0
 14 47  1  0
 15 48  1  0
 16 49  1  0
 16 50  1  0
 17 51  1  0
 17 52  1  0
 21 53  1  0
 21 54  1  0
 22 55  1  0
 22 56  1  0
 24 57  1  0
 25 58  1  0
 26 59  1  0
 27 60  1  0
 29 61  1  0
 29 62  1  0
 31 63  1  0
 32 64  1  0
M  END
>  <smiles>  (12) 
c1ccc(CCCNc2cc(N3CCNCC3)nc(N3CCc4ccccc4C3)n2)cc1

>  <score_type>  (12) 
oracle

>  <origin>  (12) 
autodockgpu

>  <m_score__min__energy>  (12) 
-10.25

>  <m_primary>  (12) 
energy

>  <rmsd>  (12) 
2.308763079472022

>  <m_score__min__rmsd>  (12) 
2.308763079472022

>  <meeko>  (12) 
{"free_energy": -10.25, "intermolecular_energy": -12.34, "internal_energy": -1.01, "cluster_size": 50, "cluster_id": 1, "rank_in_cluster": 1}

>  <energy>  (12) 
-10.01

>  <cluster_rmsd>  (12) 
1.48

>  <cluster>  (12) 
1

$$$$

     RDKit          3D

 64 68  0  0  0  0  0  0  0  0999 V2000
  140.9640   71.6120  228.3380 C   0  0  0  0  0  0  0  0  0  0  0  0
  140.2630   70.4410  228.2090 C   0  0  0  0  0  0  0  0  0  0  0  0
  139.9450   69.8960  226.9910 C   0  0  0  0  0  0  0  0  0  0  0  0
  140.3620   70.5840  225.8560 C   0  0  0  0  0  0  0  0  0  0  0  0
  140.0310   70.0170  224.5320 C   0  0  0  0  0  0  0  0  0  0  0  0
  138.6510   70.4060  224.0440 C   0  0  0  0  0  0  0  0  0  0  0  0
  138.6810   70.9670  222.6400 C   0  0  0  0  0  0  0  0  0  0  0  0
  138.7400   72.3880  222.6890 N   0  0  0  0  0  0  0  0  0  0  0  0
  139.8000   73.1910  222.1950 C   0  0  0  0  0  0  0  0  0  0  0  0
  140.9790   72.6860  221.6940 C   0  0  0  0  0  0  0  0  0  0  0  0
  141.9990   73.4910  221.2310 C   0  0  0  0  0  0  0  0  0  0  0  0
  143.2220   72.9880  220.7100 N   0  0  0  0  0  0  0  0  0  0  0  0
  143.4750   71.6190  220.3880 C   0  0  0  0  0  0  0  0  0  0  0  0
  144.3650   71.5040  219.1550 C   0  0  0  0  0  0  0  0  0  0  0  0
  145.5880   72.2350  219.2920 N   0  0  0  0  0  0  0  0  0  0  0  0
  145.6000   73.1540  220.4060 C   0  0  0  0  0  0  0  0  0  0  0  0
  144.3180   73.9380  220.4810 C   0  0  0  0  0  0  0  0  0  0  0  0
  141.7810   74.8230  221.2940 N   0  0  0  0  0  0  0  0  0  0  0  0
  140.6550   75.3650  221.7700 C   0  0  0  0  0  0  0  0  0  0  0  0
  140.5190   76.7850  221.7950 N   0  0  0  0  0  0  0  0  0  0  0  0
  139.4560   77.3550  221.0050 C   0  0  0  0  0  0  0  0  0  0  0  0
  139.2630   78.8150  221.1100 C   0  0  0  0  0  0  0  0  0  0  0  0
  140.1430   79.5290  222.0400 C   0  0  0  0  0  0  0  0  0  0  0  0
  139.9020   80.8980  222.2030 C   0  0  0  0  0  0  0  0  0  0  0  0
  140.7040   81.6370  223.0770 C   0  0  0  0  0  0  0  0  0  0  0  0
  141.7350   81.0530  223.7900 C   0  0  0  0  0  0  0  0  0  0  0  0
  141.9330   79.7030  223.5970 C   0  0  0  0  0  0  0  0  0  0  0  0
  141.1590   78.9520  222.7440 C   0  0  0  0  0  0  0  0  0  0  0  0
  141.4490   77.5270  222.6060 C   0  0  0  0  0  0  0  0  0  0  0  0
  139.6980   74.5480  222.2060 N   0  0  0  0  0  0  0  0  0  0  0  0
  141.0650   71.7590  225.9800 C   0  0  0  0  0  0  0  0  0  0  0  0
  141.3900   72.3140  227.2080 C   0  0  0  0  0  0  0  0  0  0  0  0
  141.1931   72.0024  229.3405 H   0  0  0  0  0  0  0  0  0  0  0  0
  139.9419   69.9162  229.1208 H   0  0  0  0  0  0  0  0  0  0  0  0
  139.3832   68.9534  226.9148 H   0  0  0  0  0  0  0  0  0  0  0  0
  140.7732   70.3747  223.8031 H   0  0  0  0  0  0  0  0  0  0  0  0
  140.0452   68.9217  224.6328 H   0  0  0  0  0  0  0  0  0  0  0  0
  138.0063   69.5148  224.0561 H   0  0  0  0  0  0  0  0  0  0  0  0
  138.2633   71.1884  224.7131 H   0  0  0  0  0  0  0  0  0  0  0  0
  139.5664   70.5829  222.1123 H   0  0  0  0  0  0  0  0  0  0  0  0
  137.7691   70.6599  222.1070 H   0  0  0  0  0  0  0  0  0  0  0  0
  137.9280   72.9200  223.1310 H   0  0  0  0  0  0  0  0  0  0  0  0
  141.1131   71.5947  221.6616 H   0  0  0  0  0  0  0  0  0  0  0  0
  143.9759   71.1356  221.2397 H   0  0  0  0  0  0  0  0  0  0  0  0
  142.5152   71.1255  220.1752 H   0  0  0  0  0  0  0  0  0  0  0  0
  144.6046   70.4431  218.9905 H   0  0  0  0  0  0  0  0  0  0  0  0
  143.8140   71.9307  218.3039 H   0  0  0  0  0  0  0  0  0  0  0  0
  146.4470   71.6610  219.3070 H   0  0  0  0  0  0  0  0  0  0  0  0
  145.7272   72.5850  221.3387 H   0  0  0  0  0  0  0  0  0  0  0  0
  146.4314   73.8603  220.2649 H   0  0  0  0  0  0  0  0  0  0  0  0
  144.3681   74.6582  221.3109 H   0  0  0  0  0  0  0  0  0  0  0  0
  144.1538   74.4952  219.5469 H   0  0  0  0  0  0  0  0  0  0  0  0
  139.6619   77.1208  219.9501 H   0  0  0  0  0  0  0  0  0  0  0  0
  138.5307   76.9113  221.4013 H   0  0  0  0  0  0  0  0  0  0  0  0
  139.4166   79.2446  220.1091 H   0  0  0  0  0  0  0  0  0  0  0  0
  138.2482   78.9447  221.5141 H   0  0  0  0  0  0  0  0  0  0  0  0
  139.0884   81.3880  221.6481 H   0  0  0  0  0  0  0  0  0  0  0  0
  140.5098   82.7126  223.2012 H   0  0  0  0  0  0  0  0  0  0  0  0
  142.3655   81.6368  224.4768 H   0  0  0  0  0  0  0  0  0  0  0  0
  142.7443   79.2053  224.1485 H   0  0  0  0  0  0  0  0  0  0  0  0
  142.4479   77.4256  222.1566 H   0  0  0  0  0  0  0  0  0  0  0  0
  141.3756   77.1025  223.6181 H   0  0  0  0  0  0  0  0  0  0  0  0
  141.3832   72.2811  225.0656 H   0  0  0  0  0  0  0  0  0  0  0  0
  141.9526   73.2558  227.2882 H   0  0  0  0  0  0  0  0  0  0  0  0
  1  2  2  0
  2  3  1  0
  3  4  2  0
  4  5  1  0
  5  6  1  0
  6  7  1  0
  7  8  1  0
  8  9  1  0
  9 10  2  0
 10 11  1  0
 11 12  1  0
 12 13  1  0
 13 14  1  0
 14 15  1  0
 15 16  1  0
 16 17  1  0
 11 18  2  0
 18 19  1  0
 19 20  1  0
 20 21  1  0
 21 22  1  0
 22 23  1  0
 23 24  2  0
 24 25  1  0
 25 26  2  0
 26 27  1  0
 27 28  2  0
 28 29  1  0
 19 30  2  0
  4 31  1  0
 31 32  2  0
 32  1  1  0
 30  9  1  0
 17 12  1  0
 29 20  1  0
 28 23  1  0
  1 33  1  0
  2 34  1  0
  3 35  1  0
  5 36  1  0
  5 37  1  0
  6 38  1  0
  6 39  1  0
  7 40  1  0
  7 41  1  0
  8 42  1  0
 10 43  1  0
 13 44  1  0
 13 45  1  0
 14 46  1  0
 14 47  1  0
 15 48  1  0
 16 49  1  0
 16 50  1  0
 17 51  1  0
 17 52  1  0
 21 53  1  0
 21 54  1  0
 22 55  1  0
 22 56  1  0
 24 57  1  0
 25 58  1  0
 26 59  1  0
 27 60  1  0
 29 61  1  0
 29 62  1  0
 31 63  1  0
 32 64  1  0
M  END
>  <smiles>  (13) 
c1ccc(CCCNc2cc(N3CCNCC3)nc(N3CCc4ccccc4C3)n2)cc1

>  <score_type>  (13) 
oracle

>  <origin>  (13) 
autodockgpu

>  <m_score__min__energy>  (13) 
-10.25

>  <m_primary>  (13) 
energy

>  <rmsd>  (13) 
2.710300588712881

>  <m_score__min__rmsd>  (13) 
2.710300588712881

>  <meeko>  (13) 
{"free_energy": -9.82, "intermolecular_energy": -11.91, "internal_energy": -1.18, "cluster_size": 50, "cluster_id": 1, "rank_in_cluster": 25}

>  <energy>  (13) 
-10.01

>  <cluster_rmsd>  (13) 
1.49

>  <cluster>  (13) 
1

$$$$

     RDKit          3D

 64 68  0  0  0  0  0  0  0  0999 V2000
  141.1230   69.4220  228.3830 C   0  0  0  0  0  0  0  0  0  0  0  0
  140.7970   70.5220  227.6320 C   0  0  0  0  0  0  0  0  0  0  0  0
  140.1860   70.4300  226.4070 C   0  0  0  0  0  0  0  0  0  0  0  0
  139.8980   69.1550  225.9310 C   0  0  0  0  0  0  0  0  0  0  0  0
  139.2390   69.0300  224.6140 C   0  0  0  0  0  0  0  0  0  0  0  0
  138.5460   70.3020  224.1700 C   0  0  0  0  0  0  0  0  0  0  0  0
  139.0040   70.7520  222.8020 C   0  0  0  0  0  0  0  0  0  0  0  0
  138.8270   72.1580  222.6700 N   0  0  0  0  0  0  0  0  0  0  0  0
  139.7960   73.0740  222.1850 C   0  0  0  0  0  0  0  0  0  0  0  0
  140.9540   72.6990  221.5410 C   0  0  0  0  0  0  0  0  0  0  0  0
  141.8850   73.6120  221.0900 C   0  0  0  0  0  0  0  0  0  0  0  0
  143.0850   73.2440  220.4220 N   0  0  0  0  0  0  0  0  0  0  0  0
  144.1190   74.1510  220.0320 C   0  0  0  0  0  0  0  0  0  0  0  0
  145.4920   73.5070  220.1770 C   0  0  0  0  0  0  0  0  0  0  0  0
  145.5970   72.2710  219.4630 N   0  0  0  0  0  0  0  0  0  0  0  0
  144.3290   71.7440  219.0150 C   0  0  0  0  0  0  0  0  0  0  0  0
  143.2900   71.8250  220.1000 C   0  0  0  0  0  0  0  0  0  0  0  0
  141.6010   74.9140  221.3150 N   0  0  0  0  0  0  0  0  0  0  0  0
  140.4920   75.3300  221.9350 C   0  0  0  0  0  0  0  0  0  0  0  0
  140.2810   76.7280  222.1270 N   0  0  0  0  0  0  0  0  0  0  0  0
  138.9370   77.1520  222.4310 C   0  0  0  0  0  0  0  0  0  0  0  0
  138.7450   78.5870  222.7200 C   0  0  0  0  0  0  0  0  0  0  0  0
  139.9470   79.4260  222.7100 C   0  0  0  0  0  0  0  0  0  0  0  0
  139.7770   80.7680  223.0680 C   0  0  0  0  0  0  0  0  0  0  0  0
  140.8830   81.6220  223.0810 C   0  0  0  0  0  0  0  0  0  0  0  0
  142.1500   81.1780  222.7480 C   0  0  0  0  0  0  0  0  0  0  0  0
  142.2690   79.8480  222.4030 C   0  0  0  0  0  0  0  0  0  0  0  0
  141.1960   78.9870  222.3830 C   0  0  0  0  0  0  0  0  0  0  0  0
  141.4240   77.5950  222.0020 C   0  0  0  0  0  0  0  0  0  0  0  0
  139.6220   74.4130  222.3530 N   0  0  0  0  0  0  0  0  0  0  0  0
  140.2230   68.0490  226.6810 C   0  0  0  0  0  0  0  0  0  0  0  0
  140.8400   68.1360  227.9190 C   0  0  0  0  0  0  0  0  0  0  0  0
  141.6118   69.5540  229.3596 H   0  0  0  0  0  0  0  0  0  0  0  0
  141.0353   71.5201  228.0283 H   0  0  0  0  0  0  0  0  0  0  0  0
  139.9340   71.3285  225.8246 H   0  0  0  0  0  0  0  0  0  0  0  0
  140.0010   68.7675  223.8654 H   0  0  0  0  0  0  0  0  0  0  0  0
  138.4664   68.2526  224.7076 H   0  0  0  0  0  0  0  0  0  0  0  0
  137.4612   70.1226  224.1394 H   0  0  0  0  0  0  0  0  0  0  0  0
  138.7998   71.0945  224.8895 H   0  0  0  0  0  0  0  0  0  0  0  0
  140.0682   70.5048  222.6741 H   0  0  0  0  0  0  0  0  0  0  0  0
  138.4079   70.2383  222.0334 H   0  0  0  0  0  0  0  0  0  0  0  0
  137.8930   72.5860  222.9550 H   0  0  0  0  0  0  0  0  0  0  0  0
  141.1446   71.6277  221.3795 H   0  0  0  0  0  0  0  0  0  0  0  0
  143.9664   74.4407  218.9819 H   0  0  0  0  0  0  0  0  0  0  0  0
  144.0752   75.0349  220.6853 H   0  0  0  0  0  0  0  0  0  0  0  0
  146.2506   74.2032  219.7900 H   0  0  0  0  0  0  0  0  0  0  0  0
  145.6480   73.2903  221.2441 H   0  0  0  0  0  0  0  0  0  0  0  0
  146.2690   72.2690  218.6780 H   0  0  0  0  0  0  0  0  0  0  0  0
  143.9861   72.3252  218.1463 H   0  0  0  0  0  0  0  0  0  0  0  0
  144.4680   70.6867  218.7452 H   0  0  0  0  0  0  0  0  0  0  0  0
  142.3468   71.3812  219.7486 H   0  0  0  0  0  0  0  0  0  0  0  0
  143.6224   71.2732  220.9917 H   0  0  0  0  0  0  0  0  0  0  0  0
  138.3039   76.8979  221.5681 H   0  0  0  0  0  0  0  0  0  0  0  0
  138.6728   76.6310  223.3631 H   0  0  0  0  0  0  0  0  0  0  0  0
  138.0513   78.9890  221.9669 H   0  0  0  0  0  0  0  0  0  0  0  0
  138.3726   78.6268  223.7543 H   0  0  0  0  0  0  0  0  0  0  0  0
  138.7803   81.1478  223.3371 H   0  0  0  0  0  0  0  0  0  0  0  0
  140.7423   82.6757  223.3636 H   0  0  0  0  0  0  0  0  0  0  0  0
  143.0192   81.8520  222.7579 H   0  0  0  0  0  0  0  0  0  0  0  0
  143.2621   79.4598  222.1328 H   0  0  0  0  0  0  0  0  0  0  0  0
  141.7494   77.5791  220.9514 H   0  0  0  0  0  0  0  0  0  0  0  0
  142.1781   77.2073  222.7027 H   0  0  0  0  0  0  0  0  0  0  0  0
  139.9830   67.0527  226.2812 H   0  0  0  0  0  0  0  0  0  0  0  0
  141.0931   67.2399  228.5046 H   0  0  0  0  0  0  0  0  0  0  0  0
  1  2  2  0
  2  3  1  0
  3  4  2  0
  4  5  1  0
  5  6  1  0
  6  7  1  0
  7  8  1  0
  8  9  1  0
  9 10  2  0
 10 11  1  0
 11 12  1  0
 12 13  1  0
 13 14  1  0
 14 15  1  0
 15 16  1  0
 16 17  1  0
 11 18  2  0
 18 19  1  0
 19 20  1  0
 20 21  1  0
 21 22  1  0
 22 23  1  0
 23 24  2  0
 24 25  1  0
 25 26  2  0
 26 27  1  0
 27 28  2  0
 28 29  1  0
 19 30  2  0
  4 31  1  0
 31 32  2  0
 32  1  1  0
 30  9  1  0
 17 12  1  0
 29 20  1  0
 28 23  1  0
  1 33  1  0
  2 34  1  0
  3 35  1  0
  5 36  1  0
  5 37  1  0
  6 38  1  0
  6 39  1  0
  7 40  1  0
  7 41  1  0
  8 42  1  0
 10 43  1  0
 13 44  1  0
 13 45  1  0
 14 46  1  0
 14 47  1  0
 15 48  1  0
 16 49  1  0
 16 50  1  0
 17 51  1  0
 17 52  1  0
 21 53  1  0
 21 54  1  0
 22 55  1  0
 22 56  1  0
 24 57  1  0
 25 58  1  0
 26 59  1  0
 27 60  1  0
 29 61  1  0
 29 62  1  0
 31 63  1  0
 32 64  1  0
M  END
>  <smiles>  (14) 
c1ccc(CCCNc2cc(N3CCNCC3)nc(N3CCc4ccccc4C3)n2)cc1

>  <score_type>  (14) 
oracle

>  <origin>  (14) 
autodockgpu

>  <m_score__min__energy>  (14) 
-10.25

>  <m_primary>  (14) 
energy

>  <rmsd>  (14) 
1.483842943492365

>  <m_score__min__rmsd>  (14) 
1.483842943492365

>  <meeko>  (14) 
{"free_energy": -9.68, "intermolecular_energy": -11.76, "internal_energy": -0.96, "cluster_size": 50, "cluster_id": 1, "rank_in_cluster": 40}

>  <energy>  (14) 
-9.99

>  <cluster_rmsd>  (14) 
0.57

>  <cluster>  (14) 
1

$$$$

     RDKit          3D

 64 68  0  0  0  0  0  0  0  0999 V2000
  141.0600   70.0090  228.3520 C   0  0  0  0  0  0  0  0  0  0  0  0
  140.7990   69.0900  227.3690 C   0  0  0  0  0  0  0  0  0  0  0  0
  140.5760   69.4430  226.0630 C   0  0  0  0  0  0  0  0  0  0  0  0
  140.6200   70.7980  225.7510 C   0  0  0  0  0  0  0  0  0  0  0  0
  140.3820   71.2040  224.3500 C   0  0  0  0  0  0  0  0  0  0  0  0
  138.9620   70.9490  223.8870 C   0  0  0  0  0  0  0  0  0  0  0  0
  138.7270   71.4410  222.4770 C   0  0  0  0  0  0  0  0  0  0  0  0
  138.8940   72.8540  222.4230 N   0  0  0  0  0  0  0  0  0  0  0  0
  140.0510   73.5340  221.9630 C   0  0  0  0  0  0  0  0  0  0  0  0
  141.2060   72.9020  221.5590 C   0  0  0  0  0  0  0  0  0  0  0  0
  142.3200   73.5900  221.1260 C   0  0  0  0  0  0  0  0  0  0  0  0
  143.5200   72.9550  220.7040 N   0  0  0  0  0  0  0  0  0  0  0  0
  143.6640   71.5550  220.4540 C   0  0  0  0  0  0  0  0  0  0  0  0
  144.6120   71.3050  219.2860 C   0  0  0  0  0  0  0  0  0  0  0  0
  145.8860   71.9270  219.4710 N   0  0  0  0  0  0  0  0  0  0  0  0
  145.9180   72.8910  220.5460 C   0  0  0  0  0  0  0  0  0  0  0  0
  144.7120   73.7910  220.5080 C   0  0  0  0  0  0  0  0  0  0  0  0
  142.2230   74.9380  221.1180 N   0  0  0  0  0  0  0  0  0  0  0  0
  141.1260   75.6000  221.4990 C   0  0  0  0  0  0  0  0  0  0  0  0
  141.1190   77.0260  221.4550 N   0  0  0  0  0  0  0  0  0  0  0  0
  140.7940   77.6410  220.1910 C   0  0  0  0  0  0  0  0  0  0  0  0
  140.6980   79.1140  220.1780 C   0  0  0  0  0  0  0  0  0  0  0  0
  140.8990   79.7980  221.4590 C   0  0  0  0  0  0  0  0  0  0  0  0
  140.7230   81.1870  221.4620 C   0  0  0  0  0  0  0  0  0  0  0  0
  140.8980   81.8990  222.6510 C   0  0  0  0  0  0  0  0  0  0  0  0
  141.2440   81.2690  223.8330 C   0  0  0  0  0  0  0  0  0  0  0  0
  141.4060   79.9010  223.7810 C   0  0  0  0  0  0  0  0  0  0  0  0
  141.2390   79.1770  222.6240 C   0  0  0  0  0  0  0  0  0  0  0  0
  141.4350   77.7300  222.6710 C   0  0  0  0  0  0  0  0  0  0  0  0
  140.0740   74.8930  221.9090 N   0  0  0  0  0  0  0  0  0  0  0  0
  140.8810   71.7250  226.7340 C   0  0  0  0  0  0  0  0  0  0  0  0
  141.1080   71.3730  228.0550 C   0  0  0  0  0  0  0  0  0  0  0  0
  141.2332   69.6693  229.3838 H   0  0  0  0  0  0  0  0  0  0  0  0
  140.7671   68.0242  227.6394 H   0  0  0  0  0  0  0  0  0  0  0  0
  140.3705   68.6851  225.2927 H   0  0  0  0  0  0  0  0  0  0  0  0
  140.5919   72.2798  224.2574 H   0  0  0  0  0  0  0  0  0  0  0  0
  141.0459   70.5972  223.7168 H   0  0  0  0  0  0  0  0  0  0  0  0
  138.7662   69.8672  223.9225 H   0  0  0  0  0  0  0  0  0  0  0  0
  138.2836   71.4994  224.5555 H   0  0  0  0  0  0  0  0  0  0  0  0
  139.4484   70.9622  221.7986 H   0  0  0  0  0  0  0  0  0  0  0  0
  137.7021   71.1853  222.1702 H   0  0  0  0  0  0  0  0  0  0  0  0
  138.0950   73.4780  222.7530 H   0  0  0  0  0  0  0  0  0  0  0  0
  141.2414   71.8028  221.5827 H   0  0  0  0  0  0  0  0  0  0  0  0
  144.0660   71.0679  221.3546 H   0  0  0  0  0  0  0  0  0  0  0  0
  142.6773   71.1402  220.2005 H   0  0  0  0  0  0  0  0  0  0  0  0
  144.7613   70.2205  219.1790 H   0  0  0  0  0  0  0  0  0  0  0  0
  144.1549   71.7415  218.3857 H   0  0  0  0  0  0  0  0  0  0  0  0
  146.6860   71.2800  219.5640 H   0  0  0  0  0  0  0  0  0  0  0  0
  145.9360   72.3560  221.5070 H   0  0  0  0  0  0  0  0  0  0  0  0
  146.8188   73.5116  220.4299 H   0  0  0  0  0  0  0  0  0  0  0  0
  144.7792   74.5405  221.3104 H   0  0  0  0  0  0  0  0  0  0  0  0
  144.6568   74.3181  219.5441 H   0  0  0  0  0  0  0  0  0  0  0  0
  141.5715   77.3508  219.4690 H   0  0  0  0  0  0  0  0  0  0  0  0
  139.7836   77.2823  219.9452 H   0  0  0  0  0  0  0  0  0  0  0  0
  141.4562   79.4913  219.4760 H   0  0  0  0  0  0  0  0  0  0  0  0
  139.6585   79.3335  219.8929 H   0  0  0  0  0  0  0  0  0  0  0  0
  140.4492   81.7133  220.5357 H   0  0  0  0  0  0  0  0  0  0  0  0
  140.7569   82.9899  222.6473 H   0  0  0  0  0  0  0  0  0  0  0  0
  141.3830   81.8317  224.7679 H   0  0  0  0  0  0  0  0  0  0  0  0
  141.6801   79.3668  224.7027 H   0  0  0  0  0  0  0  0  0  0  0  0
  142.4913   77.5378  222.9102 H   0  0  0  0  0  0  0  0  0  0  0  0
  140.7351   77.3529  223.4313 H   0  0  0  0  0  0  0  0  0  0  0  0
  140.9107   72.7898  226.4597 H   0  0  0  0  0  0  0  0  0  0  0  0
  141.3149   72.1274  228.8283 H   0  0  0  0  0  0  0  0  0  0  0  0
  1  2  2  0
  2  3  1  0
  3  4  2  0
  4  5  1  0
  5  6  1  0
  6  7  1  0
  7  8  1  0
  8  9  1  0
  9 10  2  0
 10 11  1  0
 11 12  1  0
 12 13  1  0
 13 14  1  0
 14 15  1  0
 15 16  1  0
 16 17  1  0
 11 18  2  0
 18 19  1  0
 19 20  1  0
 20 21  1  0
 21 22  1  0
 22 23  1  0
 23 24  2  0
 24 25  1  0
 25 26  2  0
 26 27  1  0
 27 28  2  0
 28 29  1  0
 19 30  2  0
  4 31  1  0
 31 32  2  0
 32  1  1  0
 30  9  1  0
 17 12  1  0
 29 20  1  0
 28 23  1  0
  1 33  1  0
  2 34  1  0
  3 35  1  0
  5 36  1  0
  5 37  1  0
  6 38  1  0
  6 39  1  0
  7 40  1  0
  7 41  1  0
  8 42  1  0
 10 43  1  0
 13 44  1  0
 13 45  1  0
 14 46  1  0
 14 47  1  0
 15 48  1  0
 16 49  1  0
 16 50  1  0
 17 51  1  0
 17 52  1  0
 21 53  1  0
 21 54  1  0
 22 55  1  0
 22 56  1  0
 24 57  1  0
 25 58  1  0
 26 59  1  0
 27 60  1  0
 29 61  1  0
 29 62  1  0
 31 63  1  0
 32 64  1  0
M  END
>  <smiles>  (15) 
c1ccc(CCCNc2cc(N3CCNCC3)nc(N3CCc4ccccc4C3)n2)cc1

>  <score_type>  (15) 
oracle

>  <origin>  (15) 
autodockgpu

>  <m_score__min__energy>  (15) 
-10.25

>  <m_primary>  (15) 
energy

>  <rmsd>  (15) 
2.7535636850082446

>  <m_score__min__rmsd>  (15) 
2.7535636850082446

>  <meeko>  (15) 
{"free_energy": -9.93, "intermolecular_energy": -12.01, "internal_energy": -1.07, "cluster_size": 50, "cluster_id": 1, "rank_in_cluster": 19}

>  <energy>  (15) 
-9.99

>  <cluster_rmsd>  (15) 
1.16

>  <cluster>  (15) 
1

$$$$

     RDKit          3D

 64 68  0  0  0  0  0  0  0  0999 V2000
  142.2000   80.2840  223.8520 C   0  0  0  0  0  0  0  0  0  0  0  0
  142.3600   80.6230  222.5330 C   0  0  0  0  0  0  0  0  0  0  0  0
  142.0710   79.7630  221.5050 C   0  0  0  0  0  0  0  0  0  0  0  0
  141.5990   78.4990  221.8440 C   0  0  0  0  0  0  0  0  0  0  0  0
  141.2800   77.5530  220.7540 C   0  0  0  0  0  0  0  0  0  0  0  0
  139.8400   77.6370  220.2920 C   0  0  0  0  0  0  0  0  0  0  0  0
  139.1360   76.3030  220.3760 C   0  0  0  0  0  0  0  0  0  0  0  0
  139.4960   75.6410  221.5850 N   0  0  0  0  0  0  0  0  0  0  0  0
  140.2680   74.4550  221.6830 C   0  0  0  0  0  0  0  0  0  0  0  0
  141.3820   74.1960  220.9150 C   0  0  0  0  0  0  0  0  0  0  0  0
  142.1070   73.0280  221.0230 C   0  0  0  0  0  0  0  0  0  0  0  0
  143.2590   72.7440  220.2410 N   0  0  0  0  0  0  0  0  0  0  0  0
  143.2820   71.8930  219.0920 C   0  0  0  0  0  0  0  0  0  0  0  0
  144.2510   72.4230  218.0410 C   0  0  0  0  0  0  0  0  0  0  0  0
  145.5690   72.6210  218.5600 N   0  0  0  0  0  0  0  0  0  0  0  0
  145.6450   72.5740  220.0010 C   0  0  0  0  0  0  0  0  0  0  0  0
  144.5310   73.3650  220.6330 C   0  0  0  0  0  0  0  0  0  0  0  0
  141.6640   72.1340  221.9350 N   0  0  0  0  0  0  0  0  0  0  0  0
  140.5910   72.3370  222.7050 C   0  0  0  0  0  0  0  0  0  0  0  0
  140.2010   71.3320  223.6410 N   0  0  0  0  0  0  0  0  0  0  0  0
  139.3570   70.2720  223.1490 C   0  0  0  0  0  0  0  0  0  0  0  0
  139.0360   69.1880  224.0990 C   0  0  0  0  0  0  0  0  0  0  0  0
  139.6430   69.2780  225.4300 C   0  0  0  0  0  0  0  0  0  0  0  0
  139.4080   68.2070  226.3000 C   0  0  0  0  0  0  0  0  0  0  0  0
  139.9600   68.2300  227.5830 C   0  0  0  0  0  0  0  0  0  0  0  0
  140.7360   69.2870  228.0230 C   0  0  0  0  0  0  0  0  0  0  0  0
  140.9410   70.3180  227.1310 C   0  0  0  0  0  0  0  0  0  0  0  0
  140.4100   70.3200  225.8630 C   0  0  0  0  0  0  0  0  0  0  0  0
  140.6830   71.4600  224.9920 C   0  0  0  0  0  0  0  0  0  0  0  0
  139.9210   73.4800  222.5650 N   0  0  0  0  0  0  0  0  0  0  0  0
  141.4370   78.1530  223.1660 C   0  0  0  0  0  0  0  0  0  0  0  0
  141.7270   79.0200  224.2090 C   0  0  0  0  0  0  0  0  0  0  0  0
  142.4467   81.0149  224.6362 H   0  0  0  0  0  0  0  0  0  0  0  0
  142.7362   81.6275  222.2893 H   0  0  0  0  0  0  0  0  0  0  0  0
  142.2068   80.0604  220.4547 H   0  0  0  0  0  0  0  0  0  0  0  0
  141.9350   77.7726  219.8979 H   0  0  0  0  0  0  0  0  0  0  0  0
  141.4382   76.5376  221.1463 H   0  0  0  0  0  0  0  0  0  0  0  0
  139.3060   78.3601  220.9260 H   0  0  0  0  0  0  0  0  0  0  0  0
  139.8408   77.9531  219.2384 H   0  0  0  0  0  0  0  0  0  0  0  0
  138.0478   76.4629  220.3576 H   0  0  0  0  0  0  0  0  0  0  0  0
  139.4345   75.6810  219.5193 H   0  0  0  0  0  0  0  0  0  0  0  0
  139.1680   76.0540  222.5120 H   0  0  0  0  0  0  0  0  0  0  0  0
  141.7067   74.9524  220.1853 H   0  0  0  0  0  0  0  0  0  0  0  0
  143.5981   70.8845  219.3971 H   0  0  0  0  0  0  0  0  0  0  0  0
  142.2725   71.8641  218.6561 H   0  0  0  0  0  0  0  0  0  0  0  0
  144.3030   71.7005  217.2131 H   0  0  0  0  0  0  0  0  0  0  0  0
  143.8752   73.4000  217.7030 H   0  0  0  0  0  0  0  0  0  0  0  0
  146.3000   72.0120  218.1560 H   0  0  0  0  0  0  0  0  0  0  0  0
  145.5723   71.5268  220.3298 H   0  0  0  0  0  0  0  0  0  0  0  0
  146.6038   73.0139  220.3129 H   0  0  0  0  0  0  0  0  0  0  0  0
  144.6341   73.3470  221.7280 H   0  0  0  0  0  0  0  0  0  0  0  0
  144.5660   74.4121  220.2979 H   0  0  0  0  0  0  0  0  0  0  0  0
  138.4079   70.7241  222.8252 H   0  0  0  0  0  0  0  0  0  0  0  0
  139.9335   69.7917  222.3446 H   0  0  0  0  0  0  0  0  0  0  0  0
  137.9440   69.1730  224.2310 H   0  0  0  0  0  0  0  0  0  0  0  0
  139.4572   68.2763  223.6503 H   0  0  0  0  0  0  0  0  0  0  0  0
  138.7936   67.3541  225.9760 H   0  0  0  0  0  0  0  0  0  0  0  0
  139.7725   67.3848  228.2616 H   0  0  0  0  0  0  0  0  0  0  0  0
  141.1681   69.3042  229.0344 H   0  0  0  0  0  0  0  0  0  0  0  0
  141.5548   71.1744  227.4470 H   0  0  0  0  0  0  0  0  0  0  0  0
  140.2124   72.3486  225.4379 H   0  0  0  0  0  0  0  0  0  0  0  0
  141.7782   71.5311  224.9186 H   0  0  0  0  0  0  0  0  0  0  0  0
  141.0619   77.1470  223.4055 H   0  0  0  0  0  0  0  0  0  0  0  0
  141.5916   78.7274  225.2607 H   0  0  0  0  0  0  0  0  0  0  0  0
  1  2  2  0
  2  3  1  0
  3  4  2  0
  4  5  1  0
  5  6  1  0
  6  7  1  0
  7  8  1  0
  8  9  1  0
  9 10  2  0
 10 11  1  0
 11 12  1  0
 12 13  1  0
 13 14  1  0
 14 15  1  0
 15 16  1  0
 16 17  1  0
 11 18  2  0
 18 19  1  0
 19 20  1  0
 20 21  1  0
 21 22  1  0
 22 23  1  0
 23 24  2  0
 24 25  1  0
 25 26  2  0
 26 27  1  0
 27 28  2  0
 28 29  1  0
 19 30  2  0
  4 31  1  0
 31 32  2  0
 32  1  1  0
 30  9  1  0
 17 12  1  0
 29 20  1  0
 28 23  1  0
  1 33  1  0
  2 34  1  0
  3 35  1  0
  5 36  1  0
  5 37  1  0
  6 38  1  0
  6 39  1  0
  7 40  1  0
  7 41  1  0
  8 42  1  0
 10 43  1  0
 13 44  1  0
 13 45  1  0
 14 46  1  0
 14 47  1  0
 15 48  1  0
 16 49  1  0
 16 50  1  0
 17 51  1  0
 17 52  1  0
 21 53  1  0
 21 54  1  0
 22 55  1  0
 22 56  1  0
 24 57  1  0
 25 58  1  0
 26 59  1  0
 27 60  1  0
 29 61  1  0
 29 62  1  0
 31 63  1  0
 32 64  1  0
M  END
>  <smiles>  (16) 
c1ccc(CCCNc2cc(N3CCNCC3)nc(N3CCc4ccccc4C3)n2)cc1

>  <score_type>  (16) 
oracle

>  <origin>  (16) 
autodockgpu

>  <m_score__min__energy>  (16) 
-10.25

>  <m_primary>  (16) 
energy

>  <rmsd>  (16) 
8.99277113525794

>  <m_score__min__rmsd>  (16) 
8.99277113525794

>  <meeko>  (16) 
{"free_energy": -9.43, "intermolecular_energy": -11.52, "internal_energy": -1.17, "cluster_size": 50, "cluster_id": 1, "rank_in_cluster": 47}

>  <energy>  (16) 
-9.97

>  <cluster_rmsd>  (16) 
1.13

>  <cluster>  (16) 
1

$$$$

     RDKit          3D

 64 68  0  0  0  0  0  0  0  0999 V2000
  140.9740   71.4790  228.3460 C   0  0  0  0  0  0  0  0  0  0  0  0
  140.2220   70.3530  228.1250 C   0  0  0  0  0  0  0  0  0  0  0  0
  139.8920   69.9160  226.8680 C   0  0  0  0  0  0  0  0  0  0  0  0
  140.3510   70.6660  225.7900 C   0  0  0  0  0  0  0  0  0  0  0  0
  140.0080   70.2150  224.4250 C   0  0  0  0  0  0  0  0  0  0  0  0
  138.7970   70.9200  223.8490 C   0  0  0  0  0  0  0  0  0  0  0  0
  138.4570   70.4260  222.4620 C   0  0  0  0  0  0  0  0  0  0  0  0
  138.5470   71.5000  221.5310 N   0  0  0  0  0  0  0  0  0  0  0  0
  139.5840   72.4660  221.4770 C   0  0  0  0  0  0  0  0  0  0  0  0
  140.8850   72.1800  221.1250 C   0  0  0  0  0  0  0  0  0  0  0  0
  141.8760   73.1380  221.0930 C   0  0  0  0  0  0  0  0  0  0  0  0
  143.2230   72.8630  220.7320 N   0  0  0  0  0  0  0  0  0  0  0  0
  143.7620   71.5580  220.5060 C   0  0  0  0  0  0  0  0  0  0  0  0
  144.7930   71.5810  219.3840 C   0  0  0  0  0  0  0  0  0  0  0  0
  145.8340   72.5340  219.6140 N   0  0  0  0  0  0  0  0  0  0  0  0
  145.5480   73.4700  220.6770 C   0  0  0  0  0  0  0  0  0  0  0  0
  144.1430   73.9980  220.5750 C   0  0  0  0  0  0  0  0  0  0  0  0
  141.5030   74.3930  221.4300 N   0  0  0  0  0  0  0  0  0  0  0  0
  140.2560   74.7230  221.7780 C   0  0  0  0  0  0  0  0  0  0  0  0
  139.9590   76.0770  222.1170 N   0  0  0  0  0  0  0  0  0  0  0  0
  138.5710   76.4150  222.3090 C   0  0  0  0  0  0  0  0  0  0  0  0
  138.2810   77.7940  222.7500 C   0  0  0  0  0  0  0  0  0  0  0  0
  139.4360   78.6650  222.9910 C   0  0  0  0  0  0  0  0  0  0  0  0
  139.1630   79.9430  223.4910 C   0  0  0  0  0  0  0  0  0  0  0  0
  140.2200   80.8210  223.7440 C   0  0  0  0  0  0  0  0  0  0  0  0
  141.5360   80.4640  223.5130 C   0  0  0  0  0  0  0  0  0  0  0  0
  141.7550   79.1950  223.0210 C   0  0  0  0  0  0  0  0  0  0  0  0
  140.7330   78.3110  222.7630 C   0  0  0  0  0  0  0  0  0  0  0  0
  141.0670   76.9890  222.2400 C   0  0  0  0  0  0  0  0  0  0  0  0
  139.3320   73.7640  221.7950 N   0  0  0  0  0  0  0  0  0  0  0  0
  141.1060   71.7960  226.0060 C   0  0  0  0  0  0  0  0  0  0  0  0
  141.4430   72.2420  227.2740 C   0  0  0  0  0  0  0  0  0  0  0  0
  141.2097   71.7836  229.3764 H   0  0  0  0  0  0  0  0  0  0  0  0
  139.8690   69.7765  228.9928 H   0  0  0  0  0  0  0  0  0  0  0  0
  139.2885   69.0087  226.7179 H   0  0  0  0  0  0  0  0  0  0  0  0
  140.8689   70.4056  223.7674 H   0  0  0  0  0  0  0  0  0  0  0  0
  139.7636   69.1443  224.4868 H   0  0  0  0  0  0  0  0  0  0  0  0
  137.9357   70.7422  224.5097 H   0  0  0  0  0  0  0  0  0  0  0  0
  139.0316   71.9924  223.7782 H   0  0  0  0  0  0  0  0  0  0  0  0
  139.1627   69.6330  222.1738 H   0  0  0  0  0  0  0  0  0  0  0  0
  137.4312   70.0287  222.4596 H   0  0  0  0  0  0  0  0  0  0  0  0
  137.7790   71.6090  220.8000 H   0  0  0  0  0  0  0  0  0  0  0  0
  141.1437   71.1446  220.8585 H   0  0  0  0  0  0  0  0  0  0  0  0
  144.2427   71.2023  221.4293 H   0  0  0  0  0  0  0  0  0  0  0  0
  142.9418   70.8851  220.2152 H   0  0  0  0  0  0  0  0  0  0  0  0
  145.2432   70.5810  219.2986 H   0  0  0  0  0  0  0  0  0  0  0  0
  144.2730   71.8718  218.4593 H   0  0  0  0  0  0  0  0  0  0  0  0
  146.7780   72.1350  219.7500 H   0  0  0  0  0  0  0  0  0  0  0  0
  145.6708   72.9619  221.6449 H   0  0  0  0  0  0  0  0  0  0  0  0
  146.2449   74.3168  220.5917 H   0  0  0  0  0  0  0  0  0  0  0  0
  143.9630   74.7379  221.3688 H   0  0  0  0  0  0  0  0  0  0  0  0
  143.9865   74.4872  219.6023 H   0  0  0  0  0  0  0  0  0  0  0  0
  138.0531   76.2549  221.3519 H   0  0  0  0  0  0  0  0  0  0  0  0
  138.2263   75.7695  223.1303 H   0  0  0  0  0  0  0  0  0  0  0  0
  137.6616   78.2686  221.9747 H   0  0  0  0  0  0  0  0  0  0  0  0
  137.7902   77.6874  223.7286 H   0  0  0  0  0  0  0  0  0  0  0  0
  138.1254   80.2537  223.6832 H   0  0  0  0  0  0  0  0  0  0  0  0
  139.9993   81.8241  224.1379 H   0  0  0  0  0  0  0  0  0  0  0  0
  142.3662   81.1577  223.7119 H   0  0  0  0  0  0  0  0  0  0  0  0
  142.7897   78.8761  222.8267 H   0  0  0  0  0  0  0  0  0  0  0  0
  141.5110   77.1206  221.2422 H   0  0  0  0  0  0  0  0  0  0  0  0
  141.7527   76.5371  222.9718 H   0  0  0  0  0  0  0  0  0  0  0  0
  141.4569   72.3695  225.1354 H   0  0  0  0  0  0  0  0  0  0  0  0
  142.0473   73.1481  227.4281 H   0  0  0  0  0  0  0  0  0  0  0  0
  1  2  2  0
  2  3  1  0
  3  4  2  0
  4  5  1  0
  5  6  1  0
  6  7  1  0
  7  8  1  0
  8  9  1  0
  9 10  2  0
 10 11  1  0
 11 12  1  0
 12 13  1  0
 13 14  1  0
 14 15  1  0
 15 16  1  0
 16 17  1  0
 11 18  2  0
 18 19  1  0
 19 20  1  0
 20 21  1  0
 21 22  1  0
 22 23  1  0
 23 24  2  0
 24 25  1  0
 25 26  2  0
 26 27  1  0
 27 28  2  0
 28 29  1  0
 19 30  2  0
  4 31  1  0
 31 32  2  0
 32  1  1  0
 30  9  1  0
 17 12  1  0
 29 20  1  0
 28 23  1  0
  1 33  1  0
  2 34  1  0
  3 35  1  0
  5 36  1  0
  5 37  1  0
  6 38  1  0
  6 39  1  0
  7 40  1  0
  7 41  1  0
  8 42  1  0
 10 43  1  0
 13 44  1  0
 13 45  1  0
 14 46  1  0
 14 47  1  0
 15 48  1  0
 16 49  1  0
 16 50  1  0
 17 51  1  0
 17 52  1  0
 21 53  1  0
 21 54  1  0
 22 55  1  0
 22 56  1  0
 24 57  1  0
 25 58  1  0
 26 59  1  0
 27 60  1  0
 29 61  1  0
 29 62  1  0
 31 63  1  0
 32 64  1  0
M  END
>  <smiles>  (17) 
c1ccc(CCCNc2cc(N3CCNCC3)nc(N3CCc4ccccc4C3)n2)cc1

>  <score_type>  (17) 
oracle

>  <origin>  (17) 
autodockgpu

>  <m_score__min__energy>  (17) 
-10.25

>  <m_primary>  (17) 
energy

>  <rmsd>  (17) 
2.812440889963327

>  <m_score__min__rmsd>  (17) 
2.812440889963327

>  <meeko>  (17) 
{"free_energy": -9.66, "intermolecular_energy": -11.74, "internal_energy": -1.27, "cluster_size": 50, "cluster_id": 1, "rank_in_cluster": 41}

>  <energy>  (17) 
-9.96

>  <cluster_rmsd>  (17) 
0.64

>  <cluster>  (17) 
1

$$$$

     RDKit          3D

 64 68  0  0  0  0  0  0  0  0999 V2000
  140.8980   68.1980  228.0760 C   0  0  0  0  0  0  0  0  0  0  0  0
  141.1040   69.5270  228.3410 C   0  0  0  0  0  0  0  0  0  0  0  0
  140.8310   70.5170  227.4320 C   0  0  0  0  0  0  0  0  0  0  0  0
  140.3240   70.1260  226.1960 C   0  0  0  0  0  0  0  0  0  0  0  0
  140.0210   71.1740  225.1990 C   0  0  0  0  0  0  0  0  0  0  0  0
  139.0040   70.7380  224.1650 C   0  0  0  0  0  0  0  0  0  0  0  0
  139.6500   70.3910  222.8430 C   0  0  0  0  0  0  0  0  0  0  0  0
  139.4040   71.4270  221.8970 N   0  0  0  0  0  0  0  0  0  0  0  0
  140.2440   72.5440  221.6550 C   0  0  0  0  0  0  0  0  0  0  0  0
  141.5090   72.4530  221.1170 C   0  0  0  0  0  0  0  0  0  0  0  0
  142.3090   73.5560  220.9030 C   0  0  0  0  0  0  0  0  0  0  0  0
  143.6160   73.4820  220.3490 N   0  0  0  0  0  0  0  0  0  0  0  0
  144.5940   74.5230  220.4100 C   0  0  0  0  0  0  0  0  0  0  0  0
  145.9960   73.9440  220.5660 C   0  0  0  0  0  0  0  0  0  0  0  0
  146.3160   72.9980  219.5420 N   0  0  0  0  0  0  0  0  0  0  0  0
  145.1770   72.5640  218.7690 C   0  0  0  0  0  0  0  0  0  0  0  0
  144.0030   72.2460  219.6560 C   0  0  0  0  0  0  0  0  0  0  0  0
  141.7820   74.7510  221.2520 N   0  0  0  0  0  0  0  0  0  0  0  0
  140.5610   74.8940  221.7750 C   0  0  0  0  0  0  0  0  0  0  0  0
  140.0920   76.1990  222.1120 N   0  0  0  0  0  0  0  0  0  0  0  0
  138.6690   76.3630  222.2700 C   0  0  0  0  0  0  0  0  0  0  0  0
  138.2010   77.6930  222.7090 C   0  0  0  0  0  0  0  0  0  0  0  0
  139.2340   78.6970  222.9820 C   0  0  0  0  0  0  0  0  0  0  0  0
  138.7950   79.9290  223.4800 C   0  0  0  0  0  0  0  0  0  0  0  0
  139.7290   80.9280  223.7630 C   0  0  0  0  0  0  0  0  0  0  0  0
  141.0840   80.7360  223.5630 C   0  0  0  0  0  0  0  0  0  0  0  0
  141.4690   79.5070  223.0720 C   0  0  0  0  0  0  0  0  0  0  0  0
  140.5700   78.5070  222.7860 C   0  0  0  0  0  0  0  0  0  0  0  0
  141.0770   77.2380  222.2670 C   0  0  0  0  0  0  0  0  0  0  0  0
  139.8240   73.8000  221.9650 N   0  0  0  0  0  0  0  0  0  0  0  0
  140.1150   68.7940  225.9260 C   0  0  0  0  0  0  0  0  0  0  0  0
  140.3890   67.7900  226.8410 C   0  0  0  0  0  0  0  0  0  0  0  0
  141.1357   67.4461  228.8429 H   0  0  0  0  0  0  0  0  0  0  0  0
  141.5055   69.8116  229.3248 H   0  0  0  0  0  0  0  0  0  0  0  0
  141.0055   71.5767  227.6699 H   0  0  0  0  0  0  0  0  0  0  0  0
  139.6272   72.0551  225.7268 H   0  0  0  0  0  0  0  0  0  0  0  0
  140.9561   71.3963  224.6641 H   0  0  0  0  0  0  0  0  0  0  0  0
  138.4713   69.8528  224.5427 H   0  0  0  0  0  0  0  0  0  0  0  0
  138.3132   71.5769  223.9946 H   0  0  0  0  0  0  0  0  0  0  0  0
  140.7348   70.2773  222.9857 H   0  0  0  0  0  0  0  0  0  0  0  0
  139.2238   69.4489  222.4677 H   0  0  0  0  0  0  0  0  0  0  0  0
  138.5160   71.3830  221.3080 H   0  0  0  0  0  0  0  0  0  0  0  0
  141.8970   71.4598  220.8470 H   0  0  0  0  0  0  0  0  0  0  0  0
  144.5494   75.1138  219.4832 H   0  0  0  0  0  0  0  0  0  0  0  0
  144.3772   75.1583  221.2814 H   0  0  0  0  0  0  0  0  0  0  0  0
  146.7241   74.7675  220.5252 H   0  0  0  0  0  0  0  0  0  0  0  0
  146.0341   73.4172  221.5309 H   0  0  0  0  0  0  0  0  0  0  0  0
  147.0800   73.2770  218.9060 H   0  0  0  0  0  0  0  0  0  0  0  0
  144.8919   73.3646  218.0706 H   0  0  0  0  0  0  0  0  0  0  0  0
  145.4561   71.6514  218.2220 H   0  0  0  0  0  0  0  0  0  0  0  0
  143.1630   71.8793  219.0478 H   0  0  0  0  0  0  0  0  0  0  0  0
  144.2713   71.4656  220.3833 H   0  0  0  0  0  0  0  0  0  0  0  0
  138.1985   76.1474  221.2994 H   0  0  0  0  0  0  0  0  0  0  0  0
  138.3860   75.6744  223.0798 H   0  0  0  0  0  0  0  0  0  0  0  0
  137.5471   78.0934  221.9203 H   0  0  0  0  0  0  0  0  0  0  0  0
  137.7031   77.5203  223.6745 H   0  0  0  0  0  0  0  0  0  0  0  0
  137.7228   80.1091  223.6472 H   0  0  0  0  0  0  0  0  0  0  0  0
  139.3775   81.8936  224.1556 H   0  0  0  0  0  0  0  0  0  0  0  0
  141.8179   81.5248  223.7847 H   0  0  0  0  0  0  0  0  0  0  0  0
  142.5393   79.3186  222.9020 H   0  0  0  0  0  0  0  0  0  0  0  0
  141.5271   77.4293  221.2817 H   0  0  0  0  0  0  0  0  0  0  0  0
  141.7940   76.8683  223.0148 H   0  0  0  0  0  0  0  0  0  0  0  0
  139.7130   68.5133  224.9413 H   0  0  0  0  0  0  0  0  0  0  0  0
  140.2151   66.7293  226.6074 H   0  0  0  0  0  0  0  0  0  0  0  0
  1  2  2  0
  2  3  1  0
  3  4  2  0
  4  5  1  0
  5  6  1  0
  6  7  1  0
  7  8  1  0
  8  9  1  0
  9 10  2  0
 10 11  1  0
 11 12  1  0
 12 13  1  0
 13 14  1  0
 14 15  1  0
 15 16  1  0
 16 17  1  0
 11 18  2  0
 18 19  1  0
 19 20  1  0
 20 21  1  0
 21 22  1  0
 22 23  1  0
 23 24  2  0
 24 25  1  0
 25 26  2  0
 26 27  1  0
 27 28  2  0
 28 29  1  0
 19 30  2  0
  4 31  1  0
 31 32  2  0
 32  1  1  0
 30  9  1  0
 17 12  1  0
 29 20  1  0
 28 23  1  0
  1 33  1  0
  2 34  1  0
  3 35  1  0
  5 36  1  0
  5 37  1  0
  6 38  1  0
  6 39  1  0
  7 40  1  0
  7 41  1  0
  8 42  1  0
 10 43  1  0
 13 44  1  0
 13 45  1  0
 14 46  1  0
 14 47  1  0
 15 48  1  0
 16 49  1  0
 16 50  1  0
 17 51  1  0
 17 52  1  0
 21 53  1  0
 21 54  1  0
 22 55  1  0
 22 56  1  0
 24 57  1  0
 25 58  1  0
 26 59  1  0
 27 60  1  0
 29 61  1  0
 29 62  1  0
 31 63  1  0
 32 64  1  0
M  END
>  <smiles>  (18) 
c1ccc(CCCNc2cc(N3CCNCC3)nc(N3CCc4ccccc4C3)n2)cc1

>  <score_type>  (18) 
oracle

>  <origin>  (18) 
autodockgpu

>  <m_score__min__energy>  (18) 
-10.25

>  <m_primary>  (18) 
energy

>  <rmsd>  (18) 
2.0794352541766523

>  <m_score__min__rmsd>  (18) 
2.0794352541766523

>  <meeko>  (18) 
{"free_energy": -9.9, "intermolecular_energy": -11.99, "internal_energy": -1.04, "cluster_size": 50, "cluster_id": 1, "rank_in_cluster": 21}

>  <energy>  (18) 
-9.95

>  <cluster_rmsd>  (18) 
1.38

>  <cluster>  (18) 
1

$$$$

     RDKit          3D

 64 68  0  0  0  0  0  0  0  0999 V2000
  142.9170   80.6420  223.4210 C   0  0  0  0  0  0  0  0  0  0  0  0
  142.9530   79.3990  222.8430 C   0  0  0  0  0  0  0  0  0  0  0  0
  141.8310   78.6350  222.6560 C   0  0  0  0  0  0  0  0  0  0  0  0
  140.6170   79.1680  223.0800 C   0  0  0  0  0  0  0  0  0  0  0  0
  139.3920   78.3630  222.8880 C   0  0  0  0  0  0  0  0  0  0  0  0
  138.9000   78.3570  221.4560 C   0  0  0  0  0  0  0  0  0  0  0  0
  139.3320   77.1140  220.7110 C   0  0  0  0  0  0  0  0  0  0  0  0
  139.2180   75.9770  221.5600 N   0  0  0  0  0  0  0  0  0  0  0  0
  140.1100   74.8740  221.5930 C   0  0  0  0  0  0  0  0  0  0  0  0
  141.3010   74.8270  220.9040 C   0  0  0  0  0  0  0  0  0  0  0  0
  142.1440   73.7370  220.9460 C   0  0  0  0  0  0  0  0  0  0  0  0
  143.3780   73.6700  220.2420 N   0  0  0  0  0  0  0  0  0  0  0  0
  144.5220   74.4830  220.5120 C   0  0  0  0  0  0  0  0  0  0  0  0
  145.8110   73.6960  220.3040 C   0  0  0  0  0  0  0  0  0  0  0  0
  145.8920   73.1110  219.0010 N   0  0  0  0  0  0  0  0  0  0  0  0
  144.6450   73.1250  218.2730 C   0  0  0  0  0  0  0  0  0  0  0  0
  143.4980   72.6960  219.1490 C   0  0  0  0  0  0  0  0  0  0  0  0
  141.7380   72.6990  221.7090 N   0  0  0  0  0  0  0  0  0  0  0  0
  140.5930   72.6940  222.3980 C   0  0  0  0  0  0  0  0  0  0  0  0
  140.2500   71.5480  223.1780 N   0  0  0  0  0  0  0  0  0  0  0  0
  139.5050   70.5060  222.5170 C   0  0  0  0  0  0  0  0  0  0  0  0
  139.2360   69.2850  223.3020 C   0  0  0  0  0  0  0  0  0  0  0  0
  139.7910   69.2400  224.6590 C   0  0  0  0  0  0  0  0  0  0  0  0
  139.6080   68.0500  225.3710 C   0  0  0  0  0  0  0  0  0  0  0  0
  140.1150   67.9410  226.6690 C   0  0  0  0  0  0  0  0  0  0  0  0
  140.7940   68.9820  227.2750 C   0  0  0  0  0  0  0  0  0  0  0  0
  140.9500   70.1340  226.5350 C   0  0  0  0  0  0  0  0  0  0  0  0
  140.4620   70.2670  225.2560 C   0  0  0  0  0  0  0  0  0  0  0  0
  140.6760   71.5300  224.5530 C   0  0  0  0  0  0  0  0  0  0  0  0
  139.8100   73.7690  222.3270 N   0  0  0  0  0  0  0  0  0  0  0  0
  140.5750   80.4140  223.6600 C   0  0  0  0  0  0  0  0  0  0  0  0
  141.7070   81.1910  223.8520 C   0  0  0  0  0  0  0  0  0  0  0  0
  143.8494   81.2119  223.5464 H   0  0  0  0  0  0  0  0  0  0  0  0
  143.9237   78.9983  222.5156 H   0  0  0  0  0  0  0  0  0  0  0  0
  141.8873   77.6404  222.1895 H   0  0  0  0  0  0  0  0  0  0  0  0
  139.6042   77.3265  223.1890 H   0  0  0  0  0  0  0  0  0  0  0  0
  138.6019   78.8186  223.5030 H   0  0  0  0  0  0  0  0  0  0  0  0
  137.8010   78.4051  221.4584 H   0  0  0  0  0  0  0  0  0  0  0  0
  139.3366   79.2274  220.9443 H   0  0  0  0  0  0  0  0  0  0  0  0
  138.6902   76.9761  219.8283 H   0  0  0  0  0  0  0  0  0  0  0  0
  140.3795   77.2266  220.3947 H   0  0  0  0  0  0  0  0  0  0  0  0
  138.3970   75.9250  222.2390 H   0  0  0  0  0  0  0  0  0  0  0  0
  141.5921   75.6953  220.2946 H   0  0  0  0  0  0  0  0  0  0  0  0
  144.5159   75.3495  219.8344 H   0  0  0  0  0  0  0  0  0  0  0  0
  144.4780   74.8141  221.5601 H   0  0  0  0  0  0  0  0  0  0  0  0
  146.6651   74.3760  220.4390 H   0  0  0  0  0  0  0  0  0  0  0  0
  145.8251   72.8777  221.0390 H   0  0  0  0  0  0  0  0  0  0  0  0
  146.6470   73.4770  218.3980 H   0  0  0  0  0  0  0  0  0  0  0  0
  144.4548   74.1446  217.9067 H   0  0  0  0  0  0  0  0  0  0  0  0
  144.7243   72.4194  217.4328 H   0  0  0  0  0  0  0  0  0  0  0  0
  142.5673   72.6748  218.5630 H   0  0  0  0  0  0  0  0  0  0  0  0
  143.6781   71.6881  219.5510 H   0  0  0  0  0  0  0  0  0  0  0  0
  138.5354   70.9291  222.2154 H   0  0  0  0  0  0  0  0  0  0  0  0
  140.1424   70.1791  221.6822 H   0  0  0  0  0  0  0  0  0  0  0  0
  138.1446   69.1750  223.3842 H   0  0  0  0  0  0  0  0  0  0  0  0
  139.7391   68.4732  222.7563 H   0  0  0  0  0  0  0  0  0  0  0  0
  139.0696   67.2070  224.9133 H   0  0  0  0  0  0  0  0  0  0  0  0
  139.9700   67.0020  227.2232 H   0  0  0  0  0  0  0  0  0  0  0  0
  141.1902   68.8949  228.2975 H   0  0  0  0  0  0  0  0  0  0  0  0
  141.4867   70.9818  226.9857 H   0  0  0  0  0  0  0  0  0  0  0  0
  140.1244   72.3157  225.0901 H   0  0  0  0  0  0  0  0  0  0  0  0
  141.7644   71.6887  224.5366 H   0  0  0  0  0  0  0  0  0  0  0  0
  139.6021   80.8111  223.9854 H   0  0  0  0  0  0  0  0  0  0  0  0
  141.6551   82.1859  224.3184 H   0  0  0  0  0  0  0  0  0  0  0  0
  1  2  2  0
  2  3  1  0
  3  4  2  0
  4  5  1  0
  5  6  1  0
  6  7  1  0
  7  8  1  0
  8  9  1  0
  9 10  2  0
 10 11  1  0
 11 12  1  0
 12 13  1  0
 13 14  1  0
 14 15  1  0
 15 16  1  0
 16 17  1  0
 11 18  2  0
 18 19  1  0
 19 20  1  0
 20 21  1  0
 21 22  1  0
 22 23  1  0
 23 24  2  0
 24 25  1  0
 25 26  2  0
 26 27  1  0
 27 28  2  0
 28 29  1  0
 19 30  2  0
  4 31  1  0
 31 32  2  0
 32  1  1  0
 30  9  1  0
 17 12  1  0
 29 20  1  0
 28 23  1  0
  1 33  1  0
  2 34  1  0
  3 35  1  0
  5 36  1  0
  5 37  1  0
  6 38  1  0
  6 39  1  0
  7 40  1  0
  7 41  1  0
  8 42  1  0
 10 43  1  0
 13 44  1  0
 13 45  1  0
 14 46  1  0
 14 47  1  0
 15 48  1  0
 16 49  1  0
 16 50  1  0
 17 51  1  0
 17 52  1  0
 21 53  1  0
 21 54  1  0
 22 55  1  0
 22 56  1  0
 24 57  1  0
 25 58  1  0
 26 59  1  0
 27 60  1  0
 29 61  1  0
 29 62  1  0
 31 63  1  0
 32 64  1  0
M  END
>  <smiles>  (19) 
c1ccc(CCCNc2cc(N3CCNCC3)nc(N3CCc4ccccc4C3)n2)cc1

>  <score_type>  (19) 
oracle

>  <origin>  (19) 
autodockgpu

>  <m_score__min__energy>  (19) 
-10.25

>  <m_primary>  (19) 
energy

>  <rmsd>  (19) 
9.150117611574883

>  <m_score__min__rmsd>  (19) 
9.150117611574883

>  <meeko>  (19) 
{"free_energy": -9.8, "intermolecular_energy": -11.89, "internal_energy": -1.13, "cluster_size": 50, "cluster_id": 1, "rank_in_cluster": 30}

>  <energy>  (19) 
-9.93

>  <cluster_rmsd>  (19) 
1.44

>  <cluster>  (19) 
1

$$$$

     RDKit          3D

 64 68  0  0  0  0  0  0  0  0999 V2000
  140.9660   71.6460  228.3640 C   0  0  0  0  0  0  0  0  0  0  0  0
  140.2460   70.4830  228.2740 C   0  0  0  0  0  0  0  0  0  0  0  0
  139.9500   69.8830  227.0770 C   0  0  0  0  0  0  0  0  0  0  0  0
  140.4120   70.5040  225.9200 C   0  0  0  0  0  0  0  0  0  0  0  0
  140.1060   69.8770  224.6170 C   0  0  0  0  0  0  0  0  0  0  0  0
  138.7240   70.2190  224.1000 C   0  0  0  0  0  0  0  0  0  0  0  0
  138.7620   70.7480  222.6840 C   0  0  0  0  0  0  0  0  0  0  0  0
  138.6940   72.1710  222.6970 N   0  0  0  0  0  0  0  0  0  0  0  0
  139.7050   73.0530  222.2360 C   0  0  0  0  0  0  0  0  0  0  0  0
  140.8900   72.6370  221.6710 C   0  0  0  0  0  0  0  0  0  0  0  0
  141.8600   73.5180  221.2410 C   0  0  0  0  0  0  0  0  0  0  0  0
  143.0890   73.1070  220.6560 N   0  0  0  0  0  0  0  0  0  0  0  0
  143.3890   71.7790  220.2220 C   0  0  0  0  0  0  0  0  0  0  0  0
  144.2520   71.7970  218.9650 C   0  0  0  0  0  0  0  0  0  0  0  0
  145.4470   72.5650  219.1320 N   0  0  0  0  0  0  0  0  0  0  0  0
  145.4510   73.3950  220.3140 C   0  0  0  0  0  0  0  0  0  0  0  0
  144.1410   74.1170  220.4780 C   0  0  0  0  0  0  0  0  0  0  0  0
  141.5870   74.8310  221.4040 N   0  0  0  0  0  0  0  0  0  0  0  0
  140.4530   75.2870  221.9440 C   0  0  0  0  0  0  0  0  0  0  0  0
  140.2560   76.6940  222.0740 N   0  0  0  0  0  0  0  0  0  0  0  0
  138.9110   77.1460  222.3290 C   0  0  0  0  0  0  0  0  0  0  0  0
  138.7310   78.5950  222.5540 C   0  0  0  0  0  0  0  0  0  0  0  0
  139.9440   79.4180  222.5390 C   0  0  0  0  0  0  0  0  0  0  0  0
  139.7830   80.7760  222.8370 C   0  0  0  0  0  0  0  0  0  0  0  0
  140.9000   81.6150  222.8420 C   0  0  0  0  0  0  0  0  0  0  0  0
  142.1680   81.1420  222.5580 C   0  0  0  0  0  0  0  0  0  0  0  0
  142.2780   79.7990  222.2710 C   0  0  0  0  0  0  0  0  0  0  0  0
  141.1950   78.9510  222.2590 C   0  0  0  0  0  0  0  0  0  0  0  0
  141.4130   77.5410  221.9410 C   0  0  0  0  0  0  0  0  0  0  0  0
  139.5450   74.3990  222.3450 N   0  0  0  0  0  0  0  0  0  0  0  0
  141.1360   71.6710  226.0050 C   0  0  0  0  0  0  0  0  0  0  0  0
  141.4380   72.2810  227.2120 C   0  0  0  0  0  0  0  0  0  0  0  0
  141.1741   72.0833  229.3517 H   0  0  0  0  0  0  0  0  0  0  0  0
  139.8905   70.0108  229.2017 H   0  0  0  0  0  0  0  0  0  0  0  0
  139.3709   68.9488  227.0329 H   0  0  0  0  0  0  0  0  0  0  0  0
  140.8489   70.2190  223.8814 H   0  0  0  0  0  0  0  0  0  0  0  0
  140.1400   68.7872  224.7627 H   0  0  0  0  0  0  0  0  0  0  0  0
  138.1019   69.3121  224.1234 H   0  0  0  0  0  0  0  0  0  0  0  0
  138.3060   71.0060  224.7448 H   0  0  0  0  0  0  0  0  0  0  0  0
  139.6985   70.4318  222.2013 H   0  0  0  0  0  0  0  0  0  0  0  0
  137.9029   70.3491  222.1247 H   0  0  0  0  0  0  0  0  0  0  0  0
  137.8170   72.6380  223.0840 H   0  0  0  0  0  0  0  0  0  0  0  0
  141.0702   71.5578  221.5581 H   0  0  0  0  0  0  0  0  0  0  0  0
  143.9299   71.2526  221.0222 H   0  0  0  0  0  0  0  0  0  0  0  0
  142.4448   71.2638  219.9916 H   0  0  0  0  0  0  0  0  0  0  0  0
  144.5296   70.7629  218.7129 H   0  0  0  0  0  0  0  0  0  0  0  0
  143.6634   72.2650  218.1621 H   0  0  0  0  0  0  0  0  0  0  0  0
  146.3280   72.0280  219.0840 H   0  0  0  0  0  0  0  0  0  0  0  0
  145.6242   72.7615  221.1964 H   0  0  0  0  0  0  0  0  0  0  0  0
  146.2501   74.1438  220.2104 H   0  0  0  0  0  0  0  0  0  0  0  0
  144.1832   74.7724  221.3604 H   0  0  0  0  0  0  0  0  0  0  0  0
  143.9316   74.7373  219.5940 H   0  0  0  0  0  0  0  0  0  0  0  0
  138.2944   76.8637  221.4629 H   0  0  0  0  0  0  0  0  0  0  0  0
  138.6190   76.6673  223.2754 H   0  0  0  0  0  0  0  0  0  0  0  0
  138.0611   78.9739  221.7681 H   0  0  0  0  0  0  0  0  0  0  0  0
  138.3343   78.6823  223.5763 H   0  0  0  0  0  0  0  0  0  0  0  0
  138.7854   81.1793  223.0654 H   0  0  0  0  0  0  0  0  0  0  0  0
  140.7672   82.6811  223.0783 H   0  0  0  0  0  0  0  0  0  0  0  0
  143.0455   81.8053  222.5611 H   0  0  0  0  0  0  0  0  0  0  0  0
  143.2724   79.3881  222.0421 H   0  0  0  0  0  0  0  0  0  0  0  0
  141.7627   77.4776  220.9000 H   0  0  0  0  0  0  0  0  0  0  0  0
  142.1450   77.1733  222.6751 H   0  0  0  0  0  0  0  0  0  0  0  0
  141.4902   72.1398  225.0751 H   0  0  0  0  0  0  0  0  0  0  0  0
  142.0179   73.2145  227.2608 H   0  0  0  0  0  0  0  0  0  0  0  0
  1  2  2  0
  2  3  1  0
  3  4  2  0
  4  5  1  0
  5  6  1  0
  6  7  1  0
  7  8  1  0
  8  9  1  0
  9 10  2  0
 10 11  1  0
 11 12  1  0
 12 13  1  0
 13 14  1  0
 14 15  1  0
 15 16  1  0
 16 17  1  0
 11 18  2  0
 18 19  1  0
 19 20  1  0
 20 21  1  0
 21 22  1  0
 22 23  1  0
 23 24  2  0
 24 25  1  0
 25 26  2  0
 26 27  1  0
 27 28  2  0
 28 29  1  0
 19 30  2  0
  4 31  1  0
 31 32  2  0
 32  1  1  0
 30  9  1  0
 17 12  1  0
 29 20  1  0
 28 23  1  0
  1 33  1  0
  2 34  1  0
  3 35  1  0
  5 36  1  0
  5 37  1  0
  6 38  1  0
  6 39  1  0
  7 40  1  0
  7 41  1  0
  8 42  1  0
 10 43  1  0
 13 44  1  0
 13 45  1  0
 14 46  1  0
 14 47  1  0
 15 48  1  0
 16 49  1  0
 16 50  1  0
 17 51  1  0
 17 52  1  0
 21 53  1  0
 21 54  1  0
 22 55  1  0
 22 56  1  0
 24 57  1  0
 25 58  1  0
 26 59  1  0
 27 60  1  0
 29 61  1  0
 29 62  1  0
 31 63  1  0
 32 64  1  0
M  END
>  <smiles>  (20) 
c1ccc(CCCNc2cc(N3CCNCC3)nc(N3CCc4ccccc4C3)n2)cc1

>  <score_type>  (20) 
oracle

>  <origin>  (20) 
autodockgpu

>  <m_score__min__energy>  (20) 
-10.25

>  <m_primary>  (20) 
energy

>  <rmsd>  (20) 
2.723193237374589

>  <m_score__min__rmsd>  (20) 
2.723193237374589

>  <meeko>  (20) 
{"free_energy": -10.07, "intermolecular_energy": -12.16, "internal_energy": -1.2, "cluster_size": 50, "cluster_id": 1, "rank_in_cluster": 7}

>  <energy>  (20) 
-9.92

>  <cluster_rmsd>  (20) 
1.41

>  <cluster>  (20) 
1

$$$$

     RDKit          3D

 64 68  0  0  0  0  0  0  0  0999 V2000
  142.3460   81.3510  224.1130 C   0  0  0  0  0  0  0  0  0  0  0  0
  141.0250   81.1210  223.8250 C   0  0  0  0  0  0  0  0  0  0  0  0
  140.6090   80.0800  223.0340 C   0  0  0  0  0  0  0  0  0  0  0  0
  141.5900   79.2400  222.5160 C   0  0  0  0  0  0  0  0  0  0  0  0
  141.1660   78.1110  221.6620 C   0  0  0  0  0  0  0  0  0  0  0  0
  139.7670   78.2750  221.1050 C   0  0  0  0  0  0  0  0  0  0  0  0
  139.2270   76.9850  220.5320 C   0  0  0  0  0  0  0  0  0  0  0  0
  139.2380   75.9700  221.5310 N   0  0  0  0  0  0  0  0  0  0  0  0
  140.1290   74.8670  221.5810 C   0  0  0  0  0  0  0  0  0  0  0  0
  141.3260   74.8130  220.9030 C   0  0  0  0  0  0  0  0  0  0  0  0
  142.1680   73.7210  220.9610 C   0  0  0  0  0  0  0  0  0  0  0  0
  143.4070   73.6480  220.2700 N   0  0  0  0  0  0  0  0  0  0  0  0
  144.6600   74.1150  220.7760 C   0  0  0  0  0  0  0  0  0  0  0  0
  145.8000   73.2060  220.3320 C   0  0  0  0  0  0  0  0  0  0  0  0
  145.8500   73.0430  218.9120 N   0  0  0  0  0  0  0  0  0  0  0  0
  144.6660   73.5060  218.2270 C   0  0  0  0  0  0  0  0  0  0  0  0
  143.4150   73.0490  218.9280 C   0  0  0  0  0  0  0  0  0  0  0  0
  141.7530   72.6900  221.7290 N   0  0  0  0  0  0  0  0  0  0  0  0
  140.6010   72.6920  222.4080 C   0  0  0  0  0  0  0  0  0  0  0  0
  140.2500   71.5530  223.1930 N   0  0  0  0  0  0  0  0  0  0  0  0
  139.4870   70.5180  222.5400 C   0  0  0  0  0  0  0  0  0  0  0  0
  139.2080   69.3030  223.3320 C   0  0  0  0  0  0  0  0  0  0  0  0
  139.7720   69.2550  224.6840 C   0  0  0  0  0  0  0  0  0  0  0  0
  139.5800   68.0690  225.4010 C   0  0  0  0  0  0  0  0  0  0  0  0
  140.0940   67.9570  226.6960 C   0  0  0  0  0  0  0  0  0  0  0  0
  140.7910   68.9920  227.2940 C   0  0  0  0  0  0  0  0  0  0  0  0
  140.9560   70.1390  226.5490 C   0  0  0  0  0  0  0  0  0  0  0  0
  140.4600   70.2750  225.2730 C   0  0  0  0  0  0  0  0  0  0  0  0
  140.6850   71.5330  224.5650 C   0  0  0  0  0  0  0  0  0  0  0  0
  139.8210   73.7680  222.3210 N   0  0  0  0  0  0  0  0  0  0  0  0
  142.9160   79.4670  222.8030 C   0  0  0  0  0  0  0  0  0  0  0  0
  143.3420   80.5170  223.6010 C   0  0  0  0  0  0  0  0  0  0  0  0
  142.6237   82.2009  224.7537 H   0  0  0  0  0  0  0  0  0  0  0  0
  140.2678   81.7991  224.2455 H   0  0  0  0  0  0  0  0  0  0  0  0
  139.5429   79.9160  222.8180 H   0  0  0  0  0  0  0  0  0  0  0  0
  141.8693   78.0261  220.8205 H   0  0  0  0  0  0  0  0  0  0  0  0
  141.1629   77.2089  222.2915 H   0  0  0  0  0  0  0  0  0  0  0  0
  139.1006   78.6101  221.9135 H   0  0  0  0  0  0  0  0  0  0  0  0
  139.8114   79.0140  220.2914 H   0  0  0  0  0  0  0  0  0  0  0  0
  138.1955   77.1437  220.1843 H   0  0  0  0  0  0  0  0  0  0  0  0
  139.8589   76.6704  219.6884 H   0  0  0  0  0  0  0  0  0  0  0  0
  138.5240   76.0210  222.3210 H   0  0  0  0  0  0  0  0  0  0  0  0
  141.6237   75.6761  220.2895 H   0  0  0  0  0  0  0  0  0  0  0  0
  144.8434   75.1323  220.3999 H   0  0  0  0  0  0  0  0  0  0  0  0
  144.6173   74.1130  221.8752 H   0  0  0  0  0  0  0  0  0  0  0  0
  146.7513   73.6424  220.6706 H   0  0  0  0  0  0  0  0  0  0  0  0
  145.6288   72.2143  220.7762 H   0  0  0  0  0  0  0  0  0  0  0  0
  146.6900   73.4300  218.4500 H   0  0  0  0  0  0  0  0  0  0  0  0
  144.6775   74.6055  218.1948 H   0  0  0  0  0  0  0  0  0  0  0  0
  144.6670   73.0870  217.2099 H   0  0  0  0  0  0  0  0  0  0  0  0
  142.5292   73.3793  218.3656 H   0  0  0  0  0  0  0  0  0  0  0  0
  143.3928   71.9514  218.9973 H   0  0  0  0  0  0  0  0  0  0  0  0
  138.5209   70.9523  222.2434 H   0  0  0  0  0  0  0  0  0  0  0  0
  140.1141   70.1803  221.7017 H   0  0  0  0  0  0  0  0  0  0  0  0
  138.1159   69.2077  223.4228 H   0  0  0  0  0  0  0  0  0  0  0  0
  139.6967   68.4830  222.7855 H   0  0  0  0  0  0  0  0  0  0  0  0
  139.0288   67.2312  224.9491 H   0  0  0  0  0  0  0  0  0  0  0  0
  139.9404   67.0217  227.2543 H   0  0  0  0  0  0  0  0  0  0  0  0
  141.1935   68.9033  228.3139 H   0  0  0  0  0  0  0  0  0  0  0  0
  141.5072   70.9811  226.9928 H   0  0  0  0  0  0  0  0  0  0  0  0
  140.1471   72.3270  225.1037 H   0  0  0  0  0  0  0  0  0  0  0  0
  141.7752   71.6775  224.5406 H   0  0  0  0  0  0  0  0  0  0  0  0
  143.6702   78.7863  222.3813 H   0  0  0  0  0  0  0  0  0  0  0  0
  144.4071   80.6843  223.8192 H   0  0  0  0  0  0  0  0  0  0  0  0
  1  2  2  0
  2  3  1  0
  3  4  2  0
  4  5  1  0
  5  6  1  0
  6  7  1  0
  7  8  1  0
  8  9  1  0
  9 10  2  0
 10 11  1  0
 11 12  1  0
 12 13  1  0
 13 14  1  0
 14 15  1  0
 15 16  1  0
 16 17  1  0
 11 18  2  0
 18 19  1  0
 19 20  1  0
 20 21  1  0
 21 22  1  0
 22 23  1  0
 23 24  2  0
 24 25  1  0
 25 26  2  0
 26 27  1  0
 27 28  2  0
 28 29  1  0
 19 30  2  0
  4 31  1  0
 31 32  2  0
 32  1  1  0
 30  9  1  0
 17 12  1  0
 29 20  1  0
 28 23  1  0
  1 33  1  0
  2 34  1  0
  3 35  1  0
  5 36  1  0
  5 37  1  0
  6 38  1  0
  6 39  1  0
  7 40  1  0
  7 41  1  0
  8 42  1  0
 10 43  1  0
 13 44  1  0
 13 45  1  0
 14 46  1  0
 14 47  1  0
 15 48  1  0
 16 49  1  0
 16 50  1  0
 17 51  1  0
 17 52  1  0
 21 53  1  0
 21 54  1  0
 22 55  1  0
 22 56  1  0
 24 57  1  0
 25 58  1  0
 26 59  1  0
 27 60  1  0
 29 61  1  0
 29 62  1  0
 31 63  1  0
 32 64  1  0
M  END
>  <smiles>  (21) 
c1ccc(CCCNc2cc(N3CCNCC3)nc(N3CCc4ccccc4C3)n2)cc1

>  <score_type>  (21) 
oracle

>  <origin>  (21) 
autodockgpu

>  <m_score__min__energy>  (21) 
-10.25

>  <m_primary>  (21) 
energy

>  <rmsd>  (21) 
9.47157707007636

>  <m_score__min__rmsd>  (21) 
9.47157707007636

>  <meeko>  (21) 
{"free_energy": -9.81, "intermolecular_energy": -11.9, "internal_energy": -1.05, "cluster_size": 50, "cluster_id": 1, "rank_in_cluster": 27}

>  <energy>  (21) 
-9.9

>  <cluster_rmsd>  (21) 
0.58

>  <cluster>  (21) 
1

$$$$

     RDKit          3D

 64 68  0  0  0  0  0  0  0  0999 V2000
  140.7900   71.5060  228.3220 C   0  0  0  0  0  0  0  0  0  0  0  0
  140.0640   70.3590  228.1270 C   0  0  0  0  0  0  0  0  0  0  0  0
  139.8200   69.8380  226.8830 C   0  0  0  0  0  0  0  0  0  0  0  0
  140.3410   70.5230  225.7900 C   0  0  0  0  0  0  0  0  0  0  0  0
  140.0910   69.9810  224.4380 C   0  0  0  0  0  0  0  0  0  0  0  0
  138.6340   70.0440  224.0290 C   0  0  0  0  0  0  0  0  0  0  0  0
  138.2330   71.4250  223.5630 C   0  0  0  0  0  0  0  0  0  0  0  0
  138.7890   71.6830  222.2780 N   0  0  0  0  0  0  0  0  0  0  0  0
  139.7830   72.6520  221.9850 C   0  0  0  0  0  0  0  0  0  0  0  0
  141.0330   72.3480  221.4920 C   0  0  0  0  0  0  0  0  0  0  0  0
  141.9840   73.3110  221.2270 C   0  0  0  0  0  0  0  0  0  0  0  0
  143.2780   73.0170  220.7170 N   0  0  0  0  0  0  0  0  0  0  0  0
  143.7710   71.7060  220.4370 C   0  0  0  0  0  0  0  0  0  0  0  0
  144.6700   71.7130  219.2060 C   0  0  0  0  0  0  0  0  0  0  0  0
  145.7430   72.6530  219.3150 N   0  0  0  0  0  0  0  0  0  0  0  0
  145.5900   73.5940  220.4000 C   0  0  0  0  0  0  0  0  0  0  0  0
  144.1880   74.1400  220.4550 C   0  0  0  0  0  0  0  0  0  0  0  0
  141.6240   74.5890  221.4790 N   0  0  0  0  0  0  0  0  0  0  0  0
  140.4250   74.9370  221.9560 C   0  0  0  0  0  0  0  0  0  0  0  0
  140.1380   76.3160  222.1900 N   0  0  0  0  0  0  0  0  0  0  0  0
  138.7560   76.6720  222.3900 C   0  0  0  0  0  0  0  0  0  0  0  0
  138.4780   78.0840  222.7240 C   0  0  0  0  0  0  0  0  0  0  0  0
  139.6390   78.9680  222.8610 C   0  0  0  0  0  0  0  0  0  0  0  0
  139.3810   80.2840  223.2610 C   0  0  0  0  0  0  0  0  0  0  0  0
  140.4440   81.1770  223.4120 C   0  0  0  0  0  0  0  0  0  0  0  0
  141.7530   80.7990  223.1750 C   0  0  0  0  0  0  0  0  0  0  0  0
  141.9590   79.4930  222.7840 C   0  0  0  0  0  0  0  0  0  0  0  0
  140.9300   78.5930  222.6280 C   0  0  0  0  0  0  0  0  0  0  0  0
  141.2500   77.2310  222.2080 C   0  0  0  0  0  0  0  0  0  0  0  0
  139.5380   73.9730  222.1970 N   0  0  0  0  0  0  0  0  0  0  0  0
  141.0700   71.6750  225.9800 C   0  0  0  0  0  0  0  0  0  0  0  0
  141.3200   72.2050  227.2360 C   0  0  0  0  0  0  0  0  0  0  0  0
  140.9562   71.8787  229.3435 H   0  0  0  0  0  0  0  0  0  0  0  0
  139.6605   69.8351  229.0060 H   0  0  0  0  0  0  0  0  0  0  0  0
  139.2356   68.9151  226.7540 H   0  0  0  0  0  0  0  0  0  0  0  0
  140.6825   70.5608  223.7142 H   0  0  0  0  0  0  0  0  0  0  0  0
  140.3803   68.9198  224.4530 H   0  0  0  0  0  0  0  0  0  0  0  0
  138.4645   69.3301  223.2095 H   0  0  0  0  0  0  0  0  0  0  0  0
  138.0241   69.7934  224.9094 H   0  0  0  0  0  0  0  0  0  0  0  0
  137.1362   71.4862  223.5049 H   0  0  0  0  0  0  0  0  0  0  0  0
  138.6097   72.1719  224.2773 H   0  0  0  0  0  0  0  0  0  0  0  0
  138.4450   71.1110  221.4470 H   0  0  0  0  0  0  0  0  0  0  0  0
  141.2828   71.2937  221.3019 H   0  0  0  0  0  0  0  0  0  0  0  0
  144.3477   71.3460  221.3018 H   0  0  0  0  0  0  0  0  0  0  0  0
  142.9149   71.0433  220.2425 H   0  0  0  0  0  0  0  0  0  0  0  0
  145.0948   70.7069  219.0740 H   0  0  0  0  0  0  0  0  0  0  0  0
  144.0535   72.0088  218.3443 H   0  0  0  0  0  0  0  0  0  0  0  0
  146.6900   72.2420  219.3450 H   0  0  0  0  0  0  0  0  0  0  0  0
  145.8145   73.0861  221.3495 H   0  0  0  0  0  0  0  0  0  0  0  0
  146.2833   74.4318  220.2342 H   0  0  0  0  0  0  0  0  0  0  0  0
  144.1073   74.8830  221.2621 H   0  0  0  0  0  0  0  0  0  0  0  0
  143.9293   74.6302  219.5048 H   0  0  0  0  0  0  0  0  0  0  0  0
  138.2130   76.4352  221.4632 H   0  0  0  0  0  0  0  0  0  0  0  0
  138.4330   76.0969  223.2703 H   0  0  0  0  0  0  0  0  0  0  0  0
  137.8379   78.4949  221.9293 H   0  0  0  0  0  0  0  0  0  0  0  0
  138.0135   78.0596  223.7208 H   0  0  0  0  0  0  0  0  0  0  0  0
  138.3492   80.6124  223.4549 H   0  0  0  0  0  0  0  0  0  0  0  0
  140.2343   82.2095  223.7282 H   0  0  0  0  0  0  0  0  0  0  0  0
  142.5882   81.5051  223.2926 H   0  0  0  0  0  0  0  0  0  0  0  0
  142.9880   79.1568  222.5888 H   0  0  0  0  0  0  0  0  0  0  0  0
  141.6681   77.2780  221.1916 H   0  0  0  0  0  0  0  0  0  0  0  0
  141.9547   76.8392  222.9563 H   0  0  0  0  0  0  0  0  0  0  0  0
  141.4708   72.1966  225.0984 H   0  0  0  0  0  0  0  0  0  0  0  0
  141.9047   73.1270  227.3699 H   0  0  0  0  0  0  0  0  0  0  0  0
  1  2  2  0
  2  3  1  0
  3  4  2  0
  4  5  1  0
  5  6  1  0
  6  7  1  0
  7  8  1  0
  8  9  1  0
  9 10  2  0
 10 11  1  0
 11 12  1  0
 12 13  1  0
 13 14  1  0
 14 15  1  0
 15 16  1  0
 16 17  1  0
 11 18  2  0
 18 19  1  0
 19 20  1  0
 20 21  1  0
 21 22  1  0
 22 23  1  0
 23 24  2  0
 24 25  1  0
 25 26  2  0
 26 27  1  0
 27 28  2  0
 28 29  1  0
 19 30  2  0
  4 31  1  0
 31 32  2  0
 32  1  1  0
 30  9  1  0
 17 12  1  0
 29 20  1  0
 28 23  1  0
  1 33  1  0
  2 34  1  0
  3 35  1  0
  5 36  1  0
  5 37  1  0
  6 38  1  0
  6 39  1  0
  7 40  1  0
  7 41  1  0
  8 42  1  0
 10 43  1  0
 13 44  1  0
 13 45  1  0
 14 46  1  0
 14 47  1  0
 15 48  1  0
 16 49  1  0
 16 50  1  0
 17 51  1  0
 17 52  1  0
 21 53  1  0
 21 54  1  0
 22 55  1  0
 22 56  1  0
 24 57  1  0
 25 58  1  0
 26 59  1  0
 27 60  1  0
 29 61  1  0
 29 62  1  0
 31 63  1  0
 32 64  1  0
M  END
>  <smiles>  (22) 
c1ccc(CCCNc2cc(N3CCNCC3)nc(N3CCc4ccccc4C3)n2)cc1

>  <score_type>  (22) 
oracle

>  <origin>  (22) 
autodockgpu

>  <m_score__min__energy>  (22) 
-10.25

>  <m_primary>  (22) 
energy

>  <rmsd>  (22) 
2.802235952654095

>  <m_score__min__rmsd>  (22) 
2.802235952654095

>  <meeko>  (22) 
{"free_energy": -9.73, "intermolecular_energy": -11.81, "internal_energy": -1.28, "cluster_size": 50, "cluster_id": 1, "rank_in_cluster": 36}

>  <energy>  (22) 
-9.86

>  <cluster_rmsd>  (22) 
1.39

>  <cluster>  (22) 
1

$$$$

     RDKit          3D

 64 68  0  0  0  0  0  0  0  0999 V2000
  142.6120   80.6830  223.8060 C   0  0  0  0  0  0  0  0  0  0  0  0
  142.5390   79.3450  223.5180 C   0  0  0  0  0  0  0  0  0  0  0  0
  141.6610   78.8300  222.5990 C   0  0  0  0  0  0  0  0  0  0  0  0
  140.8210   79.7260  221.9470 C   0  0  0  0  0  0  0  0  0  0  0  0
  139.8650   79.1950  220.9520 C   0  0  0  0  0  0  0  0  0  0  0  0
  140.2600   77.8360  220.4110 C   0  0  0  0  0  0  0  0  0  0  0  0
  139.0990   76.8680  220.4030 C   0  0  0  0  0  0  0  0  0  0  0  0
  139.2000   75.9820  221.5130 N   0  0  0  0  0  0  0  0  0  0  0  0
  140.0750   74.8680  221.6070 C   0  0  0  0  0  0  0  0  0  0  0  0
  141.2830   74.7810  220.9520 C   0  0  0  0  0  0  0  0  0  0  0  0
  142.1080   73.6800  221.0530 C   0  0  0  0  0  0  0  0  0  0  0  0
  143.3580   73.5730  220.3850 N   0  0  0  0  0  0  0  0  0  0  0  0
  144.4170   74.5300  220.4660 C   0  0  0  0  0  0  0  0  0  0  0  0
  145.7770   73.8410  220.4450 C   0  0  0  0  0  0  0  0  0  0  0  0
  145.9420   72.9870  219.3100 N   0  0  0  0  0  0  0  0  0  0  0  0
  144.7160   72.7170  218.5960 C   0  0  0  0  0  0  0  0  0  0  0  0
  143.5930   72.3920  219.5430 C   0  0  0  0  0  0  0  0  0  0  0  0
  141.6650   72.6740  221.8390 N   0  0  0  0  0  0  0  0  0  0  0  0
  140.5020   72.7090  222.4960 C   0  0  0  0  0  0  0  0  0  0  0  0
  140.1210   71.5950  223.3030 N   0  0  0  0  0  0  0  0  0  0  0  0
  139.2090   70.6440  222.7170 C   0  0  0  0  0  0  0  0  0  0  0  0
  138.8930   69.4480  223.5230 C   0  0  0  0  0  0  0  0  0  0  0  0
  139.5730   69.3280  224.8170 C   0  0  0  0  0  0  0  0  0  0  0  0
  139.3400   68.1540  225.5410 C   0  0  0  0  0  0  0  0  0  0  0  0
  139.9590   67.9760  226.7800 C   0  0  0  0  0  0  0  0  0  0  0  0
  140.8010   68.9320  227.3180 C   0  0  0  0  0  0  0  0  0  0  0  0
  141.0010   70.0720  226.5690 C   0  0  0  0  0  0  0  0  0  0  0  0
  140.4040   70.2710  225.3460 C   0  0  0  0  0  0  0  0  0  0  0  0
  140.6780   71.5140  224.6280 C   0  0  0  0  0  0  0  0  0  0  0  0
  139.7380   73.7930  222.3680 N   0  0  0  0  0  0  0  0  0  0  0  0
  140.8900   81.0700  222.2320 C   0  0  0  0  0  0  0  0  0  0  0  0
  141.7760   81.5960  223.1590 C   0  0  0  0  0  0  0  0  0  0  0  0
  143.3354   81.0410  224.5533 H   0  0  0  0  0  0  0  0  0  0  0  0
  143.2133   78.6550  224.0464 H   0  0  0  0  0  0  0  0  0  0  0  0
  141.6228   77.7515  222.3862 H   0  0  0  0  0  0  0  0  0  0  0  0
  138.8771   79.1082  221.4280 H   0  0  0  0  0  0  0  0  0  0  0  0
  139.8545   79.8944  220.1030 H   0  0  0  0  0  0  0  0  0  0  0  0
  140.6278   77.9573  219.3814 H   0  0  0  0  0  0  0  0  0  0  0  0
  141.0404   77.4237  221.0675 H   0  0  0  0  0  0  0  0  0  0  0  0
  138.1554   77.4294  220.4690 H   0  0  0  0  0  0  0  0  0  0  0  0
  139.1198   76.2847  219.4706 H   0  0  0  0  0  0  0  0  0  0  0  0
  138.5750   76.1470  222.3600 H   0  0  0  0  0  0  0  0  0  0  0  0
  141.6034   75.6241  220.3223 H   0  0  0  0  0  0  0  0  0  0  0  0
  144.3480   75.2166  219.6094 H   0  0  0  0  0  0  0  0  0  0  0  0
  144.3184   75.0835  221.4115 H   0  0  0  0  0  0  0  0  0  0  0  0
  146.5621   74.6112  220.4238 H   0  0  0  0  0  0  0  0  0  0  0  0
  145.8479   73.2150  221.3467 H   0  0  0  0  0  0  0  0  0  0  0  0
  146.6750   73.2760  218.6410 H   0  0  0  0  0  0  0  0  0  0  0  0
  144.4420   73.6040  218.0060 H   0  0  0  0  0  0  0  0  0  0  0  0
  144.8797   71.8492  217.9401 H   0  0  0  0  0  0  0  0  0  0  0  0
  142.6826   72.1507  218.9747 H   0  0  0  0  0  0  0  0  0  0  0  0
  143.8548   71.5233  220.1649 H   0  0  0  0  0  0  0  0  0  0  0  0
  138.2639   71.1691  222.5144 H   0  0  0  0  0  0  0  0  0  0  0  0
  139.7226   70.2631  221.8219 H   0  0  0  0  0  0  0  0  0  0  0  0
  137.8098   69.4517  223.7146 H   0  0  0  0  0  0  0  0  0  0  0  0
  139.2510   68.5950  222.9278 H   0  0  0  0  0  0  0  0  0  0  0  0
  138.6742   67.3769  225.1374 H   0  0  0  0  0  0  0  0  0  0  0  0
  139.7717   67.0500  227.3435 H   0  0  0  0  0  0  0  0  0  0  0  0
  141.2868   68.7900  228.2946 H   0  0  0  0  0  0  0  0  0  0  0  0
  141.6650   70.8542  226.9656 H   0  0  0  0  0  0  0  0  0  0  0  0
  140.2686   72.3457  225.2201 H   0  0  0  0  0  0  0  0  0  0  0  0
  141.7699   71.5580  224.5021 H   0  0  0  0  0  0  0  0  0  0  0  0
  140.2134   81.7563  221.7017 H   0  0  0  0  0  0  0  0  0  0  0  0
  141.8185   82.6740  223.3736 H   0  0  0  0  0  0  0  0  0  0  0  0
  1  2  2  0
  2  3  1  0
  3  4  2  0
  4  5  1  0
  5  6  1  0
  6  7  1  0
  7  8  1  0
  8  9  1  0
  9 10  2  0
 10 11  1  0
 11 12  1  0
 12 13  1  0
 13 14  1  0
 14 15  1  0
 15 16  1  0
 16 17  1  0
 11 18  2  0
 18 19  1  0
 19 20  1  0
 20 21  1  0
 21 22  1  0
 22 23  1  0
 23 24  2  0
 24 25  1  0
 25 26  2  0
 26 27  1  0
 27 28  2  0
 28 29  1  0
 19 30  2  0
  4 31  1  0
 31 32  2  0
 32  1  1  0
 30  9  1  0
 17 12  1  0
 29 20  1  0
 28 23  1  0
  1 33  1  0
  2 34  1  0
  3 35  1  0
  5 36  1  0
  5 37  1  0
  6 38  1  0
  6 39  1  0
  7 40  1  0
  7 41  1  0
  8 42  1  0
 10 43  1  0
 13 44  1  0
 13 45  1  0
 14 46  1  0
 14 47  1  0
 15 48  1  0
 16 49  1  0
 16 50  1  0
 17 51  1  0
 17 52  1  0
 21 53  1  0
 21 54  1  0
 22 55  1  0
 22 56  1  0
 24 57  1  0
 25 58  1  0
 26 59  1  0
 27 60  1  0
 29 61  1  0
 29 62  1  0
 31 63  1  0
 32 64  1  0
M  END
>  <smiles>  (23) 
c1ccc(CCCNc2cc(N3CCNCC3)nc(N3CCc4ccccc4C3)n2)cc1

>  <score_type>  (23) 
oracle

>  <origin>  (23) 
autodockgpu

>  <m_score__min__energy>  (23) 
-10.25

>  <m_primary>  (23) 
energy

>  <rmsd>  (23) 
9.443208241785593

>  <m_score__min__rmsd>  (23) 
9.443208241785593

>  <meeko>  (23) 
{"free_energy": -9.45, "intermolecular_energy": -11.54, "internal_energy": -1.08, "cluster_size": 50, "cluster_id": 1, "rank_in_cluster": 46}

>  <energy>  (23) 
-9.84

>  <cluster_rmsd>  (23) 
0.69

>  <cluster>  (23) 
1

$$$$

     RDKit          3D

 64 68  0  0  0  0  0  0  0  0999 V2000
  142.1700   81.5860  223.3470 C   0  0  0  0  0  0  0  0  0  0  0  0
  141.3970   81.3090  222.2490 C   0  0  0  0  0  0  0  0  0  0  0  0
  141.0020   80.0380  221.9200 C   0  0  0  0  0  0  0  0  0  0  0  0
  141.4190   79.0040  222.7520 C   0  0  0  0  0  0  0  0  0  0  0  0
  141.0060   77.6250  222.4190 C   0  0  0  0  0  0  0  0  0  0  0  0
  139.8590   77.5670  221.4320 C   0  0  0  0  0  0  0  0  0  0  0  0
  138.7450   76.6610  221.9050 C   0  0  0  0  0  0  0  0  0  0  0  0
  138.8330   75.4020  221.2460 N   0  0  0  0  0  0  0  0  0  0  0  0
  139.8240   74.4140  221.4750 C   0  0  0  0  0  0  0  0  0  0  0  0
  141.0500   74.3930  220.8480 C   0  0  0  0  0  0  0  0  0  0  0  0
  141.9910   73.4120  221.0820 C   0  0  0  0  0  0  0  0  0  0  0  0
  143.2610   73.3750  220.4450 N   0  0  0  0  0  0  0  0  0  0  0  0
  144.2330   74.4210  220.4900 C   0  0  0  0  0  0  0  0  0  0  0  0
  145.6460   73.8510  220.5340 C   0  0  0  0  0  0  0  0  0  0  0  0
  145.9090   72.9520  219.4520 N   0  0  0  0  0  0  0  0  0  0  0  0
  144.7270   72.5390  218.7330 C   0  0  0  0  0  0  0  0  0  0  0  0
  143.6140   72.1730  219.6770 C   0  0  0  0  0  0  0  0  0  0  0  0
  141.6460   72.4560  221.9720 N   0  0  0  0  0  0  0  0  0  0  0  0
  140.4710   72.4300  222.6080 C   0  0  0  0  0  0  0  0  0  0  0  0
  140.1980   71.3770  223.5320 N   0  0  0  0  0  0  0  0  0  0  0  0
  139.4670   70.2400  223.0310 C   0  0  0  0  0  0  0  0  0  0  0  0
  139.2700   69.1150  223.9680 C   0  0  0  0  0  0  0  0  0  0  0  0
  139.8770   69.2510  225.2960 C   0  0  0  0  0  0  0  0  0  0  0  0
  139.7640   68.1500  226.1520 C   0  0  0  0  0  0  0  0  0  0  0  0
  140.3220   68.2140  227.4310 C   0  0  0  0  0  0  0  0  0  0  0  0
  140.9870   69.3410  227.8810 C   0  0  0  0  0  0  0  0  0  0  0  0
  141.0730   70.3990  227.0020 C   0  0  0  0  0  0  0  0  0  0  0  0
  140.5330   70.3620  225.7380 C   0  0  0  0  0  0  0  0  0  0  0  0
  140.6760   71.5370  224.8810 C   0  0  0  0  0  0  0  0  0  0  0  0
  139.5930   73.3980  222.3500 N   0  0  0  0  0  0  0  0  0  0  0  0
  142.1950   79.2760  223.8550 C   0  0  0  0  0  0  0  0  0  0  0  0
  142.5970   80.5590  224.1920 C   0  0  0  0  0  0  0  0  0  0  0  0
  142.4563   82.6256  223.5643 H   0  0  0  0  0  0  0  0  0  0  0  0
  141.0802   82.1422  221.6044 H   0  0  0  0  0  0  0  0  0  0  0  0
  140.3802   79.8436  221.0336 H   0  0  0  0  0  0  0  0  0  0  0  0
  141.8679   77.0973  221.9846 H   0  0  0  0  0  0  0  0  0  0  0  0
  140.6593   77.1539  223.3506 H   0  0  0  0  0  0  0  0  0  0  0  0
  139.4569   78.5818  221.2959 H   0  0  0  0  0  0  0  0  0  0  0  0
  140.2469   77.1604  220.4864 H   0  0  0  0  0  0  0  0  0  0  0  0
  138.8327   76.5113  222.9912 H   0  0  0  0  0  0  0  0  0  0  0  0
  137.7757   77.1257  221.6713 H   0  0  0  0  0  0  0  0  0  0  0  0
  138.1010   75.1570  220.5110 H   0  0  0  0  0  0  0  0  0  0  0  0
  141.2888   75.1919  220.1306 H   0  0  0  0  0  0  0  0  0  0  0  0
  144.1265   75.0501  219.5939 H   0  0  0  0  0  0  0  0  0  0  0  0
  144.0662   75.0159  221.4001 H   0  0  0  0  0  0  0  0  0  0  0  0
  146.3636   74.6831  220.4834 H   0  0  0  0  0  0  0  0  0  0  0  0
  145.7485   73.2844  221.4713 H   0  0  0  0  0  0  0  0  0  0  0  0
  146.6300   73.2650  218.7820 H   0  0  0  0  0  0  0  0  0  0  0  0
  144.3929   73.3650  218.0879 H   0  0  0  0  0  0  0  0  0  0  0  0
  144.9780   71.6530  218.1314 H   0  0  0  0  0  0  0  0  0  0  0  0
  142.7404   71.8233  219.1074 H   0  0  0  0  0  0  0  0  0  0  0  0
  143.9339   71.3662  220.3528 H   0  0  0  0  0  0  0  0  0  0  0  0
  138.4728   70.5932  222.7199 H   0  0  0  0  0  0  0  0  0  0  0  0
  140.0848   69.8341  222.2164 H   0  0  0  0  0  0  0  0  0  0  0  0
  138.1869   68.9836  224.1083 H   0  0  0  0  0  0  0  0  0  0  0  0
  139.7799   68.2584  223.5030 H   0  0  0  0  0  0  0  0  0  0  0  0
  139.2400   67.2414  225.8205 H   0  0  0  0  0  0  0  0  0  0  0  0
  140.2303   67.3447  228.0988 H   0  0  0  0  0  0  0  0  0  0  0  0
  141.4247   69.3900  228.8890 H   0  0  0  0  0  0  0  0  0  0  0  0
  141.5956   71.3114  227.3252 H   0  0  0  0  0  0  0  0  0  0  0  0
  140.1180   72.3646  225.3433 H   0  0  0  0  0  0  0  0  0  0  0  0
  141.7568   71.7247  224.8003 H   0  0  0  0  0  0  0  0  0  0  0  0
  142.5098   78.4398  224.4967 H   0  0  0  0  0  0  0  0  0  0  0  0
  143.2189   80.7577  225.0773 H   0  0  0  0  0  0  0  0  0  0  0  0
  1  2  2  0
  2  3  1  0
  3  4  2  0
  4  5  1  0
  5  6  1  0
  6  7  1  0
  7  8  1  0
  8  9  1  0
  9 10  2  0
 10 11  1  0
 11 12  1  0
 12 13  1  0
 13 14  1  0
 14 15  1  0
 15 16  1  0
 16 17  1  0
 11 18  2  0
 18 19  1  0
 19 20  1  0
 20 21  1  0
 21 22  1  0
 22 23  1  0
 23 24  2  0
 24 25  1  0
 25 26  2  0
 26 27  1  0
 27 28  2  0
 28 29  1  0
 19 30  2  0
  4 31  1  0
 31 32  2  0
 32  1  1  0
 30  9  1  0
 17 12  1  0
 29 20  1  0
 28 23  1  0
  1 33  1  0
  2 34  1  0
  3 35  1  0
  5 36  1  0
  5 37  1  0
  6 38  1  0
  6 39  1  0
  7 40  1  0
  7 41  1  0
  8 42  1  0
 10 43  1  0
 13 44  1  0
 13 45  1  0
 14 46  1  0
 14 47  1  0
 15 48  1  0
 16 49  1  0
 16 50  1  0
 17 51  1  0
 17 52  1  0
 21 53  1  0
 21 54  1  0
 22 55  1  0
 22 56  1  0
 24 57  1  0
 25 58  1  0
 26 59  1  0
 27 60  1  0
 29 61  1  0
 29 62  1  0
 31 63  1  0
 32 64  1  0
M  END
>  <smiles>  (24) 
c1ccc(CCCNc2cc(N3CCNCC3)nc(N3CCc4ccccc4C3)n2)cc1

>  <score_type>  (24) 
oracle

>  <origin>  (24) 
autodockgpu

>  <m_score__min__energy>  (24) 
-10.25

>  <m_primary>  (24) 
energy

>  <rmsd>  (24) 
9.467375893071003

>  <m_score__min__rmsd>  (24) 
9.467375893071003

>  <meeko>  (24) 
{"free_energy": -9.95, "intermolecular_energy": -12.04, "internal_energy": -1.08, "cluster_size": 50, "cluster_id": 1, "rank_in_cluster": 18}

>  <energy>  (24) 
-9.83

>  <cluster_rmsd>  (24) 
1.22

>  <cluster>  (24) 
1

$$$$

     RDKit          3D

 64 68  0  0  0  0  0  0  0  0999 V2000
  141.0710   68.1290  228.2780 C   0  0  0  0  0  0  0  0  0  0  0  0
  140.6120   67.8500  227.0170 C   0  0  0  0  0  0  0  0  0  0  0  0
  140.3630   68.8250  226.0850 C   0  0  0  0  0  0  0  0  0  0  0  0
  140.5940   70.1440  226.4640 C   0  0  0  0  0  0  0  0  0  0  0  0
  140.3320   71.2130  225.4780 C   0  0  0  0  0  0  0  0  0  0  0  0
  139.9690   70.6840  224.1060 C   0  0  0  0  0  0  0  0  0  0  0  0
  138.8500   71.4760  223.4690 C   0  0  0  0  0  0  0  0  0  0  0  0
  139.1880   71.7960  222.1230 N   0  0  0  0  0  0  0  0  0  0  0  0
  140.0870   72.8150  221.7150 C   0  0  0  0  0  0  0  0  0  0  0  0
  141.2500   72.5800  221.0140 C   0  0  0  0  0  0  0  0  0  0  0  0
  142.1110   73.5900  220.6400 C   0  0  0  0  0  0  0  0  0  0  0  0
  143.3140   73.3670  219.9160 N   0  0  0  0  0  0  0  0  0  0  0  0
  143.3900   73.0660  218.5210 C   0  0  0  0  0  0  0  0  0  0  0  0
  144.6160   73.7140  217.8890 C   0  0  0  0  0  0  0  0  0  0  0  0
  145.8300   73.3590  218.5570 N   0  0  0  0  0  0  0  0  0  0  0  0
  145.6300   72.7260  219.8400 C   0  0  0  0  0  0  0  0  0  0  0  0
  144.5860   73.4480  220.6480 C   0  0  0  0  0  0  0  0  0  0  0  0
  141.7540   74.8420  221.0000 N   0  0  0  0  0  0  0  0  0  0  0  0
  140.6370   75.1240  221.6780 C   0  0  0  0  0  0  0  0  0  0  0  0
  140.3460   76.4800  222.0130 N   0  0  0  0  0  0  0  0  0  0  0  0
  138.9770   76.7940  222.3410 C   0  0  0  0  0  0  0  0  0  0  0  0
  138.7010   78.1780  222.7760 C   0  0  0  0  0  0  0  0  0  0  0  0
  139.8540   79.0790  222.8720 C   0  0  0  0  0  0  0  0  0  0  0  0
  139.6050   80.3640  223.3670 C   0  0  0  0  0  0  0  0  0  0  0  0
  140.6610   81.2710  223.4850 C   0  0  0  0  0  0  0  0  0  0  0  0
  141.9540   80.9360  223.1260 C   0  0  0  0  0  0  0  0  0  0  0  0
  142.1500   79.6590  222.6450 C   0  0  0  0  0  0  0  0  0  0  0  0
  141.1290   78.7470  222.5190 C   0  0  0  0  0  0  0  0  0  0  0  0
  141.4380   77.4180  221.9970 C   0  0  0  0  0  0  0  0  0  0  0  0
  139.8350   74.1160  222.0190 N   0  0  0  0  0  0  0  0  0  0  0  0
  141.0540   70.4290  227.7290 C   0  0  0  0  0  0  0  0  0  0  0  0
  141.3080   69.4470  228.6730 C   0  0  0  0  0  0  0  0  0  0  0  0
  141.2544   67.3068  228.9854 H   0  0  0  0  0  0  0  0  0  0  0  0
  140.4359   66.7999  226.7408 H   0  0  0  0  0  0  0  0  0  0  0  0
  139.9957   68.5746  225.0789 H   0  0  0  0  0  0  0  0  0  0  0  0
  139.4998   71.8313  225.8456 H   0  0  0  0  0  0  0  0  0  0  0  0
  141.2609   71.7922  225.3695 H   0  0  0  0  0  0  0  0  0  0  0  0
  140.8563   70.7396  223.4582 H   0  0  0  0  0  0  0  0  0  0  0  0
  139.6250   69.6458  224.2234 H   0  0  0  0  0  0  0  0  0  0  0  0
  137.9270   70.8777  223.4809 H   0  0  0  0  0  0  0  0  0  0  0  0
  138.6972   72.4067  224.0351 H   0  0  0  0  0  0  0  0  0  0  0  0
  138.7390   71.2360  221.3350 H   0  0  0  0  0  0  0  0  0  0  0  0
  141.5017   71.5444  220.7417 H   0  0  0  0  0  0  0  0  0  0  0  0
  143.4522   71.9755  218.3911 H   0  0  0  0  0  0  0  0  0  0  0  0
  142.4903   73.4620  218.0273 H   0  0  0  0  0  0  0  0  0  0  0  0
  144.6837   73.3915  216.8395 H   0  0  0  0  0  0  0  0  0  0  0  0
  144.4966   74.8045  217.9706 H   0  0  0  0  0  0  0  0  0  0  0  0
  146.4970   72.8030  217.9980 H   0  0  0  0  0  0  0  0  0  0  0  0
  145.3049   71.6873  219.6805 H   0  0  0  0  0  0  0  0  0  0  0  0
  146.5799   72.7553  220.3939 H   0  0  0  0  0  0  0  0  0  0  0  0
  144.4810   72.9719  221.6341 H   0  0  0  0  0  0  0  0  0  0  0  0
  144.8759   74.4984  220.7984 H   0  0  0  0  0  0  0  0  0  0  0  0
  138.3664   76.5972  221.4475 H   0  0  0  0  0  0  0  0  0  0  0  0
  138.7355   76.1638  223.2097 H   0  0  0  0  0  0  0  0  0  0  0  0
  137.9925   78.6181  222.0588 H   0  0  0  0  0  0  0  0  0  0  0  0
  138.3174   78.0879  223.8030 H   0  0  0  0  0  0  0  0  0  0  0  0
  138.5864   80.6575  223.6607 H   0  0  0  0  0  0  0  0  0  0  0  0
  140.4585   82.2797  223.8743 H   0  0  0  0  0  0  0  0  0  0  0  0
  142.7837   81.6521  223.2195 H   0  0  0  0  0  0  0  0  0  0  0  0
  143.1657   79.3572  222.3497 H   0  0  0  0  0  0  0  0  0  0  0  0
  141.7727   77.5317  220.9553 H   0  0  0  0  0  0  0  0  0  0  0  0
  142.2063   77.0008  222.6646 H   0  0  0  0  0  0  0  0  0  0  0  0
  141.2274   71.4803  228.0024 H   0  0  0  0  0  0  0  0  0  0  0  0
  141.6767   69.6927  229.6798 H   0  0  0  0  0  0  0  0  0  0  0  0
  1  2  2  0
  2  3  1  0
  3  4  2  0
  4  5  1  0
  5  6  1  0
  6  7  1  0
  7  8  1  0
  8  9  1  0
  9 10  2  0
 10 11  1  0
 11 12  1  0
 12 13  1  0
 13 14  1  0
 14 15  1  0
 15 16  1  0
 16 17  1  0
 11 18  2  0
 18 19  1  0
 19 20  1  0
 20 21  1  0
 21 22  1  0
 22 23  1  0
 23 24  2  0
 24 25  1  0
 25 26  2  0
 26 27  1  0
 27 28  2  0
 28 29  1  0
 19 30  2  0
  4 31  1  0
 31 32  2  0
 32  1  1  0
 30  9  1  0
 17 12  1  0
 29 20  1  0
 28 23  1  0
  1 33  1  0
  2 34  1  0
  3 35  1  0
  5 36  1  0
  5 37  1  0
  6 38  1  0
  6 39  1  0
  7 40  1  0
  7 41  1  0
  8 42  1  0
 10 43  1  0
 13 44  1  0
 13 45  1  0
 14 46  1  0
 14 47  1  0
 15 48  1  0
 16 49  1  0
 16 50  1  0
 17 51  1  0
 17 52  1  0
 21 53  1  0
 21 54  1  0
 22 55  1  0
 22 56  1  0
 24 57  1  0
 25 58  1  0
 26 59  1  0
 27 60  1  0
 29 61  1  0
 29 62  1  0
 31 63  1  0
 32 64  1  0
M  END
>  <smiles>  (25) 
c1ccc(CCCNc2cc(N3CCNCC3)nc(N3CCc4ccccc4C3)n2)cc1

>  <score_type>  (25) 
oracle

>  <origin>  (25) 
autodockgpu

>  <m_score__min__energy>  (25) 
-10.25

>  <m_primary>  (25) 
energy

>  <rmsd>  (25) 
2.9637307423405055

>  <m_score__min__rmsd>  (25) 
2.9637307423405055

>  <meeko>  (25) 
{"free_energy": -9.37, "intermolecular_energy": -11.46, "internal_energy": -0.98, "cluster_size": 50, "cluster_id": 1, "rank_in_cluster": 48}

>  <energy>  (25) 
-9.82

>  <cluster_rmsd>  (25) 
1.32

>  <cluster>  (25) 
1

$$$$

     RDKit          3D

 64 68  0  0  0  0  0  0  0  0999 V2000
  142.0770   81.2830  223.5540 C   0  0  0  0  0  0  0  0  0  0  0  0
  142.9370   80.3590  223.0200 C   0  0  0  0  0  0  0  0  0  0  0  0
  142.5590   79.0720  222.7340 C   0  0  0  0  0  0  0  0  0  0  0  0
  141.2430   78.7160  223.0100 C   0  0  0  0  0  0  0  0  0  0  0  0
  140.8120   77.3340  222.7120 C   0  0  0  0  0  0  0  0  0  0  0  0
  139.3830   77.2480  222.2150 C   0  0  0  0  0  0  0  0  0  0  0  0
  139.2980   76.6440  220.8320 C   0  0  0  0  0  0  0  0  0  0  0  0
  139.0360   75.2480  220.9290 N   0  0  0  0  0  0  0  0  0  0  0  0
  139.9680   74.2570  221.3310 C   0  0  0  0  0  0  0  0  0  0  0  0
  141.2420   74.1450  220.8200 C   0  0  0  0  0  0  0  0  0  0  0  0
  142.1230   73.1630  221.2230 C   0  0  0  0  0  0  0  0  0  0  0  0
  143.4410   73.0320  220.7080 N   0  0  0  0  0  0  0  0  0  0  0  0
  144.0620   71.7980  220.3430 C   0  0  0  0  0  0  0  0  0  0  0  0
  144.9600   71.9780  219.1240 C   0  0  0  0  0  0  0  0  0  0  0  0
  145.9350   73.0080  219.3100 N   0  0  0  0  0  0  0  0  0  0  0  0
  145.6870   73.8520  220.4550 C   0  0  0  0  0  0  0  0  0  0  0  0
  144.2390   74.2540  220.5330 C   0  0  0  0  0  0  0  0  0  0  0  0
  141.6670   72.3010  222.1580 N   0  0  0  0  0  0  0  0  0  0  0  0
  140.4410   72.3660  222.6860 C   0  0  0  0  0  0  0  0  0  0  0  0
  140.0520   71.4080  223.6700 N   0  0  0  0  0  0  0  0  0  0  0  0
  139.0810   70.4190  223.2730 C   0  0  0  0  0  0  0  0  0  0  0  0
  138.7530   69.3770  224.2670 C   0  0  0  0  0  0  0  0  0  0  0  0
  139.4810   69.4290  225.5380 C   0  0  0  0  0  0  0  0  0  0  0  0
  139.2330   68.3920  226.4450 C   0  0  0  0  0  0  0  0  0  0  0  0
  139.8960   68.3800  227.6740 C   0  0  0  0  0  0  0  0  0  0  0  0
  140.7960   69.3700  228.0260 C   0  0  0  0  0  0  0  0  0  0  0  0
  141.0080   70.3700  227.1010 C   0  0  0  0  0  0  0  0  0  0  0  0
  140.3690   70.4050  225.8840 C   0  0  0  0  0  0  0  0  0  0  0  0
  140.6600   71.5080  224.9720 C   0  0  0  0  0  0  0  0  0  0  0  0
  139.6250   73.3310  222.2670 N   0  0  0  0  0  0  0  0  0  0  0  0
  140.3760   79.6400  223.5470 C   0  0  0  0  0  0  0  0  0  0  0  0
  140.7520   80.9420  223.8360 C   0  0  0  0  0  0  0  0  0  0  0  0
  142.4334   82.3026  223.7625 H   0  0  0  0  0  0  0  0  0  0  0  0
  143.9737   80.6623  222.8121 H   0  0  0  0  0  0  0  0  0  0  0  0
  143.2684   78.3500  222.3034 H   0  0  0  0  0  0  0  0  0  0  0  0
  141.4763   76.9196  221.9394 H   0  0  0  0  0  0  0  0  0  0  0  0
  140.8658   76.7651  223.6519 H   0  0  0  0  0  0  0  0  0  0  0  0
  138.8023   76.6245  222.9107 H   0  0  0  0  0  0  0  0  0  0  0  0
  138.9798   78.2702  222.1639 H   0  0  0  0  0  0  0  0  0  0  0  0
  138.4859   77.1296  220.2711 H   0  0  0  0  0  0  0  0  0  0  0  0
  140.2538   76.7980  220.3098 H   0  0  0  0  0  0  0  0  0  0  0  0
  138.0620   74.8910  220.6820 H   0  0  0  0  0  0  0  0  0  0  0  0
  141.5706   74.8684  220.0592 H   0  0  0  0  0  0  0  0  0  0  0  0
  144.6687   71.4372  221.1867 H   0  0  0  0  0  0  0  0  0  0  0  0
  143.2757   71.0699  220.0947 H   0  0  0  0  0  0  0  0  0  0  0  0
  145.4816   71.0298  218.9268 H   0  0  0  0  0  0  0  0  0  0  0  0
  144.3209   72.2711  218.2780 H   0  0  0  0  0  0  0  0  0  0  0  0
  146.9180   72.6900  219.3220 H   0  0  0  0  0  0  0  0  0  0  0  0
  145.9567   73.3037  221.3697 H   0  0  0  0  0  0  0  0  0  0  0  0
  146.2957   74.7626  220.3541 H   0  0  0  0  0  0  0  0  0  0  0  0
  144.0835   74.9279  221.3884 H   0  0  0  0  0  0  0  0  0  0  0  0
  143.9372   74.7813  219.6160 H   0  0  0  0  0  0  0  0  0  0  0  0
  138.1490   70.9477  223.0240 H   0  0  0  0  0  0  0  0  0  0  0  0
  139.5423   69.8816  222.4314 H   0  0  0  0  0  0  0  0  0  0  0  0
  137.6797   69.4584  224.4938 H   0  0  0  0  0  0  0  0  0  0  0  0
  139.0525   68.4270  223.8003 H   0  0  0  0  0  0  0  0  0  0  0  0
  138.5212   67.5926  226.1916 H   0  0  0  0  0  0  0  0  0  0  0  0
  139.6973   67.5613  228.3813 H   0  0  0  0  0  0  0  0  0  0  0  0
  141.3163   69.3598  228.9951 H   0  0  0  0  0  0  0  0  0  0  0  0
  141.7180   71.1734  227.3468 H   0  0  0  0  0  0  0  0  0  0  0  0
  140.3075   72.4385  225.4409 H   0  0  0  0  0  0  0  0  0  0  0  0
  141.7466   71.4835  224.8026 H   0  0  0  0  0  0  0  0  0  0  0  0
  139.3408   79.3320  223.7556 H   0  0  0  0  0  0  0  0  0  0  0  0
  140.0452   81.6679  224.2644 H   0  0  0  0  0  0  0  0  0  0  0  0
  1  2  2  0
  2  3  1  0
  3  4  2  0
  4  5  1  0
  5  6  1  0
  6  7  1  0
  7  8  1  0
  8  9  1  0
  9 10  2  0
 10 11  1  0
 11 12  1  0
 12 13  1  0
 13 14  1  0
 14 15  1  0
 15 16  1  0
 16 17  1  0
 11 18  2  0
 18 19  1  0
 19 20  1  0
 20 21  1  0
 21 22  1  0
 22 23  1  0
 23 24  2  0
 24 25  1  0
 25 26  2  0
 26 27  1  0
 27 28  2  0
 28 29  1  0
 19 30  2  0
  4 31  1  0
 31 32  2  0
 32  1  1  0
 30  9  1  0
 17 12  1  0
 29 20  1  0
 28 23  1  0
  1 33  1  0
  2 34  1  0
  3 35  1  0
  5 36  1  0
  5 37  1  0
  6 38  1  0
  6 39  1  0
  7 40  1  0
  7 41  1  0
  8 42  1  0
 10 43  1  0
 13 44  1  0
 13 45  1  0
 14 46  1  0
 14 47  1  0
 15 48  1  0
 16 49  1  0
 16 50  1  0
 17 51  1  0
 17 52  1  0
 21 53  1  0
 21 54  1  0
 22 55  1  0
 22 56  1  0
 24 57  1  0
 25 58  1  0
 26 59  1  0
 27 60  1  0
 29 61  1  0
 29 62  1  0
 31 63  1  0
 32 64  1  0
M  END
>  <smiles>  (26) 
c1ccc(CCCNc2cc(N3CCNCC3)nc(N3CCc4ccccc4C3)n2)cc1

>  <score_type>  (26) 
oracle

>  <origin>  (26) 
autodockgpu

>  <m_score__min__energy>  (26) 
-10.25

>  <m_primary>  (26) 
energy

>  <rmsd>  (26) 
9.09178252068851

>  <m_score__min__rmsd>  (26) 
9.09178252068851

>  <meeko>  (26) 
{"free_energy": -9.63, "intermolecular_energy": -11.72, "internal_energy": -1.12, "cluster_size": 50, "cluster_id": 1, "rank_in_cluster": 42}

>  <energy>  (26) 
-9.82

>  <cluster_rmsd>  (26) 
1.74

>  <cluster>  (26) 
1

$$$$

     RDKit          3D

 64 68  0  0  0  0  0  0  0  0999 V2000
  141.4590   69.6180  228.6960 C   0  0  0  0  0  0  0  0  0  0  0  0
  141.0370   68.5300  227.9770 C   0  0  0  0  0  0  0  0  0  0  0  0
  140.2810   68.6400  226.8380 C   0  0  0  0  0  0  0  0  0  0  0  0
  139.9410   69.9220  226.4190 C   0  0  0  0  0  0  0  0  0  0  0  0
  139.1260   70.0670  225.1950 C   0  0  0  0  0  0  0  0  0  0  0  0
  139.6510   71.1290  224.2500 C   0  0  0  0  0  0  0  0  0  0  0  0
  138.8180   71.2340  222.9930 C   0  0  0  0  0  0  0  0  0  0  0  0
  139.6660   71.4350  221.8670 N   0  0  0  0  0  0  0  0  0  0  0  0
  140.4360   72.5980  221.6060 C   0  0  0  0  0  0  0  0  0  0  0  0
  141.6830   72.5800  221.0220 C   0  0  0  0  0  0  0  0  0  0  0  0
  142.4150   73.7260  220.7910 C   0  0  0  0  0  0  0  0  0  0  0  0
  143.7020   73.7270  220.1880 N   0  0  0  0  0  0  0  0  0  0  0  0
  144.8140   74.5100  220.6270 C   0  0  0  0  0  0  0  0  0  0  0  0
  146.1220   73.7460  220.4510 C   0  0  0  0  0  0  0  0  0  0  0  0
  146.3140   73.2890  219.1090 N   0  0  0  0  0  0  0  0  0  0  0  0
  145.1300   73.3720  218.2870 C   0  0  0  0  0  0  0  0  0  0  0  0
  143.9190   72.8620  219.0200 C   0  0  0  0  0  0  0  0  0  0  0  0
  141.8400   74.8870  221.1740 N   0  0  0  0  0  0  0  0  0  0  0  0
  140.6330   74.9600  221.7440 C   0  0  0  0  0  0  0  0  0  0  0  0
  140.1100   76.2350  222.1140 N   0  0  0  0  0  0  0  0  0  0  0  0
  138.6850   76.3250  222.3130 C   0  0  0  0  0  0  0  0  0  0  0  0
  138.1630   77.6230  222.7850 C   0  0  0  0  0  0  0  0  0  0  0  0
  139.1520   78.6730  223.0460 C   0  0  0  0  0  0  0  0  0  0  0  0
  138.6660   79.8740  223.5750 C   0  0  0  0  0  0  0  0  0  0  0  0
  139.5560   80.9150  223.8490 C   0  0  0  0  0  0  0  0  0  0  0  0
  140.9140   80.7950  223.6090 C   0  0  0  0  0  0  0  0  0  0  0  0
  141.3460   79.5940  223.0890 C   0  0  0  0  0  0  0  0  0  0  0  0
  140.4900   78.5530  222.8110 C   0  0  0  0  0  0  0  0  0  0  0  0
  141.0450   77.3200  222.2580 C   0  0  0  0  0  0  0  0  0  0  0  0
  139.9630   73.8270  221.9470 N   0  0  0  0  0  0  0  0  0  0  0  0
  140.3610   71.0180  227.1370 C   0  0  0  0  0  0  0  0  0  0  0  0
  141.1260   70.9120  228.2880 C   0  0  0  0  0  0  0  0  0  0  0  0
  142.0651   69.4710  229.6021 H   0  0  0  0  0  0  0  0  0  0  0  0
  141.3166   67.5259  228.3285 H   0  0  0  0  0  0  0  0  0  0  0  0
  139.9566   67.7503  226.2784 H   0  0  0  0  0  0  0  0  0  0  0  0
  139.1154   69.1027  224.6659 H   0  0  0  0  0  0  0  0  0  0  0  0
  138.1184   70.3778  225.5084 H   0  0  0  0  0  0  0  0  0  0  0  0
  139.6384   72.1004  224.7660 H   0  0  0  0  0  0  0  0  0  0  0  0
  140.6727   70.8460  223.9565 H   0  0  0  0  0  0  0  0  0  0  0  0
  138.2442   70.3055  222.8567 H   0  0  0  0  0  0  0  0  0  0  0  0
  138.1285   72.0862  223.0847 H   0  0  0  0  0  0  0  0  0  0  0  0
  139.7450   70.6600  221.1400 H   0  0  0  0  0  0  0  0  0  0  0  0
  142.1132   71.6114  220.7275 H   0  0  0  0  0  0  0  0  0  0  0  0
  144.8566   75.4374  220.0369 H   0  0  0  0  0  0  0  0  0  0  0  0
  144.6822   74.7392  221.6948 H   0  0  0  0  0  0  0  0  0  0  0  0
  146.9569   74.4095  220.7204 H   0  0  0  0  0  0  0  0  0  0  0  0
  146.0819   72.8607  221.1027 H   0  0  0  0  0  0  0  0  0  0  0  0
  147.1130   73.7110  218.6080 H   0  0  0  0  0  0  0  0  0  0  0  0
  144.9624   74.4219  218.0050 H   0  0  0  0  0  0  0  0  0  0  0  0
  145.2831   72.7489  217.3935 H   0  0  0  0  0  0  0  0  0  0  0  0
  143.0398   72.8975  218.3599 H   0  0  0  0  0  0  0  0  0  0  0  0
  144.0732   71.8202  219.3375 H   0  0  0  0  0  0  0  0  0  0  0  0
  138.1992   76.0996  221.3522 H   0  0  0  0  0  0  0  0  0  0  0  0
  138.4597   75.6118  223.1196 H   0  0  0  0  0  0  0  0  0  0  0  0
  137.4687   78.0013  222.0203 H   0  0  0  0  0  0  0  0  0  0  0  0
  137.7003   77.4119  223.7603 H   0  0  0  0  0  0  0  0  0  0  0  0
  137.5911   79.9973  223.7735 H   0  0  0  0  0  0  0  0  0  0  0  0
  139.1674   81.8555  224.2667 H   0  0  0  0  0  0  0  0  0  0  0  0
  141.6132   81.6169  223.8226 H   0  0  0  0  0  0  0  0  0  0  0  0
  142.4194   79.4621  222.8879 H   0  0  0  0  0  0  0  0  0  0  0  0
  141.4563   77.5484  221.2637 H   0  0  0  0  0  0  0  0  0  0  0  0
  141.8011   76.9764  222.9793 H   0  0  0  0  0  0  0  0  0  0  0  0
  140.0778   72.0202  226.7828 H   0  0  0  0  0  0  0  0  0  0  0  0
  141.4534   71.7991  228.8500 H   0  0  0  0  0  0  0  0  0  0  0  0
  1  2  2  0
  2  3  1  0
  3  4  2  0
  4  5  1  0
  5  6  1  0
  6  7  1  0
  7  8  1  0
  8  9  1  0
  9 10  2  0
 10 11  1  0
 11 12  1  0
 12 13  1  0
 13 14  1  0
 14 15  1  0
 15 16  1  0
 16 17  1  0
 11 18  2  0
 18 19  1  0
 19 20  1  0
 20 21  1  0
 21 22  1  0
 22 23  1  0
 23 24  2  0
 24 25  1  0
 25 26  2  0
 26 27  1  0
 27 28  2  0
 28 29  1  0
 19 30  2  0
  4 31  1  0
 31 32  2  0
 32  1  1  0
 30  9  1  0
 17 12  1  0
 29 20  1  0
 28 23  1  0
  1 33  1  0
  2 34  1  0
  3 35  1  0
  5 36  1  0
  5 37  1  0
  6 38  1  0
  6 39  1  0
  7 40  1  0
  7 41  1  0
  8 42  1  0
 10 43  1  0
 13 44  1  0
 13 45  1  0
 14 46  1  0
 14 47  1  0
 15 48  1  0
 16 49  1  0
 16 50  1  0
 17 51  1  0
 17 52  1  0
 21 53  1  0
 21 54  1  0
 22 55  1  0
 22 56  1  0
 24 57  1  0
 25 58  1  0
 26 59  1  0
 27 60  1  0
 29 61  1  0
 29 62  1  0
 31 63  1  0
 32 64  1  0
M  END
>  <smiles>  (27) 
c1ccc(CCCNc2cc(N3CCNCC3)nc(N3CCc4ccccc4C3)n2)cc1

>  <score_type>  (27) 
oracle

>  <origin>  (27) 
autodockgpu

>  <m_score__min__energy>  (27) 
-10.25

>  <m_primary>  (27) 
energy

>  <rmsd>  (27) 
2.8274153664767594

>  <m_score__min__rmsd>  (27) 
2.8274153664767594

>  <meeko>  (27) 
{"free_energy": -9.99, "intermolecular_energy": -12.08, "internal_energy": -0.97, "cluster_size": 50, "cluster_id": 1, "rank_in_cluster": 14}

>  <energy>  (27) 
-9.81

>  <cluster_rmsd>  (27) 
1.44

>  <cluster>  (27) 
1

$$$$

     RDKit          3D

 64 68  0  0  0  0  0  0  0  0999 V2000
  141.2800   71.9150  227.9420 C   0  0  0  0  0  0  0  0  0  0  0  0
  140.4090   70.9270  228.3230 C   0  0  0  0  0  0  0  0  0  0  0  0
  139.7320   70.1460  227.4210 C   0  0  0  0  0  0  0  0  0  0  0  0
  139.9570   70.3900  226.0700 C   0  0  0  0  0  0  0  0  0  0  0  0
  139.2390   69.5610  225.0790 C   0  0  0  0  0  0  0  0  0  0  0  0
  139.6800   69.8200  223.6530 C   0  0  0  0  0  0  0  0  0  0  0  0
  139.0100   71.0400  223.0630 C   0  0  0  0  0  0  0  0  0  0  0  0
  139.6190   71.3730  221.8200 N   0  0  0  0  0  0  0  0  0  0  0  0
  140.4020   72.5290  221.5640 C   0  0  0  0  0  0  0  0  0  0  0  0
  141.6500   72.5000  220.9830 C   0  0  0  0  0  0  0  0  0  0  0  0
  142.3940   73.6390  220.7570 C   0  0  0  0  0  0  0  0  0  0  0  0
  143.6830   73.6290  220.1580 N   0  0  0  0  0  0  0  0  0  0  0  0
  144.7600   74.5000  220.5130 C   0  0  0  0  0  0  0  0  0  0  0  0
  146.0980   73.7760  220.4210 C   0  0  0  0  0  0  0  0  0  0  0  0
  146.3160   73.1870  219.1350 N   0  0  0  0  0  0  0  0  0  0  0  0
  145.1340   73.1330  218.3070 C   0  0  0  0  0  0  0  0  0  0  0  0
  143.9410   72.6540  219.0900 C   0  0  0  0  0  0  0  0  0  0  0  0
  141.8280   74.8060  221.1390 N   0  0  0  0  0  0  0  0  0  0  0  0
  140.6200   74.8890  221.7050 C   0  0  0  0  0  0  0  0  0  0  0  0
  140.1070   76.1680  222.0750 N   0  0  0  0  0  0  0  0  0  0  0  0
  138.6810   76.2750  222.2540 C   0  0  0  0  0  0  0  0  0  0  0  0
  138.1680   77.5770  222.7260 C   0  0  0  0  0  0  0  0  0  0  0  0
  139.1670   78.6130  223.0070 C   0  0  0  0  0  0  0  0  0  0  0  0
  138.6880   79.8170  223.5360 C   0  0  0  0  0  0  0  0  0  0  0  0
  139.5870   80.8460  223.8280 C   0  0  0  0  0  0  0  0  0  0  0  0
  140.9460   80.7100  223.6070 C   0  0  0  0  0  0  0  0  0  0  0  0
  141.3710   79.5060  223.0860 C   0  0  0  0  0  0  0  0  0  0  0  0
  140.5060   78.4780  222.7900 C   0  0  0  0  0  0  0  0  0  0  0  0
  141.0540   77.2410  222.2380 C   0  0  0  0  0  0  0  0  0  0  0  0
  139.9390   73.7620  221.9050 N   0  0  0  0  0  0  0  0  0  0  0  0
  140.8300   71.3800  225.6830 C   0  0  0  0  0  0  0  0  0  0  0  0
  141.5170   72.1710  226.5900 C   0  0  0  0  0  0  0  0  0  0  0  0
  141.7967   72.5114  228.7084 H   0  0  0  0  0  0  0  0  0  0  0  0
  140.2463   70.7533  229.3969 H   0  0  0  0  0  0  0  0  0  0  0  0
  139.0392   69.3586  227.7526 H   0  0  0  0  0  0  0  0  0  0  0  0
  139.4188   68.5014  225.3136 H   0  0  0  0  0  0  0  0  0  0  0  0
  138.1728   69.8234  225.1443 H   0  0  0  0  0  0  0  0  0  0  0  0
  140.7693   69.9729  223.6409 H   0  0  0  0  0  0  0  0  0  0  0  0
  139.3923   68.9489  223.0461 H   0  0  0  0  0  0  0  0  0  0  0  0
  137.9429   70.8278  222.9012 H   0  0  0  0  0  0  0  0  0  0  0  0
  139.1194   71.8854  223.7582 H   0  0  0  0  0  0  0  0  0  0  0  0
  139.4910   70.7130  220.9930 H   0  0  0  0  0  0  0  0  0  0  0  0
  142.0711   71.5279  220.6868 H   0  0  0  0  0  0  0  0  0  0  0  0
  144.7682   75.3604  219.8277 H   0  0  0  0  0  0  0  0  0  0  0  0
  144.6129   74.8362  221.5500 H   0  0  0  0  0  0  0  0  0  0  0  0
  146.9039   74.4979  220.6194 H   0  0  0  0  0  0  0  0  0  0  0  0
  146.0900   72.9641  221.1631 H   0  0  0  0  0  0  0  0  0  0  0  0
  147.1000   73.5860  218.5930 H   0  0  0  0  0  0  0  0  0  0  0  0
  144.9249   74.1391  217.9145 H   0  0  0  0  0  0  0  0  0  0  0  0
  145.3173   72.4256  217.4848 H   0  0  0  0  0  0  0  0  0  0  0  0
  143.0644   72.5821  218.4294 H   0  0  0  0  0  0  0  0  0  0  0  0
  144.1363   71.6593  219.5172 H   0  0  0  0  0  0  0  0  0  0  0  0
  138.2064   76.0611  221.2850 H   0  0  0  0  0  0  0  0  0  0  0  0
  138.4354   75.5604  223.0533 H   0  0  0  0  0  0  0  0  0  0  0  0
  137.4895   77.9683  221.9537 H   0  0  0  0  0  0  0  0  0  0  0  0
  137.6882   77.3665  223.6932 H   0  0  0  0  0  0  0  0  0  0  0  0
  137.6120   79.9521  223.7204 H   0  0  0  0  0  0  0  0  0  0  0  0
  139.2041   81.7893  224.2447 H   0  0  0  0  0  0  0  0  0  0  0  0
  141.6523   81.5218  223.8355 H   0  0  0  0  0  0  0  0  0  0  0  0
  142.4454   79.3617  222.8995 H   0  0  0  0  0  0  0  0  0  0  0  0
  141.4821   77.4695  221.2508 H   0  0  0  0  0  0  0  0  0  0  0  0
  141.7958   76.8843  222.9677 H   0  0  0  0  0  0  0  0  0  0  0  0
  140.9895   71.5510  224.6082 H   0  0  0  0  0  0  0  0  0  0  0  0
  142.2118   72.9584  226.2624 H   0  0  0  0  0  0  0  0  0  0  0  0
  1  2  2  0
  2  3  1  0
  3  4  2  0
  4  5  1  0
  5  6  1  0
  6  7  1  0
  7  8  1  0
  8  9  1  0
  9 10  2  0
 10 11  1  0
 11 12  1  0
 12 13  1  0
 13 14  1  0
 14 15  1  0
 15 16  1  0
 16 17  1  0
 11 18  2  0
 18 19  1  0
 19 20  1  0
 20 21  1  0
 21 22  1  0
 22 23  1  0
 23 24  2  0
 24 25  1  0
 25 26  2  0
 26 27  1  0
 27 28  2  0
 28 29  1  0
 19 30  2  0
  4 31  1  0
 31 32  2  0
 32  1  1  0
 30  9  1  0
 17 12  1  0
 29 20  1  0
 28 23  1  0
  1 33  1  0
  2 34  1  0
  3 35  1  0
  5 36  1  0
  5 37  1  0
  6 38  1  0
  6 39  1  0
  7 40  1  0
  7 41  1  0
  8 42  1  0
 10 43  1  0
 13 44  1  0
 13 45  1  0
 14 46  1  0
 14 47  1  0
 15 48  1  0
 16 49  1  0
 16 50  1  0
 17 51  1  0
 17 52  1  0
 21 53  1  0
 21 54  1  0
 22 55  1  0
 22 56  1  0
 24 57  1  0
 25 58  1  0
 26 59  1  0
 27 60  1  0
 29 61  1  0
 29 62  1  0
 31 63  1  0
 32 64  1  0
M  END
>  <smiles>  (28) 
c1ccc(CCCNc2cc(N3CCNCC3)nc(N3CCc4ccccc4C3)n2)cc1

>  <score_type>  (28) 
oracle

>  <origin>  (28) 
autodockgpu

>  <m_score__min__energy>  (28) 
-10.25

>  <m_primary>  (28) 
energy

>  <rmsd>  (28) 
2.8309418388215506

>  <m_score__min__rmsd>  (28) 
2.8309418388215506

>  <meeko>  (28) 
{"free_energy": -10.05, "intermolecular_energy": -12.14, "internal_energy": -1.09, "cluster_size": 50, "cluster_id": 1, "rank_in_cluster": 9}

>  <energy>  (28) 
-9.81

>  <cluster_rmsd>  (28) 
1.43

>  <cluster>  (28) 
1

$$$$

     RDKit          3D

 64 68  0  0  0  0  0  0  0  0999 V2000
  142.0690   81.4080  223.8150 C   0  0  0  0  0  0  0  0  0  0  0  0
  140.7660   80.9890  223.7500 C   0  0  0  0  0  0  0  0  0  0  0  0
  140.4100   79.7310  223.3350 C   0  0  0  0  0  0  0  0  0  0  0  0
  141.4360   78.8660  222.9690 C   0  0  0  0  0  0  0  0  0  0  0  0
  141.0790   77.5040  222.5180 C   0  0  0  0  0  0  0  0  0  0  0  0
  140.0060   77.4920  221.4490 C   0  0  0  0  0  0  0  0  0  0  0  0
  138.7950   76.6900  221.8670 C   0  0  0  0  0  0  0  0  0  0  0  0
  138.8340   75.4030  221.2600 N   0  0  0  0  0  0  0  0  0  0  0  0
  139.8210   74.4090  221.4860 C   0  0  0  0  0  0  0  0  0  0  0  0
  141.0470   74.3860  220.8590 C   0  0  0  0  0  0  0  0  0  0  0  0
  141.9840   73.4000  221.0900 C   0  0  0  0  0  0  0  0  0  0  0  0
  143.2540   73.3600  220.4530 N   0  0  0  0  0  0  0  0  0  0  0  0
  144.2150   74.4180  220.4700 C   0  0  0  0  0  0  0  0  0  0  0  0
  145.6340   73.8640  220.5280 C   0  0  0  0  0  0  0  0  0  0  0  0
  145.9060   72.9400  219.4710 N   0  0  0  0  0  0  0  0  0  0  0  0
  144.7290   72.4950  218.7630 C   0  0  0  0  0  0  0  0  0  0  0  0
  143.6190   72.1420  219.7170 C   0  0  0  0  0  0  0  0  0  0  0  0
  141.6340   72.4420  221.9760 N   0  0  0  0  0  0  0  0  0  0  0  0
  140.4580   72.4190  222.6120 C   0  0  0  0  0  0  0  0  0  0  0  0
  140.1810   71.3630  223.5320 N   0  0  0  0  0  0  0  0  0  0  0  0
  139.4450   70.2310  223.0260 C   0  0  0  0  0  0  0  0  0  0  0  0
  139.2440   69.1030  223.9580 C   0  0  0  0  0  0  0  0  0  0  0  0
  139.8500   69.2320  225.2870 C   0  0  0  0  0  0  0  0  0  0  0  0
  139.7320   68.1290  226.1390 C   0  0  0  0  0  0  0  0  0  0  0  0
  140.2890   68.1860  227.4190 C   0  0  0  0  0  0  0  0  0  0  0  0
  140.9580   69.3080  227.8730 C   0  0  0  0  0  0  0  0  0  0  0  0
  141.0490   70.3700  226.9990 C   0  0  0  0  0  0  0  0  0  0  0  0
  140.5100   70.3390  225.7340 C   0  0  0  0  0  0  0  0  0  0  0  0
  140.6580   71.5170  224.8810 C   0  0  0  0  0  0  0  0  0  0  0  0
  139.5850   73.3910  222.3570 N   0  0  0  0  0  0  0  0  0  0  0  0
  142.7460   79.2820  223.0320 C   0  0  0  0  0  0  0  0  0  0  0  0
  143.1110   80.5510  223.4510 C   0  0  0  0  0  0  0  0  0  0  0  0
  142.2969   82.4284  224.1569 H   0  0  0  0  0  0  0  0  0  0  0  0
  139.9717   81.6913  224.0431 H   0  0  0  0  0  0  0  0  0  0  0  0
  139.3560   79.4189  223.2933 H   0  0  0  0  0  0  0  0  0  0  0  0
  141.9811   77.0219  222.1134 H   0  0  0  0  0  0  0  0  0  0  0  0
  140.6785   76.9654  223.3895 H   0  0  0  0  0  0  0  0  0  0  0  0
  139.6936   78.5275  221.2486 H   0  0  0  0  0  0  0  0  0  0  0  0
  140.4296   77.0214  220.5495 H   0  0  0  0  0  0  0  0  0  0  0  0
  138.7919   76.5774  222.9612 H   0  0  0  0  0  0  0  0  0  0  0  0
  137.8837   77.2152  221.5450 H   0  0  0  0  0  0  0  0  0  0  0  0
  138.0650   75.1380  220.5700 H   0  0  0  0  0  0  0  0  0  0  0  0
  141.2891   75.1867  220.1447 H   0  0  0  0  0  0  0  0  0  0  0  0
  144.1014   75.0222  219.5579 H   0  0  0  0  0  0  0  0  0  0  0  0
  144.0421   75.0351  221.3640 H   0  0  0  0  0  0  0  0  0  0  0  0
  146.3429   74.7020  220.4548 H   0  0  0  0  0  0  0  0  0  0  0  0
  145.7426   73.3235  221.4799 H   0  0  0  0  0  0  0  0  0  0  0  0
  146.6240   73.2430  218.7920 H   0  0  0  0  0  0  0  0  0  0  0  0
  144.3862   73.2997  218.0960 H   0  0  0  0  0  0  0  0  0  0  0  0
  144.9899   71.5961  218.1852 H   0  0  0  0  0  0  0  0  0  0  0  0
  142.7490   71.7686  219.1569 H   0  0  0  0  0  0  0  0  0  0  0  0
  143.9468   71.3563  220.4135 H   0  0  0  0  0  0  0  0  0  0  0  0
  138.4521   70.5896  222.7169 H   0  0  0  0  0  0  0  0  0  0  0  0
  140.0607   69.8263  222.2092 H   0  0  0  0  0  0  0  0  0  0  0  0
  138.1604   68.9740  224.0966 H   0  0  0  0  0  0  0  0  0  0  0  0
  139.7519   68.2468  223.4901 H   0  0  0  0  0  0  0  0  0  0  0  0
  139.2047   67.2237  225.8038 H   0  0  0  0  0  0  0  0  0  0  0  0
  140.1928   67.3148  228.0837 H   0  0  0  0  0  0  0  0  0  0  0  0
  141.3957   69.3508  228.8813 H   0  0  0  0  0  0  0  0  0  0  0  0
  141.5741   71.2794  227.3266 H   0  0  0  0  0  0  0  0  0  0  0  0
  140.1024   72.3450  225.3455 H   0  0  0  0  0  0  0  0  0  0  0  0
  141.7395   71.7016  224.8021 H   0  0  0  0  0  0  0  0  0  0  0  0
  143.5372   78.5769  222.7371 H   0  0  0  0  0  0  0  0  0  0  0  0
  144.1638   80.8668  223.4948 H   0  0  0  0  0  0  0  0  0  0  0  0
  1  2  2  0
  2  3  1  0
  3  4  2  0
  4  5  1  0
  5  6  1  0
  6  7  1  0
  7  8  1  0
  8  9  1  0
  9 10  2  0
 10 11  1  0
 11 12  1  0
 12 13  1  0
 13 14  1  0
 14 15  1  0
 15 16  1  0
 16 17  1  0
 11 18  2  0
 18 19  1  0
 19 20  1  0
 20 21  1  0
 21 22  1  0
 22 23  1  0
 23 24  2  0
 24 25  1  0
 25 26  2  0
 26 27  1  0
 27 28  2  0
 28 29  1  0
 19 30  2  0
  4 31  1  0
 31 32  2  0
 32  1  1  0
 30  9  1  0
 17 12  1  0
 29 20  1  0
 28 23  1  0
  1 33  1  0
  2 34  1  0
  3 35  1  0
  5 36  1  0
  5 37  1  0
  6 38  1  0
  6 39  1  0
  7 40  1  0
  7 41  1  0
  8 42  1  0
 10 43  1  0
 13 44  1  0
 13 45  1  0
 14 46  1  0
 14 47  1  0
 15 48  1  0
 16 49  1  0
 16 50  1  0
 17 51  1  0
 17 52  1  0
 21 53  1  0
 21 54  1  0
 22 55  1  0
 22 56  1  0
 24 57  1  0
 25 58  1  0
 26 59  1  0
 27 60  1  0
 29 61  1  0
 29 62  1  0
 31 63  1  0
 32 64  1  0
M  END
>  <smiles>  (29) 
c1ccc(CCCNc2cc(N3CCNCC3)nc(N3CCc4ccccc4C3)n2)cc1

>  <score_type>  (29) 
oracle

>  <origin>  (29) 
autodockgpu

>  <m_score__min__energy>  (29) 
-10.25

>  <m_primary>  (29) 
energy

>  <rmsd>  (29) 
9.211233294211794

>  <m_score__min__rmsd>  (29) 
9.211233294211794

>  <meeko>  (29) 
{"free_energy": -10.14, "intermolecular_energy": -12.23, "internal_energy": -1.1, "cluster_size": 50, "cluster_id": 1, "rank_in_cluster": 5}

>  <energy>  (29) 
-9.81

>  <cluster_rmsd>  (29) 
1.37

>  <cluster>  (29) 
1

$$$$

     RDKit          3D

 64 68  0  0  0  0  0  0  0  0999 V2000
  141.0430   71.5230  228.3140 C   0  0  0  0  0  0  0  0  0  0  0  0
  140.3130   70.3700  228.1830 C   0  0  0  0  0  0  0  0  0  0  0  0
  139.9440   69.8600  226.9650 C   0  0  0  0  0  0  0  0  0  0  0  0
  140.3380   70.5640  225.8320 C   0  0  0  0  0  0  0  0  0  0  0  0
  139.9510   70.0340  224.5070 C   0  0  0  0  0  0  0  0  0  0  0  0
  138.7080   70.6890  223.9420 C   0  0  0  0  0  0  0  0  0  0  0  0
  138.9240   71.2040  222.5380 C   0  0  0  0  0  0  0  0  0  0  0  0
  139.1640   72.6070  222.5680 N   0  0  0  0  0  0  0  0  0  0  0  0
  140.2810   73.2690  221.9960 C   0  0  0  0  0  0  0  0  0  0  0  0
  141.3580   72.6180  221.4370 C   0  0  0  0  0  0  0  0  0  0  0  0
  142.4360   73.2890  220.8980 C   0  0  0  0  0  0  0  0  0  0  0  0
  143.5560   72.6340  220.3160 N   0  0  0  0  0  0  0  0  0  0  0  0
  143.5610   71.2890  219.8320 C   0  0  0  0  0  0  0  0  0  0  0  0
  144.4380   71.1600  218.5920 C   0  0  0  0  0  0  0  0  0  0  0  0
  145.7700   71.6320  218.8100 N   0  0  0  0  0  0  0  0  0  0  0  0
  145.9300   72.3950  220.0250 C   0  0  0  0  0  0  0  0  0  0  0  0
  144.8120   73.3880  220.1980 C   0  0  0  0  0  0  0  0  0  0  0  0
  142.3830   74.6380  220.9460 N   0  0  0  0  0  0  0  0  0  0  0  0
  141.3620   75.3180  221.4760 C   0  0  0  0  0  0  0  0  0  0  0  0
  141.3980   76.7440  221.4800 N   0  0  0  0  0  0  0  0  0  0  0  0
  141.7570   77.3940  220.2440 C   0  0  0  0  0  0  0  0  0  0  0  0
  141.7010   78.8690  220.2310 C   0  0  0  0  0  0  0  0  0  0  0  0
  141.2440   79.5210  221.4620 C   0  0  0  0  0  0  0  0  0  0  0  0
  141.1100   80.9130  221.4220 C   0  0  0  0  0  0  0  0  0  0  0  0
  140.6760   81.5950  222.5610 C   0  0  0  0  0  0  0  0  0  0  0  0
  140.3750   80.9320  223.7370 C   0  0  0  0  0  0  0  0  0  0  0  0
  140.5220   79.5610  223.7290 C   0  0  0  0  0  0  0  0  0  0  0  0
  140.9470   78.8660  222.6210 C   0  0  0  0  0  0  0  0  0  0  0  0
  141.0730   77.4130  222.7130 C   0  0  0  0  0  0  0  0  0  0  0  0
  140.3430   74.6280  221.9850 N   0  0  0  0  0  0  0  0  0  0  0  0
  141.0700   71.7210  225.9580 C   0  0  0  0  0  0  0  0  0  0  0  0
  141.4470   72.2410  227.1870 C   0  0  0  0  0  0  0  0  0  0  0  0
  141.3130   71.8859  229.3167 H   0  0  0  0  0  0  0  0  0  0  0  0
  140.0107   69.8315  229.0933 H   0  0  0  0  0  0  0  0  0  0  0  0
  139.3598   68.9313  226.8870 H   0  0  0  0  0  0  0  0  0  0  0  0
  140.7830   70.2010  223.8071 H   0  0  0  0  0  0  0  0  0  0  0  0
  139.7272   68.9647  224.6355 H   0  0  0  0  0  0  0  0  0  0  0  0
  137.8934   69.9500  223.9271 H   0  0  0  0  0  0  0  0  0  0  0  0
  138.4570   71.5474  224.5824 H   0  0  0  0  0  0  0  0  0  0  0  0
  139.7913   70.6951  222.0922 H   0  0  0  0  0  0  0  0  0  0  0  0
  138.0253   71.0031  221.9363 H   0  0  0  0  0  0  0  0  0  0  0  0
  138.4580   73.2370  223.0590 H   0  0  0  0  0  0  0  0  0  0  0  0
  141.3587   71.5181  221.4196 H   0  0  0  0  0  0  0  0  0  0  0  0
  143.9492   70.6248  220.6183 H   0  0  0  0  0  0  0  0  0  0  0  0
  142.5316   71.0079  219.5650 H   0  0  0  0  0  0  0  0  0  0  0  0
  144.4829   70.1002  218.3007 H   0  0  0  0  0  0  0  0  0  0  0  0
  143.9901   71.7792  217.8008 H   0  0  0  0  0  0  0  0  0  0  0  0
  146.5100   70.9130  218.7540 H   0  0  0  0  0  0  0  0  0  0  0  0
  145.9336   71.7064  220.8828 H   0  0  0  0  0  0  0  0  0  0  0  0
  146.8793   72.9475  219.9657 H   0  0  0  0  0  0  0  0  0  0  0  0
  144.9779   73.9835  221.1078 H   0  0  0  0  0  0  0  0  0  0  0  0
  144.7698   74.0729  219.3383 H   0  0  0  0  0  0  0  0  0  0  0  0
  142.7873   77.0972  219.9982 H   0  0  0  0  0  0  0  0  0  0  0  0
  140.9996   77.0691  219.5155 H   0  0  0  0  0  0  0  0  0  0  0  0
  142.7138   79.2392  220.0139 H   0  0  0  0  0  0  0  0  0  0  0  0
  140.9466   79.1232  219.4718 H   0  0  0  0  0  0  0  0  0  0  0  0
  141.3446   81.4661  220.5006 H   0  0  0  0  0  0  0  0  0  0  0  0
  140.5707   82.6892  222.5217 H   0  0  0  0  0  0  0  0  0  0  0  0
  140.0354   81.4713  224.6336 H   0  0  0  0  0  0  0  0  0  0  0  0
  140.2898   79.0002  224.6464 H   0  0  0  0  0  0  0  0  0  0  0  0
  141.8651   77.1861  223.4417 H   0  0  0  0  0  0  0  0  0  0  0  0
  140.0815   77.0400  223.0092 H   0  0  0  0  0  0  0  0  0  0  0  0
  141.3693   72.2569  225.0452 H   0  0  0  0  0  0  0  0  0  0  0  0
  142.0325   73.1686  227.2694 H   0  0  0  0  0  0  0  0  0  0  0  0
  1  2  2  0
  2  3  1  0
  3  4  2  0
  4  5  1  0
  5  6  1  0
  6  7  1  0
  7  8  1  0
  8  9  1  0
  9 10  2  0
 10 11  1  0
 11 12  1  0
 12 13  1  0
 13 14  1  0
 14 15  1  0
 15 16  1  0
 16 17  1  0
 11 18  2  0
 18 19  1  0
 19 20  1  0
 20 21  1  0
 21 22  1  0
 22 23  1  0
 23 24  2  0
 24 25  1  0
 25 26  2  0
 26 27  1  0
 27 28  2  0
 28 29  1  0
 19 30  2  0
  4 31  1  0
 31 32  2  0
 32  1  1  0
 30  9  1  0
 17 12  1  0
 29 20  1  0
 28 23  1  0
  1 33  1  0
  2 34  1  0
  3 35  1  0
  5 36  1  0
  5 37  1  0
  6 38  1  0
  6 39  1  0
  7 40  1  0
  7 41  1  0
  8 42  1  0
 10 43  1  0
 13 44  1  0
 13 45  1  0
 14 46  1  0
 14 47  1  0
 15 48  1  0
 16 49  1  0
 16 50  1  0
 17 51  1  0
 17 52  1  0
 21 53  1  0
 21 54  1  0
 22 55  1  0
 22 56  1  0
 24 57  1  0
 25 58  1  0
 26 59  1  0
 27 60  1  0
 29 61  1  0
 29 62  1  0
 31 63  1  0
 32 64  1  0
M  END
>  <smiles>  (30) 
c1ccc(CCCNc2cc(N3CCNCC3)nc(N3CCc4ccccc4C3)n2)cc1

>  <score_type>  (30) 
oracle

>  <origin>  (30) 
autodockgpu

>  <m_score__min__energy>  (30) 
-10.25

>  <m_primary>  (30) 
energy

>  <rmsd>  (30) 
2.698348675372895

>  <m_score__min__rmsd>  (30) 
2.698348675372895

>  <meeko>  (30) 
{"free_energy": -10.01, "intermolecular_energy": -12.1, "internal_energy": -1.11, "cluster_size": 50, "cluster_id": 1, "rank_in_cluster": 12}

>  <energy>  (30) 
-9.8

>  <cluster_rmsd>  (30) 
1.4

>  <cluster>  (30) 
1

$$$$

     RDKit          3D

 64 68  0  0  0  0  0  0  0  0999 V2000
  140.9440   68.1820  228.0980 C   0  0  0  0  0  0  0  0  0  0  0  0
  141.1000   69.4950  228.4610 C   0  0  0  0  0  0  0  0  0  0  0  0
  141.0460   70.5260  227.5580 C   0  0  0  0  0  0  0  0  0  0  0  0
  140.8230   70.1970  226.2250 C   0  0  0  0  0  0  0  0  0  0  0  0
  140.7610   71.2900  225.2330 C   0  0  0  0  0  0  0  0  0  0  0  0
  139.5650   71.1900  224.3080 C   0  0  0  0  0  0  0  0  0  0  0  0
  139.9170   70.5370  222.9910 C   0  0  0  0  0  0  0  0  0  0  0  0
  139.6800   71.4460  221.9210 N   0  0  0  0  0  0  0  0  0  0  0  0
  140.4450   72.6060  221.6360 C   0  0  0  0  0  0  0  0  0  0  0  0
  141.6810   72.5840  221.0300 C   0  0  0  0  0  0  0  0  0  0  0  0
  142.4080   73.7280  220.7750 C   0  0  0  0  0  0  0  0  0  0  0  0
  143.6840   73.7240  220.1500 N   0  0  0  0  0  0  0  0  0  0  0  0
  144.8030   74.5140  220.5610 C   0  0  0  0  0  0  0  0  0  0  0  0
  146.1080   73.7500  220.3720 C   0  0  0  0  0  0  0  0  0  0  0  0
  146.2780   73.2780  219.0320 N   0  0  0  0  0  0  0  0  0  0  0  0
  145.0800   73.3500  218.2290 C   0  0  0  0  0  0  0  0  0  0  0  0
  143.8820   72.8460  218.9890 C   0  0  0  0  0  0  0  0  0  0  0  0
  141.8380   74.8930  221.1550 N   0  0  0  0  0  0  0  0  0  0  0  0
  140.6410   74.9700  221.7450 C   0  0  0  0  0  0  0  0  0  0  0  0
  140.1220   76.2480  222.1100 N   0  0  0  0  0  0  0  0  0  0  0  0
  138.6950   76.3490  222.2890 C   0  0  0  0  0  0  0  0  0  0  0  0
  138.1770   77.6500  222.7570 C   0  0  0  0  0  0  0  0  0  0  0  0
  139.1700   78.6920  223.0340 C   0  0  0  0  0  0  0  0  0  0  0  0
  138.6860   79.8960  223.5590 C   0  0  0  0  0  0  0  0  0  0  0  0
  139.5800   80.9290  223.8480 C   0  0  0  0  0  0  0  0  0  0  0  0
  140.9400   80.7990  223.6280 C   0  0  0  0  0  0  0  0  0  0  0  0
  141.3700   79.5950  223.1100 C   0  0  0  0  0  0  0  0  0  0  0  0
  140.5110   78.5620  222.8180 C   0  0  0  0  0  0  0  0  0  0  0  0
  141.0640   77.3260  222.2710 C   0  0  0  0  0  0  0  0  0  0  0  0
  139.9760   73.8380  221.9720 N   0  0  0  0  0  0  0  0  0  0  0  0
  140.6650   68.8810  225.8560 C   0  0  0  0  0  0  0  0  0  0  0  0
  140.7180   67.8350  226.7640 C   0  0  0  0  0  0  0  0  0  0  0  0
  140.9973   67.3947  228.8644 H   0  0  0  0  0  0  0  0  0  0  0  0
  141.2758   69.7314  229.5208 H   0  0  0  0  0  0  0  0  0  0  0  0
  141.1740   71.5714  227.8753 H   0  0  0  0  0  0  0  0  0  0  0  0
  140.7075   72.2479  225.7712 H   0  0  0  0  0  0  0  0  0  0  0  0
  141.6638   71.2163  224.6089 H   0  0  0  0  0  0  0  0  0  0  0  0
  138.7837   70.5936  224.8018 H   0  0  0  0  0  0  0  0  0  0  0  0
  139.2144   72.2110  224.0965 H   0  0  0  0  0  0  0  0  0  0  0  0
  140.9791   70.2509  222.9981 H   0  0  0  0  0  0  0  0  0  0  0  0
  139.2920   69.6426  222.8517 H   0  0  0  0  0  0  0  0  0  0  0  0
  138.8620   71.2610  221.2630 H   0  0  0  0  0  0  0  0  0  0  0  0
  142.1067   71.6130  220.7368 H   0  0  0  0  0  0  0  0  0  0  0  0
  144.8343   75.4343  219.9593 H   0  0  0  0  0  0  0  0  0  0  0  0
  144.6891   74.7557  221.6281 H   0  0  0  0  0  0  0  0  0  0  0  0
  146.9465   74.4175  220.6198 H   0  0  0  0  0  0  0  0  0  0  0  0
  146.0801   72.8722  221.0343 H   0  0  0  0  0  0  0  0  0  0  0  0
  147.0680   73.6950  218.5120 H   0  0  0  0  0  0  0  0  0  0  0  0
  144.9058   74.3964  217.9381 H   0  0  0  0  0  0  0  0  0  0  0  0
  145.2190   72.7174  217.3399 H   0  0  0  0  0  0  0  0  0  0  0  0
  142.9915   72.8724  218.3438 H   0  0  0  0  0  0  0  0  0  0  0  0
  144.0433   71.8081  219.3156 H   0  0  0  0  0  0  0  0  0  0  0  0
  138.2211   76.1301  221.3208 H   0  0  0  0  0  0  0  0  0  0  0  0
  138.4524   75.6355  223.0903 H   0  0  0  0  0  0  0  0  0  0  0  0
  137.4960   78.0354  221.9839 H   0  0  0  0  0  0  0  0  0  0  0  0
  137.6999   77.4400  223.7257 H   0  0  0  0  0  0  0  0  0  0  0  0
  137.6094   80.0274  223.7425 H   0  0  0  0  0  0  0  0  0  0  0  0
  139.1926   81.8717  224.2618 H   0  0  0  0  0  0  0  0  0  0  0  0
  141.6426   81.6145  223.8547 H   0  0  0  0  0  0  0  0  0  0  0  0
  142.4449   79.4556  222.9228 H   0  0  0  0  0  0  0  0  0  0  0  0
  141.4924   77.5532  221.2836 H   0  0  0  0  0  0  0  0  0  0  0  0
  141.8059   76.9746  223.0033 H   0  0  0  0  0  0  0  0  0  0  0  0
  140.4891   68.6490  224.7952 H   0  0  0  0  0  0  0  0  0  0  0  0
  140.5891   66.7884  226.4510 H   0  0  0  0  0  0  0  0  0  0  0  0
  1  2  2  0
  2  3  1  0
  3  4  2  0
  4  5  1  0
  5  6  1  0
  6  7  1  0
  7  8  1  0
  8  9  1  0
  9 10  2  0
 10 11  1  0
 11 12  1  0
 12 13  1  0
 13 14  1  0
 14 15  1  0
 15 16  1  0
 16 17  1  0
 11 18  2  0
 18 19  1  0
 19 20  1  0
 20 21  1  0
 21 22  1  0
 22 23  1  0
 23 24  2  0
 24 25  1  0
 25 26  2  0
 26 27  1  0
 27 28  2  0
 28 29  1  0
 19 30  2  0
  4 31  1  0
 31 32  2  0
 32  1  1  0
 30  9  1  0
 17 12  1  0
 29 20  1  0
 28 23  1  0
  1 33  1  0
  2 34  1  0
  3 35  1  0
  5 36  1  0
  5 37  1  0
  6 38  1  0
  6 39  1  0
  7 40  1  0
  7 41  1  0
  8 42  1  0
 10 43  1  0
 13 44  1  0
 13 45  1  0
 14 46  1  0
 14 47  1  0
 15 48  1  0
 16 49  1  0
 16 50  1  0
 17 51  1  0
 17 52  1  0
 21 53  1  0
 21 54  1  0
 22 55  1  0
 22 56  1  0
 24 57  1  0
 25 58  1  0
 26 59  1  0
 27 60  1  0
 29 61  1  0
 29 62  1  0
 31 63  1  0
 32 64  1  0
M  END
>  <smiles>  (31) 
c1ccc(CCCNc2cc(N3CCNCC3)nc(N3CCc4ccccc4C3)n2)cc1

>  <score_type>  (31) 
oracle

>  <origin>  (31) 
autodockgpu

>  <m_score__min__energy>  (31) 
-10.25

>  <m_primary>  (31) 
energy

>  <rmsd>  (31) 
2.296748399352859

>  <m_score__min__rmsd>  (31) 
2.296748399352859

>  <meeko>  (31) 
{"free_energy": -10.25, "intermolecular_energy": -12.33, "internal_energy": -1.05, "cluster_size": 50, "cluster_id": 1, "rank_in_cluster": 2}

>  <energy>  (31) 
-9.79

>  <cluster_rmsd>  (31) 
0.63

>  <cluster>  (31) 
1

$$$$

     RDKit          3D

 64 68  0  0  0  0  0  0  0  0999 V2000
  141.0220   71.5340  228.3310 C   0  0  0  0  0  0  0  0  0  0  0  0
  140.3110   70.3770  228.1410 C   0  0  0  0  0  0  0  0  0  0  0  0
  139.9700   69.9110  226.8980 C   0  0  0  0  0  0  0  0  0  0  0  0
  140.3740   70.6650  225.8000 C   0  0  0  0  0  0  0  0  0  0  0  0
  140.0180   70.1840  224.4490 C   0  0  0  0  0  0  0  0  0  0  0  0
  138.6590   70.6630  223.9830 C   0  0  0  0  0  0  0  0  0  0  0  0
  138.5850   70.7870  222.4780 C   0  0  0  0  0  0  0  0  0  0  0  0
  138.4820   72.1590  222.1110 N   0  0  0  0  0  0  0  0  0  0  0  0
  139.5710   73.0390  221.8790 C   0  0  0  0  0  0  0  0  0  0  0  0
  140.8020   72.6340  221.4160 C   0  0  0  0  0  0  0  0  0  0  0  0
  141.8470   73.5110  221.2110 C   0  0  0  0  0  0  0  0  0  0  0  0
  143.1250   73.1120  220.7320 N   0  0  0  0  0  0  0  0  0  0  0  0
  143.5180   71.7630  220.4690 C   0  0  0  0  0  0  0  0  0  0  0  0
  144.4420   71.6920  219.2580 C   0  0  0  0  0  0  0  0  0  0  0  0
  145.5840   72.5440  219.3880 N   0  0  0  0  0  0  0  0  0  0  0  0
  145.4820   73.5000  220.4660 C   0  0  0  0  0  0  0  0  0  0  0  0
  144.1280   74.1570  220.4870 C   0  0  0  0  0  0  0  0  0  0  0  0
  141.5990   74.8090  221.4920 N   0  0  0  0  0  0  0  0  0  0  0  0
  140.4220   75.2540  221.9430 C   0  0  0  0  0  0  0  0  0  0  0  0
  140.2570   76.6460  222.2120 N   0  0  0  0  0  0  0  0  0  0  0  0
  138.9350   77.0890  222.5800 C   0  0  0  0  0  0  0  0  0  0  0  0
  138.7930   78.5130  222.9460 C   0  0  0  0  0  0  0  0  0  0  0  0
  140.0180   79.3180  222.9420 C   0  0  0  0  0  0  0  0  0  0  0  0
  139.8970   80.6440  223.3730 C   0  0  0  0  0  0  0  0  0  0  0  0
  141.0270   81.4660  223.3950 C   0  0  0  0  0  0  0  0  0  0  0  0
  142.2700   81.0050  223.0010 C   0  0  0  0  0  0  0  0  0  0  0  0
  142.3410   79.6920  222.5860 C   0  0  0  0  0  0  0  0  0  0  0  0
  141.2440   78.8630  222.5550 C   0  0  0  0  0  0  0  0  0  0  0  0
  141.4200   77.4870  222.0970 C   0  0  0  0  0  0  0  0  0  0  0  0
  139.4430   74.3710  222.1260 N   0  0  0  0  0  0  0  0  0  0  0  0
  141.0870   71.8270  225.9850 C   0  0  0  0  0  0  0  0  0  0  0  0
  141.4350   72.3020  227.2400 C   0  0  0  0  0  0  0  0  0  0  0  0
  141.2694   71.8602  229.3520 H   0  0  0  0  0  0  0  0  0  0  0  0
  140.0012   69.7983  229.0237 H   0  0  0  0  0  0  0  0  0  0  0  0
  139.3999   68.9786  226.7731 H   0  0  0  0  0  0  0  0  0  0  0  0
  140.7775   70.5431  223.7389 H   0  0  0  0  0  0  0  0  0  0  0  0
  139.9795   69.0856  224.4932 H   0  0  0  0  0  0  0  0  0  0  0  0
  137.8959   69.9449  224.3177 H   0  0  0  0  0  0  0  0  0  0  0  0
  138.4851   71.6600  224.4140 H   0  0  0  0  0  0  0  0  0  0  0  0
  139.4934   70.3568  222.0311 H   0  0  0  0  0  0  0  0  0  0  0  0
  137.6998   70.2460  222.1123 H   0  0  0  0  0  0  0  0  0  0  0  0
  137.5120   72.5870  221.9930 H   0  0  0  0  0  0  0  0  0  0  0  0
  140.9593   71.5669  221.2005 H   0  0  0  0  0  0  0  0  0  0  0  0
  144.0449   71.3634  221.3480 H   0  0  0  0  0  0  0  0  0  0  0  0
  142.6165   71.1688  220.2587 H   0  0  0  0  0  0  0  0  0  0  0  0
  144.7879   70.6546  219.1388 H   0  0  0  0  0  0  0  0  0  0  0  0
  143.8703   72.0316  218.3817 H   0  0  0  0  0  0  0  0  0  0  0  0
  146.4940   72.0590  219.4420 H   0  0  0  0  0  0  0  0  0  0  0  0
  145.6433   72.9806  221.4222 H   0  0  0  0  0  0  0  0  0  0  0  0
  146.2438   74.2787  220.3132 H   0  0  0  0  0  0  0  0  0  0  0  0
  144.0892   74.9083  221.2895 H   0  0  0  0  0  0  0  0  0  0  0  0
  143.9310   74.6614  219.5295 H   0  0  0  0  0  0  0  0  0  0  0  0
  138.2685   76.8957  221.7265 H   0  0  0  0  0  0  0  0  0  0  0  0
  138.6847   76.5284  223.4928 H   0  0  0  0  0  0  0  0  0  0  0  0
  138.0902   78.9717  222.2349 H   0  0  0  0  0  0  0  0  0  0  0  0
  138.4515   78.5106  223.9917 H   0  0  0  0  0  0  0  0  0  0  0  0
  138.9200   81.0362  223.6920 H   0  0  0  0  0  0  0  0  0  0  0  0
  140.9251   82.5073  223.7347 H   0  0  0  0  0  0  0  0  0  0  0  0
  143.1581   81.6538  223.0179 H   0  0  0  0  0  0  0  0  0  0  0  0
  143.3144   79.2913  222.2668 H   0  0  0  0  0  0  0  0  0  0  0  0
  141.7143   77.5166  221.0375 H   0  0  0  0  0  0  0  0  0  0  0  0
  142.1822   77.0431  222.7543 H   0  0  0  0  0  0  0  0  0  0  0  0
  141.3939   72.4034  225.0998 H   0  0  0  0  0  0  0  0  0  0  0  0
  142.0056   73.2335  227.3696 H   0  0  0  0  0  0  0  0  0  0  0  0
  1  2  2  0
  2  3  1  0
  3  4  2  0
  4  5  1  0
  5  6  1  0
  6  7  1  0
  7  8  1  0
  8  9  1  0
  9 10  2  0
 10 11  1  0
 11 12  1  0
 12 13  1  0
 13 14  1  0
 14 15  1  0
 15 16  1  0
 16 17  1  0
 11 18  2  0
 18 19  1  0
 19 20  1  0
 20 21  1  0
 21 22  1  0
 22 23  1  0
 23 24  2  0
 24 25  1  0
 25 26  2  0
 26 27  1  0
 27 28  2  0
 28 29  1  0
 19 30  2  0
  4 31  1  0
 31 32  2  0
 32  1  1  0
 30  9  1  0
 17 12  1  0
 29 20  1  0
 28 23  1  0
  1 33  1  0
  2 34  1  0
  3 35  1  0
  5 36  1  0
  5 37  1  0
  6 38  1  0
  6 39  1  0
  7 40  1  0
  7 41  1  0
  8 42  1  0
 10 43  1  0
 13 44  1  0
 13 45  1  0
 14 46  1  0
 14 47  1  0
 15 48  1  0
 16 49  1  0
 16 50  1  0
 17 51  1  0
 17 52  1  0
 21 53  1  0
 21 54  1  0
 22 55  1  0
 22 56  1  0
 24 57  1  0
 25 58  1  0
 26 59  1  0
 27 60  1  0
 29 61  1  0
 29 62  1  0
 31 63  1  0
 32 64  1  0
M  END
>  <smiles>  (32) 
c1ccc(CCCNc2cc(N3CCNCC3)nc(N3CCc4ccccc4C3)n2)cc1

>  <score_type>  (32) 
oracle

>  <origin>  (32) 
autodockgpu

>  <m_score__min__energy>  (32) 
-10.25

>  <m_primary>  (32) 
energy

>  <rmsd>  (32) 
2.7161950641026467

>  <m_score__min__rmsd>  (32) 
2.7161950641026467

>  <meeko>  (32) 
{"free_energy": -9.79, "intermolecular_energy": -11.87, "internal_energy": -1.22, "cluster_size": 50, "cluster_id": 1, "rank_in_cluster": 32}

>  <energy>  (32) 
-9.79

>  <cluster_rmsd>  (32) 
1.17

>  <cluster>  (32) 
1

$$$$

     RDKit          3D

 64 68  0  0  0  0  0  0  0  0999 V2000
  141.0720   71.8440  228.1550 C   0  0  0  0  0  0  0  0  0  0  0  0
  141.4190   72.2540  226.8930 C   0  0  0  0  0  0  0  0  0  0  0  0
  141.0330   71.5810  225.7620 C   0  0  0  0  0  0  0  0  0  0  0  0
  140.2600   70.4370  225.9320 C   0  0  0  0  0  0  0  0  0  0  0  0
  139.8320   69.6950  224.7280 C   0  0  0  0  0  0  0  0  0  0  0  0
  138.5810   70.2610  224.0890 C   0  0  0  0  0  0  0  0  0  0  0  0
  138.8340   70.7590  222.6850 C   0  0  0  0  0  0  0  0  0  0  0  0
  138.7330   72.1790  222.6490 N   0  0  0  0  0  0  0  0  0  0  0  0
  139.7430   73.0700  222.2050 C   0  0  0  0  0  0  0  0  0  0  0  0
  140.9310   72.6660  221.6380 C   0  0  0  0  0  0  0  0  0  0  0  0
  141.9010   73.5560  221.2260 C   0  0  0  0  0  0  0  0  0  0  0  0
  143.1330   73.1580  220.6380 N   0  0  0  0  0  0  0  0  0  0  0  0
  143.4450   71.8330  220.2030 C   0  0  0  0  0  0  0  0  0  0  0  0
  144.3050   71.8600  218.9450 C   0  0  0  0  0  0  0  0  0  0  0  0
  145.4930   72.6400  219.1090 N   0  0  0  0  0  0  0  0  0  0  0  0
  145.4910   73.4690  220.2910 C   0  0  0  0  0  0  0  0  0  0  0  0
  144.1740   74.1790  220.4580 C   0  0  0  0  0  0  0  0  0  0  0  0
  141.6250   74.8660  221.4090 N   0  0  0  0  0  0  0  0  0  0  0  0
  140.4880   75.3100  221.9530 C   0  0  0  0  0  0  0  0  0  0  0  0
  140.2870   76.7150  222.1050 N   0  0  0  0  0  0  0  0  0  0  0  0
  138.9470   77.1570  222.4010 C   0  0  0  0  0  0  0  0  0  0  0  0
  138.7660   78.6020  222.6490 C   0  0  0  0  0  0  0  0  0  0  0  0
  139.9740   79.4320  222.6120 C   0  0  0  0  0  0  0  0  0  0  0  0
  139.8150   80.7850  222.9310 C   0  0  0  0  0  0  0  0  0  0  0  0
  140.9270   81.6300  222.9170 C   0  0  0  0  0  0  0  0  0  0  0  0
  142.1900   81.1670  222.5930 C   0  0  0  0  0  0  0  0  0  0  0  0
  142.2980   79.8280  222.2870 C   0  0  0  0  0  0  0  0  0  0  0  0
  141.2190   78.9740  222.2940 C   0  0  0  0  0  0  0  0  0  0  0  0
  141.4360   77.5700  221.9530 C   0  0  0  0  0  0  0  0  0  0  0  0
  139.5800   74.4150  222.3360 N   0  0  0  0  0  0  0  0  0  0  0  0
  139.9090   70.0220  227.1950 C   0  0  0  0  0  0  0  0  0  0  0  0
  140.2950   70.6990  228.3420 C   0  0  0  0  0  0  0  0  0  0  0  0
  141.4089   72.4225  229.0278 H   0  0  0  0  0  0  0  0  0  0  0  0
  142.0325   73.1604  226.7834 H   0  0  0  0  0  0  0  0  0  0  0  0
  141.3230   71.9318  224.7606 H   0  0  0  0  0  0  0  0  0  0  0  0
  140.6467   69.7278  223.9896 H   0  0  0  0  0  0  0  0  0  0  0  0
  139.6002   68.6671  225.0439 H   0  0  0  0  0  0  0  0  0  0  0  0
  137.8139   69.4734  224.0529 H   0  0  0  0  0  0  0  0  0  0  0  0
  138.2480   71.1157  224.6962 H   0  0  0  0  0  0  0  0  0  0  0  0
  139.8428   70.4569  222.3671 H   0  0  0  0  0  0  0  0  0  0  0  0
  138.0848   70.3253  222.0063 H   0  0  0  0  0  0  0  0  0  0  0  0
  137.8290   72.6370  222.9790 H   0  0  0  0  0  0  0  0  0  0  0  0
  141.1141   71.5891  221.5082 H   0  0  0  0  0  0  0  0  0  0  0  0
  143.9925   71.3115  221.0020 H   0  0  0  0  0  0  0  0  0  0  0  0
  142.5055   71.3086  219.9743 H   0  0  0  0  0  0  0  0  0  0  0  0
  144.5924   70.8287  218.6922 H   0  0  0  0  0  0  0  0  0  0  0  0
  143.7100   72.3225  218.1438 H   0  0  0  0  0  0  0  0  0  0  0  0
  146.3790   72.1110  219.0590 H   0  0  0  0  0  0  0  0  0  0  0  0
  145.6716   72.8366  221.1727 H   0  0  0  0  0  0  0  0  0  0  0  0
  146.2828   74.2254  220.1863 H   0  0  0  0  0  0  0  0  0  0  0  0
  144.2116   74.8347  221.3404 H   0  0  0  0  0  0  0  0  0  0  0  0
  143.9565   74.7980  219.5750 H   0  0  0  0  0  0  0  0  0  0  0  0
  138.3091   76.8825  221.5479 H   0  0  0  0  0  0  0  0  0  0  0  0
  138.6824   76.6651  223.3486 H   0  0  0  0  0  0  0  0  0  0  0  0
  138.0733   78.9871  221.8862 H   0  0  0  0  0  0  0  0  0  0  0  0
  138.3967   78.6743  223.6826 H   0  0  0  0  0  0  0  0  0  0  0  0
  138.8219   81.1802  223.1908 H   0  0  0  0  0  0  0  0  0  0  0  0
  140.7951   82.6923  223.1704 H   0  0  0  0  0  0  0  0  0  0  0  0
  143.0642   81.8346  222.5804 H   0  0  0  0  0  0  0  0  0  0  0  0
  143.2877   79.4249  222.0263 H   0  0  0  0  0  0  0  0  0  0  0  0
  141.7592   77.5214  220.9027 H   0  0  0  0  0  0  0  0  0  0  0  0
  142.1886   77.1973  222.6634 H   0  0  0  0  0  0  0  0  0  0  0  0
  139.2961   69.1146  227.3000 H   0  0  0  0  0  0  0  0  0  0  0  0
  140.0048   70.3527  229.3449 H   0  0  0  0  0  0  0  0  0  0  0  0
  1  2  2  0
  2  3  1  0
  3  4  2  0
  4  5  1  0
  5  6  1  0
  6  7  1  0
  7  8  1  0
  8  9  1  0
  9 10  2  0
 10 11  1  0
 11 12  1  0
 12 13  1  0
 13 14  1  0
 14 15  1  0
 15 16  1  0
 16 17  1  0
 11 18  2  0
 18 19  1  0
 19 20  1  0
 20 21  1  0
 21 22  1  0
 22 23  1  0
 23 24  2  0
 24 25  1  0
 25 26  2  0
 26 27  1  0
 27 28  2  0
 28 29  1  0
 19 30  2  0
  4 31  1  0
 31 32  2  0
 32  1  1  0
 30  9  1  0
 17 12  1  0
 29 20  1  0
 28 23  1  0
  1 33  1  0
  2 34  1  0
  3 35  1  0
  5 36  1  0
  5 37  1  0
  6 38  1  0
  6 39  1  0
  7 40  1  0
  7 41  1  0
  8 42  1  0
 10 43  1  0
 13 44  1  0
 13 45  1  0
 14 46  1  0
 14 47  1  0
 15 48  1  0
 16 49  1  0
 16 50  1  0
 17 51  1  0
 17 52  1  0
 21 53  1  0
 21 54  1  0
 22 55  1  0
 22 56  1  0
 24 57  1  0
 25 58  1  0
 26 59  1  0
 27 60  1  0
 29 61  1  0
 29 62  1  0
 31 63  1  0
 32 64  1  0
M  END
>  <smiles>  (33) 
c1ccc(CCCNc2cc(N3CCNCC3)nc(N3CCc4ccccc4C3)n2)cc1

>  <score_type>  (33) 
oracle

>  <origin>  (33) 
autodockgpu

>  <m_score__min__energy>  (33) 
-10.25

>  <m_primary>  (33) 
energy

>  <rmsd>  (33) 
2.2121089007463444

>  <m_score__min__rmsd>  (33) 
2.2121089007463444

>  <meeko>  (33) 
{"free_energy": -10.05, "intermolecular_energy": -12.14, "internal_energy": -1.21, "cluster_size": 50, "cluster_id": 1, "rank_in_cluster": 8}

>  <energy>  (33) 
-9.78

>  <cluster_rmsd>  (33) 
1.07

>  <cluster>  (33) 
1

$$$$

     RDKit          3D

 64 68  0  0  0  0  0  0  0  0999 V2000
  141.0730   70.6460  228.3430 C   0  0  0  0  0  0  0  0  0  0  0  0
  140.2270   69.7030  227.8160 C   0  0  0  0  0  0  0  0  0  0  0  0
  139.6770   69.8160  226.5650 C   0  0  0  0  0  0  0  0  0  0  0  0
  140.0060   70.9450  225.8220 C   0  0  0  0  0  0  0  0  0  0  0  0
  139.4260   71.0900  224.4710 C   0  0  0  0  0  0  0  0  0  0  0  0
  139.6180   69.8630  223.6030 C   0  0  0  0  0  0  0  0  0  0  0  0
  139.8740   70.2230  222.1580 C   0  0  0  0  0  0  0  0  0  0  0  0
  139.4110   71.5440  221.8990 N   0  0  0  0  0  0  0  0  0  0  0  0
  140.2300   72.6720  221.6320 C   0  0  0  0  0  0  0  0  0  0  0  0
  141.4760   72.5980  221.0490 C   0  0  0  0  0  0  0  0  0  0  0  0
  142.2550   73.7110  220.8120 C   0  0  0  0  0  0  0  0  0  0  0  0
  143.5420   73.6550  220.2110 N   0  0  0  0  0  0  0  0  0  0  0  0
  144.6390   74.5110  220.5360 C   0  0  0  0  0  0  0  0  0  0  0  0
  145.9610   73.7560  220.4620 C   0  0  0  0  0  0  0  0  0  0  0  0
  146.1610   73.1240  219.1940 N   0  0  0  0  0  0  0  0  0  0  0  0
  144.9760   73.0710  218.3720 C   0  0  0  0  0  0  0  0  0  0  0  0
  143.7750   72.6430  219.1710 C   0  0  0  0  0  0  0  0  0  0  0  0
  141.7290   74.8980  221.1870 N   0  0  0  0  0  0  0  0  0  0  0  0
  140.5260   75.0240  221.7560 C   0  0  0  0  0  0  0  0  0  0  0  0
  140.0560   76.3230  222.1170 N   0  0  0  0  0  0  0  0  0  0  0  0
  138.6360   76.4720  222.3170 C   0  0  0  0  0  0  0  0  0  0  0  0
  138.1690   77.7940  222.7810 C   0  0  0  0  0  0  0  0  0  0  0  0
  139.2000   78.8050  223.0320 C   0  0  0  0  0  0  0  0  0  0  0  0
  138.7650   80.0290  223.5530 C   0  0  0  0  0  0  0  0  0  0  0  0
  139.6980   81.0340  223.8180 C   0  0  0  0  0  0  0  0  0  0  0  0
  141.0480   80.8570  223.5780 C   0  0  0  0  0  0  0  0  0  0  0  0
  141.4300   79.6350  223.0650 C   0  0  0  0  0  0  0  0  0  0  0  0
  140.5320   78.6290  222.7960 C   0  0  0  0  0  0  0  0  0  0  0  0
  141.0350   77.3690  222.2520 C   0  0  0  0  0  0  0  0  0  0  0  0
  139.8080   73.9220  221.9650 N   0  0  0  0  0  0  0  0  0  0  0  0
  140.8540   71.8940  226.3460 C   0  0  0  0  0  0  0  0  0  0  0  0
  141.4140   71.7840  227.6090 C   0  0  0  0  0  0  0  0  0  0  0  0
  141.4862   70.5043  229.3525 H   0  0  0  0  0  0  0  0  0  0  0  0
  139.9796   68.8193  228.4225 H   0  0  0  0  0  0  0  0  0  0  0  0
  139.0025   69.0446  226.1650 H   0  0  0  0  0  0  0  0  0  0  0  0
  138.3475   71.2809  224.5724 H   0  0  0  0  0  0  0  0  0  0  0  0
  139.9492   71.9231  223.9788 H   0  0  0  0  0  0  0  0  0  0  0  0
  140.4768   69.2904  223.9833 H   0  0  0  0  0  0  0  0  0  0  0  0
  138.6925   69.2701  223.6454 H   0  0  0  0  0  0  0  0  0  0  0  0
  140.9535   70.1682  221.9541 H   0  0  0  0  0  0  0  0  0  0  0  0
  139.3368   69.5167  221.5079 H   0  0  0  0  0  0  0  0  0  0  0  0
  138.3610   71.7290  221.9000 H   0  0  0  0  0  0  0  0  0  0  0  0
  141.8655   71.6105  220.7607 H   0  0  0  0  0  0  0  0  0  0  0  0
  144.6636   75.3500  219.8251 H   0  0  0  0  0  0  0  0  0  0  0  0
  144.5032   74.8804  221.5632 H   0  0  0  0  0  0  0  0  0  0  0  0
  146.7829   74.4661  220.6358 H   0  0  0  0  0  0  0  0  0  0  0  0
  145.9388   72.9674  221.2286 H   0  0  0  0  0  0  0  0  0  0  0  0
  146.9520   73.4890  218.6380 H   0  0  0  0  0  0  0  0  0  0  0  0
  144.7881   74.0691  217.9494 H   0  0  0  0  0  0  0  0  0  0  0  0
  145.1412   72.3344  217.5719 H   0  0  0  0  0  0  0  0  0  0  0  0
  142.8951   72.5718  218.5146 H   0  0  0  0  0  0  0  0  0  0  0  0
  143.9489   71.6572  219.6269 H   0  0  0  0  0  0  0  0  0  0  0  0
  138.1399   76.2603  221.3583 H   0  0  0  0  0  0  0  0  0  0  0  0
  138.3823   75.7736  223.1281 H   0  0  0  0  0  0  0  0  0  0  0  0
  137.4885   78.1948  222.0153 H   0  0  0  0  0  0  0  0  0  0  0  0
  137.7015   77.6086  223.7593 H   0  0  0  0  0  0  0  0  0  0  0  0
  137.6965   80.1982  223.7522 H   0  0  0  0  0  0  0  0  0  0  0  0
  139.3491   81.9928  224.2290 H   0  0  0  0  0  0  0  0  0  0  0  0
  141.7806   81.6508  223.7857 H   0  0  0  0  0  0  0  0  0  0  0  0
  142.4967   79.4579  222.8628 H   0  0  0  0  0  0  0  0  0  0  0  0
  141.4545   77.5724  221.2557 H   0  0  0  0  0  0  0  0  0  0  0  0
  141.7767   76.9998  222.9756 H   0  0  0  0  0  0  0  0  0  0  0  0
  141.0975   72.7769  225.7367 H   0  0  0  0  0  0  0  0  0  0  0  0
  142.0908   72.5520  228.0117 H   0  0  0  0  0  0  0  0  0  0  0  0
  1  2  2  0
  2  3  1  0
  3  4  2  0
  4  5  1  0
  5  6  1  0
  6  7  1  0
  7  8  1  0
  8  9  1  0
  9 10  2  0
 10 11  1  0
 11 12  1  0
 12 13  1  0
 13 14  1  0
 14 15  1  0
 15 16  1  0
 16 17  1  0
 11 18  2  0
 18 19  1  0
 19 20  1  0
 20 21  1  0
 21 22  1  0
 22 23  1  0
 23 24  2  0
 24 25  1  0
 25 26  2  0
 26 27  1  0
 27 28  2  0
 28 29  1  0
 19 30  2  0
  4 31  1  0
 31 32  2  0
 32  1  1  0
 30  9  1  0
 17 12  1  0
 29 20  1  0
 28 23  1  0
  1 33  1  0
  2 34  1  0
  3 35  1  0
  5 36  1  0
  5 37  1  0
  6 38  1  0
  6 39  1  0
  7 40  1  0
  7 41  1  0
  8 42  1  0
 10 43  1  0
 13 44  1  0
 13 45  1  0
 14 46  1  0
 14 47  1  0
 15 48  1  0
 16 49  1  0
 16 50  1  0
 17 51  1  0
 17 52  1  0
 21 53  1  0
 21 54  1  0
 22 55  1  0
 22 56  1  0
 24 57  1  0
 25 58  1  0
 26 59  1  0
 27 60  1  0
 29 61  1  0
 29 62  1  0
 31 63  1  0
 32 64  1  0
M  END
>  <smiles>  (34) 
c1ccc(CCCNc2cc(N3CCNCC3)nc(N3CCc4ccccc4C3)n2)cc1

>  <score_type>  (34) 
oracle

>  <origin>  (34) 
autodockgpu

>  <m_score__min__energy>  (34) 
-10.25

>  <m_primary>  (34) 
energy

>  <rmsd>  (34) 
2.7516035078266086

>  <m_score__min__rmsd>  (34) 
2.7516035078266086

>  <meeko>  (34) 
{"free_energy": -9.74, "intermolecular_energy": -11.83, "internal_energy": -1.12, "cluster_size": 50, "cluster_id": 1, "rank_in_cluster": 35}

>  <energy>  (34) 
-9.77

>  <cluster_rmsd>  (34) 
1.38

>  <cluster>  (34) 
1

$$$$

     RDKit          3D

 64 68  0  0  0  0  0  0  0  0999 V2000
  142.2610   81.4540  223.8620 C   0  0  0  0  0  0  0  0  0  0  0  0
  140.9370   81.1020  223.8240 C   0  0  0  0  0  0  0  0  0  0  0  0
  140.5100   79.8580  223.4360 C   0  0  0  0  0  0  0  0  0  0  0  0
  141.4840   78.9350  223.0690 C   0  0  0  0  0  0  0  0  0  0  0  0
  141.0490   77.5870  222.6470 C   0  0  0  0  0  0  0  0  0  0  0  0
  139.9330   77.6130  221.6230 C   0  0  0  0  0  0  0  0  0  0  0  0
  138.7990   76.6850  221.9940 C   0  0  0  0  0  0  0  0  0  0  0  0
  138.9100   75.4680  221.2630 N   0  0  0  0  0  0  0  0  0  0  0  0
  139.8790   74.4550  221.4810 C   0  0  0  0  0  0  0  0  0  0  0  0
  141.1050   74.4150  220.8540 C   0  0  0  0  0  0  0  0  0  0  0  0
  142.0240   73.4110  221.0770 C   0  0  0  0  0  0  0  0  0  0  0  0
  143.2930   73.3530  220.4400 N   0  0  0  0  0  0  0  0  0  0  0  0
  144.2770   74.3890  220.4730 C   0  0  0  0  0  0  0  0  0  0  0  0
  145.6840   73.8040  220.5230 C   0  0  0  0  0  0  0  0  0  0  0  0
  145.9360   72.8910  219.4510 N   0  0  0  0  0  0  0  0  0  0  0  0
  144.7490   72.4840  218.7360 C   0  0  0  0  0  0  0  0  0  0  0  0
  143.6320   72.1390  219.6840 C   0  0  0  0  0  0  0  0  0  0  0  0
  141.6570   72.4520  221.9560 N   0  0  0  0  0  0  0  0  0  0  0  0
  140.4810   72.4450  222.5910 C   0  0  0  0  0  0  0  0  0  0  0  0
  140.1850   71.3880  223.5030 N   0  0  0  0  0  0  0  0  0  0  0  0
  139.4270   70.2740  222.9890 C   0  0  0  0  0  0  0  0  0  0  0  0
  139.2050   69.1430  223.9120 C   0  0  0  0  0  0  0  0  0  0  0  0
  139.8150   69.2490  225.2410 C   0  0  0  0  0  0  0  0  0  0  0  0
  139.6770   68.1400  226.0840 C   0  0  0  0  0  0  0  0  0  0  0  0
  140.2380   68.1760  227.3630 C   0  0  0  0  0  0  0  0  0  0  0  0
  140.9290   69.2810  227.8250 C   0  0  0  0  0  0  0  0  0  0  0  0
  141.0390   70.3480  226.9590 C   0  0  0  0  0  0  0  0  0  0  0  0
  140.4970   70.3390  225.6950 C   0  0  0  0  0  0  0  0  0  0  0  0
  140.6670   71.5200  224.8530 C   0  0  0  0  0  0  0  0  0  0  0  0
  139.6250   73.4350  222.3440 N   0  0  0  0  0  0  0  0  0  0  0  0
  142.8140   79.2830  223.1050 C   0  0  0  0  0  0  0  0  0  0  0  0
  143.2510   80.5390  223.4970 C   0  0  0  0  0  0  0  0  0  0  0  0
  142.5466   82.4666  224.1830 H   0  0  0  0  0  0  0  0  0  0  0  0
  140.1848   81.8492  224.1172 H   0  0  0  0  0  0  0  0  0  0  0  0
  139.4408   79.6004  223.4158 H   0  0  0  0  0  0  0  0  0  0  0  0
  141.9116   77.0620  222.2107 H   0  0  0  0  0  0  0  0  0  0  0  0
  140.6614   77.0744  223.5397 H   0  0  0  0  0  0  0  0  0  0  0  0
  139.5425   78.6387  221.5500 H   0  0  0  0  0  0  0  0  0  0  0  0
  140.3472   77.2742  220.6619 H   0  0  0  0  0  0  0  0  0  0  0  0
  138.8425   76.4685  223.0716 H   0  0  0  0  0  0  0  0  0  0  0  0
  137.8412   77.1679  221.7502 H   0  0  0  0  0  0  0  0  0  0  0  0
  138.2160   75.2780  220.4760 H   0  0  0  0  0  0  0  0  0  0  0  0
  141.3616   75.2170  220.1462 H   0  0  0  0  0  0  0  0  0  0  0  0
  144.1770   75.0091  219.5700 H   0  0  0  0  0  0  0  0  0  0  0  0
  144.1172   74.9958  221.3765 H   0  0  0  0  0  0  0  0  0  0  0  0
  146.4108   74.6275  220.4632 H   0  0  0  0  0  0  0  0  0  0  0  0
  145.7810   73.2468  221.4664 H   0  0  0  0  0  0  0  0  0  0  0  0
  146.6600   73.1890  218.7770 H   0  0  0  0  0  0  0  0  0  0  0  0
  144.4237   73.3074  218.0832 H   0  0  0  0  0  0  0  0  0  0  0  0
  144.9901   71.5896  218.1427 H   0  0  0  0  0  0  0  0  0  0  0  0
  142.7543   71.7933  219.1181 H   0  0  0  0  0  0  0  0  0  0  0  0
  143.9428   71.3351  220.3675 H   0  0  0  0  0  0  0  0  0  0  0  0
  138.4409   70.6539  222.6836 H   0  0  0  0  0  0  0  0  0  0  0  0
  140.0344   69.8639  222.1687 H   0  0  0  0  0  0  0  0  0  0  0  0
  138.1193   69.0343  224.0512 H   0  0  0  0  0  0  0  0  0  0  0  0
  139.6954   68.2808  223.4364 H   0  0  0  0  0  0  0  0  0  0  0  0
  139.1316   67.2479  225.7424 H   0  0  0  0  0  0  0  0  0  0  0  0
  140.1269   67.3012  228.0206 H   0  0  0  0  0  0  0  0  0  0  0  0
  141.3688   69.3074  228.8329 H   0  0  0  0  0  0  0  0  0  0  0  0
  141.5829   71.2439  227.2929 H   0  0  0  0  0  0  0  0  0  0  0  0
  140.1288   72.3547  225.3258 H   0  0  0  0  0  0  0  0  0  0  0  0
  141.7519   71.6833  224.7738 H   0  0  0  0  0  0  0  0  0  0  0  0
  143.5628   78.5330  222.8103 H   0  0  0  0  0  0  0  0  0  0  0  0
  144.3192   80.8006  223.5193 H   0  0  0  0  0  0  0  0  0  0  0  0
  1  2  2  0
  2  3  1  0
  3  4  2  0
  4  5  1  0
  5  6  1  0
  6  7  1  0
  7  8  1  0
  8  9  1  0
  9 10  2  0
 10 11  1  0
 11 12  1  0
 12 13  1  0
 13 14  1  0
 14 15  1  0
 15 16  1  0
 16 17  1  0
 11 18  2  0
 18 19  1  0
 19 20  1  0
 20 21  1  0
 21 22  1  0
 22 23  1  0
 23 24  2  0
 24 25  1  0
 25 26  2  0
 26 27  1  0
 27 28  2  0
 28 29  1  0
 19 30  2  0
  4 31  1  0
 31 32  2  0
 32  1  1  0
 30  9  1  0
 17 12  1  0
 29 20  1  0
 28 23  1  0
  1 33  1  0
  2 34  1  0
  3 35  1  0
  5 36  1  0
  5 37  1  0
  6 38  1  0
  6 39  1  0
  7 40  1  0
  7 41  1  0
  8 42  1  0
 10 43  1  0
 13 44  1  0
 13 45  1  0
 14 46  1  0
 14 47  1  0
 15 48  1  0
 16 49  1  0
 16 50  1  0
 17 51  1  0
 17 52  1  0
 21 53  1  0
 21 54  1  0
 22 55  1  0
 22 56  1  0
 24 57  1  0
 25 58  1  0
 26 59  1  0
 27 60  1  0
 29 61  1  0
 29 62  1  0
 31 63  1  0
 32 64  1  0
M  END
>  <smiles>  (35) 
c1ccc(CCCNc2cc(N3CCNCC3)nc(N3CCc4ccccc4C3)n2)cc1

>  <score_type>  (35) 
oracle

>  <origin>  (35) 
autodockgpu

>  <m_score__min__energy>  (35) 
-10.25

>  <m_primary>  (35) 
energy

>  <rmsd>  (35) 
9.254583885315714

>  <m_score__min__rmsd>  (35) 
9.254583885315714

>  <meeko>  (35) 
{"free_energy": -10.19, "intermolecular_energy": -12.28, "internal_energy": -1.09, "cluster_size": 50, "cluster_id": 1, "rank_in_cluster": 3}

>  <energy>  (35) 
-9.74

>  <cluster_rmsd>  (35) 
0.74

>  <cluster>  (35) 
1

$$$$

     RDKit          3D

 64 68  0  0  0  0  0  0  0  0999 V2000
  142.6580   80.8810  223.3010 C   0  0  0  0  0  0  0  0  0  0  0  0
  142.5680   79.5300  223.5120 C   0  0  0  0  0  0  0  0  0  0  0  0
  141.3820   78.8450  223.4470 C   0  0  0  0  0  0  0  0  0  0  0  0
  140.2370   79.5790  223.1530 C   0  0  0  0  0  0  0  0  0  0  0  0
  138.9450   78.8640  223.0770 C   0  0  0  0  0  0  0  0  0  0  0  0
  138.6630   78.2850  221.7070 C   0  0  0  0  0  0  0  0  0  0  0  0
  139.7430   77.3260  221.2610 C   0  0  0  0  0  0  0  0  0  0  0  0
  139.3510   75.9870  221.5490 N   0  0  0  0  0  0  0  0  0  0  0  0
  140.2150   74.8630  221.6000 C   0  0  0  0  0  0  0  0  0  0  0  0
  141.4050   74.7760  220.9130 C   0  0  0  0  0  0  0  0  0  0  0  0
  142.2210   73.6650  220.9730 C   0  0  0  0  0  0  0  0  0  0  0  0
  143.4530   73.5570  220.2720 N   0  0  0  0  0  0  0  0  0  0  0  0
  144.5760   74.4230  220.4490 C   0  0  0  0  0  0  0  0  0  0  0  0
  145.8850   73.6530  220.3160 C   0  0  0  0  0  0  0  0  0  0  0  0
  145.9770   72.9360  219.0820 N   0  0  0  0  0  0  0  0  0  0  0  0
  144.7280   72.8400  218.3650 C   0  0  0  0  0  0  0  0  0  0  0  0
  143.5950   72.4760  219.2880 C   0  0  0  0  0  0  0  0  0  0  0  0
  141.7870   72.6480  221.7500 N   0  0  0  0  0  0  0  0  0  0  0  0
  140.6410   72.6830  222.4370 C   0  0  0  0  0  0  0  0  0  0  0  0
  140.2670   71.5580  223.2320 N   0  0  0  0  0  0  0  0  0  0  0  0
  139.5120   70.5170  222.5800 C   0  0  0  0  0  0  0  0  0  0  0  0
  139.2100   69.3160  223.3840 C   0  0  0  0  0  0  0  0  0  0  0  0
  139.7480   69.2850  224.7470 C   0  0  0  0  0  0  0  0  0  0  0  0
  139.5350   68.1110  225.4780 C   0  0  0  0  0  0  0  0  0  0  0  0
  140.0240   68.0150  226.7840 C   0  0  0  0  0  0  0  0  0  0  0  0
  140.7150   69.0540  227.3800 C   0  0  0  0  0  0  0  0  0  0  0  0
  140.9010   70.1900  226.6220 C   0  0  0  0  0  0  0  0  0  0  0  0
  140.4300   70.3090  225.3350 C   0  0  0  0  0  0  0  0  0  0  0  0
  140.6760   71.5550  224.6130 C   0  0  0  0  0  0  0  0  0  0  0  0
  139.8860   73.7770  222.3490 N   0  0  0  0  0  0  0  0  0  0  0  0
  140.3210   80.9360  222.9410 C   0  0  0  0  0  0  0  0  0  0  0  0
  141.5180   81.6320  223.0050 C   0  0  0  0  0  0  0  0  0  0  0  0
  143.6369   81.3786  223.3653 H   0  0  0  0  0  0  0  0  0  0  0  0
  143.4867   78.9710  223.7435 H   0  0  0  0  0  0  0  0  0  0  0  0
  141.3375   77.7596  223.6202 H   0  0  0  0  0  0  0  0  0  0  0  0
  138.9568   78.0422  223.8081 H   0  0  0  0  0  0  0  0  0  0  0  0
  138.1531   79.5967  223.2913 H   0  0  0  0  0  0  0  0  0  0  0  0
  137.7035   77.7481  221.7396 H   0  0  0  0  0  0  0  0  0  0  0  0
  138.6310   79.1169  220.9880 H   0  0  0  0  0  0  0  0  0  0  0  0
  139.9027   77.4345  220.1781 H   0  0  0  0  0  0  0  0  0  0  0  0
  140.6750   77.5543  221.7988 H   0  0  0  0  0  0  0  0  0  0  0  0
  138.3230   75.7860  221.7460 H   0  0  0  0  0  0  0  0  0  0  0  0
  141.7181   75.6273  220.2906 H   0  0  0  0  0  0  0  0  0  0  0  0
  144.5445   75.2139  219.6851 H   0  0  0  0  0  0  0  0  0  0  0  0
  144.5268   74.8596  221.4574 H   0  0  0  0  0  0  0  0  0  0  0  0
  146.7207   74.3660  220.3726 H   0  0  0  0  0  0  0  0  0  0  0  0
  145.9240   72.9175  221.1330 H   0  0  0  0  0  0  0  0  0  0  0  0
  146.7200   73.2560  218.4390 H   0  0  0  0  0  0  0  0  0  0  0  0
  144.5094   73.8098  217.8942 H   0  0  0  0  0  0  0  0  0  0  0  0
  144.8236   72.0514  217.6041 H   0  0  0  0  0  0  0  0  0  0  0  0
  142.6635   72.3687  218.7129 H   0  0  0  0  0  0  0  0  0  0  0  0
  143.8024   71.5212  219.7932 H   0  0  0  0  0  0  0  0  0  0  0  0
  138.5545   70.9517  222.2570 H   0  0  0  0  0  0  0  0  0  0  0  0
  140.1546   70.1630  221.7604 H   0  0  0  0  0  0  0  0  0  0  0  0
  138.1158   69.2289  223.4553 H   0  0  0  0  0  0  0  0  0  0  0  0
  139.7033   68.4847  222.8591 H   0  0  0  0  0  0  0  0  0  0  0  0
  138.9869   67.2700  225.0283 H   0  0  0  0  0  0  0  0  0  0  0  0
  139.8547   67.0887  227.3525 H   0  0  0  0  0  0  0  0  0  0  0  0
  141.0974   68.9776  228.4086 H   0  0  0  0  0  0  0  0  0  0  0  0
  141.4482   71.0357  227.0640 H   0  0  0  0  0  0  0  0  0  0  0  0
  140.1330   72.3600  225.1299 H   0  0  0  0  0  0  0  0  0  0  0  0
  141.7674   71.6923  224.6070 H   0  0  0  0  0  0  0  0  0  0  0  0
  139.3999   81.4916  222.7111 H   0  0  0  0  0  0  0  0  0  0  0  0
  141.5675   82.7172  222.8320 H   0  0  0  0  0  0  0  0  0  0  0  0
  1  2  2  0
  2  3  1  0
  3  4  2  0
  4  5  1  0
  5  6  1  0
  6  7  1  0
  7  8  1  0
  8  9  1  0
  9 10  2  0
 10 11  1  0
 11 12  1  0
 12 13  1  0
 13 14  1  0
 14 15  1  0
 15 16  1  0
 16 17  1  0
 11 18  2  0
 18 19  1  0
 19 20  1  0
 20 21  1  0
 21 22  1  0
 22 23  1  0
 23 24  2  0
 24 25  1  0
 25 26  2  0
 26 27  1  0
 27 28  2  0
 28 29  1  0
 19 30  2  0
  4 31  1  0
 31 32  2  0
 32  1  1  0
 30  9  1  0
 17 12  1  0
 29 20  1  0
 28 23  1  0
  1 33  1  0
  2 34  1  0
  3 35  1  0
  5 36  1  0
  5 37  1  0
  6 38  1  0
  6 39  1  0
  7 40  1  0
  7 41  1  0
  8 42  1  0
 10 43  1  0
 13 44  1  0
 13 45  1  0
 14 46  1  0
 14 47  1  0
 15 48  1  0
 16 49  1  0
 16 50  1  0
 17 51  1  0
 17 52  1  0
 21 53  1  0
 21 54  1  0
 22 55  1  0
 22 56  1  0
 24 57  1  0
 25 58  1  0
 26 59  1  0
 27 60  1  0
 29 61  1  0
 29 62  1  0
 31 63  1  0
 32 64  1  0
M  END
>  <smiles>  (36) 
c1ccc(CCCNc2cc(N3CCNCC3)nc(N3CCc4ccccc4C3)n2)cc1

>  <score_type>  (36) 
oracle

>  <origin>  (36) 
autodockgpu

>  <m_score__min__energy>  (36) 
-10.25

>  <m_primary>  (36) 
energy

>  <rmsd>  (36) 
9.33734775144799

>  <m_score__min__rmsd>  (36) 
9.33734775144799

>  <meeko>  (36) 
{"free_energy": -9.81, "intermolecular_energy": -11.9, "internal_energy": -0.98, "cluster_size": 50, "cluster_id": 1, "rank_in_cluster": 29}

>  <energy>  (36) 
-9.73

>  <cluster_rmsd>  (36) 
1.04

>  <cluster>  (36) 
1

$$$$

     RDKit          3D

 64 68  0  0  0  0  0  0  0  0999 V2000
  142.1580   81.3740  223.8810 C   0  0  0  0  0  0  0  0  0  0  0  0
  140.8310   81.0310  223.8450 C   0  0  0  0  0  0  0  0  0  0  0  0
  140.3880   79.8280  223.3610 C   0  0  0  0  0  0  0  0  0  0  0  0
  141.3470   78.9360  222.8910 C   0  0  0  0  0  0  0  0  0  0  0  0
  140.8940   77.6320  222.3640 C   0  0  0  0  0  0  0  0  0  0  0  0
  139.5370   77.6970  221.6940 C   0  0  0  0  0  0  0  0  0  0  0  0
  138.6790   76.4990  222.0300 C   0  0  0  0  0  0  0  0  0  0  0  0
  139.0110   75.4110  221.1730 N   0  0  0  0  0  0  0  0  0  0  0  0
  139.9250   74.3680  221.4740 C   0  0  0  0  0  0  0  0  0  0  0  0
  141.1640   74.2370  220.8860 C   0  0  0  0  0  0  0  0  0  0  0  0
  142.0280   73.2060  221.1890 C   0  0  0  0  0  0  0  0  0  0  0  0
  143.3100   73.0550  220.5940 N   0  0  0  0  0  0  0  0  0  0  0  0
  143.8470   71.8260  220.1010 C   0  0  0  0  0  0  0  0  0  0  0  0
  144.6900   72.0610  218.8530 C   0  0  0  0  0  0  0  0  0  0  0  0
  145.7240   73.0260  219.0630 N   0  0  0  0  0  0  0  0  0  0  0  0
  145.5790   73.7860  220.2820 C   0  0  0  0  0  0  0  0  0  0  0  0
  144.1590   74.2480  220.4700 C   0  0  0  0  0  0  0  0  0  0  0  0
  141.5930   72.3150  222.1070 N   0  0  0  0  0  0  0  0  0  0  0  0
  140.4020   72.3970  222.7080 C   0  0  0  0  0  0  0  0  0  0  0  0
  140.0320   71.4060  223.6660 N   0  0  0  0  0  0  0  0  0  0  0  0
  139.0890   70.4020  223.2380 C   0  0  0  0  0  0  0  0  0  0  0  0
  138.7830   69.3280  224.2040 C   0  0  0  0  0  0  0  0  0  0  0  0
  139.5020   69.3670  225.4810 C   0  0  0  0  0  0  0  0  0  0  0  0
  139.2760   68.3030  226.3610 C   0  0  0  0  0  0  0  0  0  0  0  0
  139.9320   68.2780  227.5940 C   0  0  0  0  0  0  0  0  0  0  0  0
  140.8040   69.2830  227.9750 C   0  0  0  0  0  0  0  0  0  0  0  0
  140.9950   70.3100  227.0760 C   0  0  0  0  0  0  0  0  0  0  0  0
  140.3620   70.3570  225.8560 C   0  0  0  0  0  0  0  0  0  0  0  0
  140.6300   71.4900  224.9730 C   0  0  0  0  0  0  0  0  0  0  0  0
  139.6000   73.4100  222.3830 N   0  0  0  0  0  0  0  0  0  0  0  0
  142.6800   79.2750  222.9250 C   0  0  0  0  0  0  0  0  0  0  0  0
  143.1330   80.4900  223.4140 C   0  0  0  0  0  0  0  0  0  0  0  0
  142.4572   82.3540  224.2812 H   0  0  0  0  0  0  0  0  0  0  0  0
  140.0904   81.7523  224.2207 H   0  0  0  0  0  0  0  0  0  0  0  0
  139.3170   79.5775  223.3446 H   0  0  0  0  0  0  0  0  0  0  0  0
  141.6306   77.2777  221.6278 H   0  0  0  0  0  0  0  0  0  0  0  0
  140.8029   76.9476  223.2203 H   0  0  0  0  0  0  0  0  0  0  0  0
  139.0198   78.6086  222.0280 H   0  0  0  0  0  0  0  0  0  0  0  0
  139.6966   77.7047  220.6057 H   0  0  0  0  0  0  0  0  0  0  0  0
  138.8541   76.2064  223.0758 H   0  0  0  0  0  0  0  0  0  0  0  0
  137.6198   76.7608  221.8902 H   0  0  0  0  0  0  0  0  0  0  0  0
  138.5450   75.3520  220.2160 H   0  0  0  0  0  0  0  0  0  0  0  0
  141.4771   74.9861  220.1439 H   0  0  0  0  0  0  0  0  0  0  0  0
  144.4761   71.3701  220.8797 H   0  0  0  0  0  0  0  0  0  0  0  0
  143.0128   71.1581  219.8403 H   0  0  0  0  0  0  0  0  0  0  0  0
  145.1522   71.1083  218.5552 H   0  0  0  0  0  0  0  0  0  0  0  0
  144.0241   72.4507  218.0690 H   0  0  0  0  0  0  0  0  0  0  0  0
  146.6890   72.6620  218.9960 H   0  0  0  0  0  0  0  0  0  0  0  0
  145.8666   73.1540  221.1352 H   0  0  0  0  0  0  0  0  0  0  0  0
  146.2280   74.6719  220.2193 H   0  0  0  0  0  0  0  0  0  0  0  0
  144.0819   74.8583  221.3819 H   0  0  0  0  0  0  0  0  0  0  0  0
  143.8381   74.8601  219.6142 H   0  0  0  0  0  0  0  0  0  0  0  0
  138.1450   70.9123  222.9961 H   0  0  0  0  0  0  0  0  0  0  0  0
  139.5687   69.8979  222.3861 H   0  0  0  0  0  0  0  0  0  0  0  0
  137.7067   69.3758  224.4258 H   0  0  0  0  0  0  0  0  0  0  0  0
  139.1104   68.3981  223.7160 H   0  0  0  0  0  0  0  0  0  0  0  0
  138.5866   67.4919  226.0838 H   0  0  0  0  0  0  0  0  0  0  0  0
  139.7508   67.4375  228.2801 H   0  0  0  0  0  0  0  0  0  0  0  0
  141.3189   69.2630  228.9469 H   0  0  0  0  0  0  0  0  0  0  0  0
  141.6821   71.1257  227.3454 H   0  0  0  0  0  0  0  0  0  0  0  0
  140.2511   72.3994  225.4624 H   0  0  0  0  0  0  0  0  0  0  0  0
  141.7178   71.4981  224.8100 H   0  0  0  0  0  0  0  0  0  0  0  0
  143.4174   78.5510  222.5481 H   0  0  0  0  0  0  0  0  0  0  0  0
  144.2030   80.7444  223.4333 H   0  0  0  0  0  0  0  0  0  0  0  0
  1  2  2  0
  2  3  1  0
  3  4  2  0
  4  5  1  0
  5  6  1  0
  6  7  1  0
  7  8  1  0
  8  9  1  0
  9 10  2  0
 10 11  1  0
 11 12  1  0
 12 13  1  0
 13 14  1  0
 14 15  1  0
 15 16  1  0
 16 17  1  0
 11 18  2  0
 18 19  1  0
 19 20  1  0
 20 21  1  0
 21 22  1  0
 22 23  1  0
 23 24  2  0
 24 25  1  0
 25 26  2  0
 26 27  1  0
 27 28  2  0
 28 29  1  0
 19 30  2  0
  4 31  1  0
 31 32  2  0
 32  1  1  0
 30  9  1  0
 17 12  1  0
 29 20  1  0
 28 23  1  0
  1 33  1  0
  2 34  1  0
  3 35  1  0
  5 36  1  0
  5 37  1  0
  6 38  1  0
  6 39  1  0
  7 40  1  0
  7 41  1  0
  8 42  1  0
 10 43  1  0
 13 44  1  0
 13 45  1  0
 14 46  1  0
 14 47  1  0
 15 48  1  0
 16 49  1  0
 16 50  1  0
 17 51  1  0
 17 52  1  0
 21 53  1  0
 21 54  1  0
 22 55  1  0
 22 56  1  0
 24 57  1  0
 25 58  1  0
 26 59  1  0
 27 60  1  0
 29 61  1  0
 29 62  1  0
 31 63  1  0
 32 64  1  0
M  END
>  <smiles>  (37) 
c1ccc(CCCNc2cc(N3CCNCC3)nc(N3CCc4ccccc4C3)n2)cc1

>  <score_type>  (37) 
oracle

>  <origin>  (37) 
autodockgpu

>  <m_score__min__energy>  (37) 
-10.25

>  <m_primary>  (37) 
energy

>  <rmsd>  (37) 
9.233358032015293

>  <m_score__min__rmsd>  (37) 
9.233358032015293

>  <meeko>  (37) 
{"free_energy": -9.81, "intermolecular_energy": -11.9, "internal_energy": -1.06, "cluster_size": 50, "cluster_id": 1, "rank_in_cluster": 28}

>  <energy>  (37) 
-9.73

>  <cluster_rmsd>  (37) 
0.71

>  <cluster>  (37) 
1

$$$$

     RDKit          3D

 64 68  0  0  0  0  0  0  0  0999 V2000
  140.8680   71.7870  228.3990 C   0  0  0  0  0  0  0  0  0  0  0  0
  141.4410   72.3280  227.2770 C   0  0  0  0  0  0  0  0  0  0  0  0
  141.2860   71.7830  226.0280 C   0  0  0  0  0  0  0  0  0  0  0  0
  140.5100   70.6330  225.9240 C   0  0  0  0  0  0  0  0  0  0  0  0
  140.3280   70.0280  224.5880 C   0  0  0  0  0  0  0  0  0  0  0  0
  138.9240   70.1940  224.0430 C   0  0  0  0  0  0  0  0  0  0  0  0
  138.9220   70.7620  222.6430 C   0  0  0  0  0  0  0  0  0  0  0  0
  138.8310   72.1820  222.6960 N   0  0  0  0  0  0  0  0  0  0  0  0
  139.8050   73.0930  222.2130 C   0  0  0  0  0  0  0  0  0  0  0  0
  140.9630   72.7140  221.5720 C   0  0  0  0  0  0  0  0  0  0  0  0
  141.8990   73.6220  221.1220 C   0  0  0  0  0  0  0  0  0  0  0  0
  143.0990   73.2490  220.4580 N   0  0  0  0  0  0  0  0  0  0  0  0
  144.2460   74.0880  220.3030 C   0  0  0  0  0  0  0  0  0  0  0  0
  145.5320   73.2740  220.3910 C   0  0  0  0  0  0  0  0  0  0  0  0
  145.5590   72.1880  219.4590 N   0  0  0  0  0  0  0  0  0  0  0  0
  144.2790   71.9030  218.8550 C   0  0  0  0  0  0  0  0  0  0  0  0
  143.1790   71.9010  219.8810 C   0  0  0  0  0  0  0  0  0  0  0  0
  141.6190   74.9250  221.3460 N   0  0  0  0  0  0  0  0  0  0  0  0
  140.5100   75.3460  221.9610 C   0  0  0  0  0  0  0  0  0  0  0  0
  140.3040   76.7460  222.1510 N   0  0  0  0  0  0  0  0  0  0  0  0
  138.9630   77.1730  222.4650 C   0  0  0  0  0  0  0  0  0  0  0  0
  138.7760   78.6100  222.7510 C   0  0  0  0  0  0  0  0  0  0  0  0
  139.9800   79.4460  222.7300 C   0  0  0  0  0  0  0  0  0  0  0  0
  139.8160   80.7900  223.0850 C   0  0  0  0  0  0  0  0  0  0  0  0
  140.9240   81.6410  223.0870 C   0  0  0  0  0  0  0  0  0  0  0  0
  142.1870   81.1930  222.7450 C   0  0  0  0  0  0  0  0  0  0  0  0
  142.3000   79.8620  222.4030 C   0  0  0  0  0  0  0  0  0  0  0  0
  141.2260   79.0030  222.3940 C   0  0  0  0  0  0  0  0  0  0  0  0
  141.4470   77.6100  222.0150 C   0  0  0  0  0  0  0  0  0  0  0  0
  139.6350   74.4330  222.3780 N   0  0  0  0  0  0  0  0  0  0  0  0
  139.9320   70.0870  227.0470 C   0  0  0  0  0  0  0  0  0  0  0  0
  140.0850   70.6330  228.3110 C   0  0  0  0  0  0  0  0  0  0  0  0
  141.0260   72.2655  229.3768 H   0  0  0  0  0  0  0  0  0  0  0  0
  142.0507   73.2374  227.3830 H   0  0  0  0  0  0  0  0  0  0  0  0
  141.7566   72.2372  225.1435 H   0  0  0  0  0  0  0  0  0  0  0  0
  141.0324   70.5040  223.8899 H   0  0  0  0  0  0  0  0  0  0  0  0
  140.5130   68.9485  224.6904 H   0  0  0  0  0  0  0  0  0  0  0  0
  138.4308   69.2109  224.0278 H   0  0  0  0  0  0  0  0  0  0  0  0
  138.3881   70.8989  224.6956 H   0  0  0  0  0  0  0  0  0  0  0  0
  139.8527   70.4750  222.1317 H   0  0  0  0  0  0  0  0  0  0  0  0
  138.0570   70.3641  222.0921 H   0  0  0  0  0  0  0  0  0  0  0  0
  137.9650   72.6240  223.1330 H   0  0  0  0  0  0  0  0  0  0  0  0
  141.1498   71.6419  221.4119 H   0  0  0  0  0  0  0  0  0  0  0  0
  144.1998   74.5833  219.3219 H   0  0  0  0  0  0  0  0  0  0  0  0
  144.2469   74.8345  221.1109 H   0  0  0  0  0  0  0  0  0  0  0  0
  146.3843   73.9378  220.1838 H   0  0  0  0  0  0  0  0  0  0  0  0
  145.5882   72.8469  221.4031 H   0  0  0  0  0  0  0  0  0  0  0  0
  146.2820   72.2540  218.7240 H   0  0  0  0  0  0  0  0  0  0  0  0
  144.0613   72.6705  218.0977 H   0  0  0  0  0  0  0  0  0  0  0  0
  144.3266   70.9049  218.3950 H   0  0  0  0  0  0  0  0  0  0  0  0
  142.2227   71.6413  219.4035 H   0  0  0  0  0  0  0  0  0  0  0  0
  143.3880   71.1594  220.6661 H   0  0  0  0  0  0  0  0  0  0  0  0
  138.3222   76.9172  221.6083 H   0  0  0  0  0  0  0  0  0  0  0  0
  138.7056   76.6553  223.4008 H   0  0  0  0  0  0  0  0  0  0  0  0
  138.0781   79.0113  222.0014 H   0  0  0  0  0  0  0  0  0  0  0  0
  138.4107   78.6540  223.7876 H   0  0  0  0  0  0  0  0  0  0  0  0
  138.8223   81.1732  223.3603 H   0  0  0  0  0  0  0  0  0  0  0  0
  140.7882   82.6958  223.3682 H   0  0  0  0  0  0  0  0  0  0  0  0
  143.0579   81.8650  222.7458 H   0  0  0  0  0  0  0  0  0  0  0  0
  143.2901   79.4711  222.1259 H   0  0  0  0  0  0  0  0  0  0  0  0
  141.7640   77.5907  220.9618 H   0  0  0  0  0  0  0  0  0  0  0  0
  142.2054   77.2224  222.7112 H   0  0  0  0  0  0  0  0  0  0  0  0
  139.3224   69.1781  226.9364 H   0  0  0  0  0  0  0  0  0  0  0  0
  139.6153   70.1823  229.1977 H   0  0  0  0  0  0  0  0  0  0  0  0
  1  2  2  0
  2  3  1  0
  3  4  2  0
  4  5  1  0
  5  6  1  0
  6  7  1  0
  7  8  1  0
  8  9  1  0
  9 10  2  0
 10 11  1  0
 11 12  1  0
 12 13  1  0
 13 14  1  0
 14 15  1  0
 15 16  1  0
 16 17  1  0
 11 18  2  0
 18 19  1  0
 19 20  1  0
 20 21  1  0
 21 22  1  0
 22 23  1  0
 23 24  2  0
 24 25  1  0
 25 26  2  0
 26 27  1  0
 27 28  2  0
 28 29  1  0
 19 30  2  0
  4 31  1  0
 31 32  2  0
 32  1  1  0
 30  9  1  0
 17 12  1  0
 29 20  1  0
 28 23  1  0
  1 33  1  0
  2 34  1  0
  3 35  1  0
  5 36  1  0
  5 37  1  0
  6 38  1  0
  6 39  1  0
  7 40  1  0
  7 41  1  0
  8 42  1  0
 10 43  1  0
 13 44  1  0
 13 45  1  0
 14 46  1  0
 14 47  1  0
 15 48  1  0
 16 49  1  0
 16 50  1  0
 17 51  1  0
 17 52  1  0
 21 53  1  0
 21 54  1  0
 22 55  1  0
 22 56  1  0
 24 57  1  0
 25 58  1  0
 26 59  1  0
 27 60  1  0
 29 61  1  0
 29 62  1  0
 31 63  1  0
 32 64  1  0
M  END
>  <smiles>  (38) 
c1ccc(CCCNc2cc(N3CCNCC3)nc(N3CCc4ccccc4C3)n2)cc1

>  <score_type>  (38) 
oracle

>  <origin>  (38) 
autodockgpu

>  <m_score__min__energy>  (38) 
-10.25

>  <m_primary>  (38) 
energy

>  <rmsd>  (38) 
2.2239083706474805

>  <m_score__min__rmsd>  (38) 
2.2239083706474805

>  <meeko>  (38) 
{"free_energy": -9.99, "intermolecular_energy": -12.08, "internal_energy": -1.19, "cluster_size": 50, "cluster_id": 1, "rank_in_cluster": 15}

>  <energy>  (38) 
-9.72

>  <cluster_rmsd>  (38) 
0.74

>  <cluster>  (38) 
1

$$$$

     RDKit          3D

 64 68  0  0  0  0  0  0  0  0999 V2000
  142.5760   79.3890  222.6950 C   0  0  0  0  0  0  0  0  0  0  0  0
  141.8300   79.4810  223.8420 C   0  0  0  0  0  0  0  0  0  0  0  0
  140.4690   79.3160  223.8570 C   0  0  0  0  0  0  0  0  0  0  0  0
  139.8440   79.0460  222.6440 C   0  0  0  0  0  0  0  0  0  0  0  0
  138.3780   78.8640  222.6340 C   0  0  0  0  0  0  0  0  0  0  0  0
  137.9500   77.4830  222.1810 C   0  0  0  0  0  0  0  0  0  0  0  0
  138.8920   76.4070  222.6700 C   0  0  0  0  0  0  0  0  0  0  0  0
  139.5950   75.8410  221.5690 N   0  0  0  0  0  0  0  0  0  0  0  0
  140.3190   74.6210  221.5870 C   0  0  0  0  0  0  0  0  0  0  0  0
  141.3980   74.3550  220.7730 C   0  0  0  0  0  0  0  0  0  0  0  0
  142.0770   73.1550  220.8040 C   0  0  0  0  0  0  0  0  0  0  0  0
  143.1930   72.8630  219.9730 N   0  0  0  0  0  0  0  0  0  0  0  0
  143.1640   72.8180  218.5450 C   0  0  0  0  0  0  0  0  0  0  0  0
  144.4670   73.3470  217.9570 C   0  0  0  0  0  0  0  0  0  0  0  0
  145.6170   72.6660  218.4690 N   0  0  0  0  0  0  0  0  0  0  0  0
  145.3460   71.8510  219.6300 C   0  0  0  0  0  0  0  0  0  0  0  0
  144.4820   72.5820  220.6210 C   0  0  0  0  0  0  0  0  0  0  0  0
  141.6240   72.2370  221.6860 N   0  0  0  0  0  0  0  0  0  0  0  0
  140.5830   72.4450  222.4980 C   0  0  0  0  0  0  0  0  0  0  0  0
  140.1790   71.4120  223.3960 N   0  0  0  0  0  0  0  0  0  0  0  0
  139.3490   70.3630  222.8580 C   0  0  0  0  0  0  0  0  0  0  0  0
  139.0130   69.2520  223.7700 C   0  0  0  0  0  0  0  0  0  0  0  0
  139.5940   69.3060  225.1150 C   0  0  0  0  0  0  0  0  0  0  0  0
  139.3460   68.2100  225.9490 C   0  0  0  0  0  0  0  0  0  0  0  0
  139.8730   68.1980  227.2430 C   0  0  0  0  0  0  0  0  0  0  0  0
  140.6370   69.2440  227.7280 C   0  0  0  0  0  0  0  0  0  0  0  0
  140.8560   70.3000  226.8700 C   0  0  0  0  0  0  0  0  0  0  0  0
  140.3490   70.3370  225.5920 C   0  0  0  0  0  0  0  0  0  0  0  0
  140.6340   71.5030  224.7590 C   0  0  0  0  0  0  0  0  0  0  0  0
  139.9580   73.6190  222.4330 N   0  0  0  0  0  0  0  0  0  0  0  0
  140.5880   78.9530  221.4900 C   0  0  0  0  0  0  0  0  0  0  0  0
  141.9640   79.1180  221.4690 C   0  0  0  0  0  0  0  0  0  0  0  0
  143.6660   79.5299  222.7409 H   0  0  0  0  0  0  0  0  0  0  0  0
  142.3452   79.6962  224.7898 H   0  0  0  0  0  0  0  0  0  0  0  0
  139.8939   79.3941  224.7915 H   0  0  0  0  0  0  0  0  0  0  0  0
  137.9983   79.0308  223.6528 H   0  0  0  0  0  0  0  0  0  0  0  0
  137.9643   79.5862  221.9148 H   0  0  0  0  0  0  0  0  0  0  0  0
  136.9428   77.2775  222.5727 H   0  0  0  0  0  0  0  0  0  0  0  0
  137.9610   77.4687  221.0811 H   0  0  0  0  0  0  0  0  0  0  0  0
  139.6124   76.8462  223.3757 H   0  0  0  0  0  0  0  0  0  0  0  0
  138.3119   75.6191  223.1727 H   0  0  0  0  0  0  0  0  0  0  0  0
  139.5920   76.3600  220.6380 H   0  0  0  0  0  0  0  0  0  0  0  0
  141.7318   75.1317  220.0692 H   0  0  0  0  0  0  0  0  0  0  0  0
  143.0190   71.7770  218.2205 H   0  0  0  0  0  0  0  0  0  0  0  0
  142.3365   73.4501  218.1904 H   0  0  0  0  0  0  0  0  0  0  0  0
  144.4386   73.2188  216.8649 H   0  0  0  0  0  0  0  0  0  0  0  0
  144.5540   74.4068  218.2383 H   0  0  0  0  0  0  0  0  0  0  0  0
  146.1500   72.1150  217.7760 H   0  0  0  0  0  0  0  0  0  0  0  0
  144.8286   70.9340  219.3113 H   0  0  0  0  0  0  0  0  0  0  0  0
  146.3029   71.6090  220.1156 H   0  0  0  0  0  0  0  0  0  0  0  0
  144.3242   71.9570  221.5123 H   0  0  0  0  0  0  0  0  0  0  0  0
  144.9661   73.5185  220.9350 H   0  0  0  0  0  0  0  0  0  0  0  0
  138.4048   70.8208  222.5279 H   0  0  0  0  0  0  0  0  0  0  0  0
  139.9438   69.9071  222.0527 H   0  0  0  0  0  0  0  0  0  0  0  0
  137.9187   69.2304  223.8801 H   0  0  0  0  0  0  0  0  0  0  0  0
  139.4455   68.3543  223.3040 H   0  0  0  0  0  0  0  0  0  0  0  0
  138.7411   67.3648  225.5888 H   0  0  0  0  0  0  0  0  0  0  0  0
  139.6750   67.3334  227.8935 H   0  0  0  0  0  0  0  0  0  0  0  0
  141.0493   69.2335  228.7478 H   0  0  0  0  0  0  0  0  0  0  0  0
  141.4613   71.1484  227.2218 H   0  0  0  0  0  0  0  0  0  0  0  0
  140.1509   72.3767  225.2208 H   0  0  0  0  0  0  0  0  0  0  0  0
  141.7301   71.5803  224.7090 H   0  0  0  0  0  0  0  0  0  0  0  0
  140.0687   78.7387  220.5443 H   0  0  0  0  0  0  0  0  0  0  0  0
  142.5430   79.0397  220.5370 H   0  0  0  0  0  0  0  0  0  0  0  0
  1  2  2  0
  2  3  1  0
  3  4  2  0
  4  5  1  0
  5  6  1  0
  6  7  1  0
  7  8  1  0
  8  9  1  0
  9 10  2  0
 10 11  1  0
 11 12  1  0
 12 13  1  0
 13 14  1  0
 14 15  1  0
 15 16  1  0
 16 17  1  0
 11 18  2  0
 18 19  1  0
 19 20  1  0
 20 21  1  0
 21 22  1  0
 22 23  1  0
 23 24  2  0
 24 25  1  0
 25 26  2  0
 26 27  1  0
 27 28  2  0
 28 29  1  0
 19 30  2  0
  4 31  1  0
 31 32  2  0
 32  1  1  0
 30  9  1  0
 17 12  1  0
 29 20  1  0
 28 23  1  0
  1 33  1  0
  2 34  1  0
  3 35  1  0
  5 36  1  0
  5 37  1  0
  6 38  1  0
  6 39  1  0
  7 40  1  0
  7 41  1  0
  8 42  1  0
 10 43  1  0
 13 44  1  0
 13 45  1  0
 14 46  1  0
 14 47  1  0
 15 48  1  0
 16 49  1  0
 16 50  1  0
 17 51  1  0
 17 52  1  0
 21 53  1  0
 21 54  1  0
 22 55  1  0
 22 56  1  0
 24 57  1  0
 25 58  1  0
 26 59  1  0
 27 60  1  0
 29 61  1  0
 29 62  1  0
 31 63  1  0
 32 64  1  0
M  END
>  <smiles>  (39) 
c1ccc(CCCNc2cc(N3CCNCC3)nc(N3CCc4ccccc4C3)n2)cc1

>  <score_type>  (39) 
oracle

>  <origin>  (39) 
autodockgpu

>  <m_score__min__energy>  (39) 
-10.25

>  <m_primary>  (39) 
energy

>  <rmsd>  (39) 
8.794120505582296

>  <m_score__min__rmsd>  (39) 
8.794120505582296

>  <meeko>  (39) 
{"free_energy": -9.07, "intermolecular_energy": -11.16, "internal_energy": -1.16, "cluster_size": 50, "cluster_id": 1, "rank_in_cluster": 49}

>  <energy>  (39) 
-9.72

>  <cluster_rmsd>  (39) 
1.86

>  <cluster>  (39) 
1

$$$$

     RDKit          3D

 64 68  0  0  0  0  0  0  0  0999 V2000
  140.2290   68.3260  228.4940 C   0  0  0  0  0  0  0  0  0  0  0  0
  141.0380   67.8620  227.4890 C   0  0  0  0  0  0  0  0  0  0  0  0
  141.4340   68.6440  226.4350 C   0  0  0  0  0  0  0  0  0  0  0  0
  140.9810   69.9590  226.4090 C   0  0  0  0  0  0  0  0  0  0  0  0
  141.3950   70.8220  225.2830 C   0  0  0  0  0  0  0  0  0  0  0  0
  140.2300   71.4960  224.5870 C   0  0  0  0  0  0  0  0  0  0  0  0
  139.9830   70.9260  223.2090 C   0  0  0  0  0  0  0  0  0  0  0  0
  139.5660   71.9610  222.3250 N   0  0  0  0  0  0  0  0  0  0  0  0
  140.3710   73.0380  221.8710 C   0  0  0  0  0  0  0  0  0  0  0  0
  141.5570   72.8780  221.1890 C   0  0  0  0  0  0  0  0  0  0  0  0
  142.3250   73.9440  220.7700 C   0  0  0  0  0  0  0  0  0  0  0  0
  143.5500   73.7990  220.0640 N   0  0  0  0  0  0  0  0  0  0  0  0
  144.8090   74.3270  220.4890 C   0  0  0  0  0  0  0  0  0  0  0  0
  145.9470   73.3790  220.1250 C   0  0  0  0  0  0  0  0  0  0  0  0
  145.9690   73.0570  218.7310 N   0  0  0  0  0  0  0  0  0  0  0  0
  144.7670   73.4340  218.0240 C   0  0  0  0  0  0  0  0  0  0  0  0
  143.5350   73.0530  218.7990 C   0  0  0  0  0  0  0  0  0  0  0  0
  141.8490   75.1740  221.0650 N   0  0  0  0  0  0  0  0  0  0  0  0
  140.7050   75.3840  221.7230 C   0  0  0  0  0  0  0  0  0  0  0  0
  140.2850   76.7220  221.9890 N   0  0  0  0  0  0  0  0  0  0  0  0
  138.9230   76.9070  222.4220 C   0  0  0  0  0  0  0  0  0  0  0  0
  138.5250   78.2820  222.7840 C   0  0  0  0  0  0  0  0  0  0  0  0
  139.5670   79.3100  222.7080 C   0  0  0  0  0  0  0  0  0  0  0  0
  139.2120   80.5950  223.1330 C   0  0  0  0  0  0  0  0  0  0  0  0
  140.1600   81.6210  223.0880 C   0  0  0  0  0  0  0  0  0  0  0  0
  141.4480   81.4030  222.6320 C   0  0  0  0  0  0  0  0  0  0  0  0
  141.7510   80.1210  222.2250 C   0  0  0  0  0  0  0  0  0  0  0  0
  140.8370   79.0940  222.2590 C   0  0  0  0  0  0  0  0  0  0  0  0
  141.2550   77.7700  221.8040 C   0  0  0  0  0  0  0  0  0  0  0  0
  139.9960   74.3240  222.1090 N   0  0  0  0  0  0  0  0  0  0  0  0
  140.1690   70.4300  227.4150 C   0  0  0  0  0  0  0  0  0  0  0  0
  139.7660   69.6430  228.4830 C   0  0  0  0  0  0  0  0  0  0  0  0
  139.9421   67.6544  229.3166 H   0  0  0  0  0  0  0  0  0  0  0  0
  141.3838   66.8186  227.5302 H   0  0  0  0  0  0  0  0  0  0  0  0
  142.0842   68.2474  225.6413 H   0  0  0  0  0  0  0  0  0  0  0  0
  142.0694   71.6006  225.6690 H   0  0  0  0  0  0  0  0  0  0  0  0
  141.8895   70.1770  224.5418 H   0  0  0  0  0  0  0  0  0  0  0  0
  139.3245   71.3567  225.1959 H   0  0  0  0  0  0  0  0  0  0  0  0
  140.4747   72.5624  224.4733 H   0  0  0  0  0  0  0  0  0  0  0  0
  140.9112   70.4739  222.8294 H   0  0  0  0  0  0  0  0  0  0  0  0
  139.1948   70.1611  223.2690 H   0  0  0  0  0  0  0  0  0  0  0  0
  138.5650   71.9490  221.9580 H   0  0  0  0  0  0  0  0  0  0  0  0
  141.9058   71.8581  220.9696 H   0  0  0  0  0  0  0  0  0  0  0  0
  144.9771   75.2969  219.9980 H   0  0  0  0  0  0  0  0  0  0  0  0
  144.7885   74.4484  221.5821 H   0  0  0  0  0  0  0  0  0  0  0  0
  146.9018   73.8556  220.3918 H   0  0  0  0  0  0  0  0  0  0  0  0
  145.7921   72.4427  220.6813 H   0  0  0  0  0  0  0  0  0  0  0  0
  146.7960   73.3940  218.2120 H   0  0  0  0  0  0  0  0  0  0  0  0
  144.7697   74.5229  217.8678 H   0  0  0  0  0  0  0  0  0  0  0  0
  144.7495   72.9029  217.0609 H   0  0  0  0  0  0  0  0  0  0  0  0
  142.6351   73.3130  218.2222 H   0  0  0  0  0  0  0  0  0  0  0  0
  143.5230   71.9702  218.9923 H   0  0  0  0  0  0  0  0  0  0  0  0
  138.2652   76.5731  221.6060 H   0  0  0  0  0  0  0  0  0  0  0  0
  138.8326   76.3250  223.3510 H   0  0  0  0  0  0  0  0  0  0  0  0
  137.7106   78.5822  222.1083 H   0  0  0  0  0  0  0  0  0  0  0  0
  138.2450   78.2319  223.8466 H   0  0  0  0  0  0  0  0  0  0  0  0
  138.1946   80.7961  223.4997 H   0  0  0  0  0  0  0  0  0  0  0  0
  139.8745   82.6287  223.4241 H   0  0  0  0  0  0  0  0  0  0  0  0
  142.1927   82.2118  222.5960 H   0  0  0  0  0  0  0  0  0  0  0  0
  142.7664   79.9109  221.8577 H   0  0  0  0  0  0  0  0  0  0  0  0
  141.4835   77.8360  220.7300 H   0  0  0  0  0  0  0  0  0  0  0  0
  142.1221   77.4951  222.4226 H   0  0  0  0  0  0  0  0  0  0  0  0
  139.8254   71.4740  227.3701 H   0  0  0  0  0  0  0  0  0  0  0  0
  139.1162   70.0354  229.2791 H   0  0  0  0  0  0  0  0  0  0  0  0
  1  2  2  0
  2  3  1  0
  3  4  2  0
  4  5  1  0
  5  6  1  0
  6  7  1  0
  7  8  1  0
  8  9  1  0
  9 10  2  0
 10 11  1  0
 11 12  1  0
 12 13  1  0
 13 14  1  0
 14 15  1  0
 15 16  1  0
 16 17  1  0
 11 18  2  0
 18 19  1  0
 19 20  1  0
 20 21  1  0
 21 22  1  0
 22 23  1  0
 23 24  2  0
 24 25  1  0
 25 26  2  0
 26 27  1  0
 27 28  2  0
 28 29  1  0
 19 30  2  0
  4 31  1  0
 31 32  2  0
 32  1  1  0
 30  9  1  0
 17 12  1  0
 29 20  1  0
 28 23  1  0
  1 33  1  0
  2 34  1  0
  3 35  1  0
  5 36  1  0
  5 37  1  0
  6 38  1  0
  6 39  1  0
  7 40  1  0
  7 41  1  0
  8 42  1  0
 10 43  1  0
 13 44  1  0
 13 45  1  0
 14 46  1  0
 14 47  1  0
 15 48  1  0
 16 49  1  0
 16 50  1  0
 17 51  1  0
 17 52  1  0
 21 53  1  0
 21 54  1  0
 22 55  1  0
 22 56  1  0
 24 57  1  0
 25 58  1  0
 26 59  1  0
 27 60  1  0
 29 61  1  0
 29 62  1  0
 31 63  1  0
 32 64  1  0
M  END
>  <smiles>  (40) 
c1ccc(CCCNc2cc(N3CCNCC3)nc(N3CCc4ccccc4C3)n2)cc1

>  <score_type>  (40) 
oracle

>  <origin>  (40) 
autodockgpu

>  <m_score__min__energy>  (40) 
-10.25

>  <m_primary>  (40) 
energy

>  <rmsd>  (40) 
3.002061236642419

>  <m_score__min__rmsd>  (40) 
3.002061236642419

>  <meeko>  (40) 
{"free_energy": -9.84, "intermolecular_energy": -11.93, "internal_energy": -0.99, "cluster_size": 50, "cluster_id": 1, "rank_in_cluster": 23}

>  <energy>  (40) 
-9.68

>  <cluster_rmsd>  (40) 
1.1

>  <cluster>  (40) 
1

$$$$

     RDKit          3D

 64 68  0  0  0  0  0  0  0  0999 V2000
  140.7070   71.5440  228.1880 C   0  0  0  0  0  0  0  0  0  0  0  0
  139.9650   70.4140  227.9560 C   0  0  0  0  0  0  0  0  0  0  0  0
  139.7090   69.9390  226.6960 C   0  0  0  0  0  0  0  0  0  0  0  0
  140.2350   70.6550  225.6250 C   0  0  0  0  0  0  0  0  0  0  0  0
  139.9730   70.1630  224.2560 C   0  0  0  0  0  0  0  0  0  0  0  0
  138.6160   70.5750  223.7230 C   0  0  0  0  0  0  0  0  0  0  0  0
  138.7140   71.2450  222.3720 C   0  0  0  0  0  0  0  0  0  0  0  0
  138.9410   72.6410  222.5390 N   0  0  0  0  0  0  0  0  0  0  0  0
  140.0580   73.3640  222.0450 C   0  0  0  0  0  0  0  0  0  0  0  0
  141.2210   72.7750  221.6010 C   0  0  0  0  0  0  0  0  0  0  0  0
  142.2950   73.5050  221.1350 C   0  0  0  0  0  0  0  0  0  0  0  0
  143.5020   72.9150  220.6720 N   0  0  0  0  0  0  0  0  0  0  0  0
  143.6760   71.5290  220.3700 C   0  0  0  0  0  0  0  0  0  0  0  0
  144.6090   71.3430  219.1780 C   0  0  0  0  0  0  0  0  0  0  0  0
  145.8710   71.9900  219.3650 N   0  0  0  0  0  0  0  0  0  0  0  0
  145.8980   72.9160  220.4720 C   0  0  0  0  0  0  0  0  0  0  0  0
  144.6700   73.7870  220.4860 C   0  0  0  0  0  0  0  0  0  0  0  0
  142.1490   74.8480  221.1370 N   0  0  0  0  0  0  0  0  0  0  0  0
  141.0420   75.4680  221.5570 C   0  0  0  0  0  0  0  0  0  0  0  0
  140.9820   76.8940  221.5200 N   0  0  0  0  0  0  0  0  0  0  0  0
  140.6810   77.5690  222.7580 C   0  0  0  0  0  0  0  0  0  0  0  0
  140.7130   79.0450  222.7320 C   0  0  0  0  0  0  0  0  0  0  0  0
  141.0920   79.6720  221.4620 C   0  0  0  0  0  0  0  0  0  0  0  0
  141.2060   81.0670  221.4610 C   0  0  0  0  0  0  0  0  0  0  0  0
  141.5650   81.7260  220.2830 C   0  0  0  0  0  0  0  0  0  0  0  0
  141.8120   81.0380  219.1090 C   0  0  0  0  0  0  0  0  0  0  0  0
  141.6880   79.6660  219.1580 C   0  0  0  0  0  0  0  0  0  0  0  0
  141.3360   78.9930  220.3050 C   0  0  0  0  0  0  0  0  0  0  0  0
  141.2290   77.5360  220.2550 C   0  0  0  0  0  0  0  0  0  0  0  0
  140.0300   74.7230  221.9980 N   0  0  0  0  0  0  0  0  0  0  0  0
  140.9800   71.7890  225.8510 C   0  0  0  0  0  0  0  0  0  0  0  0
  141.2420   72.2730  227.1230 C   0  0  0  0  0  0  0  0  0  0  0  0
  140.8823   71.8790  229.2210 H   0  0  0  0  0  0  0  0  0  0  0  0
  139.5579   69.8654  228.8181 H   0  0  0  0  0  0  0  0  0  0  0  0
  139.1120   69.0288  226.5379 H   0  0  0  0  0  0  0  0  0  0  0  0
  140.7480   70.5638  223.5862 H   0  0  0  0  0  0  0  0  0  0  0  0
  139.9887   69.0638  224.2952 H   0  0  0  0  0  0  0  0  0  0  0  0
  137.9850   69.6789  223.6293 H   0  0  0  0  0  0  0  0  0  0  0  0
  138.1809   71.2983  224.4284 H   0  0  0  0  0  0  0  0  0  0  0  0
  139.5484   70.8049  221.8062 H   0  0  0  0  0  0  0  0  0  0  0  0
  137.7725   71.0941  221.8236 H   0  0  0  0  0  0  0  0  0  0  0  0
  138.2250   73.2150  223.0810 H   0  0  0  0  0  0  0  0  0  0  0  0
  141.2967   71.6778  221.6186 H   0  0  0  0  0  0  0  0  0  0  0  0
  144.1057   71.0210  221.2460 H   0  0  0  0  0  0  0  0  0  0  0  0
  142.6953   71.0991  220.1182 H   0  0  0  0  0  0  0  0  0  0  0  0
  144.7826   70.2669  219.0302 H   0  0  0  0  0  0  0  0  0  0  0  0
  144.1262   71.7985  218.3009 H   0  0  0  0  0  0  0  0  0  0  0  0
  146.6880   71.3600  219.4220 H   0  0  0  0  0  0  0  0  0  0  0  0
  145.9455   72.3484  221.4130 H   0  0  0  0  0  0  0  0  0  0  0  0
  146.7812   73.5625  220.3627 H   0  0  0  0  0  0  0  0  0  0  0  0
  144.7331   74.5093  221.3132 H   0  0  0  0  0  0  0  0  0  0  0  0
  144.5852   74.3463  219.5426 H   0  0  0  0  0  0  0  0  0  0  0  0
  139.6710   77.2627  223.0679 H   0  0  0  0  0  0  0  0  0  0  0  0
  141.4827   77.2741  223.4510 H   0  0  0  0  0  0  0  0  0  0  0  0
  139.7074   79.4051  222.9947 H   0  0  0  0  0  0  0  0  0  0  0  0
  141.5026   79.3301  223.4428 H   0  0  0  0  0  0  0  0  0  0  0  0
  141.0144   81.6397  222.3804 H   0  0  0  0  0  0  0  0  0  0  0  0
  141.6537   82.8224  220.2892 H   0  0  0  0  0  0  0  0  0  0  0  0
  142.0934   81.5596  218.1823 H   0  0  0  0  0  0  0  0  0  0  0  0
  141.8782   79.0859  218.2430 H   0  0  0  0  0  0  0  0  0  0  0  0
  140.4025   77.2789  219.5762 H   0  0  0  0  0  0  0  0  0  0  0  0
  142.2088   77.1703  219.9142 H   0  0  0  0  0  0  0  0  0  0  0  0
  141.3848   72.3346  224.9859 H   0  0  0  0  0  0  0  0  0  0  0  0
  141.8392   73.1824  227.2853 H   0  0  0  0  0  0  0  0  0  0  0  0
  1  2  2  0
  2  3  1  0
  3  4  2  0
  4  5  1  0
  5  6  1  0
  6  7  1  0
  7  8  1  0
  8  9  1  0
  9 10  2  0
 10 11  1  0
 11 12  1  0
 12 13  1  0
 13 14  1  0
 14 15  1  0
 15 16  1  0
 16 17  1  0
 11 18  2  0
 18 19  1  0
 19 20  1  0
 20 21  1  0
 21 22  1  0
 22 23  1  0
 23 24  2  0
 24 25  1  0
 25 26  2  0
 26 27  1  0
 27 28  2  0
 28 29  1  0
 19 30  2  0
  4 31  1  0
 31 32  2  0
 32  1  1  0
 30  9  1  0
 17 12  1  0
 29 20  1  0
 28 23  1  0
  1 33  1  0
  2 34  1  0
  3 35  1  0
  5 36  1  0
  5 37  1  0
  6 38  1  0
  6 39  1  0
  7 40  1  0
  7 41  1  0
  8 42  1  0
 10 43  1  0
 13 44  1  0
 13 45  1  0
 14 46  1  0
 14 47  1  0
 15 48  1  0
 16 49  1  0
 16 50  1  0
 17 51  1  0
 17 52  1  0
 21 53  1  0
 21 54  1  0
 22 55  1  0
 22 56  1  0
 24 57  1  0
 25 58  1  0
 26 59  1  0
 27 60  1  0
 29 61  1  0
 29 62  1  0
 31 63  1  0
 32 64  1  0
M  END
>  <smiles>  (41) 
c1ccc(CCCNc2cc(N3CCNCC3)nc(N3CCc4ccccc4C3)n2)cc1

>  <score_type>  (41) 
oracle

>  <origin>  (41) 
autodockgpu

>  <m_score__min__energy>  (41) 
-10.25

>  <m_primary>  (41) 
energy

>  <rmsd>  (41) 
2.6738039906629494

>  <m_score__min__rmsd>  (41) 
2.6738039906629494

>  <meeko>  (41) 
{"free_energy": -9.72, "intermolecular_energy": -11.81, "internal_energy": -1.19, "cluster_size": 50, "cluster_id": 1, "rank_in_cluster": 39}

>  <energy>  (41) 
-9.66

>  <cluster_rmsd>  (41) 
1.13

>  <cluster>  (41) 
1

$$$$

     RDKit          3D

 64 68  0  0  0  0  0  0  0  0999 V2000
  140.7790   71.8050  228.3500 C   0  0  0  0  0  0  0  0  0  0  0  0
  139.9800   70.6910  228.3220 C   0  0  0  0  0  0  0  0  0  0  0  0
  139.7470   69.9720  227.1780 C   0  0  0  0  0  0  0  0  0  0  0  0
  140.3590   70.4160  226.0100 C   0  0  0  0  0  0  0  0  0  0  0  0
  140.1230   69.6590  224.7630 C   0  0  0  0  0  0  0  0  0  0  0  0
  138.8820   70.1050  224.0180 C   0  0  0  0  0  0  0  0  0  0  0  0
  139.2090   70.6780  222.6580 C   0  0  0  0  0  0  0  0  0  0  0  0
  139.0390   72.0910  222.6750 N   0  0  0  0  0  0  0  0  0  0  0  0
  139.9540   73.0420  222.1530 C   0  0  0  0  0  0  0  0  0  0  0  0
  141.0950   72.7110  221.4580 C   0  0  0  0  0  0  0  0  0  0  0  0
  141.9730   73.6570  220.9720 C   0  0  0  0  0  0  0  0  0  0  0  0
  143.1550   73.3340  220.2510 N   0  0  0  0  0  0  0  0  0  0  0  0
  144.3090   74.1710  220.1490 C   0  0  0  0  0  0  0  0  0  0  0  0
  145.5870   73.3400  220.1350 C   0  0  0  0  0  0  0  0  0  0  0  0
  145.5820   72.3430  219.1090 N   0  0  0  0  0  0  0  0  0  0  0  0
  144.2870   72.1270  218.5080 C   0  0  0  0  0  0  0  0  0  0  0  0
  143.2070   72.0420  219.5530 C   0  0  0  0  0  0  0  0  0  0  0  0
  141.6540   74.9470  221.2160 N   0  0  0  0  0  0  0  0  0  0  0  0
  140.5590   75.3220  221.8840 C   0  0  0  0  0  0  0  0  0  0  0  0
  140.3080   76.7110  222.0920 N   0  0  0  0  0  0  0  0  0  0  0  0
  138.9590   77.0880  222.4340 C   0  0  0  0  0  0  0  0  0  0  0  0
  138.7280   78.5150  222.7380 C   0  0  0  0  0  0  0  0  0  0  0  0
  139.9010   79.3930  222.7040 C   0  0  0  0  0  0  0  0  0  0  0  0
  139.6970   80.7270  223.0760 C   0  0  0  0  0  0  0  0  0  0  0  0
  140.7740   81.6160  223.0670 C   0  0  0  0  0  0  0  0  0  0  0  0
  142.0460   81.2150  222.6990 C   0  0  0  0  0  0  0  0  0  0  0  0
  142.1990   79.8930  222.3420 C   0  0  0  0  0  0  0  0  0  0  0  0
  141.1550   78.9970  222.3420 C   0  0  0  0  0  0  0  0  0  0  0  0
  141.4180   77.6160  221.9450 C   0  0  0  0  0  0  0  0  0  0  0  0
  139.7400   74.3730  222.3350 N   0  0  0  0  0  0  0  0  0  0  0  0
  141.1610   71.5340  226.0320 C   0  0  0  0  0  0  0  0  0  0  0  0
  141.4000   72.2630  227.1860 C   0  0  0  0  0  0  0  0  0  0  0  0
  140.9322   72.3425  229.2974 H   0  0  0  0  0  0  0  0  0  0  0  0
  139.5055   70.3599  229.2576 H   0  0  0  0  0  0  0  0  0  0  0  0
  139.1025   69.0806  227.1834 H   0  0  0  0  0  0  0  0  0  0  0  0
  140.9932   69.7924  224.1034 H   0  0  0  0  0  0  0  0  0  0  0  0
  139.9739   68.6060  225.0440 H   0  0  0  0  0  0  0  0  0  0  0  0
  138.2167   69.2389  223.8871 H   0  0  0  0  0  0  0  0  0  0  0  0
  138.3976   70.8952  224.6104 H   0  0  0  0  0  0  0  0  0  0  0  0
  140.2519   70.4390  222.4025 H   0  0  0  0  0  0  0  0  0  0  0  0
  138.5333   70.2405  221.9083 H   0  0  0  0  0  0  0  0  0  0  0  0
  138.1550   72.4960  223.1120 H   0  0  0  0  0  0  0  0  0  0  0  0
  141.3158   71.6477  221.2829 H   0  0  0  0  0  0  0  0  0  0  0  0
  144.2491   74.7545  219.2184 H   0  0  0  0  0  0  0  0  0  0  0  0
  144.3353   74.8397  221.0220 H   0  0  0  0  0  0  0  0  0  0  0  0
  146.4424   74.0115  219.9699 H   0  0  0  0  0  0  0  0  0  0  0  0
  145.6594   72.8225  221.1030 H   0  0  0  0  0  0  0  0  0  0  0  0
  146.2910   72.4690  218.3670 H   0  0  0  0  0  0  0  0  0  0  0  0
  144.0633   72.9626  217.8285 H   0  0  0  0  0  0  0  0  0  0  0  0
  144.3138   71.1749  217.9578 H   0  0  0  0  0  0  0  0  0  0  0  0
  142.2383   71.8361  219.0742 H   0  0  0  0  0  0  0  0  0  0  0  0
  143.4223   71.2299  220.2631 H   0  0  0  0  0  0  0  0  0  0  0  0
  138.3120   76.8184  221.5862 H   0  0  0  0  0  0  0  0  0  0  0  0
  138.7363   76.5526  223.3687 H   0  0  0  0  0  0  0  0  0  0  0  0
  138.0029   78.8988  222.0053 H   0  0  0  0  0  0  0  0  0  0  0  0
  138.3811   78.5360  223.7817 H   0  0  0  0  0  0  0  0  0  0  0  0
  138.6958   81.0725  223.3732 H   0  0  0  0  0  0  0  0  0  0  0  0
  140.6065   82.6629  223.3603 H   0  0  0  0  0  0  0  0  0  0  0  0
  142.8931   81.9167  222.6918 H   0  0  0  0  0  0  0  0  0  0  0  0
  143.1973   79.5393  222.0447 H   0  0  0  0  0  0  0  0  0  0  0  0
  141.7169   77.6179  220.8864 H   0  0  0  0  0  0  0  0  0  0  0  0
  142.2016   77.2486  222.6239 H   0  0  0  0  0  0  0  0  0  0  0  0
  141.6322   71.8629  225.0940 H   0  0  0  0  0  0  0  0  0  0  0  0
  142.0443   73.1546  227.1852 H   0  0  0  0  0  0  0  0  0  0  0  0
  1  2  2  0
  2  3  1  0
  3  4  2  0
  4  5  1  0
  5  6  1  0
  6  7  1  0
  7  8  1  0
  8  9  1  0
  9 10  2  0
 10 11  1  0
 11 12  1  0
 12 13  1  0
 13 14  1  0
 14 15  1  0
 15 16  1  0
 16 17  1  0
 11 18  2  0
 18 19  1  0
 19 20  1  0
 20 21  1  0
 21 22  1  0
 22 23  1  0
 23 24  2  0
 24 25  1  0
 25 26  2  0
 26 27  1  0
 27 28  2  0
 28 29  1  0
 19 30  2  0
  4 31  1  0
 31 32  2  0
 32  1  1  0
 30  9  1  0
 17 12  1  0
 29 20  1  0
 28 23  1  0
  1 33  1  0
  2 34  1  0
  3 35  1  0
  5 36  1  0
  5 37  1  0
  6 38  1  0
  6 39  1  0
  7 40  1  0
  7 41  1  0
  8 42  1  0
 10 43  1  0
 13 44  1  0
 13 45  1  0
 14 46  1  0
 14 47  1  0
 15 48  1  0
 16 49  1  0
 16 50  1  0
 17 51  1  0
 17 52  1  0
 21 53  1  0
 21 54  1  0
 22 55  1  0
 22 56  1  0
 24 57  1  0
 25 58  1  0
 26 59  1  0
 27 60  1  0
 29 61  1  0
 29 62  1  0
 31 63  1  0
 32 64  1  0
M  END
>  <smiles>  (42) 
c1ccc(CCCNc2cc(N3CCNCC3)nc(N3CCc4ccccc4C3)n2)cc1

>  <score_type>  (42) 
oracle

>  <origin>  (42) 
autodockgpu

>  <m_score__min__energy>  (42) 
-10.25

>  <m_primary>  (42) 
energy

>  <rmsd>  (42) 
2.741650597141346

>  <m_score__min__rmsd>  (42) 
2.741650597141346

>  <meeko>  (42) 
{"free_energy": -10.14, "intermolecular_energy": -12.23, "internal_energy": -1.13, "cluster_size": 50, "cluster_id": 1, "rank_in_cluster": 4}

>  <energy>  (42) 
-9.63

>  <cluster_rmsd>  (42) 
1.44

>  <cluster>  (42) 
1

$$$$

     RDKit          3D

 64 68  0  0  0  0  0  0  0  0999 V2000
  140.8230   68.1960  228.1160 C   0  0  0  0  0  0  0  0  0  0  0  0
  141.1430   69.5100  228.3420 C   0  0  0  0  0  0  0  0  0  0  0  0
  140.8540   70.5080  227.4480 C   0  0  0  0  0  0  0  0  0  0  0  0
  140.2100   70.1440  226.2700 C   0  0  0  0  0  0  0  0  0  0  0  0
  139.8890   71.2020  225.2890 C   0  0  0  0  0  0  0  0  0  0  0  0
  140.7220   71.1200  224.0270 C   0  0  0  0  0  0  0  0  0  0  0  0
  139.9490   70.5230  222.8730 C   0  0  0  0  0  0  0  0  0  0  0  0
  139.6020   71.5440  221.9430 N   0  0  0  0  0  0  0  0  0  0  0  0
  140.3800   72.6920  221.6440 C   0  0  0  0  0  0  0  0  0  0  0  0
  141.6090   72.6480  221.0230 C   0  0  0  0  0  0  0  0  0  0  0  0
  142.3490   73.7800  220.7540 C   0  0  0  0  0  0  0  0  0  0  0  0
  143.6180   73.7550  220.1140 N   0  0  0  0  0  0  0  0  0  0  0  0
  144.7620   74.5040  220.5280 C   0  0  0  0  0  0  0  0  0  0  0  0
  146.0440   73.7090  220.3060 C   0  0  0  0  0  0  0  0  0  0  0  0
  146.1850   73.2610  218.9550 N   0  0  0  0  0  0  0  0  0  0  0  0
  144.9800   73.3820  218.1690 C   0  0  0  0  0  0  0  0  0  0  0  0
  143.7780   72.8960  218.9330 C   0  0  0  0  0  0  0  0  0  0  0  0
  141.8020   74.9550  221.1370 N   0  0  0  0  0  0  0  0  0  0  0  0
  140.6140   75.0530  221.7410 C   0  0  0  0  0  0  0  0  0  0  0  0
  140.1190   76.3400  222.1080 N   0  0  0  0  0  0  0  0  0  0  0  0
  138.6940   76.4670  222.2890 C   0  0  0  0  0  0  0  0  0  0  0  0
  138.2010   77.7770  222.7580 C   0  0  0  0  0  0  0  0  0  0  0  0
  139.2140   78.8010  223.0340 C   0  0  0  0  0  0  0  0  0  0  0  0
  138.7520   80.0130  223.5600 C   0  0  0  0  0  0  0  0  0  0  0  0
  139.6660   81.0300  223.8470 C   0  0  0  0  0  0  0  0  0  0  0  0
  141.0230   80.8740  223.6250 C   0  0  0  0  0  0  0  0  0  0  0  0
  141.4300   79.6640  223.1060 C   0  0  0  0  0  0  0  0  0  0  0  0
  140.5510   78.6470  222.8150 C   0  0  0  0  0  0  0  0  0  0  0  0
  141.0810   77.4000  222.2670 C   0  0  0  0  0  0  0  0  0  0  0  0
  139.9340   73.9320  221.9810 N   0  0  0  0  0  0  0  0  0  0  0  0
  139.8870   68.8270  226.0380 C   0  0  0  0  0  0  0  0  0  0  0  0
  140.1760   67.8140  226.9390 C   0  0  0  0  0  0  0  0  0  0  0  0
  141.0783   67.4357  228.8689 H   0  0  0  0  0  0  0  0  0  0  0  0
  141.6530   69.7743  229.2801 H   0  0  0  0  0  0  0  0  0  0  0  0
  141.1207   71.5551  227.6539 H   0  0  0  0  0  0  0  0  0  0  0  0
  138.8278   71.1127  225.0135 H   0  0  0  0  0  0  0  0  0  0  0  0
  140.1131   72.1677  225.7656 H   0  0  0  0  0  0  0  0  0  0  0  0
  141.0466   72.1338  223.7498 H   0  0  0  0  0  0  0  0  0  0  0  0
  141.5833   70.4671  224.2315 H   0  0  0  0  0  0  0  0  0  0  0  0
  140.5701   69.7671  222.3701 H   0  0  0  0  0  0  0  0  0  0  0  0
  139.0305   70.0543  223.2560 H   0  0  0  0  0  0  0  0  0  0  0  0
  138.6800   71.4630  221.4130 H   0  0  0  0  0  0  0  0  0  0  0  0
  142.0168   71.6694  220.7296 H   0  0  0  0  0  0  0  0  0  0  0  0
  144.8114   75.4364  219.9465 H   0  0  0  0  0  0  0  0  0  0  0  0
  144.6673   74.7245  221.6015 H   0  0  0  0  0  0  0  0  0  0  0  0
  146.9032   74.3484  220.5569 H   0  0  0  0  0  0  0  0  0  0  0  0
  146.0001   72.8184  220.9501 H   0  0  0  0  0  0  0  0  0  0  0  0
  146.9800   73.6670  218.4350 H   0  0  0  0  0  0  0  0  0  0  0  0
  144.8313   74.4385  217.9013 H   0  0  0  0  0  0  0  0  0  0  0  0
  145.0908   72.7637  217.2660 H   0  0  0  0  0  0  0  0  0  0  0  0
  142.8811   72.9603  218.2995 H   0  0  0  0  0  0  0  0  0  0  0  0
  143.9143   71.8475  219.2366 H   0  0  0  0  0  0  0  0  0  0  0  0
  138.2148   76.2571  221.3214 H   0  0  0  0  0  0  0  0  0  0  0  0
  138.4393   75.7577  223.0903 H   0  0  0  0  0  0  0  0  0  0  0  0
  137.5261   78.1752  221.9860 H   0  0  0  0  0  0  0  0  0  0  0  0
  137.7216   77.5756  223.7273 H   0  0  0  0  0  0  0  0  0  0  0  0
  137.6783   80.1636  223.7459 H   0  0  0  0  0  0  0  0  0  0  0  0
  139.2971   81.9802  224.2605 H   0  0  0  0  0  0  0  0  0  0  0  0
  141.7410   81.6759  223.8515 H   0  0  0  0  0  0  0  0  0  0  0  0
  142.5019   79.5050  222.9167 H   0  0  0  0  0  0  0  0  0  0  0  0
  141.5119   77.6190  221.2789 H   0  0  0  0  0  0  0  0  0  0  0  0
  141.8177   77.0353  222.9979 H   0  0  0  0  0  0  0  0  0  0  0  0
  139.3781   68.5669  225.0981 H   0  0  0  0  0  0  0  0  0  0  0  0
  139.9100   66.7658  226.7377 H   0  0  0  0  0  0  0  0  0  0  0  0
  1  2  2  0
  2  3  1  0
  3  4  2  0
  4  5  1  0
  5  6  1  0
  6  7  1  0
  7  8  1  0
  8  9  1  0
  9 10  2  0
 10 11  1  0
 11 12  1  0
 12 13  1  0
 13 14  1  0
 14 15  1  0
 15 16  1  0
 16 17  1  0
 11 18  2  0
 18 19  1  0
 19 20  1  0
 20 21  1  0
 21 22  1  0
 22 23  1  0
 23 24  2  0
 24 25  1  0
 25 26  2  0
 26 27  1  0
 27 28  2  0
 28 29  1  0
 19 30  2  0
  4 31  1  0
 31 32  2  0
 32  1  1  0
 30  9  1  0
 17 12  1  0
 29 20  1  0
 28 23  1  0
  1 33  1  0
  2 34  1  0
  3 35  1  0
  5 36  1  0
  5 37  1  0
  6 38  1  0
  6 39  1  0
  7 40  1  0
  7 41  1  0
  8 42  1  0
 10 43  1  0
 13 44  1  0
 13 45  1  0
 14 46  1  0
 14 47  1  0
 15 48  1  0
 16 49  1  0
 16 50  1  0
 17 51  1  0
 17 52  1  0
 21 53  1  0
 21 54  1  0
 22 55  1  0
 22 56  1  0
 24 57  1  0
 25 58  1  0
 26 59  1  0
 27 60  1  0
 29 61  1  0
 29 62  1  0
 31 63  1  0
 32 64  1  0
M  END
>  <smiles>  (43) 
c1ccc(CCCNc2cc(N3CCNCC3)nc(N3CCc4ccccc4C3)n2)cc1

>  <score_type>  (43) 
oracle

>  <origin>  (43) 
autodockgpu

>  <m_score__min__energy>  (43) 
-10.25

>  <m_primary>  (43) 
energy

>  <rmsd>  (43) 
1.9481599909081881

>  <m_score__min__rmsd>  (43) 
1.9481599909081881

>  <meeko>  (43) 
{"free_energy": -10.07, "intermolecular_energy": -12.16, "internal_energy": -1.05, "cluster_size": 50, "cluster_id": 1, "rank_in_cluster": 6}

>  <energy>  (43) 
-9.61

>  <cluster_rmsd>  (43) 
0.96

>  <cluster>  (43) 
1

$$$$

     RDKit          3D

 64 68  0  0  0  0  0  0  0  0999 V2000
  140.7210   71.7460  228.0940 C   0  0  0  0  0  0  0  0  0  0  0  0
  140.0410   70.5570  228.1640 C   0  0  0  0  0  0  0  0  0  0  0  0
  139.7750   69.7880  227.0600 C   0  0  0  0  0  0  0  0  0  0  0  0
  140.2240   70.2580  225.8300 C   0  0  0  0  0  0  0  0  0  0  0  0
  139.9490   69.4470  224.6260 C   0  0  0  0  0  0  0  0  0  0  0  0
  138.7790   69.9620  223.8130 C   0  0  0  0  0  0  0  0  0  0  0  0
  139.2280   70.6810  222.5620 C   0  0  0  0  0  0  0  0  0  0  0  0
  139.1850   72.0890  222.7700 N   0  0  0  0  0  0  0  0  0  0  0  0
  140.0660   73.0390  222.1930 C   0  0  0  0  0  0  0  0  0  0  0  0
  141.1970   72.7070  221.4800 C   0  0  0  0  0  0  0  0  0  0  0  0
  142.0420   73.6530  220.9390 C   0  0  0  0  0  0  0  0  0  0  0  0
  143.2120   73.3290  220.1990 N   0  0  0  0  0  0  0  0  0  0  0  0
  144.3480   74.1830  220.0450 C   0  0  0  0  0  0  0  0  0  0  0  0
  145.6400   73.3730  220.0250 C   0  0  0  0  0  0  0  0  0  0  0  0
  145.6280   72.3470  219.0270 N   0  0  0  0  0  0  0  0  0  0  0  0
  144.3240   72.0920  218.4640 C   0  0  0  0  0  0  0  0  0  0  0  0
  143.2700   72.0190  219.5370 C   0  0  0  0  0  0  0  0  0  0  0  0
  141.7010   74.9440  221.1460 N   0  0  0  0  0  0  0  0  0  0  0  0
  140.6160   75.3200  221.8290 C   0  0  0  0  0  0  0  0  0  0  0  0
  140.3400   76.7100  221.9950 N   0  0  0  0  0  0  0  0  0  0  0  0
  138.9790   77.0760  222.2990 C   0  0  0  0  0  0  0  0  0  0  0  0
  138.7200   78.5060  222.5610 C   0  0  0  0  0  0  0  0  0  0  0  0
  139.8820   79.4010  222.5270 C   0  0  0  0  0  0  0  0  0  0  0  0
  139.6500   80.7400  222.8590 C   0  0  0  0  0  0  0  0  0  0  0  0
  140.7140   81.6450  222.8490 C   0  0  0  0  0  0  0  0  0  0  0  0
  141.9990   81.2550  222.5160 C   0  0  0  0  0  0  0  0  0  0  0  0
  142.1790   79.9260  222.1970 C   0  0  0  0  0  0  0  0  0  0  0  0
  141.1480   79.0150  222.2010 C   0  0  0  0  0  0  0  0  0  0  0  0
  141.4390   77.6280  221.8450 C   0  0  0  0  0  0  0  0  0  0  0  0
  139.8290   74.3710  222.3330 N   0  0  0  0  0  0  0  0  0  0  0  0
  140.9070   71.4500  225.7540 C   0  0  0  0  0  0  0  0  0  0  0  0
  141.1790   72.2310  226.8670 C   0  0  0  0  0  0  0  0  0  0  0  0
  140.9072   72.3226  229.0121 H   0  0  0  0  0  0  0  0  0  0  0  0
  139.6944   70.2054  229.1470 H   0  0  0  0  0  0  0  0  0  0  0  0
  139.2282   68.8372  227.1438 H   0  0  0  0  0  0  0  0  0  0  0  0
  140.8460   69.4515  223.9893 H   0  0  0  0  0  0  0  0  0  0  0  0
  139.6890   68.4340  224.9670 H   0  0  0  0  0  0  0  0  0  0  0  0
  138.1455   69.1103  223.5244 H   0  0  0  0  0  0  0  0  0  0  0  0
  138.2242   70.6797  224.4352 H   0  0  0  0  0  0  0  0  0  0  0  0
  140.2574   70.3797  222.3178 H   0  0  0  0  0  0  0  0  0  0  0  0
  138.5563   70.4170  221.7319 H   0  0  0  0  0  0  0  0  0  0  0  0
  138.4350   72.4890  223.4130 H   0  0  0  0  0  0  0  0  0  0  0  0
  141.4360   71.6430  221.3362 H   0  0  0  0  0  0  0  0  0  0  0  0
  144.2560   74.7374  219.0994 H   0  0  0  0  0  0  0  0  0  0  0  0
  144.3826   74.8783  220.8967 H   0  0  0  0  0  0  0  0  0  0  0  0
  146.4799   74.0535  219.8213 H   0  0  0  0  0  0  0  0  0  0  0  0
  145.7437   72.8848  221.0052 H   0  0  0  0  0  0  0  0  0  0  0  0
  146.3170   72.4630  218.2660 H   0  0  0  0  0  0  0  0  0  0  0  0
  144.0698   72.9037  217.7665 H   0  0  0  0  0  0  0  0  0  0  0  0
  144.3546   71.1249  217.9408 H   0  0  0  0  0  0  0  0  0  0  0  0
  142.2941   71.7833  219.0875 H   0  0  0  0  0  0  0  0  0  0  0  0
  143.5160   71.2314  220.2644 H   0  0  0  0  0  0  0  0  0  0  0  0
  138.3542   76.7750  221.4452 H   0  0  0  0  0  0  0  0  0  0  0  0
  138.7452   76.5620  223.2430 H   0  0  0  0  0  0  0  0  0  0  0  0
  138.0041   78.8596  221.8044 H   0  0  0  0  0  0  0  0  0  0  0  0
  138.3510   78.5490  223.5964 H   0  0  0  0  0  0  0  0  0  0  0  0
  138.6376   81.0776  223.1258 H   0  0  0  0  0  0  0  0  0  0  0  0
  140.5252   82.6960  223.1130 H   0  0  0  0  0  0  0  0  0  0  0  0
  142.8352   81.9696  222.5063 H   0  0  0  0  0  0  0  0  0  0  0  0
  143.1880   79.5798  221.9283 H   0  0  0  0  0  0  0  0  0  0  0  0
  141.7578   77.6072  220.7924 H   0  0  0  0  0  0  0  0  0  0  0  0
  142.2150   77.2903  222.5477 H   0  0  0  0  0  0  0  0  0  0  0  0
  141.2517   71.7980  224.7691 H   0  0  0  0  0  0  0  0  0  0  0  0
  141.7263   73.1819  226.7878 H   0  0  0  0  0  0  0  0  0  0  0  0
  1  2  2  0
  2  3  1  0
  3  4  2  0
  4  5  1  0
  5  6  1  0
  6  7  1  0
  7  8  1  0
  8  9  1  0
  9 10  2  0
 10 11  1  0
 11 12  1  0
 12 13  1  0
 13 14  1  0
 14 15  1  0
 15 16  1  0
 16 17  1  0
 11 18  2  0
 18 19  1  0
 19 20  1  0
 20 21  1  0
 21 22  1  0
 22 23  1  0
 23 24  2  0
 24 25  1  0
 25 26  2  0
 26 27  1  0
 27 28  2  0
 28 29  1  0
 19 30  2  0
  4 31  1  0
 31 32  2  0
 32  1  1  0
 30  9  1  0
 17 12  1  0
 29 20  1  0
 28 23  1  0
  1 33  1  0
  2 34  1  0
  3 35  1  0
  5 36  1  0
  5 37  1  0
  6 38  1  0
  6 39  1  0
  7 40  1  0
  7 41  1  0
  8 42  1  0
 10 43  1  0
 13 44  1  0
 13 45  1  0
 14 46  1  0
 14 47  1  0
 15 48  1  0
 16 49  1  0
 16 50  1  0
 17 51  1  0
 17 52  1  0
 21 53  1  0
 21 54  1  0
 22 55  1  0
 22 56  1  0
 24 57  1  0
 25 58  1  0
 26 59  1  0
 27 60  1  0
 29 61  1  0
 29 62  1  0
 31 63  1  0
 32 64  1  0
M  END
>  <smiles>  (44) 
c1ccc(CCCNc2cc(N3CCNCC3)nc(N3CCc4ccccc4C3)n2)cc1

>  <score_type>  (44) 
oracle

>  <origin>  (44) 
autodockgpu

>  <m_score__min__energy>  (44) 
-10.25

>  <m_primary>  (44) 
energy

>  <rmsd>  (44) 
2.6694149527871245

>  <m_score__min__rmsd>  (44) 
2.6694149527871245

>  <meeko>  (44) 
{"free_energy": -9.97, "intermolecular_energy": -12.06, "internal_energy": -1.17, "cluster_size": 50, "cluster_id": 1, "rank_in_cluster": 16}

>  <energy>  (44) 
-9.56

>  <cluster_rmsd>  (44) 
0.77

>  <cluster>  (44) 
1

$$$$

     RDKit          3D

 64 68  0  0  0  0  0  0  0  0999 V2000
  141.0880   71.5330  228.3450 C   0  0  0  0  0  0  0  0  0  0  0  0
  141.4320   72.2300  227.2150 C   0  0  0  0  0  0  0  0  0  0  0  0
  141.0800   71.8210  225.9540 C   0  0  0  0  0  0  0  0  0  0  0  0
  140.3430   70.6450  225.8470 C   0  0  0  0  0  0  0  0  0  0  0  0
  139.9510   70.1830  224.4990 C   0  0  0  0  0  0  0  0  0  0  0  0
  138.7220   70.8860  223.9610 C   0  0  0  0  0  0  0  0  0  0  0  0
  138.8800   71.2790  222.5100 C   0  0  0  0  0  0  0  0  0  0  0  0
  139.0640   72.6870  222.4080 N   0  0  0  0  0  0  0  0  0  0  0  0
  140.2170   73.3370  221.8950 C   0  0  0  0  0  0  0  0  0  0  0  0
  141.3100   72.6750  221.3820 C   0  0  0  0  0  0  0  0  0  0  0  0
  142.4220   73.3330  220.9010 C   0  0  0  0  0  0  0  0  0  0  0  0
  143.5590   72.6670  220.3670 N   0  0  0  0  0  0  0  0  0  0  0  0
  143.6040   71.2860  220.0000 C   0  0  0  0  0  0  0  0  0  0  0  0
  144.4770   71.0780  218.7680 C   0  0  0  0  0  0  0  0  0  0  0  0
  145.7950   71.6090  218.9330 N   0  0  0  0  0  0  0  0  0  0  0  0
  145.9380   72.4790  220.0770 C   0  0  0  0  0  0  0  0  0  0  0  0
  144.7890   73.4470  220.1740 C   0  0  0  0  0  0  0  0  0  0  0  0
  142.3870   74.6830  220.9580 N   0  0  0  0  0  0  0  0  0  0  0  0
  141.3510   75.3730  221.4450 C   0  0  0  0  0  0  0  0  0  0  0  0
  141.4080   76.7990  221.4630 N   0  0  0  0  0  0  0  0  0  0  0  0
  141.7650   77.4560  220.2300 C   0  0  0  0  0  0  0  0  0  0  0  0
  141.7310   78.9320  220.2320 C   0  0  0  0  0  0  0  0  0  0  0  0
  141.2940   79.5780  221.4740 C   0  0  0  0  0  0  0  0  0  0  0  0
  141.1790   80.9720  221.4490 C   0  0  0  0  0  0  0  0  0  0  0  0
  140.7650   81.6490  222.5980 C   0  0  0  0  0  0  0  0  0  0  0  0
  140.4650   80.9780  223.7700 C   0  0  0  0  0  0  0  0  0  0  0  0
  140.5920   79.6060  223.7470 C   0  0  0  0  0  0  0  0  0  0  0  0
  140.9970   78.9150  222.6290 C   0  0  0  0  0  0  0  0  0  0  0  0
  141.1030   77.4600  222.7050 C   0  0  0  0  0  0  0  0  0  0  0  0
  140.2990   74.6950  221.8990 N   0  0  0  0  0  0  0  0  0  0  0  0
  139.9960   69.9420  226.9770 C   0  0  0  0  0  0  0  0  0  0  0  0
  140.3490   70.3520  228.2540 C   0  0  0  0  0  0  0  0  0  0  0  0
  141.3971   71.9079  229.3319 H   0  0  0  0  0  0  0  0  0  0  0  0
  142.0150   73.1564  227.3246 H   0  0  0  0  0  0  0  0  0  0  0  0
  141.3684   72.3988  225.0635 H   0  0  0  0  0  0  0  0  0  0  0  0
  140.7883   70.3661  223.8095 H   0  0  0  0  0  0  0  0  0  0  0  0
  139.7071   69.1133  224.5783 H   0  0  0  0  0  0  0  0  0  0  0  0
  137.8585   70.2109  224.0534 H   0  0  0  0  0  0  0  0  0  0  0  0
  138.5748   71.8056  224.5464 H   0  0  0  0  0  0  0  0  0  0  0  0
  139.7551   70.7649  222.0858 H   0  0  0  0  0  0  0  0  0  0  0  0
  137.9750   70.9903  221.9554 H   0  0  0  0  0  0  0  0  0  0  0  0
  138.2830   73.3320  222.7390 H   0  0  0  0  0  0  0  0  0  0  0  0
  141.2953   71.5754  221.3548 H   0  0  0  0  0  0  0  0  0  0  0  0
  144.0179   70.7044  220.8369 H   0  0  0  0  0  0  0  0  0  0  0  0
  142.5824   70.9511  219.7670 H   0  0  0  0  0  0  0  0  0  0  0  0
  144.5541   69.9990  218.5687 H   0  0  0  0  0  0  0  0  0  0  0  0
  144.0046   71.6120  217.9303 H   0  0  0  0  0  0  0  0  0  0  0  0
  146.5570   70.9110  218.9320 H   0  0  0  0  0  0  0  0  0  0  0  0
  145.9696   71.8674  220.9908 H   0  0  0  0  0  0  0  0  0  0  0  0
  146.8684   73.0544  219.9620 H   0  0  0  0  0  0  0  0  0  0  0  0
  144.9409   74.1235  221.0280 H   0  0  0  0  0  0  0  0  0  0  0  0
  144.7195   74.0534  219.2589 H   0  0  0  0  0  0  0  0  0  0  0  0
  142.7883   77.1464  219.9713 H   0  0  0  0  0  0  0  0  0  0  0  0
  140.9958   77.1498  219.5057 H   0  0  0  0  0  0  0  0  0  0  0  0
  142.7474   79.2893  220.0099 H   0  0  0  0  0  0  0  0  0  0  0  0
  140.9744   79.2053  219.4817 H   0  0  0  0  0  0  0  0  0  0  0  0
  141.4130   81.5308  220.5309 H   0  0  0  0  0  0  0  0  0  0  0  0
  140.6750   82.7450  222.5705 H   0  0  0  0  0  0  0  0  0  0  0  0
  140.1413   81.5129  224.6750 H   0  0  0  0  0  0  0  0  0  0  0  0
  140.3597   79.0398  224.6611 H   0  0  0  0  0  0  0  0  0  0  0  0
  141.8979   77.2144  223.4246 H   0  0  0  0  0  0  0  0  0  0  0  0
  140.1086   77.0982  223.0056 H   0  0  0  0  0  0  0  0  0  0  0  0
  139.4140   69.0156  226.8632 H   0  0  0  0  0  0  0  0  0  0  0  0
  140.0621   69.7776  229.1472 H   0  0  0  0  0  0  0  0  0  0  0  0
  1  2  2  0
  2  3  1  0
  3  4  2  0
  4  5  1  0
  5  6  1  0
  6  7  1  0
  7  8  1  0
  8  9  1  0
  9 10  2  0
 10 11  1  0
 11 12  1  0
 12 13  1  0
 13 14  1  0
 14 15  1  0
 15 16  1  0
 16 17  1  0
 11 18  2  0
 18 19  1  0
 19 20  1  0
 20 21  1  0
 21 22  1  0
 22 23  1  0
 23 24  2  0
 24 25  1  0
 25 26  2  0
 26 27  1  0
 27 28  2  0
 28 29  1  0
 19 30  2  0
  4 31  1  0
 31 32  2  0
 32  1  1  0
 30  9  1  0
 17 12  1  0
 29 20  1  0
 28 23  1  0
  1 33  1  0
  2 34  1  0
  3 35  1  0
  5 36  1  0
  5 37  1  0
  6 38  1  0
  6 39  1  0
  7 40  1  0
  7 41  1  0
  8 42  1  0
 10 43  1  0
 13 44  1  0
 13 45  1  0
 14 46  1  0
 14 47  1  0
 15 48  1  0
 16 49  1  0
 16 50  1  0
 17 51  1  0
 17 52  1  0
 21 53  1  0
 21 54  1  0
 22 55  1  0
 22 56  1  0
 24 57  1  0
 25 58  1  0
 26 59  1  0
 27 60  1  0
 29 61  1  0
 29 62  1  0
 31 63  1  0
 32 64  1  0
M  END
>  <smiles>  (45) 
c1ccc(CCCNc2cc(N3CCNCC3)nc(N3CCc4ccccc4C3)n2)cc1

>  <score_type>  (45) 
oracle

>  <origin>  (45) 
autodockgpu

>  <m_score__min__energy>  (45) 
-10.25

>  <m_primary>  (45) 
energy

>  <rmsd>  (45) 
2.0958660642971205

>  <m_score__min__rmsd>  (45) 
2.0958660642971205

>  <meeko>  (45) 
{"free_energy": -10.01, "intermolecular_energy": -12.1, "internal_energy": -1.11, "cluster_size": 50, "cluster_id": 1, "rank_in_cluster": 13}

>  <energy>  (45) 
-9.51

>  <cluster_rmsd>  (45) 
0.88

>  <cluster>  (45) 
1

$$$$

     RDKit          3D

 64 68  0  0  0  0  0  0  0  0999 V2000
  142.1520   81.5340  222.9230 C   0  0  0  0  0  0  0  0  0  0  0  0
  141.4530   81.0460  221.8500 C   0  0  0  0  0  0  0  0  0  0  0  0
  141.0740   79.7320  221.7450 C   0  0  0  0  0  0  0  0  0  0  0  0
  141.4300   78.8810  222.7860 C   0  0  0  0  0  0  0  0  0  0  0  0
  141.0330   77.4600  222.6970 C   0  0  0  0  0  0  0  0  0  0  0  0
  139.5320   77.2600  222.6480 C   0  0  0  0  0  0  0  0  0  0  0  0
  139.0570   76.8540  221.2720 C   0  0  0  0  0  0  0  0  0  0  0  0
  138.8410   75.4470  221.2300 N   0  0  0  0  0  0  0  0  0  0  0  0
  139.8240   74.4500  221.4630 C   0  0  0  0  0  0  0  0  0  0  0  0
  141.0500   74.4170  220.8370 C   0  0  0  0  0  0  0  0  0  0  0  0
  141.9820   73.4280  221.0760 C   0  0  0  0  0  0  0  0  0  0  0  0
  143.2520   73.3780  220.4400 N   0  0  0  0  0  0  0  0  0  0  0  0
  144.2310   74.4190  220.4770 C   0  0  0  0  0  0  0  0  0  0  0  0
  145.6410   73.8400  220.5270 C   0  0  0  0  0  0  0  0  0  0  0  0
  145.8990   72.9310  219.4530 N   0  0  0  0  0  0  0  0  0  0  0  0
  144.7150   72.5200  218.7360 C   0  0  0  0  0  0  0  0  0  0  0  0
  143.5980   72.1680  219.6820 C   0  0  0  0  0  0  0  0  0  0  0  0
  141.6270   72.4780  221.9680 N   0  0  0  0  0  0  0  0  0  0  0  0
  140.4510   72.4640  222.6030 C   0  0  0  0  0  0  0  0  0  0  0  0
  140.1680   71.4160  223.5300 N   0  0  0  0  0  0  0  0  0  0  0  0
  139.4100   70.2940  223.0370 C   0  0  0  0  0  0  0  0  0  0  0  0
  139.2020   69.1730  223.9750 C   0  0  0  0  0  0  0  0  0  0  0  0
  139.8250   69.2970  225.2960 C   0  0  0  0  0  0  0  0  0  0  0  0
  139.7000   68.1980  226.1540 C   0  0  0  0  0  0  0  0  0  0  0  0
  140.2730   68.2500  227.4270 C   0  0  0  0  0  0  0  0  0  0  0  0
  140.9640   69.3640  227.8690 C   0  0  0  0  0  0  0  0  0  0  0  0
  141.0620   70.4210  226.9900 C   0  0  0  0  0  0  0  0  0  0  0  0
  140.5070   70.3950  225.7320 C   0  0  0  0  0  0  0  0  0  0  0  0
  140.6640   71.5670  224.8730 C   0  0  0  0  0  0  0  0  0  0  0  0
  139.5830   73.4390  222.3410 N   0  0  0  0  0  0  0  0  0  0  0  0
  142.1310   79.3650  223.8660 C   0  0  0  0  0  0  0  0  0  0  0  0
  142.5160   80.6920  223.9770 C   0  0  0  0  0  0  0  0  0  0  0  0
  142.4290   82.5981  222.9548 H   0  0  0  0  0  0  0  0  0  0  0  0
  141.1844   81.7378  221.0381 H   0  0  0  0  0  0  0  0  0  0  0  0
  140.5116   79.3662  220.8733 H   0  0  0  0  0  0  0  0  0  0  0  0
  141.4725   77.0310  221.7844 H   0  0  0  0  0  0  0  0  0  0  0  0
  141.3990   76.9615  223.6067 H   0  0  0  0  0  0  0  0  0  0  0  0
  139.2555   76.4731  223.3652 H   0  0  0  0  0  0  0  0  0  0  0  0
  139.0543   78.2177  222.9022 H   0  0  0  0  0  0  0  0  0  0  0  0
  138.1156   77.3746  221.0427 H   0  0  0  0  0  0  0  0  0  0  0  0
  139.8221   77.1255  220.5298 H   0  0  0  0  0  0  0  0  0  0  0  0
  137.8640   75.0850  221.0060 H   0  0  0  0  0  0  0  0  0  0  0  0
  141.2964   75.2114  220.1171 H   0  0  0  0  0  0  0  0  0  0  0  0
  144.1291   75.0411  219.5756 H   0  0  0  0  0  0  0  0  0  0  0  0
  144.0672   75.0228  221.3818 H   0  0  0  0  0  0  0  0  0  0  0  0
  146.3640   74.6670  220.4704 H   0  0  0  0  0  0  0  0  0  0  0  0
  145.7390   73.2804  221.4689 H   0  0  0  0  0  0  0  0  0  0  0  0
  146.6220   73.2340  218.7810 H   0  0  0  0  0  0  0  0  0  0  0  0
  144.3868   73.3431  218.0843 H   0  0  0  0  0  0  0  0  0  0  0  0
  144.9610   71.6278  218.1415 H   0  0  0  0  0  0  0  0  0  0  0  0
  142.7228   71.8194  219.1141 H   0  0  0  0  0  0  0  0  0  0  0  0
  143.9119   71.3643  220.3643 H   0  0  0  0  0  0  0  0  0  0  0  0
  138.4193   70.6664  222.7372 H   0  0  0  0  0  0  0  0  0  0  0  0
  140.0108   69.8768  222.2154 H   0  0  0  0  0  0  0  0  0  0  0  0
  138.1182   69.0616  224.1265 H   0  0  0  0  0  0  0  0  0  0  0  0
  139.6909   68.3072  223.5044 H   0  0  0  0  0  0  0  0  0  0  0  0
  139.1546   67.3000  225.8282 H   0  0  0  0  0  0  0  0  0  0  0  0
  140.1721   67.3823  228.0955 H   0  0  0  0  0  0  0  0  0  0  0  0
  141.4130   69.4042  228.8724 H   0  0  0  0  0  0  0  0  0  0  0  0
  141.6065   71.3224  227.3077 H   0  0  0  0  0  0  0  0  0  0  0  0
  140.1278   72.4057  225.3411 H   0  0  0  0  0  0  0  0  0  0  0  0
  141.7474   71.7334  224.7803 H   0  0  0  0  0  0  0  0  0  0  0  0
  142.3973   78.6697  224.6757 H   0  0  0  0  0  0  0  0  0  0  0  0
  143.0775   81.0620  224.8475 H   0  0  0  0  0  0  0  0  0  0  0  0
  1  2  2  0
  2  3  1  0
  3  4  2  0
  4  5  1  0
  5  6  1  0
  6  7  1  0
  7  8  1  0
  8  9  1  0
  9 10  2  0
 10 11  1  0
 11 12  1  0
 12 13  1  0
 13 14  1  0
 14 15  1  0
 15 16  1  0
 16 17  1  0
 11 18  2  0
 18 19  1  0
 19 20  1  0
 20 21  1  0
 21 22  1  0
 22 23  1  0
 23 24  2  0
 24 25  1  0
 25 26  2  0
 26 27  1  0
 27 28  2  0
 28 29  1  0
 19 30  2  0
  4 31  1  0
 31 32  2  0
 32  1  1  0
 30  9  1  0
 17 12  1  0
 29 20  1  0
 28 23  1  0
  1 33  1  0
  2 34  1  0
  3 35  1  0
  5 36  1  0
  5 37  1  0
  6 38  1  0
  6 39  1  0
  7 40  1  0
  7 41  1  0
  8 42  1  0
 10 43  1  0
 13 44  1  0
 13 45  1  0
 14 46  1  0
 14 47  1  0
 15 48  1  0
 16 49  1  0
 16 50  1  0
 17 51  1  0
 17 52  1  0
 21 53  1  0
 21 54  1  0
 22 55  1  0
 22 56  1  0
 24 57  1  0
 25 58  1  0
 26 59  1  0
 27 60  1  0
 29 61  1  0
 29 62  1  0
 31 63  1  0
 32 64  1  0
M  END
>  <smiles>  (46) 
c1ccc(CCCNc2cc(N3CCNCC3)nc(N3CCc4ccccc4C3)n2)cc1

>  <score_type>  (46) 
oracle

>  <origin>  (46) 
autodockgpu

>  <m_score__min__energy>  (46) 
-10.25

>  <m_primary>  (46) 
energy

>  <rmsd>  (46) 
9.434388510828272

>  <m_score__min__rmsd>  (46) 
9.434388510828272

>  <meeko>  (46) 
{"free_energy": -9.86, "intermolecular_energy": -11.95, "internal_energy": -1.14, "cluster_size": 50, "cluster_id": 1, "rank_in_cluster": 22}

>  <energy>  (46) 
-9.45

>  <cluster_rmsd>  (46) 
1.53

>  <cluster>  (46) 
1

$$$$

     RDKit          3D

 64 68  0  0  0  0  0  0  0  0999 V2000
  140.9670   71.5970  228.5070 C   0  0  0  0  0  0  0  0  0  0  0  0
  141.4870   72.2790  227.4370 C   0  0  0  0  0  0  0  0  0  0  0  0
  141.2770   71.8930  226.1380 C   0  0  0  0  0  0  0  0  0  0  0  0
  140.5010   70.7580  225.9260 C   0  0  0  0  0  0  0  0  0  0  0  0
  140.2600   70.3220  224.5350 C   0  0  0  0  0  0  0  0  0  0  0  0
  140.1810   71.4730  223.5530 C   0  0  0  0  0  0  0  0  0  0  0  0
  138.9480   71.3950  222.6830 C   0  0  0  0  0  0  0  0  0  0  0  0
  139.1110   72.2260  221.5380 N   0  0  0  0  0  0  0  0  0  0  0  0
  140.0540   73.2770  221.4040 C   0  0  0  0  0  0  0  0  0  0  0  0
  141.2680   73.1460  220.7670 C   0  0  0  0  0  0  0  0  0  0  0  0
  142.1710   74.1840  220.6630 C   0  0  0  0  0  0  0  0  0  0  0  0
  143.4270   74.0680  220.0080 N   0  0  0  0  0  0  0  0  0  0  0  0
  144.6500   74.6470  220.4690 C   0  0  0  0  0  0  0  0  0  0  0  0
  145.8330   73.7330  220.1710 C   0  0  0  0  0  0  0  0  0  0  0  0
  145.9200   73.3840  218.7860 N   0  0  0  0  0  0  0  0  0  0  0  0
  144.7360   73.7040  218.0250 C   0  0  0  0  0  0  0  0  0  0  0  0
  143.4870   73.2950  218.7600 C   0  0  0  0  0  0  0  0  0  0  0  0
  141.8000   75.3550  221.2250 N   0  0  0  0  0  0  0  0  0  0  0  0
  140.6340   75.5350  221.8540 C   0  0  0  0  0  0  0  0  0  0  0  0
  140.3330   76.8120  222.4170 N   0  0  0  0  0  0  0  0  0  0  0  0
  141.4500   77.6590  222.7540 C   0  0  0  0  0  0  0  0  0  0  0  0
  141.1280   79.0120  223.2480 C   0  0  0  0  0  0  0  0  0  0  0  0
  139.7070   79.3720  223.3040 C   0  0  0  0  0  0  0  0  0  0  0  0
  139.4070   80.6830  223.6900 C   0  0  0  0  0  0  0  0  0  0  0  0
  138.0730   81.0900  223.7610 C   0  0  0  0  0  0  0  0  0  0  0  0
  137.0320   80.2310  223.4600 C   0  0  0  0  0  0  0  0  0  0  0  0
  137.3760   78.9500  223.0840 C   0  0  0  0  0  0  0  0  0  0  0  0
  138.6810   78.5240  223.0060 C   0  0  0  0  0  0  0  0  0  0  0  0
  138.9440   77.1460  222.5980 C   0  0  0  0  0  0  0  0  0  0  0  0
  139.7940   74.5050  221.9300 N   0  0  0  0  0  0  0  0  0  0  0  0
  139.9770   70.0710  226.9960 C   0  0  0  0  0  0  0  0  0  0  0  0
  140.1850   70.4570  228.3110 C   0  0  0  0  0  0  0  0  0  0  0  0
  141.1677   71.9512  229.5289 H   0  0  0  0  0  0  0  0  0  0  0  0
  142.0982   73.1732  227.6287 H   0  0  0  0  0  0  0  0  0  0  0  0
  141.7051   72.4583  225.2971 H   0  0  0  0  0  0  0  0  0  0  0  0
  141.0820   69.6579  224.2296 H   0  0  0  0  0  0  0  0  0  0  0  0
  139.2864   69.8103  224.5173 H   0  0  0  0  0  0  0  0  0  0  0  0
  140.1589   72.4181  224.1154 H   0  0  0  0  0  0  0  0  0  0  0  0
  141.0622   71.4192  222.8968 H   0  0  0  0  0  0  0  0  0  0  0  0
  138.7943   70.3547  222.3601 H   0  0  0  0  0  0  0  0  0  0  0  0
  138.0755   71.7376  223.2587 H   0  0  0  0  0  0  0  0  0  0  0  0
  138.4800   72.0650  220.6940 H   0  0  0  0  0  0  0  0  0  0  0  0
  141.5284   72.1739  220.3229 H   0  0  0  0  0  0  0  0  0  0  0  0
  144.8044   75.6117  219.9635 H   0  0  0  0  0  0  0  0  0  0  0  0
  144.5822   74.7891  221.5577 H   0  0  0  0  0  0  0  0  0  0  0  0
  146.7596   74.2484  220.4639 H   0  0  0  0  0  0  0  0  0  0  0  0
  145.6897   72.8036  220.7417 H   0  0  0  0  0  0  0  0  0  0  0  0
  146.7550   73.7390  218.2920 H   0  0  0  0  0  0  0  0  0  0  0  0
  144.7074   74.7889  217.8458 H   0  0  0  0  0  0  0  0  0  0  0  0
  144.7752   73.1536  217.0734 H   0  0  0  0  0  0  0  0  0  0  0  0
  142.6022   73.5109  218.1432 H   0  0  0  0  0  0  0  0  0  0  0  0
  143.5041   72.2166  218.9763 H   0  0  0  0  0  0  0  0  0  0  0  0
  142.0323   77.1483  223.5351 H   0  0  0  0  0  0  0  0  0  0  0  0
  141.9902   77.8163  221.8088 H   0  0  0  0  0  0  0  0  0  0  0  0
  141.5347   79.1006  224.2662 H   0  0  0  0  0  0  0  0  0  0  0  0
  141.5721   79.7009  222.5144 H   0  0  0  0  0  0  0  0  0  0  0  0
  140.2154   81.3874  223.9356 H   0  0  0  0  0  0  0  0  0  0  0  0
  137.8441   82.1222  224.0647 H   0  0  0  0  0  0  0  0  0  0  0  0
  135.9820   80.5536  223.5177 H   0  0  0  0  0  0  0  0  0  0  0  0
  136.5736   78.2396  222.8362 H   0  0  0  0  0  0  0  0  0  0  0  0
  138.5318   76.4787  223.3693 H   0  0  0  0  0  0  0  0  0  0  0  0
  138.4713   77.0253  221.6121 H   0  0  0  0  0  0  0  0  0  0  0  0
  139.3668   69.1770  226.7999 H   0  0  0  0  0  0  0  0  0  0  0  0
  139.7571   69.8955  229.1546 H   0  0  0  0  0  0  0  0  0  0  0  0
  1  2  2  0
  2  3  1  0
  3  4  2  0
  4  5  1  0
  5  6  1  0
  6  7  1  0
  7  8  1  0
  8  9  1  0
  9 10  2  0
 10 11  1  0
 11 12  1  0
 12 13  1  0
 13 14  1  0
 14 15  1  0
 15 16  1  0
 16 17  1  0
 11 18  2  0
 18 19  1  0
 19 20  1  0
 20 21  1  0
 21 22  1  0
 22 23  1  0
 23 24  2  0
 24 25  1  0
 25 26  2  0
 26 27  1  0
 27 28  2  0
 28 29  1  0
 19 30  2  0
  4 31  1  0
 31 32  2  0
 32  1  1  0
 30  9  1  0
 17 12  1  0
 29 20  1  0
 28 23  1  0
  1 33  1  0
  2 34  1  0
  3 35  1  0
  5 36  1  0
  5 37  1  0
  6 38  1  0
  6 39  1  0
  7 40  1  0
  7 41  1  0
  8 42  1  0
 10 43  1  0
 13 44  1  0
 13 45  1  0
 14 46  1  0
 14 47  1  0
 15 48  1  0
 16 49  1  0
 16 50  1  0
 17 51  1  0
 17 52  1  0
 21 53  1  0
 21 54  1  0
 22 55  1  0
 22 56  1  0
 24 57  1  0
 25 58  1  0
 26 59  1  0
 27 60  1  0
 29 61  1  0
 29 62  1  0
 31 63  1  0
 32 64  1  0
M  END
>  <smiles>  (47) 
c1ccc(CCCNc2cc(N3CCNCC3)nc(N3CCc4ccccc4C3)n2)cc1

>  <score_type>  (47) 
oracle

>  <origin>  (47) 
autodockgpu

>  <m_score__min__energy>  (47) 
-10.25

>  <m_primary>  (47) 
energy

>  <rmsd>  (47) 
2.2296841287281897

>  <m_score__min__rmsd>  (47) 
2.2296841287281897

>  <meeko>  (47) 
{"free_energy": -9.61, "intermolecular_energy": -11.7, "internal_energy": -1.09, "cluster_size": 50, "cluster_id": 1, "rank_in_cluster": 43}

>  <energy>  (47) 
-9.43

>  <cluster_rmsd>  (47) 
1.59

>  <cluster>  (47) 
1

$$$$

     RDKit          3D

 64 68  0  0  0  0  0  0  0  0999 V2000
  139.5430   67.7350  227.3150 C   0  0  0  0  0  0  0  0  0  0  0  0
  139.2980   68.9640  227.8700 C   0  0  0  0  0  0  0  0  0  0  0  0
  139.8990   70.1140  227.4260 C   0  0  0  0  0  0  0  0  0  0  0  0
  140.7930   69.9970  226.3650 C   0  0  0  0  0  0  0  0  0  0  0  0
  141.4540   71.2220  225.8680 C   0  0  0  0  0  0  0  0  0  0  0  0
  140.6930   71.8990  224.7470 C   0  0  0  0  0  0  0  0  0  0  0  0
  139.9560   70.9050  223.8790 C   0  0  0  0  0  0  0  0  0  0  0  0
  139.9240   71.3670  222.5330 N   0  0  0  0  0  0  0  0  0  0  0  0
  140.5590   72.5380  222.0440 C   0  0  0  0  0  0  0  0  0  0  0  0
  141.7250   72.5330  221.3110 C   0  0  0  0  0  0  0  0  0  0  0  0
  142.3270   73.6880  220.8580 C   0  0  0  0  0  0  0  0  0  0  0  0
  143.5280   73.7020  220.0990 N   0  0  0  0  0  0  0  0  0  0  0  0
  144.7670   74.2670  220.5330 C   0  0  0  0  0  0  0  0  0  0  0  0
  145.9480   73.4440  220.0310 C   0  0  0  0  0  0  0  0  0  0  0  0
  145.9320   73.2710  218.6110 N   0  0  0  0  0  0  0  0  0  0  0  0
  144.6810   73.6360  217.9900 C   0  0  0  0  0  0  0  0  0  0  0  0
  143.5090   73.0920  218.7620 C   0  0  0  0  0  0  0  0  0  0  0  0
  141.7060   74.8460  221.1740 N   0  0  0  0  0  0  0  0  0  0  0  0
  140.5740   74.9070  221.8820 C   0  0  0  0  0  0  0  0  0  0  0  0
  139.9940   76.1790  222.1660 N   0  0  0  0  0  0  0  0  0  0  0  0
  138.5580   76.2320  222.2880 C   0  0  0  0  0  0  0  0  0  0  0  0
  137.9740   77.5320  222.6730 C   0  0  0  0  0  0  0  0  0  0  0  0
  138.9160   78.6240  222.9360 C   0  0  0  0  0  0  0  0  0  0  0  0
  138.3670   79.8310  223.3840 C   0  0  0  0  0  0  0  0  0  0  0  0
  139.2100   80.9110  223.6550 C   0  0  0  0  0  0  0  0  0  0  0  0
  140.5810   80.8240  223.4910 C   0  0  0  0  0  0  0  0  0  0  0  0
  141.0750   79.6160  223.0480 C   0  0  0  0  0  0  0  0  0  0  0  0
  140.2670   78.5370  222.7750 C   0  0  0  0  0  0  0  0  0  0  0  0
  140.8870   77.2990  222.3080 C   0  0  0  0  0  0  0  0  0  0  0  0
  140.0290   73.7650  222.2990 N   0  0  0  0  0  0  0  0  0  0  0  0
  141.0420   68.7660  225.8040 C   0  0  0  0  0  0  0  0  0  0  0  0
  140.4360   67.6020  226.2500 C   0  0  0  0  0  0  0  0  0  0  0  0
  139.0316   66.8457  227.7121 H   0  0  0  0  0  0  0  0  0  0  0  0
  138.5885   69.0309  228.7079 H   0  0  0  0  0  0  0  0  0  0  0  0
  139.6837   71.0884  227.8889 H   0  0  0  0  0  0  0  0  0  0  0  0
  141.5494   71.9311  226.7035 H   0  0  0  0  0  0  0  0  0  0  0  0
  142.4329   70.9239  225.4644 H   0  0  0  0  0  0  0  0  0  0  0  0
  139.9640   72.5971  225.1842 H   0  0  0  0  0  0  0  0  0  0  0  0
  141.4211   72.4272  224.1139 H   0  0  0  0  0  0  0  0  0  0  0  0
  140.4708   69.9337  223.9191 H   0  0  0  0  0  0  0  0  0  0  0  0
  138.9258   70.7954  224.2487 H   0  0  0  0  0  0  0  0  0  0  0  0
  139.3820   70.8020  221.8090 H   0  0  0  0  0  0  0  0  0  0  0  0
  142.1960   71.5668  221.0770 H   0  0  0  0  0  0  0  0  0  0  0  0
  144.8512   75.2921  220.1430 H   0  0  0  0  0  0  0  0  0  0  0  0
  144.7845   74.2706  221.6329 H   0  0  0  0  0  0  0  0  0  0  0  0
  146.8798   73.9558  220.3134 H   0  0  0  0  0  0  0  0  0  0  0  0
  145.8789   72.4466  220.4897 H   0  0  0  0  0  0  0  0  0  0  0  0
  146.7130   73.7160  218.1030 H   0  0  0  0  0  0  0  0  0  0  0  0
  144.6067   74.7328  217.9511 H   0  0  0  0  0  0  0  0  0  0  0  0
  144.6583   73.2086  216.9767 H   0  0  0  0  0  0  0  0  0  0  0  0
  142.5710   73.3479  218.2475 H   0  0  0  0  0  0  0  0  0  0  0  0
  143.5753   71.9967  218.8390 H   0  0  0  0  0  0  0  0  0  0  0  0
  138.1299   75.9491  221.3150 H   0  0  0  0  0  0  0  0  0  0  0  0
  138.3121   75.5481  223.1137 H   0  0  0  0  0  0  0  0  0  0  0  0
  137.3097   77.8538  221.8574 H   0  0  0  0  0  0  0  0  0  0  0  0
  137.4677   77.3491  223.6323 H   0  0  0  0  0  0  0  0  0  0  0  0
  137.2800   79.9282  223.5216 H   0  0  0  0  0  0  0  0  0  0  0  0
  138.7722   81.8562  224.0083 H   0  0  0  0  0  0  0  0  0  0  0  0
  141.2434   81.6761  223.7035 H   0  0  0  0  0  0  0  0  0  0  0  0
  142.1608   79.5104  222.9069 H   0  0  0  0  0  0  0  0  0  0  0  0
  141.3430   77.4965  221.3267 H   0  0  0  0  0  0  0  0  0  0  0  0
  141.6138   77.0121  223.0822 H   0  0  0  0  0  0  0  0  0  0  0  0
  141.7520   68.7027  224.9662 H   0  0  0  0  0  0  0  0  0  0  0  0
  140.6473   66.6256  225.7895 H   0  0  0  0  0  0  0  0  0  0  0  0
  1  2  2  0
  2  3  1  0
  3  4  2  0
  4  5  1  0
  5  6  1  0
  6  7  1  0
  7  8  1  0
  8  9  1  0
  9 10  2  0
 10 11  1  0
 11 12  1  0
 12 13  1  0
 13 14  1  0
 14 15  1  0
 15 16  1  0
 16 17  1  0
 11 18  2  0
 18 19  1  0
 19 20  1  0
 20 21  1  0
 21 22  1  0
 22 23  1  0
 23 24  2  0
 24 25  1  0
 25 26  2  0
 26 27  1  0
 27 28  2  0
 28 29  1  0
 19 30  2  0
  4 31  1  0
 31 32  2  0
 32  1  1  0
 30  9  1  0
 17 12  1  0
 29 20  1  0
 28 23  1  0
  1 33  1  0
  2 34  1  0
  3 35  1  0
  5 36  1  0
  5 37  1  0
  6 38  1  0
  6 39  1  0
  7 40  1  0
  7 41  1  0
  8 42  1  0
 10 43  1  0
 13 44  1  0
 13 45  1  0
 14 46  1  0
 14 47  1  0
 15 48  1  0
 16 49  1  0
 16 50  1  0
 17 51  1  0
 17 52  1  0
 21 53  1  0
 21 54  1  0
 22 55  1  0
 22 56  1  0
 24 57  1  0
 25 58  1  0
 26 59  1  0
 27 60  1  0
 29 61  1  0
 29 62  1  0
 31 63  1  0
 32 64  1  0
M  END
>  <smiles>  (48) 
c1ccc(CCCNc2cc(N3CCNCC3)nc(N3CCc4ccccc4C3)n2)cc1

>  <score_type>  (48) 
oracle

>  <origin>  (48) 
autodockgpu

>  <m_score__min__energy>  (48) 
-10.25

>  <m_primary>  (48) 
energy

>  <rmsd>  (48) 
2.8086869145577644

>  <m_score__min__rmsd>  (48) 
2.8086869145577644

>  <meeko>  (48) 
{"free_energy": -9.79, "intermolecular_energy": -11.88, "internal_energy": -1.03, "cluster_size": 50, "cluster_id": 1, "rank_in_cluster": 31}

>  <energy>  (48) 
-9.37

>  <cluster_rmsd>  (48) 
0.54

>  <cluster>  (48) 
1

$$$$

     RDKit          3D

 64 68  0  0  0  0  0  0  0  0999 V2000
  141.0680   69.2930  228.3910 C   0  0  0  0  0  0  0  0  0  0  0  0
  141.0570   70.6550  228.2330 C   0  0  0  0  0  0  0  0  0  0  0  0
  140.8830   71.2600  227.0150 C   0  0  0  0  0  0  0  0  0  0  0  0
  140.7130   70.4320  225.9100 C   0  0  0  0  0  0  0  0  0  0  0  0
  140.5230   71.0610  224.5850 C   0  0  0  0  0  0  0  0  0  0  0  0
  139.0680   71.1660  224.1780 C   0  0  0  0  0  0  0  0  0  0  0  0
  138.8270   70.6290  222.7860 C   0  0  0  0  0  0  0  0  0  0  0  0
  138.7710   71.7050  221.8540 N   0  0  0  0  0  0  0  0  0  0  0  0
  139.7540   72.7150  221.6960 C   0  0  0  0  0  0  0  0  0  0  0  0
  141.0390   72.4780  221.2610 C   0  0  0  0  0  0  0  0  0  0  0  0
  141.9780   73.4790  221.1280 C   0  0  0  0  0  0  0  0  0  0  0  0
  143.3080   73.2530  220.6790 N   0  0  0  0  0  0  0  0  0  0  0  0
  144.2810   74.2750  220.4470 C   0  0  0  0  0  0  0  0  0  0  0  0
  145.6750   73.7970  220.8350 C   0  0  0  0  0  0  0  0  0  0  0  0
  146.0410   72.5800  220.1790 N   0  0  0  0  0  0  0  0  0  0  0  0
  144.9380   71.9050  219.5380 C   0  0  0  0  0  0  0  0  0  0  0  0
  143.7270   71.8670  220.4310 C   0  0  0  0  0  0  0  0  0  0  0  0
  141.5690   74.7260  221.4510 N   0  0  0  0  0  0  0  0  0  0  0  0
  140.3350   75.0100  221.8770 C   0  0  0  0  0  0  0  0  0  0  0  0
  139.9980   76.3600  222.1940 N   0  0  0  0  0  0  0  0  0  0  0  0
  138.5970   76.6660  222.3510 C   0  0  0  0  0  0  0  0  0  0  0  0
  138.2630   78.0420  222.7700 C   0  0  0  0  0  0  0  0  0  0  0  0
  139.3910   78.9430  223.0260 C   0  0  0  0  0  0  0  0  0  0  0  0
  139.0760   80.2190  223.5050 C   0  0  0  0  0  0  0  0  0  0  0  0
  140.1040   81.1270  223.7720 C   0  0  0  0  0  0  0  0  0  0  0  0
  141.4330   80.8000  223.5730 C   0  0  0  0  0  0  0  0  0  0  0  0
  141.6950   79.5320  223.1010 C   0  0  0  0  0  0  0  0  0  0  0  0
  140.7010   78.6200  222.8310 C   0  0  0  0  0  0  0  0  0  0  0  0
  141.0800   77.3000  222.3310 C   0  0  0  0  0  0  0  0  0  0  0  0
  139.4620   74.0110  221.9900 N   0  0  0  0  0  0  0  0  0  0  0  0
  140.7230   69.0650  226.0620 C   0  0  0  0  0  0  0  0  0  0  0  0
  140.8980   68.4490  227.2910 C   0  0  0  0  0  0  0  0  0  0  0  0
  141.2119   68.8613  229.3925 H   0  0  0  0  0  0  0  0  0  0  0  0
  141.1936   71.2893  229.1213 H   0  0  0  0  0  0  0  0  0  0  0  0
  140.8780   72.3555  226.9155 H   0  0  0  0  0  0  0  0  0  0  0  0
  140.9520   72.0735  224.6138 H   0  0  0  0  0  0  0  0  0  0  0  0
  141.0245   70.4209  223.8442 H   0  0  0  0  0  0  0  0  0  0  0  0
  138.4580   70.5913  224.8904 H   0  0  0  0  0  0  0  0  0  0  0  0
  138.7907   72.2305  224.1832 H   0  0  0  0  0  0  0  0  0  0  0  0
  139.6471   69.9498  222.5101 H   0  0  0  0  0  0  0  0  0  0  0  0
  137.8713   70.0846  222.7683 H   0  0  0  0  0  0  0  0  0  0  0  0
  137.9260   71.7800  221.2080 H   0  0  0  0  0  0  0  0  0  0  0  0
  141.3284   71.4471  221.0091 H   0  0  0  0  0  0  0  0  0  0  0  0
  144.2758   74.5416  219.3798 H   0  0  0  0  0  0  0  0  0  0  0  0
  144.0254   75.1498  221.0629 H   0  0  0  0  0  0  0  0  0  0  0  0
  146.4028   74.5760  220.5641 H   0  0  0  0  0  0  0  0  0  0  0  0
  145.6719   73.6041  221.9180 H   0  0  0  0  0  0  0  0  0  0  0  0
  146.8320   72.6540  219.5180 H   0  0  0  0  0  0  0  0  0  0  0  0
  144.6824   72.4376  218.6101 H   0  0  0  0  0  0  0  0  0  0  0  0
  145.2425   70.8704  219.3215 H   0  0  0  0  0  0  0  0  0  0  0  0
  142.9150   71.3134  219.9369 H   0  0  0  0  0  0  0  0  0  0  0  0
  143.9644   71.3620  221.3789 H   0  0  0  0  0  0  0  0  0  0  0  0
  138.1052   76.4830  221.3842 H   0  0  0  0  0  0  0  0  0  0  0  0
  138.2498   76.0209  223.1716 H   0  0  0  0  0  0  0  0  0  0  0  0
  137.6495   78.4928  221.9761 H   0  0  0  0  0  0  0  0  0  0  0  0
  137.7527   77.9342  223.7385 H   0  0  0  0  0  0  0  0  0  0  0  0
  138.0269   80.5054  223.6702 H   0  0  0  0  0  0  0  0  0  0  0  0
  139.8496   82.1281  224.1504 H   0  0  0  0  0  0  0  0  0  0  0  0
  142.2411   81.5167  223.7812 H   0  0  0  0  0  0  0  0  0  0  0  0
  142.7414   79.2371  222.9333 H   0  0  0  0  0  0  0  0  0  0  0  0
  141.5433   77.4314  221.3420 H   0  0  0  0  0  0  0  0  0  0  0  0
  141.7600   76.8736  223.0831 H   0  0  0  0  0  0  0  0  0  0  0  0
  140.5864   68.4345  225.1710 H   0  0  0  0  0  0  0  0  0  0  0  0
  140.9028   67.3539  227.3948 H   0  0  0  0  0  0  0  0  0  0  0  0
  1  2  2  0
  2  3  1  0
  3  4  2  0
  4  5  1  0
  5  6  1  0
  6  7  1  0
  7  8  1  0
  8  9  1  0
  9 10  2  0
 10 11  1  0
 11 12  1  0
 12 13  1  0
 13 14  1  0
 14 15  1  0
 15 16  1  0
 16 17  1  0
 11 18  2  0
 18 19  1  0
 19 20  1  0
 20 21  1  0
 21 22  1  0
 22 23  1  0
 23 24  2  0
 24 25  1  0
 25 26  2  0
 26 27  1  0
 27 28  2  0
 28 29  1  0
 19 30  2  0
  4 31  1  0
 31 32  2  0
 32  1  1  0
 30  9  1  0
 17 12  1  0
 29 20  1  0
 28 23  1  0
  1 33  1  0
  2 34  1  0
  3 35  1  0
  5 36  1  0
  5 37  1  0
  6 38  1  0
  6 39  1  0
  7 40  1  0
  7 41  1  0
  8 42  1  0
 10 43  1  0
 13 44  1  0
 13 45  1  0
 14 46  1  0
 14 47  1  0
 15 48  1  0
 16 49  1  0
 16 50  1  0
 17 51  1  0
 17 52  1  0
 21 53  1  0
 21 54  1  0
 22 55  1  0
 22 56  1  0
 24 57  1  0
 25 58  1  0
 26 59  1  0
 27 60  1  0
 29 61  1  0
 29 62  1  0
 31 63  1  0
 32 64  1  0
M  END
>  <smiles>  (49) 
c1ccc(CCCNc2cc(N3CCNCC3)nc(N3CCc4ccccc4C3)n2)cc1

>  <score_type>  (49) 
oracle

>  <origin>  (49) 
autodockgpu

>  <m_score__min__energy>  (49) 
-10.25

>  <m_primary>  (49) 
energy

>  <rmsd>  (49) 
1.9304964126254927

>  <m_score__min__rmsd>  (49) 
1.9304964126254927

>  <meeko>  (49) 
{"free_energy": -9.51, "intermolecular_energy": -11.6, "internal_energy": -1.16, "cluster_size": 50, "cluster_id": 1, "rank_in_cluster": 45}

>  <energy>  (49) 
-9.07

>  <cluster_rmsd>  (49) 
1.51

>  <cluster>  (49) 
1

$$$$

     RDKit          3D

 64 68  0  0  0  0  0  0  0  0999 V2000
  140.3550   68.2440  228.5220 C   0  0  0  0  0  0  0  0  0  0  0  0
  141.0920   67.7550  227.4750 C   0  0  0  0  0  0  0  0  0  0  0  0
  141.4460   68.5200  226.3940 C   0  0  0  0  0  0  0  0  0  0  0  0
  141.0250   69.8460  226.3850 C   0  0  0  0  0  0  0  0  0  0  0  0
  141.3930   70.6920  225.2300 C   0  0  0  0  0  0  0  0  0  0  0  0
  140.2320   71.4960  224.6840 C   0  0  0  0  0  0  0  0  0  0  0  0
  139.4000   70.7000  223.7040 C   0  0  0  0  0  0  0  0  0  0  0  0
  139.1900   71.4610  222.5180 N   0  0  0  0  0  0  0  0  0  0  0  0
  140.0070   72.5270  222.0620 C   0  0  0  0  0  0  0  0  0  0  0  0
  141.1770   72.3530  221.3570 C   0  0  0  0  0  0  0  0  0  0  0  0
  141.9580   73.4080  220.9350 C   0  0  0  0  0  0  0  0  0  0  0  0
  143.1670   73.2480  220.2060 N   0  0  0  0  0  0  0  0  0  0  0  0
  144.2330   74.1990  220.1640 C   0  0  0  0  0  0  0  0  0  0  0  0
  145.5870   73.5000  220.1110 C   0  0  0  0  0  0  0  0  0  0  0  0
  145.6820   72.5730  219.0250 N   0  0  0  0  0  0  0  0  0  0  0  0
  144.4160   72.2680  218.4010 C   0  0  0  0  0  0  0  0  0  0  0  0
  143.3480   72.0140  219.4300 C   0  0  0  0  0  0  0  0  0  0  0  0
  141.5110   74.6440  221.2530 N   0  0  0  0  0  0  0  0  0  0  0  0
  140.3830   74.8670  221.9340 C   0  0  0  0  0  0  0  0  0  0  0  0
  139.9940   76.2100  222.2220 N   0  0  0  0  0  0  0  0  0  0  0  0
  138.5800   76.4870  222.2650 C   0  0  0  0  0  0  0  0  0  0  0  0
  138.1860   77.8560  222.6540 C   0  0  0  0  0  0  0  0  0  0  0  0
  139.2710   78.7790  223.0010 C   0  0  0  0  0  0  0  0  0  0  0  0
  138.8920   80.0490  223.4520 C   0  0  0  0  0  0  0  0  0  0  0  0
  139.8770   80.9760  223.8010 C   0  0  0  0  0  0  0  0  0  0  0  0
  141.2250   80.6760  223.7110 C   0  0  0  0  0  0  0  0  0  0  0  0
  141.5490   79.4140  223.2620 C   0  0  0  0  0  0  0  0  0  0  0  0
  140.5990   78.4820  222.9130 C   0  0  0  0  0  0  0  0  0  0  0  0
  141.0430   77.1710  222.4460 C   0  0  0  0  0  0  0  0  0  0  0  0
  139.6620   73.8170  222.3210 N   0  0  0  0  0  0  0  0  0  0  0  0
  140.2840   70.3430  227.4330 C   0  0  0  0  0  0  0  0  0  0  0  0
  139.9250   69.5730  228.5280 C   0  0  0  0  0  0  0  0  0  0  0  0
  140.1000   67.5844  229.3646 H   0  0  0  0  0  0  0  0  0  0  0  0
  141.4133   66.7033  227.5034 H   0  0  0  0  0  0  0  0  0  0  0  0
  142.0390   68.1023  225.5670 H   0  0  0  0  0  0  0  0  0  0  0  0
  142.1832   71.3893  225.5453 H   0  0  0  0  0  0  0  0  0  0  0  0
  141.7304   70.0197  224.4274 H   0  0  0  0  0  0  0  0  0  0  0  0
  139.5913   71.8078  225.5220 H   0  0  0  0  0  0  0  0  0  0  0  0
  140.6433   72.3659  224.1510 H   0  0  0  0  0  0  0  0  0  0  0  0
  139.9264   69.7678  223.4511 H   0  0  0  0  0  0  0  0  0  0  0  0
  138.4275   70.4648  224.1610 H   0  0  0  0  0  0  0  0  0  0  0  0
  138.3510   71.2280  221.9030 H   0  0  0  0  0  0  0  0  0  0  0  0
  141.5023   71.3291  221.1205 H   0  0  0  0  0  0  0  0  0  0  0  0
  144.1181   74.8289  219.2696 H   0  0  0  0  0  0  0  0  0  0  0  0
  144.1910   74.8130  221.0757 H   0  0  0  0  0  0  0  0  0  0  0  0
  146.3728   74.2610  219.9952 H   0  0  0  0  0  0  0  0  0  0  0  0
  145.7080   72.9335  221.0461 H   0  0  0  0  0  0  0  0  0  0  0  0
  146.3770   72.8130  218.2980 H   0  0  0  0  0  0  0  0  0  0  0  0
  144.1126   73.1175  217.7715 H   0  0  0  0  0  0  0  0  0  0  0  0
  144.5375   71.3586  217.7941 H   0  0  0  0  0  0  0  0  0  0  0  0
  142.4053   71.7441  218.9316 H   0  0  0  0  0  0  0  0  0  0  0  0
  143.6416   71.1851  220.0908 H   0  0  0  0  0  0  0  0  0  0  0  0
  138.1716   76.2945  221.2620 H   0  0  0  0  0  0  0  0  0  0  0  0
  138.1805   75.8346  223.0554 H   0  0  0  0  0  0  0  0  0  0  0  0
  137.6310   78.2953  221.8120 H   0  0  0  0  0  0  0  0  0  0  0  0
  137.6004   77.7373  223.5776 H   0  0  0  0  0  0  0  0  0  0  0  0
  137.8275   80.3147  223.5309 H   0  0  0  0  0  0  0  0  0  0  0  0
  139.5729   81.9714  224.1570 H   0  0  0  0  0  0  0  0  0  0  0  0
  141.9991   81.4082  223.9842 H   0  0  0  0  0  0  0  0  0  0  0  0
  142.6112   79.1405  223.1792 H   0  0  0  0  0  0  0  0  0  0  0  0
  141.5823   77.3127  221.4978 H   0  0  0  0  0  0  0  0  0  0  0  0
  141.6682   76.7570  223.2508 H   0  0  0  0  0  0  0  0  0  0  0  0
  139.9635   71.3948  227.4001 H   0  0  0  0  0  0  0  0  0  0  0  0
  139.3329   69.9865  229.3577 H   0  0  0  0  0  0  0  0  0  0  0  0
  1  2  2  0
  2  3  1  0
  3  4  2  0
  4  5  1  0
  5  6  1  0
  6  7  1  0
  7  8  1  0
  8  9  1  0
  9 10  2  0
 10 11  1  0
 11 12  1  0
 12 13  1  0
 13 14  1  0
 14 15  1  0
 15 16  1  0
 16 17  1  0
 11 18  2  0
 18 19  1  0
 19 20  1  0
 20 21  1  0
 21 22  1  0
 22 23  1  0
 23 24  2  0
 24 25  1  0
 25 26  2  0
 26 27  1  0
 27 28  2  0
 28 29  1  0
 19 30  2  0
  4 31  1  0
 31 32  2  0
 32  1  1  0
 30  9  1  0
 17 12  1  0
 29 20  1  0
 28 23  1  0
  1 33  1  0
  2 34  1  0
  3 35  1  0
  5 36  1  0
  5 37  1  0
  6 38  1  0
  6 39  1  0
  7 40  1  0
  7 41  1  0
  8 42  1  0
 10 43  1  0
 13 44  1  0
 13 45  1  0
 14 46  1  0
 14 47  1  0
 15 48  1  0
 16 49  1  0
 16 50  1  0
 17 51  1  0
 17 52  1  0
 21 53  1  0
 21 54  1  0
 22 55  1  0
 22 56  1  0
 24 57  1  0
 25 58  1  0
 26 59  1  0
 27 60  1  0
 29 61  1  0
 29 62  1  0
 31 63  1  0
 32 64  1  0
M  END
>  <smiles>  (50) 
c1ccc(CCCNc2cc(N3CCNCC3)nc(N3CCc4ccccc4C3)n2)cc1

>  <score_type>  (50) 
oracle

>  <origin>  (50) 
autodockgpu

>  <m_score__min__energy>  (50) 
-10.25

>  <m_primary>  (50) 
energy

>  <rmsd>  (50) 
3.0640220665253786

>  <m_score__min__rmsd>  (50) 
3.0640220665253786

>  <meeko>  (50) 
{"free_energy": -9.73, "intermolecular_energy": -11.81, "internal_energy": -1.1, "cluster_size": 50, "cluster_id": 1, "rank_in_cluster": 37}

>  <energy>  (50) 
-8.57

>  <cluster_rmsd>  (50) 
1.63

>  <cluster>  (50) 
1

$$$$
