
     RDKit          3D

 64 67  0  0  0  0  0  0  0  0999 V2000
  138.8110   66.7500  222.3960 C   0  0  0  0  0  0  0  0  0  0  0  0
  138.1840   68.0420  222.8470 C   0  0  0  0  0  0  0  0  0  0  0  0
  138.9360   68.5360  224.0280 C   0  0  0  0  0  0  0  0  0  0  0  0
  139.1830   67.6390  224.9060 O   0  0  0  0  0  0  0  0  0  0  0  0
  139.3490   69.8920  224.1860 N   0  0  0  0  0  0  0  0  0  0  0  0
  139.8980   70.4340  225.3750 C   0  0  0  0  0  0  0  0  0  0  0  0
  139.5870   69.9040  226.6370 C   0  0  0  0  0  0  0  0  0  0  0  0
  140.1240   70.4150  227.7990 C   0  0  0  0  0  0  0  0  0  0  0  0
  140.9970   71.4750  227.7950 C   0  0  0  0  0  0  0  0  0  0  0  0
  141.3200   72.0170  226.5750 C   0  0  0  0  0  0  0  0  0  0  0  0
  140.7750   71.4980  225.3960 C   0  0  0  0  0  0  0  0  0  0  0  0
  139.2010   70.7360  223.0000 C   0  0  0  0  0  0  0  0  0  0  0  0
  140.4790   71.1430  222.3650 C   0  0  0  0  0  0  0  0  0  0  0  0
  140.5630   72.4690  221.7090 C   0  0  0  0  0  0  0  0  0  0  0  0
  139.3700   73.3120  221.8940 N   0  0  0  0  0  0  0  0  0  0  0  0
  139.6020   74.6860  222.0390 C   0  0  0  0  0  0  0  0  0  0  0  0
  140.8600   75.0100  221.9740 O   0  0  0  0  0  0  0  0  0  0  0  0
  138.6780   75.7850  222.2470 C   0  0  2  0  0  0  0  0  0  0  0  0
  137.8550   76.2670  221.1090 C   0  0  0  0  0  0  0  0  0  0  0  0
  137.5180   77.7120  221.4460 C   0  0  0  0  0  0  0  0  0  0  0  0
  138.2580   77.9770  222.7190 C   0  0  0  0  0  0  0  0  0  0  0  0
  139.3710   77.0000  222.6890 N   0  0  0  0  0  0  0  0  0  0  0  0
  140.3280   77.4930  221.7190 C   0  0  0  0  0  0  0  0  0  0  0  0
  141.1840   78.5610  222.3170 C   0  0  0  0  0  0  0  0  0  0  0  0
  141.4170   78.6720  223.6710 C   0  0  0  0  0  0  0  0  0  0  0  0
  142.2140   79.6740  224.2130 C   0  0  0  0  0  0  0  0  0  0  0  0
  142.7850   80.5900  223.3160 C   0  0  0  0  0  0  0  0  0  0  0  0
  142.5340   80.4520  221.9750 C   0  0  0  0  0  0  0  0  0  0  0  0
  141.7460   79.4620  221.4280 C   0  0  0  0  0  0  0  0  0  0  0  0
  141.4720   79.3500  219.7120 Cl  0  0  0  0  0  0  0  0  0  0  0  0
  138.1290   72.6130  221.9010 C   0  0  0  0  0  0  0  0  0  0  0  0
  138.1360   71.7740  223.1910 C   0  0  0  0  0  0  0  0  0  0  0  0
  139.0994   66.1557  223.2756 H   0  0  0  0  0  0  0  0  0  0  0  0
  138.0879   66.1829  221.7914 H   0  0  0  0  0  0  0  0  0  0  0  0
  139.7039   66.9672  221.7914 H   0  0  0  0  0  0  0  0  0  0  0  0
  138.2353   68.7836  222.0362 H   0  0  0  0  0  0  0  0  0  0  0  0
  137.1282   67.8802  223.1097 H   0  0  0  0  0  0  0  0  0  0  0  0
  138.8924   69.0535  226.7007 H   0  0  0  0  0  0  0  0  0  0  0  0
  139.8443   69.9592  228.7603 H   0  0  0  0  0  0  0  0  0  0  0  0
  141.4197   71.8731  228.7292 H   0  0  0  0  0  0  0  0  0  0  0  0
  142.0148   72.8683  226.5246 H   0  0  0  0  0  0  0  0  0  0  0  0
  141.0596   71.9608  224.4396 H   0  0  0  0  0  0  0  0  0  0  0  0
  138.7989   70.1144  222.1864 H   0  0  0  0  0  0  0  0  0  0  0  0
  141.2501   71.1215  223.1491 H   0  0  0  0  0  0  0  0  0  0  0  0
  140.6018   70.4297  221.5366 H   0  0  0  0  0  0  0  0  0  0  0  0
  141.4306   73.0039  222.1227 H   0  0  0  0  0  0  0  0  0  0  0  0
  140.6524   72.2815  220.6288 H   0  0  0  0  0  0  0  0  0  0  0  0
  138.0097   75.3090  222.9796 H   0  0  0  0  0  0  0  0  0  0  0  0
  138.4253   76.2126  220.1699 H   0  0  0  0  0  0  0  0  0  0  0  0
  136.9514   75.6560  220.9665 H   0  0  0  0  0  0  0  0  0  0  0  0
  137.8600   78.3880  220.6485 H   0  0  0  0  0  0  0  0  0  0  0  0
  136.4354   77.8785  221.5468 H   0  0  0  0  0  0  0  0  0  0  0  0
  138.6415   79.0077  222.7423 H   0  0  0  0  0  0  0  0  0  0  0  0
  137.6227   77.8717  223.6108 H   0  0  0  0  0  0  0  0  0  0  0  0
  140.9672   76.6613  221.3876 H   0  0  0  0  0  0  0  0  0  0  0  0
  139.7793   77.9167  220.8649 H   0  0  0  0  0  0  0  0  0  0  0  0
  140.9545   77.9395  224.3489 H   0  0  0  0  0  0  0  0  0  0  0  0
  142.3892   79.7457  225.2966 H   0  0  0  0  0  0  0  0  0  0  0  0
  143.4243   81.4064  223.6832 H   0  0  0  0  0  0  0  0  0  0  0  0
  142.9922   81.1803  221.2897 H   0  0  0  0  0  0  0  0  0  0  0  0
  137.2884   73.3224  221.9086 H   0  0  0  0  0  0  0  0  0  0  0  0
  138.0101   71.9842  221.0063 H   0  0  0  0  0  0  0  0  0  0  0  0
  138.3709   72.4081  224.0586 H   0  0  0  0  0  0  0  0  0  0  0  0
  137.1542   71.3154  223.3800 H   0  0  0  0  0  0  0  0  0  0  0  0
  1  2  1  0
  2  3  1  0
  3  4  2  0
  3  5  1  0
  5  6  1  0
  6  7  2  0
  7  8  1  0
  8  9  2  0
  9 10  1  0
 10 11  2  0
  5 12  1  0
 12 13  1  0
 13 14  1  0
 14 15  1  0
 15 16  1  0
 16 17  2  0
 16 18  1  0
 18 19  1  0
 19 20  1  0
 20 21  1  0
 21 22  1  0
 22 23  1  0
 23 24  1  0
 24 25  2  0
 25 26  1  0
 26 27  2  0
 27 28  1  0
 28 29  2  0
 29 30  1  0
 15 31  1  0
 31 32  1  0
 11  6  1  0
 32 12  1  0
 22 18  1  0
 29 24  1  0
  1 33  1  0
  1 34  1  0
  1 35  1  0
  2 36  1  0
  2 37  1  0
  7 38  1  0
  8 39  1  0
  9 40  1  0
 10 41  1  0
 11 42  1  0
 12 43  1  0
 13 44  1  0
 13 45  1  0
 14 46  1  0
 14 47  1  0
 18 48  1  1
 19 49  1  0
 19 50  1  0
 20 51  1  0
 20 52  1  0
 21 53  1  0
 21 54  1  0
 23 55  1  0
 23 56  1  0
 25 57  1  0
 26 58  1  0
 27 59  1  0
 28 60  1  0
 31 61  1  0
 31 62  1  0
 32 63  1  0
 32 64  1  0
M  END
>  <smiles>  (1) 
CCC(=O)N(c1ccccc1)C1CCN(C(=O)[C@@H]2CCCN2Cc2ccccc2Cl)CC1

>  <score_type>  (1) 
oracle

>  <origin>  (1) 
autodockgpu

>  <m_score__min__energy>  (1) 
-9.4600000000000009

>  <m_primary>  (1) 
energy

>  <rmsd>  (1) 
8.14019108809582

>  <m_score__min__rmsd>  (1) 
8.14019108809582

>  <meeko>  (1) 
{"free_energy": -9.46, "intermolecular_energy": -11.55, "internal_energy": -1.71, "cluster_size": 20, "cluster_id": 1, "rank_in_cluster": 1}

>  <energy>  (1) 
-9.46

>  <cluster_rmsd>  (1) 
0.0

>  <cluster>  (1) 
1

$$$$

     RDKit          3D

 64 67  0  0  0  0  0  0  0  0999 V2000
  142.6020   73.0360  220.4850 C   0  0  0  0  0  0  0  0  0  0  0  0
  142.6500   74.5150  220.7550 C   0  0  0  0  0  0  0  0  0  0  0  0
  141.2920   74.9610  221.1550 C   0  0  0  0  0  0  0  0  0  0  0  0
  140.7040   74.1760  221.9770 O   0  0  0  0  0  0  0  0  0  0  0  0
  140.6800   76.1540  220.6700 N   0  0  0  0  0  0  0  0  0  0  0  0
  141.3200   77.1080  219.8390 C   0  0  0  0  0  0  0  0  0  0  0  0
  141.2450   78.4830  220.1070 C   0  0  0  0  0  0  0  0  0  0  0  0
  141.8720   79.4190  219.3130 C   0  0  0  0  0  0  0  0  0  0  0  0
  142.6100   79.0660  218.2100 C   0  0  0  0  0  0  0  0  0  0  0  0
  142.7020   77.7260  217.9210 C   0  0  0  0  0  0  0  0  0  0  0  0
  142.0650   76.7760  218.7270 C   0  0  0  0  0  0  0  0  0  0  0  0
  139.2840   76.3480  221.0620 C   0  0  0  0  0  0  0  0  0  0  0  0
  138.4150   76.9180  220.0030 C   0  0  0  0  0  0  0  0  0  0  0  0
  137.2990   77.8100  220.3960 C   0  0  0  0  0  0  0  0  0  0  0  0
  137.2710   78.1500  221.8280 N   0  0  0  0  0  0  0  0  0  0  0  0
  136.8570   79.4510  222.1450 C   0  0  0  0  0  0  0  0  0  0  0  0
  136.5460   80.1650  221.1040 O   0  0  0  0  0  0  0  0  0  0  0  0
  136.7260   80.1140  223.4280 C   0  0  2  0  0  0  0  0  0  0  0  0
  136.1380   81.4770  223.4840 C   0  0  0  0  0  0  0  0  0  0  0  0
  136.6980   82.1000  224.7540 C   0  0  0  0  0  0  0  0  0  0  0  0
  137.6450   81.0710  225.2850 C   0  0  0  0  0  0  0  0  0  0  0  0
  138.0260   80.2910  224.0840 N   0  0  0  0  0  0  0  0  0  0  0  0
  138.9380   81.1220  223.3230 C   0  0  0  0  0  0  0  0  0  0  0  0
  140.2850   80.4850  223.2370 C   0  0  0  0  0  0  0  0  0  0  0  0
  140.6160   79.3240  223.9030 C   0  0  0  0  0  0  0  0  0  0  0  0
  141.8780   78.7450  223.8150 C   0  0  0  0  0  0  0  0  0  0  0  0
  142.8230   79.3960  223.0080 C   0  0  0  0  0  0  0  0  0  0  0  0
  142.4630   80.5490  222.3580 C   0  0  0  0  0  0  0  0  0  0  0  0
  141.2160   81.1300  222.4380 C   0  0  0  0  0  0  0  0  0  0  0  0
  140.8300   82.5970  221.5830 Cl  0  0  0  0  0  0  0  0  0  0  0  0
  137.6700   77.1030  222.7070 C   0  0  0  0  0  0  0  0  0  0  0  0
  139.1740   76.9010  222.4520 C   0  0  0  0  0  0  0  0  0  0  0  0
  142.5843   72.4894  221.4394 H   0  0  0  0  0  0  0  0  0  0  0  0
  141.6957   72.7976  219.9091 H   0  0  0  0  0  0  0  0  0  0  0  0
  143.4910   72.7394  219.9091 H   0  0  0  0  0  0  0  0  0  0  0  0
  143.3633   74.7218  221.5665 H   0  0  0  0  0  0  0  0  0  0  0  0
  142.9752   75.0541  219.8530 H   0  0  0  0  0  0  0  0  0  0  0  0
  140.6674   78.8250  220.9785 H   0  0  0  0  0  0  0  0  0  0  0  0
  141.7781   80.4841  219.5714 H   0  0  0  0  0  0  0  0  0  0  0  0
  143.1060   79.8232  217.5850 H   0  0  0  0  0  0  0  0  0  0  0  0
  143.2826   77.3965  217.0467 H   0  0  0  0  0  0  0  0  0  0  0  0
  142.1632   75.7132  218.4608 H   0  0  0  0  0  0  0  0  0  0  0  0
  138.8127   75.3580  221.1498 H   0  0  0  0  0  0  0  0  0  0  0  0
  139.0649   77.4927  219.3267 H   0  0  0  0  0  0  0  0  0  0  0  0
  137.9128   76.0398  219.5711 H   0  0  0  0  0  0  0  0  0  0  0  0
  137.3860   78.7441  219.8217 H   0  0  0  0  0  0  0  0  0  0  0  0
  136.3686   77.2629  220.1838 H   0  0  0  0  0  0  0  0  0  0  0  0
  136.0268   79.4145  223.9094 H   0  0  0  0  0  0  0  0  0  0  0  0
  136.4372   82.0629  222.6024 H   0  0  0  0  0  0  0  0  0  0  0  0
  135.0383   81.4509  223.4887 H   0  0  0  0  0  0  0  0  0  0  0  0
  137.2279   83.0369  224.5274 H   0  0  0  0  0  0  0  0  0  0  0  0
  135.9106   82.3590  225.4772 H   0  0  0  0  0  0  0  0  0  0  0  0
  138.5265   81.5467  225.7397 H   0  0  0  0  0  0  0  0  0  0  0  0
  137.1988   80.4479  226.0740 H   0  0  0  0  0  0  0  0  0  0  0  0
  138.5385   81.2604  222.3075 H   0  0  0  0  0  0  0  0  0  0  0  0
  139.0378   82.0933  223.8295 H   0  0  0  0  0  0  0  0  0  0  0  0
  139.8530   78.8368  224.5279 H   0  0  0  0  0  0  0  0  0  0  0  0
  142.1238   77.8182  224.3541 H   0  0  0  0  0  0  0  0  0  0  0  0
  143.8384   78.9876  222.8980 H   0  0  0  0  0  0  0  0  0  0  0  0
  143.2201   81.0427  221.7311 H   0  0  0  0  0  0  0  0  0  0  0  0
  137.4931   77.3917  223.7536 H   0  0  0  0  0  0  0  0  0  0  0  0
  137.0987   76.1803  222.5275 H   0  0  0  0  0  0  0  0  0  0  0  0
  139.7069   77.8605  222.5255 H   0  0  0  0  0  0  0  0  0  0  0  0
  139.6221   76.2230  223.1933 H   0  0  0  0  0  0  0  0  0  0  0  0
  1  2  1  0
  2  3  1  0
  3  4  2  0
  3  5  1  0
  5  6  1  0
  6  7  2  0
  7  8  1  0
  8  9  2  0
  9 10  1  0
 10 11  2  0
  5 12  1  0
 12 13  1  0
 13 14  1  0
 14 15  1  0
 15 16  1  0
 16 17  2  0
 16 18  1  0
 18 19  1  0
 19 20  1  0
 20 21  1  0
 21 22  1  0
 22 23  1  0
 23 24  1  0
 24 25  2  0
 25 26  1  0
 26 27  2  0
 27 28  1  0
 28 29  2  0
 29 30  1  0
 15 31  1  0
 31 32  1  0
 11  6  1  0
 32 12  1  0
 22 18  1  0
 29 24  1  0
  1 33  1  0
  1 34  1  0
  1 35  1  0
  2 36  1  0
  2 37  1  0
  7 38  1  0
  8 39  1  0
  9 40  1  0
 10 41  1  0
 11 42  1  0
 12 43  1  0
 13 44  1  0
 13 45  1  0
 14 46  1  0
 14 47  1  0
 18 48  1  1
 19 49  1  0
 19 50  1  0
 20 51  1  0
 20 52  1  0
 21 53  1  0
 21 54  1  0
 23 55  1  0
 23 56  1  0
 25 57  1  0
 26 58  1  0
 27 59  1  0
 28 60  1  0
 31 61  1  0
 31 62  1  0
 32 63  1  0
 32 64  1  0
M  END
>  <smiles>  (2) 
CCC(=O)N(c1ccccc1)C1CCN(C(=O)[C@@H]2CCCN2Cc2ccccc2Cl)CC1

>  <score_type>  (2) 
oracle

>  <origin>  (2) 
autodockgpu

>  <m_score__min__energy>  (2) 
-9.4600000000000009

>  <m_primary>  (2) 
energy

>  <rmsd>  (2) 
8.208902899648933

>  <m_score__min__rmsd>  (2) 
8.208902899648933

>  <meeko>  (2) 
{"free_energy": -6.86, "intermolecular_energy": -8.95, "internal_energy": -3.5, "cluster_size": 22, "cluster_id": 2, "rank_in_cluster": 14}

>  <energy>  (2) 
-9.4

>  <cluster_rmsd>  (2) 
0.1

>  <cluster>  (2) 
1

$$$$

     RDKit          3D

 64 67  0  0  0  0  0  0  0  0999 V2000
  136.2510   69.2900  224.3540 C   0  0  0  0  0  0  0  0  0  0  0  0
  137.2370   68.5710  223.4730 C   0  0  0  0  0  0  0  0  0  0  0  0
  138.5860   68.7050  224.0780 C   0  0  0  0  0  0  0  0  0  0  0  0
  139.0850   67.6030  224.4970 O   0  0  0  0  0  0  0  0  0  0  0  0
  139.2770   69.9460  224.1930 N   0  0  0  0  0  0  0  0  0  0  0  0
  139.9220   70.4040  225.3690 C   0  0  0  0  0  0  0  0  0  0  0  0
  139.9790   69.6180  226.5300 C   0  0  0  0  0  0  0  0  0  0  0  0
  140.6140   70.0470  227.6760 C   0  0  0  0  0  0  0  0  0  0  0  0
  141.2320   71.2710  227.7540 C   0  0  0  0  0  0  0  0  0  0  0  0
  141.1930   72.0650  226.6330 C   0  0  0  0  0  0  0  0  0  0  0  0
  140.5480   71.6290  225.4700 C   0  0  0  0  0  0  0  0  0  0  0  0
  139.3190   70.7570  222.9760 C   0  0  0  0  0  0  0  0  0  0  0  0
  140.6810   71.1490  222.5370 C   0  0  0  0  0  0  0  0  0  0  0  0
  140.8690   72.4560  221.8660 C   0  0  0  0  0  0  0  0  0  0  0  0
  139.6650   73.3020  221.8400 N   0  0  0  0  0  0  0  0  0  0  0  0
  139.8750   74.6800  221.9810 C   0  0  0  0  0  0  0  0  0  0  0  0
  141.1280   75.0040  222.1050 O   0  0  0  0  0  0  0  0  0  0  0  0
  138.9320   75.7820  222.0120 C   0  0  2  0  0  0  0  0  0  0  0  0
  138.2770   76.2140  220.7510 C   0  0  0  0  0  0  0  0  0  0  0  0
  137.8980   77.6690  220.9770 C   0  0  0  0  0  0  0  0  0  0  0  0
  138.4540   77.9910  222.3290 C   0  0  0  0  0  0  0  0  0  0  0  0
  139.5580   77.0180  222.4950 N   0  0  0  0  0  0  0  0  0  0  0  0
  140.6430   77.4740  221.6490 C   0  0  0  0  0  0  0  0  0  0  0  0
  141.3420   78.6390  222.2680 C   0  0  0  0  0  0  0  0  0  0  0  0
  141.6230   78.7230  223.6150 C   0  0  0  0  0  0  0  0  0  0  0  0
  142.2720   79.8170  224.1770 C   0  0  0  0  0  0  0  0  0  0  0  0
  142.6390   80.8560  223.3090 C   0  0  0  0  0  0  0  0  0  0  0  0
  142.3440   80.7430  221.9740 C   0  0  0  0  0  0  0  0  0  0  0  0
  141.7030   79.6630  221.4080 C   0  0  0  0  0  0  0  0  0  0  0  0
  141.3620   79.5890  219.7010 Cl  0  0  0  0  0  0  0  0  0  0  0  0
  138.4350   72.6010  221.6720 C   0  0  0  0  0  0  0  0  0  0  0  0
  138.2390   71.7980  222.9690 C   0  0  0  0  0  0  0  0  0  0  0  0
  136.5013   69.1075  225.4095 H   0  0  0  0  0  0  0  0  0  0  0  0
  136.2947   70.3697  224.1482 H   0  0  0  0  0  0  0  0  0  0  0  0
  135.2364   68.9183  224.1482 H   0  0  0  0  0  0  0  0  0  0  0  0
  136.9654   67.5075  223.4014 H   0  0  0  0  0  0  0  0  0  0  0  0
  137.2297   69.0055  222.4625 H   0  0  0  0  0  0  0  0  0  0  0  0
  139.5014   68.6271  226.5256 H   0  0  0  0  0  0  0  0  0  0  0  0
  140.6261   69.3876  228.5564 H   0  0  0  0  0  0  0  0  0  0  0  0
  141.7364   71.6015  228.6740 H   0  0  0  0  0  0  0  0  0  0  0  0
  141.6740   73.0541  226.6500 H   0  0  0  0  0  0  0  0  0  0  0  0
  140.5399   72.2950  224.5946 H   0  0  0  0  0  0  0  0  0  0  0  0
  139.0486   70.1117  222.1272 H   0  0  0  0  0  0  0  0  0  0  0  0
  141.3205   71.1508  223.4320 H   0  0  0  0  0  0  0  0  0  0  0  0
  140.9298   70.4134  221.7579 H   0  0  0  0  0  0  0  0  0  0  0  0
  141.6634   73.0035  222.3944 H   0  0  0  0  0  0  0  0  0  0  0  0
  141.1239   72.2385  220.8183 H   0  0  0  0  0  0  0  0  0  0  0  0
  138.1676   75.3326  222.6629 H   0  0  0  0  0  0  0  0  0  0  0  0
  138.9732   76.1238  219.9041 H   0  0  0  0  0  0  0  0  0  0  0  0
  137.4013   75.5938  220.5091 H   0  0  0  0  0  0  0  0  0  0  0  0
  138.3482   78.3129  220.2072 H   0  0  0  0  0  0  0  0  0  0  0  0
  136.8120   77.8340  220.9193 H   0  0  0  0  0  0  0  0  0  0  0  0
  138.8326   79.0233  222.3618 H   0  0  0  0  0  0  0  0  0  0  0  0
  137.7006   77.9215  223.1275 H   0  0  0  0  0  0  0  0  0  0  0  0
  141.3623   76.6533  221.5107 H   0  0  0  0  0  0  0  0  0  0  0  0
  140.2279   77.7856  220.6792 H   0  0  0  0  0  0  0  0  0  0  0  0
  141.3222   77.8925  224.2706 H   0  0  0  0  0  0  0  0  0  0  0  0
  142.4880   79.8654  225.2545 H   0  0  0  0  0  0  0  0  0  0  0  0
  143.1556   81.7480  223.6930 H   0  0  0  0  0  0  0  0  0  0  0  0
  142.6390   81.5699  221.3113 H   0  0  0  0  0  0  0  0  0  0  0  0
  137.6054   73.3091  221.5292 H   0  0  0  0  0  0  0  0  0  0  0  0
  138.4551   71.9481  220.7870 H   0  0  0  0  0  0  0  0  0  0  0  0
  138.3366   72.4563  223.8449 H   0  0  0  0  0  0  0  0  0  0  0  0
  137.2389   71.3423  223.0143 H   0  0  0  0  0  0  0  0  0  0  0  0
  1  2  1  0
  2  3  1  0
  3  4  2  0
  3  5  1  0
  5  6  1  0
  6  7  2  0
  7  8  1  0
  8  9  2  0
  9 10  1  0
 10 11  2  0
  5 12  1  0
 12 13  1  0
 13 14  1  0
 14 15  1  0
 15 16  1  0
 16 17  2  0
 16 18  1  0
 18 19  1  0
 19 20  1  0
 20 21  1  0
 21 22  1  0
 22 23  1  0
 23 24  1  0
 24 25  2  0
 25 26  1  0
 26 27  2  0
 27 28  1  0
 28 29  2  0
 29 30  1  0
 15 31  1  0
 31 32  1  0
 11  6  1  0
 32 12  1  0
 22 18  1  0
 29 24  1  0
  1 33  1  0
  1 34  1  0
  1 35  1  0
  2 36  1  0
  2 37  1  0
  7 38  1  0
  8 39  1  0
  9 40  1  0
 10 41  1  0
 11 42  1  0
 12 43  1  0
 13 44  1  0
 13 45  1  0
 14 46  1  0
 14 47  1  0
 18 48  1  1
 19 49  1  0
 19 50  1  0
 20 51  1  0
 20 52  1  0
 21 53  1  0
 21 54  1  0
 23 55  1  0
 23 56  1  0
 25 57  1  0
 26 58  1  0
 27 59  1  0
 28 60  1  0
 31 61  1  0
 31 62  1  0
 32 63  1  0
 32 64  1  0
M  END
>  <smiles>  (3) 
CCC(=O)N(c1ccccc1)C1CCN(C(=O)[C@@H]2CCCN2Cc2ccccc2Cl)CC1

>  <score_type>  (3) 
oracle

>  <origin>  (3) 
autodockgpu

>  <m_score__min__energy>  (3) 
-9.4600000000000009

>  <m_primary>  (3) 
energy

>  <rmsd>  (3) 
8.207703475094519

>  <m_score__min__rmsd>  (3) 
8.207703475094519

>  <meeko>  (3) 
{"free_energy": -8.84, "intermolecular_energy": -10.93, "internal_energy": -1.76, "cluster_size": 20, "cluster_id": 1, "rank_in_cluster": 15}

>  <energy>  (3) 
-9.36

>  <cluster_rmsd>  (3) 
0.2

>  <cluster>  (3) 
1

$$$$

     RDKit          3D

 64 67  0  0  0  0  0  0  0  0999 V2000
  143.6490   74.5230  220.4570 C   0  0  0  0  0  0  0  0  0  0  0  0
  142.2550   74.1700  220.0150 C   0  0  0  0  0  0  0  0  0  0  0  0
  141.2930   74.8950  220.8830 C   0  0  0  0  0  0  0  0  0  0  0  0
  141.0400   74.3070  221.9910 O   0  0  0  0  0  0  0  0  0  0  0  0
  140.6920   76.1380  220.5250 N   0  0  0  0  0  0  0  0  0  0  0  0
  141.3350   77.1620  219.7860 C   0  0  0  0  0  0  0  0  0  0  0  0
  142.0810   76.8780  218.6320 C   0  0  0  0  0  0  0  0  0  0  0  0
  142.7000   77.8670  217.8980 C   0  0  0  0  0  0  0  0  0  0  0  0
  142.6280   79.1920  218.2510 C   0  0  0  0  0  0  0  0  0  0  0  0
  141.9050   79.5020  219.3770 C   0  0  0  0  0  0  0  0  0  0  0  0
  141.2760   78.4990  220.1220 C   0  0  0  0  0  0  0  0  0  0  0  0
  139.3020   76.3080  220.9500 C   0  0  0  0  0  0  0  0  0  0  0  0
  138.4050   76.8880  219.9200 C   0  0  0  0  0  0  0  0  0  0  0  0
  137.2880   77.7590  220.3520 C   0  0  0  0  0  0  0  0  0  0  0  0
  137.2840   78.0710  221.7910 N   0  0  0  0  0  0  0  0  0  0  0  0
  136.8630   79.3600  222.1430 C   0  0  0  0  0  0  0  0  0  0  0  0
  136.5220   80.0910  221.1220 O   0  0  0  0  0  0  0  0  0  0  0  0
  136.7500   79.9970  223.4410 C   0  0  2  0  0  0  0  0  0  0  0  0
  136.1470   81.3510  223.5360 C   0  0  0  0  0  0  0  0  0  0  0  0
  136.7260   81.9570  224.8050 C   0  0  0  0  0  0  0  0  0  0  0  0
  137.6970   80.9290  225.2960 C   0  0  0  0  0  0  0  0  0  0  0  0
  138.0620   80.1780  224.0730 N   0  0  0  0  0  0  0  0  0  0  0  0
  138.9470   81.0350  223.3090 C   0  0  0  0  0  0  0  0  0  0  0  0
  140.3160   80.4430  223.2300 C   0  0  0  0  0  0  0  0  0  0  0  0
  140.6770   79.2860  223.8850 C   0  0  0  0  0  0  0  0  0  0  0  0
  141.9580   78.7490  223.8050 C   0  0  0  0  0  0  0  0  0  0  0  0
  142.8900   79.4400  223.0160 C   0  0  0  0  0  0  0  0  0  0  0  0
  142.4990   80.5900  222.3770 C   0  0  0  0  0  0  0  0  0  0  0  0
  141.2330   81.1280  222.4510 C   0  0  0  0  0  0  0  0  0  0  0  0
  140.8080   82.5930  221.6100 Cl  0  0  0  0  0  0  0  0  0  0  0  0
  137.7140   77.0110  222.6420 C   0  0  0  0  0  0  0  0  0  0  0  0
  139.2140   76.8330  222.3520 C   0  0  0  0  0  0  0  0  0  0  0  0
  143.6934   74.5342  221.5560 H   0  0  0  0  0  0  0  0  0  0  0  0
  144.3569   73.7758  220.0691 H   0  0  0  0  0  0  0  0  0  0  0  0
  143.9160   75.5171  220.0691 H   0  0  0  0  0  0  0  0  0  0  0  0
  142.1098   74.4705  218.9669 H   0  0  0  0  0  0  0  0  0  0  0  0
  142.0952   73.0847  220.0961 H   0  0  0  0  0  0  0  0  0  0  0  0
  142.1748   75.8327  218.3026 H   0  0  0  0  0  0  0  0  0  0  0  0
  143.2701   77.5856  217.0003 H   0  0  0  0  0  0  0  0  0  0  0  0
  143.1279   79.9717  217.6576 H   0  0  0  0  0  0  0  0  0  0  0  0
  141.8196   80.5511  219.6966 H   0  0  0  0  0  0  0  0  0  0  0  0
  140.7076   78.7898  221.0178 H   0  0  0  0  0  0  0  0  0  0  0  0
  138.8445   75.3108  221.0293 H   0  0  0  0  0  0  0  0  0  0  0  0
  139.0344   77.4828  219.2418 H   0  0  0  0  0  0  0  0  0  0  0  0
  137.9038   76.0123  219.4819 H   0  0  0  0  0  0  0  0  0  0  0  0
  137.3535   78.7051  219.7946 H   0  0  0  0  0  0  0  0  0  0  0  0
  136.3598   77.2054  220.1473 H   0  0  0  0  0  0  0  0  0  0  0  0
  136.0689   79.2801  223.9228 H   0  0  0  0  0  0  0  0  0  0  0  0
  136.4200   81.9572  222.6596 H   0  0  0  0  0  0  0  0  0  0  0  0
  135.0481   81.3107  223.5638 H   0  0  0  0  0  0  0  0  0  0  0  0
  137.2396   82.9046  224.5852 H   0  0  0  0  0  0  0  0  0  0  0  0
  135.9513   82.1929  225.5495 H   0  0  0  0  0  0  0  0  0  0  0  0
  138.5820   81.4067  225.7417 H   0  0  0  0  0  0  0  0  0  0  0  0
  137.2749   80.2850  226.0815 H   0  0  0  0  0  0  0  0  0  0  0  0
  138.5456   81.1537  222.2918 H   0  0  0  0  0  0  0  0  0  0  0  0
  139.0124   82.0123  223.8096 H   0  0  0  0  0  0  0  0  0  0  0  0
  139.9232   78.7666  224.4949 H   0  0  0  0  0  0  0  0  0  0  0  0
  142.2279   77.8244  224.3363 H   0  0  0  0  0  0  0  0  0  0  0  0
  143.9190   79.0656  222.9111 H   0  0  0  0  0  0  0  0  0  0  0  0
  143.2460   81.1170  221.7652 H   0  0  0  0  0  0  0  0  0  0  0  0
  137.5556   77.2772  223.6975 H   0  0  0  0  0  0  0  0  0  0  0  0
  137.1501   76.0849  222.4566 H   0  0  0  0  0  0  0  0  0  0  0  0
  139.7365   77.7976  222.4329 H   0  0  0  0  0  0  0  0  0  0  0  0
  139.6857   76.1467  223.0707 H   0  0  0  0  0  0  0  0  0  0  0  0
  1  2  1  0
  2  3  1  0
  3  4  2  0
  3  5  1  0
  5  6  1  0
  6  7  2  0
  7  8  1  0
  8  9  2  0
  9 10  1  0
 10 11  2  0
  5 12  1  0
 12 13  1  0
 13 14  1  0
 14 15  1  0
 15 16  1  0
 16 17  2  0
 16 18  1  0
 18 19  1  0
 19 20  1  0
 20 21  1  0
 21 22  1  0
 22 23  1  0
 23 24  1  0
 24 25  2  0
 25 26  1  0
 26 27  2  0
 27 28  1  0
 28 29  2  0
 29 30  1  0
 15 31  1  0
 31 32  1  0
 11  6  1  0
 32 12  1  0
 22 18  1  0
 29 24  1  0
  1 33  1  0
  1 34  1  0
  1 35  1  0
  2 36  1  0
  2 37  1  0
  7 38  1  0
  8 39  1  0
  9 40  1  0
 10 41  1  0
 11 42  1  0
 12 43  1  0
 13 44  1  0
 13 45  1  0
 14 46  1  0
 14 47  1  0
 18 48  1  1
 19 49  1  0
 19 50  1  0
 20 51  1  0
 20 52  1  0
 21 53  1  0
 21 54  1  0
 23 55  1  0
 23 56  1  0
 25 57  1  0
 26 58  1  0
 27 59  1  0
 28 60  1  0
 31 61  1  0
 31 62  1  0
 32 63  1  0
 32 64  1  0
M  END
>  <smiles>  (4) 
CCC(=O)N(c1ccccc1)C1CCN(C(=O)[C@@H]2CCCN2Cc2ccccc2Cl)CC1

>  <score_type>  (4) 
oracle

>  <origin>  (4) 
autodockgpu

>  <m_score__min__energy>  (4) 
-9.4600000000000009

>  <m_primary>  (4) 
energy

>  <rmsd>  (4) 
8.178082182045209

>  <m_score__min__rmsd>  (4) 
8.178082182045209

>  <meeko>  (4) 
{"free_energy": -6.82, "intermolecular_energy": -8.91, "internal_energy": -3.5, "cluster_size": 22, "cluster_id": 2, "rank_in_cluster": 18}

>  <energy>  (4) 
-9.31

>  <cluster_rmsd>  (4) 
0.2

>  <cluster>  (4) 
1

$$$$

     RDKit          3D

 64 67  0  0  0  0  0  0  0  0999 V2000
  138.5120   66.8880  222.3290 C   0  0  0  0  0  0  0  0  0  0  0  0
  137.9300   68.1360  222.9360 C   0  0  0  0  0  0  0  0  0  0  0  0
  138.8250   68.5820  224.0330 C   0  0  0  0  0  0  0  0  0  0  0  0
  139.1560   67.6540  224.8500 O   0  0  0  0  0  0  0  0  0  0  0  0
  139.2810   69.9250  224.1800 N   0  0  0  0  0  0  0  0  0  0  0  0
  139.8290   70.4650  225.3710 C   0  0  0  0  0  0  0  0  0  0  0  0
  139.5240   69.9270  226.6300 C   0  0  0  0  0  0  0  0  0  0  0  0
  140.0600   70.4360  227.7940 C   0  0  0  0  0  0  0  0  0  0  0  0
  140.9270   71.5010  227.7940 C   0  0  0  0  0  0  0  0  0  0  0  0
  141.2450   72.0500  226.5750 C   0  0  0  0  0  0  0  0  0  0  0  0
  140.7010   71.5330  225.3950 C   0  0  0  0  0  0  0  0  0  0  0  0
  139.1810   70.7570  222.9800 C   0  0  0  0  0  0  0  0  0  0  0  0
  140.4820   71.1200  222.3670 C   0  0  0  0  0  0  0  0  0  0  0  0
  140.6160   72.4340  221.6960 C   0  0  0  0  0  0  0  0  0  0  0  0
  139.4440   73.3130  221.8460 N   0  0  0  0  0  0  0  0  0  0  0  0
  139.7120   74.6820  221.9780 C   0  0  0  0  0  0  0  0  0  0  0  0
  140.9800   74.9690  221.9350 O   0  0  0  0  0  0  0  0  0  0  0  0
  138.8150   75.8080  222.1540 C   0  0  2  0  0  0  0  0  0  0  0  0
  138.0770   76.3390  220.9800 C   0  0  0  0  0  0  0  0  0  0  0  0
  137.7700   77.7880  221.3250 C   0  0  0  0  0  0  0  0  0  0  0  0
  138.4430   78.0050  222.6440 C   0  0  0  0  0  0  0  0  0  0  0  0
  139.5220   76.9900  222.6590 N   0  0  0  0  0  0  0  0  0  0  0  0
  140.5510   77.4660  221.7560 C   0  0  0  0  0  0  0  0  0  0  0  0
  141.2470   78.6560  222.3290 C   0  0  0  0  0  0  0  0  0  0  0  0
  141.5530   78.7800  223.6670 C   0  0  0  0  0  0  0  0  0  0  0  0
  142.1990   79.8970  224.1870 C   0  0  0  0  0  0  0  0  0  0  0  0
  142.5360   80.9160  223.2830 C   0  0  0  0  0  0  0  0  0  0  0  0
  142.2170   80.7630  221.9580 C   0  0  0  0  0  0  0  0  0  0  0  0
  141.5780   79.6600  221.4340 C   0  0  0  0  0  0  0  0  0  0  0  0
  141.2060   79.5340  219.7370 Cl  0  0  0  0  0  0  0  0  0  0  0  0
  138.1840   72.6480  221.8370 C   0  0  0  0  0  0  0  0  0  0  0  0
  138.1410   71.8270  223.1370 C   0  0  0  0  0  0  0  0  0  0  0  0
  138.8306   66.2048  223.1301 H   0  0  0  0  0  0  0  0  0  0  0  0
  137.7514   66.3939  221.7066 H   0  0  0  0  0  0  0  0  0  0  0  0
  139.3794   67.1531  221.7066 H   0  0  0  0  0  0  0  0  0  0  0  0
  137.8585   68.9232  222.1710 H   0  0  0  0  0  0  0  0  0  0  0  0
  136.9225   67.9325  223.3280 H   0  0  0  0  0  0  0  0  0  0  0  0
  138.8351   69.0716  226.6907 H   0  0  0  0  0  0  0  0  0  0  0  0
  139.7842   69.9741  228.7535 H   0  0  0  0  0  0  0  0  0  0  0  0
  141.3487   71.8975  228.7294 H   0  0  0  0  0  0  0  0  0  0  0  0
  141.9349   72.9054  226.5269 H   0  0  0  0  0  0  0  0  0  0  0  0
  140.9822   72.0008  224.4400 H   0  0  0  0  0  0  0  0  0  0  0  0
  138.7791   70.1365  222.1655 H   0  0  0  0  0  0  0  0  0  0  0  0
  141.2360   71.0880  223.1673 H   0  0  0  0  0  0  0  0  0  0  0  0
  140.6021   70.3925  221.5507 H   0  0  0  0  0  0  0  0  0  0  0  0
  141.4901   72.9499  222.1200 H   0  0  0  0  0  0  0  0  0  0  0  0
  140.7208   72.2293  220.6203 H   0  0  0  0  0  0  0  0  0  0  0  0
  138.0891   75.3425  222.8370 H   0  0  0  0  0  0  0  0  0  0  0  0
  138.6992   76.2814  220.0747 H   0  0  0  0  0  0  0  0  0  0  0  0
  137.1631   75.7627  220.7735 H   0  0  0  0  0  0  0  0  0  0  0  0
  138.1806   78.4656  220.5619 H   0  0  0  0  0  0  0  0  0  0  0  0
  136.6895   77.9902  221.3663 H   0  0  0  0  0  0  0  0  0  0  0  0
  138.8593   79.0211  222.7095 H   0  0  0  0  0  0  0  0  0  0  0  0
  137.7536   77.9068  223.4955 H   0  0  0  0  0  0  0  0  0  0  0  0
  141.2850   76.6637  221.5900 H   0  0  0  0  0  0  0  0  0  0  0  0
  140.0803   77.7557  220.8049 H   0  0  0  0  0  0  0  0  0  0  0  0
  141.2756   77.9639  224.3505 H   0  0  0  0  0  0  0  0  0  0  0  0
  142.4350   79.9778  225.2583 H   0  0  0  0  0  0  0  0  0  0  0  0
  143.0487   81.8245  223.6321 H   0  0  0  0  0  0  0  0  0  0  0  0
  142.4893   81.5747  221.2674 H   0  0  0  0  0  0  0  0  0  0  0  0
  137.3634   73.3803  221.8179 H   0  0  0  0  0  0  0  0  0  0  0  0
  138.0664   72.0103  220.9485 H   0  0  0  0  0  0  0  0  0  0  0  0
  138.3761   72.4657  224.0012 H   0  0  0  0  0  0  0  0  0  0  0  0
  137.1431   71.3987  223.3122 H   0  0  0  0  0  0  0  0  0  0  0  0
  1  2  1  0
  2  3  1  0
  3  4  2  0
  3  5  1  0
  5  6  1  0
  6  7  2  0
  7  8  1  0
  8  9  2  0
  9 10  1  0
 10 11  2  0
  5 12  1  0
 12 13  1  0
 13 14  1  0
 14 15  1  0
 15 16  1  0
 16 17  2  0
 16 18  1  0
 18 19  1  0
 19 20  1  0
 20 21  1  0
 21 22  1  0
 22 23  1  0
 23 24  1  0
 24 25  2  0
 25 26  1  0
 26 27  2  0
 27 28  1  0
 28 29  2  0
 29 30  1  0
 15 31  1  0
 31 32  1  0
 11  6  1  0
 32 12  1  0
 22 18  1  0
 29 24  1  0
  1 33  1  0
  1 34  1  0
  1 35  1  0
  2 36  1  0
  2 37  1  0
  7 38  1  0
  8 39  1  0
  9 40  1  0
 10 41  1  0
 11 42  1  0
 12 43  1  0
 13 44  1  0
 13 45  1  0
 14 46  1  0
 14 47  1  0
 18 48  1  1
 19 49  1  0
 19 50  1  0
 20 51  1  0
 20 52  1  0
 21 53  1  0
 21 54  1  0
 23 55  1  0
 23 56  1  0
 25 57  1  0
 26 58  1  0
 27 59  1  0
 28 60  1  0
 31 61  1  0
 31 62  1  0
 32 63  1  0
 32 64  1  0
M  END
>  <smiles>  (5) 
CCC(=O)N(c1ccccc1)C1CCN(C(=O)[C@@H]2CCCN2Cc2ccccc2Cl)CC1

>  <score_type>  (5) 
oracle

>  <origin>  (5) 
autodockgpu

>  <m_score__min__energy>  (5) 
-9.4600000000000009

>  <m_primary>  (5) 
energy

>  <rmsd>  (5) 
8.229480618890443

>  <m_score__min__rmsd>  (5) 
8.229480618890443

>  <meeko>  (5) 
{"free_energy": -9.36, "intermolecular_energy": -11.45, "internal_energy": -1.72, "cluster_size": 20, "cluster_id": 1, "rank_in_cluster": 3}

>  <energy>  (5) 
-9.29

>  <cluster_rmsd>  (5) 
0.31

>  <cluster>  (5) 
1

$$$$

     RDKit          3D

 64 67  0  0  0  0  0  0  0  0999 V2000
  143.6660   74.5160  220.4570 C   0  0  0  0  0  0  0  0  0  0  0  0
  142.2770   74.1710  219.9940 C   0  0  0  0  0  0  0  0  0  0  0  0
  141.3060   74.8760  220.8680 C   0  0  0  0  0  0  0  0  0  0  0  0
  141.0600   74.2750  221.9710 O   0  0  0  0  0  0  0  0  0  0  0  0
  140.6900   76.1140  220.5210 N   0  0  0  0  0  0  0  0  0  0  0  0
  141.3140   77.1450  219.7760 C   0  0  0  0  0  0  0  0  0  0  0  0
  141.2080   78.4930  220.1540 C   0  0  0  0  0  0  0  0  0  0  0  0
  141.8210   79.5030  219.4440 C   0  0  0  0  0  0  0  0  0  0  0  0
  142.5740   79.2550  218.3230 C   0  0  0  0  0  0  0  0  0  0  0  0
  142.6970   77.9450  217.9270 C   0  0  0  0  0  0  0  0  0  0  0  0
  142.0750   76.9200  218.6470 C   0  0  0  0  0  0  0  0  0  0  0  0
  139.3040   76.2710  220.9640 C   0  0  0  0  0  0  0  0  0  0  0  0
  138.3780   76.7970  219.9310 C   0  0  0  0  0  0  0  0  0  0  0  0
  137.2500   77.6600  220.3530 C   0  0  0  0  0  0  0  0  0  0  0  0
  137.2660   78.0220  221.7790 N   0  0  0  0  0  0  0  0  0  0  0  0
  136.8240   79.3140  222.0940 C   0  0  0  0  0  0  0  0  0  0  0  0
  136.4510   80.0020  221.0550 O   0  0  0  0  0  0  0  0  0  0  0  0
  136.7200   79.9940  223.3710 C   0  0  2  0  0  0  0  0  0  0  0  0
  136.1340   81.3570  223.4230 C   0  0  0  0  0  0  0  0  0  0  0  0
  136.7210   81.9960  224.6720 C   0  0  0  0  0  0  0  0  0  0  0  0
  137.6800   80.9730  225.1950 C   0  0  0  0  0  0  0  0  0  0  0  0
  138.0350   80.1780  223.9960 N   0  0  0  0  0  0  0  0  0  0  0  0
  138.9300   81.0000  223.2050 C   0  0  0  0  0  0  0  0  0  0  0  0
  140.3030   80.4140  223.1830 C   0  0  0  0  0  0  0  0  0  0  0  0
  140.6390   79.2520  223.8430 C   0  0  0  0  0  0  0  0  0  0  0  0
  141.9240   78.7210  223.8170 C   0  0  0  0  0  0  0  0  0  0  0  0
  142.8890   79.4230  223.0780 C   0  0  0  0  0  0  0  0  0  0  0  0
  142.5220   80.5770  222.4320 C   0  0  0  0  0  0  0  0  0  0  0  0
  141.2520   81.1100  222.4530 C   0  0  0  0  0  0  0  0  0  0  0  0
  140.8600   82.5810  221.6070 Cl  0  0  0  0  0  0  0  0  0  0  0  0
  137.7310   77.0010  222.6580 C   0  0  0  0  0  0  0  0  0  0  0  0
  139.2290   76.8430  222.3490 C   0  0  0  0  0  0  0  0  0  0  0  0
  143.6948   74.5231  221.5566 H   0  0  0  0  0  0  0  0  0  0  0  0
  144.3760   73.7669  220.0765 H   0  0  0  0  0  0  0  0  0  0  0  0
  143.9430   75.5102  220.0765 H   0  0  0  0  0  0  0  0  0  0  0  0
  142.1415   74.4939  218.9512 H   0  0  0  0  0  0  0  0  0  0  0  0
  142.1178   73.0840  220.0500 H   0  0  0  0  0  0  0  0  0  0  0  0
  140.6170   78.7513  221.0451 H   0  0  0  0  0  0  0  0  0  0  0  0
  141.7031   80.5416  219.7867 H   0  0  0  0  0  0  0  0  0  0  0  0
  143.0582   80.0704  217.7656 H   0  0  0  0  0  0  0  0  0  0  0  0
  143.2910   77.6999  217.0342 H   0  0  0  0  0  0  0  0  0  0  0  0
  142.1983   75.8846  218.2965 H   0  0  0  0  0  0  0  0  0  0  0  0
  138.8685   75.2681  221.0850 H   0  0  0  0  0  0  0  0  0  0  0  0
  138.9834   77.3808  219.2220 H   0  0  0  0  0  0  0  0  0  0  0  0
  137.8878   75.8968  219.5317 H   0  0  0  0  0  0  0  0  0  0  0  0
  137.2853   78.5869  219.7617 H   0  0  0  0  0  0  0  0  0  0  0  0
  136.3300   77.0809  220.1850 H   0  0  0  0  0  0  0  0  0  0  0  0
  136.0300   79.3020  223.8761 H   0  0  0  0  0  0  0  0  0  0  0  0
  136.4139   81.9316  222.5278 H   0  0  0  0  0  0  0  0  0  0  0  0
  135.0347   81.3310  223.4523 H   0  0  0  0  0  0  0  0  0  0  0  0
  137.2456   82.9300  224.4221 H   0  0  0  0  0  0  0  0  0  0  0  0
  135.9497   82.2644  225.4089 H   0  0  0  0  0  0  0  0  0  0  0  0
  138.5711   81.4542  225.6244 H   0  0  0  0  0  0  0  0  0  0  0  0
  137.2510   80.3597  226.0011 H   0  0  0  0  0  0  0  0  0  0  0  0
  138.5476   81.0628  222.1755 H   0  0  0  0  0  0  0  0  0  0  0  0
  138.9803   82.0025  223.6550 H   0  0  0  0  0  0  0  0  0  0  0  0
  139.8603   78.7237  224.4127 H   0  0  0  0  0  0  0  0  0  0  0  0
  142.1730   77.7925  224.3516 H   0  0  0  0  0  0  0  0  0  0  0  0
  143.9235   79.0539  223.0175 H   0  0  0  0  0  0  0  0  0  0  0  0
  143.2937   81.1121  221.8591 H   0  0  0  0  0  0  0  0  0  0  0  0
  137.5843   77.3002  223.7063 H   0  0  0  0  0  0  0  0  0  0  0  0
  137.1831   76.0581  222.5139 H   0  0  0  0  0  0  0  0  0  0  0  0
  139.7329   77.8200  222.3875 H   0  0  0  0  0  0  0  0  0  0  0  0
  139.7267   76.1920  223.0828 H   0  0  0  0  0  0  0  0  0  0  0  0
  1  2  1  0
  2  3  1  0
  3  4  2  0
  3  5  1  0
  5  6  1  0
  6  7  2  0
  7  8  1  0
  8  9  2  0
  9 10  1  0
 10 11  2  0
  5 12  1  0
 12 13  1  0
 13 14  1  0
 14 15  1  0
 15 16  1  0
 16 17  2  0
 16 18  1  0
 18 19  1  0
 19 20  1  0
 20 21  1  0
 21 22  1  0
 22 23  1  0
 23 24  1  0
 24 25  2  0
 25 26  1  0
 26 27  2  0
 27 28  1  0
 28 29  2  0
 29 30  1  0
 15 31  1  0
 31 32  1  0
 11  6  1  0
 32 12  1  0
 22 18  1  0
 29 24  1  0
  1 33  1  0
  1 34  1  0
  1 35  1  0
  2 36  1  0
  2 37  1  0
  7 38  1  0
  8 39  1  0
  9 40  1  0
 10 41  1  0
 11 42  1  0
 12 43  1  0
 13 44  1  0
 13 45  1  0
 14 46  1  0
 14 47  1  0
 18 48  1  1
 19 49  1  0
 19 50  1  0
 20 51  1  0
 20 52  1  0
 21 53  1  0
 21 54  1  0
 23 55  1  0
 23 56  1  0
 25 57  1  0
 26 58  1  0
 27 59  1  0
 28 60  1  0
 31 61  1  0
 31 62  1  0
 32 63  1  0
 32 64  1  0
M  END
>  <smiles>  (6) 
CCC(=O)N(c1ccccc1)C1CCN(C(=O)[C@@H]2CCCN2Cc2ccccc2Cl)CC1

>  <score_type>  (6) 
oracle

>  <origin>  (6) 
autodockgpu

>  <m_score__min__energy>  (6) 
-9.4600000000000009

>  <m_primary>  (6) 
energy

>  <rmsd>  (6) 
8.161582636093847

>  <m_score__min__rmsd>  (6) 
8.161582636093847

>  <meeko>  (6) 
{"free_energy": -6.86, "intermolecular_energy": -8.95, "internal_energy": -3.52, "cluster_size": 22, "cluster_id": 2, "rank_in_cluster": 16}

>  <energy>  (6) 
-9.26

>  <cluster_rmsd>  (6) 
0.42

>  <cluster>  (6) 
1

$$$$

     RDKit          3D

 64 67  0  0  0  0  0  0  0  0999 V2000
  142.9430   77.0640  217.6680 C   0  0  0  0  0  0  0  0  0  0  0  0
  141.7460   77.6730  218.3480 C   0  0  0  0  0  0  0  0  0  0  0  0
  141.8480   77.3990  219.8030 C   0  0  0  0  0  0  0  0  0  0  0  0
  142.1760   78.4160  220.5070 O   0  0  0  0  0  0  0  0  0  0  0  0
  141.6080   76.1180  220.3810 N   0  0  0  0  0  0  0  0  0  0  0  0
  142.5540   75.0630  220.4250 C   0  0  0  0  0  0  0  0  0  0  0  0
  142.1810   73.7570  220.7790 C   0  0  0  0  0  0  0  0  0  0  0  0
  143.0890   72.7200  220.8130 C   0  0  0  0  0  0  0  0  0  0  0  0
  144.4150   72.9000  220.5040 C   0  0  0  0  0  0  0  0  0  0  0  0
  144.8110   74.1680  220.1540 C   0  0  0  0  0  0  0  0  0  0  0  0
  143.8890   75.2200  220.1190 C   0  0  0  0  0  0  0  0  0  0  0  0
  140.2870   75.9390  220.9850 C   0  0  0  0  0  0  0  0  0  0  0  0
  139.1610   75.9120  220.0180 C   0  0  0  0  0  0  0  0  0  0  0  0
  137.8490   76.4620  220.4320 C   0  0  0  0  0  0  0  0  0  0  0  0
  137.8560   77.1200  221.7480 N   0  0  0  0  0  0  0  0  0  0  0  0
  137.0400   78.2510  221.8770 C   0  0  0  0  0  0  0  0  0  0  0  0
  136.3810   78.5420  220.7940 O   0  0  0  0  0  0  0  0  0  0  0  0
  136.8180   79.1340  223.0070 C   0  0  2  0  0  0  0  0  0  0  0  0
  136.0190   80.3710  222.8160 C   0  0  0  0  0  0  0  0  0  0  0  0
  136.4860   81.3200  223.9090 C   0  0  0  0  0  0  0  0  0  0  0  0
  137.5940   80.5800  224.5920 C   0  0  0  0  0  0  0  0  0  0  0  0
  138.0810   79.6410  223.5550 N   0  0  0  0  0  0  0  0  0  0  0  0
  138.8370   80.4300  222.6040 C   0  0  0  0  0  0  0  0  0  0  0  0
  140.3040   80.2600  222.8250 C   0  0  0  0  0  0  0  0  0  0  0  0
  140.8310   79.4180  223.7800 C   0  0  0  0  0  0  0  0  0  0  0  0
  142.2000   79.2730  223.9760 C   0  0  0  0  0  0  0  0  0  0  0  0
  143.0460   80.0280  223.1490 C   0  0  0  0  0  0  0  0  0  0  0  0
  142.4900   80.8570  222.2080 C   0  0  0  0  0  0  0  0  0  0  0  0
  141.1360   81.0070  222.0070 C   0  0  0  0  0  0  0  0  0  0  0  0
  140.5020   82.0800  220.7900 Cl  0  0  0  0  0  0  0  0  0  0  0  0
  138.6990   76.5140  222.7250 C   0  0  0  0  0  0  0  0  0  0  0  0
  140.1360   76.7550  222.2340 C   0  0  0  0  0  0  0  0  0  0  0  0
  143.6521   76.7032  218.4276 H   0  0  0  0  0  0  0  0  0  0  0  0
  142.6185   76.2214  217.0397 H   0  0  0  0  0  0  0  0  0  0  0  0
  143.4330   77.8224  217.0397 H   0  0  0  0  0  0  0  0  0  0  0  0
  141.7318   78.7591  218.1740 H   0  0  0  0  0  0  0  0  0  0  0  0
  140.8191   77.2393  217.9445 H   0  0  0  0  0  0  0  0  0  0  0  0
  141.1312   73.5544  221.0375 H   0  0  0  0  0  0  0  0  0  0  0  0
  142.7401   71.7161  221.0968 H   0  0  0  0  0  0  0  0  0  0  0  0
  145.1296   72.0643  220.5354 H   0  0  0  0  0  0  0  0  0  0  0  0
  145.8639   74.3583  219.8986 H   0  0  0  0  0  0  0  0  0  0  0  0
  144.2466   76.2203  219.8336 H   0  0  0  0  0  0  0  0  0  0  0  0
  140.2178   74.9050  221.3538 H   0  0  0  0  0  0  0  0  0  0  0  0
  139.4831   76.4778  219.1314 H   0  0  0  0  0  0  0  0  0  0  0  0
  138.9643   74.8399  219.8700 H   0  0  0  0  0  0  0  0  0  0  0  0
  137.5318   77.1994  219.6799 H   0  0  0  0  0  0  0  0  0  0  0  0
  137.1602   75.6079  220.5107 H   0  0  0  0  0  0  0  0  0  0  0  0
  136.2457   78.4483  223.6491 H   0  0  0  0  0  0  0  0  0  0  0  0
  136.2090   80.8034  221.8226 H   0  0  0  0  0  0  0  0  0  0  0  0
  134.9381   80.1756  222.8753 H   0  0  0  0  0  0  0  0  0  0  0  0
  136.8549   82.2616  223.4762 H   0  0  0  0  0  0  0  0  0  0  0  0
  135.6762   81.5963  224.6003 H   0  0  0  0  0  0  0  0  0  0  0  0
  138.3927   81.2694  224.9030 H   0  0  0  0  0  0  0  0  0  0  0  0
  137.2637   80.0690  225.5084 H   0  0  0  0  0  0  0  0  0  0  0  0
  138.5854   80.1044  221.5839 H   0  0  0  0  0  0  0  0  0  0  0  0
  138.5794   81.4907  222.7406 H   0  0  0  0  0  0  0  0  0  0  0  0
  140.1421   78.8381  224.4118 H   0  0  0  0  0  0  0  0  0  0  0  0
  142.6019   78.5968  224.7449 H   0  0  0  0  0  0  0  0  0  0  0  0
  144.1386   79.9561  223.2538 H   0  0  0  0  0  0  0  0  0  0  0  0
  143.1712   81.4409  221.5715 H   0  0  0  0  0  0  0  0  0  0  0  0
  138.5453   76.9817  223.7087 H   0  0  0  0  0  0  0  0  0  0  0  0
  138.4823   75.4420  222.8425 H   0  0  0  0  0  0  0  0  0  0  0  0
  140.2915   77.8217  222.0150 H   0  0  0  0  0  0  0  0  0  0  0  0
  140.8760   76.4677  222.9955 H   0  0  0  0  0  0  0  0  0  0  0  0
  1  2  1  0
  2  3  1  0
  3  4  2  0
  3  5  1  0
  5  6  1  0
  6  7  2  0
  7  8  1  0
  8  9  2  0
  9 10  1  0
 10 11  2  0
  5 12  1  0
 12 13  1  0
 13 14  1  0
 14 15  1  0
 15 16  1  0
 16 17  2  0
 16 18  1  0
 18 19  1  0
 19 20  1  0
 20 21  1  0
 21 22  1  0
 22 23  1  0
 23 24  1  0
 24 25  2  0
 25 26  1  0
 26 27  2  0
 27 28  1  0
 28 29  2  0
 29 30  1  0
 15 31  1  0
 31 32  1  0
 11  6  1  0
 32 12  1  0
 22 18  1  0
 29 24  1  0
  1 33  1  0
  1 34  1  0
  1 35  1  0
  2 36  1  0
  2 37  1  0
  7 38  1  0
  8 39  1  0
  9 40  1  0
 10 41  1  0
 11 42  1  0
 12 43  1  0
 13 44  1  0
 13 45  1  0
 14 46  1  0
 14 47  1  0
 18 48  1  1
 19 49  1  0
 19 50  1  0
 20 51  1  0
 20 52  1  0
 21 53  1  0
 21 54  1  0
 23 55  1  0
 23 56  1  0
 25 57  1  0
 26 58  1  0
 27 59  1  0
 28 60  1  0
 31 61  1  0
 31 62  1  0
 32 63  1  0
 32 64  1  0
M  END
>  <smiles>  (7) 
CCC(=O)N(c1ccccc1)C1CCN(C(=O)[C@@H]2CCCN2Cc2ccccc2Cl)CC1

>  <score_type>  (7) 
oracle

>  <origin>  (7) 
autodockgpu

>  <m_score__min__energy>  (7) 
-9.4600000000000009

>  <m_primary>  (7) 
energy

>  <rmsd>  (7) 
8.100858176759553

>  <m_score__min__rmsd>  (7) 
8.100858176759553

>  <meeko>  (7) 
{"free_energy": -6.56, "intermolecular_energy": -8.64, "internal_energy": -3.25, "cluster_size": 8, "cluster_id": 3, "rank_in_cluster": 6}

>  <energy>  (7) 
-9.26

>  <cluster_rmsd>  (7) 
0.24

>  <cluster>  (7) 
1

$$$$

     RDKit          3D

 64 67  0  0  0  0  0  0  0  0999 V2000
  143.6890   74.5230  220.4710 C   0  0  0  0  0  0  0  0  0  0  0  0
  142.3160   74.0880  220.0360 C   0  0  0  0  0  0  0  0  0  0  0  0
  141.3190   74.7420  220.9190 C   0  0  0  0  0  0  0  0  0  0  0  0
  141.0540   74.0870  221.9870 O   0  0  0  0  0  0  0  0  0  0  0  0
  140.6970   75.9890  220.6170 N   0  0  0  0  0  0  0  0  0  0  0  0
  141.3090   77.0400  219.8900 C   0  0  0  0  0  0  0  0  0  0  0  0
  141.2330   78.3730  220.3210 C   0  0  0  0  0  0  0  0  0  0  0  0
  141.8350   79.4020  219.6280 C   0  0  0  0  0  0  0  0  0  0  0  0
  142.5460   79.1880  218.4730 C   0  0  0  0  0  0  0  0  0  0  0  0
  142.6380   77.8920  218.0250 C   0  0  0  0  0  0  0  0  0  0  0  0
  142.0280   76.8480  218.7280 C   0  0  0  0  0  0  0  0  0  0  0  0
  139.3190   76.1340  221.0880 C   0  0  0  0  0  0  0  0  0  0  0  0
  138.3510   76.5690  220.0520 C   0  0  0  0  0  0  0  0  0  0  0  0
  137.2100   77.4250  220.4510 C   0  0  0  0  0  0  0  0  0  0  0  0
  137.2520   77.8750  221.8530 N   0  0  0  0  0  0  0  0  0  0  0  0
  136.7810   79.1710  222.1000 C   0  0  0  0  0  0  0  0  0  0  0  0
  136.3600   79.7830  221.0320 O   0  0  0  0  0  0  0  0  0  0  0  0
  136.6910   79.9250  223.3360 C   0  0  2  0  0  0  0  0  0  0  0  0
  136.0610   81.2700  223.3220 C   0  0  0  0  0  0  0  0  0  0  0  0
  136.6620   82.0030  224.5110 C   0  0  0  0  0  0  0  0  0  0  0  0
  137.6690   81.0450  225.0670 C   0  0  0  0  0  0  0  0  0  0  0  0
  138.0150   80.1890  223.9080 N   0  0  0  0  0  0  0  0  0  0  0  0
  138.8600   80.9870  223.0420 C   0  0  0  0  0  0  0  0  0  0  0  0
  140.2750   80.5140  223.1020 C   0  0  0  0  0  0  0  0  0  0  0  0
  140.6640   79.3810  223.7840 C   0  0  0  0  0  0  0  0  0  0  0  0
  141.9870   78.9560  223.8340 C   0  0  0  0  0  0  0  0  0  0  0  0
  142.9340   79.7350  223.1510 C   0  0  0  0  0  0  0  0  0  0  0  0
  142.5140   80.8560  222.4820 C   0  0  0  0  0  0  0  0  0  0  0  0
  141.2060   81.2850  222.4260 C   0  0  0  0  0  0  0  0  0  0  0  0
  140.7470   82.7210  221.5550 Cl  0  0  0  0  0  0  0  0  0  0  0  0
  137.7700   76.9230  222.7790 C   0  0  0  0  0  0  0  0  0  0  0  0
  139.2640   76.7880  222.4370 C   0  0  0  0  0  0  0  0  0  0  0  0
  143.7378   74.5385  221.5698 H   0  0  0  0  0  0  0  0  0  0  0  0
  144.4378   73.8181  220.0806 H   0  0  0  0  0  0  0  0  0  0  0  0
  143.8953   75.5305  220.0806 H   0  0  0  0  0  0  0  0  0  0  0  0
  142.1433   74.3898  218.9924 H   0  0  0  0  0  0  0  0  0  0  0  0
  142.2249   72.9940  220.1062 H   0  0  0  0  0  0  0  0  0  0  0  0
  140.6757   78.6046  221.2406 H   0  0  0  0  0  0  0  0  0  0  0  0
  141.7426   80.4282  220.0132 H   0  0  0  0  0  0  0  0  0  0  0  0
  143.0214   80.0180  217.9298 H   0  0  0  0  0  0  0  0  0  0  0  0
  143.1975   77.6734  217.1035 H   0  0  0  0  0  0  0  0  0  0  0  0
  142.1261   75.8250  218.3358 H   0  0  0  0  0  0  0  0  0  0  0  0
  138.9166   75.1287  221.2813 H   0  0  0  0  0  0  0  0  0  0  0  0
  138.9200   77.1239  219.2915 H   0  0  0  0  0  0  0  0  0  0  0  0
  137.8766   75.6324  219.7237 H   0  0  0  0  0  0  0  0  0  0  0  0
  137.2034   78.3143  219.8036 H   0  0  0  0  0  0  0  0  0  0  0  0
  136.3031   76.8119  220.3436 H   0  0  0  0  0  0  0  0  0  0  0  0
  136.0398   79.2438  223.9034 H   0  0  0  0  0  0  0  0  0  0  0  0
  136.2959   81.7965  222.3852 H   0  0  0  0  0  0  0  0  0  0  0  0
  134.9644   81.2115  223.3860 H   0  0  0  0  0  0  0  0  0  0  0  0
  137.1482   82.9355  224.1885 H   0  0  0  0  0  0  0  0  0  0  0  0
  135.9033   82.2922  225.2531 H   0  0  0  0  0  0  0  0  0  0  0  0
  138.5557   81.5795  225.4387 H   0  0  0  0  0  0  0  0  0  0  0  0
  137.2843   80.4702  225.9223 H   0  0  0  0  0  0  0  0  0  0  0  0
  138.4957   80.9054  222.0073 H   0  0  0  0  0  0  0  0  0  0  0  0
  138.8228   82.0335  223.3788 H   0  0  0  0  0  0  0  0  0  0  0  0
  139.8985   78.7905  224.3087 H   0  0  0  0  0  0  0  0  0  0  0  0
  142.2786   78.0494  224.3845 H   0  0  0  0  0  0  0  0  0  0  0  0
  143.9966   79.4507  223.1523 H   0  0  0  0  0  0  0  0  0  0  0  0
  143.2726   81.4529  221.9545 H   0  0  0  0  0  0  0  0  0  0  0  0
  137.6427   77.2819  223.8110 H   0  0  0  0  0  0  0  0  0  0  0  0
  137.2463   75.9582  222.7084 H   0  0  0  0  0  0  0  0  0  0  0  0
  139.7396   77.7793  222.4014 H   0  0  0  0  0  0  0  0  0  0  0  0
  139.8002   76.1975  223.1945 H   0  0  0  0  0  0  0  0  0  0  0  0
  1  2  1  0
  2  3  1  0
  3  4  2  0
  3  5  1  0
  5  6  1  0
  6  7  2  0
  7  8  1  0
  8  9  2  0
  9 10  1  0
 10 11  2  0
  5 12  1  0
 12 13  1  0
 13 14  1  0
 14 15  1  0
 15 16  1  0
 16 17  2  0
 16 18  1  0
 18 19  1  0
 19 20  1  0
 20 21  1  0
 21 22  1  0
 22 23  1  0
 23 24  1  0
 24 25  2  0
 25 26  1  0
 26 27  2  0
 27 28  1  0
 28 29  2  0
 29 30  1  0
 15 31  1  0
 31 32  1  0
 11  6  1  0
 32 12  1  0
 22 18  1  0
 29 24  1  0
  1 33  1  0
  1 34  1  0
  1 35  1  0
  2 36  1  0
  2 37  1  0
  7 38  1  0
  8 39  1  0
  9 40  1  0
 10 41  1  0
 11 42  1  0
 12 43  1  0
 13 44  1  0
 13 45  1  0
 14 46  1  0
 14 47  1  0
 18 48  1  1
 19 49  1  0
 19 50  1  0
 20 51  1  0
 20 52  1  0
 21 53  1  0
 21 54  1  0
 23 55  1  0
 23 56  1  0
 25 57  1  0
 26 58  1  0
 27 59  1  0
 28 60  1  0
 31 61  1  0
 31 62  1  0
 32 63  1  0
 32 64  1  0
M  END
>  <smiles>  (8) 
CCC(=O)N(c1ccccc1)C1CCN(C(=O)[C@@H]2CCCN2Cc2ccccc2Cl)CC1

>  <score_type>  (8) 
oracle

>  <origin>  (8) 
autodockgpu

>  <m_score__min__energy>  (8) 
-9.4600000000000009

>  <m_primary>  (8) 
energy

>  <rmsd>  (8) 
8.263863190273943

>  <m_score__min__rmsd>  (8) 
8.263863190273943

>  <meeko>  (8) 
{"free_energy": -6.87, "intermolecular_energy": -8.95, "internal_energy": -3.46, "cluster_size": 22, "cluster_id": 2, "rank_in_cluster": 13}

>  <energy>  (8) 
-9.23

>  <cluster_rmsd>  (8) 
0.35

>  <cluster>  (8) 
1

$$$$

     RDKit          3D

 64 67  0  0  0  0  0  0  0  0999 V2000
  137.2880   68.1630  222.5070 C   0  0  0  0  0  0  0  0  0  0  0  0
  138.7810   68.0480  222.6490 C   0  0  0  0  0  0  0  0  0  0  0  0
  139.1670   68.5970  223.9740 C   0  0  0  0  0  0  0  0  0  0  0  0
  139.1420   67.7400  224.9240 O   0  0  0  0  0  0  0  0  0  0  0  0
  139.5310   69.9590  224.1850 N   0  0  0  0  0  0  0  0  0  0  0  0
  140.0060   70.4860  225.4130 C   0  0  0  0  0  0  0  0  0  0  0  0
  140.9150   71.5540  225.4510 C   0  0  0  0  0  0  0  0  0  0  0  0
  141.3750   72.0830  226.6380 C   0  0  0  0  0  0  0  0  0  0  0  0
  140.9720   71.5980  227.8580 C   0  0  0  0  0  0  0  0  0  0  0  0
  140.0820   70.5510  227.8540 C   0  0  0  0  0  0  0  0  0  0  0  0
  139.6160   70.0150  226.6490 C   0  0  0  0  0  0  0  0  0  0  0  0
  139.4160   70.8290  223.0140 C   0  0  0  0  0  0  0  0  0  0  0  0
  140.7010   71.3900  222.5290 C   0  0  0  0  0  0  0  0  0  0  0  0
  140.7090   72.7420  221.9230 C   0  0  0  0  0  0  0  0  0  0  0  0
  139.4210   73.4500  222.0050 N   0  0  0  0  0  0  0  0  0  0  0  0
  139.4900   74.8340  222.2120 C   0  0  0  0  0  0  0  0  0  0  0  0
  140.7060   75.2880  222.2890 O   0  0  0  0  0  0  0  0  0  0  0  0
  138.4380   75.8230  222.3530 C   0  0  2  0  0  0  0  0  0  0  0  0
  137.5440   76.1020  221.2000 C   0  0  0  0  0  0  0  0  0  0  0  0
  137.0320   77.5160  221.4270 C   0  0  0  0  0  0  0  0  0  0  0  0
  137.7510   77.9780  222.6550 C   0  0  0  0  0  0  0  0  0  0  0  0
  138.9780   77.1480  222.6770 N   0  0  0  0  0  0  0  0  0  0  0  0
  139.8520   77.6730  221.6470 C   0  0  0  0  0  0  0  0  0  0  0  0
  140.8780   78.5820  222.2380 C   0  0  0  0  0  0  0  0  0  0  0  0
  141.1260   78.6630  223.5910 C   0  0  0  0  0  0  0  0  0  0  0  0
  142.0830   79.5180  224.1270 C   0  0  0  0  0  0  0  0  0  0  0  0
  142.8050   80.3120  223.2230 C   0  0  0  0  0  0  0  0  0  0  0  0
  142.5350   80.2080  221.8820 C   0  0  0  0  0  0  0  0  0  0  0  0
  141.5890   79.3640  221.3430 C   0  0  0  0  0  0  0  0  0  0  0  0
  141.3010   79.2850  219.6270 Cl  0  0  0  0  0  0  0  0  0  0  0  0
  138.2670   72.6270  221.8620 C   0  0  0  0  0  0  0  0  0  0  0  0
  138.2320   71.7440  223.1210 C   0  0  0  0  0  0  0  0  0  0  0  0
  136.8264   68.1986  223.5048 H   0  0  0  0  0  0  0  0  0  0  0  0
  137.0418   69.0828  221.9562 H   0  0  0  0  0  0  0  0  0  0  0  0
  136.9039   67.2918  221.9562 H   0  0  0  0  0  0  0  0  0  0  0  0
  139.0807   66.9917  222.5824 H   0  0  0  0  0  0  0  0  0  0  0  0
  139.2824   68.6081  221.8460 H   0  0  0  0  0  0  0  0  0  0  0  0
  141.2721   71.9831  224.5032 H   0  0  0  0  0  0  0  0  0  0  0  0
  142.0876   72.9204  226.6070 H   0  0  0  0  0  0  0  0  0  0  0  0
  141.3457   72.0293  228.7984 H   0  0  0  0  0  0  0  0  0  0  0  0
  139.7324   70.1301  228.8083 H   0  0  0  0  0  0  0  0  0  0  0  0
  138.9041   69.1774  226.6892 H   0  0  0  0  0  0  0  0  0  0  0  0
  139.1680   70.2014  222.1453 H   0  0  0  0  0  0  0  0  0  0  0  0
  141.3862   71.4178  223.3891 H   0  0  0  0  0  0  0  0  0  0  0  0
  140.9832   70.7260  221.6987 H   0  0  0  0  0  0  0  0  0  0  0  0
  141.4682   73.3469  222.4403 H   0  0  0  0  0  0  0  0  0  0  0  0
  140.9266   72.6065  220.8533 H   0  0  0  0  0  0  0  0  0  0  0  0
  137.8464   75.3302  223.1386 H   0  0  0  0  0  0  0  0  0  0  0  0
  138.1030   76.0411  220.2546 H   0  0  0  0  0  0  0  0  0  0  0  0
  136.7230   75.3732  221.1299 H   0  0  0  0  0  0  0  0  0  0  0  0
  137.2736   78.1602  220.5687 H   0  0  0  0  0  0  0  0  0  0  0  0
  135.9386   77.5532  221.5417 H   0  0  0  0  0  0  0  0  0  0  0  0
  138.0016   79.0467  222.5840 H   0  0  0  0  0  0  0  0  0  0  0  0
  137.1473   77.8704  223.5682 H   0  0  0  0  0  0  0  0  0  0  0  0
  140.3582   76.8369  221.1424 H   0  0  0  0  0  0  0  0  0  0  0  0
  139.2470   78.2436  220.9270 H   0  0  0  0  0  0  0  0  0  0  0  0
  140.5443   78.0265  224.2739 H   0  0  0  0  0  0  0  0  0  0  0  0
  142.2656   79.5695  225.2105 H   0  0  0  0  0  0  0  0  0  0  0  0
  143.5764   81.0079  223.5844 H   0  0  0  0  0  0  0  0  0  0  0  0
  143.1121   80.8404  221.1914 H   0  0  0  0  0  0  0  0  0  0  0  0
  137.3593   73.2453  221.8010 H   0  0  0  0  0  0  0  0  0  0  0  0
  138.3074   72.0245  220.9425 H   0  0  0  0  0  0  0  0  0  0  0  0
  138.3085   72.3646  224.0260 H   0  0  0  0  0  0  0  0  0  0  0  0
  137.2905   71.1797  223.1927 H   0  0  0  0  0  0  0  0  0  0  0  0
  1  2  1  0
  2  3  1  0
  3  4  2  0
  3  5  1  0
  5  6  1  0
  6  7  2  0
  7  8  1  0
  8  9  2  0
  9 10  1  0
 10 11  2  0
  5 12  1  0
 12 13  1  0
 13 14  1  0
 14 15  1  0
 15 16  1  0
 16 17  2  0
 16 18  1  0
 18 19  1  0
 19 20  1  0
 20 21  1  0
 21 22  1  0
 22 23  1  0
 23 24  1  0
 24 25  2  0
 25 26  1  0
 26 27  2  0
 27 28  1  0
 28 29  2  0
 29 30  1  0
 15 31  1  0
 31 32  1  0
 11  6  1  0
 32 12  1  0
 22 18  1  0
 29 24  1  0
  1 33  1  0
  1 34  1  0
  1 35  1  0
  2 36  1  0
  2 37  1  0
  7 38  1  0
  8 39  1  0
  9 40  1  0
 10 41  1  0
 11 42  1  0
 12 43  1  0
 13 44  1  0
 13 45  1  0
 14 46  1  0
 14 47  1  0
 18 48  1  1
 19 49  1  0
 19 50  1  0
 20 51  1  0
 20 52  1  0
 21 53  1  0
 21 54  1  0
 23 55  1  0
 23 56  1  0
 25 57  1  0
 26 58  1  0
 27 59  1  0
 28 60  1  0
 31 61  1  0
 31 62  1  0
 32 63  1  0
 32 64  1  0
M  END
>  <smiles>  (9) 
CCC(=O)N(c1ccccc1)C1CCN(C(=O)[C@@H]2CCCN2Cc2ccccc2Cl)CC1

>  <score_type>  (9) 
oracle

>  <origin>  (9) 
autodockgpu

>  <m_score__min__energy>  (9) 
-9.4600000000000009

>  <m_primary>  (9) 
energy

>  <rmsd>  (9) 
8.041674910429082

>  <m_score__min__rmsd>  (9) 
8.041674910429082

>  <meeko>  (9) 
{"free_energy": -8.99, "intermolecular_energy": -11.08, "internal_energy": -1.76, "cluster_size": 20, "cluster_id": 1, "rank_in_cluster": 14}

>  <energy>  (9) 
-9.22

>  <cluster_rmsd>  (9) 
0.28

>  <cluster>  (9) 
1

$$$$

     RDKit          3D

 64 67  0  0  0  0  0  0  0  0999 V2000
  142.5980   78.2770  217.6560 C   0  0  0  0  0  0  0  0  0  0  0  0
  142.9530   76.8880  218.1140 C   0  0  0  0  0  0  0  0  0  0  0  0
  142.5370   76.7460  219.5320 C   0  0  0  0  0  0  0  0  0  0  0  0
  142.2650   77.8540  220.1130 O   0  0  0  0  0  0  0  0  0  0  0  0
  142.4480   75.4920  220.2040 N   0  0  0  0  0  0  0  0  0  0  0  0
  143.5010   74.5460  220.2900 C   0  0  0  0  0  0  0  0  0  0  0  0
  144.8340   74.9450  220.4690 C   0  0  0  0  0  0  0  0  0  0  0  0
  145.8640   74.0340  220.5660 C   0  0  0  0  0  0  0  0  0  0  0  0
  145.6510   72.6800  220.4940 C   0  0  0  0  0  0  0  0  0  0  0  0
  144.3560   72.2580  220.3190 C   0  0  0  0  0  0  0  0  0  0  0  0
  143.3100   73.1820  220.2200 C   0  0  0  0  0  0  0  0  0  0  0  0
  141.1690   75.2200  220.8610 C   0  0  0  0  0  0  0  0  0  0  0  0
  140.0920   74.7540  219.9530 C   0  0  0  0  0  0  0  0  0  0  0  0
  138.6910   75.1330  220.2490 C   0  0  0  0  0  0  0  0  0  0  0  0
  138.5430   76.0770  221.3690 N   0  0  0  0  0  0  0  0  0  0  0  0
  137.5280   77.0340  221.2400 C   0  0  0  0  0  0  0  0  0  0  0  0
  136.8530   76.9290  220.1330 O   0  0  0  0  0  0  0  0  0  0  0  0
  137.1190   78.1050  222.1280 C   0  0  2  0  0  0  0  0  0  0  0  0
  136.3250   79.2370  221.5850 C   0  0  0  0  0  0  0  0  0  0  0  0
  136.6010   80.4030  222.5220 C   0  0  0  0  0  0  0  0  0  0  0  0
  137.6140   79.8710  223.4870 C   0  0  0  0  0  0  0  0  0  0  0  0
  138.2730   78.7760  222.7360 N   0  0  0  0  0  0  0  0  0  0  0  0
  139.1410   79.4070  221.7630 C   0  0  0  0  0  0  0  0  0  0  0  0
  140.4920   79.6600  222.3460 C   0  0  0  0  0  0  0  0  0  0  0  0
  140.8780   79.1990  223.5860 C   0  0  0  0  0  0  0  0  0  0  0  0
  142.1400   79.4460  224.1170 C   0  0  0  0  0  0  0  0  0  0  0  0
  143.0260   80.1970  223.3300 C   0  0  0  0  0  0  0  0  0  0  0  0
  142.6120   80.6420  222.1000 C   0  0  0  0  0  0  0  0  0  0  0  0
  141.3650   80.4020  221.5660 C   0  0  0  0  0  0  0  0  0  0  0  0
  140.9090   80.9990  219.9950 Cl  0  0  0  0  0  0  0  0  0  0  0  0
  139.4590   75.8900  222.4440 C   0  0  0  0  0  0  0  0  0  0  0  0
  140.8390   76.2700  221.8810 C   0  0  0  0  0  0  0  0  0  0  0  0
  142.4334   78.9212  218.5323 H   0  0  0  0  0  0  0  0  0  0  0  0
  143.4208   78.6849  217.0505 H   0  0  0  0  0  0  0  0  0  0  0  0
  141.6804   78.2401  217.0505 H   0  0  0  0  0  0  0  0  0  0  0  0
  142.4265   76.1462  217.4955 H   0  0  0  0  0  0  0  0  0  0  0  0
  144.0361   76.7216  218.0175 H   0  0  0  0  0  0  0  0  0  0  0  0
  145.0645   76.0186  220.5340 H   0  0  0  0  0  0  0  0  0  0  0  0
  146.8903   74.4043  220.7057 H   0  0  0  0  0  0  0  0  0  0  0  0
  146.4820   71.9636  220.5731 H   0  0  0  0  0  0  0  0  0  0  0  0
  144.1386   71.1815  220.2559 H   0  0  0  0  0  0  0  0  0  0  0  0
  142.2871   72.8026  220.0797 H   0  0  0  0  0  0  0  0  0  0  0  0
  141.2833   74.3098  221.4680 H   0  0  0  0  0  0  0  0  0  0  0  0
  140.3258   75.1406  218.9501 H   0  0  0  0  0  0  0  0  0  0  0  0
  140.1008   73.6605  220.0717 H   0  0  0  0  0  0  0  0  0  0  0  0
  138.2618   75.5967  219.3485 H   0  0  0  0  0  0  0  0  0  0  0  0
  138.1703   74.2100  220.5438 H   0  0  0  0  0  0  0  0  0  0  0  0
  136.4755   77.5258  222.8066 H   0  0  0  0  0  0  0  0  0  0  0  0
  136.6484   79.4793  220.5619 H   0  0  0  0  0  0  0  0  0  0  0  0
  135.2526   78.9983  221.5304 H   0  0  0  0  0  0  0  0  0  0  0  0
  137.0057   81.2618  221.9665 H   0  0  0  0  0  0  0  0  0  0  0  0
  135.6909   80.7628  223.0242 H   0  0  0  0  0  0  0  0  0  0  0  0
  138.3401   80.6500  223.7627 H   0  0  0  0  0  0  0  0  0  0  0  0
  137.1652   79.5303  224.4317 H   0  0  0  0  0  0  0  0  0  0  0  0
  139.2429   78.7474  220.8887 H   0  0  0  0  0  0  0  0  0  0  0  0
  138.6984   80.3692  221.4659 H   0  0  0  0  0  0  0  0  0  0  0  0
  140.1604   78.6130  224.1790 H   0  0  0  0  0  0  0  0  0  0  0  0
  142.4300   79.0695  225.1090 H   0  0  0  0  0  0  0  0  0  0  0  0
  144.0385   80.4258  223.6940 H   0  0  0  0  0  0  0  0  0  0  0  0
  143.3230   81.2294  221.5005 H   0  0  0  0  0  0  0  0  0  0  0  0
  139.1965   76.5420  223.2902 H   0  0  0  0  0  0  0  0  0  0  0  0
  139.4424   74.8557  222.8182 H   0  0  0  0  0  0  0  0  0  0  0  0
  140.7999   77.2630  221.4094 H   0  0  0  0  0  0  0  0  0  0  0  0
  141.6002   76.3170  222.6737 H   0  0  0  0  0  0  0  0  0  0  0  0
  1  2  1  0
  2  3  1  0
  3  4  2  0
  3  5  1  0
  5  6  1  0
  6  7  2  0
  7  8  1  0
  8  9  2  0
  9 10  1  0
 10 11  2  0
  5 12  1  0
 12 13  1  0
 13 14  1  0
 14 15  1  0
 15 16  1  0
 16 17  2  0
 16 18  1  0
 18 19  1  0
 19 20  1  0
 20 21  1  0
 21 22  1  0
 22 23  1  0
 23 24  1  0
 24 25  2  0
 25 26  1  0
 26 27  2  0
 27 28  1  0
 28 29  2  0
 29 30  1  0
 15 31  1  0
 31 32  1  0
 11  6  1  0
 32 12  1  0
 22 18  1  0
 29 24  1  0
  1 33  1  0
  1 34  1  0
  1 35  1  0
  2 36  1  0
  2 37  1  0
  7 38  1  0
  8 39  1  0
  9 40  1  0
 10 41  1  0
 11 42  1  0
 12 43  1  0
 13 44  1  0
 13 45  1  0
 14 46  1  0
 14 47  1  0
 18 48  1  1
 19 49  1  0
 19 50  1  0
 20 51  1  0
 20 52  1  0
 21 53  1  0
 21 54  1  0
 23 55  1  0
 23 56  1  0
 25 57  1  0
 26 58  1  0
 27 59  1  0
 28 60  1  0
 31 61  1  0
 31 62  1  0
 32 63  1  0
 32 64  1  0
M  END
>  <smiles>  (10) 
CCC(=O)N(c1ccccc1)C1CCN(C(=O)[C@@H]2CCCN2Cc2ccccc2Cl)CC1

>  <score_type>  (10) 
oracle

>  <origin>  (10) 
autodockgpu

>  <m_score__min__energy>  (10) 
-9.4600000000000009

>  <m_primary>  (10) 
energy

>  <rmsd>  (10) 
7.826881398728865

>  <m_score__min__rmsd>  (10) 
7.826881398728865

>  <meeko>  (10) 
{"free_energy": -6.67, "intermolecular_energy": -8.76, "internal_energy": -3.16, "cluster_size": 8, "cluster_id": 3, "rank_in_cluster": 5}

>  <energy>  (10) 
-9.2

>  <cluster_rmsd>  (10) 
0.4

>  <cluster>  (10) 
1

$$$$

     RDKit          3D

 64 67  0  0  0  0  0  0  0  0999 V2000
  138.8740   66.5400  222.6290 C   0  0  0  0  0  0  0  0  0  0  0  0
  138.3910   67.9520  222.8240 C   0  0  0  0  0  0  0  0  0  0  0  0
  139.0130   68.4900  224.0600 C   0  0  0  0  0  0  0  0  0  0  0  0
  139.1900   67.6180  224.9810 O   0  0  0  0  0  0  0  0  0  0  0  0
  139.3830   69.8570  224.2240 N   0  0  0  0  0  0  0  0  0  0  0  0
  139.9050   70.4140  225.4180 C   0  0  0  0  0  0  0  0  0  0  0  0
  140.7660   71.5210  225.3980 C   0  0  0  0  0  0  0  0  0  0  0  0
  141.2700   72.0790  226.5530 C   0  0  0  0  0  0  0  0  0  0  0  0
  140.9610   71.5870  227.7970 C   0  0  0  0  0  0  0  0  0  0  0  0
  140.1200   70.5020  227.8500 C   0  0  0  0  0  0  0  0  0  0  0  0
  139.6080   69.9360  226.6780 C   0  0  0  0  0  0  0  0  0  0  0  0
  139.2210   70.6980  223.0370 C   0  0  0  0  0  0  0  0  0  0  0  0
  140.4910   71.1440  222.4140 C   0  0  0  0  0  0  0  0  0  0  0  0
  140.5400   72.4720  221.7600 C   0  0  0  0  0  0  0  0  0  0  0  0
  139.3220   73.2790  221.9360 N   0  0  0  0  0  0  0  0  0  0  0  0
  139.5110   74.6600  222.0840 C   0  0  0  0  0  0  0  0  0  0  0  0
  140.7600   75.0210  222.0310 O   0  0  0  0  0  0  0  0  0  0  0  0
  138.5530   75.7300  222.2860 C   0  0  2  0  0  0  0  0  0  0  0  0
  137.6760   76.1410  221.1600 C   0  0  0  0  0  0  0  0  0  0  0  0
  137.2950   77.5830  221.4590 C   0  0  0  0  0  0  0  0  0  0  0  0
  138.0640   77.9200  222.6970 C   0  0  0  0  0  0  0  0  0  0  0  0
  139.2120   76.9840  222.6630 N   0  0  0  0  0  0  0  0  0  0  0  0
  140.1190   77.4780  221.6460 C   0  0  0  0  0  0  0  0  0  0  0  0
  140.9840   78.5660  222.1930 C   0  0  0  0  0  0  0  0  0  0  0  0
  141.3330   78.6560  223.5230 C   0  0  0  0  0  0  0  0  0  0  0  0
  142.1370   79.6780  224.0170 C   0  0  0  0  0  0  0  0  0  0  0  0
  142.5920   80.6340  223.0960 C   0  0  0  0  0  0  0  0  0  0  0  0
  142.2270   80.5150  221.7790 C   0  0  0  0  0  0  0  0  0  0  0  0
  141.4310   79.5070  221.2800 C   0  0  0  0  0  0  0  0  0  0  0  0
  141.0090   79.4210  219.5930 Cl  0  0  0  0  0  0  0  0  0  0  0  0
  138.1020   72.5430  221.9320 C   0  0  0  0  0  0  0  0  0  0  0  0
  138.1230   71.7030  223.2200 C   0  0  0  0  0  0  0  0  0  0  0  0
  139.0352   66.0689  223.6098 H   0  0  0  0  0  0  0  0  0  0  0  0
  138.1201   65.9689  222.0673 H   0  0  0  0  0  0  0  0  0  0  0  0
  139.8197   66.5502  222.0673 H   0  0  0  0  0  0  0  0  0  0  0  0
  138.6844   68.5681  221.9613 H   0  0  0  0  0  0  0  0  0  0  0  0
  137.2947   67.9691  222.9126 H   0  0  0  0  0  0  0  0  0  0  0  0
  141.0482   71.9581  224.4288 H   0  0  0  0  0  0  0  0  0  0  0  0
  141.9416   72.9467  226.4757 H   0  0  0  0  0  0  0  0  0  0  0  0
  141.3691   72.0419  228.7116 H   0  0  0  0  0  0  0  0  0  0  0  0
  139.8461   70.0735  228.8254 H   0  0  0  0  0  0  0  0  0  0  0  0
  138.9368   69.0688  226.7647 H   0  0  0  0  0  0  0  0  0  0  0  0
  138.8464   70.0657  222.2186 H   0  0  0  0  0  0  0  0  0  0  0  0
  141.2555   71.1453  223.2049 H   0  0  0  0  0  0  0  0  0  0  0  0
  140.6431   70.4355  221.5864 H   0  0  0  0  0  0  0  0  0  0  0  0
  141.3881   73.0321  222.1806 H   0  0  0  0  0  0  0  0  0  0  0  0
  140.6426   72.2879  220.6804 H   0  0  0  0  0  0  0  0  0  0  0  0
  137.9277   75.2554  223.0565 H   0  0  0  0  0  0  0  0  0  0  0  0
  138.2176   76.0750  220.2049 H   0  0  0  0  0  0  0  0  0  0  0  0
  136.7924   75.4922  221.0683 H   0  0  0  0  0  0  0  0  0  0  0  0
  137.5854   78.2429  220.6283 H   0  0  0  0  0  0  0  0  0  0  0  0
  136.2105   77.7124  221.5899 H   0  0  0  0  0  0  0  0  0  0  0  0
  138.4085   78.9644  222.6727 H   0  0  0  0  0  0  0  0  0  0  0  0
  137.4619   77.8231  223.6125 H   0  0  0  0  0  0  0  0  0  0  0  0
  140.7556   76.6513  221.2977 H   0  0  0  0  0  0  0  0  0  0  0  0
  139.5277   77.8824  220.8112 H   0  0  0  0  0  0  0  0  0  0  0  0
  140.9617   77.8907  224.2205 H   0  0  0  0  0  0  0  0  0  0  0  0
  142.4043   79.7343  225.0825 H   0  0  0  0  0  0  0  0  0  0  0  0
  143.2316   81.4662  223.4251 H   0  0  0  0  0  0  0  0  0  0  0  0
  142.5944   81.2753  221.0740 H   0  0  0  0  0  0  0  0  0  0  0  0
  137.2406   73.2271  221.9335 H   0  0  0  0  0  0  0  0  0  0  0  0
  138.0095   71.9122  221.0356 H   0  0  0  0  0  0  0  0  0  0  0  0
  138.3307   72.3425  224.0906 H   0  0  0  0  0  0  0  0  0  0  0  0
  137.1539   71.2145  223.3996 H   0  0  0  0  0  0  0  0  0  0  0  0
  1  2  1  0
  2  3  1  0
  3  4  2  0
  3  5  1  0
  5  6  1  0
  6  7  2  0
  7  8  1  0
  8  9  2  0
  9 10  1  0
 10 11  2  0
  5 12  1  0
 12 13  1  0
 13 14  1  0
 14 15  1  0
 15 16  1  0
 16 17  2  0
 16 18  1  0
 18 19  1  0
 19 20  1  0
 20 21  1  0
 21 22  1  0
 22 23  1  0
 23 24  1  0
 24 25  2  0
 25 26  1  0
 26 27  2  0
 27 28  1  0
 28 29  2  0
 29 30  1  0
 15 31  1  0
 31 32  1  0
 11  6  1  0
 32 12  1  0
 22 18  1  0
 29 24  1  0
  1 33  1  0
  1 34  1  0
  1 35  1  0
  2 36  1  0
  2 37  1  0
  7 38  1  0
  8 39  1  0
  9 40  1  0
 10 41  1  0
 11 42  1  0
 12 43  1  0
 13 44  1  0
 13 45  1  0
 14 46  1  0
 14 47  1  0
 18 48  1  1
 19 49  1  0
 19 50  1  0
 20 51  1  0
 20 52  1  0
 21 53  1  0
 21 54  1  0
 23 55  1  0
 23 56  1  0
 25 57  1  0
 26 58  1  0
 27 59  1  0
 28 60  1  0
 31 61  1  0
 31 62  1  0
 32 63  1  0
 32 64  1  0
M  END
>  <smiles>  (11) 
CCC(=O)N(c1ccccc1)C1CCN(C(=O)[C@@H]2CCCN2Cc2ccccc2Cl)CC1

>  <score_type>  (11) 
oracle

>  <origin>  (11) 
autodockgpu

>  <m_score__min__energy>  (11) 
-9.4600000000000009

>  <m_primary>  (11) 
energy

>  <rmsd>  (11) 
8.160820752496658

>  <m_score__min__rmsd>  (11) 
8.160820752496658

>  <meeko>  (11) 
{"free_energy": -9.31, "intermolecular_energy": -11.4, "internal_energy": -1.73, "cluster_size": 20, "cluster_id": 1, "rank_in_cluster": 4}

>  <energy>  (11) 
-9.07

>  <cluster_rmsd>  (11) 
0.56

>  <cluster>  (11) 
1

$$$$

     RDKit          3D

 64 67  0  0  0  0  0  0  0  0999 V2000
  142.4270   72.8840  220.8590 C   0  0  0  0  0  0  0  0  0  0  0  0
  141.3780   73.9460  221.0450 C   0  0  0  0  0  0  0  0  0  0  0  0
  141.9450   75.2430  220.5980 C   0  0  0  0  0  0  0  0  0  0  0  0
  143.2090   75.2230  220.4000 O   0  0  0  0  0  0  0  0  0  0  0  0
  141.1630   76.4200  220.4070 N   0  0  0  0  0  0  0  0  0  0  0  0
  141.6020   77.5770  219.7160 C   0  0  0  0  0  0  0  0  0  0  0  0
  142.5140   77.4960  218.6520 C   0  0  0  0  0  0  0  0  0  0  0  0
  142.9390   78.6130  217.9650 C   0  0  0  0  0  0  0  0  0  0  0  0
  142.4960   79.8750  218.2770 C   0  0  0  0  0  0  0  0  0  0  0  0
  141.6030   79.9870  219.3140 C   0  0  0  0  0  0  0  0  0  0  0  0
  141.1720   78.8530  220.0120 C   0  0  0  0  0  0  0  0  0  0  0  0
  139.8070   76.3690  220.9560 C   0  0  0  0  0  0  0  0  0  0  0  0
  138.7300   76.6640  219.9800 C   0  0  0  0  0  0  0  0  0  0  0  0
  137.5050   77.3510  220.4510 C   0  0  0  0  0  0  0  0  0  0  0  0
  137.5630   77.8000  221.8520 N   0  0  0  0  0  0  0  0  0  0  0  0
  136.9290   79.0170  222.1370 C   0  0  0  0  0  0  0  0  0  0  0  0
  136.3670   79.5640  221.1000 O   0  0  0  0  0  0  0  0  0  0  0  0
  136.8050   79.7490  223.3830 C   0  0  2  0  0  0  0  0  0  0  0  0
  136.1070   81.0600  223.3880 C   0  0  0  0  0  0  0  0  0  0  0  0
  136.6740   81.8080  224.5850 C   0  0  0  0  0  0  0  0  0  0  0  0
  137.7300   80.8960  225.1250 C   0  0  0  0  0  0  0  0  0  0  0  0
  138.1160   80.0730  223.9550 N   0  0  0  0  0  0  0  0  0  0  0  0
  138.9160   80.9250  223.0970 C   0  0  0  0  0  0  0  0  0  0  0  0
  140.3470   80.5010  223.1200 C   0  0  0  0  0  0  0  0  0  0  0  0
  140.8030   79.4160  223.8360 C   0  0  0  0  0  0  0  0  0  0  0  0
  142.1410   79.0360  223.8500 C   0  0  0  0  0  0  0  0  0  0  0  0
  143.0310   79.8120  223.0930 C   0  0  0  0  0  0  0  0  0  0  0  0
  142.5470   80.8860  222.3900 C   0  0  0  0  0  0  0  0  0  0  0  0
  141.2230   81.2700  222.3710 C   0  0  0  0  0  0  0  0  0  0  0  0
  140.6800   82.6470  221.4540 Cl  0  0  0  0  0  0  0  0  0  0  0  0
  138.2620   76.9300  222.7380 C   0  0  0  0  0  0  0  0  0  0  0  0
  139.7380   77.0070  222.3120 C   0  0  0  0  0  0  0  0  0  0  0  0
  142.7728   72.5339  221.8428 H   0  0  0  0  0  0  0  0  0  0  0  0
  141.9987   72.0396  220.2991 H   0  0  0  0  0  0  0  0  0  0  0  0
  143.2766   73.3019  220.2991 H   0  0  0  0  0  0  0  0  0  0  0  0
  140.4899   73.7012  220.4439 H   0  0  0  0  0  0  0  0  0  0  0  0
  141.0819   74.0057  222.1027 H   0  0  0  0  0  0  0  0  0  0  0  0
  142.9019   76.5098  218.3570 H   0  0  0  0  0  0  0  0  0  0  0  0
  143.6562   78.4895  217.1401 H   0  0  0  0  0  0  0  0  0  0  0  0
  142.8418   80.7583  217.7200 H   0  0  0  0  0  0  0  0  0  0  0  0
  141.2222   80.9788  219.5993 H   0  0  0  0  0  0  0  0  0  0  0  0
  140.4558   78.9862  220.8362 H   0  0  0  0  0  0  0  0  0  0  0  0
  139.5609   75.3169  221.1623 H   0  0  0  0  0  0  0  0  0  0  0  0
  139.1710   77.2938  219.1933 H   0  0  0  0  0  0  0  0  0  0  0  0
  138.3738   75.6704  219.6705 H   0  0  0  0  0  0  0  0  0  0  0  0
  137.3372   78.2317  219.8136 H   0  0  0  0  0  0  0  0  0  0  0  0
  136.6883   76.6167  220.3890 H   0  0  0  0  0  0  0  0  0  0  0  0
  136.1918   79.0281  223.9435 H   0  0  0  0  0  0  0  0  0  0  0  0
  136.3114   81.6096  222.4573 H   0  0  0  0  0  0  0  0  0  0  0  0
  135.0151   80.9446  223.4544 H   0  0  0  0  0  0  0  0  0  0  0  0
  137.1107   82.7682  224.2732 H   0  0  0  0  0  0  0  0  0  0  0  0
  135.9042   82.0488  225.3330 H   0  0  0  0  0  0  0  0  0  0  0  0
  138.5894   81.4705  225.5010 H   0  0  0  0  0  0  0  0  0  0  0  0
  137.3774   80.2913  225.9736 H   0  0  0  0  0  0  0  0  0  0  0  0
  138.5362   80.8589  222.0668 H   0  0  0  0  0  0  0  0  0  0  0  0
  138.8476   81.9601  223.4629 H   0  0  0  0  0  0  0  0  0  0  0  0
  140.0804   78.8268  224.4197 H   0  0  0  0  0  0  0  0  0  0  0  0
  142.4856   78.1662  224.4286 H   0  0  0  0  0  0  0  0  0  0  0  0
  144.1020   79.5629  223.0634 H   0  0  0  0  0  0  0  0  0  0  0  0
  143.2626   81.4801  221.8026 H   0  0  0  0  0  0  0  0  0  0  0  0
  138.1444   77.2661  223.7788 H   0  0  0  0  0  0  0  0  0  0  0  0
  137.8763   75.9011  222.6875 H   0  0  0  0  0  0  0  0  0  0  0  0
  140.0670   78.0553  222.2591 H   0  0  0  0  0  0  0  0  0  0  0  0
  140.3941   76.4970  223.0327 H   0  0  0  0  0  0  0  0  0  0  0  0
  1  2  1  0
  2  3  1  0
  3  4  2  0
  3  5  1  0
  5  6  1  0
  6  7  2  0
  7  8  1  0
  8  9  2  0
  9 10  1  0
 10 11  2  0
  5 12  1  0
 12 13  1  0
 13 14  1  0
 14 15  1  0
 15 16  1  0
 16 17  2  0
 16 18  1  0
 18 19  1  0
 19 20  1  0
 20 21  1  0
 21 22  1  0
 22 23  1  0
 23 24  1  0
 24 25  2  0
 25 26  1  0
 26 27  2  0
 27 28  1  0
 28 29  2  0
 29 30  1  0
 15 31  1  0
 31 32  1  0
 11  6  1  0
 32 12  1  0
 22 18  1  0
 29 24  1  0
  1 33  1  0
  1 34  1  0
  1 35  1  0
  2 36  1  0
  2 37  1  0
  7 38  1  0
  8 39  1  0
  9 40  1  0
 10 41  1  0
 11 42  1  0
 12 43  1  0
 13 44  1  0
 13 45  1  0
 14 46  1  0
 14 47  1  0
 18 48  1  1
 19 49  1  0
 19 50  1  0
 20 51  1  0
 20 52  1  0
 21 53  1  0
 21 54  1  0
 23 55  1  0
 23 56  1  0
 25 57  1  0
 26 58  1  0
 27 59  1  0
 28 60  1  0
 31 61  1  0
 31 62  1  0
 32 63  1  0
 32 64  1  0
M  END
>  <smiles>  (12) 
CCC(=O)N(c1ccccc1)C1CCN(C(=O)[C@@H]2CCCN2Cc2ccccc2Cl)CC1

>  <score_type>  (12) 
oracle

>  <origin>  (12) 
autodockgpu

>  <m_score__min__energy>  (12) 
-9.4600000000000009

>  <m_primary>  (12) 
energy

>  <rmsd>  (12) 
8.219426779850707

>  <m_score__min__rmsd>  (12) 
8.219426779850707

>  <meeko>  (12) 
{"free_energy": -6.4, "intermolecular_energy": -8.49, "internal_energy": -3.52, "cluster_size": 22, "cluster_id": 2, "rank_in_cluster": 19}

>  <energy>  (12) 
-9.07

>  <cluster_rmsd>  (12) 
1.28

>  <cluster>  (12) 
1

$$$$

     RDKit          3D

 64 67  0  0  0  0  0  0  0  0999 V2000
  142.8170   73.0700  220.5060 C   0  0  0  0  0  0  0  0  0  0  0  0
  142.8060   74.5740  220.5220 C   0  0  0  0  0  0  0  0  0  0  0  0
  141.5000   75.0250  221.0660 C   0  0  0  0  0  0  0  0  0  0  0  0
  141.0170   74.2610  221.9720 O   0  0  0  0  0  0  0  0  0  0  0  0
  140.8280   76.2020  220.6240 N   0  0  0  0  0  0  0  0  0  0  0  0
  141.4080   77.2040  219.8060 C   0  0  0  0  0  0  0  0  0  0  0  0
  141.3140   78.5650  220.1330 C   0  0  0  0  0  0  0  0  0  0  0  0
  141.8840   79.5470  219.3520 C   0  0  0  0  0  0  0  0  0  0  0  0
  142.5810   79.2560  218.2050 C   0  0  0  0  0  0  0  0  0  0  0  0
  142.6910   77.9310  217.8580 C   0  0  0  0  0  0  0  0  0  0  0  0
  142.1120   76.9350  218.6510 C   0  0  0  0  0  0  0  0  0  0  0  0
  139.4320   76.3250  221.0470 C   0  0  0  0  0  0  0  0  0  0  0  0
  138.5090   76.8320  220.0030 C   0  0  0  0  0  0  0  0  0  0  0  0
  137.3550   77.6670  220.4110 C   0  0  0  0  0  0  0  0  0  0  0  0
  137.3420   78.0240  221.8390 N   0  0  0  0  0  0  0  0  0  0  0  0
  136.8650   79.3050  222.1510 C   0  0  0  0  0  0  0  0  0  0  0  0
  136.4910   79.9870  221.1090 O   0  0  0  0  0  0  0  0  0  0  0  0
  136.7280   79.9770  223.4290 C   0  0  2  0  0  0  0  0  0  0  0  0
  136.0800   81.3130  223.4810 C   0  0  0  0  0  0  0  0  0  0  0  0
  136.6350   81.9760  224.7320 C   0  0  0  0  0  0  0  0  0  0  0  0
  137.6380   80.9960  225.2570 C   0  0  0  0  0  0  0  0  0  0  0  0
  138.0300   80.2200  224.0580 N   0  0  0  0  0  0  0  0  0  0  0  0
  138.8900   81.0810  223.2710 C   0  0  0  0  0  0  0  0  0  0  0  0
  140.2780   80.5330  223.2150 C   0  0  0  0  0  0  0  0  0  0  0  0
  140.6680   79.3940  223.8850 C   0  0  0  0  0  0  0  0  0  0  0  0
  141.9660   78.8980  223.8260 C   0  0  0  0  0  0  0  0  0  0  0  0
  142.8860   79.6120  223.0430 C   0  0  0  0  0  0  0  0  0  0  0  0
  142.4670   80.7430  222.3890 C   0  0  0  0  0  0  0  0  0  0  0  0
  141.1830   81.2410  222.4410 C   0  0  0  0  0  0  0  0  0  0  0  0
  140.7230   82.6840  221.5810 Cl  0  0  0  0  0  0  0  0  0  0  0  0
  137.8190   77.0120  222.7220 C   0  0  0  0  0  0  0  0  0  0  0  0
  139.3250   76.8900  222.4330 C   0  0  0  0  0  0  0  0  0  0  0  0
  142.8198   72.6923  221.5391 H   0  0  0  0  0  0  0  0  0  0  0  0
  141.9215   72.7023  219.9836 H   0  0  0  0  0  0  0  0  0  0  0  0
  143.7178   72.7154  219.9836 H   0  0  0  0  0  0  0  0  0  0  0  0
  143.6224   74.9452  221.1590 H   0  0  0  0  0  0  0  0  0  0  0  0
  142.9477   74.9649  219.5036 H   0  0  0  0  0  0  0  0  0  0  0  0
  140.7678   78.8577  221.0419 H   0  0  0  0  0  0  0  0  0  0  0  0
  141.7772   80.5984  219.6573 H   0  0  0  0  0  0  0  0  0  0  0  0
  143.0317   80.0493  217.5906 H   0  0  0  0  0  0  0  0  0  0  0  0
  143.2402   77.6507  216.9470 H   0  0  0  0  0  0  0  0  0  0  0  0
  142.2235   75.8863  218.3383 H   0  0  0  0  0  0  0  0  0  0  0  0
  139.0171   75.3123  221.1577 H   0  0  0  0  0  0  0  0  0  0  0  0
  139.1105   77.4320  219.3043 H   0  0  0  0  0  0  0  0  0  0  0  0
  138.0458   75.9217  219.5946 H   0  0  0  0  0  0  0  0  0  0  0  0
  137.3773   78.5967  219.8234 H   0  0  0  0  0  0  0  0  0  0  0  0
  136.4511   77.0676  220.2273 H   0  0  0  0  0  0  0  0  0  0  0  0
  136.0701   79.2525  223.9313 H   0  0  0  0  0  0  0  0  0  0  0  0
  136.3355   81.9008  222.5870 H   0  0  0  0  0  0  0  0  0  0  0  0
  134.9829   81.2374  223.5076 H   0  0  0  0  0  0  0  0  0  0  0  0
  137.1180   82.9327  224.4842 H   0  0  0  0  0  0  0  0  0  0  0  0
  135.8506   82.2087  225.4672 H   0  0  0  0  0  0  0  0  0  0  0  0
  138.5058   81.5160  225.6889 H   0  0  0  0  0  0  0  0  0  0  0  0
  137.2356   80.3634  226.0619 H   0  0  0  0  0  0  0  0  0  0  0  0
  138.4895   81.1546  222.2492 H   0  0  0  0  0  0  0  0  0  0  0  0
  138.9212   82.0748  223.7416 H   0  0  0  0  0  0  0  0  0  0  0  0
  139.9236   78.8559  224.4902 H   0  0  0  0  0  0  0  0  0  0  0  0
  142.2583   77.9870  224.3687 H   0  0  0  0  0  0  0  0  0  0  0  0
  143.9277   79.2699  222.9549 H   0  0  0  0  0  0  0  0  0  0  0  0
  143.2051   81.2886  221.7828 H   0  0  0  0  0  0  0  0  0  0  0  0
  137.6511   77.3050  223.7689 H   0  0  0  0  0  0  0  0  0  0  0  0
  137.2955   76.0568  222.5684 H   0  0  0  0  0  0  0  0  0  0  0  0
  139.8055   77.8783  222.4817 H   0  0  0  0  0  0  0  0  0  0  0  0
  139.8278   76.2480  223.1713 H   0  0  0  0  0  0  0  0  0  0  0  0
  1  2  1  0
  2  3  1  0
  3  4  2  0
  3  5  1  0
  5  6  1  0
  6  7  2  0
  7  8  1  0
  8  9  2  0
  9 10  1  0
 10 11  2  0
  5 12  1  0
 12 13  1  0
 13 14  1  0
 14 15  1  0
 15 16  1  0
 16 17  2  0
 16 18  1  0
 18 19  1  0
 19 20  1  0
 20 21  1  0
 21 22  1  0
 22 23  1  0
 23 24  1  0
 24 25  2  0
 25 26  1  0
 26 27  2  0
 27 28  1  0
 28 29  2  0
 29 30  1  0
 15 31  1  0
 31 32  1  0
 11  6  1  0
 32 12  1  0
 22 18  1  0
 29 24  1  0
  1 33  1  0
  1 34  1  0
  1 35  1  0
  2 36  1  0
  2 37  1  0
  7 38  1  0
  8 39  1  0
  9 40  1  0
 10 41  1  0
 11 42  1  0
 12 43  1  0
 13 44  1  0
 13 45  1  0
 14 46  1  0
 14 47  1  0
 18 48  1  1
 19 49  1  0
 19 50  1  0
 20 51  1  0
 20 52  1  0
 21 53  1  0
 21 54  1  0
 23 55  1  0
 23 56  1  0
 25 57  1  0
 26 58  1  0
 27 59  1  0
 28 60  1  0
 31 61  1  0
 31 62  1  0
 32 63  1  0
 32 64  1  0
M  END
>  <smiles>  (13) 
CCC(=O)N(c1ccccc1)C1CCN(C(=O)[C@@H]2CCCN2Cc2ccccc2Cl)CC1

>  <score_type>  (13) 
oracle

>  <origin>  (13) 
autodockgpu

>  <m_score__min__energy>  (13) 
-9.4600000000000009

>  <m_primary>  (13) 
energy

>  <rmsd>  (13) 
8.238132897194191

>  <m_score__min__rmsd>  (13) 
8.238132897194191

>  <meeko>  (13) 
{"free_energy": -6.9, "intermolecular_energy": -8.98, "internal_energy": -3.48, "cluster_size": 22, "cluster_id": 2, "rank_in_cluster": 5}

>  <energy>  (13) 
-9.04

>  <cluster_rmsd>  (13) 
0.61

>  <cluster>  (13) 
1

$$$$

     RDKit          3D

 64 67  0  0  0  0  0  0  0  0999 V2000
  136.5490   68.8660  223.2950 C   0  0  0  0  0  0  0  0  0  0  0  0
  137.8450   68.1460  223.0390 C   0  0  0  0  0  0  0  0  0  0  0  0
  138.8220   68.5630  224.0760 C   0  0  0  0  0  0  0  0  0  0  0  0
  139.1940   67.6190  224.8570 O   0  0  0  0  0  0  0  0  0  0  0  0
  139.3100   69.8960  224.2060 N   0  0  0  0  0  0  0  0  0  0  0  0
  139.8900   70.4310  225.3840 C   0  0  0  0  0  0  0  0  0  0  0  0
  140.7790   71.5170  225.3380 C   0  0  0  0  0  0  0  0  0  0  0  0
  141.3390   72.0530  226.4770 C   0  0  0  0  0  0  0  0  0  0  0  0
  141.0630   71.5610  227.7290 C   0  0  0  0  0  0  0  0  0  0  0  0
  140.1960   70.4980  227.8070 C   0  0  0  0  0  0  0  0  0  0  0  0
  139.6280   69.9530  226.6510 C   0  0  0  0  0  0  0  0  0  0  0  0
  139.2100   70.7220  223.0030 C   0  0  0  0  0  0  0  0  0  0  0  0
  140.5090   71.0620  222.3720 C   0  0  0  0  0  0  0  0  0  0  0  0
  140.6550   72.3690  221.6920 C   0  0  0  0  0  0  0  0  0  0  0  0
  139.4980   73.2670  221.8500 N   0  0  0  0  0  0  0  0  0  0  0  0
  139.7880   74.6320  221.9700 C   0  0  0  0  0  0  0  0  0  0  0  0
  141.0590   74.9000  221.9110 O   0  0  0  0  0  0  0  0  0  0  0  0
  138.9110   75.7730  222.1490 C   0  0  2  0  0  0  0  0  0  0  0  0
  138.1820   76.3200  220.9760 C   0  0  0  0  0  0  0  0  0  0  0  0
  137.8990   77.7730  221.3250 C   0  0  0  0  0  0  0  0  0  0  0  0
  138.5750   77.9750  222.6450 C   0  0  0  0  0  0  0  0  0  0  0  0
  139.6370   76.9420  222.6580 N   0  0  0  0  0  0  0  0  0  0  0  0
  140.6740   77.4030  221.7560 C   0  0  0  0  0  0  0  0  0  0  0  0
  141.3470   78.6190  222.3040 C   0  0  0  0  0  0  0  0  0  0  0  0
  141.6460   78.7790  223.6390 C   0  0  0  0  0  0  0  0  0  0  0  0
  142.2700   79.9190  224.1340 C   0  0  0  0  0  0  0  0  0  0  0  0
  142.5920   80.9230  223.2080 C   0  0  0  0  0  0  0  0  0  0  0  0
  142.2810   80.7330  221.8860 C   0  0  0  0  0  0  0  0  0  0  0  0
  141.6630   79.6070  221.3860 C   0  0  0  0  0  0  0  0  0  0  0  0
  141.2990   79.4350  219.6920 Cl  0  0  0  0  0  0  0  0  0  0  0  0
  138.2280   72.6220  221.8590 C   0  0  0  0  0  0  0  0  0  0  0  0
  138.1880   71.8090  223.1640 C   0  0  0  0  0  0  0  0  0  0  0  0
  136.3874   68.9558  224.3794 H   0  0  0  0  0  0  0  0  0  0  0  0
  136.5922   69.8694  222.8464 H   0  0  0  0  0  0  0  0  0  0  0  0
  135.7198   68.2992  222.8464 H   0  0  0  0  0  0  0  0  0  0  0  0
  137.6842   67.0593  223.0949 H   0  0  0  0  0  0  0  0  0  0  0  0
  138.2257   68.3949  222.0374 H   0  0  0  0  0  0  0  0  0  0  0  0
  141.0365   71.9536  224.3617 H   0  0  0  0  0  0  0  0  0  0  0  0
  142.0301   72.9033  226.3803 H   0  0  0  0  0  0  0  0  0  0  0  0
  141.5164   71.9990  228.6304 H   0  0  0  0  0  0  0  0  0  0  0  0
  139.9459   70.0710  228.7894 H   0  0  0  0  0  0  0  0  0  0  0  0
  138.9391   69.1021  226.7574 H   0  0  0  0  0  0  0  0  0  0  0  0
  138.7903   70.1013  222.1977 H   0  0  0  0  0  0  0  0  0  0  0  0
  141.2720   71.0231  223.1633 H   0  0  0  0  0  0  0  0  0  0  0  0
  140.6078   70.3282  221.5585 H   0  0  0  0  0  0  0  0  0  0  0  0
  141.5417   72.8740  222.1029 H   0  0  0  0  0  0  0  0  0  0  0  0
  140.7442   72.1563  220.6164 H   0  0  0  0  0  0  0  0  0  0  0  0
  138.1778   75.3175  222.8309 H   0  0  0  0  0  0  0  0  0  0  0  0
  138.8035   76.2546  220.0707 H   0  0  0  0  0  0  0  0  0  0  0  0
  137.2586   75.7597  220.7677 H   0  0  0  0  0  0  0  0  0  0  0  0
  138.3212   78.4458  220.5640 H   0  0  0  0  0  0  0  0  0  0  0  0
  136.8220   77.9931  221.3664 H   0  0  0  0  0  0  0  0  0  0  0  0
  139.0083   78.9838  222.7134 H   0  0  0  0  0  0  0  0  0  0  0  0
  137.8835   77.8860  223.4959 H   0  0  0  0  0  0  0  0  0  0  0  0
  141.4200   76.6052  221.6253 H   0  0  0  0  0  0  0  0  0  0  0  0
  140.2149   77.6577  220.7894 H   0  0  0  0  0  0  0  0  0  0  0  0
  141.3810   77.9742  224.3405 H   0  0  0  0  0  0  0  0  0  0  0  0
  142.5009   80.0288  225.2039 H   0  0  0  0  0  0  0  0  0  0  0  0
  143.0865   81.8486  223.5376 H   0  0  0  0  0  0  0  0  0  0  0  0
  142.5422   81.5326  221.1772 H   0  0  0  0  0  0  0  0  0  0  0  0
  137.4187   73.3668  221.8454 H   0  0  0  0  0  0  0  0  0  0  0  0
  138.0898   71.9816  220.9754 H   0  0  0  0  0  0  0  0  0  0  0  0
  138.4423   72.4492  224.0216 H   0  0  0  0  0  0  0  0  0  0  0  0
  137.1858   71.3964  223.3522 H   0  0  0  0  0  0  0  0  0  0  0  0
  1  2  1  0
  2  3  1  0
  3  4  2  0
  3  5  1  0
  5  6  1  0
  6  7  2  0
  7  8  1  0
  8  9  2  0
  9 10  1  0
 10 11  2  0
  5 12  1  0
 12 13  1  0
 13 14  1  0
 14 15  1  0
 15 16  1  0
 16 17  2  0
 16 18  1  0
 18 19  1  0
 19 20  1  0
 20 21  1  0
 21 22  1  0
 22 23  1  0
 23 24  1  0
 24 25  2  0
 25 26  1  0
 26 27  2  0
 27 28  1  0
 28 29  2  0
 29 30  1  0
 15 31  1  0
 31 32  1  0
 11  6  1  0
 32 12  1  0
 22 18  1  0
 29 24  1  0
  1 33  1  0
  1 34  1  0
  1 35  1  0
  2 36  1  0
  2 37  1  0
  7 38  1  0
  8 39  1  0
  9 40  1  0
 10 41  1  0
 11 42  1  0
 12 43  1  0
 13 44  1  0
 13 45  1  0
 14 46  1  0
 14 47  1  0
 18 48  1  1
 19 49  1  0
 19 50  1  0
 20 51  1  0
 20 52  1  0
 21 53  1  0
 21 54  1  0
 23 55  1  0
 23 56  1  0
 25 57  1  0
 26 58  1  0
 27 59  1  0
 28 60  1  0
 31 61  1  0
 31 62  1  0
 32 63  1  0
 32 64  1  0
M  END
>  <smiles>  (14) 
CCC(=O)N(c1ccccc1)C1CCN(C(=O)[C@@H]2CCCN2Cc2ccccc2Cl)CC1

>  <score_type>  (14) 
oracle

>  <origin>  (14) 
autodockgpu

>  <m_score__min__energy>  (14) 
-9.4600000000000009

>  <m_primary>  (14) 
energy

>  <rmsd>  (14) 
8.25052792971686

>  <m_score__min__rmsd>  (14) 
8.25052792971686

>  <meeko>  (14) 
{"free_energy": -9.2, "intermolecular_energy": -11.29, "internal_energy": -1.73, "cluster_size": 20, "cluster_id": 1, "rank_in_cluster": 10}

>  <energy>  (14) 
-8.99

>  <cluster_rmsd>  (14) 
0.35

>  <cluster>  (14) 
1

$$$$

     RDKit          3D

 64 67  0  0  0  0  0  0  0  0999 V2000
  142.5500   79.5830  218.1950 C   0  0  0  0  0  0  0  0  0  0  0  0
  142.4990   78.1110  218.5010 C   0  0  0  0  0  0  0  0  0  0  0  0
  141.7640   77.9260  219.7780 C   0  0  0  0  0  0  0  0  0  0  0  0
  141.5040   79.0170  220.3960 O   0  0  0  0  0  0  0  0  0  0  0  0
  141.3780   76.6520  220.2870 N   0  0  0  0  0  0  0  0  0  0  0  0
  142.2320   75.5230  220.3680 C   0  0  0  0  0  0  0  0  0  0  0  0
  143.5990   75.6120  220.0630 C   0  0  0  0  0  0  0  0  0  0  0  0
  144.4410   74.5250  220.1500 C   0  0  0  0  0  0  0  0  0  0  0  0
  143.9970   73.2860  220.5410 C   0  0  0  0  0  0  0  0  0  0  0  0
  142.6620   73.1660  220.8460 C   0  0  0  0  0  0  0  0  0  0  0  0
  141.8080   74.2700  220.7580 C   0  0  0  0  0  0  0  0  0  0  0  0
  140.0010   76.5610  220.7740 C   0  0  0  0  0  0  0  0  0  0  0  0
  138.9630   76.8970  219.7680 C   0  0  0  0  0  0  0  0  0  0  0  0
  137.7110   77.5470  220.2200 C   0  0  0  0  0  0  0  0  0  0  0  0
  137.7050   77.9250  221.6430 N   0  0  0  0  0  0  0  0  0  0  0  0
  137.0460   79.1190  221.9610 C   0  0  0  0  0  0  0  0  0  0  0  0
  136.5220   79.7140  220.9300 O   0  0  0  0  0  0  0  0  0  0  0  0
  136.8600   79.7860  223.2360 C   0  0  2  0  0  0  0  0  0  0  0  0
  136.1430   81.0860  223.2790 C   0  0  0  0  0  0  0  0  0  0  0  0
  136.6500   81.7790  224.5340 C   0  0  0  0  0  0  0  0  0  0  0  0
  137.6970   80.8550  225.0710 C   0  0  0  0  0  0  0  0  0  0  0  0
  138.1420   80.0980  223.8770 N   0  0  0  0  0  0  0  0  0  0  0  0
  138.9630   81.0020  223.0970 C   0  0  0  0  0  0  0  0  0  0  0  0
  140.3900   80.5640  223.1100 C   0  0  0  0  0  0  0  0  0  0  0  0
  140.8470   79.4990  223.8570 C   0  0  0  0  0  0  0  0  0  0  0  0
  142.1810   79.1060  223.8620 C   0  0  0  0  0  0  0  0  0  0  0  0
  143.0660   79.8450  223.0630 C   0  0  0  0  0  0  0  0  0  0  0  0
  142.5810   80.8990  222.3320 C   0  0  0  0  0  0  0  0  0  0  0  0
  141.2610   81.2960  222.3200 C   0  0  0  0  0  0  0  0  0  0  0  0
  140.7170   82.6460  221.3640 Cl  0  0  0  0  0  0  0  0  0  0  0  0
  138.3750   77.0170  222.5130 C   0  0  0  0  0  0  0  0  0  0  0  0
  139.8660   77.1280  222.1560 C   0  0  0  0  0  0  0  0  0  0  0  0
  142.5697   80.1526  219.1358 H   0  0  0  0  0  0  0  0  0  0  0  0
  143.4564   79.8053  217.6127 H   0  0  0  0  0  0  0  0  0  0  0  0
  141.6612   79.8675  217.6127 H   0  0  0  0  0  0  0  0  0  0  0  0
  141.9770   77.5805  217.6910 H   0  0  0  0  0  0  0  0  0  0  0  0
  143.5181   77.7062  218.5879 H   0  0  0  0  0  0  0  0  0  0  0  0
  144.0114   76.5807  219.7443 H   0  0  0  0  0  0  0  0  0  0  0  0
  145.5039   74.6540  219.8979 H   0  0  0  0  0  0  0  0  0  0  0  0
  144.6801   72.4264  220.6073 H   0  0  0  0  0  0  0  0  0  0  0  0
  142.2613   72.1917  221.1625 H   0  0  0  0  0  0  0  0  0  0  0  0
  140.7467   74.1322  221.0122 H   0  0  0  0  0  0  0  0  0  0  0  0
  139.7593   75.4974  220.9164 H   0  0  0  0  0  0  0  0  0  0  0  0
  139.4302   77.5712  219.0351 H   0  0  0  0  0  0  0  0  0  0  0  0
  138.6319   75.9176  219.3922 H   0  0  0  0  0  0  0  0  0  0  0  0
  137.5595   78.4571  219.6210 H   0  0  0  0  0  0  0  0  0  0  0  0
  136.9064   76.8089  220.0864 H   0  0  0  0  0  0  0  0  0  0  0  0
  136.2347   79.0297  223.7330 H   0  0  0  0  0  0  0  0  0  0  0  0
  136.3764   81.6851  222.3864 H   0  0  0  0  0  0  0  0  0  0  0  0
  135.0512   80.9532  223.2950 H   0  0  0  0  0  0  0  0  0  0  0  0
  137.0845   82.7594  224.2889 H   0  0  0  0  0  0  0  0  0  0  0  0
  135.8470   81.9710  225.2608 H   0  0  0  0  0  0  0  0  0  0  0  0
  138.5317   81.4208  225.5105 H   0  0  0  0  0  0  0  0  0  0  0  0
  137.3203   80.2035  225.8733 H   0  0  0  0  0  0  0  0  0  0  0  0
  138.5990   81.0156  222.0591 H   0  0  0  0  0  0  0  0  0  0  0  0
  138.8980   82.0077  223.5378 H   0  0  0  0  0  0  0  0  0  0  0  0
  140.1285   78.9384  224.4730 H   0  0  0  0  0  0  0  0  0  0  0  0
  142.5267   78.2538  224.4655 H   0  0  0  0  0  0  0  0  0  0  0  0
  144.1336   79.5828  223.0234 H   0  0  0  0  0  0  0  0  0  0  0  0
  143.2929   81.4656  221.7138 H   0  0  0  0  0  0  0  0  0  0  0  0
  138.2095   77.2985  223.5634 H   0  0  0  0  0  0  0  0  0  0  0  0
  138.0029   75.9887  222.3936 H   0  0  0  0  0  0  0  0  0  0  0  0
  140.1857   78.1804  222.1707 H   0  0  0  0  0  0  0  0  0  0  0  0
  140.4955   76.5870  222.8778 H   0  0  0  0  0  0  0  0  0  0  0  0
  1  2  1  0
  2  3  1  0
  3  4  2  0
  3  5  1  0
  5  6  1  0
  6  7  2  0
  7  8  1  0
  8  9  2  0
  9 10  1  0
 10 11  2  0
  5 12  1  0
 12 13  1  0
 13 14  1  0
 14 15  1  0
 15 16  1  0
 16 17  2  0
 16 18  1  0
 18 19  1  0
 19 20  1  0
 20 21  1  0
 21 22  1  0
 22 23  1  0
 23 24  1  0
 24 25  2  0
 25 26  1  0
 26 27  2  0
 27 28  1  0
 28 29  2  0
 29 30  1  0
 15 31  1  0
 31 32  1  0
 11  6  1  0
 32 12  1  0
 22 18  1  0
 29 24  1  0
  1 33  1  0
  1 34  1  0
  1 35  1  0
  2 36  1  0
  2 37  1  0
  7 38  1  0
  8 39  1  0
  9 40  1  0
 10 41  1  0
 11 42  1  0
 12 43  1  0
 13 44  1  0
 13 45  1  0
 14 46  1  0
 14 47  1  0
 18 48  1  1
 19 49  1  0
 19 50  1  0
 20 51  1  0
 20 52  1  0
 21 53  1  0
 21 54  1  0
 23 55  1  0
 23 56  1  0
 25 57  1  0
 26 58  1  0
 27 59  1  0
 28 60  1  0
 31 61  1  0
 31 62  1  0
 32 63  1  0
 32 64  1  0
M  END
>  <smiles>  (15) 
CCC(=O)N(c1ccccc1)C1CCN(C(=O)[C@@H]2CCCN2Cc2ccccc2Cl)CC1

>  <score_type>  (15) 
oracle

>  <origin>  (15) 
autodockgpu

>  <m_score__min__energy>  (15) 
-9.4600000000000009

>  <m_primary>  (15) 
energy

>  <rmsd>  (15) 
8.205506240618224

>  <m_score__min__rmsd>  (15) 
8.205506240618224

>  <meeko>  (15) 
{"free_energy": -6.79, "intermolecular_energy": -8.87, "internal_energy": -3.34, "cluster_size": 8, "cluster_id": 3, "rank_in_cluster": 2}

>  <energy>  (15) 
-8.84

>  <cluster_rmsd>  (15) 
0.63

>  <cluster>  (15) 
1

$$$$

     RDKit          3D

 64 67  0  0  0  0  0  0  0  0999 V2000
  142.8980   73.0080  220.4790 C   0  0  0  0  0  0  0  0  0  0  0  0
  142.8680   74.5120  220.5160 C   0  0  0  0  0  0  0  0  0  0  0  0
  141.5570   74.9380  221.0670 C   0  0  0  0  0  0  0  0  0  0  0  0
  141.0780   74.1470  221.9520 O   0  0  0  0  0  0  0  0  0  0  0  0
  140.8760   76.1200  220.6540 N   0  0  0  0  0  0  0  0  0  0  0  0
  141.4420   77.1350  219.8420 C   0  0  0  0  0  0  0  0  0  0  0  0
  141.3450   78.4920  220.1880 C   0  0  0  0  0  0  0  0  0  0  0  0
  141.9020   79.4870  219.4130 C   0  0  0  0  0  0  0  0  0  0  0  0
  142.5870   79.2140  218.2550 C   0  0  0  0  0  0  0  0  0  0  0  0
  142.6990   77.8940  217.8900 C   0  0  0  0  0  0  0  0  0  0  0  0
  142.1340   76.8850  218.6760 C   0  0  0  0  0  0  0  0  0  0  0  0
  139.4870   76.2330  221.1000 C   0  0  0  0  0  0  0  0  0  0  0  0
  138.5320   76.6710  220.0530 C   0  0  0  0  0  0  0  0  0  0  0  0
  137.3690   77.5010  220.4460 C   0  0  0  0  0  0  0  0  0  0  0  0
  137.3760   77.9250  221.8550 N   0  0  0  0  0  0  0  0  0  0  0  0
  136.8780   79.2080  222.1170 C   0  0  0  0  0  0  0  0  0  0  0  0
  136.4680   79.8320  221.0520 O   0  0  0  0  0  0  0  0  0  0  0  0
  136.7510   79.9370  223.3640 C   0  0  2  0  0  0  0  0  0  0  0  0
  136.1030   81.2740  223.3620 C   0  0  0  0  0  0  0  0  0  0  0  0
  136.6680   81.9920  224.5770 C   0  0  0  0  0  0  0  0  0  0  0  0
  137.6770   81.0380  225.1360 C   0  0  0  0  0  0  0  0  0  0  0  0
  138.0600   80.2090  223.9700 N   0  0  0  0  0  0  0  0  0  0  0  0
  138.9110   81.0350  223.1370 C   0  0  0  0  0  0  0  0  0  0  0  0
  140.3140   80.5230  223.1450 C   0  0  0  0  0  0  0  0  0  0  0  0
  140.7020   79.3950  223.8340 C   0  0  0  0  0  0  0  0  0  0  0  0
  142.0140   78.9330  223.8350 C   0  0  0  0  0  0  0  0  0  0  0  0
  142.9500   79.6720  223.0950 C   0  0  0  0  0  0  0  0  0  0  0  0
  142.5320   80.7910  222.4200 C   0  0  0  0  0  0  0  0  0  0  0  0
  141.2350   81.2550  222.4130 C   0  0  0  0  0  0  0  0  0  0  0  0
  140.7760   82.6860  221.5320 Cl  0  0  0  0  0  0  0  0  0  0  0  0
  137.8930   76.9650  222.7740 C   0  0  0  0  0  0  0  0  0  0  0  0
  139.3950   76.8610  222.4600 C   0  0  0  0  0  0  0  0  0  0  0  0
  142.9058   72.6160  221.5068 H   0  0  0  0  0  0  0  0  0  0  0  0
  142.0071   72.6364  219.9516 H   0  0  0  0  0  0  0  0  0  0  0  0
  143.8030   72.6722  219.9516 H   0  0  0  0  0  0  0  0  0  0  0  0
  143.6801   74.8847  221.1576 H   0  0  0  0  0  0  0  0  0  0  0  0
  143.0041   74.9191  219.5032 H   0  0  0  0  0  0  0  0  0  0  0  0
  140.8076   78.7703  221.1066 H   0  0  0  0  0  0  0  0  0  0  0  0
  141.7940   80.5339  219.7330 H   0  0  0  0  0  0  0  0  0  0  0  0
  143.0272   80.0172  217.6457 H   0  0  0  0  0  0  0  0  0  0  0  0
  143.2391   77.6282  216.9693 H   0  0  0  0  0  0  0  0  0  0  0  0
  142.2471   75.8411  218.3482 H   0  0  0  0  0  0  0  0  0  0  0  0
  139.0976   75.2178  221.2667 H   0  0  0  0  0  0  0  0  0  0  0  0
  139.1061   77.2491  219.3140 H   0  0  0  0  0  0  0  0  0  0  0  0
  138.0800   75.7331  219.6979 H   0  0  0  0  0  0  0  0  0  0  0  0
  137.3600   78.4021  219.8152 H   0  0  0  0  0  0  0  0  0  0  0  0
  136.4749   76.8748  220.3100 H   0  0  0  0  0  0  0  0  0  0  0  0
  136.0973   79.2361  223.9037 H   0  0  0  0  0  0  0  0  0  0  0  0
  136.3507   81.8214  222.4406 H   0  0  0  0  0  0  0  0  0  0  0  0
  135.0062   81.1996  223.4013 H   0  0  0  0  0  0  0  0  0  0  0  0
  137.1472   82.9374  224.2827 H   0  0  0  0  0  0  0  0  0  0  0  0
  135.8897   82.2558  225.3082 H   0  0  0  0  0  0  0  0  0  0  0  0
  138.5477   81.5780  225.5363 H   0  0  0  0  0  0  0  0  0  0  0  0
  137.2825   80.4416  225.9719 H   0  0  0  0  0  0  0  0  0  0  0  0
  138.5281   81.0233  222.1058 H   0  0  0  0  0  0  0  0  0  0  0  0
  138.9064   82.0609  223.5339 H   0  0  0  0  0  0  0  0  0  0  0  0
  139.9449   78.8380  224.4055 H   0  0  0  0  0  0  0  0  0  0  0  0
  142.3048   78.0293  224.3907 H   0  0  0  0  0  0  0  0  0  0  0  0
  144.0037   79.3585  223.0567 H   0  0  0  0  0  0  0  0  0  0  0  0
  143.2823   81.3550  221.8464 H   0  0  0  0  0  0  0  0  0  0  0  0
  137.7395   77.3029  223.8095 H   0  0  0  0  0  0  0  0  0  0  0  0
  137.3877   75.9929  222.6752 H   0  0  0  0  0  0  0  0  0  0  0  0
  139.8546   77.8604  222.4521 H   0  0  0  0  0  0  0  0  0  0  0  0
  139.9262   76.2656  223.2172 H   0  0  0  0  0  0  0  0  0  0  0  0
  1  2  1  0
  2  3  1  0
  3  4  2  0
  3  5  1  0
  5  6  1  0
  6  7  2  0
  7  8  1  0
  8  9  2  0
  9 10  1  0
 10 11  2  0
  5 12  1  0
 12 13  1  0
 13 14  1  0
 14 15  1  0
 15 16  1  0
 16 17  2  0
 16 18  1  0
 18 19  1  0
 19 20  1  0
 20 21  1  0
 21 22  1  0
 22 23  1  0
 23 24  1  0
 24 25  2  0
 25 26  1  0
 26 27  2  0
 27 28  1  0
 28 29  2  0
 29 30  1  0
 15 31  1  0
 31 32  1  0
 11  6  1  0
 32 12  1  0
 22 18  1  0
 29 24  1  0
  1 33  1  0
  1 34  1  0
  1 35  1  0
  2 36  1  0
  2 37  1  0
  7 38  1  0
  8 39  1  0
  9 40  1  0
 10 41  1  0
 11 42  1  0
 12 43  1  0
 13 44  1  0
 13 45  1  0
 14 46  1  0
 14 47  1  0
 18 48  1  1
 19 49  1  0
 19 50  1  0
 20 51  1  0
 20 52  1  0
 21 53  1  0
 21 54  1  0
 23 55  1  0
 23 56  1  0
 25 57  1  0
 26 58  1  0
 27 59  1  0
 28 60  1  0
 31 61  1  0
 31 62  1  0
 32 63  1  0
 32 64  1  0
M  END
>  <smiles>  (16) 
CCC(=O)N(c1ccccc1)C1CCN(C(=O)[C@@H]2CCCN2Cc2ccccc2Cl)CC1

>  <score_type>  (16) 
oracle

>  <origin>  (16) 
autodockgpu

>  <m_score__min__energy>  (16) 
-9.4600000000000009

>  <m_primary>  (16) 
energy

>  <rmsd>  (16) 
8.24299469011699

>  <m_score__min__rmsd>  (16) 
8.24299469011699

>  <meeko>  (16) 
{"free_energy": -6.91, "intermolecular_energy": -8.99, "internal_energy": -3.46, "cluster_size": 22, "cluster_id": 2, "rank_in_cluster": 2}

>  <energy>  (16) 
-8.49

>  <cluster_rmsd>  (16) 
1.04

>  <cluster>  (16) 
1

$$$$

     RDKit          3D

 64 67  0  0  0  0  0  0  0  0999 V2000
  137.1350   68.2700  222.6950 C   0  0  0  0  0  0  0  0  0  0  0  0
  138.5710   67.8590  222.8730 C   0  0  0  0  0  0  0  0  0  0  0  0
  139.0720   68.4540  224.1380 C   0  0  0  0  0  0  0  0  0  0  0  0
  139.1820   67.6200  225.1030 O   0  0  0  0  0  0  0  0  0  0  0  0
  139.4030   69.8330  224.2820 N   0  0  0  0  0  0  0  0  0  0  0  0
  139.9090   70.4220  225.4680 C   0  0  0  0  0  0  0  0  0  0  0  0
  140.7900   71.5140  225.4290 C   0  0  0  0  0  0  0  0  0  0  0  0
  141.2780   72.1030  226.5760 C   0  0  0  0  0  0  0  0  0  0  0  0
  140.9340   71.6580  227.8280 C   0  0  0  0  0  0  0  0  0  0  0  0
  140.0730   70.5900  227.9000 C   0  0  0  0  0  0  0  0  0  0  0  0
  139.5780   69.9930  226.7360 C   0  0  0  0  0  0  0  0  0  0  0  0
  139.2170   70.6520  223.0830 C   0  0  0  0  0  0  0  0  0  0  0  0
  140.4720   71.0340  222.3910 C   0  0  0  0  0  0  0  0  0  0  0  0
  140.5410   72.3440  221.7030 C   0  0  0  0  0  0  0  0  0  0  0  0
  139.3630   73.2020  221.9150 N   0  0  0  0  0  0  0  0  0  0  0  0
  139.6110   74.5770  222.0200 C   0  0  0  0  0  0  0  0  0  0  0  0
  140.8680   74.8880  221.8990 O   0  0  0  0  0  0  0  0  0  0  0  0
  138.7050   75.6880  222.2390 C   0  0  2  0  0  0  0  0  0  0  0  0
  137.8820   76.1880  221.1080 C   0  0  0  0  0  0  0  0  0  0  0  0
  137.5680   77.6360  221.4540 C   0  0  0  0  0  0  0  0  0  0  0  0
  138.3190   77.8840  222.7240 C   0  0  0  0  0  0  0  0  0  0  0  0
  139.4180   76.8900  222.6830 N   0  0  0  0  0  0  0  0  0  0  0  0
  140.3770   77.3740  221.7100 C   0  0  0  0  0  0  0  0  0  0  0  0
  141.1980   78.4820  222.2840 C   0  0  0  0  0  0  0  0  0  0  0  0
  141.4360   78.6240  223.6340 C   0  0  0  0  0  0  0  0  0  0  0  0
  142.2000   79.6640  224.1540 C   0  0  0  0  0  0  0  0  0  0  0  0
  142.7320   80.5830  223.2370 C   0  0  0  0  0  0  0  0  0  0  0  0
  142.4760   80.4140  221.9000 C   0  0  0  0  0  0  0  0  0  0  0  0
  141.7210   79.3880  221.3760 C   0  0  0  0  0  0  0  0  0  0  0  0
  141.4390   79.2360  219.6640 Cl  0  0  0  0  0  0  0  0  0  0  0  0
  138.1170   72.5140  221.9850 C   0  0  0  0  0  0  0  0  0  0  0  0
  138.1670   71.7040  223.2920 C   0  0  0  0  0  0  0  0  0  0  0  0
  136.6670   68.4039  223.6814 H   0  0  0  0  0  0  0  0  0  0  0  0
  137.0911   69.2168  222.1367 H   0  0  0  0  0  0  0  0  0  0  0  0
  136.5968   67.4898  222.1367 H   0  0  0  0  0  0  0  0  0  0  0  0
  138.6406   66.7624  222.9244 H   0  0  0  0  0  0  0  0  0  0  0  0
  139.1744   68.2108  222.0232 H   0  0  0  0  0  0  0  0  0  0  0  0
  141.1010   71.9126  224.4521 H   0  0  0  0  0  0  0  0  0  0  0  0
  141.9652   72.9571  226.4848 H   0  0  0  0  0  0  0  0  0  0  0  0
  141.3310   72.1364  228.7355 H   0  0  0  0  0  0  0  0  0  0  0  0
  139.7698   70.2004  228.8830 H   0  0  0  0  0  0  0  0  0  0  0  0
  138.8912   69.1397  226.8370 H   0  0  0  0  0  0  0  0  0  0  0  0
  138.7806   70.0158  222.2989 H   0  0  0  0  0  0  0  0  0  0  0  0
  141.2725   71.0232  223.1454 H   0  0  0  0  0  0  0  0  0  0  0  0
  140.5573   70.3017  221.5746 H   0  0  0  0  0  0  0  0  0  0  0  0
  141.4284   72.8800  222.0707 H   0  0  0  0  0  0  0  0  0  0  0  0
  140.5865   72.1317  220.6246 H   0  0  0  0  0  0  0  0  0  0  0  0
  138.0342   75.2180  222.9733 H   0  0  0  0  0  0  0  0  0  0  0  0
  138.4458   76.1300  220.1653 H   0  0  0  0  0  0  0  0  0  0  0  0
  136.9688   75.5910  220.9681 H   0  0  0  0  0  0  0  0  0  0  0  0
  137.9152   78.3110  220.6578 H   0  0  0  0  0  0  0  0  0  0  0  0
  136.4885   77.8177  221.5619 H   0  0  0  0  0  0  0  0  0  0  0  0
  138.7179   78.9088  222.7499 H   0  0  0  0  0  0  0  0  0  0  0  0
  137.6873   77.7840  223.6189 H   0  0  0  0  0  0  0  0  0  0  0  0
  141.0409   76.5479  221.4155 H   0  0  0  0  0  0  0  0  0  0  0  0
  139.8309   77.7553  220.8346 H   0  0  0  0  0  0  0  0  0  0  0  0
  141.0053   77.8865  224.3272 H   0  0  0  0  0  0  0  0  0  0  0  0
  142.3788   79.7613  225.2350 H   0  0  0  0  0  0  0  0  0  0  0  0
  143.3456   81.4270  223.5852 H   0  0  0  0  0  0  0  0  0  0  0  0
  142.9023   81.1470  221.1993 H   0  0  0  0  0  0  0  0  0  0  0  0
  137.2830   73.2308  222.0087 H   0  0  0  0  0  0  0  0  0  0  0  0
  137.9587   71.8667  221.1098 H   0  0  0  0  0  0  0  0  0  0  0  0
  138.4400   72.3550  224.1356 H   0  0  0  0  0  0  0  0  0  0  0  0
  137.1897   71.2582  223.5290 H   0  0  0  0  0  0  0  0  0  0  0  0
  1  2  1  0
  2  3  1  0
  3  4  2  0
  3  5  1  0
  5  6  1  0
  6  7  2  0
  7  8  1  0
  8  9  2  0
  9 10  1  0
 10 11  2  0
  5 12  1  0
 12 13  1  0
 13 14  1  0
 14 15  1  0
 15 16  1  0
 16 17  2  0
 16 18  1  0
 18 19  1  0
 19 20  1  0
 20 21  1  0
 21 22  1  0
 22 23  1  0
 23 24  1  0
 24 25  2  0
 25 26  1  0
 26 27  2  0
 27 28  1  0
 28 29  2  0
 29 30  1  0
 15 31  1  0
 31 32  1  0
 11  6  1  0
 32 12  1  0
 22 18  1  0
 29 24  1  0
  1 33  1  0
  1 34  1  0
  1 35  1  0
  2 36  1  0
  2 37  1  0
  7 38  1  0
  8 39  1  0
  9 40  1  0
 10 41  1  0
 11 42  1  0
 12 43  1  0
 13 44  1  0
 13 45  1  0
 14 46  1  0
 14 47  1  0
 18 48  1  1
 19 49  1  0
 19 50  1  0
 20 51  1  0
 20 52  1  0
 21 53  1  0
 21 54  1  0
 23 55  1  0
 23 56  1  0
 25 57  1  0
 26 58  1  0
 27 59  1  0
 28 60  1  0
 31 61  1  0
 31 62  1  0
 32 63  1  0
 32 64  1  0
M  END
>  <smiles>  (17) 
CCC(=O)N(c1ccccc1)C1CCN(C(=O)[C@@H]2CCCN2Cc2ccccc2Cl)CC1

>  <score_type>  (17) 
oracle

>  <origin>  (17) 
autodockgpu

>  <m_score__min__energy>  (17) 
-9.4600000000000009

>  <m_primary>  (17) 
energy

>  <rmsd>  (17) 
8.159041614475473

>  <m_score__min__rmsd>  (17) 
8.159041614475473

>  <meeko>  (17) 
{"free_energy": -9.26, "intermolecular_energy": -11.34, "internal_energy": -1.73, "cluster_size": 20, "cluster_id": 1, "rank_in_cluster": 7}

>  <energy>  (17) 
-8.48

>  <cluster_rmsd>  (17) 
1.64

>  <cluster>  (17) 
1

$$$$

     RDKit          3D

 64 67  0  0  0  0  0  0  0  0999 V2000
  136.7120   68.6740  223.0710 C   0  0  0  0  0  0  0  0  0  0  0  0
  138.1000   68.1130  222.9280 C   0  0  0  0  0  0  0  0  0  0  0  0
  138.9160   68.5910  224.0720 C   0  0  0  0  0  0  0  0  0  0  0  0
  139.1910   67.6870  224.9350 O   0  0  0  0  0  0  0  0  0  0  0  0
  139.3600   69.9390  224.2130 N   0  0  0  0  0  0  0  0  0  0  0  0
  139.9050   70.4880  225.4000 C   0  0  0  0  0  0  0  0  0  0  0  0
  139.5960   69.9610  226.6640 C   0  0  0  0  0  0  0  0  0  0  0  0
  140.1300   70.4800  227.8240 C   0  0  0  0  0  0  0  0  0  0  0  0
  140.9970   71.5440  227.8170 C   0  0  0  0  0  0  0  0  0  0  0  0
  141.3180   72.0830  226.5950 C   0  0  0  0  0  0  0  0  0  0  0  0
  140.7770   71.5570  225.4180 C   0  0  0  0  0  0  0  0  0  0  0  0
  139.2500   70.7650  223.0100 C   0  0  0  0  0  0  0  0  0  0  0  0
  140.5470   71.1590  222.4070 C   0  0  0  0  0  0  0  0  0  0  0  0
  140.6540   72.4750  221.7340 C   0  0  0  0  0  0  0  0  0  0  0  0
  139.4590   73.3240  221.8720 N   0  0  0  0  0  0  0  0  0  0  0  0
  139.6910   74.6990  222.0020 C   0  0  0  0  0  0  0  0  0  0  0  0
  140.9510   75.0190  221.9700 O   0  0  0  0  0  0  0  0  0  0  0  0
  138.7640   75.8030  222.1670 C   0  0  2  0  0  0  0  0  0  0  0  0
  137.9920   76.2850  220.9930 C   0  0  0  0  0  0  0  0  0  0  0  0
  137.6490   77.7330  221.3100 C   0  0  0  0  0  0  0  0  0  0  0  0
  138.3360   78.0000  222.6120 C   0  0  0  0  0  0  0  0  0  0  0  0
  139.4440   77.0170  222.6330 N   0  0  0  0  0  0  0  0  0  0  0  0
  140.4440   77.5010  221.7030 C   0  0  0  0  0  0  0  0  0  0  0  0
  141.2220   78.6260  222.3020 C   0  0  0  0  0  0  0  0  0  0  0  0
  141.4430   78.7540  223.6560 C   0  0  0  0  0  0  0  0  0  0  0  0
  142.1670   79.8100  224.1990 C   0  0  0  0  0  0  0  0  0  0  0  0
  142.6770   80.7620  223.3030 C   0  0  0  0  0  0  0  0  0  0  0  0
  142.4390   80.6060  221.9600 C   0  0  0  0  0  0  0  0  0  0  0  0
  141.7230   79.5630  221.4130 C   0  0  0  0  0  0  0  0  0  0  0  0
  141.4620   79.4300  219.6970 Cl  0  0  0  0  0  0  0  0  0  0  0  0
  138.2150   72.6280  221.8530 C   0  0  0  0  0  0  0  0  0  0  0  0
  138.1820   71.8090  223.1540 C   0  0  0  0  0  0  0  0  0  0  0  0
  136.4650   68.7738  224.1383 H   0  0  0  0  0  0  0  0  0  0  0  0
  136.6644   69.6620  222.5897 H   0  0  0  0  0  0  0  0  0  0  0  0
  135.9913   67.9966  222.5897 H   0  0  0  0  0  0  0  0  0  0  0  0
  138.0593   67.0138  222.9337 H   0  0  0  0  0  0  0  0  0  0  0  0
  138.5468   68.4444  221.9791 H   0  0  0  0  0  0  0  0  0  0  0  0
  138.9060   69.1070  226.7308 H   0  0  0  0  0  0  0  0  0  0  0  0
  139.8522   70.0265  228.7869 H   0  0  0  0  0  0  0  0  0  0  0  0
  141.4168   71.9478  228.7501 H   0  0  0  0  0  0  0  0  0  0  0  0
  142.0082   72.9378  226.5419 H   0  0  0  0  0  0  0  0  0  0  0  0
  141.0602   72.0177  224.4601 H   0  0  0  0  0  0  0  0  0  0  0  0
  138.8711   70.1320  222.1941 H   0  0  0  0  0  0  0  0  0  0  0  0
  141.2948   71.1473  223.2137 H   0  0  0  0  0  0  0  0  0  0  0  0
  140.6921   70.4330  221.5934 H   0  0  0  0  0  0  0  0  0  0  0  0
  141.5111   73.0136  222.1645 H   0  0  0  0  0  0  0  0  0  0  0  0
  140.7737   72.2711  220.6597 H   0  0  0  0  0  0  0  0  0  0  0  0
  138.0632   75.3328  222.8725 H   0  0  0  0  0  0  0  0  0  0  0  0
  138.6010   76.2238  220.0790 H   0  0  0  0  0  0  0  0  0  0  0  0
  137.0919   75.6782  220.8149 H   0  0  0  0  0  0  0  0  0  0  0  0
  138.0279   78.4039  220.5249 H   0  0  0  0  0  0  0  0  0  0  0  0
  136.5639   77.9052  221.3647 H   0  0  0  0  0  0  0  0  0  0  0  0
  138.7237   79.0288  222.6471 H   0  0  0  0  0  0  0  0  0  0  0  0
  137.6632   77.9022  223.4767 H   0  0  0  0  0  0  0  0  0  0  0  0
  141.1316   76.6797  221.4525 H   0  0  0  0  0  0  0  0  0  0  0  0
  139.9374   77.8647  220.7969 H   0  0  0  0  0  0  0  0  0  0  0  0
  141.0309   77.9916  224.3335 H   0  0  0  0  0  0  0  0  0  0  0  0
  142.3326   79.8952  225.2831 H   0  0  0  0  0  0  0  0  0  0  0  0
  143.2586   81.6201  223.6711 H   0  0  0  0  0  0  0  0  0  0  0  0
  142.8468   81.3638  221.2749 H   0  0  0  0  0  0  0  0  0  0  0  0
  137.3767   73.3397  221.8255 H   0  0  0  0  0  0  0  0  0  0  0  0
  138.1201   71.9864  220.9646 H   0  0  0  0  0  0  0  0  0  0  0  0
  138.3931   72.4555  224.0186 H   0  0  0  0  0  0  0  0  0  0  0  0
  137.1938   71.3555  223.3208 H   0  0  0  0  0  0  0  0  0  0  0  0
  1  2  1  0
  2  3  1  0
  3  4  2  0
  3  5  1  0
  5  6  1  0
  6  7  2  0
  7  8  1  0
  8  9  2  0
  9 10  1  0
 10 11  2  0
  5 12  1  0
 12 13  1  0
 13 14  1  0
 14 15  1  0
 15 16  1  0
 16 17  2  0
 16 18  1  0
 18 19  1  0
 19 20  1  0
 20 21  1  0
 21 22  1  0
 22 23  1  0
 23 24  1  0
 24 25  2  0
 25 26  1  0
 26 27  2  0
 27 28  1  0
 28 29  2  0
 29 30  1  0
 15 31  1  0
 31 32  1  0
 11  6  1  0
 32 12  1  0
 22 18  1  0
 29 24  1  0
  1 33  1  0
  1 34  1  0
  1 35  1  0
  2 36  1  0
  2 37  1  0
  7 38  1  0
  8 39  1  0
  9 40  1  0
 10 41  1  0
 11 42  1  0
 12 43  1  0
 13 44  1  0
 13 45  1  0
 14 46  1  0
 14 47  1  0
 18 48  1  1
 19 49  1  0
 19 50  1  0
 20 51  1  0
 20 52  1  0
 21 53  1  0
 21 54  1  0
 23 55  1  0
 23 56  1  0
 25 57  1  0
 26 58  1  0
 27 59  1  0
 28 60  1  0
 31 61  1  0
 31 62  1  0
 32 63  1  0
 32 64  1  0
M  END
>  <smiles>  (18) 
CCC(=O)N(c1ccccc1)C1CCN(C(=O)[C@@H]2CCCN2Cc2ccccc2Cl)CC1

>  <score_type>  (18) 
oracle

>  <origin>  (18) 
autodockgpu

>  <m_score__min__energy>  (18) 
-9.4600000000000009

>  <m_primary>  (18) 
energy

>  <rmsd>  (18) 
8.187180002025219

>  <m_score__min__rmsd>  (18) 
8.187180002025219

>  <meeko>  (18) 
{"free_energy": -9.29, "intermolecular_energy": -11.38, "internal_energy": -1.74, "cluster_size": 20, "cluster_id": 1, "rank_in_cluster": 5}

>  <energy>  (18) 
-8.46

>  <cluster_rmsd>  (18) 
1.63

>  <cluster>  (18) 
1

$$$$

     RDKit          3D

 64 67  0  0  0  0  0  0  0  0999 V2000
  142.8750   73.0210  220.4940 C   0  0  0  0  0  0  0  0  0  0  0  0
  142.8650   74.5250  220.5300 C   0  0  0  0  0  0  0  0  0  0  0  0
  141.5550   74.9690  221.0690 C   0  0  0  0  0  0  0  0  0  0  0  0
  141.0610   74.1890  221.9560 O   0  0  0  0  0  0  0  0  0  0  0  0
  140.8910   76.1570  220.6440 N   0  0  0  0  0  0  0  0  0  0  0  0
  141.4780   77.1660  219.8410 C   0  0  0  0  0  0  0  0  0  0  0  0
  142.1570   76.8580  218.6520 C   0  0  0  0  0  0  0  0  0  0  0  0
  142.7210   77.8320  217.8560 C   0  0  0  0  0  0  0  0  0  0  0  0
  142.6560   79.1650  218.1770 C   0  0  0  0  0  0  0  0  0  0  0  0
  141.9980   79.4990  219.3360 C   0  0  0  0  0  0  0  0  0  0  0  0
  141.4250   78.5110  220.1430 C   0  0  0  0  0  0  0  0  0  0  0  0
  139.4960   76.2820  221.0680 C   0  0  0  0  0  0  0  0  0  0  0  0
  138.5680   76.7650  220.0160 C   0  0  0  0  0  0  0  0  0  0  0  0
  137.4120   77.6040  220.4110 C   0  0  0  0  0  0  0  0  0  0  0  0
  137.4000   77.9890  221.8320 N   0  0  0  0  0  0  0  0  0  0  0  0
  136.9200   79.2730  222.1200 C   0  0  0  0  0  0  0  0  0  0  0  0
  136.5400   79.9330  221.0660 O   0  0  0  0  0  0  0  0  0  0  0  0
  136.7820   79.9700  223.3840 C   0  0  2  0  0  0  0  0  0  0  0  0
  136.1380   81.3080  223.4100 C   0  0  0  0  0  0  0  0  0  0  0  0
  136.6930   81.9930  224.6500 C   0  0  0  0  0  0  0  0  0  0  0  0
  137.6920   81.0210  225.1940 C   0  0  0  0  0  0  0  0  0  0  0  0
  138.0840   80.2210  224.0100 N   0  0  0  0  0  0  0  0  0  0  0  0
  138.9470   81.0650  223.2080 C   0  0  0  0  0  0  0  0  0  0  0  0
  140.3380   80.5220  223.1790 C   0  0  0  0  0  0  0  0  0  0  0  0
  140.7200   79.3870  223.8600 C   0  0  0  0  0  0  0  0  0  0  0  0
  142.0210   78.8960  223.8260 C   0  0  0  0  0  0  0  0  0  0  0  0
  142.9520   79.6110  223.0570 C   0  0  0  0  0  0  0  0  0  0  0  0
  142.5400   80.7370  222.3900 C   0  0  0  0  0  0  0  0  0  0  0  0
  141.2540   81.2300  222.4180 C   0  0  0  0  0  0  0  0  0  0  0  0
  140.8030   82.6680  221.5440 Cl  0  0  0  0  0  0  0  0  0  0  0  0
  137.8830   76.9960  222.7330 C   0  0  0  0  0  0  0  0  0  0  0  0
  139.3890   76.8740  222.4430 C   0  0  0  0  0  0  0  0  0  0  0  0
  142.8776   72.6296  221.5220 H   0  0  0  0  0  0  0  0  0  0  0  0
  141.9792   72.6609  219.9668 H   0  0  0  0  0  0  0  0  0  0  0  0
  143.7755   72.6728  219.9668 H   0  0  0  0  0  0  0  0  0  0  0  0
  143.6763   74.8871  221.1787 H   0  0  0  0  0  0  0  0  0  0  0  0
  143.0157   74.9296  219.5183 H   0  0  0  0  0  0  0  0  0  0  0  0
  142.2419   75.8051  218.3452 H   0  0  0  0  0  0  0  0  0  0  0  0
  143.2398   77.5313  216.9339 H   0  0  0  0  0  0  0  0  0  0  0  0
  143.1111   79.9328  217.5340 H   0  0  0  0  0  0  0  0  0  0  0  0
  141.9210   80.5555  219.6325 H   0  0  0  0  0  0  0  0  0  0  0  0
  140.9072   78.8212  221.0626 H   0  0  0  0  0  0  0  0  0  0  0  0
  139.0868   75.2695  221.1999 H   0  0  0  0  0  0  0  0  0  0  0  0
  139.1654   77.3531  219.3038 H   0  0  0  0  0  0  0  0  0  0  0  0
  138.1070   75.8452  219.6267 H   0  0  0  0  0  0  0  0  0  0  0  0
  137.4299   78.5222  219.8055 H   0  0  0  0  0  0  0  0  0  0  0  0
  136.5101   76.9975  220.2414 H   0  0  0  0  0  0  0  0  0  0  0  0
  136.1203   79.2578  223.8986 H   0  0  0  0  0  0  0  0  0  0  0  0
  136.3967   81.8784  222.5057 H   0  0  0  0  0  0  0  0  0  0  0  0
  135.0407   81.2360  223.4361 H   0  0  0  0  0  0  0  0  0  0  0  0
  137.1787   82.9438  224.3854 H   0  0  0  0  0  0  0  0  0  0  0  0
  135.9081   82.2413  225.3796 H   0  0  0  0  0  0  0  0  0  0  0  0
  138.5606   81.5467  225.6173 H   0  0  0  0  0  0  0  0  0  0  0  0
  137.2866   80.4046  226.0099 H   0  0  0  0  0  0  0  0  0  0  0  0
  138.5554   81.1096  222.1810 H   0  0  0  0  0  0  0  0  0  0  0  0
  138.9694   82.0711  223.6521 H   0  0  0  0  0  0  0  0  0  0  0  0
  139.9669   78.8481  224.4537 H   0  0  0  0  0  0  0  0  0  0  0  0
  142.3072   77.9881  224.3771 H   0  0  0  0  0  0  0  0  0  0  0  0
  143.9968   79.2736  222.9900 H   0  0  0  0  0  0  0  0  0  0  0  0
  143.2861   81.2822  221.7933 H   0  0  0  0  0  0  0  0  0  0  0  0
  137.7163   77.3084  223.7745 H   0  0  0  0  0  0  0  0  0  0  0  0
  137.3629   76.0361  222.5987 H   0  0  0  0  0  0  0  0  0  0  0  0
  139.8657   77.8650  222.4712 H   0  0  0  0  0  0  0  0  0  0  0  0
  139.8955   76.2485  223.1928 H   0  0  0  0  0  0  0  0  0  0  0  0
  1  2  1  0
  2  3  1  0
  3  4  2  0
  3  5  1  0
  5  6  1  0
  6  7  2  0
  7  8  1  0
  8  9  2  0
  9 10  1  0
 10 11  2  0
  5 12  1  0
 12 13  1  0
 13 14  1  0
 14 15  1  0
 15 16  1  0
 16 17  2  0
 16 18  1  0
 18 19  1  0
 19 20  1  0
 20 21  1  0
 21 22  1  0
 22 23  1  0
 23 24  1  0
 24 25  2  0
 25 26  1  0
 26 27  2  0
 27 28  1  0
 28 29  2  0
 29 30  1  0
 15 31  1  0
 31 32  1  0
 11  6  1  0
 32 12  1  0
 22 18  1  0
 29 24  1  0
  1 33  1  0
  1 34  1  0
  1 35  1  0
  2 36  1  0
  2 37  1  0
  7 38  1  0
  8 39  1  0
  9 40  1  0
 10 41  1  0
 11 42  1  0
 12 43  1  0
 13 44  1  0
 13 45  1  0
 14 46  1  0
 14 47  1  0
 18 48  1  1
 19 49  1  0
 19 50  1  0
 20 51  1  0
 20 52  1  0
 21 53  1  0
 21 54  1  0
 23 55  1  0
 23 56  1  0
 25 57  1  0
 26 58  1  0
 27 59  1  0
 28 60  1  0
 31 61  1  0
 31 62  1  0
 32 63  1  0
 32 64  1  0
M  END
>  <smiles>  (19) 
CCC(=O)N(c1ccccc1)C1CCN(C(=O)[C@@H]2CCCN2Cc2ccccc2Cl)CC1

>  <score_type>  (19) 
oracle

>  <origin>  (19) 
autodockgpu

>  <m_score__min__energy>  (19) 
-9.4600000000000009

>  <m_primary>  (19) 
energy

>  <rmsd>  (19) 
8.228788523412414

>  <m_score__min__rmsd>  (19) 
8.228788523412414

>  <meeko>  (19) 
{"free_energy": -6.9, "intermolecular_energy": -8.99, "internal_energy": -3.47, "cluster_size": 22, "cluster_id": 2, "rank_in_cluster": 4}

>  <energy>  (19) 
-8.44

>  <cluster_rmsd>  (19) 
1.03

>  <cluster>  (19) 
1

$$$$

     RDKit          3D

 64 67  0  0  0  0  0  0  0  0999 V2000
  138.8060   66.7140  222.3860 C   0  0  0  0  0  0  0  0  0  0  0  0
  138.2820   68.0850  222.7210 C   0  0  0  0  0  0  0  0  0  0  0  0
  138.9870   68.5680  223.9350 C   0  0  0  0  0  0  0  0  0  0  0  0
  139.1740   67.6690  224.8260 O   0  0  0  0  0  0  0  0  0  0  0  0
  139.4200   69.9160  224.1090 N   0  0  0  0  0  0  0  0  0  0  0  0
  139.9560   70.4420  225.3110 C   0  0  0  0  0  0  0  0  0  0  0  0
  140.8700   71.5070  225.3040 C   0  0  0  0  0  0  0  0  0  0  0  0
  141.3880   72.0350  226.4670 C   0  0  0  0  0  0  0  0  0  0  0  0
  141.0430   71.5530  227.7050 C   0  0  0  0  0  0  0  0  0  0  0  0
  140.1500   70.5100  227.7450 C   0  0  0  0  0  0  0  0  0  0  0  0
  139.6240   69.9740  226.5650 C   0  0  0  0  0  0  0  0  0  0  0  0
  139.3110   70.7680  222.9240 C   0  0  0  0  0  0  0  0  0  0  0  0
  140.6080   71.1840  222.3360 C   0  0  0  0  0  0  0  0  0  0  0  0
  140.7090   72.5150  221.6940 C   0  0  0  0  0  0  0  0  0  0  0  0
  139.5080   73.3540  221.8450 N   0  0  0  0  0  0  0  0  0  0  0  0
  139.7310   74.7270  222.0080 C   0  0  0  0  0  0  0  0  0  0  0  0
  140.9900   75.0550  221.9880 O   0  0  0  0  0  0  0  0  0  0  0  0
  138.7970   75.8210  222.1940 C   0  0  2  0  0  0  0  0  0  0  0  0
  137.8650   76.1750  221.0930 C   0  0  0  0  0  0  0  0  0  0  0  0
  137.5160   77.6380  221.3220 C   0  0  0  0  0  0  0  0  0  0  0  0
  138.3560   78.0400  222.4930 C   0  0  0  0  0  0  0  0  0  0  0  0
  139.4900   77.0870  222.4560 N   0  0  0  0  0  0  0  0  0  0  0  0
  140.3450   77.5050  221.3630 C   0  0  0  0  0  0  0  0  0  0  0  0
  140.6430   78.9650  221.4530 C   0  0  0  0  0  0  0  0  0  0  0  0
  140.2600   79.8750  220.4920 C   0  0  0  0  0  0  0  0  0  0  0  0
  140.5490   81.2320  220.5890 C   0  0  0  0  0  0  0  0  0  0  0  0
  141.2580   81.6530  221.7240 C   0  0  0  0  0  0  0  0  0  0  0  0
  141.6250   80.7230  222.6630 C   0  0  0  0  0  0  0  0  0  0  0  0
  141.3440   79.3770  222.5750 C   0  0  0  0  0  0  0  0  0  0  0  0
  141.8420   78.2520  223.8080 Cl  0  0  0  0  0  0  0  0  0  0  0  0
  138.2690   72.6510  221.8050 C   0  0  0  0  0  0  0  0  0  0  0  0
  138.2360   71.8020  223.0880 C   0  0  0  0  0  0  0  0  0  0  0  0
  139.0160   66.1645  223.3155 H   0  0  0  0  0  0  0  0  0  0  0  0
  138.0535   66.1672  221.7989 H   0  0  0  0  0  0  0  0  0  0  0  0
  139.7314   66.8085  221.7989 H   0  0  0  0  0  0  0  0  0  0  0  0
  138.4719   68.7712  221.8825 H   0  0  0  0  0  0  0  0  0  0  0  0
  137.1980   68.0431  222.9029 H   0  0  0  0  0  0  0  0  0  0  0  0
  141.1829   71.9339  224.3397 H   0  0  0  0  0  0  0  0  0  0  0  0
  142.1012   72.8699  226.4009 H   0  0  0  0  0  0  0  0  0  0  0  0
  141.4636   71.9835  228.6257 H   0  0  0  0  0  0  0  0  0  0  0  0
  139.8452   70.0917  228.7156 H   0  0  0  0  0  0  0  0  0  0  0  0
  138.9115   69.1394  226.6409 H   0  0  0  0  0  0  0  0  0  0  0  0
  138.9411   70.1512  222.0917 H   0  0  0  0  0  0  0  0  0  0  0  0
  141.3523   71.1588  223.1455 H   0  0  0  0  0  0  0  0  0  0  0  0
  140.7615   70.4777  221.5068 H   0  0  0  0  0  0  0  0  0  0  0  0
  141.5606   73.0491  222.1407 H   0  0  0  0  0  0  0  0  0  0  0  0
  140.8343   72.3358  220.6160 H   0  0  0  0  0  0  0  0  0  0  0  0
  138.2091   75.4036  223.0247 H   0  0  0  0  0  0  0  0  0  0  0  0
  138.3537   76.0431  220.1164 H   0  0  0  0  0  0  0  0  0  0  0  0
  136.9708   75.5344  221.0888 H   0  0  0  0  0  0  0  0  0  0  0  0
  137.7668   78.2415  220.4372 H   0  0  0  0  0  0  0  0  0  0  0  0
  136.4418   77.7902  221.5036 H   0  0  0  0  0  0  0  0  0  0  0  0
  138.7104   79.0757  222.3843 H   0  0  0  0  0  0  0  0  0  0  0  0
  137.8041   78.0089  223.4440 H   0  0  0  0  0  0  0  0  0  0  0  0
  141.2883   76.9408  221.4067 H   0  0  0  0  0  0  0  0  0  0  0  0
  139.8256   77.3086  220.4135 H   0  0  0  0  0  0  0  0  0  0  0  0
  139.7041   79.5143  219.6140 H   0  0  0  0  0  0  0  0  0  0  0  0
  140.2357   81.9433  219.8106 H   0  0  0  0  0  0  0  0  0  0  0  0
  141.5159   82.7138  221.8590 H   0  0  0  0  0  0  0  0  0  0  0  0
  142.1805   81.0751  223.5447 H   0  0  0  0  0  0  0  0  0  0  0  0
  137.4263   73.3579  221.7900 H   0  0  0  0  0  0  0  0  0  0  0  0
  138.1818   72.0291  220.9019 H   0  0  0  0  0  0  0  0  0  0  0  0
  138.4400   72.4300  223.9678 H   0  0  0  0  0  0  0  0  0  0  0  0
  137.2500   71.3390  223.2409 H   0  0  0  0  0  0  0  0  0  0  0  0
  1  2  1  0
  2  3  1  0
  3  4  2  0
  3  5  1  0
  5  6  1  0
  6  7  2  0
  7  8  1  0
  8  9  2  0
  9 10  1  0
 10 11  2  0
  5 12  1  0
 12 13  1  0
 13 14  1  0
 14 15  1  0
 15 16  1  0
 16 17  2  0
 16 18  1  0
 18 19  1  0
 19 20  1  0
 20 21  1  0
 21 22  1  0
 22 23  1  0
 23 24  1  0
 24 25  2  0
 25 26  1  0
 26 27  2  0
 27 28  1  0
 28 29  2  0
 29 30  1  0
 15 31  1  0
 31 32  1  0
 11  6  1  0
 32 12  1  0
 22 18  1  0
 29 24  1  0
  1 33  1  0
  1 34  1  0
  1 35  1  0
  2 36  1  0
  2 37  1  0
  7 38  1  0
  8 39  1  0
  9 40  1  0
 10 41  1  0
 11 42  1  0
 12 43  1  0
 13 44  1  0
 13 45  1  0
 14 46  1  0
 14 47  1  0
 18 48  1  1
 19 49  1  0
 19 50  1  0
 20 51  1  0
 20 52  1  0
 21 53  1  0
 21 54  1  0
 23 55  1  0
 23 56  1  0
 25 57  1  0
 26 58  1  0
 27 59  1  0
 28 60  1  0
 31 61  1  0
 31 62  1  0
 32 63  1  0
 32 64  1  0
M  END
>  <smiles>  (20) 
CCC(=O)N(c1ccccc1)C1CCN(C(=O)[C@@H]2CCCN2Cc2ccccc2Cl)CC1

>  <score_type>  (20) 
oracle

>  <origin>  (20) 
autodockgpu

>  <m_score__min__energy>  (20) 
-9.4600000000000009

>  <m_primary>  (20) 
energy

>  <rmsd>  (20) 
8.473424124858711

>  <m_score__min__rmsd>  (20) 
8.473424124858711

>  <meeko>  (20) 
{"free_energy": -8.44, "intermolecular_energy": -10.53, "internal_energy": -1.7, "cluster_size": 20, "cluster_id": 1, "rank_in_cluster": 19}

>  <energy>  (20) 
-8.38

>  <cluster_rmsd>  (20) 
1.07

>  <cluster>  (20) 
1

$$$$

     RDKit          3D

 64 67  0  0  0  0  0  0  0  0999 V2000
  136.5380   68.8270  223.2530 C   0  0  0  0  0  0  0  0  0  0  0  0
  137.8420   68.1290  222.9780 C   0  0  0  0  0  0  0  0  0  0  0  0
  138.8190   68.5410  224.0160 C   0  0  0  0  0  0  0  0  0  0  0  0
  139.2060   67.5900  224.7800 O   0  0  0  0  0  0  0  0  0  0  0  0
  139.2920   69.8780  224.1640 N   0  0  0  0  0  0  0  0  0  0  0  0
  139.8640   70.4050  225.3500 C   0  0  0  0  0  0  0  0  0  0  0  0
  140.7420   71.4990  225.3190 C   0  0  0  0  0  0  0  0  0  0  0  0
  141.2950   72.0280  226.4660 C   0  0  0  0  0  0  0  0  0  0  0  0
  141.0220   71.5170  227.7100 C   0  0  0  0  0  0  0  0  0  0  0  0
  140.1650   70.4440  227.7740 C   0  0  0  0  0  0  0  0  0  0  0  0
  139.6050   69.9080  226.6100 C   0  0  0  0  0  0  0  0  0  0  0  0
  139.1830   70.7190  222.9710 C   0  0  0  0  0  0  0  0  0  0  0  0
  140.4810   71.1020  222.3620 C   0  0  0  0  0  0  0  0  0  0  0  0
  140.5990   72.4230  221.7020 C   0  0  0  0  0  0  0  0  0  0  0  0
  139.4170   73.2870  221.8580 N   0  0  0  0  0  0  0  0  0  0  0  0
  139.6670   74.6570  222.0010 C   0  0  0  0  0  0  0  0  0  0  0  0
  140.9320   74.9610  221.9620 O   0  0  0  0  0  0  0  0  0  0  0  0
  138.7570   75.7710  222.1850 C   0  0  2  0  0  0  0  0  0  0  0  0
  137.9740   76.2690  221.0250 C   0  0  0  0  0  0  0  0  0  0  0  0
  137.6530   77.7190  221.3550 C   0  0  0  0  0  0  0  0  0  0  0  0
  138.3610   77.9700  222.6480 C   0  0  0  0  0  0  0  0  0  0  0  0
  139.4570   76.9740  222.6480 N   0  0  0  0  0  0  0  0  0  0  0  0
  140.4500   77.4520  221.7070 C   0  0  0  0  0  0  0  0  0  0  0  0
  141.2350   78.5790  222.2930 C   0  0  0  0  0  0  0  0  0  0  0  0
  141.4670   78.7150  223.6440 C   0  0  0  0  0  0  0  0  0  0  0  0
  142.1970   79.7730  224.1750 C   0  0  0  0  0  0  0  0  0  0  0  0
  142.7010   80.7180  223.2690 C   0  0  0  0  0  0  0  0  0  0  0  0
  142.4520   80.5550  221.9300 C   0  0  0  0  0  0  0  0  0  0  0  0
  141.7300   79.5100  221.3950 C   0  0  0  0  0  0  0  0  0  0  0  0
  141.4550   79.3670  219.6810 Cl  0  0  0  0  0  0  0  0  0  0  0  0
  138.1640   72.6070  221.8420 C   0  0  0  0  0  0  0  0  0  0  0  0
  138.1300   71.7750  223.1350 C   0  0  0  0  0  0  0  0  0  0  0  0
  136.3873   68.9077  224.3396 H   0  0  0  0  0  0  0  0  0  0  0  0
  136.5605   69.8337  222.8102 H   0  0  0  0  0  0  0  0  0  0  0  0
  135.7127   68.2500  222.8102 H   0  0  0  0  0  0  0  0  0  0  0  0
  137.6959   67.0394  223.0163 H   0  0  0  0  0  0  0  0  0  0  0  0
  138.2136   68.4002  221.9788 H   0  0  0  0  0  0  0  0  0  0  0  0
  140.9974   71.9492  224.3484 H   0  0  0  0  0  0  0  0  0  0  0  0
  141.9768   72.8871  226.3812 H   0  0  0  0  0  0  0  0  0  0  0  0
  141.4700   71.9478  228.6176 H   0  0  0  0  0  0  0  0  0  0  0  0
  139.9172   70.0026  228.7506 H   0  0  0  0  0  0  0  0  0  0  0  0
  138.9251   69.0484  226.7041 H   0  0  0  0  0  0  0  0  0  0  0  0
  138.7885   70.1010  222.1510 H   0  0  0  0  0  0  0  0  0  0  0  0
  141.2347   71.0725  223.1627 H   0  0  0  0  0  0  0  0  0  0  0  0
  140.6113   70.3823  221.5404 H   0  0  0  0  0  0  0  0  0  0  0  0
  141.4667   72.9458  222.1307 H   0  0  0  0  0  0  0  0  0  0  0  0
  140.7062   72.2280  220.6247 H   0  0  0  0  0  0  0  0  0  0  0  0
  138.0613   75.3047  222.8981 H   0  0  0  0  0  0  0  0  0  0  0  0
  138.5690   76.2058  220.1020 H   0  0  0  0  0  0  0  0  0  0  0  0
  137.0642   75.6741  220.8565 H   0  0  0  0  0  0  0  0  0  0  0  0
  138.0289   78.3899  220.5685 H   0  0  0  0  0  0  0  0  0  0  0  0
  136.5710   77.9039  221.4259 H   0  0  0  0  0  0  0  0  0  0  0  0
  138.7616   78.9939  222.6834 H   0  0  0  0  0  0  0  0  0  0  0  0
  137.6992   77.8752  223.5215 H   0  0  0  0  0  0  0  0  0  0  0  0
  141.1342   76.6284  221.4549 H   0  0  0  0  0  0  0  0  0  0  0  0
  139.9359   77.8120  220.8036 H   0  0  0  0  0  0  0  0  0  0  0  0
  141.0591   77.9575  224.3294 H   0  0  0  0  0  0  0  0  0  0  0  0
  142.3714   79.8647  225.2572 H   0  0  0  0  0  0  0  0  0  0  0  0
  143.2873   81.5771  223.6271 H   0  0  0  0  0  0  0  0  0  0  0  0
  142.8553   81.3083  221.2372 H   0  0  0  0  0  0  0  0  0  0  0  0
  137.3348   73.3297  221.8282 H   0  0  0  0  0  0  0  0  0  0  0  0
  138.0544   71.9755  220.9480 H   0  0  0  0  0  0  0  0  0  0  0  0
  138.3564   72.4095  224.0046 H   0  0  0  0  0  0  0  0  0  0  0  0
  137.1372   71.3330  223.3054 H   0  0  0  0  0  0  0  0  0  0  0  0
  1  2  1  0
  2  3  1  0
  3  4  2  0
  3  5  1  0
  5  6  1  0
  6  7  2  0
  7  8  1  0
  8  9  2  0
  9 10  1  0
 10 11  2  0
  5 12  1  0
 12 13  1  0
 13 14  1  0
 14 15  1  0
 15 16  1  0
 16 17  2  0
 16 18  1  0
 18 19  1  0
 19 20  1  0
 20 21  1  0
 21 22  1  0
 22 23  1  0
 23 24  1  0
 24 25  2  0
 25 26  1  0
 26 27  2  0
 27 28  1  0
 28 29  2  0
 29 30  1  0
 15 31  1  0
 31 32  1  0
 11  6  1  0
 32 12  1  0
 22 18  1  0
 29 24  1  0
  1 33  1  0
  1 34  1  0
  1 35  1  0
  2 36  1  0
  2 37  1  0
  7 38  1  0
  8 39  1  0
  9 40  1  0
 10 41  1  0
 11 42  1  0
 12 43  1  0
 13 44  1  0
 13 45  1  0
 14 46  1  0
 14 47  1  0
 18 48  1  1
 19 49  1  0
 19 50  1  0
 20 51  1  0
 20 52  1  0
 21 53  1  0
 21 54  1  0
 23 55  1  0
 23 56  1  0
 25 57  1  0
 26 58  1  0
 27 59  1  0
 28 60  1  0
 31 61  1  0
 31 62  1  0
 32 63  1  0
 32 64  1  0
M  END
>  <smiles>  (21) 
CCC(=O)N(c1ccccc1)C1CCN(C(=O)[C@@H]2CCCN2Cc2ccccc2Cl)CC1

>  <score_type>  (21) 
oracle

>  <origin>  (21) 
autodockgpu

>  <m_score__min__energy>  (21) 
-9.4600000000000009

>  <m_primary>  (21) 
energy

>  <rmsd>  (21) 
8.176825350105629

>  <m_score__min__rmsd>  (21) 
8.176825350105629

>  <meeko>  (21) 
{"free_energy": -9.23, "intermolecular_energy": -11.32, "internal_energy": -1.72, "cluster_size": 20, "cluster_id": 1, "rank_in_cluster": 8}

>  <energy>  (21) 
-6.91

>  <cluster_rmsd>  (21) 
0.0

>  <cluster>  (21) 
2

$$$$

     RDKit          3D

 64 67  0  0  0  0  0  0  0  0999 V2000
  136.3060   69.2670  224.1220 C   0  0  0  0  0  0  0  0  0  0  0  0
  137.4270   68.5500  223.4210 C   0  0  0  0  0  0  0  0  0  0  0  0
  138.6810   68.7920  224.1780 C   0  0  0  0  0  0  0  0  0  0  0  0
  139.1820   67.7430  224.7130 O   0  0  0  0  0  0  0  0  0  0  0  0
  139.2840   70.0770  224.3100 N   0  0  0  0  0  0  0  0  0  0  0  0
  139.8760   70.5720  225.4990 C   0  0  0  0  0  0  0  0  0  0  0  0
  139.7850   69.8720  226.7120 C   0  0  0  0  0  0  0  0  0  0  0  0
  140.3660   70.3370  227.8720 C   0  0  0  0  0  0  0  0  0  0  0  0
  141.0710   71.5140  227.9140 C   0  0  0  0  0  0  0  0  0  0  0  0
  141.1780   72.2240  226.7420 C   0  0  0  0  0  0  0  0  0  0  0  0
  140.5880   71.7510  225.5650 C   0  0  0  0  0  0  0  0  0  0  0  0
  139.2930   70.8950  223.0960 C   0  0  0  0  0  0  0  0  0  0  0  0
  140.6340   71.3750  222.6810 C   0  0  0  0  0  0  0  0  0  0  0  0
  140.7480   72.6950  222.0180 C   0  0  0  0  0  0  0  0  0  0  0  0
  139.4920   73.4620  221.9750 N   0  0  0  0  0  0  0  0  0  0  0  0
  139.6110   74.8500  222.1250 C   0  0  0  0  0  0  0  0  0  0  0  0
  140.8390   75.2530  222.2700 O   0  0  0  0  0  0  0  0  0  0  0  0
  138.5990   75.8890  222.1440 C   0  0  2  0  0  0  0  0  0  0  0  0
  137.8470   76.1940  220.9010 C   0  0  0  0  0  0  0  0  0  0  0  0
  137.3830   77.6340  221.0600 C   0  0  0  0  0  0  0  0  0  0  0  0
  137.9900   78.0780  222.3530 C   0  0  0  0  0  0  0  0  0  0  0  0
  139.1660   77.1910  222.5130 N   0  0  0  0  0  0  0  0  0  0  0  0
  140.1680   77.6600  221.5770 C   0  0  0  0  0  0  0  0  0  0  0  0
  141.0850   78.6390  222.2320 C   0  0  0  0  0  0  0  0  0  0  0  0
  141.3140   78.6680  223.5900 C   0  0  0  0  0  0  0  0  0  0  0  0
  142.1690   79.5890  224.1860 C   0  0  0  0  0  0  0  0  0  0  0  0
  142.8050   80.5090  223.3390 C   0  0  0  0  0  0  0  0  0  0  0  0
  142.5570   80.4540  221.9910 C   0  0  0  0  0  0  0  0  0  0  0  0
  141.7120   79.5450  221.3920 C   0  0  0  0  0  0  0  0  0  0  0  0
  141.4450   79.5360  219.6710 Cl  0  0  0  0  0  0  0  0  0  0  0  0
  138.3140   72.6840  221.7850 C   0  0  0  0  0  0  0  0  0  0  0  0
  138.1480   71.8640  223.0760 C   0  0  0  0  0  0  0  0  0  0  0  0
  136.4399   69.1813  225.2104 H   0  0  0  0  0  0  0  0  0  0  0  0
  136.3130   70.3286  223.8341 H   0  0  0  0  0  0  0  0  0  0  0  0
  135.3452   68.8154  223.8341 H   0  0  0  0  0  0  0  0  0  0  0  0
  137.2151   67.4711  223.3876 H   0  0  0  0  0  0  0  0  0  0  0  0
  137.5287   68.9216  222.3907 H   0  0  0  0  0  0  0  0  0  0  0  0
  139.2320   68.9214  226.7377 H   0  0  0  0  0  0  0  0  0  0  0  0
  140.2614   69.7459  228.7938 H   0  0  0  0  0  0  0  0  0  0  0  0
  141.5309   71.8738  228.8462 H   0  0  0  0  0  0  0  0  0  0  0  0
  141.7331   73.1736  226.7294 H   0  0  0  0  0  0  0  0  0  0  0  0
  140.6974   72.3485  224.6479 H   0  0  0  0  0  0  0  0  0  0  0  0
  139.0782   70.2390  222.2395 H   0  0  0  0  0  0  0  0  0  0  0  0
  141.2576   71.4135  223.5863 H   0  0  0  0  0  0  0  0  0  0  0  0
  140.9425   70.6604  221.9037 H   0  0  0  0  0  0  0  0  0  0  0  0
  141.4966   73.2900  222.5617 H   0  0  0  0  0  0  0  0  0  0  0  0
  141.0335   72.4994  220.9739 H   0  0  0  0  0  0  0  0  0  0  0  0
  137.9034   75.4355  222.8654 H   0  0  0  0  0  0  0  0  0  0  0  0
  138.4992   76.0936  220.0209 H   0  0  0  0  0  0  0  0  0  0  0  0
  137.0036   75.5041  220.7505 H   0  0  0  0  0  0  0  0  0  0  0  0
  137.7448   78.2541  220.2266 H   0  0  0  0  0  0  0  0  0  0  0  0
  136.2867   77.7247  221.0576 H   0  0  0  0  0  0  0  0  0  0  0  0
  138.2986   79.1325  222.2996 H   0  0  0  0  0  0  0  0  0  0  0  0
  137.2885   78.0118  223.1977 H   0  0  0  0  0  0  0  0  0  0  0  0
  140.7542   76.8022  221.2157 H   0  0  0  0  0  0  0  0  0  0  0  0
  139.6616   78.1574  220.7367 H   0  0  0  0  0  0  0  0  0  0  0  0
  140.8004   77.9339  224.2282 H   0  0  0  0  0  0  0  0  0  0  0  0
  142.3389   79.5958  225.2728 H   0  0  0  0  0  0  0  0  0  0  0  0
  143.4923   81.2632  223.7498 H   0  0  0  0  0  0  0  0  0  0  0  0
  143.0666   81.1841  221.3451 H   0  0  0  0  0  0  0  0  0  0  0  0
  137.4428   73.3376  221.6304 H   0  0  0  0  0  0  0  0  0  0  0  0
  138.3916   72.0371  220.8987 H   0  0  0  0  0  0  0  0  0  0  0  0
  138.1886   72.5228  223.9559 H   0  0  0  0  0  0  0  0  0  0  0  0
  137.1785   71.3451  223.1037 H   0  0  0  0  0  0  0  0  0  0  0  0
  1  2  1  0
  2  3  1  0
  3  4  2  0
  3  5  1  0
  5  6  1  0
  6  7  2  0
  7  8  1  0
  8  9  2  0
  9 10  1  0
 10 11  2  0
  5 12  1  0
 12 13  1  0
 13 14  1  0
 14 15  1  0
 15 16  1  0
 16 17  2  0
 16 18  1  0
 18 19  1  0
 19 20  1  0
 20 21  1  0
 21 22  1  0
 22 23  1  0
 23 24  1  0
 24 25  2  0
 25 26  1  0
 26 27  2  0
 27 28  1  0
 28 29  2  0
 29 30  1  0
 15 31  1  0
 31 32  1  0
 11  6  1  0
 32 12  1  0
 22 18  1  0
 29 24  1  0
  1 33  1  0
  1 34  1  0
  1 35  1  0
  2 36  1  0
  2 37  1  0
  7 38  1  0
  8 39  1  0
  9 40  1  0
 10 41  1  0
 11 42  1  0
 12 43  1  0
 13 44  1  0
 13 45  1  0
 14 46  1  0
 14 47  1  0
 18 48  1  1
 19 49  1  0
 19 50  1  0
 20 51  1  0
 20 52  1  0
 21 53  1  0
 21 54  1  0
 23 55  1  0
 23 56  1  0
 25 57  1  0
 26 58  1  0
 27 59  1  0
 28 60  1  0
 31 61  1  0
 31 62  1  0
 32 63  1  0
 32 64  1  0
M  END
>  <smiles>  (22) 
CCC(=O)N(c1ccccc1)C1CCN(C(=O)[C@@H]2CCCN2Cc2ccccc2Cl)CC1

>  <score_type>  (22) 
oracle

>  <origin>  (22) 
autodockgpu

>  <m_score__min__energy>  (22) 
-9.4600000000000009

>  <m_primary>  (22) 
energy

>  <rmsd>  (22) 
8.107999275947318

>  <m_score__min__rmsd>  (22) 
8.107999275947318

>  <meeko>  (22) 
{"free_energy": -9.07, "intermolecular_energy": -11.15, "internal_energy": -1.72, "cluster_size": 20, "cluster_id": 1, "rank_in_cluster": 11}

>  <energy>  (22) 
-6.91

>  <cluster_rmsd>  (22) 
0.07

>  <cluster>  (22) 
2

$$$$

     RDKit          3D

 64 67  0  0  0  0  0  0  0  0999 V2000
  142.5870   73.0060  220.5190 C   0  0  0  0  0  0  0  0  0  0  0  0
  142.6360   74.4910  220.7580 C   0  0  0  0  0  0  0  0  0  0  0  0
  141.2820   74.9420  221.1660 C   0  0  0  0  0  0  0  0  0  0  0  0
  140.6900   74.1530  221.9820 O   0  0  0  0  0  0  0  0  0  0  0  0
  140.6780   76.1450  220.6960 N   0  0  0  0  0  0  0  0  0  0  0  0
  141.3250   77.1070  219.8800 C   0  0  0  0  0  0  0  0  0  0  0  0
  142.0520   76.7340  218.7390 C   0  0  0  0  0  0  0  0  0  0  0  0
  142.6750   77.6620  217.9320 C   0  0  0  0  0  0  0  0  0  0  0  0
  142.6240   79.0080  218.1930 C   0  0  0  0  0  0  0  0  0  0  0  0
  141.9190   79.4050  219.3040 C   0  0  0  0  0  0  0  0  0  0  0  0
  141.2870   78.4640  220.1230 C   0  0  0  0  0  0  0  0  0  0  0  0
  139.2810   76.3400  221.0850 C   0  0  0  0  0  0  0  0  0  0  0  0
  138.4120   76.9010  220.0220 C   0  0  0  0  0  0  0  0  0  0  0  0
  137.2950   77.7950  220.4070 C   0  0  0  0  0  0  0  0  0  0  0  0
  137.2650   78.1460  221.8360 N   0  0  0  0  0  0  0  0  0  0  0  0
  136.8500   79.4480  222.1440 C   0  0  0  0  0  0  0  0  0  0  0  0
  136.5390   80.1550  221.0980 O   0  0  0  0  0  0  0  0  0  0  0  0
  136.7170   80.1210  223.4220 C   0  0  2  0  0  0  0  0  0  0  0  0
  136.1260   81.4830  223.4680 C   0  0  0  0  0  0  0  0  0  0  0  0
  136.6850   82.1160  224.7330 C   0  0  0  0  0  0  0  0  0  0  0  0
  137.6340   81.0930  225.2720 C   0  0  0  0  0  0  0  0  0  0  0  0
  138.0160   80.3050  224.0770 N   0  0  0  0  0  0  0  0  0  0  0  0
  138.9270   81.1320  223.3100 C   0  0  0  0  0  0  0  0  0  0  0  0
  140.2770   80.4980  223.2310 C   0  0  0  0  0  0  0  0  0  0  0  0
  140.6060   79.3380  223.8980 C   0  0  0  0  0  0  0  0  0  0  0  0
  141.8700   78.7620  223.8180 C   0  0  0  0  0  0  0  0  0  0  0  0
  142.8190   79.4160  223.0170 C   0  0  0  0  0  0  0  0  0  0  0  0
  142.4590   80.5690  222.3660 C   0  0  0  0  0  0  0  0  0  0  0  0
  141.2100   81.1470  222.4390 C   0  0  0  0  0  0  0  0  0  0  0  0
  140.8260   82.6140  221.5840 Cl  0  0  0  0  0  0  0  0  0  0  0  0
  137.6650   77.1050  222.7240 C   0  0  0  0  0  0  0  0  0  0  0  0
  139.1690   76.9030  222.4710 C   0  0  0  0  0  0  0  0  0  0  0  0
  142.5696   72.4796  221.4847 H   0  0  0  0  0  0  0  0  0  0  0  0
  141.6801   72.7561  219.9488 H   0  0  0  0  0  0  0  0  0  0  0  0
  143.4754   72.6969  219.9488 H   0  0  0  0  0  0  0  0  0  0  0  0
  143.3591   74.7157  221.5559 H   0  0  0  0  0  0  0  0  0  0  0  0
  142.9491   75.0124  219.8414 H   0  0  0  0  0  0  0  0  0  0  0  0
  142.1271   75.6675  218.4804 H   0  0  0  0  0  0  0  0  0  0  0  0
  143.2312   77.3118  217.0500 H   0  0  0  0  0  0  0  0  0  0  0  0
  143.1258   79.7381  217.5410 H   0  0  0  0  0  0  0  0  0  0  0  0
  141.8511   80.4746  219.5517 H   0  0  0  0  0  0  0  0  0  0  0  0
  140.7332   78.8233  221.0029 H   0  0  0  0  0  0  0  0  0  0  0  0
  138.8113   75.3497  221.1787 H   0  0  0  0  0  0  0  0  0  0  0  0
  139.0616   77.4710  219.3415 H   0  0  0  0  0  0  0  0  0  0  0  0
  137.9105   76.0189  219.5973 H   0  0  0  0  0  0  0  0  0  0  0  0
  137.3819   78.7248  219.8256 H   0  0  0  0  0  0  0  0  0  0  0  0
  136.3653   77.2454  220.1981 H   0  0  0  0  0  0  0  0  0  0  0  0
  136.0185   79.4240  223.9081 H   0  0  0  0  0  0  0  0  0  0  0  0
  136.4237   82.0631  222.5821 H   0  0  0  0  0  0  0  0  0  0  0  0
  135.0264   81.4548  223.4730 H   0  0  0  0  0  0  0  0  0  0  0  0
  137.2132   83.0522  224.4993 H   0  0  0  0  0  0  0  0  0  0  0  0
  135.8971   82.3786  225.4543 H   0  0  0  0  0  0  0  0  0  0  0  0
  138.5146   81.5738  225.7229 H   0  0  0  0  0  0  0  0  0  0  0  0
  137.1893   80.4751  226.0660 H   0  0  0  0  0  0  0  0  0  0  0  0
  138.5285   81.2605  222.2928 H   0  0  0  0  0  0  0  0  0  0  0  0
  139.0234   82.1078  223.8085 H   0  0  0  0  0  0  0  0  0  0  0  0
  139.8400   78.8486  224.5174 H   0  0  0  0  0  0  0  0  0  0  0  0
  142.1146   77.8356  224.3583 H   0  0  0  0  0  0  0  0  0  0  0  0
  143.8361   79.0103  222.9127 H   0  0  0  0  0  0  0  0  0  0  0  0
  143.2184   81.0654  221.7440 H   0  0  0  0  0  0  0  0  0  0  0  0
  137.4874   77.4014  223.7683 H   0  0  0  0  0  0  0  0  0  0  0  0
  137.0947   76.1803  222.5515 H   0  0  0  0  0  0  0  0  0  0  0  0
  139.7006   77.8637  222.5378 H   0  0  0  0  0  0  0  0  0  0  0  0
  139.6173   76.2307  223.2174 H   0  0  0  0  0  0  0  0  0  0  0  0
  1  2  1  0
  2  3  1  0
  3  4  2  0
  3  5  1  0
  5  6  1  0
  6  7  2  0
  7  8  1  0
  8  9  2  0
  9 10  1  0
 10 11  2  0
  5 12  1  0
 12 13  1  0
 13 14  1  0
 14 15  1  0
 15 16  1  0
 16 17  2  0
 16 18  1  0
 18 19  1  0
 19 20  1  0
 20 21  1  0
 21 22  1  0
 22 23  1  0
 23 24  1  0
 24 25  2  0
 25 26  1  0
 26 27  2  0
 27 28  1  0
 28 29  2  0
 29 30  1  0
 15 31  1  0
 31 32  1  0
 11  6  1  0
 32 12  1  0
 22 18  1  0
 29 24  1  0
  1 33  1  0
  1 34  1  0
  1 35  1  0
  2 36  1  0
  2 37  1  0
  7 38  1  0
  8 39  1  0
  9 40  1  0
 10 41  1  0
 11 42  1  0
 12 43  1  0
 13 44  1  0
 13 45  1  0
 14 46  1  0
 14 47  1  0
 18 48  1  1
 19 49  1  0
 19 50  1  0
 20 51  1  0
 20 52  1  0
 21 53  1  0
 21 54  1  0
 23 55  1  0
 23 56  1  0
 25 57  1  0
 26 58  1  0
 27 59  1  0
 28 60  1  0
 31 61  1  0
 31 62  1  0
 32 63  1  0
 32 64  1  0
M  END
>  <smiles>  (23) 
CCC(=O)N(c1ccccc1)C1CCN(C(=O)[C@@H]2CCCN2Cc2ccccc2Cl)CC1

>  <score_type>  (23) 
oracle

>  <origin>  (23) 
autodockgpu

>  <m_score__min__energy>  (23) 
-9.4600000000000009

>  <m_primary>  (23) 
energy

>  <rmsd>  (23) 
8.220062893436387

>  <m_score__min__rmsd>  (23) 
8.220062893436387

>  <meeko>  (23) 
{"free_energy": -6.87, "intermolecular_energy": -8.95, "internal_energy": -3.48, "cluster_size": 22, "cluster_id": 2, "rank_in_cluster": 11}

>  <energy>  (23) 
-6.9

>  <cluster_rmsd>  (23) 
0.07

>  <cluster>  (23) 
2

$$$$

     RDKit          3D

 64 67  0  0  0  0  0  0  0  0999 V2000
  137.2780   68.1800  222.6920 C   0  0  0  0  0  0  0  0  0  0  0  0
  138.7370   67.8730  222.8940 C   0  0  0  0  0  0  0  0  0  0  0  0
  139.1650   68.4730  224.1830 C   0  0  0  0  0  0  0  0  0  0  0  0
  139.1930   67.6490  225.1620 O   0  0  0  0  0  0  0  0  0  0  0  0
  139.5130   69.8480  224.3340 N   0  0  0  0  0  0  0  0  0  0  0  0
  140.0200   70.4250  225.5250 C   0  0  0  0  0  0  0  0  0  0  0  0
  140.9210   71.5010  225.4950 C   0  0  0  0  0  0  0  0  0  0  0  0
  141.4120   72.0780  226.6460 C   0  0  0  0  0  0  0  0  0  0  0  0
  141.0490   71.6390  227.8950 C   0  0  0  0  0  0  0  0  0  0  0  0
  140.1680   70.5860  227.9580 C   0  0  0  0  0  0  0  0  0  0  0  0
  139.6710   70.0000  226.7890 C   0  0  0  0  0  0  0  0  0  0  0  0
  139.3440   70.6730  223.1370 C   0  0  0  0  0  0  0  0  0  0  0  0
  140.6110   71.1410  222.5220 C   0  0  0  0  0  0  0  0  0  0  0  0
  140.6380   72.4640  221.8560 C   0  0  0  0  0  0  0  0  0  0  0  0
  139.4010   73.2460  222.0120 N   0  0  0  0  0  0  0  0  0  0  0  0
  139.5590   74.6310  222.1490 C   0  0  0  0  0  0  0  0  0  0  0  0
  140.8000   75.0190  222.1030 O   0  0  0  0  0  0  0  0  0  0  0  0
  138.5770   75.6820  222.3310 C   0  0  2  0  0  0  0  0  0  0  0  0
  137.7040   76.0670  221.1920 C   0  0  0  0  0  0  0  0  0  0  0  0
  137.2900   77.5030  221.4750 C   0  0  0  0  0  0  0  0  0  0  0  0
  138.0370   77.8650  222.7200 C   0  0  0  0  0  0  0  0  0  0  0  0
  139.2050   76.9540  222.7060 N   0  0  0  0  0  0  0  0  0  0  0  0
  140.1130   77.4590  221.6960 C   0  0  0  0  0  0  0  0  0  0  0  0
  141.0430   78.4710  222.2810 C   0  0  0  0  0  0  0  0  0  0  0  0
  141.2430   78.6180  223.6360 C   0  0  0  0  0  0  0  0  0  0  0  0
  142.1100   79.5680  224.1650 C   0  0  0  0  0  0  0  0  0  0  0  0
  142.7900   80.3890  223.2530 C   0  0  0  0  0  0  0  0  0  0  0  0
  142.5690   80.2170  221.9100 C   0  0  0  0  0  0  0  0  0  0  0  0
  141.7120   79.2790  221.3760 C   0  0  0  0  0  0  0  0  0  0  0  0
  141.4820   79.1180  219.6580 Cl  0  0  0  0  0  0  0  0  0  0  0  0
  138.1970   72.4840  222.0040 C   0  0  0  0  0  0  0  0  0  0  0  0
  138.2230   71.6570  223.3000 C   0  0  0  0  0  0  0  0  0  0  0  0
  136.7862   68.2835  223.6705 H   0  0  0  0  0  0  0  0  0  0  0  0
  137.1755   69.1194  222.1289 H   0  0  0  0  0  0  0  0  0  0  0  0
  136.8056   67.3616  222.1289 H   0  0  0  0  0  0  0  0  0  0  0  0
  138.8875   66.7837  222.9225 H   0  0  0  0  0  0  0  0  0  0  0  0
  139.3302   68.2892  222.0664 H   0  0  0  0  0  0  0  0  0  0  0  0
  141.2456   71.8964  224.5212 H   0  0  0  0  0  0  0  0  0  0  0  0
  142.1177   72.9176  226.5612 H   0  0  0  0  0  0  0  0  0  0  0  0
  141.4462   72.1098  228.8063 H   0  0  0  0  0  0  0  0  0  0  0  0
  139.8504   70.2000  228.9378 H   0  0  0  0  0  0  0  0  0  0  0  0
  138.9677   69.1594  226.8830 H   0  0  0  0  0  0  0  0  0  0  0  0
  138.9905   70.0245  222.3219 H   0  0  0  0  0  0  0  0  0  0  0  0
  141.3673   71.1661  223.3204 H   0  0  0  0  0  0  0  0  0  0  0  0
  140.7865   70.4285  221.7026 H   0  0  0  0  0  0  0  0  0  0  0  0
  141.4694   73.0462  222.2800 H   0  0  0  0  0  0  0  0  0  0  0  0
  140.7558   72.2723  220.7793 H   0  0  0  0  0  0  0  0  0  0  0  0
  137.9534   75.1989  223.0976 H   0  0  0  0  0  0  0  0  0  0  0  0
  138.2575   76.0049  220.2435 H   0  0  0  0  0  0  0  0  0  0  0  0
  136.8348   75.3997  221.0961 H   0  0  0  0  0  0  0  0  0  0  0  0
  137.5771   78.1625  220.6427 H   0  0  0  0  0  0  0  0  0  0  0  0
  136.2016   77.6112  221.5917 H   0  0  0  0  0  0  0  0  0  0  0  0
  138.3592   78.9164  222.6924 H   0  0  0  0  0  0  0  0  0  0  0  0
  137.4263   77.7612  223.6290 H   0  0  0  0  0  0  0  0  0  0  0  0
  140.6997   76.6230  221.2873 H   0  0  0  0  0  0  0  0  0  0  0  0
  139.5249   77.9378  220.8992 H   0  0  0  0  0  0  0  0  0  0  0  0
  140.6960   77.9587  224.3260 H   0  0  0  0  0  0  0  0  0  0  0  0
  142.2561   79.6711  225.2504 H   0  0  0  0  0  0  0  0  0  0  0  0
  143.4899   81.1591  223.6094 H   0  0  0  0  0  0  0  0  0  0  0  0
  143.1122   80.8716  221.2126 H   0  0  0  0  0  0  0  0  0  0  0  0
  137.3213   73.1496  221.9906 H   0  0  0  0  0  0  0  0  0  0  0  0
  138.1269   71.8427  221.1130 H   0  0  0  0  0  0  0  0  0  0  0  0
  138.4090   72.3089  224.1663 H   0  0  0  0  0  0  0  0  0  0  0  0
  137.2626   71.1500  223.4751 H   0  0  0  0  0  0  0  0  0  0  0  0
  1  2  1  0
  2  3  1  0
  3  4  2  0
  3  5  1  0
  5  6  1  0
  6  7  2  0
  7  8  1  0
  8  9  2  0
  9 10  1  0
 10 11  2  0
  5 12  1  0
 12 13  1  0
 13 14  1  0
 14 15  1  0
 15 16  1  0
 16 17  2  0
 16 18  1  0
 18 19  1  0
 19 20  1  0
 20 21  1  0
 21 22  1  0
 22 23  1  0
 23 24  1  0
 24 25  2  0
 25 26  1  0
 26 27  2  0
 27 28  1  0
 28 29  2  0
 29 30  1  0
 15 31  1  0
 31 32  1  0
 11  6  1  0
 32 12  1  0
 22 18  1  0
 29 24  1  0
  1 33  1  0
  1 34  1  0
  1 35  1  0
  2 36  1  0
  2 37  1  0
  7 38  1  0
  8 39  1  0
  9 40  1  0
 10 41  1  0
 11 42  1  0
 12 43  1  0
 13 44  1  0
 13 45  1  0
 14 46  1  0
 14 47  1  0
 18 48  1  1
 19 49  1  0
 19 50  1  0
 20 51  1  0
 20 52  1  0
 21 53  1  0
 21 54  1  0
 23 55  1  0
 23 56  1  0
 25 57  1  0
 26 58  1  0
 27 59  1  0
 28 60  1  0
 31 61  1  0
 31 62  1  0
 32 63  1  0
 32 64  1  0
M  END
>  <smiles>  (24) 
CCC(=O)N(c1ccccc1)C1CCN(C(=O)[C@@H]2CCCN2Cc2ccccc2Cl)CC1

>  <score_type>  (24) 
oracle

>  <origin>  (24) 
autodockgpu

>  <m_score__min__energy>  (24) 
-9.4600000000000009

>  <m_primary>  (24) 
energy

>  <rmsd>  (24) 
8.101663229288379

>  <m_score__min__rmsd>  (24) 
8.101663229288379

>  <meeko>  (24) 
{"free_energy": -9.22, "intermolecular_energy": -11.3, "internal_energy": -1.75, "cluster_size": 20, "cluster_id": 1, "rank_in_cluster": 9}

>  <energy>  (24) 
-6.9

>  <cluster_rmsd>  (24) 
0.02

>  <cluster>  (24) 
2

$$$$

     RDKit          3D

 64 67  0  0  0  0  0  0  0  0999 V2000
  142.5940   73.0380  220.4720 C   0  0  0  0  0  0  0  0  0  0  0  0
  142.6490   74.5180  220.7400 C   0  0  0  0  0  0  0  0  0  0  0  0
  141.2950   74.9660  221.1550 C   0  0  0  0  0  0  0  0  0  0  0  0
  140.7080   74.1740  221.9710 O   0  0  0  0  0  0  0  0  0  0  0  0
  140.6880   76.1690  220.6890 N   0  0  0  0  0  0  0  0  0  0  0  0
  141.3310   77.1350  219.8760 C   0  0  0  0  0  0  0  0  0  0  0  0
  142.0640   76.7680  218.7370 C   0  0  0  0  0  0  0  0  0  0  0  0
  142.6840   77.7000  217.9330 C   0  0  0  0  0  0  0  0  0  0  0  0
  142.6240   79.0460  218.1940 C   0  0  0  0  0  0  0  0  0  0  0  0
  141.9140   79.4380  219.3030 C   0  0  0  0  0  0  0  0  0  0  0  0
  141.2850   78.4920  220.1200 C   0  0  0  0  0  0  0  0  0  0  0  0
  139.2910   76.3590  221.0810 C   0  0  0  0  0  0  0  0  0  0  0  0
  138.4170   76.9090  220.0160 C   0  0  0  0  0  0  0  0  0  0  0  0
  137.2960   77.8000  220.3980 C   0  0  0  0  0  0  0  0  0  0  0  0
  137.2680   78.1590  221.8260 N   0  0  0  0  0  0  0  0  0  0  0  0
  136.8470   79.4610  222.1270 C   0  0  0  0  0  0  0  0  0  0  0  0
  136.5290   80.1600  221.0760 O   0  0  0  0  0  0  0  0  0  0  0  0
  136.7130   80.1410  223.4010 C   0  0  2  0  0  0  0  0  0  0  0  0
  136.1280   81.5060  223.4380 C   0  0  0  0  0  0  0  0  0  0  0  0
  136.6860   82.1440  224.7010 C   0  0  0  0  0  0  0  0  0  0  0  0
  137.6300   81.1190  225.2470 C   0  0  0  0  0  0  0  0  0  0  0  0
  138.0120   80.3240  224.0570 N   0  0  0  0  0  0  0  0  0  0  0  0
  138.9270   81.1430  223.2890 C   0  0  0  0  0  0  0  0  0  0  0  0
  140.2770   80.5080  223.2240 C   0  0  0  0  0  0  0  0  0  0  0  0
  140.6010   79.3520  223.9010 C   0  0  0  0  0  0  0  0  0  0  0  0
  141.8650   78.7750  223.8330 C   0  0  0  0  0  0  0  0  0  0  0  0
  142.8200   79.4220  223.0340 C   0  0  0  0  0  0  0  0  0  0  0  0
  142.4660   80.5710  222.3730 C   0  0  0  0  0  0  0  0  0  0  0  0
  141.2170   81.1500  222.4340 C   0  0  0  0  0  0  0  0  0  0  0  0
  140.8390   82.6110  221.5650 Cl  0  0  0  0  0  0  0  0  0  0  0  0
  137.6750   77.1260  222.7190 C   0  0  0  0  0  0  0  0  0  0  0  0
  139.1790   76.9310  222.4640 C   0  0  0  0  0  0  0  0  0  0  0  0
  142.5737   72.4929  221.4272 H   0  0  0  0  0  0  0  0  0  0  0  0
  141.6865   72.8031  219.8964 H   0  0  0  0  0  0  0  0  0  0  0  0
  143.4815   72.7364  219.8964 H   0  0  0  0  0  0  0  0  0  0  0  0
  143.3717   74.7242  221.5432 H   0  0  0  0  0  0  0  0  0  0  0  0
  142.9660   75.0562  219.8346 H   0  0  0  0  0  0  0  0  0  0  0  0
  142.1464   75.7022  218.4776 H   0  0  0  0  0  0  0  0  0  0  0  0
  143.2456   77.3535  217.0529 H   0  0  0  0  0  0  0  0  0  0  0  0
  143.1228   79.7794  217.5434 H   0  0  0  0  0  0  0  0  0  0  0  0
  141.8392   80.5070  219.5513 H   0  0  0  0  0  0  0  0  0  0  0  0
  140.7271   78.8474  220.9989 H   0  0  0  0  0  0  0  0  0  0  0  0
  138.8271   75.3669  221.1835 H   0  0  0  0  0  0  0  0  0  0  0  0
  139.0624   77.4780  219.3307 H   0  0  0  0  0  0  0  0  0  0  0  0
  137.9192   76.0218  219.5976 H   0  0  0  0  0  0  0  0  0  0  0  0
  137.3770   78.7268  219.8111 H   0  0  0  0  0  0  0  0  0  0  0  0
  136.3684   77.2451  220.1940 H   0  0  0  0  0  0  0  0  0  0  0  0
  136.0104   79.4498  223.8895 H   0  0  0  0  0  0  0  0  0  0  0  0
  136.4308   82.0798  222.5497 H   0  0  0  0  0  0  0  0  0  0  0  0
  135.0283   81.4824  223.4403 H   0  0  0  0  0  0  0  0  0  0  0  0
  137.2184   83.0769  224.4638 H   0  0  0  0  0  0  0  0  0  0  0  0
  135.8977   82.4141  225.4190 H   0  0  0  0  0  0  0  0  0  0  0  0
  138.5114   81.5983  225.6979 H   0  0  0  0  0  0  0  0  0  0  0  0
  137.1805   80.5065  226.0425 H   0  0  0  0  0  0  0  0  0  0  0  0
  138.5347   81.2625  222.2683 H   0  0  0  0  0  0  0  0  0  0  0  0
  139.0207   82.1232  223.7793 H   0  0  0  0  0  0  0  0  0  0  0  0
  139.8307   78.8671  224.5187 H   0  0  0  0  0  0  0  0  0  0  0  0
  142.1053   77.8522  224.3814 H   0  0  0  0  0  0  0  0  0  0  0  0
  143.8372   79.0141  222.9390 H   0  0  0  0  0  0  0  0  0  0  0  0
  143.2301   81.0628  221.7531 H   0  0  0  0  0  0  0  0  0  0  0  0
  137.4979   77.4276  223.7619 H   0  0  0  0  0  0  0  0  0  0  0  0
  137.1093   76.1972  222.5534 H   0  0  0  0  0  0  0  0  0  0  0  0
  139.7052   77.8951  222.5231 H   0  0  0  0  0  0  0  0  0  0  0  0
  139.6329   76.2664  223.2139 H   0  0  0  0  0  0  0  0  0  0  0  0
  1  2  1  0
  2  3  1  0
  3  4  2  0
  3  5  1  0
  5  6  1  0
  6  7  2  0
  7  8  1  0
  8  9  2  0
  9 10  1  0
 10 11  2  0
  5 12  1  0
 12 13  1  0
 13 14  1  0
 14 15  1  0
 15 16  1  0
 16 17  2  0
 16 18  1  0
 18 19  1  0
 19 20  1  0
 20 21  1  0
 21 22  1  0
 22 23  1  0
 23 24  1  0
 24 25  2  0
 25 26  1  0
 26 27  2  0
 27 28  1  0
 28 29  2  0
 29 30  1  0
 15 31  1  0
 31 32  1  0
 11  6  1  0
 32 12  1  0
 22 18  1  0
 29 24  1  0
  1 33  1  0
  1 34  1  0
  1 35  1  0
  2 36  1  0
  2 37  1  0
  7 38  1  0
  8 39  1  0
  9 40  1  0
 10 41  1  0
 11 42  1  0
 12 43  1  0
 13 44  1  0
 13 45  1  0
 14 46  1  0
 14 47  1  0
 18 48  1  1
 19 49  1  0
 19 50  1  0
 20 51  1  0
 20 52  1  0
 21 53  1  0
 21 54  1  0
 23 55  1  0
 23 56  1  0
 25 57  1  0
 26 58  1  0
 27 59  1  0
 28 60  1  0
 31 61  1  0
 31 62  1  0
 32 63  1  0
 32 64  1  0
M  END
>  <smiles>  (25) 
CCC(=O)N(c1ccccc1)C1CCN(C(=O)[C@@H]2CCCN2Cc2ccccc2Cl)CC1

>  <score_type>  (25) 
oracle

>  <origin>  (25) 
autodockgpu

>  <m_score__min__energy>  (25) 
-9.4600000000000009

>  <m_primary>  (25) 
energy

>  <rmsd>  (25) 
8.225580709577542

>  <m_score__min__rmsd>  (25) 
8.225580709577542

>  <meeko>  (25) 
{"free_energy": -6.87, "intermolecular_energy": -8.96, "internal_energy": -3.49, "cluster_size": 22, "cluster_id": 2, "rank_in_cluster": 7}

>  <energy>  (25) 
-6.9

>  <cluster_rmsd>  (25) 
0.08

>  <cluster>  (25) 
2

$$$$

     RDKit          3D

 64 67  0  0  0  0  0  0  0  0999 V2000
  143.6690   74.5270  220.4680 C   0  0  0  0  0  0  0  0  0  0  0  0
  142.2870   74.1180  220.0380 C   0  0  0  0  0  0  0  0  0  0  0  0
  141.3040   74.8210  220.9000 C   0  0  0  0  0  0  0  0  0  0  0  0
  141.0460   74.2200  222.0010 O   0  0  0  0  0  0  0  0  0  0  0  0
  140.6890   76.0570  220.5450 N   0  0  0  0  0  0  0  0  0  0  0  0
  141.3140   77.0830  219.7920 C   0  0  0  0  0  0  0  0  0  0  0  0
  141.2140   78.4320  220.1640 C   0  0  0  0  0  0  0  0  0  0  0  0
  141.8270   79.4370  219.4470 C   0  0  0  0  0  0  0  0  0  0  0  0
  142.5750   79.1810  218.3240 C   0  0  0  0  0  0  0  0  0  0  0  0
  142.6910   77.8690  217.9340 C   0  0  0  0  0  0  0  0  0  0  0  0
  142.0690   76.8490  218.6620 C   0  0  0  0  0  0  0  0  0  0  0  0
  139.3030   76.2190  220.9880 C   0  0  0  0  0  0  0  0  0  0  0  0
  138.3790   76.7480  219.9560 C   0  0  0  0  0  0  0  0  0  0  0  0
  137.2550   77.6160  220.3770 C   0  0  0  0  0  0  0  0  0  0  0  0
  137.2710   77.9780  221.8040 N   0  0  0  0  0  0  0  0  0  0  0  0
  136.8340   79.2710  222.1180 C   0  0  0  0  0  0  0  0  0  0  0  0
  136.4630   79.9600  221.0790 O   0  0  0  0  0  0  0  0  0  0  0  0
  136.7330   79.9520  223.3950 C   0  0  2  0  0  0  0  0  0  0  0  0
  136.1380   81.3120  223.4490 C   0  0  0  0  0  0  0  0  0  0  0  0
  136.7290   81.9550  224.6940 C   0  0  0  0  0  0  0  0  0  0  0  0
  137.6970   80.9390  225.2130 C   0  0  0  0  0  0  0  0  0  0  0  0
  138.0500   80.1450  224.0130 N   0  0  0  0  0  0  0  0  0  0  0  0
  138.9350   80.9710  223.2160 C   0  0  0  0  0  0  0  0  0  0  0  0
  140.3130   80.3970  223.1920 C   0  0  0  0  0  0  0  0  0  0  0  0
  140.6610   79.2390  223.8540 C   0  0  0  0  0  0  0  0  0  0  0  0
  141.9500   78.7190  223.8250 C   0  0  0  0  0  0  0  0  0  0  0  0
  142.9070   79.4270  223.0820 C   0  0  0  0  0  0  0  0  0  0  0  0
  142.5290   80.5760  222.4340 C   0  0  0  0  0  0  0  0  0  0  0  0
  141.2550   81.0990  222.4570 C   0  0  0  0  0  0  0  0  0  0  0  0
  140.8480   82.5650  221.6090 Cl  0  0  0  0  0  0  0  0  0  0  0  0
  137.7330   76.9560  222.6830 C   0  0  0  0  0  0  0  0  0  0  0  0
  139.2310   76.7920  222.3730 C   0  0  0  0  0  0  0  0  0  0  0  0
  143.7216   74.5426  221.5666 H   0  0  0  0  0  0  0  0  0  0  0  0
  144.4030   73.8076  220.0759 H   0  0  0  0  0  0  0  0  0  0  0  0
  143.8932   75.5300  220.0759 H   0  0  0  0  0  0  0  0  0  0  0  0
  142.1266   74.3977  218.9863 H   0  0  0  0  0  0  0  0  0  0  0  0
  142.1663   73.0290  220.1355 H   0  0  0  0  0  0  0  0  0  0  0  0
  140.6276   78.6961  221.0564 H   0  0  0  0  0  0  0  0  0  0  0  0
  141.7134   80.4776  219.7851 H   0  0  0  0  0  0  0  0  0  0  0  0
  143.0604   79.9918  217.7610 H   0  0  0  0  0  0  0  0  0  0  0  0
  143.2795   77.6176  217.0393 H   0  0  0  0  0  0  0  0  0  0  0  0
  142.1878   75.8114  218.3167 H   0  0  0  0  0  0  0  0  0  0  0  0
  138.8637   75.2178  221.1086 H   0  0  0  0  0  0  0  0  0  0  0  0
  138.9865   77.3286  219.2462 H   0  0  0  0  0  0  0  0  0  0  0  0
  137.8845   75.8495  219.5584 H   0  0  0  0  0  0  0  0  0  0  0  0
  137.2953   78.5428  219.7859 H   0  0  0  0  0  0  0  0  0  0  0  0
  136.3325   77.0411  220.2080 H   0  0  0  0  0  0  0  0  0  0  0  0
  136.0504   79.2559  223.9044 H   0  0  0  0  0  0  0  0  0  0  0  0
  136.4088   81.8877  222.5516 H   0  0  0  0  0  0  0  0  0  0  0  0
  135.0391   81.2795  223.4845 H   0  0  0  0  0  0  0  0  0  0  0  0
  137.2466   82.8918  224.4401 H   0  0  0  0  0  0  0  0  0  0  0  0
  135.9602   82.2189  225.4351 H   0  0  0  0  0  0  0  0  0  0  0  0
  138.5875   81.4263  225.6368 H   0  0  0  0  0  0  0  0  0  0  0  0
  137.2765   80.3241  226.0224 H   0  0  0  0  0  0  0  0  0  0  0  0
  138.5488   81.0261  222.1875 H   0  0  0  0  0  0  0  0  0  0  0  0
  138.9780   81.9757  223.6617 H   0  0  0  0  0  0  0  0  0  0  0  0
  139.8887   78.7056  224.4276 H   0  0  0  0  0  0  0  0  0  0  0  0
  142.2083   77.7936  224.3607 H   0  0  0  0  0  0  0  0  0  0  0  0
  143.9444   79.0664  223.0200 H   0  0  0  0  0  0  0  0  0  0  0  0
  143.2948   81.1156  221.8575 H   0  0  0  0  0  0  0  0  0  0  0  0
  137.5882   77.2563  223.7312 H   0  0  0  0  0  0  0  0  0  0  0  0
  137.1816   76.0150  222.5397 H   0  0  0  0  0  0  0  0  0  0  0  0
  139.7387   77.7671  222.4107 H   0  0  0  0  0  0  0  0  0  0  0  0
  139.7266   76.1394  223.1068 H   0  0  0  0  0  0  0  0  0  0  0  0
  1  2  1  0
  2  3  1  0
  3  4  2  0
  3  5  1  0
  5  6  1  0
  6  7  2  0
  7  8  1  0
  8  9  2  0
  9 10  1  0
 10 11  2  0
  5 12  1  0
 12 13  1  0
 13 14  1  0
 14 15  1  0
 15 16  1  0
 16 17  2  0
 16 18  1  0
 18 19  1  0
 19 20  1  0
 20 21  1  0
 21 22  1  0
 22 23  1  0
 23 24  1  0
 24 25  2  0
 25 26  1  0
 26 27  2  0
 27 28  1  0
 28 29  2  0
 29 30  1  0
 15 31  1  0
 31 32  1  0
 11  6  1  0
 32 12  1  0
 22 18  1  0
 29 24  1  0
  1 33  1  0
  1 34  1  0
  1 35  1  0
  2 36  1  0
  2 37  1  0
  7 38  1  0
  8 39  1  0
  9 40  1  0
 10 41  1  0
 11 42  1  0
 12 43  1  0
 13 44  1  0
 13 45  1  0
 14 46  1  0
 14 47  1  0
 18 48  1  1
 19 49  1  0
 19 50  1  0
 20 51  1  0
 20 52  1  0
 21 53  1  0
 21 54  1  0
 23 55  1  0
 23 56  1  0
 25 57  1  0
 26 58  1  0
 27 59  1  0
 28 60  1  0
 31 61  1  0
 31 62  1  0
 32 63  1  0
 32 64  1  0
M  END
>  <smiles>  (26) 
CCC(=O)N(c1ccccc1)C1CCN(C(=O)[C@@H]2CCCN2Cc2ccccc2Cl)CC1

>  <score_type>  (26) 
oracle

>  <origin>  (26) 
autodockgpu

>  <m_score__min__energy>  (26) 
-9.4600000000000009

>  <m_primary>  (26) 
energy

>  <rmsd>  (26) 
8.155292503566098

>  <m_score__min__rmsd>  (26) 
8.155292503566098

>  <meeko>  (26) 
{"free_energy": -6.85, "intermolecular_energy": -8.94, "internal_energy": -3.52, "cluster_size": 22, "cluster_id": 2, "rank_in_cluster": 17}

>  <energy>  (26) 
-6.88

>  <cluster_rmsd>  (26) 
0.25

>  <cluster>  (26) 
2

$$$$

     RDKit          3D

 64 67  0  0  0  0  0  0  0  0999 V2000
  137.4450   67.8200  222.5590 C   0  0  0  0  0  0  0  0  0  0  0  0
  138.8470   67.5420  223.0270 C   0  0  0  0  0  0  0  0  0  0  0  0
  139.0560   68.2470  224.3170 C   0  0  0  0  0  0  0  0  0  0  0  0
  138.9230   67.5020  225.3490 O   0  0  0  0  0  0  0  0  0  0  0  0
  139.3720   69.6340  224.4130 N   0  0  0  0  0  0  0  0  0  0  0  0
  139.9130   70.2600  225.5640 C   0  0  0  0  0  0  0  0  0  0  0  0
  140.8090   71.3350  225.4640 C   0  0  0  0  0  0  0  0  0  0  0  0
  141.3320   71.9590  226.5760 C   0  0  0  0  0  0  0  0  0  0  0  0
  141.0090   71.5690  227.8520 C   0  0  0  0  0  0  0  0  0  0  0  0
  140.1340   70.5180  227.9840 C   0  0  0  0  0  0  0  0  0  0  0  0
  139.6040   69.8840  226.8550 C   0  0  0  0  0  0  0  0  0  0  0  0
  139.1310   70.4190  223.2020 C   0  0  0  0  0  0  0  0  0  0  0  0
  140.3470   70.7260  222.4090 C   0  0  0  0  0  0  0  0  0  0  0  0
  140.4150   72.0090  221.6700 C   0  0  0  0  0  0  0  0  0  0  0  0
  139.2890   72.9200  221.9340 N   0  0  0  0  0  0  0  0  0  0  0  0
  139.5960   74.2860  221.9710 C   0  0  0  0  0  0  0  0  0  0  0  0
  140.8520   74.5420  221.7500 O   0  0  0  0  0  0  0  0  0  0  0  0
  138.7500   75.4390  222.2130 C   0  0  2  0  0  0  0  0  0  0  0  0
  137.9410   75.9940  221.0980 C   0  0  0  0  0  0  0  0  0  0  0  0
  137.7060   77.4520  221.4640 C   0  0  0  0  0  0  0  0  0  0  0  0
  138.4840   77.6470  222.7270 C   0  0  0  0  0  0  0  0  0  0  0  0
  139.5290   76.5990  222.6620 N   0  0  0  0  0  0  0  0  0  0  0  0
  140.5000   77.0440  221.6820 C   0  0  0  0  0  0  0  0  0  0  0  0
  141.2100   78.2670  222.1610 C   0  0  0  0  0  0  0  0  0  0  0  0
  141.5240   78.4880  223.4850 C   0  0  0  0  0  0  0  0  0  0  0  0
  142.1830   79.6350  223.9160 C   0  0  0  0  0  0  0  0  0  0  0  0
  142.5260   80.5800  222.9360 C   0  0  0  0  0  0  0  0  0  0  0  0
  142.1990   80.3300  221.6280 C   0  0  0  0  0  0  0  0  0  0  0  0
  141.5470   79.1970  221.1910 C   0  0  0  0  0  0  0  0  0  0  0  0
  141.1650   78.9480  219.5100 Cl  0  0  0  0  0  0  0  0  0  0  0  0
  138.0260   72.2850  222.1180 C   0  0  0  0  0  0  0  0  0  0  0  0
  138.1400   71.5180  223.4460 C   0  0  0  0  0  0  0  0  0  0  0  0
  136.7867   67.9505  223.4305 H   0  0  0  0  0  0  0  0  0  0  0  0
  137.4362   68.7374  221.9521 H   0  0  0  0  0  0  0  0  0  0  0  0
  137.0868   66.9754  221.9521 H   0  0  0  0  0  0  0  0  0  0  0  0
  138.9844   66.4598  223.1680 H   0  0  0  0  0  0  0  0  0  0  0  0
  139.5731   67.8952  222.2800 H   0  0  0  0  0  0  0  0  0  0  0  0
  141.1036   71.6913  224.4659 H   0  0  0  0  0  0  0  0  0  0  0  0
  142.0310   72.7968  226.4366 H   0  0  0  0  0  0  0  0  0  0  0  0
  141.4327   72.0763  228.7313 H   0  0  0  0  0  0  0  0  0  0  0  0
  139.8472   70.1714  228.9878 H   0  0  0  0  0  0  0  0  0  0  0  0
  138.9076   69.0456  227.0038 H   0  0  0  0  0  0  0  0  0  0  0  0
  138.6148   69.7756  222.4743 H   0  0  0  0  0  0  0  0  0  0  0  0
  141.1990   70.7085  223.1046 H   0  0  0  0  0  0  0  0  0  0  0  0
  140.3459   69.9634  221.6163 H   0  0  0  0  0  0  0  0  0  0  0  0
  141.3463   72.5211  221.9535 H   0  0  0  0  0  0  0  0  0  0  0  0
  140.3738   71.7588  220.5996 H   0  0  0  0  0  0  0  0  0  0  0  0
  138.0644   74.9945  222.9495 H   0  0  0  0  0  0  0  0  0  0  0  0
  138.4901   75.9183  220.1479 H   0  0  0  0  0  0  0  0  0  0  0  0
  136.9966   75.4464  220.9626 H   0  0  0  0  0  0  0  0  0  0  0  0
  138.0776   78.1175  220.6709 H   0  0  0  0  0  0  0  0  0  0  0  0
  136.6386   77.6871  221.5878 H   0  0  0  0  0  0  0  0  0  0  0  0
  138.9355   78.6496  222.7586 H   0  0  0  0  0  0  0  0  0  0  0  0
  137.8587   77.5697  223.6287 H   0  0  0  0  0  0  0  0  0  0  0  0
  141.2347   76.2431  221.5120 H   0  0  0  0  0  0  0  0  0  0  0  0
  139.9739   77.2839  220.7462 H   0  0  0  0  0  0  0  0  0  0  0  0
  141.2427   77.7284  224.2292 H   0  0  0  0  0  0  0  0  0  0  0  0
  142.4245   79.7943  224.9773 H   0  0  0  0  0  0  0  0  0  0  0  0
  143.0492   81.5070  223.2133 H   0  0  0  0  0  0  0  0  0  0  0  0
  142.4757   81.0845  220.8769 H   0  0  0  0  0  0  0  0  0  0  0  0
  137.2235   73.0352  222.1752 H   0  0  0  0  0  0  0  0  0  0  0  0
  137.7805   71.6156  221.2804 H   0  0  0  0  0  0  0  0  0  0  0  0
  138.4976   72.1855  224.2439 H   0  0  0  0  0  0  0  0  0  0  0  0
  137.1663   71.1198  223.7674 H   0  0  0  0  0  0  0  0  0  0  0  0
  1  2  1  0
  2  3  1  0
  3  4  2  0
  3  5  1  0
  5  6  1  0
  6  7  2  0
  7  8  1  0
  8  9  2  0
  9 10  1  0
 10 11  2  0
  5 12  1  0
 12 13  1  0
 13 14  1  0
 14 15  1  0
 15 16  1  0
 16 17  2  0
 16 18  1  0
 18 19  1  0
 19 20  1  0
 20 21  1  0
 21 22  1  0
 22 23  1  0
 23 24  1  0
 24 25  2  0
 25 26  1  0
 26 27  2  0
 27 28  1  0
 28 29  2  0
 29 30  1  0
 15 31  1  0
 31 32  1  0
 11  6  1  0
 32 12  1  0
 22 18  1  0
 29 24  1  0
  1 33  1  0
  1 34  1  0
  1 35  1  0
  2 36  1  0
  2 37  1  0
  7 38  1  0
  8 39  1  0
  9 40  1  0
 10 41  1  0
 11 42  1  0
 12 43  1  0
 13 44  1  0
 13 45  1  0
 14 46  1  0
 14 47  1  0
 18 48  1  1
 19 49  1  0
 19 50  1  0
 20 51  1  0
 20 52  1  0
 21 53  1  0
 21 54  1  0
 23 55  1  0
 23 56  1  0
 25 57  1  0
 26 58  1  0
 27 59  1  0
 28 60  1  0
 31 61  1  0
 31 62  1  0
 32 63  1  0
 32 64  1  0
M  END
>  <smiles>  (27) 
CCC(=O)N(c1ccccc1)C1CCN(C(=O)[C@@H]2CCCN2Cc2ccccc2Cl)CC1

>  <score_type>  (27) 
oracle

>  <origin>  (27) 
autodockgpu

>  <m_score__min__energy>  (27) 
-9.4600000000000009

>  <m_primary>  (27) 
energy

>  <rmsd>  (27) 
8.21024937147092

>  <m_score__min__rmsd>  (27) 
8.21024937147092

>  <meeko>  (27) 
{"free_energy": -9.26, "intermolecular_energy": -11.35, "internal_energy": -1.71, "cluster_size": 20, "cluster_id": 1, "rank_in_cluster": 6}

>  <energy>  (27) 
-6.87

>  <cluster_rmsd>  (27) 
0.2

>  <cluster>  (27) 
2

$$$$

     RDKit          3D

 64 67  0  0  0  0  0  0  0  0999 V2000
  138.8190   67.1410  222.1250 C   0  0  0  0  0  0  0  0  0  0  0  0
  138.0880   68.2410  222.8470 C   0  0  0  0  0  0  0  0  0  0  0  0
  138.9190   68.6740  223.9990 C   0  0  0  0  0  0  0  0  0  0  0  0
  139.1850   67.7410  224.8330 O   0  0  0  0  0  0  0  0  0  0  0  0
  139.3840   70.0100  224.1760 N   0  0  0  0  0  0  0  0  0  0  0  0
  139.9320   70.5210  225.3790 C   0  0  0  0  0  0  0  0  0  0  0  0
  139.6130   69.9640  226.6270 C   0  0  0  0  0  0  0  0  0  0  0  0
  140.1490   70.4440  227.8020 C   0  0  0  0  0  0  0  0  0  0  0  0
  141.0300   71.4970  227.8270 C   0  0  0  0  0  0  0  0  0  0  0  0
  141.3630   72.0640  226.6200 C   0  0  0  0  0  0  0  0  0  0  0  0
  140.8180   71.5770  225.4280 C   0  0  0  0  0  0  0  0  0  0  0  0
  139.2930   70.8680  222.9940 C   0  0  0  0  0  0  0  0  0  0  0  0
  140.5990   71.3230  222.4550 C   0  0  0  0  0  0  0  0  0  0  0  0
  140.6870   72.6610  221.8250 C   0  0  0  0  0  0  0  0  0  0  0  0
  139.4600   73.4660  221.9390 N   0  0  0  0  0  0  0  0  0  0  0  0
  139.6390   74.8440  222.1180 C   0  0  0  0  0  0  0  0  0  0  0  0
  140.8880   75.2050  222.1450 O   0  0  0  0  0  0  0  0  0  0  0  0
  138.6700   75.9110  222.2770 C   0  0  2  0  0  0  0  0  0  0  0  0
  137.7360   76.2160  221.1630 C   0  0  0  0  0  0  0  0  0  0  0  0
  137.3400   77.6710  221.3630 C   0  0  0  0  0  0  0  0  0  0  0  0
  138.1570   78.1200  222.5340 C   0  0  0  0  0  0  0  0  0  0  0  0
  139.3210   77.2030  222.5230 N   0  0  0  0  0  0  0  0  0  0  0  0
  140.1710   77.6270  221.4290 C   0  0  0  0  0  0  0  0  0  0  0  0
  140.4910   79.0820  221.5430 C   0  0  0  0  0  0  0  0  0  0  0  0
  140.0640   80.0220  220.6300 C   0  0  0  0  0  0  0  0  0  0  0  0
  140.3740   81.3730  220.7480 C   0  0  0  0  0  0  0  0  0  0  0  0
  141.1510   81.7550  221.8520 C   0  0  0  0  0  0  0  0  0  0  0  0
  141.5600   80.7940  222.7420 C   0  0  0  0  0  0  0  0  0  0  0  0
  141.2590   79.4540  222.6340 C   0  0  0  0  0  0  0  0  0  0  0  0
  141.8140   78.2910  223.8050 Cl  0  0  0  0  0  0  0  0  0  0  0  0
  138.2420   72.7300  221.8500 C   0  0  0  0  0  0  0  0  0  0  0  0
  138.1860   71.8720  223.1250 C   0  0  0  0  0  0  0  0  0  0  0  0
  139.2724   66.4587  222.8591 H   0  0  0  0  0  0  0  0  0  0  0  0
  138.1114   66.5831  221.4941 H   0  0  0  0  0  0  0  0  0  0  0  0
  139.6074   67.5773  221.4941 H   0  0  0  0  0  0  0  0  0  0  0  0
  137.9254   69.0892  222.1658 H   0  0  0  0  0  0  0  0  0  0  0  0
  137.1105   67.8795  223.1990 H   0  0  0  0  0  0  0  0  0  0  0  0
  138.9125   69.1169  226.6684 H   0  0  0  0  0  0  0  0  0  0  0  0
  139.8618   69.9681  228.7512 H   0  0  0  0  0  0  0  0  0  0  0  0
  141.4510   71.8706  228.7721 H   0  0  0  0  0  0  0  0  0  0  0  0
  142.0657   72.9098  226.5915 H   0  0  0  0  0  0  0  0  0  0  0  0
  141.1100   72.0594  224.4835 H   0  0  0  0  0  0  0  0  0  0  0  0
  138.9676   70.2472  222.1462 H   0  0  0  0  0  0  0  0  0  0  0  0
  141.3144   71.3120  223.2905 H   0  0  0  0  0  0  0  0  0  0  0  0
  140.8008   70.6270  221.6275 H   0  0  0  0  0  0  0  0  0  0  0  0
  141.5078   73.2143  222.3046 H   0  0  0  0  0  0  0  0  0  0  0  0
  140.8549   72.4931  220.7509 H   0  0  0  0  0  0  0  0  0  0  0  0
  138.0884   75.4897  223.1102 H   0  0  0  0  0  0  0  0  0  0  0  0
  138.2361   76.0821  220.1924 H   0  0  0  0  0  0  0  0  0  0  0  0
  136.8622   75.5478  221.1639 H   0  0  0  0  0  0  0  0  0  0  0  0
  137.5798   78.2663  220.4696 H   0  0  0  0  0  0  0  0  0  0  0  0
  136.2601   77.7927  221.5331 H   0  0  0  0  0  0  0  0  0  0  0  0
  138.4793   79.1644  222.4100 H   0  0  0  0  0  0  0  0  0  0  0  0
  137.5981   78.0879  223.4809 H   0  0  0  0  0  0  0  0  0  0  0  0
  141.1063   77.0485  221.4531 H   0  0  0  0  0  0  0  0  0  0  0  0
  139.6403   77.4545  220.4811 H   0  0  0  0  0  0  0  0  0  0  0  0
  139.4550   79.6915  219.7757 H   0  0  0  0  0  0  0  0  0  0  0  0
  140.0254   82.1091  220.0086 H   0  0  0  0  0  0  0  0  0  0  0  0
  141.4281   82.8089  222.0018 H   0  0  0  0  0  0  0  0  0  0  0  0
  142.1693   81.1153  223.5996 H   0  0  0  0  0  0  0  0  0  0  0  0
  137.3816   73.4141  221.8090 H   0  0  0  0  0  0  0  0  0  0  0  0
  138.2041   72.1123  220.9406 H   0  0  0  0  0  0  0  0  0  0  0  0
  138.3416   72.4991  224.0153 H   0  0  0  0  0  0  0  0  0  0  0  0
  137.2078   71.3820  223.2394 H   0  0  0  0  0  0  0  0  0  0  0  0
  1  2  1  0
  2  3  1  0
  3  4  2  0
  3  5  1  0
  5  6  1  0
  6  7  2  0
  7  8  1  0
  8  9  2  0
  9 10  1  0
 10 11  2  0
  5 12  1  0
 12 13  1  0
 13 14  1  0
 14 15  1  0
 15 16  1  0
 16 17  2  0
 16 18  1  0
 18 19  1  0
 19 20  1  0
 20 21  1  0
 21 22  1  0
 22 23  1  0
 23 24  1  0
 24 25  2  0
 25 26  1  0
 26 27  2  0
 27 28  1  0
 28 29  2  0
 29 30  1  0
 15 31  1  0
 31 32  1  0
 11  6  1  0
 32 12  1  0
 22 18  1  0
 29 24  1  0
  1 33  1  0
  1 34  1  0
  1 35  1  0
  2 36  1  0
  2 37  1  0
  7 38  1  0
  8 39  1  0
  9 40  1  0
 10 41  1  0
 11 42  1  0
 12 43  1  0
 13 44  1  0
 13 45  1  0
 14 46  1  0
 14 47  1  0
 18 48  1  1
 19 49  1  0
 19 50  1  0
 20 51  1  0
 20 52  1  0
 21 53  1  0
 21 54  1  0
 23 55  1  0
 23 56  1  0
 25 57  1  0
 26 58  1  0
 27 59  1  0
 28 60  1  0
 31 61  1  0
 31 62  1  0
 32 63  1  0
 32 64  1  0
M  END
>  <smiles>  (28) 
CCC(=O)N(c1ccccc1)C1CCN(C(=O)[C@@H]2CCCN2Cc2ccccc2Cl)CC1

>  <score_type>  (28) 
oracle

>  <origin>  (28) 
autodockgpu

>  <m_score__min__energy>  (28) 
-9.4600000000000009

>  <m_primary>  (28) 
energy

>  <rmsd>  (28) 
8.50181281763307

>  <m_score__min__rmsd>  (28) 
8.50181281763307

>  <meeko>  (28) 
{"free_energy": -8.38, "intermolecular_energy": -10.47, "internal_energy": -1.76, "cluster_size": 20, "cluster_id": 1, "rank_in_cluster": 20}

>  <energy>  (28) 
-6.87

>  <cluster_rmsd>  (28) 
0.22

>  <cluster>  (28) 
2

$$$$

     RDKit          3D

 64 67  0  0  0  0  0  0  0  0999 V2000
  142.3400   78.9690  218.3310 C   0  0  0  0  0  0  0  0  0  0  0  0
  142.5420   77.5660  218.8370 C   0  0  0  0  0  0  0  0  0  0  0  0
  141.7770   77.4120  220.1000 C   0  0  0  0  0  0  0  0  0  0  0  0
  141.6280   78.4990  220.7590 O   0  0  0  0  0  0  0  0  0  0  0  0
  141.2520   76.1670  220.5560 N   0  0  0  0  0  0  0  0  0  0  0  0
  141.9930   74.9620  220.6400 C   0  0  0  0  0  0  0  0  0  0  0  0
  143.3680   74.9230  220.3620 C   0  0  0  0  0  0  0  0  0  0  0  0
  144.1010   73.7590  220.4520 C   0  0  0  0  0  0  0  0  0  0  0  0
  143.5320   72.5640  220.8190 C   0  0  0  0  0  0  0  0  0  0  0  0
  142.1870   72.5690  221.0960 C   0  0  0  0  0  0  0  0  0  0  0  0
  141.4430   73.7510  221.0050 C   0  0  0  0  0  0  0  0  0  0  0  0
  139.8530   76.1950  220.9830 C   0  0  0  0  0  0  0  0  0  0  0  0
  138.8880   76.5840  219.9260 C   0  0  0  0  0  0  0  0  0  0  0  0
  137.6730   77.3400  220.3070 C   0  0  0  0  0  0  0  0  0  0  0  0
  137.6350   77.7520  221.7200 N   0  0  0  0  0  0  0  0  0  0  0  0
  137.0580   79.0020  221.9840 C   0  0  0  0  0  0  0  0  0  0  0  0
  136.6270   79.6090  220.9180 O   0  0  0  0  0  0  0  0  0  0  0  0
  136.8710   79.7120  223.2340 C   0  0  2  0  0  0  0  0  0  0  0  0
  136.1530   81.0130  223.2300 C   0  0  0  0  0  0  0  0  0  0  0  0
  136.6580   81.7500  224.4610 C   0  0  0  0  0  0  0  0  0  0  0  0
  137.7050   80.8450  225.0300 C   0  0  0  0  0  0  0  0  0  0  0  0
  138.1520   80.0470  223.8650 N   0  0  0  0  0  0  0  0  0  0  0  0
  138.9730   80.9240  223.0540 C   0  0  0  0  0  0  0  0  0  0  0  0
  140.4000   80.4850  223.0790 C   0  0  0  0  0  0  0  0  0  0  0  0
  140.8460   79.4120  223.8190 C   0  0  0  0  0  0  0  0  0  0  0  0
  142.1800   79.0170  223.8340 C   0  0  0  0  0  0  0  0  0  0  0  0
  143.0750   79.7640  223.0540 C   0  0  0  0  0  0  0  0  0  0  0  0
  142.5990   80.8260  222.3280 C   0  0  0  0  0  0  0  0  0  0  0  0
  141.2800   81.2250  222.3060 C   0  0  0  0  0  0  0  0  0  0  0  0
  140.7480   82.5860  221.3590 Cl  0  0  0  0  0  0  0  0  0  0  0  0
  138.1940   76.8180  222.6390 C   0  0  0  0  0  0  0  0  0  0  0  0
  139.7040   76.8050  222.3460 C   0  0  0  0  0  0  0  0  0  0  0  0
  142.2411   79.6559  219.1844 H   0  0  0  0  0  0  0  0  0  0  0  0
  143.2046   79.2662  217.7194 H   0  0  0  0  0  0  0  0  0  0  0  0
  141.4267   79.0102  217.7194 H   0  0  0  0  0  0  0  0  0  0  0  0
  142.1770   76.8451  218.0906 H   0  0  0  0  0  0  0  0  0  0  0  0
  143.6109   77.3775  219.0156 H   0  0  0  0  0  0  0  0  0  0  0  0
  143.8772   75.8510  220.0627 H   0  0  0  0  0  0  0  0  0  0  0  0
  145.1764   73.7882  220.2225 H   0  0  0  0  0  0  0  0  0  0  0  0
  144.1283   71.6422  220.8881 H   0  0  0  0  0  0  0  0  0  0  0  0
  141.6890   71.6341  221.3925 H   0  0  0  0  0  0  0  0  0  0  0  0
  140.3681   73.7123  221.2356 H   0  0  0  0  0  0  0  0  0  0  0  0
  139.5233   75.1569  221.1369 H   0  0  0  0  0  0  0  0  0  0  0  0
  139.4370   77.2009  219.1993 H   0  0  0  0  0  0  0  0  0  0  0  0
  138.4972   75.6236  219.5588 H   0  0  0  0  0  0  0  0  0  0  0  0
  137.6198   78.2442  219.6828 H   0  0  0  0  0  0  0  0  0  0  0  0
  136.8194   76.6636  220.1526 H   0  0  0  0  0  0  0  0  0  0  0  0
  136.2463   78.9730  223.7571 H   0  0  0  0  0  0  0  0  0  0  0  0
  136.3875   81.5804  222.3173 H   0  0  0  0  0  0  0  0  0  0  0  0
  135.0612   80.8805  223.2488 H   0  0  0  0  0  0  0  0  0  0  0  0
  137.0922   82.7216  224.1827 H   0  0  0  0  0  0  0  0  0  0  0  0
  135.8543   81.9672  225.1800 H   0  0  0  0  0  0  0  0  0  0  0  0
  138.5390   81.4261  225.4504 H   0  0  0  0  0  0  0  0  0  0  0  0
  137.3269   80.2213  225.8534 H   0  0  0  0  0  0  0  0  0  0  0  0
  138.6073   80.9037  222.0168 H   0  0  0  0  0  0  0  0  0  0  0  0
  138.9099   81.9438  223.4615 H   0  0  0  0  0  0  0  0  0  0  0  0
  140.1198   78.8460  224.4209 H   0  0  0  0  0  0  0  0  0  0  0  0
  142.5178   78.1571  224.4310 H   0  0  0  0  0  0  0  0  0  0  0  0
  144.1429   79.5020  223.0249 H   0  0  0  0  0  0  0  0  0  0  0  0
  143.3182   81.3975  221.7228 H   0  0  0  0  0  0  0  0  0  0  0  0
  138.0063   77.1384  223.6744 H   0  0  0  0  0  0  0  0  0  0  0  0
  137.7483   75.8187  222.5264 H   0  0  0  0  0  0  0  0  0  0  0  0
  140.1039   77.8297  222.3524 H   0  0  0  0  0  0  0  0  0  0  0  0
  140.2581   76.2351  223.1064 H   0  0  0  0  0  0  0  0  0  0  0  0
  1  2  1  0
  2  3  1  0
  3  4  2  0
  3  5  1  0
  5  6  1  0
  6  7  2  0
  7  8  1  0
  8  9  2  0
  9 10  1  0
 10 11  2  0
  5 12  1  0
 12 13  1  0
 13 14  1  0
 14 15  1  0
 15 16  1  0
 16 17  2  0
 16 18  1  0
 18 19  1  0
 19 20  1  0
 20 21  1  0
 21 22  1  0
 22 23  1  0
 23 24  1  0
 24 25  2  0
 25 26  1  0
 26 27  2  0
 27 28  1  0
 28 29  2  0
 29 30  1  0
 15 31  1  0
 31 32  1  0
 11  6  1  0
 32 12  1  0
 22 18  1  0
 29 24  1  0
  1 33  1  0
  1 34  1  0
  1 35  1  0
  2 36  1  0
  2 37  1  0
  7 38  1  0
  8 39  1  0
  9 40  1  0
 10 41  1  0
 11 42  1  0
 12 43  1  0
 13 44  1  0
 13 45  1  0
 14 46  1  0
 14 47  1  0
 18 48  1  1
 19 49  1  0
 19 50  1  0
 20 51  1  0
 20 52  1  0
 21 53  1  0
 21 54  1  0
 23 55  1  0
 23 56  1  0
 25 57  1  0
 26 58  1  0
 27 59  1  0
 28 60  1  0
 31 61  1  0
 31 62  1  0
 32 63  1  0
 32 64  1  0
M  END
>  <smiles>  (29) 
CCC(=O)N(c1ccccc1)C1CCN(C(=O)[C@@H]2CCCN2Cc2ccccc2Cl)CC1

>  <score_type>  (29) 
oracle

>  <origin>  (29) 
autodockgpu

>  <m_score__min__energy>  (29) 
-9.4600000000000009

>  <m_primary>  (29) 
energy

>  <rmsd>  (29) 
8.174711363462155

>  <m_score__min__rmsd>  (29) 
8.174711363462155

>  <meeko>  (29) 
{"free_energy": -6.69, "intermolecular_energy": -8.78, "internal_energy": -3.3, "cluster_size": 8, "cluster_id": 3, "rank_in_cluster": 4}

>  <energy>  (29) 
-6.87

>  <cluster_rmsd>  (29) 
0.21

>  <cluster>  (29) 
2

$$$$

     RDKit          3D

 64 67  0  0  0  0  0  0  0  0999 V2000
  143.7040   74.5040  220.4650 C   0  0  0  0  0  0  0  0  0  0  0  0
  142.3070   74.2220  219.9810 C   0  0  0  0  0  0  0  0  0  0  0  0
  141.3530   74.9120  220.8850 C   0  0  0  0  0  0  0  0  0  0  0  0
  141.1270   74.2920  221.9820 O   0  0  0  0  0  0  0  0  0  0  0  0
  140.7310   76.1560  220.5720 N   0  0  0  0  0  0  0  0  0  0  0  0
  141.3470   77.2060  219.8440 C   0  0  0  0  0  0  0  0  0  0  0  0
  142.1110   76.9530  218.6940 C   0  0  0  0  0  0  0  0  0  0  0  0
  142.7040   77.9660  217.9720 C   0  0  0  0  0  0  0  0  0  0  0  0
  142.5860   79.2860  218.3320 C   0  0  0  0  0  0  0  0  0  0  0  0
  141.8450   79.5650  219.4540 C   0  0  0  0  0  0  0  0  0  0  0  0
  141.2430   78.5370  220.1870 C   0  0  0  0  0  0  0  0  0  0  0  0
  139.3490   76.3000  221.0300 C   0  0  0  0  0  0  0  0  0  0  0  0
  138.4010   76.7910  220.0000 C   0  0  0  0  0  0  0  0  0  0  0  0
  137.2660   77.6450  220.4200 C   0  0  0  0  0  0  0  0  0  0  0  0
  137.2940   78.0360  221.8390 N   0  0  0  0  0  0  0  0  0  0  0  0
  136.8360   79.3270  222.1330 C   0  0  0  0  0  0  0  0  0  0  0  0
  136.4390   79.9880  221.0860 O   0  0  0  0  0  0  0  0  0  0  0  0
  136.7390   80.0310  223.3970 C   0  0  2  0  0  0  0  0  0  0  0  0
  136.1310   81.3860  223.4300 C   0  0  0  0  0  0  0  0  0  0  0  0
  136.7260   82.0590  224.6580 C   0  0  0  0  0  0  0  0  0  0  0  0
  137.7080   81.0620  225.1880 C   0  0  0  0  0  0  0  0  0  0  0  0
  138.0580   80.2490  224.0000 N   0  0  0  0  0  0  0  0  0  0  0  0
  138.9290   81.0670  223.1810 C   0  0  0  0  0  0  0  0  0  0  0  0
  140.3160   80.5120  223.1650 C   0  0  0  0  0  0  0  0  0  0  0  0
  140.6770   79.3650  223.8380 C   0  0  0  0  0  0  0  0  0  0  0  0
  141.9740   78.8630  223.8170 C   0  0  0  0  0  0  0  0  0  0  0  0
  142.9230   79.5780  223.0700 C   0  0  0  0  0  0  0  0  0  0  0  0
  142.5310   80.7160  222.4120 C   0  0  0  0  0  0  0  0  0  0  0  0
  141.2490   81.2210  222.4270 C   0  0  0  0  0  0  0  0  0  0  0  0
  140.8250   82.6730  221.5650 Cl  0  0  0  0  0  0  0  0  0  0  0  0
  137.7880   77.0410  222.7310 C   0  0  0  0  0  0  0  0  0  0  0  0
  139.2840   76.8990  222.4040 C   0  0  0  0  0  0  0  0  0  0  0  0
  143.7174   74.5067  221.5649 H   0  0  0  0  0  0  0  0  0  0  0  0
  144.3855   73.7253  220.0919 H   0  0  0  0  0  0  0  0  0  0  0  0
  144.0301   75.4861  220.0919 H   0  0  0  0  0  0  0  0  0  0  0  0
  142.1857   74.5986  218.9546 H   0  0  0  0  0  0  0  0  0  0  0  0
  142.1162   73.1387  219.9837 H   0  0  0  0  0  0  0  0  0  0  0  0
  142.2405   75.9134  218.3585 H   0  0  0  0  0  0  0  0  0  0  0  0
  143.2911   77.7088  217.0780 H   0  0  0  0  0  0  0  0  0  0  0  0
  143.0644   80.0853  217.7469 H   0  0  0  0  0  0  0  0  0  0  0  0
  141.7235   80.6086  219.7799 H   0  0  0  0  0  0  0  0  0  0  0  0
  140.6586   78.8035  221.0800 H   0  0  0  0  0  0  0  0  0  0  0  0
  138.9310   75.2930  221.1759 H   0  0  0  0  0  0  0  0  0  0  0  0
  138.9876   77.3694  219.2711 H   0  0  0  0  0  0  0  0  0  0  0  0
  137.9192   75.8756  219.6260 H   0  0  0  0  0  0  0  0  0  0  0  0
  137.2797   78.5604  219.8102 H   0  0  0  0  0  0  0  0  0  0  0  0
  136.3531   77.0485  220.2758 H   0  0  0  0  0  0  0  0  0  0  0  0
  136.0678   79.3378  223.9252 H   0  0  0  0  0  0  0  0  0  0  0  0
  136.3887   81.9469  222.5195 H   0  0  0  0  0  0  0  0  0  0  0  0
  135.0328   81.3434  223.4754 H   0  0  0  0  0  0  0  0  0  0  0  0
  137.2325   82.9956  224.3819 H   0  0  0  0  0  0  0  0  0  0  0  0
  135.9609   82.3301  225.4003 H   0  0  0  0  0  0  0  0  0  0  0  0
  138.5974   81.5654  225.5948 H   0  0  0  0  0  0  0  0  0  0  0  0
  137.3004   80.4588  226.0126 H   0  0  0  0  0  0  0  0  0  0  0  0
  138.5386   81.0923  222.1529 H   0  0  0  0  0  0  0  0  0  0  0  0
  138.9599   82.0822  223.6034 H   0  0  0  0  0  0  0  0  0  0  0  0
  139.9103   78.8259  224.4137 H   0  0  0  0  0  0  0  0  0  0  0  0
  142.2440   77.9463  224.3617 H   0  0  0  0  0  0  0  0  0  0  0  0
  143.9653   79.2311  223.0131 H   0  0  0  0  0  0  0  0  0  0  0  0
  143.2909   81.2620  221.8337 H   0  0  0  0  0  0  0  0  0  0  0  0
  137.6516   77.3594  223.7751 H   0  0  0  0  0  0  0  0  0  0  0  0
  137.2531   76.0870  222.6134 H   0  0  0  0  0  0  0  0  0  0  0  0
  139.7735   77.8840  222.4156 H   0  0  0  0  0  0  0  0  0  0  0  0
  139.8014   76.2704  223.1437 H   0  0  0  0  0  0  0  0  0  0  0  0
  1  2  1  0
  2  3  1  0
  3  4  2  0
  3  5  1  0
  5  6  1  0
  6  7  2  0
  7  8  1  0
  8  9  2  0
  9 10  1  0
 10 11  2  0
  5 12  1  0
 12 13  1  0
 13 14  1  0
 14 15  1  0
 15 16  1  0
 16 17  2  0
 16 18  1  0
 18 19  1  0
 19 20  1  0
 20 21  1  0
 21 22  1  0
 22 23  1  0
 23 24  1  0
 24 25  2  0
 25 26  1  0
 26 27  2  0
 27 28  1  0
 28 29  2  0
 29 30  1  0
 15 31  1  0
 31 32  1  0
 11  6  1  0
 32 12  1  0
 22 18  1  0
 29 24  1  0
  1 33  1  0
  1 34  1  0
  1 35  1  0
  2 36  1  0
  2 37  1  0
  7 38  1  0
  8 39  1  0
  9 40  1  0
 10 41  1  0
 11 42  1  0
 12 43  1  0
 13 44  1  0
 13 45  1  0
 14 46  1  0
 14 47  1  0
 18 48  1  1
 19 49  1  0
 19 50  1  0
 20 51  1  0
 20 52  1  0
 21 53  1  0
 21 54  1  0
 23 55  1  0
 23 56  1  0
 25 57  1  0
 26 58  1  0
 27 59  1  0
 28 60  1  0
 31 61  1  0
 31 62  1  0
 32 63  1  0
 32 64  1  0
M  END
>  <smiles>  (30) 
CCC(=O)N(c1ccccc1)C1CCN(C(=O)[C@@H]2CCCN2Cc2ccccc2Cl)CC1

>  <score_type>  (30) 
oracle

>  <origin>  (30) 
autodockgpu

>  <m_score__min__energy>  (30) 
-9.4600000000000009

>  <m_primary>  (30) 
energy

>  <rmsd>  (30) 
8.241241776957391

>  <m_score__min__rmsd>  (30) 
8.241241776957391

>  <meeko>  (30) 
{"free_energy": -6.86, "intermolecular_energy": -8.95, "internal_energy": -3.48, "cluster_size": 22, "cluster_id": 2, "rank_in_cluster": 15}

>  <energy>  (30) 
-6.87

>  <cluster_rmsd>  (30) 
0.06

>  <cluster>  (30) 
2

$$$$

     RDKit          3D

 64 67  0  0  0  0  0  0  0  0999 V2000
  134.3130   69.0990  225.5210 C   0  0  0  0  0  0  0  0  0  0  0  0
  135.5010   70.0070  225.3550 C   0  0  0  0  0  0  0  0  0  0  0  0
  136.4000   69.4150  224.3320 C   0  0  0  0  0  0  0  0  0  0  0  0
  135.8480   68.5190  223.6040 O   0  0  0  0  0  0  0  0  0  0  0  0
  137.7630   69.7980  224.1670 N   0  0  0  0  0  0  0  0  0  0  0  0
  138.8090   69.4660  225.0640 C   0  0  0  0  0  0  0  0  0  0  0  0
  139.5600   70.4570  225.7160 C   0  0  0  0  0  0  0  0  0  0  0  0
  140.5710   70.1460  226.6000 C   0  0  0  0  0  0  0  0  0  0  0  0
  140.9080   68.8490  226.8980 C   0  0  0  0  0  0  0  0  0  0  0  0
  140.1910   67.8560  226.2750 C   0  0  0  0  0  0  0  0  0  0  0  0
  139.1650   68.1710  225.3780 C   0  0  0  0  0  0  0  0  0  0  0  0
  138.0580   70.5620  222.9540 C   0  0  0  0  0  0  0  0  0  0  0  0
  139.5000   70.6800  222.6290 C   0  0  0  0  0  0  0  0  0  0  0  0
  139.9880   71.9140  221.9710 C   0  0  0  0  0  0  0  0  0  0  0  0
  138.9740   72.9730  221.8420 N   0  0  0  0  0  0  0  0  0  0  0  0
  139.4310   74.2890  221.9950 C   0  0  0  0  0  0  0  0  0  0  0  0
  140.7090   74.3710  222.2210 O   0  0  0  0  0  0  0  0  0  0  0  0
  138.7160   75.5500  221.9440 C   0  0  2  0  0  0  0  0  0  0  0  0
  138.3000   76.0960  220.6270 C   0  0  0  0  0  0  0  0  0  0  0  0
  138.1810   77.5980  220.8390 C   0  0  0  0  0  0  0  0  0  0  0  0
  138.6320   77.8100  222.2500 C   0  0  0  0  0  0  0  0  0  0  0  0
  139.5060   76.6440  222.5180 N   0  0  0  0  0  0  0  0  0  0  0  0
  140.7460   76.8850  221.8060 C   0  0  0  0  0  0  0  0  0  0  0  0
  141.3390   78.1950  222.2080 C   0  0  0  0  0  0  0  0  0  0  0  0
  141.5580   78.5540  223.5210 C   0  0  0  0  0  0  0  0  0  0  0  0
  142.1090   79.7800  223.8790 C   0  0  0  0  0  0  0  0  0  0  0  0
  142.4430   80.6580  222.8370 C   0  0  0  0  0  0  0  0  0  0  0  0
  142.2120   80.2710  221.5410 C   0  0  0  0  0  0  0  0  0  0  0  0
  141.6680   79.0590  221.1760 C   0  0  0  0  0  0  0  0  0  0  0  0
  141.4040   78.6360  219.5080 Cl  0  0  0  0  0  0  0  0  0  0  0  0
  137.6510   72.5150  221.5750 C   0  0  0  0  0  0  0  0  0  0  0  0
  137.2000   71.7890  222.8540 C   0  0  0  0  0  0  0  0  0  0  0  0
  134.1144   68.9472  226.5922 H   0  0  0  0  0  0  0  0  0  0  0  0
  133.4326   69.5565  225.0461 H   0  0  0  0  0  0  0  0  0  0  0  0
  134.5234   68.1294  225.0461 H   0  0  0  0  0  0  0  0  0  0  0  0
  135.1660   71.0015  225.0252 H   0  0  0  0  0  0  0  0  0  0  0  0
  136.0334   70.1139  226.3116 H   0  0  0  0  0  0  0  0  0  0  0  0
  139.3346   71.5148  225.5151 H   0  0  0  0  0  0  0  0  0  0  0  0
  141.1260   70.9640  227.0825 H   0  0  0  0  0  0  0  0  0  0  0  0
  141.7173   68.6147  227.6052 H   0  0  0  0  0  0  0  0  0  0  0  0
  140.4264   66.8020  226.4839 H   0  0  0  0  0  0  0  0  0  0  0  0
  138.6157   67.3464  224.9001 H   0  0  0  0  0  0  0  0  0  0  0  0
  137.7403   69.9632  222.0876 H   0  0  0  0  0  0  0  0  0  0  0  0
  140.0531   70.5782  223.5744 H   0  0  0  0  0  0  0  0  0  0  0  0
  139.6663   69.8955  221.8761 H   0  0  0  0  0  0  0  0  0  0  0  0
  140.8271   72.3105  222.5614 H   0  0  0  0  0  0  0  0  0  0  0  0
  140.2804   71.6315  220.9489 H   0  0  0  0  0  0  0  0  0  0  0  0
  137.8120   75.2561  222.4975 H   0  0  0  0  0  0  0  0  0  0  0  0
  139.0567   75.8732  219.8603 H   0  0  0  0  0  0  0  0  0  0  0  0
  137.3555   75.6534  220.2776 H   0  0  0  0  0  0  0  0  0  0  0  0
  138.8290   78.1430  220.1369 H   0  0  0  0  0  0  0  0  0  0  0  0
  137.1595   77.9671  220.6647 H   0  0  0  0  0  0  0  0  0  0  0  0
  139.1934   78.7512  222.3452 H   0  0  0  0  0  0  0  0  0  0  0  0
  137.7941   77.8866  222.9585 H   0  0  0  0  0  0  0  0  0  0  0  0
  141.4583   76.0796  222.0384 H   0  0  0  0  0  0  0  0  0  0  0  0
  140.5354   76.9083  220.7266 H   0  0  0  0  0  0  0  0  0  0  0  0
  141.2866   77.8437  224.3159 H   0  0  0  0  0  0  0  0  0  0  0  0
  142.2755   80.0492  224.9325 H   0  0  0  0  0  0  0  0  0  0  0  0
  142.8835   81.6419  223.0557 H   0  0  0  0  0  0  0  0  0  0  0  0
  142.4791   80.9757  220.7397 H   0  0  0  0  0  0  0  0  0  0  0  0
  136.9862   73.3648  221.3608 H   0  0  0  0  0  0  0  0  0  0  0  0
  137.6184   71.8527  220.6974 H   0  0  0  0  0  0  0  0  0  0  0  0
  137.3497   72.4334  223.7329 H   0  0  0  0  0  0  0  0  0  0  0  0
  136.1309   71.5327  222.8175 H   0  0  0  0  0  0  0  0  0  0  0  0
  1  2  1  0
  2  3  1  0
  3  4  2  0
  3  5  1  0
  5  6  1  0
  6  7  2  0
  7  8  1  0
  8  9  2  0
  9 10  1  0
 10 11  2  0
  5 12  1  0
 12 13  1  0
 13 14  1  0
 14 15  1  0
 15 16  1  0
 16 17  2  0
 16 18  1  0
 18 19  1  0
 19 20  1  0
 20 21  1  0
 21 22  1  0
 22 23  1  0
 23 24  1  0
 24 25  2  0
 25 26  1  0
 26 27  2  0
 27 28  1  0
 28 29  2  0
 29 30  1  0
 15 31  1  0
 31 32  1  0
 11  6  1  0
 32 12  1  0
 22 18  1  0
 29 24  1  0
  1 33  1  0
  1 34  1  0
  1 35  1  0
  2 36  1  0
  2 37  1  0
  7 38  1  0
  8 39  1  0
  9 40  1  0
 10 41  1  0
 11 42  1  0
 12 43  1  0
 13 44  1  0
 13 45  1  0
 14 46  1  0
 14 47  1  0
 18 48  1  1
 19 49  1  0
 19 50  1  0
 20 51  1  0
 20 52  1  0
 21 53  1  0
 21 54  1  0
 23 55  1  0
 23 56  1  0
 25 57  1  0
 26 58  1  0
 27 59  1  0
 28 60  1  0
 31 61  1  0
 31 62  1  0
 32 63  1  0
 32 64  1  0
M  END
>  <smiles>  (31) 
CCC(=O)N(c1ccccc1)C1CCN(C(=O)[C@@H]2CCCN2Cc2ccccc2Cl)CC1

>  <score_type>  (31) 
oracle

>  <origin>  (31) 
autodockgpu

>  <m_score__min__energy>  (31) 
-9.4600000000000009

>  <m_primary>  (31) 
energy

>  <rmsd>  (31) 
8.231712888585749

>  <m_score__min__rmsd>  (31) 
8.231712888585749

>  <meeko>  (31) 
{"free_energy": -8.48, "intermolecular_energy": -10.57, "internal_energy": -1.72, "cluster_size": 20, "cluster_id": 1, "rank_in_cluster": 17}

>  <energy>  (31) 
-6.87

>  <cluster_rmsd>  (31) 
0.21

>  <cluster>  (31) 
2

$$$$

     RDKit          3D

 64 67  0  0  0  0  0  0  0  0999 V2000
  142.5580   72.8670  220.7770 C   0  0  0  0  0  0  0  0  0  0  0  0
  141.4560   73.8860  220.8840 C   0  0  0  0  0  0  0  0  0  0  0  0
  142.0100   75.2120  220.5130 C   0  0  0  0  0  0  0  0  0  0  0  0
  143.2820   75.2270  220.3660 O   0  0  0  0  0  0  0  0  0  0  0  0
  141.2090   76.3780  220.3360 N   0  0  0  0  0  0  0  0  0  0  0  0
  141.6210   77.5410  219.6390 C   0  0  0  0  0  0  0  0  0  0  0  0
  141.1070   78.8080  219.9560 C   0  0  0  0  0  0  0  0  0  0  0  0
  141.5090   79.9480  219.2930 C   0  0  0  0  0  0  0  0  0  0  0  0
  142.4360   79.9160  218.2810 C   0  0  0  0  0  0  0  0  0  0  0  0
  142.9580   78.6900  217.9470 C   0  0  0  0  0  0  0  0  0  0  0  0
  142.5500   77.5330  218.6200 C   0  0  0  0  0  0  0  0  0  0  0  0
  139.8640   76.3080  220.9080 C   0  0  0  0  0  0  0  0  0  0  0  0
  138.7650   76.5520  219.9420 C   0  0  0  0  0  0  0  0  0  0  0  0
  137.5300   77.2210  220.4160 C   0  0  0  0  0  0  0  0  0  0  0  0
  137.5990   77.7080  221.8030 N   0  0  0  0  0  0  0  0  0  0  0  0
  136.9400   78.9150  222.0670 C   0  0  0  0  0  0  0  0  0  0  0  0
  136.3480   79.4220  221.0260 O   0  0  0  0  0  0  0  0  0  0  0  0
  136.8170   79.6770  223.2960 C   0  0  2  0  0  0  0  0  0  0  0  0
  136.1180   80.9870  223.2710 C   0  0  0  0  0  0  0  0  0  0  0  0
  136.6870   81.7630  224.4500 C   0  0  0  0  0  0  0  0  0  0  0  0
  137.7440   80.8640  225.0090 C   0  0  0  0  0  0  0  0  0  0  0  0
  138.1290   80.0150  223.8580 N   0  0  0  0  0  0  0  0  0  0  0  0
  138.9270   80.8470  222.9790 C   0  0  0  0  0  0  0  0  0  0  0  0
  140.3650   80.4510  223.0400 C   0  0  0  0  0  0  0  0  0  0  0  0
  140.8240   79.3810  223.7780 C   0  0  0  0  0  0  0  0  0  0  0  0
  142.1680   79.0270  223.8270 C   0  0  0  0  0  0  0  0  0  0  0  0
  143.0620   79.8130  223.0840 C   0  0  0  0  0  0  0  0  0  0  0  0
  142.5740   80.8710  222.3600 C   0  0  0  0  0  0  0  0  0  0  0  0
  141.2440   81.2290  222.3050 C   0  0  0  0  0  0  0  0  0  0  0  0
  140.6980   82.5880  221.3620 Cl  0  0  0  0  0  0  0  0  0  0  0  0
  138.3330   76.8790  222.7000 C   0  0  0  0  0  0  0  0  0  0  0  0
  139.8000   76.9800  222.2480 C   0  0  0  0  0  0  0  0  0  0  0  0
  142.8807   72.5686  221.7854 H   0  0  0  0  0  0  0  0  0  0  0  0
  142.1897   71.9843  220.2337 H   0  0  0  0  0  0  0  0  0  0  0  0
  143.4092   73.3032  220.2337 H   0  0  0  0  0  0  0  0  0  0  0  0
  140.6364   73.6207  220.2000 H   0  0  0  0  0  0  0  0  0  0  0  0
  141.0633   73.9132  221.9112 H   0  0  0  0  0  0  0  0  0  0  0  0
  140.3598   78.8941  220.7587 H   0  0  0  0  0  0  0  0  0  0  0  0
  141.0727   80.9148  219.5845 H   0  0  0  0  0  0  0  0  0  0  0  0
  142.7476   80.8331  217.7597 H   0  0  0  0  0  0  0  0  0  0  0  0
  143.7044   78.6171  217.1423 H   0  0  0  0  0  0  0  0  0  0  0  0
  142.9916   76.5707  218.3218 H   0  0  0  0  0  0  0  0  0  0  0  0
  139.6478   75.2559  221.1455 H   0  0  0  0  0  0  0  0  0  0  0  0
  139.1781   77.1724  219.1330 H   0  0  0  0  0  0  0  0  0  0  0  0
  138.4289   75.5426  219.6626 H   0  0  0  0  0  0  0  0  0  0  0  0
  137.3297   78.0801  219.7588 H   0  0  0  0  0  0  0  0  0  0  0  0
  136.7314   76.4651  220.3870 H   0  0  0  0  0  0  0  0  0  0  0  0
  136.2047   78.9696  223.8746 H   0  0  0  0  0  0  0  0  0  0  0  0
  136.3206   81.5148  222.3274 H   0  0  0  0  0  0  0  0  0  0  0  0
  135.0262   80.8728  223.3413 H   0  0  0  0  0  0  0  0  0  0  0  0
  137.1230   82.7159  224.1154 H   0  0  0  0  0  0  0  0  0  0  0  0
  135.9184   82.0209  225.1935 H   0  0  0  0  0  0  0  0  0  0  0  0
  138.6036   81.4472  225.3709 H   0  0  0  0  0  0  0  0  0  0  0  0
  137.3927   80.2785  225.8714 H   0  0  0  0  0  0  0  0  0  0  0  0
  138.5646   80.7333  221.9467 H   0  0  0  0  0  0  0  0  0  0  0  0
  138.8344   81.8942  223.3026 H   0  0  0  0  0  0  0  0  0  0  0  0
  140.0989   78.7839  224.3505 H   0  0  0  0  0  0  0  0  0  0  0  0
  142.5148   78.1691  224.4217 H   0  0  0  0  0  0  0  0  0  0  0  0
  144.1379   79.5842  223.0822 H   0  0  0  0  0  0  0  0  0  0  0  0
  143.2920   81.4740  221.7849 H   0  0  0  0  0  0  0  0  0  0  0  0
  138.2236   77.2399  223.7333 H   0  0  0  0  0  0  0  0  0  0  0  0
  137.9718   75.8401  222.6828 H   0  0  0  0  0  0  0  0  0  0  0  0
  140.1024   78.0342  222.1623 H   0  0  0  0  0  0  0  0  0  0  0  0
  140.4793   76.5050  222.9711 H   0  0  0  0  0  0  0  0  0  0  0  0
  1  2  1  0
  2  3  1  0
  3  4  2  0
  3  5  1  0
  5  6  1  0
  6  7  2  0
  7  8  1  0
  8  9  2  0
  9 10  1  0
 10 11  2  0
  5 12  1  0
 12 13  1  0
 13 14  1  0
 14 15  1  0
 15 16  1  0
 16 17  2  0
 16 18  1  0
 18 19  1  0
 19 20  1  0
 20 21  1  0
 21 22  1  0
 22 23  1  0
 23 24  1  0
 24 25  2  0
 25 26  1  0
 26 27  2  0
 27 28  1  0
 28 29  2  0
 29 30  1  0
 15 31  1  0
 31 32  1  0
 11  6  1  0
 32 12  1  0
 22 18  1  0
 29 24  1  0
  1 33  1  0
  1 34  1  0
  1 35  1  0
  2 36  1  0
  2 37  1  0
  7 38  1  0
  8 39  1  0
  9 40  1  0
 10 41  1  0
 11 42  1  0
 12 43  1  0
 13 44  1  0
 13 45  1  0
 14 46  1  0
 14 47  1  0
 18 48  1  1
 19 49  1  0
 19 50  1  0
 20 51  1  0
 20 52  1  0
 21 53  1  0
 21 54  1  0
 23 55  1  0
 23 56  1  0
 25 57  1  0
 26 58  1  0
 27 59  1  0
 28 60  1  0
 31 61  1  0
 31 62  1  0
 32 63  1  0
 32 64  1  0
M  END
>  <smiles>  (32) 
CCC(=O)N(c1ccccc1)C1CCN(C(=O)[C@@H]2CCCN2Cc2ccccc2Cl)CC1

>  <score_type>  (32) 
oracle

>  <origin>  (32) 
autodockgpu

>  <m_score__min__energy>  (32) 
-9.4600000000000009

>  <m_primary>  (32) 
energy

>  <rmsd>  (32) 
8.186008374174817

>  <m_score__min__rmsd>  (32) 
8.186008374174817

>  <meeko>  (32) 
{"free_energy": -6.36, "intermolecular_energy": -8.45, "internal_energy": -3.5, "cluster_size": 22, "cluster_id": 2, "rank_in_cluster": 20}

>  <energy>  (32) 
-6.87

>  <cluster_rmsd>  (32) 
0.13

>  <cluster>  (32) 
2

$$$$

     RDKit          3D

 64 67  0  0  0  0  0  0  0  0999 V2000
  141.3670   72.8470  220.3210 C   0  0  0  0  0  0  0  0  0  0  0  0
  141.3100   73.9520  221.3410 C   0  0  0  0  0  0  0  0  0  0  0  0
  141.8910   75.1760  220.7340 C   0  0  0  0  0  0  0  0  0  0  0  0
  143.1400   75.0890  220.4700 O   0  0  0  0  0  0  0  0  0  0  0  0
  141.1360   76.3560  220.4680 N   0  0  0  0  0  0  0  0  0  0  0  0
  141.6200   77.4780  219.7510 C   0  0  0  0  0  0  0  0  0  0  0  0
  142.4430   77.3310  218.6230 C   0  0  0  0  0  0  0  0  0  0  0  0
  142.9100   78.4150  217.9110 C   0  0  0  0  0  0  0  0  0  0  0  0
  142.6000   79.7070  218.2590 C   0  0  0  0  0  0  0  0  0  0  0  0
  141.7970   79.8840  219.3600 C   0  0  0  0  0  0  0  0  0  0  0  0
  141.3230   78.7840  220.0820 C   0  0  0  0  0  0  0  0  0  0  0  0
  139.7600   76.3470  220.9660 C   0  0  0  0  0  0  0  0  0  0  0  0
  138.7330   76.7090  219.9580 C   0  0  0  0  0  0  0  0  0  0  0  0
  137.5190   77.4330  220.4020 C   0  0  0  0  0  0  0  0  0  0  0  0
  137.5420   77.8460  221.8150 N   0  0  0  0  0  0  0  0  0  0  0  0
  136.9470   79.0800  222.1070 C   0  0  0  0  0  0  0  0  0  0  0  0
  136.4460   79.6750  221.0650 O   0  0  0  0  0  0  0  0  0  0  0  0
  136.8050   79.7870  223.3660 C   0  0  2  0  0  0  0  0  0  0  0  0
  136.1140   81.1020  223.3860 C   0  0  0  0  0  0  0  0  0  0  0  0
  136.6640   81.8210  224.6090 C   0  0  0  0  0  0  0  0  0  0  0  0
  137.7050   80.8910  225.1480 C   0  0  0  0  0  0  0  0  0  0  0  0
  138.1070   80.0910  223.9670 N   0  0  0  0  0  0  0  0  0  0  0  0
  138.9270   80.9560  223.1410 C   0  0  0  0  0  0  0  0  0  0  0  0
  140.3500   80.5030  223.1530 C   0  0  0  0  0  0  0  0  0  0  0  0
  140.7860   79.4030  223.8590 C   0  0  0  0  0  0  0  0  0  0  0  0
  142.1160   78.9960  223.8620 C   0  0  0  0  0  0  0  0  0  0  0  0
  143.0190   79.7600  223.1060 C   0  0  0  0  0  0  0  0  0  0  0  0
  142.5520   80.8490  222.4140 C   0  0  0  0  0  0  0  0  0  0  0  0
  141.2370   81.2590  222.4050 C   0  0  0  0  0  0  0  0  0  0  0  0
  140.7170   82.6540  221.5010 Cl  0  0  0  0  0  0  0  0  0  0  0  0
  138.1720   76.9280  222.7040 C   0  0  0  0  0  0  0  0  0  0  0  0
  139.6650   76.9550  222.3340 C   0  0  0  0  0  0  0  0  0  0  0  0
  141.4171   71.8758  220.8350 H   0  0  0  0  0  0  0  0  0  0  0  0
  140.4658   72.8825  219.6912 H   0  0  0  0  0  0  0  0  0  0  0  0
  142.2597   72.9750  219.6912 H   0  0  0  0  0  0  0  0  0  0  0  0
  140.2649   74.1394  221.6286 H   0  0  0  0  0  0  0  0  0  0  0  0
  141.8773   73.6683  222.2397 H   0  0  0  0  0  0  0  0  0  0  0  0
  142.7240   76.3187  218.2971 H   0  0  0  0  0  0  0  0  0  0  0  0
  143.5521   78.2395  217.0353 H   0  0  0  0  0  0  0  0  0  0  0  0
  142.9783   80.5632  217.6812 H   0  0  0  0  0  0  0  0  0  0  0  0
  141.5242   80.9015  219.6768 H   0  0  0  0  0  0  0  0  0  0  0  0
  140.6820   78.9692  220.9566 H   0  0  0  0  0  0  0  0  0  0  0  0
  139.4651   75.3013  221.1378 H   0  0  0  0  0  0  0  0  0  0  0  0
  139.2279   77.3398  219.2049 H   0  0  0  0  0  0  0  0  0  0  0  0
  138.3503   75.7386  219.6089 H   0  0  0  0  0  0  0  0  0  0  0  0
  137.4094   78.3346  219.7814 H   0  0  0  0  0  0  0  0  0  0  0  0
  136.6774   76.7332  220.2923 H   0  0  0  0  0  0  0  0  0  0  0  0
  136.1779   79.0585  223.9008 H   0  0  0  0  0  0  0  0  0  0  0  0
  136.3382   81.6699  222.4710 H   0  0  0  0  0  0  0  0  0  0  0  0
  135.0204   80.9920  223.4301 H   0  0  0  0  0  0  0  0  0  0  0  0
  137.1118   82.7849  224.3256 H   0  0  0  0  0  0  0  0  0  0  0  0
  135.8824   82.0506  225.3482 H   0  0  0  0  0  0  0  0  0  0  0  0
  138.5609   81.4519  225.5516 H   0  0  0  0  0  0  0  0  0  0  0  0
  137.3340   80.2704  225.9770 H   0  0  0  0  0  0  0  0  0  0  0  0
  138.5494   80.9331  222.1081 H   0  0  0  0  0  0  0  0  0  0  0  0
  138.8780   81.9789  223.5425 H   0  0  0  0  0  0  0  0  0  0  0  0
  140.0544   78.8247  224.4424 H   0  0  0  0  0  0  0  0  0  0  0  0
  142.4456   78.1145  224.4315 H   0  0  0  0  0  0  0  0  0  0  0  0
  144.0847   79.4898  223.0689 H   0  0  0  0  0  0  0  0  0  0  0  0
  143.2760   81.4335  221.8274 H   0  0  0  0  0  0  0  0  0  0  0  0
  138.0290   77.2443  223.7478 H   0  0  0  0  0  0  0  0  0  0  0  0
  137.7479   75.9170  222.6141 H   0  0  0  0  0  0  0  0  0  0  0  0
  140.0370   77.9901  222.3195 H   0  0  0  0  0  0  0  0  0  0  0  0
  140.2726   76.4017  223.0652 H   0  0  0  0  0  0  0  0  0  0  0  0
  1  2  1  0
  2  3  1  0
  3  4  2  0
  3  5  1  0
  5  6  1  0
  6  7  2  0
  7  8  1  0
  8  9  2  0
  9 10  1  0
 10 11  2  0
  5 12  1  0
 12 13  1  0
 13 14  1  0
 14 15  1  0
 15 16  1  0
 16 17  2  0
 16 18  1  0
 18 19  1  0
 19 20  1  0
 20 21  1  0
 21 22  1  0
 22 23  1  0
 23 24  1  0
 24 25  2  0
 25 26  1  0
 26 27  2  0
 27 28  1  0
 28 29  2  0
 29 30  1  0
 15 31  1  0
 31 32  1  0
 11  6  1  0
 32 12  1  0
 22 18  1  0
 29 24  1  0
  1 33  1  0
  1 34  1  0
  1 35  1  0
  2 36  1  0
  2 37  1  0
  7 38  1  0
  8 39  1  0
  9 40  1  0
 10 41  1  0
 11 42  1  0
 12 43  1  0
 13 44  1  0
 13 45  1  0
 14 46  1  0
 14 47  1  0
 18 48  1  1
 19 49  1  0
 19 50  1  0
 20 51  1  0
 20 52  1  0
 21 53  1  0
 21 54  1  0
 23 55  1  0
 23 56  1  0
 25 57  1  0
 26 58  1  0
 27 59  1  0
 28 60  1  0
 31 61  1  0
 31 62  1  0
 32 63  1  0
 32 64  1  0
M  END
>  <smiles>  (33) 
CCC(=O)N(c1ccccc1)C1CCN(C(=O)[C@@H]2CCCN2Cc2ccccc2Cl)CC1

>  <score_type>  (33) 
oracle

>  <origin>  (33) 
autodockgpu

>  <m_score__min__energy>  (33) 
-9.4600000000000009

>  <m_primary>  (33) 
energy

>  <rmsd>  (33) 
8.206730577402425

>  <m_score__min__rmsd>  (33) 
8.206730577402425

>  <meeko>  (33) 
{"free_energy": -6.34, "intermolecular_energy": -8.43, "internal_energy": -3.56, "cluster_size": 22, "cluster_id": 2, "rank_in_cluster": 21}

>  <energy>  (33) 
-6.87

>  <cluster_rmsd>  (33) 
0.28

>  <cluster>  (33) 
2

$$$$

     RDKit          3D

 64 67  0  0  0  0  0  0  0  0999 V2000
  142.6030   72.9880  220.7360 C   0  0  0  0  0  0  0  0  0  0  0  0
  142.5850   74.4910  220.6510 C   0  0  0  0  0  0  0  0  0  0  0  0
  141.2580   74.9670  221.1150 C   0  0  0  0  0  0  0  0  0  0  0  0
  140.6980   74.2040  221.9760 O   0  0  0  0  0  0  0  0  0  0  0  0
  140.6450   76.1670  220.6490 N   0  0  0  0  0  0  0  0  0  0  0  0
  141.2810   77.1320  219.8280 C   0  0  0  0  0  0  0  0  0  0  0  0
  141.2050   78.5040  220.1130 C   0  0  0  0  0  0  0  0  0  0  0  0
  141.8290   79.4510  219.3290 C   0  0  0  0  0  0  0  0  0  0  0  0
  142.5660   79.1110  218.2220 C   0  0  0  0  0  0  0  0  0  0  0  0
  142.6600   77.7750  217.9170 C   0  0  0  0  0  0  0  0  0  0  0  0
  142.0260   76.8150  218.7120 C   0  0  0  0  0  0  0  0  0  0  0  0
  139.2500   76.3560  221.0480 C   0  0  0  0  0  0  0  0  0  0  0  0
  138.3710   76.9120  219.9900 C   0  0  0  0  0  0  0  0  0  0  0  0
  137.2520   77.8010  220.3830 C   0  0  0  0  0  0  0  0  0  0  0  0
  137.2310   78.1530  221.8120 N   0  0  0  0  0  0  0  0  0  0  0  0
  136.8120   79.4530  222.1220 C   0  0  0  0  0  0  0  0  0  0  0  0
  136.4900   80.1580  221.0770 O   0  0  0  0  0  0  0  0  0  0  0  0
  136.6850   80.1270  223.4000 C   0  0  2  0  0  0  0  0  0  0  0  0
  136.1040   81.4930  223.4470 C   0  0  0  0  0  0  0  0  0  0  0  0
  136.6690   82.1220  224.7120 C   0  0  0  0  0  0  0  0  0  0  0  0
  137.6100   81.0910  225.2500 C   0  0  0  0  0  0  0  0  0  0  0  0
  137.9860   80.3000  224.0540 N   0  0  0  0  0  0  0  0  0  0  0  0
  138.9020   81.1210  223.2870 C   0  0  0  0  0  0  0  0  0  0  0  0
  140.2530   80.4870  223.2250 C   0  0  0  0  0  0  0  0  0  0  0  0
  140.5740   79.3270  223.8960 C   0  0  0  0  0  0  0  0  0  0  0  0
  141.8380   78.7510  223.8310 C   0  0  0  0  0  0  0  0  0  0  0  0
  142.7970   79.4040  223.0410 C   0  0  0  0  0  0  0  0  0  0  0  0
  142.4450   80.5560  222.3850 C   0  0  0  0  0  0  0  0  0  0  0  0
  141.1960   81.1340  222.4440 C   0  0  0  0  0  0  0  0  0  0  0  0
  140.8220   82.6010  221.5830 Cl  0  0  0  0  0  0  0  0  0  0  0  0
  137.6420   77.1150  222.6980 C   0  0  0  0  0  0  0  0  0  0  0  0
  139.1450   76.9200  222.4340 C   0  0  0  0  0  0  0  0  0  0  0  0
  142.6067   72.6805  221.7921 H   0  0  0  0  0  0  0  0  0  0  0  0
  141.7096   72.5819  220.2390 H   0  0  0  0  0  0  0  0  0  0  0  0
  143.5058   72.6034  220.2390 H   0  0  0  0  0  0  0  0  0  0  0  0
  143.3753   74.9095  221.2915 H   0  0  0  0  0  0  0  0  0  0  0  0
  142.7633   74.8147  219.6149 H   0  0  0  0  0  0  0  0  0  0  0  0
  140.6291   78.8345  220.9900 H   0  0  0  0  0  0  0  0  0  0  0  0
  141.7332   80.5130  219.5992 H   0  0  0  0  0  0  0  0  0  0  0  0
  143.0604   79.8760  217.6053 H   0  0  0  0  0  0  0  0  0  0  0  0
  143.2401   77.4569  217.0382 H   0  0  0  0  0  0  0  0  0  0  0  0
  142.1265   75.7556  218.4335 H   0  0  0  0  0  0  0  0  0  0  0  0
  138.7856   75.3637  221.1467 H   0  0  0  0  0  0  0  0  0  0  0  0
  139.0131   77.4848  219.3047 H   0  0  0  0  0  0  0  0  0  0  0  0
  137.8713   76.0273  219.5685 H   0  0  0  0  0  0  0  0  0  0  0  0
  137.3297   78.7308  219.8003 H   0  0  0  0  0  0  0  0  0  0  0  0
  136.3236   77.2465  220.1816 H   0  0  0  0  0  0  0  0  0  0  0  0
  135.9811   79.4358  223.8866 H   0  0  0  0  0  0  0  0  0  0  0  0
  136.4049   82.0711  222.5609 H   0  0  0  0  0  0  0  0  0  0  0  0
  135.0042   81.4726  223.4532 H   0  0  0  0  0  0  0  0  0  0  0  0
  137.2046   83.0539  224.4779 H   0  0  0  0  0  0  0  0  0  0  0  0
  135.8839   82.3914  225.4338 H   0  0  0  0  0  0  0  0  0  0  0  0
  138.4945   81.5645  225.7010 H   0  0  0  0  0  0  0  0  0  0  0  0
  137.1603   80.4762  226.0435 H   0  0  0  0  0  0  0  0  0  0  0  0
  138.5116   81.2400  222.2655 H   0  0  0  0  0  0  0  0  0  0  0  0
  138.9934   82.1016  223.7770 H   0  0  0  0  0  0  0  0  0  0  0  0
  139.8007   78.8379  224.5065 H   0  0  0  0  0  0  0  0  0  0  0  0
  142.0758   77.8247  224.3746 H   0  0  0  0  0  0  0  0  0  0  0  0
  143.8153   78.9981  222.9494 H   0  0  0  0  0  0  0  0  0  0  0  0
  143.2113   81.0514  221.7707 H   0  0  0  0  0  0  0  0  0  0  0  0
  137.4706   77.4116  223.7433 H   0  0  0  0  0  0  0  0  0  0  0  0
  137.0747   76.1875  222.5308 H   0  0  0  0  0  0  0  0  0  0  0  0
  139.6724   77.8834  222.4959 H   0  0  0  0  0  0  0  0  0  0  0  0
  139.6018   76.2506  223.1778 H   0  0  0  0  0  0  0  0  0  0  0  0
  1  2  1  0
  2  3  1  0
  3  4  2  0
  3  5  1  0
  5  6  1  0
  6  7  2  0
  7  8  1  0
  8  9  2  0
  9 10  1  0
 10 11  2  0
  5 12  1  0
 12 13  1  0
 13 14  1  0
 14 15  1  0
 15 16  1  0
 16 17  2  0
 16 18  1  0
 18 19  1  0
 19 20  1  0
 20 21  1  0
 21 22  1  0
 22 23  1  0
 23 24  1  0
 24 25  2  0
 25 26  1  0
 26 27  2  0
 27 28  1  0
 28 29  2  0
 29 30  1  0
 15 31  1  0
 31 32  1  0
 11  6  1  0
 32 12  1  0
 22 18  1  0
 29 24  1  0
  1 33  1  0
  1 34  1  0
  1 35  1  0
  2 36  1  0
  2 37  1  0
  7 38  1  0
  8 39  1  0
  9 40  1  0
 10 41  1  0
 11 42  1  0
 12 43  1  0
 13 44  1  0
 13 45  1  0
 14 46  1  0
 14 47  1  0
 18 48  1  1
 19 49  1  0
 19 50  1  0
 20 51  1  0
 20 52  1  0
 21 53  1  0
 21 54  1  0
 23 55  1  0
 23 56  1  0
 25 57  1  0
 26 58  1  0
 27 59  1  0
 28 60  1  0
 31 61  1  0
 31 62  1  0
 32 63  1  0
 32 64  1  0
M  END
>  <smiles>  (34) 
CCC(=O)N(c1ccccc1)C1CCN(C(=O)[C@@H]2CCCN2Cc2ccccc2Cl)CC1

>  <score_type>  (34) 
oracle

>  <origin>  (34) 
autodockgpu

>  <m_score__min__energy>  (34) 
-9.4600000000000009

>  <m_primary>  (34) 
energy

>  <rmsd>  (34) 
8.212742233553413

>  <m_score__min__rmsd>  (34) 
8.212742233553413

>  <meeko>  (34) 
{"free_energy": -6.87, "intermolecular_energy": -8.96, "internal_energy": -3.49, "cluster_size": 22, "cluster_id": 2, "rank_in_cluster": 8}

>  <energy>  (34) 
-6.86

>  <cluster_rmsd>  (34) 
0.2

>  <cluster>  (34) 
2

$$$$

     RDKit          3D

 64 67  0  0  0  0  0  0  0  0999 V2000
  142.8670   73.0230  220.4800 C   0  0  0  0  0  0  0  0  0  0  0  0
  142.8450   74.5270  220.5370 C   0  0  0  0  0  0  0  0  0  0  0  0
  141.5290   74.9520  221.0770 C   0  0  0  0  0  0  0  0  0  0  0  0
  141.0460   74.1640  221.9620 O   0  0  0  0  0  0  0  0  0  0  0  0
  140.8490   76.1320  220.6540 N   0  0  0  0  0  0  0  0  0  0  0  0
  141.4170   77.1420  219.8390 C   0  0  0  0  0  0  0  0  0  0  0  0
  141.3160   78.5010  220.1750 C   0  0  0  0  0  0  0  0  0  0  0  0
  141.8750   79.4920  219.3970 C   0  0  0  0  0  0  0  0  0  0  0  0
  142.5660   79.2130  218.2440 C   0  0  0  0  0  0  0  0  0  0  0  0
  142.6820   77.8910  217.8870 C   0  0  0  0  0  0  0  0  0  0  0  0
  142.1150   76.8860  218.6770 C   0  0  0  0  0  0  0  0  0  0  0  0
  139.4580   76.2460  221.0940 C   0  0  0  0  0  0  0  0  0  0  0  0
  138.5090   76.6950  220.0450 C   0  0  0  0  0  0  0  0  0  0  0  0
  137.3470   77.5250  220.4380 C   0  0  0  0  0  0  0  0  0  0  0  0
  137.3490   77.9400  221.8510 N   0  0  0  0  0  0  0  0  0  0  0  0
  136.8540   79.2220  222.1190 C   0  0  0  0  0  0  0  0  0  0  0  0
  136.4510   79.8550  221.0560 O   0  0  0  0  0  0  0  0  0  0  0  0
  136.7230   79.9440  223.3700 C   0  0  2  0  0  0  0  0  0  0  0  0
  136.0750   81.2800  223.3740 C   0  0  0  0  0  0  0  0  0  0  0  0
  136.6370   81.9910  224.5960 C   0  0  0  0  0  0  0  0  0  0  0  0
  137.6430   81.0330  225.1520 C   0  0  0  0  0  0  0  0  0  0  0  0
  138.0290   80.2110  223.9810 N   0  0  0  0  0  0  0  0  0  0  0  0
  138.8830   81.0420  223.1560 C   0  0  0  0  0  0  0  0  0  0  0  0
  140.2840   80.5250  223.1580 C   0  0  0  0  0  0  0  0  0  0  0  0
  140.6720   79.3960  223.8470 C   0  0  0  0  0  0  0  0  0  0  0  0
  141.9820   78.9300  223.8410 C   0  0  0  0  0  0  0  0  0  0  0  0
  142.9170   79.6630  223.0950 C   0  0  0  0  0  0  0  0  0  0  0  0
  142.4990   80.7820  222.4200 C   0  0  0  0  0  0  0  0  0  0  0  0
  141.2040   81.2520  222.4190 C   0  0  0  0  0  0  0  0  0  0  0  0
  140.7470   82.6820  221.5380 Cl  0  0  0  0  0  0  0  0  0  0  0  0
  137.8580   76.9720  222.7650 C   0  0  0  0  0  0  0  0  0  0  0  0
  139.3610   76.8650  222.4580 C   0  0  0  0  0  0  0  0  0  0  0  0
  142.8729   72.6174  221.5025 H   0  0  0  0  0  0  0  0  0  0  0  0
  141.9740   72.6631  219.9479 H   0  0  0  0  0  0  0  0  0  0  0  0
  143.7701   72.6894  219.9479 H   0  0  0  0  0  0  0  0  0  0  0  0
  143.6507   74.8865  221.1940 H   0  0  0  0  0  0  0  0  0  0  0  0
  142.9968   74.9474  219.5319 H   0  0  0  0  0  0  0  0  0  0  0  0
  140.7731   78.7844  221.0888 H   0  0  0  0  0  0  0  0  0  0  0  0
  141.7638   80.5406  219.7102 H   0  0  0  0  0  0  0  0  0  0  0  0
  143.0078   80.0133  217.6322 H   0  0  0  0  0  0  0  0  0  0  0  0
  143.2265   77.6205  216.9703 H   0  0  0  0  0  0  0  0  0  0  0  0
  142.2313   75.8403  218.3562 H   0  0  0  0  0  0  0  0  0  0  0  0
  139.0651   75.2307  221.2514 H   0  0  0  0  0  0  0  0  0  0  0  0
  139.0885   77.2770  219.3133 H   0  0  0  0  0  0  0  0  0  0  0  0
  138.0560   75.7611  219.6807 H   0  0  0  0  0  0  0  0  0  0  0  0
  137.3431   78.4302  219.8131 H   0  0  0  0  0  0  0  0  0  0  0  0
  136.4518   76.9022  220.2938 H   0  0  0  0  0  0  0  0  0  0  0  0
  136.0671   79.2406  223.9038 H   0  0  0  0  0  0  0  0  0  0  0  0
  136.3252   81.8330  222.4566 H   0  0  0  0  0  0  0  0  0  0  0  0
  134.9781   81.2053  223.4095 H   0  0  0  0  0  0  0  0  0  0  0  0
  137.1178   82.9378  224.3090 H   0  0  0  0  0  0  0  0  0  0  0  0
  135.8566   82.2513  225.3263 H   0  0  0  0  0  0  0  0  0  0  0  0
  138.5129   81.5696  225.5586 H   0  0  0  0  0  0  0  0  0  0  0  0
  137.2455   80.4316  225.9829 H   0  0  0  0  0  0  0  0  0  0  0  0
  138.4996   81.0421  222.1250 H   0  0  0  0  0  0  0  0  0  0  0  0
  138.8825   82.0637  223.5635 H   0  0  0  0  0  0  0  0  0  0  0  0
  139.9163   78.8425  224.4237 H   0  0  0  0  0  0  0  0  0  0  0  0
  142.2725   78.0263  224.3968 H   0  0  0  0  0  0  0  0  0  0  0  0
  143.9693   79.3455  223.0519 H   0  0  0  0  0  0  0  0  0  0  0  0
  143.2482   81.3415  221.8407 H   0  0  0  0  0  0  0  0  0  0  0  0
  137.7004   77.3028  223.8022 H   0  0  0  0  0  0  0  0  0  0  0  0
  137.3500   76.0024  222.6564 H   0  0  0  0  0  0  0  0  0  0  0  0
  139.8240   77.8628  222.4594 H   0  0  0  0  0  0  0  0  0  0  0  0
  139.8862   76.2625  223.2137 H   0  0  0  0  0  0  0  0  0  0  0  0
  1  2  1  0
  2  3  1  0
  3  4  2  0
  3  5  1  0
  5  6  1  0
  6  7  2  0
  7  8  1  0
  8  9  2  0
  9 10  1  0
 10 11  2  0
  5 12  1  0
 12 13  1  0
 13 14  1  0
 14 15  1  0
 15 16  1  0
 16 17  2  0
 16 18  1  0
 18 19  1  0
 19 20  1  0
 20 21  1  0
 21 22  1  0
 22 23  1  0
 23 24  1  0
 24 25  2  0
 25 26  1  0
 26 27  2  0
 27 28  1  0
 28 29  2  0
 29 30  1  0
 15 31  1  0
 31 32  1  0
 11  6  1  0
 32 12  1  0
 22 18  1  0
 29 24  1  0
  1 33  1  0
  1 34  1  0
  1 35  1  0
  2 36  1  0
  2 37  1  0
  7 38  1  0
  8 39  1  0
  9 40  1  0
 10 41  1  0
 11 42  1  0
 12 43  1  0
 13 44  1  0
 13 45  1  0
 14 46  1  0
 14 47  1  0
 18 48  1  1
 19 49  1  0
 19 50  1  0
 20 51  1  0
 20 52  1  0
 21 53  1  0
 21 54  1  0
 23 55  1  0
 23 56  1  0
 25 57  1  0
 26 58  1  0
 27 59  1  0
 28 60  1  0
 31 61  1  0
 31 62  1  0
 32 63  1  0
 32 64  1  0
M  END
>  <smiles>  (35) 
CCC(=O)N(c1ccccc1)C1CCN(C(=O)[C@@H]2CCCN2Cc2ccccc2Cl)CC1

>  <score_type>  (35) 
oracle

>  <origin>  (35) 
autodockgpu

>  <m_score__min__energy>  (35) 
-9.4600000000000009

>  <m_primary>  (35) 
energy

>  <rmsd>  (35) 
8.243172271577894

>  <m_score__min__rmsd>  (35) 
8.243172271577894

>  <meeko>  (35) 
{"free_energy": -6.9, "intermolecular_energy": -8.99, "internal_energy": -3.47, "cluster_size": 22, "cluster_id": 2, "rank_in_cluster": 3}

>  <energy>  (35) 
-6.86

>  <cluster_rmsd>  (35) 
0.24

>  <cluster>  (35) 
2

$$$$

     RDKit          3D

 64 67  0  0  0  0  0  0  0  0999 V2000
  142.8610   73.0080  220.4900 C   0  0  0  0  0  0  0  0  0  0  0  0
  142.8510   74.5130  220.4900 C   0  0  0  0  0  0  0  0  0  0  0  0
  141.5570   74.9700  221.0550 C   0  0  0  0  0  0  0  0  0  0  0  0
  141.0800   74.2030  221.9620 O   0  0  0  0  0  0  0  0  0  0  0  0
  140.8890   76.1560  220.6330 N   0  0  0  0  0  0  0  0  0  0  0  0
  141.4720   77.1680  219.8290 C   0  0  0  0  0  0  0  0  0  0  0  0
  142.1500   76.8620  218.6390 C   0  0  0  0  0  0  0  0  0  0  0  0
  142.7100   77.8390  217.8430 C   0  0  0  0  0  0  0  0  0  0  0  0
  142.6420   79.1710  218.1650 C   0  0  0  0  0  0  0  0  0  0  0  0
  141.9850   79.5030  219.3260 C   0  0  0  0  0  0  0  0  0  0  0  0
  141.4170   78.5120  220.1330 C   0  0  0  0  0  0  0  0  0  0  0  0
  139.4950   76.2780  221.0600 C   0  0  0  0  0  0  0  0  0  0  0  0
  138.5640   76.7610  220.0110 C   0  0  0  0  0  0  0  0  0  0  0  0
  137.4070   77.5970  220.4100 C   0  0  0  0  0  0  0  0  0  0  0  0
  137.3970   77.9800  221.8310 N   0  0  0  0  0  0  0  0  0  0  0  0
  136.9150   79.2620  222.1220 C   0  0  0  0  0  0  0  0  0  0  0  0
  136.5310   79.9240  221.0700 O   0  0  0  0  0  0  0  0  0  0  0  0
  136.7780   79.9570  223.3880 C   0  0  2  0  0  0  0  0  0  0  0  0
  136.1300   81.2930  223.4180 C   0  0  0  0  0  0  0  0  0  0  0  0
  136.6860   81.9780  224.6570 C   0  0  0  0  0  0  0  0  0  0  0  0
  137.6900   81.0080  225.1970 C   0  0  0  0  0  0  0  0  0  0  0  0
  138.0820   80.2110  224.0110 N   0  0  0  0  0  0  0  0  0  0  0  0
  138.9400   81.0590  223.2070 C   0  0  0  0  0  0  0  0  0  0  0  0
  140.3330   80.5220  223.1760 C   0  0  0  0  0  0  0  0  0  0  0  0
  140.7190   79.3840  223.8500 C   0  0  0  0  0  0  0  0  0  0  0  0
  142.0220   78.8990  223.8130 C   0  0  0  0  0  0  0  0  0  0  0  0
  142.9510   79.6230  223.0500 C   0  0  0  0  0  0  0  0  0  0  0  0
  142.5350   80.7520  222.3910 C   0  0  0  0  0  0  0  0  0  0  0  0
  141.2460   81.2400  222.4210 C   0  0  0  0  0  0  0  0  0  0  0  0
  140.7900   82.6820  221.5570 Cl  0  0  0  0  0  0  0  0  0  0  0  0
  137.8840   76.9860  222.7290 C   0  0  0  0  0  0  0  0  0  0  0  0
  139.3900   76.8680  222.4360 C   0  0  0  0  0  0  0  0  0  0  0  0
  142.8634   72.6413  221.5271 H   0  0  0  0  0  0  0  0  0  0  0  0
  141.9653   72.6354  219.9715 H   0  0  0  0  0  0  0  0  0  0  0  0
  143.7616   72.6473  219.9715 H   0  0  0  0  0  0  0  0  0  0  0  0
  143.6801   74.8905  221.1064 H   0  0  0  0  0  0  0  0  0  0  0  0
  142.9725   74.8930  219.4649 H   0  0  0  0  0  0  0  0  0  0  0  0
  142.2375   75.8095  218.3314 H   0  0  0  0  0  0  0  0  0  0  0  0
  143.2282   77.5406  216.9197 H   0  0  0  0  0  0  0  0  0  0  0  0
  143.0939   79.9403  217.5216 H   0  0  0  0  0  0  0  0  0  0  0  0
  141.9052   80.5590  219.6234 H   0  0  0  0  0  0  0  0  0  0  0  0
  140.9015   78.8195  221.0548 H   0  0  0  0  0  0  0  0  0  0  0  0
  139.0878   75.2646  221.1911 H   0  0  0  0  0  0  0  0  0  0  0  0
  139.1587   77.3517  219.2987 H   0  0  0  0  0  0  0  0  0  0  0  0
  138.1041   75.8410  219.6209 H   0  0  0  0  0  0  0  0  0  0  0  0
  137.4216   78.5161  219.8057 H   0  0  0  0  0  0  0  0  0  0  0  0
  136.5062   76.9885  220.2418 H   0  0  0  0  0  0  0  0  0  0  0  0
  136.1195   79.2422  223.9033 H   0  0  0  0  0  0  0  0  0  0  0  0
  136.3843   81.8655  222.5138 H   0  0  0  0  0  0  0  0  0  0  0  0
  135.0330   81.2174  223.4473 H   0  0  0  0  0  0  0  0  0  0  0  0
  137.1679   82.9307  224.3923 H   0  0  0  0  0  0  0  0  0  0  0  0
  135.9024   82.2229  225.3891 H   0  0  0  0  0  0  0  0  0  0  0  0
  138.5578   81.5360  225.6190 H   0  0  0  0  0  0  0  0  0  0  0  0
  137.2884   80.3889  226.0128 H   0  0  0  0  0  0  0  0  0  0  0  0
  138.5464   81.1016  222.1807 H   0  0  0  0  0  0  0  0  0  0  0  0
  138.9586   82.0655  223.6505 H   0  0  0  0  0  0  0  0  0  0  0  0
  139.9679   78.8382  224.4399 H   0  0  0  0  0  0  0  0  0  0  0  0
  142.3115   77.9882  224.3577 H   0  0  0  0  0  0  0  0  0  0  0  0
  143.9972   79.2902  222.9814 H   0  0  0  0  0  0  0  0  0  0  0  0
  143.2795   81.3047  221.7992 H   0  0  0  0  0  0  0  0  0  0  0  0
  137.7185   77.2957  223.7714 H   0  0  0  0  0  0  0  0  0  0  0  0
  137.3658   76.0252  222.5935 H   0  0  0  0  0  0  0  0  0  0  0  0
  139.8644   77.8600  222.4644 H   0  0  0  0  0  0  0  0  0  0  0  0
  139.8998   76.2430  223.1840 H   0  0  0  0  0  0  0  0  0  0  0  0
  1  2  1  0
  2  3  1  0
  3  4  2  0
  3  5  1  0
  5  6  1  0
  6  7  2  0
  7  8  1  0
  8  9  2  0
  9 10  1  0
 10 11  2  0
  5 12  1  0
 12 13  1  0
 13 14  1  0
 14 15  1  0
 15 16  1  0
 16 17  2  0
 16 18  1  0
 18 19  1  0
 19 20  1  0
 20 21  1  0
 21 22  1  0
 22 23  1  0
 23 24  1  0
 24 25  2  0
 25 26  1  0
 26 27  2  0
 27 28  1  0
 28 29  2  0
 29 30  1  0
 15 31  1  0
 31 32  1  0
 11  6  1  0
 32 12  1  0
 22 18  1  0
 29 24  1  0
  1 33  1  0
  1 34  1  0
  1 35  1  0
  2 36  1  0
  2 37  1  0
  7 38  1  0
  8 39  1  0
  9 40  1  0
 10 41  1  0
 11 42  1  0
 12 43  1  0
 13 44  1  0
 13 45  1  0
 14 46  1  0
 14 47  1  0
 18 48  1  1
 19 49  1  0
 19 50  1  0
 20 51  1  0
 20 52  1  0
 21 53  1  0
 21 54  1  0
 23 55  1  0
 23 56  1  0
 25 57  1  0
 26 58  1  0
 27 59  1  0
 28 60  1  0
 31 61  1  0
 31 62  1  0
 32 63  1  0
 32 64  1  0
M  END
>  <smiles>  (36) 
CCC(=O)N(c1ccccc1)C1CCN(C(=O)[C@@H]2CCCN2Cc2ccccc2Cl)CC1

>  <score_type>  (36) 
oracle

>  <origin>  (36) 
autodockgpu

>  <m_score__min__energy>  (36) 
-9.4600000000000009

>  <m_primary>  (36) 
energy

>  <rmsd>  (36) 
8.228815386731746

>  <m_score__min__rmsd>  (36) 
8.228815386731746

>  <meeko>  (36) 
{"free_energy": -6.91, "intermolecular_energy": -9.0, "internal_energy": -3.46, "cluster_size": 22, "cluster_id": 2, "rank_in_cluster": 1}

>  <energy>  (36) 
-6.86

>  <cluster_rmsd>  (36) 
0.26

>  <cluster>  (36) 
2

$$$$

     RDKit          3D

 64 67  0  0  0  0  0  0  0  0999 V2000
  142.8640   73.0840  220.4720 C   0  0  0  0  0  0  0  0  0  0  0  0
  142.8680   74.5870  220.5550 C   0  0  0  0  0  0  0  0  0  0  0  0
  141.5500   75.0280  221.0760 C   0  0  0  0  0  0  0  0  0  0  0  0
  141.0530   74.2550  221.9660 O   0  0  0  0  0  0  0  0  0  0  0  0
  140.8820   76.2060  220.6300 N   0  0  0  0  0  0  0  0  0  0  0  0
  141.4670   77.2040  219.8100 C   0  0  0  0  0  0  0  0  0  0  0  0
  142.1050   76.8820  218.6020 C   0  0  0  0  0  0  0  0  0  0  0  0
  142.6660   77.8450  217.7920 C   0  0  0  0  0  0  0  0  0  0  0  0
  142.6370   79.1790  218.1140 C   0  0  0  0  0  0  0  0  0  0  0  0
  142.0190   79.5270  219.2910 C   0  0  0  0  0  0  0  0  0  0  0  0
  141.4490   78.5490  220.1140 C   0  0  0  0  0  0  0  0  0  0  0  0
  139.4860   76.3340  221.0510 C   0  0  0  0  0  0  0  0  0  0  0  0
  138.5670   76.8470  220.0060 C   0  0  0  0  0  0  0  0  0  0  0  0
  137.4160   77.6860  220.4130 C   0  0  0  0  0  0  0  0  0  0  0  0
  137.4010   78.0410  221.8420 N   0  0  0  0  0  0  0  0  0  0  0  0
  136.9300   79.3220  222.1550 C   0  0  0  0  0  0  0  0  0  0  0  0
  136.5600   80.0080  221.1130 O   0  0  0  0  0  0  0  0  0  0  0  0
  136.7920   79.9940  223.4330 C   0  0  2  0  0  0  0  0  0  0  0  0
  136.1520   81.3330  223.4860 C   0  0  0  0  0  0  0  0  0  0  0  0
  136.7070   81.9900  224.7400 C   0  0  0  0  0  0  0  0  0  0  0  0
  137.7030   81.0040  225.2650 C   0  0  0  0  0  0  0  0  0  0  0  0
  138.0940   80.2280  224.0660 N   0  0  0  0  0  0  0  0  0  0  0  0
  138.9610   81.0860  223.2830 C   0  0  0  0  0  0  0  0  0  0  0  0
  140.3440   80.5260  223.2220 C   0  0  0  0  0  0  0  0  0  0  0  0
  140.7290   79.3890  223.8990 C   0  0  0  0  0  0  0  0  0  0  0  0
  142.0220   78.8820  223.8350 C   0  0  0  0  0  0  0  0  0  0  0  0
  142.9430   79.5810  223.0400 C   0  0  0  0  0  0  0  0  0  0  0  0
  142.5280   80.7090  222.3790 C   0  0  0  0  0  0  0  0  0  0  0  0
  141.2490   81.2190  222.4360 C   0  0  0  0  0  0  0  0  0  0  0  0
  140.7950   82.6580  221.5670 Cl  0  0  0  0  0  0  0  0  0  0  0  0
  137.8720   77.0250  222.7230 C   0  0  0  0  0  0  0  0  0  0  0  0
  139.3780   76.8970  222.4370 C   0  0  0  0  0  0  0  0  0  0  0  0
  142.8629   72.6607  221.4873 H   0  0  0  0  0  0  0  0  0  0  0  0
  141.9650   72.7489  219.9340 H   0  0  0  0  0  0  0  0  0  0  0  0
  143.7612   72.7441  219.9340 H   0  0  0  0  0  0  0  0  0  0  0  0
  143.6668   74.9200  221.2340 H   0  0  0  0  0  0  0  0  0  0  0  0
  143.0471   75.0212  219.5603 H   0  0  0  0  0  0  0  0  0  0  0  0
  142.1588   75.8279  218.2923 H   0  0  0  0  0  0  0  0  0  0  0  0
  143.1534   77.5345  216.8561 H   0  0  0  0  0  0  0  0  0  0  0  0
  143.0892   79.9372  217.4578 H   0  0  0  0  0  0  0  0  0  0  0  0
  141.9718   80.5847  219.5893 H   0  0  0  0  0  0  0  0  0  0  0  0
  140.9635   78.8684  221.0479 H   0  0  0  0  0  0  0  0  0  0  0  0
  139.0677   75.3225  221.1597 H   0  0  0  0  0  0  0  0  0  0  0  0
  139.1724   77.4457  219.3096 H   0  0  0  0  0  0  0  0  0  0  0  0
  138.1006   75.9394  219.5951 H   0  0  0  0  0  0  0  0  0  0  0  0
  137.4435   78.6165  219.8270 H   0  0  0  0  0  0  0  0  0  0  0  0
  136.5102   77.0904  220.2266 H   0  0  0  0  0  0  0  0  0  0  0  0
  136.1269   79.2735  223.9316 H   0  0  0  0  0  0  0  0  0  0  0  0
  136.4136   81.9213  222.5941 H   0  0  0  0  0  0  0  0  0  0  0  0
  135.0544   81.2638  223.5092 H   0  0  0  0  0  0  0  0  0  0  0  0
  137.1956   82.9448  224.4959 H   0  0  0  0  0  0  0  0  0  0  0  0
  135.9218   82.2250  225.4737 H   0  0  0  0  0  0  0  0  0  0  0  0
  138.5725   81.5185  225.7000 H   0  0  0  0  0  0  0  0  0  0  0  0
  137.2950   80.3720  226.0675 H   0  0  0  0  0  0  0  0  0  0  0  0
  138.5600   81.1693  222.2621 H   0  0  0  0  0  0  0  0  0  0  0  0
  139.0017   82.0766  223.7596 H   0  0  0  0  0  0  0  0  0  0  0  0
  139.9844   78.8622  224.5138 H   0  0  0  0  0  0  0  0  0  0  0  0
  142.3103   77.9731  224.3834 H   0  0  0  0  0  0  0  0  0  0  0  0
  143.9814   79.2299  222.9483 H   0  0  0  0  0  0  0  0  0  0  0  0
  143.2659   81.2425  221.7618 H   0  0  0  0  0  0  0  0  0  0  0  0
  137.7032   77.3160  223.7703 H   0  0  0  0  0  0  0  0  0  0  0  0
  137.3448   76.0725  222.5656 H   0  0  0  0  0  0  0  0  0  0  0  0
  139.8625   77.8832  222.4884 H   0  0  0  0  0  0  0  0  0  0  0  0
  139.8762   76.2516  223.1754 H   0  0  0  0  0  0  0  0  0  0  0  0
  1  2  1  0
  2  3  1  0
  3  4  2  0
  3  5  1  0
  5  6  1  0
  6  7  2  0
  7  8  1  0
  8  9  2  0
  9 10  1  0
 10 11  2  0
  5 12  1  0
 12 13  1  0
 13 14  1  0
 14 15  1  0
 15 16  1  0
 16 17  2  0
 16 18  1  0
 18 19  1  0
 19 20  1  0
 20 21  1  0
 21 22  1  0
 22 23  1  0
 23 24  1  0
 24 25  2  0
 25 26  1  0
 26 27  2  0
 27 28  1  0
 28 29  2  0
 29 30  1  0
 15 31  1  0
 31 32  1  0
 11  6  1  0
 32 12  1  0
 22 18  1  0
 29 24  1  0
  1 33  1  0
  1 34  1  0
  1 35  1  0
  2 36  1  0
  2 37  1  0
  7 38  1  0
  8 39  1  0
  9 40  1  0
 10 41  1  0
 11 42  1  0
 12 43  1  0
 13 44  1  0
 13 45  1  0
 14 46  1  0
 14 47  1  0
 18 48  1  1
 19 49  1  0
 19 50  1  0
 20 51  1  0
 20 52  1  0
 21 53  1  0
 21 54  1  0
 23 55  1  0
 23 56  1  0
 25 57  1  0
 26 58  1  0
 27 59  1  0
 28 60  1  0
 31 61  1  0
 31 62  1  0
 32 63  1  0
 32 64  1  0
M  END
>  <smiles>  (37) 
CCC(=O)N(c1ccccc1)C1CCN(C(=O)[C@@H]2CCCN2Cc2ccccc2Cl)CC1

>  <score_type>  (37) 
oracle

>  <origin>  (37) 
autodockgpu

>  <m_score__min__energy>  (37) 
-9.4600000000000009

>  <m_primary>  (37) 
energy

>  <rmsd>  (37) 
8.229356167545042

>  <m_score__min__rmsd>  (37) 
8.229356167545042

>  <meeko>  (37) 
{"free_energy": -6.87, "intermolecular_energy": -8.96, "internal_energy": -3.49, "cluster_size": 22, "cluster_id": 2, "rank_in_cluster": 10}

>  <energy>  (37) 
-6.85

>  <cluster_rmsd>  (37) 
0.26

>  <cluster>  (37) 
2

$$$$

     RDKit          3D

 64 67  0  0  0  0  0  0  0  0999 V2000
  138.8240   66.7000  222.4470 C   0  0  0  0  0  0  0  0  0  0  0  0
  138.2680   68.0590  222.7800 C   0  0  0  0  0  0  0  0  0  0  0  0
  138.9620   68.5610  223.9920 C   0  0  0  0  0  0  0  0  0  0  0  0
  139.1720   67.6690  224.8840 O   0  0  0  0  0  0  0  0  0  0  0  0
  139.3630   69.9190  224.1630 N   0  0  0  0  0  0  0  0  0  0  0  0
  139.9070   70.4550  225.3570 C   0  0  0  0  0  0  0  0  0  0  0  0
  139.5700   69.9360  226.6160 C   0  0  0  0  0  0  0  0  0  0  0  0
  140.1020   70.4410  227.7830 C   0  0  0  0  0  0  0  0  0  0  0  0
  140.9950   71.4830  227.7880 C   0  0  0  0  0  0  0  0  0  0  0  0
  141.3450   72.0140  226.5700 C   0  0  0  0  0  0  0  0  0  0  0  0
  140.8050   71.5010  225.3850 C   0  0  0  0  0  0  0  0  0  0  0  0
  139.2080   70.7730  222.9840 C   0  0  0  0  0  0  0  0  0  0  0  0
  140.4800   71.1660  222.3310 C   0  0  0  0  0  0  0  0  0  0  0  0
  140.5720   72.4950  221.6820 C   0  0  0  0  0  0  0  0  0  0  0  0
  139.3950   73.3540  221.8930 N   0  0  0  0  0  0  0  0  0  0  0  0
  139.6490   74.7230  222.0430 C   0  0  0  0  0  0  0  0  0  0  0  0
  140.9100   75.0300  221.9590 O   0  0  0  0  0  0  0  0  0  0  0  0
  138.7440   75.8330  222.2730 C   0  0  2  0  0  0  0  0  0  0  0  0
  137.7820   76.2200  221.2100 C   0  0  0  0  0  0  0  0  0  0  0  0
  137.4710   77.6860  221.4680 C   0  0  0  0  0  0  0  0  0  0  0  0
  138.3580   78.0560  222.6150 C   0  0  0  0  0  0  0  0  0  0  0  0
  139.4710   77.0820  222.5280 N   0  0  0  0  0  0  0  0  0  0  0  0
  140.2970   77.4960  221.4110 C   0  0  0  0  0  0  0  0  0  0  0  0
  140.5740   78.9620  221.4750 C   0  0  0  0  0  0  0  0  0  0  0  0
  140.1550   79.8530  220.5100 C   0  0  0  0  0  0  0  0  0  0  0  0
  140.4250   81.2150  220.5820 C   0  0  0  0  0  0  0  0  0  0  0  0
  141.1530   81.6630  221.6950 C   0  0  0  0  0  0  0  0  0  0  0  0
  141.5550   80.7510  222.6380 C   0  0  0  0  0  0  0  0  0  0  0  0
  141.2930   79.4000  222.5750 C   0  0  0  0  0  0  0  0  0  0  0  0
  141.8360   78.3010  223.8120 Cl  0  0  0  0  0  0  0  0  0  0  0  0
  138.1440   72.6720  221.9160 C   0  0  0  0  0  0  0  0  0  0  0  0
  138.1600   71.8250  223.2000 C   0  0  0  0  0  0  0  0  0  0  0  0
  139.0463   66.1568  223.3773 H   0  0  0  0  0  0  0  0  0  0  0  0
  138.0847   66.1351  221.8602 H   0  0  0  0  0  0  0  0  0  0  0  0
  139.7472   66.8153  221.8602 H   0  0  0  0  0  0  0  0  0  0  0  0
  138.4409   68.7478  221.9400 H   0  0  0  0  0  0  0  0  0  0  0  0
  137.1854   67.9916  222.9631 H   0  0  0  0  0  0  0  0  0  0  0  0
  138.8584   69.0992  226.6737 H   0  0  0  0  0  0  0  0  0  0  0  0
  139.8008   69.9940  228.7419 H   0  0  0  0  0  0  0  0  0  0  0  0
  141.4126   71.8762  228.7266 H   0  0  0  0  0  0  0  0  0  0  0  0
  142.0572   72.8512  226.5258 H   0  0  0  0  0  0  0  0  0  0  0  0
  141.1116   71.9538  224.4306 H   0  0  0  0  0  0  0  0  0  0  0  0
  138.7850   70.1626  222.1725 H   0  0  0  0  0  0  0  0  0  0  0  0
  141.2636   71.1286  223.1021 H   0  0  0  0  0  0  0  0  0  0  0  0
  140.5790   70.4566  221.4962 H   0  0  0  0  0  0  0  0  0  0  0  0
  141.4544   73.0145  222.0839 H   0  0  0  0  0  0  0  0  0  0  0  0
  140.6399   72.3133  220.5992 H   0  0  0  0  0  0  0  0  0  0  0  0
  138.1758   75.4155  223.1173 H   0  0  0  0  0  0  0  0  0  0  0  0
  138.2337   76.0908  220.2154 H   0  0  0  0  0  0  0  0  0  0  0  0
  136.8752   75.5977  221.2299 H   0  0  0  0  0  0  0  0  0  0  0  0
  137.7044   78.2955  220.5826 H   0  0  0  0  0  0  0  0  0  0  0  0
  136.4068   77.8575  221.6874 H   0  0  0  0  0  0  0  0  0  0  0  0
  138.7290   79.0859  222.5074 H   0  0  0  0  0  0  0  0  0  0  0  0
  137.8378   78.0228  223.5836 H   0  0  0  0  0  0  0  0  0  0  0  0
  141.2495   76.9467  221.4430 H   0  0  0  0  0  0  0  0  0  0  0  0
  139.7620   77.2774  220.4750 H   0  0  0  0  0  0  0  0  0  0  0  0
  139.5851   79.4716  219.6499 H   0  0  0  0  0  0  0  0  0  0  0  0
  140.0832   81.9105  219.8013 H   0  0  0  0  0  0  0  0  0  0  0  0
  141.3977   82.7293  221.8097 H   0  0  0  0  0  0  0  0  0  0  0  0
  142.1246   81.1235  223.5022 H   0  0  0  0  0  0  0  0  0  0  0  0
  137.3137   73.3930  221.9416 H   0  0  0  0  0  0  0  0  0  0  0  0
  138.0019   72.0507  221.0195 H   0  0  0  0  0  0  0  0  0  0  0  0
  138.4180   72.4499  224.0677 H   0  0  0  0  0  0  0  0  0  0  0  0
  137.1751   71.3791  223.4027 H   0  0  0  0  0  0  0  0  0  0  0  0
  1  2  1  0
  2  3  1  0
  3  4  2  0
  3  5  1  0
  5  6  1  0
  6  7  2  0
  7  8  1  0
  8  9  2  0
  9 10  1  0
 10 11  2  0
  5 12  1  0
 12 13  1  0
 13 14  1  0
 14 15  1  0
 15 16  1  0
 16 17  2  0
 16 18  1  0
 18 19  1  0
 19 20  1  0
 20 21  1  0
 21 22  1  0
 22 23  1  0
 23 24  1  0
 24 25  2  0
 25 26  1  0
 26 27  2  0
 27 28  1  0
 28 29  2  0
 29 30  1  0
 15 31  1  0
 31 32  1  0
 11  6  1  0
 32 12  1  0
 22 18  1  0
 29 24  1  0
  1 33  1  0
  1 34  1  0
  1 35  1  0
  2 36  1  0
  2 37  1  0
  7 38  1  0
  8 39  1  0
  9 40  1  0
 10 41  1  0
 11 42  1  0
 12 43  1  0
 13 44  1  0
 13 45  1  0
 14 46  1  0
 14 47  1  0
 18 48  1  1
 19 49  1  0
 19 50  1  0
 20 51  1  0
 20 52  1  0
 21 53  1  0
 21 54  1  0
 23 55  1  0
 23 56  1  0
 25 57  1  0
 26 58  1  0
 27 59  1  0
 28 60  1  0
 31 61  1  0
 31 62  1  0
 32 63  1  0
 32 64  1  0
M  END
>  <smiles>  (38) 
CCC(=O)N(c1ccccc1)C1CCN(C(=O)[C@@H]2CCCN2Cc2ccccc2Cl)CC1

>  <score_type>  (38) 
oracle

>  <origin>  (38) 
autodockgpu

>  <m_score__min__energy>  (38) 
-9.4600000000000009

>  <m_primary>  (38) 
energy

>  <rmsd>  (38) 
8.486748613570935

>  <m_score__min__rmsd>  (38) 
8.486748613570935

>  <meeko>  (38) 
{"free_energy": -8.49, "intermolecular_energy": -10.57, "internal_energy": -1.7, "cluster_size": 20, "cluster_id": 1, "rank_in_cluster": 16}

>  <energy>  (38) 
-6.82

>  <cluster_rmsd>  (38) 
0.25

>  <cluster>  (38) 
2

$$$$

     RDKit          3D

 64 67  0  0  0  0  0  0  0  0999 V2000
  142.5730   79.5770  218.2160 C   0  0  0  0  0  0  0  0  0  0  0  0
  142.4490   78.1030  218.4870 C   0  0  0  0  0  0  0  0  0  0  0  0
  141.7260   77.9250  219.7710 C   0  0  0  0  0  0  0  0  0  0  0  0
  141.4590   79.0190  220.3790 O   0  0  0  0  0  0  0  0  0  0  0  0
  141.3580   76.6520  220.2970 N   0  0  0  0  0  0  0  0  0  0  0  0
  142.2220   75.5310  220.3760 C   0  0  0  0  0  0  0  0  0  0  0  0
  143.5890   75.6340  220.0760 C   0  0  0  0  0  0  0  0  0  0  0  0
  144.4410   74.5540  220.1600 C   0  0  0  0  0  0  0  0  0  0  0  0
  144.0060   73.3090  220.5420 C   0  0  0  0  0  0  0  0  0  0  0  0
  142.6720   73.1750  220.8420 C   0  0  0  0  0  0  0  0  0  0  0  0
  141.8080   74.2720  220.7570 C   0  0  0  0  0  0  0  0  0  0  0  0
  139.9890   76.5540  220.8070 C   0  0  0  0  0  0  0  0  0  0  0  0
  138.9330   76.8660  219.8120 C   0  0  0  0  0  0  0  0  0  0  0  0
  137.6820   77.5110  220.2740 C   0  0  0  0  0  0  0  0  0  0  0  0
  137.6930   77.9090  221.6920 N   0  0  0  0  0  0  0  0  0  0  0  0
  137.0280   79.1010  222.0040 C   0  0  0  0  0  0  0  0  0  0  0  0
  136.4830   79.6760  220.9720 O   0  0  0  0  0  0  0  0  0  0  0  0
  136.8550   79.7840  223.2710 C   0  0  2  0  0  0  0  0  0  0  0  0
  136.1380   81.0850  223.3040 C   0  0  0  0  0  0  0  0  0  0  0  0
  136.6580   81.7940  224.5460 C   0  0  0  0  0  0  0  0  0  0  0  0
  137.7100   80.8760  225.0830 C   0  0  0  0  0  0  0  0  0  0  0  0
  138.1430   80.1040  223.8960 N   0  0  0  0  0  0  0  0  0  0  0  0
  138.9560   80.9980  223.0950 C   0  0  0  0  0  0  0  0  0  0  0  0
  140.3860   80.5660  223.1110 C   0  0  0  0  0  0  0  0  0  0  0  0
  140.8490   79.5140  223.8690 C   0  0  0  0  0  0  0  0  0  0  0  0
  142.1850   79.1270  223.8760 C   0  0  0  0  0  0  0  0  0  0  0  0
  143.0650   79.8600  223.0650 C   0  0  0  0  0  0  0  0  0  0  0  0
  142.5720   80.9020  222.3210 C   0  0  0  0  0  0  0  0  0  0  0  0
  141.2510   81.2920  222.3080 C   0  0  0  0  0  0  0  0  0  0  0  0
  140.6980   82.6280  221.3370 Cl  0  0  0  0  0  0  0  0  0  0  0  0
  138.3850   77.0200  222.5650 C   0  0  0  0  0  0  0  0  0  0  0  0
  139.8700   77.1400  222.1830 C   0  0  0  0  0  0  0  0  0  0  0  0
  142.6189   80.1226  219.1700 H   0  0  0  0  0  0  0  0  0  0  0  0
  143.4904   79.7680  217.6399 H   0  0  0  0  0  0  0  0  0  0  0  0
  141.7004   79.9186  217.6399 H   0  0  0  0  0  0  0  0  0  0  0  0
  141.8868   77.6211  217.6735 H   0  0  0  0  0  0  0  0  0  0  0  0
  143.4465   77.6431  218.5465 H   0  0  0  0  0  0  0  0  0  0  0  0
  143.9935   76.6081  219.7638 H   0  0  0  0  0  0  0  0  0  0  0  0
  145.5037   74.6939  219.9131 H   0  0  0  0  0  0  0  0  0  0  0  0
  144.6964   72.4550  220.6052 H   0  0  0  0  0  0  0  0  0  0  0  0
  142.2794   72.1954  221.1521 H   0  0  0  0  0  0  0  0  0  0  0  0
  140.7470   74.1231  221.0062 H   0  0  0  0  0  0  0  0  0  0  0  0
  139.7595   75.4905  220.9689 H   0  0  0  0  0  0  0  0  0  0  0  0
  139.3828   77.5339  219.0626 H   0  0  0  0  0  0  0  0  0  0  0  0
  138.6056   75.8785  219.4548 H   0  0  0  0  0  0  0  0  0  0  0  0
  137.5133   78.4113  219.6648 H   0  0  0  0  0  0  0  0  0  0  0  0
  136.8827   76.7635  220.1629 H   0  0  0  0  0  0  0  0  0  0  0  0
  136.2349   79.0340  223.7838 H   0  0  0  0  0  0  0  0  0  0  0  0
  136.3627   81.6725  222.4016 H   0  0  0  0  0  0  0  0  0  0  0  0
  135.0463   80.9529  223.3320 H   0  0  0  0  0  0  0  0  0  0  0  0
  137.0902   82.7712  224.2846 H   0  0  0  0  0  0  0  0  0  0  0  0
  135.8626   81.9956  225.2786 H   0  0  0  0  0  0  0  0  0  0  0  0
  138.5493   81.4469  225.5069 H   0  0  0  0  0  0  0  0  0  0  0  0
  137.3404   80.2345  225.8966 H   0  0  0  0  0  0  0  0  0  0  0  0
  138.5877   80.9902  222.0585 H   0  0  0  0  0  0  0  0  0  0  0  0
  138.8875   82.0119  223.5160 H   0  0  0  0  0  0  0  0  0  0  0  0
  140.1344   78.9578  224.4935 H   0  0  0  0  0  0  0  0  0  0  0  0
  142.5360   78.2843  224.4897 H   0  0  0  0  0  0  0  0  0  0  0  0
  144.1339   79.6030  223.0264 H   0  0  0  0  0  0  0  0  0  0  0  0
  143.2791   81.4636  221.6928 H   0  0  0  0  0  0  0  0  0  0  0  0
  138.2329   77.3154  223.6136 H   0  0  0  0  0  0  0  0  0  0  0  0
  138.0210   75.9866  222.4666 H   0  0  0  0  0  0  0  0  0  0  0  0
  140.1796   78.1955  222.1775 H   0  0  0  0  0  0  0  0  0  0  0  0
  140.5159   76.6156  222.9026 H   0  0  0  0  0  0  0  0  0  0  0  0
  1  2  1  0
  2  3  1  0
  3  4  2  0
  3  5  1  0
  5  6  1  0
  6  7  2  0
  7  8  1  0
  8  9  2  0
  9 10  1  0
 10 11  2  0
  5 12  1  0
 12 13  1  0
 13 14  1  0
 14 15  1  0
 15 16  1  0
 16 17  2  0
 16 18  1  0
 18 19  1  0
 19 20  1  0
 20 21  1  0
 21 22  1  0
 22 23  1  0
 23 24  1  0
 24 25  2  0
 25 26  1  0
 26 27  2  0
 27 28  1  0
 28 29  2  0
 29 30  1  0
 15 31  1  0
 31 32  1  0
 11  6  1  0
 32 12  1  0
 22 18  1  0
 29 24  1  0
  1 33  1  0
  1 34  1  0
  1 35  1  0
  2 36  1  0
  2 37  1  0
  7 38  1  0
  8 39  1  0
  9 40  1  0
 10 41  1  0
 11 42  1  0
 12 43  1  0
 13 44  1  0
 13 45  1  0
 14 46  1  0
 14 47  1  0
 18 48  1  1
 19 49  1  0
 19 50  1  0
 20 51  1  0
 20 52  1  0
 21 53  1  0
 21 54  1  0
 23 55  1  0
 23 56  1  0
 25 57  1  0
 26 58  1  0
 27 59  1  0
 28 60  1  0
 31 61  1  0
 31 62  1  0
 32 63  1  0
 32 64  1  0
M  END
>  <smiles>  (39) 
CCC(=O)N(c1ccccc1)C1CCN(C(=O)[C@@H]2CCCN2Cc2ccccc2Cl)CC1

>  <score_type>  (39) 
oracle

>  <origin>  (39) 
autodockgpu

>  <m_score__min__energy>  (39) 
-9.4600000000000009

>  <m_primary>  (39) 
energy

>  <rmsd>  (39) 
8.220810158323806

>  <m_score__min__rmsd>  (39) 
8.220810158323806

>  <meeko>  (39) 
{"free_energy": -6.78, "intermolecular_energy": -8.87, "internal_energy": -3.35, "cluster_size": 8, "cluster_id": 3, "rank_in_cluster": 3}

>  <energy>  (39) 
-6.4

>  <cluster_rmsd>  (39) 
0.65

>  <cluster>  (39) 
2

$$$$

     RDKit          3D

 64 67  0  0  0  0  0  0  0  0999 V2000
  141.6090   79.5350  218.3840 C   0  0  0  0  0  0  0  0  0  0  0  0
  141.6060   78.0340  218.4840 C   0  0  0  0  0  0  0  0  0  0  0  0
  141.7460   77.6630  219.9150 C   0  0  0  0  0  0  0  0  0  0  0  0
  142.2000   78.6010  220.6580 O   0  0  0  0  0  0  0  0  0  0  0  0
  141.4110   76.3770  220.4310 N   0  0  0  0  0  0  0  0  0  0  0  0
  142.2880   75.2630  220.4510 C   0  0  0  0  0  0  0  0  0  0  0  0
  143.6410   75.3860  220.1020 C   0  0  0  0  0  0  0  0  0  0  0  0
  144.5060   74.3130  220.1300 C   0  0  0  0  0  0  0  0  0  0  0  0
  144.0970   73.0560  220.5010 C   0  0  0  0  0  0  0  0  0  0  0  0
  142.7770   72.9020  220.8490 C   0  0  0  0  0  0  0  0  0  0  0  0
  141.9000   73.9920  220.8200 C   0  0  0  0  0  0  0  0  0  0  0  0
  140.0660   76.2570  220.9940 C   0  0  0  0  0  0  0  0  0  0  0  0
  138.9650   76.4010  220.0100 C   0  0  0  0  0  0  0  0  0  0  0  0
  137.6910   77.0190  220.4450 C   0  0  0  0  0  0  0  0  0  0  0  0
  137.7190   77.5650  221.8120 N   0  0  0  0  0  0  0  0  0  0  0  0
  136.9920   78.7440  222.0210 C   0  0  0  0  0  0  0  0  0  0  0  0
  136.3840   79.1750  220.9550 O   0  0  0  0  0  0  0  0  0  0  0  0
  136.8140   79.5460  223.2160 C   0  0  2  0  0  0  0  0  0  0  0  0
  136.0630   80.8240  223.1280 C   0  0  0  0  0  0  0  0  0  0  0  0
  136.5760   81.6680  224.2850 C   0  0  0  0  0  0  0  0  0  0  0  0
  137.6590   80.8370  224.8980 C   0  0  0  0  0  0  0  0  0  0  0  0
  138.1000   79.9610  223.7880 N   0  0  0  0  0  0  0  0  0  0  0  0
  138.8800   80.7900  222.8910 C   0  0  0  0  0  0  0  0  0  0  0  0
  140.3350   80.4760  223.0120 C   0  0  0  0  0  0  0  0  0  0  0  0
  140.8290   79.4920  223.8390 C   0  0  0  0  0  0  0  0  0  0  0  0
  142.1870   79.2140  223.9440 C   0  0  0  0  0  0  0  0  0  0  0  0
  143.0580   79.9860  223.1600 C   0  0  0  0  0  0  0  0  0  0  0  0
  142.5350   80.9590  222.3460 C   0  0  0  0  0  0  0  0  0  0  0  0
  141.1910   81.2410  222.2360 C   0  0  0  0  0  0  0  0  0  0  0  0
  140.5990   82.4930  221.1790 Cl  0  0  0  0  0  0  0  0  0  0  0  0
  138.4870   76.8140  222.7490 C   0  0  0  0  0  0  0  0  0  0  0  0
  139.9510   76.9770  222.3050 C   0  0  0  0  0  0  0  0  0  0  0  0
  141.6099   79.9698  219.3944 H   0  0  0  0  0  0  0  0  0  0  0  0
  142.5078   79.8646  217.8422 H   0  0  0  0  0  0  0  0  0  0  0  0
  140.7115   79.8682  217.8422 H   0  0  0  0  0  0  0  0  0  0  0  0
  140.6602   77.6365  218.0873 H   0  0  0  0  0  0  0  0  0  0  0  0
  142.4375   77.6131  217.8997 H   0  0  0  0  0  0  0  0  0  0  0  0
  144.0243   76.3706  219.7960 H   0  0  0  0  0  0  0  0  0  0  0  0
  145.5572   74.4688  219.8461 H   0  0  0  0  0  0  0  0  0  0  0  0
  144.7970   72.2077  220.5189 H   0  0  0  0  0  0  0  0  0  0  0  0
  142.4059   71.9122  221.1534 H   0  0  0  0  0  0  0  0  0  0  0  0
  140.8505   73.8272  221.1053 H   0  0  0  0  0  0  0  0  0  0  0  0
  139.9054   75.2049  221.2720 H   0  0  0  0  0  0  0  0  0  0  0  0
  139.3520   77.0100  219.1797 H   0  0  0  0  0  0  0  0  0  0  0  0
  138.6875   75.3640  219.7701 H   0  0  0  0  0  0  0  0  0  0  0  0
  137.4509   77.8384  219.7515 H   0  0  0  0  0  0  0  0  0  0  0  0
  136.9351   76.2199  220.4400 H   0  0  0  0  0  0  0  0  0  0  0  0
  136.2203   78.8355  223.8099 H   0  0  0  0  0  0  0  0  0  0  0  0
  136.2621   81.3232  222.1683 H   0  0  0  0  0  0  0  0  0  0  0  0
  134.9757   80.6668  223.1839 H   0  0  0  0  0  0  0  0  0  0  0  0
  136.9781   82.6249  223.9208 H   0  0  0  0  0  0  0  0  0  0  0  0
  135.7830   81.9213  225.0041 H   0  0  0  0  0  0  0  0  0  0  0  0
  138.4867   81.4697  225.2510 H   0  0  0  0  0  0  0  0  0  0  0  0
  137.3166   80.2715  225.7772 H   0  0  0  0  0  0  0  0  0  0  0  0
  138.5559   80.6061  221.8560 H   0  0  0  0  0  0  0  0  0  0  0  0
  138.7228   81.8453  223.1588 H   0  0  0  0  0  0  0  0  0  0  0  0
  140.1211   78.9027  224.4403 H   0  0  0  0  0  0  0  0  0  0  0  0
  142.5620   78.4243  224.6117 H   0  0  0  0  0  0  0  0  0  0  0  0
  144.1438   79.8137  223.1974 H   0  0  0  0  0  0  0  0  0  0  0  0
  143.2355   81.5534  221.7410 H   0  0  0  0  0  0  0  0  0  0  0  0
  138.3473   77.2100  223.7657 H   0  0  0  0  0  0  0  0  0  0  0  0
  138.1828   75.7572  222.7721 H   0  0  0  0  0  0  0  0  0  0  0  0
  140.1964   78.0419  222.1794 H   0  0  0  0  0  0  0  0  0  0  0  0
  140.6474   76.5687  223.0523 H   0  0  0  0  0  0  0  0  0  0  0  0
  1  2  1  0
  2  3  1  0
  3  4  2  0
  3  5  1  0
  5  6  1  0
  6  7  2  0
  7  8  1  0
  8  9  2  0
  9 10  1  0
 10 11  2  0
  5 12  1  0
 12 13  1  0
 13 14  1  0
 14 15  1  0
 15 16  1  0
 16 17  2  0
 16 18  1  0
 18 19  1  0
 19 20  1  0
 20 21  1  0
 21 22  1  0
 22 23  1  0
 23 24  1  0
 24 25  2  0
 25 26  1  0
 26 27  2  0
 27 28  1  0
 28 29  2  0
 29 30  1  0
 15 31  1  0
 31 32  1  0
 11  6  1  0
 32 12  1  0
 22 18  1  0
 29 24  1  0
  1 33  1  0
  1 34  1  0
  1 35  1  0
  2 36  1  0
  2 37  1  0
  7 38  1  0
  8 39  1  0
  9 40  1  0
 10 41  1  0
 11 42  1  0
 12 43  1  0
 13 44  1  0
 13 45  1  0
 14 46  1  0
 14 47  1  0
 18 48  1  1
 19 49  1  0
 19 50  1  0
 20 51  1  0
 20 52  1  0
 21 53  1  0
 21 54  1  0
 23 55  1  0
 23 56  1  0
 25 57  1  0
 26 58  1  0
 27 59  1  0
 28 60  1  0
 31 61  1  0
 31 62  1  0
 32 63  1  0
 32 64  1  0
M  END
>  <smiles>  (40) 
CCC(=O)N(c1ccccc1)C1CCN(C(=O)[C@@H]2CCCN2Cc2ccccc2Cl)CC1

>  <score_type>  (40) 
oracle

>  <origin>  (40) 
autodockgpu

>  <m_score__min__energy>  (40) 
-9.4600000000000009

>  <m_primary>  (40) 
energy

>  <rmsd>  (40) 
8.209822678793902

>  <m_score__min__rmsd>  (40) 
8.209822678793902

>  <meeko>  (40) 
{"free_energy": -6.55, "intermolecular_energy": -8.64, "internal_energy": -3.35, "cluster_size": 8, "cluster_id": 3, "rank_in_cluster": 7}

>  <energy>  (40) 
-6.36

>  <cluster_rmsd>  (40) 
0.69

>  <cluster>  (40) 
2

$$$$

     RDKit          3D

 64 67  0  0  0  0  0  0  0  0999 V2000
  141.9270   77.3460  217.3360 C   0  0  0  0  0  0  0  0  0  0  0  0
  142.5770   78.1690  218.4150 C   0  0  0  0  0  0  0  0  0  0  0  0
  141.7870   78.0090  219.6620 C   0  0  0  0  0  0  0  0  0  0  0  0
  141.4910   79.1110  220.2410 O   0  0  0  0  0  0  0  0  0  0  0  0
  141.3900   76.7430  220.1840 N   0  0  0  0  0  0  0  0  0  0  0  0
  142.2430   75.6180  220.3110 C   0  0  0  0  0  0  0  0  0  0  0  0
  141.7560   74.3680  220.7220 C   0  0  0  0  0  0  0  0  0  0  0  0
  142.5740   73.2650  220.8370 C   0  0  0  0  0  0  0  0  0  0  0  0
  143.9170   73.3190  220.5570 C   0  0  0  0  0  0  0  0  0  0  0  0
  144.4250   74.5300  220.1530 C   0  0  0  0  0  0  0  0  0  0  0  0
  143.5940   75.6490  220.0360 C   0  0  0  0  0  0  0  0  0  0  0  0
  140.0000   76.6580  220.6340 C   0  0  0  0  0  0  0  0  0  0  0  0
  138.9940   77.0680  219.6240 C   0  0  0  0  0  0  0  0  0  0  0  0
  137.7450   77.7220  220.0810 C   0  0  0  0  0  0  0  0  0  0  0  0
  137.7130   78.0260  221.5210 N   0  0  0  0  0  0  0  0  0  0  0  0
  137.0720   79.2170  221.8870 C   0  0  0  0  0  0  0  0  0  0  0  0
  136.5860   79.8760  220.8770 O   0  0  0  0  0  0  0  0  0  0  0  0
  136.8700   79.8210  223.1900 C   0  0  2  0  0  0  0  0  0  0  0  0
  136.1590   81.1210  223.2860 C   0  0  0  0  0  0  0  0  0  0  0  0
  136.6490   81.7490  224.5820 C   0  0  0  0  0  0  0  0  0  0  0  0
  137.6840   80.7930  225.0870 C   0  0  0  0  0  0  0  0  0  0  0  0
  138.1440   80.0930  223.8650 N   0  0  0  0  0  0  0  0  0  0  0  0
  138.9810   81.0310  223.1420 C   0  0  0  0  0  0  0  0  0  0  0  0
  140.3990   80.5640  223.1210 C   0  0  0  0  0  0  0  0  0  0  0  0
  140.8480   79.4790  223.8420 C   0  0  0  0  0  0  0  0  0  0  0  0
  142.1730   79.0590  223.8140 C   0  0  0  0  0  0  0  0  0  0  0  0
  143.0580   79.7930  223.0100 C   0  0  0  0  0  0  0  0  0  0  0  0
  142.5800   80.8690  222.3050 C   0  0  0  0  0  0  0  0  0  0  0  0
  141.2690   81.2920  222.3260 C   0  0  0  0  0  0  0  0  0  0  0  0
  140.7340   82.6680  221.4020 Cl  0  0  0  0  0  0  0  0  0  0  0  0
  138.3420   77.0600  222.3580 C   0  0  0  0  0  0  0  0  0  0  0  0
  139.8440   77.1560  222.0410 C   0  0  0  0  0  0  0  0  0  0  0  0
  141.3077   76.5618  217.7959 H   0  0  0  0  0  0  0  0  0  0  0  0
  141.2942   77.9939  216.7116 H   0  0  0  0  0  0  0  0  0  0  0  0
  142.7039   76.8806  216.7116 H   0  0  0  0  0  0  0  0  0  0  0  0
  143.6070   77.8199  218.5797 H   0  0  0  0  0  0  0  0  0  0  0  0
  142.6071   79.2278  218.1182 H   0  0  0  0  0  0  0  0  0  0  0  0
  140.6870   74.2652  220.9600 H   0  0  0  0  0  0  0  0  0  0  0  0
  142.1367   72.3101  221.1638 H   0  0  0  0  0  0  0  0  0  0  0  0
  144.5589   72.4307  220.6521 H   0  0  0  0  0  0  0  0  0  0  0  0
  145.4961   74.6204  219.9192 H   0  0  0  0  0  0  0  0  0  0  0  0
  144.0397   76.5999  219.7087 H   0  0  0  0  0  0  0  0  0  0  0  0
  139.7324   75.5941  220.7151 H   0  0  0  0  0  0  0  0  0  0  0  0
  139.4926   77.7684  218.9377 H   0  0  0  0  0  0  0  0  0  0  0  0
  138.6514   76.1169  219.1904 H   0  0  0  0  0  0  0  0  0  0  0  0
  137.6271   78.6650  219.5270 H   0  0  0  0  0  0  0  0  0  0  0  0
  136.9284   77.0099  219.8908 H   0  0  0  0  0  0  0  0  0  0  0  0
  136.2333   79.0450  223.6400 H   0  0  0  0  0  0  0  0  0  0  0  0
  136.4096   81.7620  222.4279 H   0  0  0  0  0  0  0  0  0  0  0  0
  135.0664   80.9935  223.2783 H   0  0  0  0  0  0  0  0  0  0  0  0
  137.0913   82.7383  224.3930 H   0  0  0  0  0  0  0  0  0  0  0  0
  135.8360   81.9094  225.3054 H   0  0  0  0  0  0  0  0  0  0  0  0
  138.5147   81.3318  225.5662 H   0  0  0  0  0  0  0  0  0  0  0  0
  137.2913   80.1044  225.8496 H   0  0  0  0  0  0  0  0  0  0  0  0
  138.6146   81.1200  222.1086 H   0  0  0  0  0  0  0  0  0  0  0  0
  138.9371   82.0071  223.6473 H   0  0  0  0  0  0  0  0  0  0  0  0
  140.1303   78.9237  224.4638 H   0  0  0  0  0  0  0  0  0  0  0  0
  142.5125   78.1897  224.3964 H   0  0  0  0  0  0  0  0  0  0  0  0
  144.1191   79.5102  222.9457 H   0  0  0  0  0  0  0  0  0  0  0  0
  143.2909   81.4312  221.6816 H   0  0  0  0  0  0  0  0  0  0  0  0
  138.1573   77.2911  223.4175 H   0  0  0  0  0  0  0  0  0  0  0  0
  137.9511   76.0478  222.1775 H   0  0  0  0  0  0  0  0  0  0  0  0
  140.1854   78.1989  222.1178 H   0  0  0  0  0  0  0  0  0  0  0  0
  140.4445   76.5645  222.7477 H   0  0  0  0  0  0  0  0  0  0  0  0
  1  2  1  0
  2  3  1  0
  3  4  2  0
  3  5  1  0
  5  6  1  0
  6  7  2  0
  7  8  1  0
  8  9  2  0
  9 10  1  0
 10 11  2  0
  5 12  1  0
 12 13  1  0
 13 14  1  0
 14 15  1  0
 15 16  1  0
 16 17  2  0
 16 18  1  0
 18 19  1  0
 19 20  1  0
 20 21  1  0
 21 22  1  0
 22 23  1  0
 23 24  1  0
 24 25  2  0
 25 26  1  0
 26 27  2  0
 27 28  1  0
 28 29  2  0
 29 30  1  0
 15 31  1  0
 31 32  1  0
 11  6  1  0
 32 12  1  0
 22 18  1  0
 29 24  1  0
  1 33  1  0
  1 34  1  0
  1 35  1  0
  2 36  1  0
  2 37  1  0
  7 38  1  0
  8 39  1  0
  9 40  1  0
 10 41  1  0
 11 42  1  0
 12 43  1  0
 13 44  1  0
 13 45  1  0
 14 46  1  0
 14 47  1  0
 18 48  1  1
 19 49  1  0
 19 50  1  0
 20 51  1  0
 20 52  1  0
 21 53  1  0
 21 54  1  0
 23 55  1  0
 23 56  1  0
 25 57  1  0
 26 58  1  0
 27 59  1  0
 28 60  1  0
 31 61  1  0
 31 62  1  0
 32 63  1  0
 32 64  1  0
M  END
>  <smiles>  (41) 
CCC(=O)N(c1ccccc1)C1CCN(C(=O)[C@@H]2CCCN2Cc2ccccc2Cl)CC1

>  <score_type>  (41) 
oracle

>  <origin>  (41) 
autodockgpu

>  <m_score__min__energy>  (41) 
-9.4600000000000009

>  <m_primary>  (41) 
energy

>  <rmsd>  (41) 
8.17887078421837

>  <m_score__min__rmsd>  (41) 
8.17887078421837

>  <meeko>  (41) 
{"free_energy": -6.54, "intermolecular_energy": -8.63, "internal_energy": -3.38, "cluster_size": 8, "cluster_id": 3, "rank_in_cluster": 8}

>  <energy>  (41) 
-6.34

>  <cluster_rmsd>  (41) 
0.64

>  <cluster>  (41) 
2

$$$$

     RDKit          3D

 64 67  0  0  0  0  0  0  0  0999 V2000
  143.1500   73.1630  220.4820 C   0  0  0  0  0  0  0  0  0  0  0  0
  143.0120   74.6610  220.4650 C   0  0  0  0  0  0  0  0  0  0  0  0
  141.6680   75.0110  220.9900 C   0  0  0  0  0  0  0  0  0  0  0  0
  141.1870   74.1560  221.8130 O   0  0  0  0  0  0  0  0  0  0  0  0
  140.9590   76.1900  220.6160 N   0  0  0  0  0  0  0  0  0  0  0  0
  141.4980   77.2400  219.8310 C   0  0  0  0  0  0  0  0  0  0  0  0
  142.1740   76.9860  218.6280 C   0  0  0  0  0  0  0  0  0  0  0  0
  142.6920   78.0000  217.8500 C   0  0  0  0  0  0  0  0  0  0  0  0
  142.5780   79.3220  218.2030 C   0  0  0  0  0  0  0  0  0  0  0  0
  141.9210   79.6030  219.3770 C   0  0  0  0  0  0  0  0  0  0  0  0
  141.3960   78.5740  220.1660 C   0  0  0  0  0  0  0  0  0  0  0  0
  139.5710   76.2610  221.0740 C   0  0  0  0  0  0  0  0  0  0  0  0
  138.5940   76.6730  220.0370 C   0  0  0  0  0  0  0  0  0  0  0  0
  137.4110   77.4660  220.4420 C   0  0  0  0  0  0  0  0  0  0  0  0
  137.4170   77.8860  221.8530 N   0  0  0  0  0  0  0  0  0  0  0  0
  136.8840   79.1530  222.1220 C   0  0  0  0  0  0  0  0  0  0  0  0
  136.4460   79.7680  221.0630 O   0  0  0  0  0  0  0  0  0  0  0  0
  136.7460   79.8750  223.3730 C   0  0  2  0  0  0  0  0  0  0  0  0
  136.0730   81.1990  223.3770 C   0  0  0  0  0  0  0  0  0  0  0  0
  136.6280   81.9240  224.5940 C   0  0  0  0  0  0  0  0  0  0  0  0
  137.6550   80.9860  225.1470 C   0  0  0  0  0  0  0  0  0  0  0  0
  138.0500   80.1690  223.9760 N   0  0  0  0  0  0  0  0  0  0  0  0
  138.8840   81.0130  223.1450 C   0  0  0  0  0  0  0  0  0  0  0  0
  140.2970   80.5290  223.1510 C   0  0  0  0  0  0  0  0  0  0  0  0
  140.7100   79.4120  223.8440 C   0  0  0  0  0  0  0  0  0  0  0  0
  142.0310   78.9770  223.8420 C   0  0  0  0  0  0  0  0  0  0  0  0
  142.9490   79.7290  223.0940 C   0  0  0  0  0  0  0  0  0  0  0  0
  142.5070   80.8350  222.4150 C   0  0  0  0  0  0  0  0  0  0  0  0
  141.2010   81.2740  222.4110 C   0  0  0  0  0  0  0  0  0  0  0  0
  140.7110   82.6900  221.5230 Cl  0  0  0  0  0  0  0  0  0  0  0  0
  137.9700   76.9400  222.7640 C   0  0  0  0  0  0  0  0  0  0  0  0
  139.4720   76.8820  222.4360 C   0  0  0  0  0  0  0  0  0  0  0  0
  143.1826   72.8096  221.5232 H   0  0  0  0  0  0  0  0  0  0  0  0
  142.2898   72.7097  219.9676 H   0  0  0  0  0  0  0  0  0  0  0  0
  144.0785   72.8745  219.9676 H   0  0  0  0  0  0  0  0  0  0  0  0
  143.7885   75.1133  221.0993 H   0  0  0  0  0  0  0  0  0  0  0  0
  143.1291   75.0409  219.4394 H   0  0  0  0  0  0  0  0  0  0  0  0
  142.2947   75.9447  218.2948 H   0  0  0  0  0  0  0  0  0  0  0  0
  143.2133   77.7414  216.9165 H   0  0  0  0  0  0  0  0  0  0  0  0
  142.9946   80.1219  217.5732 H   0  0  0  0  0  0  0  0  0  0  0  0
  141.8067   80.6484  219.6997 H   0  0  0  0  0  0  0  0  0  0  0  0
  140.8770   78.8416  221.0982 H   0  0  0  0  0  0  0  0  0  0  0  0
  139.2137   75.2340  221.2405 H   0  0  0  0  0  0  0  0  0  0  0  0
  139.1439   77.2701  219.2947 H   0  0  0  0  0  0  0  0  0  0  0  0
  138.1671   75.7229  219.6835 H   0  0  0  0  0  0  0  0  0  0  0  0
  137.3698   78.3683  219.8142 H   0  0  0  0  0  0  0  0  0  0  0  0
  136.5349   76.8138  220.3113 H   0  0  0  0  0  0  0  0  0  0  0  0
  136.1071   79.1601  223.9122 H   0  0  0  0  0  0  0  0  0  0  0  0
  136.3079   81.7540  222.4568 H   0  0  0  0  0  0  0  0  0  0  0  0
  134.9779   81.1038  223.4187 H   0  0  0  0  0  0  0  0  0  0  0  0
  137.0895   82.8788  224.3018 H   0  0  0  0  0  0  0  0  0  0  0  0
  135.8469   82.1720  225.3278 H   0  0  0  0  0  0  0  0  0  0  0  0
  138.5168   81.5397  225.5478 H   0  0  0  0  0  0  0  0  0  0  0  0
  137.2733   80.3792  225.9813 H   0  0  0  0  0  0  0  0  0  0  0  0
  138.5009   80.9961  222.1140 H   0  0  0  0  0  0  0  0  0  0  0  0
  138.8595   82.0376  223.5446 H   0  0  0  0  0  0  0  0  0  0  0  0
  139.9665   78.8425  224.4209 H   0  0  0  0  0  0  0  0  0  0  0  0
  142.3422   78.0829  224.4021 H   0  0  0  0  0  0  0  0  0  0  0  0
  144.0083   79.4355  223.0528 H   0  0  0  0  0  0  0  0  0  0  0  0
  143.2439   81.4100  221.8350 H   0  0  0  0  0  0  0  0  0  0  0  0
  137.8157   77.2703  223.8018 H   0  0  0  0  0  0  0  0  0  0  0  0
  137.4930   75.9535  222.6671 H   0  0  0  0  0  0  0  0  0  0  0  0
  139.9012   77.8948  222.4270 H   0  0  0  0  0  0  0  0  0  0  0  0
  140.0274   76.3006  223.1866 H   0  0  0  0  0  0  0  0  0  0  0  0
  1  2  1  0
  2  3  1  0
  3  4  2  0
  3  5  1  0
  5  6  1  0
  6  7  2  0
  7  8  1  0
  8  9  2  0
  9 10  1  0
 10 11  2  0
  5 12  1  0
 12 13  1  0
 13 14  1  0
 14 15  1  0
 15 16  1  0
 16 17  2  0
 16 18  1  0
 18 19  1  0
 19 20  1  0
 20 21  1  0
 21 22  1  0
 22 23  1  0
 23 24  1  0
 24 25  2  0
 25 26  1  0
 26 27  2  0
 27 28  1  0
 28 29  2  0
 29 30  1  0
 15 31  1  0
 31 32  1  0
 11  6  1  0
 32 12  1  0
 22 18  1  0
 29 24  1  0
  1 33  1  0
  1 34  1  0
  1 35  1  0
  2 36  1  0
  2 37  1  0
  7 38  1  0
  8 39  1  0
  9 40  1  0
 10 41  1  0
 11 42  1  0
 12 43  1  0
 13 44  1  0
 13 45  1  0
 14 46  1  0
 14 47  1  0
 18 48  1  1
 19 49  1  0
 19 50  1  0
 20 51  1  0
 20 52  1  0
 21 53  1  0
 21 54  1  0
 23 55  1  0
 23 56  1  0
 25 57  1  0
 26 58  1  0
 27 59  1  0
 28 60  1  0
 31 61  1  0
 31 62  1  0
 32 63  1  0
 32 64  1  0
M  END
>  <smiles>  (42) 
CCC(=O)N(c1ccccc1)C1CCN(C(=O)[C@@H]2CCCN2Cc2ccccc2Cl)CC1

>  <score_type>  (42) 
oracle

>  <origin>  (42) 
autodockgpu

>  <m_score__min__energy>  (42) 
-9.4600000000000009

>  <m_primary>  (42) 
energy

>  <rmsd>  (42) 
8.240589258976485

>  <m_score__min__rmsd>  (42) 
8.240589258976485

>  <meeko>  (42) 
{"free_energy": -6.87, "intermolecular_energy": -8.95, "internal_energy": -3.46, "cluster_size": 22, "cluster_id": 2, "rank_in_cluster": 12}

>  <energy>  (42) 
-6.23

>  <cluster_rmsd>  (42) 
0.97

>  <cluster>  (42) 
2

$$$$

     RDKit          3D

 64 67  0  0  0  0  0  0  0  0999 V2000
  142.5870   73.0340  220.4750 C   0  0  0  0  0  0  0  0  0  0  0  0
  142.6410   74.5110  220.7570 C   0  0  0  0  0  0  0  0  0  0  0  0
  141.2850   74.9580  221.1620 C   0  0  0  0  0  0  0  0  0  0  0  0
  140.6940   74.1660  221.9770 O   0  0  0  0  0  0  0  0  0  0  0  0
  140.6780   76.1590  220.6910 N   0  0  0  0  0  0  0  0  0  0  0  0
  141.3220   77.1220  219.8750 C   0  0  0  0  0  0  0  0  0  0  0  0
  142.0520   76.7500  218.7350 C   0  0  0  0  0  0  0  0  0  0  0  0
  142.6730   77.6790  217.9280 C   0  0  0  0  0  0  0  0  0  0  0  0
  142.6170   79.0260  218.1870 C   0  0  0  0  0  0  0  0  0  0  0  0
  141.9100   79.4220  219.2960 C   0  0  0  0  0  0  0  0  0  0  0  0
  141.2800   78.4790  220.1160 C   0  0  0  0  0  0  0  0  0  0  0  0
  139.2810   76.3510  221.0810 C   0  0  0  0  0  0  0  0  0  0  0  0
  138.4090   76.9040  220.0160 C   0  0  0  0  0  0  0  0  0  0  0  0
  137.2890   77.7960  220.3970 C   0  0  0  0  0  0  0  0  0  0  0  0
  137.2590   78.1530  221.8250 N   0  0  0  0  0  0  0  0  0  0  0  0
  136.8400   79.4550  222.1270 C   0  0  0  0  0  0  0  0  0  0  0  0
  136.5250   80.1560  221.0770 O   0  0  0  0  0  0  0  0  0  0  0  0
  136.7050   80.1340  223.4020 C   0  0  2  0  0  0  0  0  0  0  0  0
  136.1190   81.4980  223.4400 C   0  0  0  0  0  0  0  0  0  0  0  0
  136.6760   82.1350  224.7040 C   0  0  0  0  0  0  0  0  0  0  0  0
  137.6210   81.1110  225.2500 C   0  0  0  0  0  0  0  0  0  0  0  0
  138.0040   80.3170  224.0590 N   0  0  0  0  0  0  0  0  0  0  0  0
  138.9190   81.1370  223.2920 C   0  0  0  0  0  0  0  0  0  0  0  0
  140.2680   80.5000  223.2220 C   0  0  0  0  0  0  0  0  0  0  0  0
  140.5910   79.3410  223.8920 C   0  0  0  0  0  0  0  0  0  0  0  0
  141.8530   78.7620  223.8200 C   0  0  0  0  0  0  0  0  0  0  0  0
  142.8080   79.4120  223.0230 C   0  0  0  0  0  0  0  0  0  0  0  0
  142.4550   80.5640  222.3690 C   0  0  0  0  0  0  0  0  0  0  0  0
  141.2070   81.1450  222.4340 C   0  0  0  0  0  0  0  0  0  0  0  0
  140.8310   82.6120  221.5740 Cl  0  0  0  0  0  0  0  0  0  0  0  0
  137.6630   77.1180  222.7170 C   0  0  0  0  0  0  0  0  0  0  0  0
  139.1680   76.9210  222.4640 C   0  0  0  0  0  0  0  0  0  0  0  0
  142.5667   72.4798  221.4250 H   0  0  0  0  0  0  0  0  0  0  0  0
  141.6799   72.8040  219.8969 H   0  0  0  0  0  0  0  0  0  0  0  0
  143.4749   72.7384  219.8969 H   0  0  0  0  0  0  0  0  0  0  0  0
  143.3559   74.7087  221.5693 H   0  0  0  0  0  0  0  0  0  0  0  0
  142.9675   75.0565  219.8593 H   0  0  0  0  0  0  0  0  0  0  0  0
  142.1309   75.6834  218.4776 H   0  0  0  0  0  0  0  0  0  0  0  0
  143.2319   77.3295  217.0474 H   0  0  0  0  0  0  0  0  0  0  0  0
  143.1169   79.7568  217.5343 H   0  0  0  0  0  0  0  0  0  0  0  0
  141.8382   80.4917  219.5423 H   0  0  0  0  0  0  0  0  0  0  0  0
  140.7245   78.8376  220.9951 H   0  0  0  0  0  0  0  0  0  0  0  0
  138.8156   75.3593  221.1809 H   0  0  0  0  0  0  0  0  0  0  0  0
  139.0562   77.4729  219.3323 H   0  0  0  0  0  0  0  0  0  0  0  0
  137.9101   76.0180  219.5964 H   0  0  0  0  0  0  0  0  0  0  0  0
  137.3725   78.7235  219.8115 H   0  0  0  0  0  0  0  0  0  0  0  0
  136.3609   77.2429  220.1905 H   0  0  0  0  0  0  0  0  0  0  0  0
  136.0026   79.4420  223.8897 H   0  0  0  0  0  0  0  0  0  0  0  0
  136.4217   82.0730  222.5524 H   0  0  0  0  0  0  0  0  0  0  0  0
  135.0193   81.4736  223.4416 H   0  0  0  0  0  0  0  0  0  0  0  0
  137.2074   83.0687  224.4679 H   0  0  0  0  0  0  0  0  0  0  0  0
  135.8868   82.4030  225.4219 H   0  0  0  0  0  0  0  0  0  0  0  0
  138.5018   81.5911  225.7013 H   0  0  0  0  0  0  0  0  0  0  0  0
  137.1724   80.4976  226.0453 H   0  0  0  0  0  0  0  0  0  0  0  0
  138.5249   81.2607  222.2725 H   0  0  0  0  0  0  0  0  0  0  0  0
  139.0154   82.1153  223.7857 H   0  0  0  0  0  0  0  0  0  0  0  0
  139.8205   78.8544  224.5081 H   0  0  0  0  0  0  0  0  0  0  0  0
  142.0922   77.8360  224.3634 H   0  0  0  0  0  0  0  0  0  0  0  0
  143.8245   79.0032  222.9246 H   0  0  0  0  0  0  0  0  0  0  0  0
  143.2192   81.0578  221.7508 H   0  0  0  0  0  0  0  0  0  0  0  0
  137.4846   77.4182  223.7601 H   0  0  0  0  0  0  0  0  0  0  0  0
  137.0962   76.1904  222.5490 H   0  0  0  0  0  0  0  0  0  0  0  0
  139.6956   77.8843  222.5252 H   0  0  0  0  0  0  0  0  0  0  0  0
  139.6199   76.2548  223.2137 H   0  0  0  0  0  0  0  0  0  0  0  0
  1  2  1  0
  2  3  1  0
  3  4  2  0
  3  5  1  0
  5  6  1  0
  6  7  2  0
  7  8  1  0
  8  9  2  0
  9 10  1  0
 10 11  2  0
  5 12  1  0
 12 13  1  0
 13 14  1  0
 14 15  1  0
 15 16  1  0
 16 17  2  0
 16 18  1  0
 18 19  1  0
 19 20  1  0
 20 21  1  0
 21 22  1  0
 22 23  1  0
 23 24  1  0
 24 25  2  0
 25 26  1  0
 26 27  2  0
 27 28  1  0
 28 29  2  0
 29 30  1  0
 15 31  1  0
 31 32  1  0
 11  6  1  0
 32 12  1  0
 22 18  1  0
 29 24  1  0
  1 33  1  0
  1 34  1  0
  1 35  1  0
  2 36  1  0
  2 37  1  0
  7 38  1  0
  8 39  1  0
  9 40  1  0
 10 41  1  0
 11 42  1  0
 12 43  1  0
 13 44  1  0
 13 45  1  0
 14 46  1  0
 14 47  1  0
 18 48  1  1
 19 49  1  0
 19 50  1  0
 20 51  1  0
 20 52  1  0
 21 53  1  0
 21 54  1  0
 23 55  1  0
 23 56  1  0
 25 57  1  0
 26 58  1  0
 27 59  1  0
 28 60  1  0
 31 61  1  0
 31 62  1  0
 32 63  1  0
 32 64  1  0
M  END
>  <smiles>  (43) 
CCC(=O)N(c1ccccc1)C1CCN(C(=O)[C@@H]2CCCN2Cc2ccccc2Cl)CC1

>  <score_type>  (43) 
oracle

>  <origin>  (43) 
autodockgpu

>  <m_score__min__energy>  (43) 
-9.4600000000000009

>  <m_primary>  (43) 
energy

>  <rmsd>  (43) 
8.220161865151438

>  <m_score__min__rmsd>  (43) 
8.220161865151438

>  <meeko>  (43) 
{"free_energy": -6.87, "intermolecular_energy": -8.96, "internal_energy": -3.49, "cluster_size": 22, "cluster_id": 2, "rank_in_cluster": 9}

>  <energy>  (43) 
-6.85

>  <cluster_rmsd>  (43) 
0.0

>  <cluster>  (43) 
3

$$$$

     RDKit          3D

 64 67  0  0  0  0  0  0  0  0999 V2000
  141.0550   67.4600  226.8440 C   0  0  0  0  0  0  0  0  0  0  0  0
  139.5930   67.4330  226.4920 C   0  0  0  0  0  0  0  0  0  0  0  0
  139.4100   68.1520  225.2070 C   0  0  0  0  0  0  0  0  0  0  0  0
  139.1730   67.3880  224.2070 O   0  0  0  0  0  0  0  0  0  0  0  0
  139.4920   69.5690  225.0790 N   0  0  0  0  0  0  0  0  0  0  0  0
  140.0830   70.4320  226.0360 C   0  0  0  0  0  0  0  0  0  0  0  0
  139.7370   70.3710  227.3940 C   0  0  0  0  0  0  0  0  0  0  0  0
  140.3130   71.1970  228.3350 C   0  0  0  0  0  0  0  0  0  0  0  0
  141.2630   72.1310  228.0030 C   0  0  0  0  0  0  0  0  0  0  0  0
  141.6230   72.2160  226.6800 C   0  0  0  0  0  0  0  0  0  0  0  0
  141.0370   71.3780  225.7250 C   0  0  0  0  0  0  0  0  0  0  0  0
  138.9380   70.1220  223.8420 C   0  0  0  0  0  0  0  0  0  0  0  0
  139.8590   70.0890  222.6800 C   0  0  0  0  0  0  0  0  0  0  0  0
  139.7840   71.1740  221.6750 C   0  0  0  0  0  0  0  0  0  0  0  0
  138.8680   72.2700  222.0350 N   0  0  0  0  0  0  0  0  0  0  0  0
  139.2700   73.5590  221.6590 C   0  0  0  0  0  0  0  0  0  0  0  0
  140.4060   73.5850  221.0280 O   0  0  0  0  0  0  0  0  0  0  0  0
  138.6300   74.8450  221.8600 C   0  0  2  0  0  0  0  0  0  0  0  0
  138.2050   75.6380  220.6780 C   0  0  0  0  0  0  0  0  0  0  0  0
  138.1820   77.0820  221.1560 C   0  0  0  0  0  0  0  0  0  0  0  0
  138.6890   77.0150  222.5620 C   0  0  0  0  0  0  0  0  0  0  0  0
  139.5010   75.7770  222.5840 N   0  0  0  0  0  0  0  0  0  0  0  0
  140.7290   76.0750  221.8740 C   0  0  0  0  0  0  0  0  0  0  0  0
  141.2060   77.4520  222.1990 C   0  0  0  0  0  0  0  0  0  0  0  0
  141.4430   77.8860  223.4860 C   0  0  0  0  0  0  0  0  0  0  0  0
  141.8830   79.1730  223.7720 C   0  0  0  0  0  0  0  0  0  0  0  0
  142.0830   80.0360  222.6830 C   0  0  0  0  0  0  0  0  0  0  0  0
  141.8380   79.5740  221.4150 C   0  0  0  0  0  0  0  0  0  0  0  0
  141.4020   78.3000  221.1210 C   0  0  0  0  0  0  0  0  0  0  0  0
  141.1120   77.7830  219.4840 Cl  0  0  0  0  0  0  0  0  0  0  0  0
  137.6850   71.8700  222.7220 C   0  0  0  0  0  0  0  0  0  0  0  0
  138.1570   71.3770  224.1000 C   0  0  0  0  0  0  0  0  0  0  0  0
  141.1687   67.4621  227.9381 H   0  0  0  0  0  0  0  0  0  0  0  0
  141.5493   66.5708  226.4257 H   0  0  0  0  0  0  0  0  0  0  0  0
  141.5162   68.3668  226.4257 H   0  0  0  0  0  0  0  0  0  0  0  0
  139.2549   66.3915  226.3870 H   0  0  0  0  0  0  0  0  0  0  0  0
  139.0033   67.9170  227.2845 H   0  0  0  0  0  0  0  0  0  0  0  0
  138.9815   69.6403  227.7184 H   0  0  0  0  0  0  0  0  0  0  0  0
  140.0015   71.1050  229.3860 H   0  0  0  0  0  0  0  0  0  0  0  0
  141.7165   72.7833  228.7638 H   0  0  0  0  0  0  0  0  0  0  0  0
  142.3800   72.9507  226.3681 H   0  0  0  0  0  0  0  0  0  0  0  0
  141.3523   71.4786  224.6760 H   0  0  0  0  0  0  0  0  0  0  0  0
  138.1730   69.4251  223.4691 H   0  0  0  0  0  0  0  0  0  0  0  0
  140.8836   70.0903  223.0803 H   0  0  0  0  0  0  0  0  0  0  0  0
  139.5507   69.1915  222.1237 H   0  0  0  0  0  0  0  0  0  0  0  0
  140.7920   71.5953  221.5467 H   0  0  0  0  0  0  0  0  0  0  0  0
  139.3892   70.7230  220.7527 H   0  0  0  0  0  0  0  0  0  0  0  0
  137.7284   74.5048  222.3905 H   0  0  0  0  0  0  0  0  0  0  0  0
  138.9223   75.5158  219.8530 H   0  0  0  0  0  0  0  0  0  0  0  0
  137.2253   75.3150  220.2960 H   0  0  0  0  0  0  0  0  0  0  0  0
  138.8387   77.7085  220.5346 H   0  0  0  0  0  0  0  0  0  0  0  0
  137.1792   77.5296  221.0921 H   0  0  0  0  0  0  0  0  0  0  0  0
  139.3071   77.8937  222.7983 H   0  0  0  0  0  0  0  0  0  0  0  0
  137.8797   77.0071  223.3069 H   0  0  0  0  0  0  0  0  0  0  0  0
  141.5005   75.3473  222.1660 H   0  0  0  0  0  0  0  0  0  0  0  0
  140.5360   76.0137  220.7928 H   0  0  0  0  0  0  0  0  0  0  0  0
  141.2774   77.1866  224.3187 H   0  0  0  0  0  0  0  0  0  0  0  0
  142.0664   79.5008  224.8059 H   0  0  0  0  0  0  0  0  0  0  0  0
  142.4309   81.0670  222.8441 H   0  0  0  0  0  0  0  0  0  0  0  0
  142.0004   80.2669  220.5763 H   0  0  0  0  0  0  0  0  0  0  0  0
  136.9982   72.7221  222.8331 H   0  0  0  0  0  0  0  0  0  0  0  0
  137.1393   71.0880  222.1737 H   0  0  0  0  0  0  0  0  0  0  0  0
  138.7958   72.1336  224.5789 H   0  0  0  0  0  0  0  0  0  0  0  0
  137.3087   71.1932  224.7757 H   0  0  0  0  0  0  0  0  0  0  0  0
  1  2  1  0
  2  3  1  0
  3  4  2  0
  3  5  1  0
  5  6  1  0
  6  7  2  0
  7  8  1  0
  8  9  2  0
  9 10  1  0
 10 11  2  0
  5 12  1  0
 12 13  1  0
 13 14  1  0
 14 15  1  0
 15 16  1  0
 16 17  2  0
 16 18  1  0
 18 19  1  0
 19 20  1  0
 20 21  1  0
 21 22  1  0
 22 23  1  0
 23 24  1  0
 24 25  2  0
 25 26  1  0
 26 27  2  0
 27 28  1  0
 28 29  2  0
 29 30  1  0
 15 31  1  0
 31 32  1  0
 11  6  1  0
 32 12  1  0
 22 18  1  0
 29 24  1  0
  1 33  1  0
  1 34  1  0
  1 35  1  0
  2 36  1  0
  2 37  1  0
  7 38  1  0
  8 39  1  0
  9 40  1  0
 10 41  1  0
 11 42  1  0
 12 43  1  0
 13 44  1  0
 13 45  1  0
 14 46  1  0
 14 47  1  0
 18 48  1  1
 19 49  1  0
 19 50  1  0
 20 51  1  0
 20 52  1  0
 21 53  1  0
 21 54  1  0
 23 55  1  0
 23 56  1  0
 25 57  1  0
 26 58  1  0
 27 59  1  0
 28 60  1  0
 31 61  1  0
 31 62  1  0
 32 63  1  0
 32 64  1  0
M  END
>  <smiles>  (44) 
CCC(=O)N(c1ccccc1)C1CCN(C(=O)[C@@H]2CCCN2Cc2ccccc2Cl)CC1

>  <score_type>  (44) 
oracle

>  <origin>  (44) 
autodockgpu

>  <m_score__min__energy>  (44) 
-9.4600000000000009

>  <m_primary>  (44) 
energy

>  <rmsd>  (44) 
8.178846353662419

>  <m_score__min__rmsd>  (44) 
8.178846353662419

>  <meeko>  (44) 
{"free_energy": -9.07, "intermolecular_energy": -11.15, "internal_energy": -1.84, "cluster_size": 20, "cluster_id": 1, "rank_in_cluster": 12}

>  <energy>  (44) 
-6.79

>  <cluster_rmsd>  (44) 
0.29

>  <cluster>  (44) 
3

$$$$

     RDKit          3D

 64 67  0  0  0  0  0  0  0  0999 V2000
  143.6570   74.5000  220.4600 C   0  0  0  0  0  0  0  0  0  0  0  0
  142.2660   74.1780  219.9860 C   0  0  0  0  0  0  0  0  0  0  0  0
  141.2990   74.8670  220.8780 C   0  0  0  0  0  0  0  0  0  0  0  0
  141.0600   74.2460  221.9710 O   0  0  0  0  0  0  0  0  0  0  0  0
  140.6790   76.1100  220.5560 N   0  0  0  0  0  0  0  0  0  0  0  0
  141.2990   77.1550  219.8250 C   0  0  0  0  0  0  0  0  0  0  0  0
  142.0130   76.9030  218.6440 C   0  0  0  0  0  0  0  0  0  0  0  0
  142.6090   77.9120  217.9180 C   0  0  0  0  0  0  0  0  0  0  0  0
  142.5410   79.2280  218.3050 C   0  0  0  0  0  0  0  0  0  0  0  0
  141.8490   79.5070  219.4580 C   0  0  0  0  0  0  0  0  0  0  0  0
  141.2440   78.4830  220.1940 C   0  0  0  0  0  0  0  0  0  0  0  0
  139.2960   76.2580  221.0100 C   0  0  0  0  0  0  0  0  0  0  0  0
  138.3540   76.7580  219.9780 C   0  0  0  0  0  0  0  0  0  0  0  0
  137.2210   77.6160  220.3980 C   0  0  0  0  0  0  0  0  0  0  0  0
  137.2460   77.9990  221.8190 N   0  0  0  0  0  0  0  0  0  0  0  0
  136.7930   79.2900  222.1190 C   0  0  0  0  0  0  0  0  0  0  0  0
  136.4020   79.9580  221.0740 O   0  0  0  0  0  0  0  0  0  0  0  0
  136.6940   79.9880  223.3870 C   0  0  2  0  0  0  0  0  0  0  0  0
  136.0710   81.3360  223.4280 C   0  0  0  0  0  0  0  0  0  0  0  0
  136.6640   82.0100  224.6550 C   0  0  0  0  0  0  0  0  0  0  0  0
  137.6590   81.0220  225.1760 C   0  0  0  0  0  0  0  0  0  0  0  0
  138.0130   80.2180  223.9840 N   0  0  0  0  0  0  0  0  0  0  0  0
  138.8710   81.0500  223.1640 C   0  0  0  0  0  0  0  0  0  0  0  0
  140.2690   80.5250  223.1600 C   0  0  0  0  0  0  0  0  0  0  0  0
  140.6500   79.3880  223.8390 C   0  0  0  0  0  0  0  0  0  0  0  0
  141.9580   78.9140  223.8290 C   0  0  0  0  0  0  0  0  0  0  0  0
  142.8970   79.6480  223.0880 C   0  0  0  0  0  0  0  0  0  0  0  0
  142.4850   80.7750  222.4240 C   0  0  0  0  0  0  0  0  0  0  0  0
  141.1930   81.2530  222.4280 C   0  0  0  0  0  0  0  0  0  0  0  0
  140.7430   82.6940  221.5590 Cl  0  0  0  0  0  0  0  0  0  0  0  0
  137.7310   76.9970  222.7090 C   0  0  0  0  0  0  0  0  0  0  0  0
  139.2280   76.8500  222.3870 C   0  0  0  0  0  0  0  0  0  0  0  0
  143.6777   74.5048  221.5598 H   0  0  0  0  0  0  0  0  0  0  0  0
  144.3578   73.7403  220.0834 H   0  0  0  0  0  0  0  0  0  0  0  0
  143.9526   75.4903  220.0834 H   0  0  0  0  0  0  0  0  0  0  0  0
  142.1345   74.5299  218.9521 H   0  0  0  0  0  0  0  0  0  0  0  0
  142.0984   73.0912  220.0123 H   0  0  0  0  0  0  0  0  0  0  0  0
  142.1001   75.8667  218.2857 H   0  0  0  0  0  0  0  0  0  0  0  0
  143.1566   77.6549  216.9993 H   0  0  0  0  0  0  0  0  0  0  0  0
  143.0202   80.0244  217.7167 H   0  0  0  0  0  0  0  0  0  0  0  0
  141.7697   80.5473  219.8065 H   0  0  0  0  0  0  0  0  0  0  0  0
  140.6982   78.7495  221.1111 H   0  0  0  0  0  0  0  0  0  0  0  0
  138.8729   75.2524  221.1503 H   0  0  0  0  0  0  0  0  0  0  0  0
  138.9461   77.3368  219.2538 H   0  0  0  0  0  0  0  0  0  0  0  0
  137.8694   75.8466  219.5979 H   0  0  0  0  0  0  0  0  0  0  0  0
  137.2417   78.5345  219.7931 H   0  0  0  0  0  0  0  0  0  0  0  0
  136.3054   77.0253  220.2468 H   0  0  0  0  0  0  0  0  0  0  0  0
  136.0332   79.2855  223.9160 H   0  0  0  0  0  0  0  0  0  0  0  0
  136.3181   81.9033  222.5186 H   0  0  0  0  0  0  0  0  0  0  0  0
  134.9735   81.2811  223.4782 H   0  0  0  0  0  0  0  0  0  0  0  0
  137.1589   82.9532  224.3803 H   0  0  0  0  0  0  0  0  0  0  0  0
  135.8995   82.2698  225.4021 H   0  0  0  0  0  0  0  0  0  0  0  0
  138.5445   81.5336  225.5811 H   0  0  0  0  0  0  0  0  0  0  0  0
  137.2615   80.4107  225.9996 H   0  0  0  0  0  0  0  0  0  0  0  0
  138.4862   81.0600  222.1335 H   0  0  0  0  0  0  0  0  0  0  0  0
  138.8772   82.0686  223.5793 H   0  0  0  0  0  0  0  0  0  0  0  0
  139.8909   78.8340  224.4108 H   0  0  0  0  0  0  0  0  0  0  0  0
  142.2435   78.0043  224.3775 H   0  0  0  0  0  0  0  0  0  0  0  0
  143.9472   79.3244  223.0405 H   0  0  0  0  0  0  0  0  0  0  0  0
  143.2372   81.3353  221.8493 H   0  0  0  0  0  0  0  0  0  0  0  0
  137.5917   77.3111  223.7540 H   0  0  0  0  0  0  0  0  0  0  0  0
  137.1920   76.0461  222.5853 H   0  0  0  0  0  0  0  0  0  0  0  0
  139.7218   77.8328  222.4058 H   0  0  0  0  0  0  0  0  0  0  0  0
  139.7396   76.2151  223.1254 H   0  0  0  0  0  0  0  0  0  0  0  0
  1  2  1  0
  2  3  1  0
  3  4  2  0
  3  5  1  0
  5  6  1  0
  6  7  2  0
  7  8  1  0
  8  9  2  0
  9 10  1  0
 10 11  2  0
  5 12  1  0
 12 13  1  0
 13 14  1  0
 14 15  1  0
 15 16  1  0
 16 17  2  0
 16 18  1  0
 18 19  1  0
 19 20  1  0
 20 21  1  0
 21 22  1  0
 22 23  1  0
 23 24  1  0
 24 25  2  0
 25 26  1  0
 26 27  2  0
 27 28  1  0
 28 29  2  0
 29 30  1  0
 15 31  1  0
 31 32  1  0
 11  6  1  0
 32 12  1  0
 22 18  1  0
 29 24  1  0
  1 33  1  0
  1 34  1  0
  1 35  1  0
  2 36  1  0
  2 37  1  0
  7 38  1  0
  8 39  1  0
  9 40  1  0
 10 41  1  0
 11 42  1  0
 12 43  1  0
 13 44  1  0
 13 45  1  0
 14 46  1  0
 14 47  1  0
 18 48  1  1
 19 49  1  0
 19 50  1  0
 20 51  1  0
 20 52  1  0
 21 53  1  0
 21 54  1  0
 23 55  1  0
 23 56  1  0
 25 57  1  0
 26 58  1  0
 27 59  1  0
 28 60  1  0
 31 61  1  0
 31 62  1  0
 32 63  1  0
 32 64  1  0
M  END
>  <smiles>  (45) 
CCC(=O)N(c1ccccc1)C1CCN(C(=O)[C@@H]2CCCN2Cc2ccccc2Cl)CC1

>  <score_type>  (45) 
oracle

>  <origin>  (45) 
autodockgpu

>  <m_score__min__energy>  (45) 
-9.4600000000000009

>  <m_primary>  (45) 
energy

>  <rmsd>  (45) 
8.253701679902475

>  <m_score__min__rmsd>  (45) 
8.253701679902475

>  <meeko>  (45) 
{"free_energy": -6.88, "intermolecular_energy": -8.96, "internal_energy": -3.49, "cluster_size": 22, "cluster_id": 2, "rank_in_cluster": 6}

>  <energy>  (45) 
-6.78

>  <cluster_rmsd>  (45) 
0.28

>  <cluster>  (45) 
3

$$$$

     RDKit          3D

 64 67  0  0  0  0  0  0  0  0999 V2000
  142.7820   72.5190  220.6640 C   0  0  0  0  0  0  0  0  0  0  0  0
  141.3940   72.8990  220.2250 C   0  0  0  0  0  0  0  0  0  0  0  0
  140.7870   73.7470  221.2810 C   0  0  0  0  0  0  0  0  0  0  0  0
  140.6960   73.1770  222.4230 O   0  0  0  0  0  0  0  0  0  0  0  0
  140.3360   75.0810  221.0570 N   0  0  0  0  0  0  0  0  0  0  0  0
  141.0760   76.0790  220.3740 C   0  0  0  0  0  0  0  0  0  0  0  0
  142.4040   75.8640  219.9730 C   0  0  0  0  0  0  0  0  0  0  0  0
  143.1290   76.8220  219.2980 C   0  0  0  0  0  0  0  0  0  0  0  0
  142.5990   78.0470  218.9750 C   0  0  0  0  0  0  0  0  0  0  0  0
  141.3000   78.2880  219.3540 C   0  0  0  0  0  0  0  0  0  0  0  0
  140.5640   77.3150  220.0390 C   0  0  0  0  0  0  0  0  0  0  0  0
  138.9960   75.3840  221.5610 C   0  0  0  0  0  0  0  0  0  0  0  0
  137.9680   75.5840  220.5110 C   0  0  0  0  0  0  0  0  0  0  0  0
  136.8720   76.5500  220.7560 C   0  0  0  0  0  0  0  0  0  0  0  0
  137.0160   77.3280  221.9970 N   0  0  0  0  0  0  0  0  0  0  0  0
  136.5860   78.6600  221.9450 C   0  0  0  0  0  0  0  0  0  0  0  0
  136.1050   79.0050  220.7860 O   0  0  0  0  0  0  0  0  0  0  0  0
  136.5930   79.6970  222.9590 C   0  0  2  0  0  0  0  0  0  0  0  0
  136.0720   81.0470  222.6220 C   0  0  0  0  0  0  0  0  0  0  0  0
  136.7650   81.9940  223.5890 C   0  0  0  0  0  0  0  0  0  0  0  0
  137.7090   81.1180  224.3520 C   0  0  0  0  0  0  0  0  0  0  0  0
  137.9510   79.9800  223.4360 N   0  0  0  0  0  0  0  0  0  0  0  0
  138.8300   80.4690  222.3920 C   0  0  0  0  0  0  0  0  0  0  0  0
  140.2450   80.0780  222.6670 C   0  0  0  0  0  0  0  0  0  0  0  0
  140.5910   79.0110  223.4680 C   0  0  0  0  0  0  0  0  0  0  0  0
  141.9140   78.6620  223.7180 C   0  0  0  0  0  0  0  0  0  0  0  0
  142.9060   79.4480  223.1120 C   0  0  0  0  0  0  0  0  0  0  0  0
  142.5280   80.5030  222.3210 C   0  0  0  0  0  0  0  0  0  0  0  0
  141.2210   80.8560  222.0680 C   0  0  0  0  0  0  0  0  0  0  0  0
  140.8160   82.2100  221.0500 Cl  0  0  0  0  0  0  0  0  0  0  0  0
  137.5800   76.6160  223.0960 C   0  0  0  0  0  0  0  0  0  0  0  0
  139.0440   76.3510  222.7070 C   0  0  0  0  0  0  0  0  0  0  0  0
  142.8284   72.5063  221.7629 H   0  0  0  0  0  0  0  0  0  0  0  0
  143.0290   71.5202  220.2750 H   0  0  0  0  0  0  0  0  0  0  0  0
  143.5034   73.2527  220.2750 H   0  0  0  0  0  0  0  0  0  0  0  0
  141.4433   73.4600  219.2801 H   0  0  0  0  0  0  0  0  0  0  0  0
  140.7857   71.9961  220.0678 H   0  0  0  0  0  0  0  0  0  0  0  0
  142.8810   74.9003  220.2049 H   0  0  0  0  0  0  0  0  0  0  0  0
  144.1663   76.5981  219.0084 H   0  0  0  0  0  0  0  0  0  0  0  0
  143.1888   78.8030  218.4360 H   0  0  0  0  0  0  0  0  0  0  0  0
  140.8342   79.2558  219.1163 H   0  0  0  0  0  0  0  0  0  0  0  0
  139.5272   77.5470  220.3240 H   0  0  0  0  0  0  0  0  0  0  0  0
  138.5901   74.4711  222.0212 H   0  0  0  0  0  0  0  0  0  0  0  0
  138.4939   75.9159  219.6036 H   0  0  0  0  0  0  0  0  0  0  0  0
  137.4561   74.6121  220.4534 H   0  0  0  0  0  0  0  0  0  0  0  0
  136.8373   77.2531  219.9108 H   0  0  0  0  0  0  0  0  0  0  0  0
  135.9495   75.9599  220.8596 H   0  0  0  0  0  0  0  0  0  0  0  0
  135.9067   79.2318  223.6819 H   0  0  0  0  0  0  0  0  0  0  0  0
  136.3197   81.3077  221.5824 H   0  0  0  0  0  0  0  0  0  0  0  0
  134.9767   81.0988  222.7094 H   0  0  0  0  0  0  0  0  0  0  0  0
  137.3137   82.7756  223.0431 H   0  0  0  0  0  0  0  0  0  0  0  0
  136.0548   82.5184  224.2452 H   0  0  0  0  0  0  0  0  0  0  0  0
  138.6462   81.6500  224.5726 H   0  0  0  0  0  0  0  0  0  0  0  0
  137.3053   80.8029  225.3255 H   0  0  0  0  0  0  0  0  0  0  0  0
  138.5181   80.0413  221.4277 H   0  0  0  0  0  0  0  0  0  0  0  0
  138.7661   81.5667  222.3613 H   0  0  0  0  0  0  0  0  0  0  0  0
  139.7903   78.4126  223.9271 H   0  0  0  0  0  0  0  0  0  0  0  0
  142.1712   77.8081  224.3619 H   0  0  0  0  0  0  0  0  0  0  0  0
  143.9709   79.2215  223.2689 H   0  0  0  0  0  0  0  0  0  0  0  0
  143.3218   81.1075  221.8578 H   0  0  0  0  0  0  0  0  0  0  0  0
  137.5296   77.2217  224.0128 H   0  0  0  0  0  0  0  0  0  0  0  0
  137.0363   75.6815  223.2986 H   0  0  0  0  0  0  0  0  0  0  0  0
  139.5332   77.2865  222.3981 H   0  0  0  0  0  0  0  0  0  0  0  0
  139.6199   75.9470  223.5526 H   0  0  0  0  0  0  0  0  0  0  0  0
  1  2  1  0
  2  3  1  0
  3  4  2  0
  3  5  1  0
  5  6  1  0
  6  7  2  0
  7  8  1  0
  8  9  2  0
  9 10  1  0
 10 11  2  0
  5 12  1  0
 12 13  1  0
 13 14  1  0
 14 15  1  0
 15 16  1  0
 16 17  2  0
 16 18  1  0
 18 19  1  0
 19 20  1  0
 20 21  1  0
 21 22  1  0
 22 23  1  0
 23 24  1  0
 24 25  2  0
 25 26  1  0
 26 27  2  0
 27 28  1  0
 28 29  2  0
 29 30  1  0
 15 31  1  0
 31 32  1  0
 11  6  1  0
 32 12  1  0
 22 18  1  0
 29 24  1  0
  1 33  1  0
  1 34  1  0
  1 35  1  0
  2 36  1  0
  2 37  1  0
  7 38  1  0
  8 39  1  0
  9 40  1  0
 10 41  1  0
 11 42  1  0
 12 43  1  0
 13 44  1  0
 13 45  1  0
 14 46  1  0
 14 47  1  0
 18 48  1  1
 19 49  1  0
 19 50  1  0
 20 51  1  0
 20 52  1  0
 21 53  1  0
 21 54  1  0
 23 55  1  0
 23 56  1  0
 25 57  1  0
 26 58  1  0
 27 59  1  0
 28 60  1  0
 31 61  1  0
 31 62  1  0
 32 63  1  0
 32 64  1  0
M  END
>  <smiles>  (46) 
CCC(=O)N(c1ccccc1)C1CCN(C(=O)[C@@H]2CCCN2Cc2ccccc2Cl)CC1

>  <score_type>  (46) 
oracle

>  <origin>  (46) 
autodockgpu

>  <m_score__min__energy>  (46) 
-9.4600000000000009

>  <m_primary>  (46) 
energy

>  <rmsd>  (46) 
8.166630980011233

>  <m_score__min__rmsd>  (46) 
8.166630980011233

>  <meeko>  (46) 
{"free_energy": -6.23, "intermolecular_energy": -8.32, "internal_energy": -3.49, "cluster_size": 22, "cluster_id": 2, "rank_in_cluster": 22}

>  <energy>  (46) 
-6.69

>  <cluster_rmsd>  (46) 
0.34

>  <cluster>  (46) 
3

$$$$

     RDKit          3D

 64 67  0  0  0  0  0  0  0  0999 V2000
  134.3310   69.0880  225.5060 C   0  0  0  0  0  0  0  0  0  0  0  0
  135.5180   70.0020  225.3580 C   0  0  0  0  0  0  0  0  0  0  0  0
  136.4270   69.4220  224.3380 C   0  0  0  0  0  0  0  0  0  0  0  0
  135.8850   68.5280  223.5990 O   0  0  0  0  0  0  0  0  0  0  0  0
  137.7890   69.8140  224.1850 N   0  0  0  0  0  0  0  0  0  0  0  0
  138.8280   69.4950  225.0950 C   0  0  0  0  0  0  0  0  0  0  0  0
  139.1720   68.1640  225.3800 C   0  0  0  0  0  0  0  0  0  0  0  0
  140.1880   67.8420  226.2540 C   0  0  0  0  0  0  0  0  0  0  0  0
  140.9280   68.8010  226.9000 C   0  0  0  0  0  0  0  0  0  0  0  0
  140.6150   70.1140  226.6420 C   0  0  0  0  0  0  0  0  0  0  0  0
  139.5830   70.4410  225.7550 C   0  0  0  0  0  0  0  0  0  0  0  0
  138.0910   70.5740  222.9710 C   0  0  0  0  0  0  0  0  0  0  0  0
  139.5360   70.6940  222.6570 C   0  0  0  0  0  0  0  0  0  0  0  0
  140.0260   71.9270  221.9980 C   0  0  0  0  0  0  0  0  0  0  0  0
  139.0100   72.9830  221.8560 N   0  0  0  0  0  0  0  0  0  0  0  0
  139.4620   74.3000  222.0070 C   0  0  0  0  0  0  0  0  0  0  0  0
  140.7380   74.3860  222.2430 O   0  0  0  0  0  0  0  0  0  0  0  0
  138.7450   75.5590  221.9450 C   0  0  2  0  0  0  0  0  0  0  0  0
  138.3440   76.1020  220.6220 C   0  0  0  0  0  0  0  0  0  0  0  0
  138.2180   77.6040  220.8300 C   0  0  0  0  0  0  0  0  0  0  0  0
  138.6510   77.8190  222.2460 C   0  0  0  0  0  0  0  0  0  0  0  0
  139.5250   76.6570  222.5270 N   0  0  0  0  0  0  0  0  0  0  0  0
  140.7730   76.9000  221.8300 C   0  0  0  0  0  0  0  0  0  0  0  0
  141.3670   78.2040  222.2500 C   0  0  0  0  0  0  0  0  0  0  0  0
  141.5770   78.5480  223.5680 C   0  0  0  0  0  0  0  0  0  0  0  0
  142.1280   79.7690  223.9430 C   0  0  0  0  0  0  0  0  0  0  0  0
  142.4720   80.6570  222.9130 C   0  0  0  0  0  0  0  0  0  0  0  0
  142.2510   80.2840  221.6110 C   0  0  0  0  0  0  0  0  0  0  0  0
  141.7060   79.0770  221.2300 C   0  0  0  0  0  0  0  0  0  0  0  0
  141.4540   78.6720  219.5550 Cl  0  0  0  0  0  0  0  0  0  0  0  0
  137.6900   72.5200  221.5810 C   0  0  0  0  0  0  0  0  0  0  0  0
  137.2320   71.7990  222.8590 C   0  0  0  0  0  0  0  0  0  0  0  0
  134.1227   68.9276  226.5741 H   0  0  0  0  0  0  0  0  0  0  0  0
  133.4535   69.5459  225.0260 H   0  0  0  0  0  0  0  0  0  0  0  0
  134.5494   68.1227  225.0260 H   0  0  0  0  0  0  0  0  0  0  0  0
  135.1825   70.9982  225.0341 H   0  0  0  0  0  0  0  0  0  0  0  0
  136.0419   70.1024  226.3200 H   0  0  0  0  0  0  0  0  0  0  0  0
  138.6132   67.3528  224.8905 H   0  0  0  0  0  0  0  0  0  0  0  0
  140.4134   66.7815  226.4400 H   0  0  0  0  0  0  0  0  0  0  0  0
  141.7369   68.5300  227.5944 H   0  0  0  0  0  0  0  0  0  0  0  0
  141.1814   70.9162  227.1377 H   0  0  0  0  0  0  0  0  0  0  0  0
  139.3637   71.5039  225.5759 H   0  0  0  0  0  0  0  0  0  0  0  0
  137.7799   69.9711  222.1051 H   0  0  0  0  0  0  0  0  0  0  0  0
  140.0818   70.5972  223.6071 H   0  0  0  0  0  0  0  0  0  0  0  0
  139.7105   69.9068  221.9088 H   0  0  0  0  0  0  0  0  0  0  0  0
  140.8590   72.3283  222.5939 H   0  0  0  0  0  0  0  0  0  0  0  0
  140.3276   71.6412  220.9795 H   0  0  0  0  0  0  0  0  0  0  0  0
  137.8353   75.2633  222.4881 H   0  0  0  0  0  0  0  0  0  0  0  0
  139.1109   75.8802  219.8653 H   0  0  0  0  0  0  0  0  0  0  0  0
  137.4052   75.6562  220.2616 H   0  0  0  0  0  0  0  0  0  0  0  0
  138.8731   78.1499  220.1351 H   0  0  0  0  0  0  0  0  0  0  0  0
  137.1978   77.9700  220.6424 H   0  0  0  0  0  0  0  0  0  0  0  0
  139.2081   78.7621  222.3468 H   0  0  0  0  0  0  0  0  0  0  0  0
  137.8039   77.8935  222.9438 H   0  0  0  0  0  0  0  0  0  0  0  0
  141.4799   76.0898  222.0621 H   0  0  0  0  0  0  0  0  0  0  0  0
  140.5733   76.9343  220.7488 H   0  0  0  0  0  0  0  0  0  0  0  0
  141.2983   77.8298  224.3532 H   0  0  0  0  0  0  0  0  0  0  0  0
  142.2870   80.0268  225.0005 H   0  0  0  0  0  0  0  0  0  0  0  0
  142.9124   81.6378  223.1455 H   0  0  0  0  0  0  0  0  0  0  0  0
  142.5272   80.9956  220.8190 H   0  0  0  0  0  0  0  0  0  0  0  0
  137.0244   73.3669  221.3581 H   0  0  0  0  0  0  0  0  0  0  0  0
  137.6657   71.8538  220.7060 H   0  0  0  0  0  0  0  0  0  0  0  0
  137.3744   72.4475  223.7360 H   0  0  0  0  0  0  0  0  0  0  0  0
  136.1637   71.5403  222.8157 H   0  0  0  0  0  0  0  0  0  0  0  0
  1  2  1  0
  2  3  1  0
  3  4  2  0
  3  5  1  0
  5  6  1  0
  6  7  2  0
  7  8  1  0
  8  9  2  0
  9 10  1  0
 10 11  2  0
  5 12  1  0
 12 13  1  0
 13 14  1  0
 14 15  1  0
 15 16  1  0
 16 17  2  0
 16 18  1  0
 18 19  1  0
 19 20  1  0
 20 21  1  0
 21 22  1  0
 22 23  1  0
 23 24  1  0
 24 25  2  0
 25 26  1  0
 26 27  2  0
 27 28  1  0
 28 29  2  0
 29 30  1  0
 15 31  1  0
 31 32  1  0
 11  6  1  0
 32 12  1  0
 22 18  1  0
 29 24  1  0
  1 33  1  0
  1 34  1  0
  1 35  1  0
  2 36  1  0
  2 37  1  0
  7 38  1  0
  8 39  1  0
  9 40  1  0
 10 41  1  0
 11 42  1  0
 12 43  1  0
 13 44  1  0
 13 45  1  0
 14 46  1  0
 14 47  1  0
 18 48  1  1
 19 49  1  0
 19 50  1  0
 20 51  1  0
 20 52  1  0
 21 53  1  0
 21 54  1  0
 23 55  1  0
 23 56  1  0
 25 57  1  0
 26 58  1  0
 27 59  1  0
 28 60  1  0
 31 61  1  0
 31 62  1  0
 32 63  1  0
 32 64  1  0
M  END
>  <smiles>  (47) 
CCC(=O)N(c1ccccc1)C1CCN(C(=O)[C@@H]2CCCN2Cc2ccccc2Cl)CC1

>  <score_type>  (47) 
oracle

>  <origin>  (47) 
autodockgpu

>  <m_score__min__energy>  (47) 
-9.4600000000000009

>  <m_primary>  (47) 
energy

>  <rmsd>  (47) 
8.227255346626356

>  <m_score__min__rmsd>  (47) 
8.227255346626356

>  <meeko>  (47) 
{"free_energy": -8.46, "intermolecular_energy": -10.55, "internal_energy": -1.72, "cluster_size": 20, "cluster_id": 1, "rank_in_cluster": 18}

>  <energy>  (47) 
-6.67

>  <cluster_rmsd>  (47) 
1.27

>  <cluster>  (47) 
3

$$$$

     RDKit          3D

 64 67  0  0  0  0  0  0  0  0999 V2000
  136.2060   69.2880  224.1010 C   0  0  0  0  0  0  0  0  0  0  0  0
  137.3670   68.5990  223.4390 C   0  0  0  0  0  0  0  0  0  0  0  0
  138.5760   68.8170  224.2720 C   0  0  0  0  0  0  0  0  0  0  0  0
  138.9600   67.7830  224.9210 O   0  0  0  0  0  0  0  0  0  0  0  0
  139.2580   70.0660  224.3570 N   0  0  0  0  0  0  0  0  0  0  0  0
  139.8740   70.5720  225.5290 C   0  0  0  0  0  0  0  0  0  0  0  0
  139.8630   69.8520  226.7340 C   0  0  0  0  0  0  0  0  0  0  0  0
  140.4690   70.3280  227.8770 C   0  0  0  0  0  0  0  0  0  0  0  0
  141.1220   71.5350  227.9090 C   0  0  0  0  0  0  0  0  0  0  0  0
  141.1500   72.2640  226.7450 C   0  0  0  0  0  0  0  0  0  0  0  0
  140.5350   71.7810  225.5850 C   0  0  0  0  0  0  0  0  0  0  0  0
  139.3250   70.8310  223.1100 C   0  0  0  0  0  0  0  0  0  0  0  0
  140.6890   71.2640  222.7200 C   0  0  0  0  0  0  0  0  0  0  0  0
  140.8550   72.5520  222.0060 C   0  0  0  0  0  0  0  0  0  0  0  0
  139.6190   73.3430  221.8900 N   0  0  0  0  0  0  0  0  0  0  0  0
  139.7650   74.7330  221.9850 C   0  0  0  0  0  0  0  0  0  0  0  0
  140.9960   75.1160  222.1530 O   0  0  0  0  0  0  0  0  0  0  0  0
  138.7770   75.7940  221.9280 C   0  0  2  0  0  0  0  0  0  0  0  0
  138.1310   76.1160  220.6300 C   0  0  0  0  0  0  0  0  0  0  0  0
  137.6870   77.5660  220.7560 C   0  0  0  0  0  0  0  0  0  0  0  0
  138.2000   77.9950  222.0940 C   0  0  0  0  0  0  0  0  0  0  0  0
  139.3400   77.0830  222.3430 N   0  0  0  0  0  0  0  0  0  0  0  0
  140.4220   77.5310  221.4890 C   0  0  0  0  0  0  0  0  0  0  0  0
  141.2440   78.5700  222.1790 C   0  0  0  0  0  0  0  0  0  0  0  0
  141.4490   78.5880  223.5420 C   0  0  0  0  0  0  0  0  0  0  0  0
  142.2140   79.5650  224.1700 C   0  0  0  0  0  0  0  0  0  0  0  0
  142.7820   80.5540  223.3520 C   0  0  0  0  0  0  0  0  0  0  0  0
  142.5590   80.5080  221.9990 C   0  0  0  0  0  0  0  0  0  0  0  0
  141.8030   79.5440  221.3680 C   0  0  0  0  0  0  0  0  0  0  0  0
  141.5630   79.5500  219.6430 Cl  0  0  0  0  0  0  0  0  0  0  0  0
  138.4290   72.5830  221.6940 C   0  0  0  0  0  0  0  0  0  0  0  0
  138.2040   71.8230  223.0120 C   0  0  0  0  0  0  0  0  0  0  0  0
  136.3155   69.2230  225.1936 H   0  0  0  0  0  0  0  0  0  0  0  0
  136.1849   70.3449  223.7968 H   0  0  0  0  0  0  0  0  0  0  0  0
  135.2682   68.8002  223.7968 H   0  0  0  0  0  0  0  0  0  0  0  0
  137.1619   67.5215  223.3562 H   0  0  0  0  0  0  0  0  0  0  0  0
  137.5240   69.0071  222.4296 H   0  0  0  0  0  0  0  0  0  0  0  0
  139.3547   68.8770  226.7672 H   0  0  0  0  0  0  0  0  0  0  0  0
  140.4279   69.7208  228.7933 H   0  0  0  0  0  0  0  0  0  0  0  0
  141.6024   71.9028  228.8276 H   0  0  0  0  0  0  0  0  0  0  0  0
  141.6613   73.2377  226.7248 H   0  0  0  0  0  0  0  0  0  0  0  0
  140.5809   72.3952  224.6736 H   0  0  0  0  0  0  0  0  0  0  0  0
  139.1231   70.1437  222.2753 H   0  0  0  0  0  0  0  0  0  0  0  0
  141.2837   71.3277  223.6432 H   0  0  0  0  0  0  0  0  0  0  0  0
  141.0057   70.5104  221.9839 H   0  0  0  0  0  0  0  0  0  0  0  0
  141.5994   73.1533  222.5484 H   0  0  0  0  0  0  0  0  0  0  0  0
  141.1695   72.3062  220.9810 H   0  0  0  0  0  0  0  0  0  0  0  0
  138.0183   75.3550  222.5925 H   0  0  0  0  0  0  0  0  0  0  0  0
  138.8478   76.0022  219.8034 H   0  0  0  0  0  0  0  0  0  0  0  0
  137.2874   75.4445  220.4121 H   0  0  0  0  0  0  0  0  0  0  0  0
  138.1265   78.1790  219.9554 H   0  0  0  0  0  0  0  0  0  0  0  0
  136.5966   77.6807  220.6676 H   0  0  0  0  0  0  0  0  0  0  0  0
  138.5344   79.0426  222.0682 H   0  0  0  0  0  0  0  0  0  0  0  0
  137.4331   77.9428  222.8809 H   0  0  0  0  0  0  0  0  0  0  0  0
  141.0622   76.6727  221.2371 H   0  0  0  0  0  0  0  0  0  0  0  0
  139.9933   77.9686  220.5754 H   0  0  0  0  0  0  0  0  0  0  0  0
  140.9900   77.7995  224.1564 H   0  0  0  0  0  0  0  0  0  0  0  0
  142.3671   79.5627  225.2593 H   0  0  0  0  0  0  0  0  0  0  0  0
  143.3970   81.3544  223.7893 H   0  0  0  0  0  0  0  0  0  0  0  0
  143.0139   81.2927  221.3766 H   0  0  0  0  0  0  0  0  0  0  0  0
  137.5785   73.2482  221.4839 H   0  0  0  0  0  0  0  0  0  0  0  0
  138.5192   71.8976  220.8384 H   0  0  0  0  0  0  0  0  0  0  0  0
  138.2322   72.5179  223.8642 H   0  0  0  0  0  0  0  0  0  0  0  0
  137.2224   71.3268  223.0300 H   0  0  0  0  0  0  0  0  0  0  0  0
  1  2  1  0
  2  3  1  0
  3  4  2  0
  3  5  1  0
  5  6  1  0
  6  7  2  0
  7  8  1  0
  8  9  2  0
  9 10  1  0
 10 11  2  0
  5 12  1  0
 12 13  1  0
 13 14  1  0
 14 15  1  0
 15 16  1  0
 16 17  2  0
 16 18  1  0
 18 19  1  0
 19 20  1  0
 20 21  1  0
 21 22  1  0
 22 23  1  0
 23 24  1  0
 24 25  2  0
 25 26  1  0
 26 27  2  0
 27 28  1  0
 28 29  2  0
 29 30  1  0
 15 31  1  0
 31 32  1  0
 11  6  1  0
 32 12  1  0
 22 18  1  0
 29 24  1  0
  1 33  1  0
  1 34  1  0
  1 35  1  0
  2 36  1  0
  2 37  1  0
  7 38  1  0
  8 39  1  0
  9 40  1  0
 10 41  1  0
 11 42  1  0
 12 43  1  0
 13 44  1  0
 13 45  1  0
 14 46  1  0
 14 47  1  0
 18 48  1  1
 19 49  1  0
 19 50  1  0
 20 51  1  0
 20 52  1  0
 21 53  1  0
 21 54  1  0
 23 55  1  0
 23 56  1  0
 25 57  1  0
 26 58  1  0
 27 59  1  0
 28 60  1  0
 31 61  1  0
 31 62  1  0
 32 63  1  0
 32 64  1  0
M  END
>  <smiles>  (48) 
CCC(=O)N(c1ccccc1)C1CCN(C(=O)[C@@H]2CCCN2Cc2ccccc2Cl)CC1

>  <score_type>  (48) 
oracle

>  <origin>  (48) 
autodockgpu

>  <m_score__min__energy>  (48) 
-9.4600000000000009

>  <m_primary>  (48) 
energy

>  <rmsd>  (48) 
8.118078035335513

>  <m_score__min__rmsd>  (48) 
8.118078035335513

>  <meeko>  (48) 
{"free_energy": -9.04, "intermolecular_energy": -11.13, "internal_energy": -1.68, "cluster_size": 20, "cluster_id": 1, "rank_in_cluster": 13}

>  <energy>  (48) 
-6.56

>  <cluster_rmsd>  (48) 
0.5

>  <cluster>  (48) 
3

$$$$

     RDKit          3D

 64 67  0  0  0  0  0  0  0  0999 V2000
  138.8550   66.5320  222.6640 C   0  0  0  0  0  0  0  0  0  0  0  0
  138.4020   67.9580  222.8330 C   0  0  0  0  0  0  0  0  0  0  0  0
  139.0220   68.5000  224.0680 C   0  0  0  0  0  0  0  0  0  0  0  0
  139.1860   67.6340  224.9960 O   0  0  0  0  0  0  0  0  0  0  0  0
  139.4020   69.8650  224.2240 N   0  0  0  0  0  0  0  0  0  0  0  0
  139.9360   70.4230  225.4130 C   0  0  0  0  0  0  0  0  0  0  0  0
  140.8250   71.5090  225.3800 C   0  0  0  0  0  0  0  0  0  0  0  0
  141.3410   72.0680  226.5300 C   0  0  0  0  0  0  0  0  0  0  0  0
  141.0180   71.5980  227.7790 C   0  0  0  0  0  0  0  0  0  0  0  0
  140.1500   70.5350  227.8440 C   0  0  0  0  0  0  0  0  0  0  0  0
  139.6270   69.9680  226.6770 C   0  0  0  0  0  0  0  0  0  0  0  0
  139.2370   70.7020  223.0350 C   0  0  0  0  0  0  0  0  0  0  0  0
  140.5050   71.1230  222.3910 C   0  0  0  0  0  0  0  0  0  0  0  0
  140.5680   72.4470  221.7300 C   0  0  0  0  0  0  0  0  0  0  0  0
  139.3660   73.2760  221.9190 N   0  0  0  0  0  0  0  0  0  0  0  0
  139.5820   74.6540  222.0570 C   0  0  0  0  0  0  0  0  0  0  0  0
  140.8350   74.9930  221.9830 O   0  0  0  0  0  0  0  0  0  0  0  0
  138.6460   75.7410  222.2670 C   0  0  2  0  0  0  0  0  0  0  0  0
  137.7990   76.2000  221.1360 C   0  0  0  0  0  0  0  0  0  0  0  0
  137.4460   77.6430  221.4620 C   0  0  0  0  0  0  0  0  0  0  0  0
  138.2010   77.9330  222.7210 C   0  0  0  0  0  0  0  0  0  0  0  0
  139.3270   76.9710  222.6860 N   0  0  0  0  0  0  0  0  0  0  0  0
  140.2630   77.4670  221.6970 C   0  0  0  0  0  0  0  0  0  0  0  0
  141.1310   78.5330  222.2790 C   0  0  0  0  0  0  0  0  0  0  0  0
  141.3730   78.6560  223.6300 C   0  0  0  0  0  0  0  0  0  0  0  0
  142.1810   79.6570  224.1580 C   0  0  0  0  0  0  0  0  0  0  0  0
  142.7550   80.5590  223.2490 C   0  0  0  0  0  0  0  0  0  0  0  0
  142.4940   80.4100  221.9100 C   0  0  0  0  0  0  0  0  0  0  0  0
  141.6960   79.4210  221.3780 C   0  0  0  0  0  0  0  0  0  0  0  0
  141.4100   79.2930  219.6650 Cl  0  0  0  0  0  0  0  0  0  0  0  0
  138.1340   72.5610  221.9360 C   0  0  0  0  0  0  0  0  0  0  0  0
  138.1590   71.7280  223.2290 C   0  0  0  0  0  0  0  0  0  0  0  0
  139.0005   66.0738  223.6534 H   0  0  0  0  0  0  0  0  0  0  0  0
  138.0917   65.9683  222.1076 H   0  0  0  0  0  0  0  0  0  0  0  0
  139.8037   66.5121  222.1076 H   0  0  0  0  0  0  0  0  0  0  0  0
  138.7190   68.5545  221.9648 H   0  0  0  0  0  0  0  0  0  0  0  0
  137.3054   68.0012  222.9087 H   0  0  0  0  0  0  0  0  0  0  0  0
  141.1192   71.9272  224.4061 H   0  0  0  0  0  0  0  0  0  0  0  0
  142.0339   72.9180  226.4440 H   0  0  0  0  0  0  0  0  0  0  0  0
  141.4364   72.0531  228.6888 H   0  0  0  0  0  0  0  0  0  0  0  0
  139.8633   70.1255  228.8239 H   0  0  0  0  0  0  0  0  0  0  0  0
  138.9356   69.1178  226.7726 H   0  0  0  0  0  0  0  0  0  0  0  0
  138.8395   70.0716  222.2260 H   0  0  0  0  0  0  0  0  0  0  0  0
  141.2811   71.1143  223.1705 H   0  0  0  0  0  0  0  0  0  0  0  0
  140.6318   70.4084  221.5644 H   0  0  0  0  0  0  0  0  0  0  0  0
  141.4314   72.9942  222.1363 H   0  0  0  0  0  0  0  0  0  0  0  0
  140.6527   72.2563  220.6500 H   0  0  0  0  0  0  0  0  0  0  0  0
  137.9961   75.2622  223.0142 H   0  0  0  0  0  0  0  0  0  0  0  0
  138.3561   76.1437  220.1892 H   0  0  0  0  0  0  0  0  0  0  0  0
  136.9021   75.5749  221.0140 H   0  0  0  0  0  0  0  0  0  0  0  0
  137.7661   78.3150  220.6521 H   0  0  0  0  0  0  0  0  0  0  0  0
  136.3626   77.7949  221.5772 H   0  0  0  0  0  0  0  0  0  0  0  0
  138.5705   78.9691  222.7267 H   0  0  0  0  0  0  0  0  0  0  0  0
  137.5803   77.8294  223.6232 H   0  0  0  0  0  0  0  0  0  0  0  0
  140.8951   76.6364  221.3497 H   0  0  0  0  0  0  0  0  0  0  0  0
  139.6960   77.8929  220.8561 H   0  0  0  0  0  0  0  0  0  0  0  0
  140.9088   77.9339  224.3178 H   0  0  0  0  0  0  0  0  0  0  0  0
  142.3622   79.7382  225.2399 H   0  0  0  0  0  0  0  0  0  0  0  0
  143.4041   81.3729  223.6043 H   0  0  0  0  0  0  0  0  0  0  0  0
  142.9528   81.1285  221.2148 H   0  0  0  0  0  0  0  0  0  0  0  0
  137.2844   73.2596  221.9453 H   0  0  0  0  0  0  0  0  0  0  0  0
  138.0183   71.9269  221.0447 H   0  0  0  0  0  0  0  0  0  0  0  0
  138.3910   72.3685  224.0926 H   0  0  0  0  0  0  0  0  0  0  0  0
  137.1842   71.2580  223.4262 H   0  0  0  0  0  0  0  0  0  0  0  0
  1  2  1  0
  2  3  1  0
  3  4  2  0
  3  5  1  0
  5  6  1  0
  6  7  2  0
  7  8  1  0
  8  9  2  0
  9 10  1  0
 10 11  2  0
  5 12  1  0
 12 13  1  0
 13 14  1  0
 14 15  1  0
 15 16  1  0
 16 17  2  0
 16 18  1  0
 18 19  1  0
 19 20  1  0
 20 21  1  0
 21 22  1  0
 22 23  1  0
 23 24  1  0
 24 25  2  0
 25 26  1  0
 26 27  2  0
 27 28  1  0
 28 29  2  0
 29 30  1  0
 15 31  1  0
 31 32  1  0
 11  6  1  0
 32 12  1  0
 22 18  1  0
 29 24  1  0
  1 33  1  0
  1 34  1  0
  1 35  1  0
  2 36  1  0
  2 37  1  0
  7 38  1  0
  8 39  1  0
  9 40  1  0
 10 41  1  0
 11 42  1  0
 12 43  1  0
 13 44  1  0
 13 45  1  0
 14 46  1  0
 14 47  1  0
 18 48  1  1
 19 49  1  0
 19 50  1  0
 20 51  1  0
 20 52  1  0
 21 53  1  0
 21 54  1  0
 23 55  1  0
 23 56  1  0
 25 57  1  0
 26 58  1  0
 27 59  1  0
 28 60  1  0
 31 61  1  0
 31 62  1  0
 32 63  1  0
 32 64  1  0
M  END
>  <smiles>  (49) 
CCC(=O)N(c1ccccc1)C1CCN(C(=O)[C@@H]2CCCN2Cc2ccccc2Cl)CC1

>  <score_type>  (49) 
oracle

>  <origin>  (49) 
autodockgpu

>  <m_score__min__energy>  (49) 
-9.4600000000000009

>  <m_primary>  (49) 
energy

>  <rmsd>  (49) 
8.13904013531301

>  <m_score__min__rmsd>  (49) 
8.13904013531301

>  <meeko>  (49) 
{"free_energy": -9.4, "intermolecular_energy": -11.49, "internal_energy": -1.71, "cluster_size": 20, "cluster_id": 1, "rank_in_cluster": 2}

>  <energy>  (49) 
-6.55

>  <cluster_rmsd>  (49) 
0.23

>  <cluster>  (49) 
3

$$$$

     RDKit          3D

 64 67  0  0  0  0  0  0  0  0999 V2000
  142.3410   79.3730  218.3180 C   0  0  0  0  0  0  0  0  0  0  0  0
  142.3930   77.8970  218.6060 C   0  0  0  0  0  0  0  0  0  0  0  0
  141.7930   77.6610  219.9430 C   0  0  0  0  0  0  0  0  0  0  0  0
  141.6310   78.7230  220.6400 O   0  0  0  0  0  0  0  0  0  0  0  0
  141.4270   76.3700  220.4250 N   0  0  0  0  0  0  0  0  0  0  0  0
  142.2850   75.2420  220.4420 C   0  0  0  0  0  0  0  0  0  0  0  0
  143.6350   75.3400  220.0710 C   0  0  0  0  0  0  0  0  0  0  0  0
  144.4820   74.2530  220.0950 C   0  0  0  0  0  0  0  0  0  0  0  0
  144.0590   73.0060  220.4830 C   0  0  0  0  0  0  0  0  0  0  0  0
  142.7410   72.8770  220.8510 C   0  0  0  0  0  0  0  0  0  0  0  0
  141.8820   73.9810  220.8270 C   0  0  0  0  0  0  0  0  0  0  0  0
  140.0670   76.2610  220.9560 C   0  0  0  0  0  0  0  0  0  0  0  0
  138.9910   76.4670  219.9560 C   0  0  0  0  0  0  0  0  0  0  0  0
  137.7230   77.0980  220.3880 C   0  0  0  0  0  0  0  0  0  0  0  0
  137.7340   77.5910  221.7750 N   0  0  0  0  0  0  0  0  0  0  0  0
  137.0290   78.7790  222.0140 C   0  0  0  0  0  0  0  0  0  0  0  0
  136.4540   79.2630  220.9530 O   0  0  0  0  0  0  0  0  0  0  0  0
  136.8450   79.5400  223.2340 C   0  0  2  0  0  0  0  0  0  0  0  0
  136.0950   80.8210  223.1850 C   0  0  0  0  0  0  0  0  0  0  0  0
  136.6010   81.6240  224.3730 C   0  0  0  0  0  0  0  0  0  0  0  0
  137.6800   80.7720  224.9640 C   0  0  0  0  0  0  0  0  0  0  0  0
  138.1270   79.9330  223.8280 N   0  0  0  0  0  0  0  0  0  0  0  0
  138.9130   80.7920  222.9640 C   0  0  0  0  0  0  0  0  0  0  0  0
  140.3610   80.4390  223.0450 C   0  0  0  0  0  0  0  0  0  0  0  0
  140.8480   79.4220  223.8370 C   0  0  0  0  0  0  0  0  0  0  0  0
  142.2010   79.1070  223.9030 C   0  0  0  0  0  0  0  0  0  0  0  0
  143.0740   79.8760  223.1190 C   0  0  0  0  0  0  0  0  0  0  0  0
  142.5580   80.8820  222.3420 C   0  0  0  0  0  0  0  0  0  0  0  0
  141.2200   81.2010  222.2690 C   0  0  0  0  0  0  0  0  0  0  0  0
  140.6370   82.4930  221.2570 Cl  0  0  0  0  0  0  0  0  0  0  0  0
  138.4650   76.7890  222.6980 C   0  0  0  0  0  0  0  0  0  0  0  0
  139.9410   76.9340  222.2910 C   0  0  0  0  0  0  0  0  0  0  0  0
  142.3213   79.9310  219.2657 H   0  0  0  0  0  0  0  0  0  0  0  0
  143.2294   79.6651  217.7389 H   0  0  0  0  0  0  0  0  0  0  0  0
  141.4342   79.6019  217.7389 H   0  0  0  0  0  0  0  0  0  0  0  0
  141.8238   77.3486  217.8410 H   0  0  0  0  0  0  0  0  0  0  0  0
  143.4349   77.5447  218.5909 H   0  0  0  0  0  0  0  0  0  0  0  0
  144.0297   76.3155  219.7508 H   0  0  0  0  0  0  0  0  0  0  0  0
  145.5311   74.3891  219.7934 H   0  0  0  0  0  0  0  0  0  0  0  0
  144.7456   72.1467  220.4987 H   0  0  0  0  0  0  0  0  0  0  0  0
  142.3577   71.8958  221.1676 H   0  0  0  0  0  0  0  0  0  0  0  0
  140.8345   73.8359  221.1299 H   0  0  0  0  0  0  0  0  0  0  0  0
  139.8760   75.2035  221.1909 H   0  0  0  0  0  0  0  0  0  0  0  0
  139.4092   77.0971  219.1572 H   0  0  0  0  0  0  0  0  0  0  0  0
  138.6952   75.4464  219.6715 H   0  0  0  0  0  0  0  0  0  0  0  0
  137.5168   77.9485  219.7216 H   0  0  0  0  0  0  0  0  0  0  0  0
  136.9493   76.3178  220.3369 H   0  0  0  0  0  0  0  0  0  0  0  0
  136.2472   78.8103  223.7998 H   0  0  0  0  0  0  0  0  0  0  0  0
  136.3005   81.3527  222.2442 H   0  0  0  0  0  0  0  0  0  0  0  0
  135.0073   80.6629  223.2285 H   0  0  0  0  0  0  0  0  0  0  0  0
  137.0057   82.5926  224.0444 H   0  0  0  0  0  0  0  0  0  0  0  0
  135.8036   81.8527  225.0954 H   0  0  0  0  0  0  0  0  0  0  0  0
  138.5060   81.3919  225.3427 H   0  0  0  0  0  0  0  0  0  0  0  0
  137.3320   80.1777  225.8217 H   0  0  0  0  0  0  0  0  0  0  0  0
  138.5695   80.6717  221.9260 H   0  0  0  0  0  0  0  0  0  0  0  0
  138.7844   81.8346  223.2901 H   0  0  0  0  0  0  0  0  0  0  0  0
  140.1390   78.8364  224.4406 H   0  0  0  0  0  0  0  0  0  0  0  0
  142.5703   78.2910  224.5416 H   0  0  0  0  0  0  0  0  0  0  0  0
  144.1555   79.6754  223.1272 H   0  0  0  0  0  0  0  0  0  0  0  0
  143.2601   81.4738  221.7364 H   0  0  0  0  0  0  0  0  0  0  0  0
  138.3125   77.1503  223.7257 H   0  0  0  0  0  0  0  0  0  0  0  0
  138.1370   75.7393  222.6748 H   0  0  0  0  0  0  0  0  0  0  0  0
  140.2133   77.9968  222.2110 H   0  0  0  0  0  0  0  0  0  0  0  0
  140.6119   76.4819  223.0363 H   0  0  0  0  0  0  0  0  0  0  0  0
  1  2  1  0
  2  3  1  0
  3  4  2  0
  3  5  1  0
  5  6  1  0
  6  7  2  0
  7  8  1  0
  8  9  2  0
  9 10  1  0
 10 11  2  0
  5 12  1  0
 12 13  1  0
 13 14  1  0
 14 15  1  0
 15 16  1  0
 16 17  2  0
 16 18  1  0
 18 19  1  0
 19 20  1  0
 20 21  1  0
 21 22  1  0
 22 23  1  0
 23 24  1  0
 24 25  2  0
 25 26  1  0
 26 27  2  0
 27 28  1  0
 28 29  2  0
 29 30  1  0
 15 31  1  0
 31 32  1  0
 11  6  1  0
 32 12  1  0
 22 18  1  0
 29 24  1  0
  1 33  1  0
  1 34  1  0
  1 35  1  0
  2 36  1  0
  2 37  1  0
  7 38  1  0
  8 39  1  0
  9 40  1  0
 10 41  1  0
 11 42  1  0
 12 43  1  0
 13 44  1  0
 13 45  1  0
 14 46  1  0
 14 47  1  0
 18 48  1  1
 19 49  1  0
 19 50  1  0
 20 51  1  0
 20 52  1  0
 21 53  1  0
 21 54  1  0
 23 55  1  0
 23 56  1  0
 25 57  1  0
 26 58  1  0
 27 59  1  0
 28 60  1  0
 31 61  1  0
 31 62  1  0
 32 63  1  0
 32 64  1  0
M  END
>  <smiles>  (50) 
CCC(=O)N(c1ccccc1)C1CCN(C(=O)[C@@H]2CCCN2Cc2ccccc2Cl)CC1

>  <score_type>  (50) 
oracle

>  <origin>  (50) 
autodockgpu

>  <m_score__min__energy>  (50) 
-9.4600000000000009

>  <m_primary>  (50) 
energy

>  <rmsd>  (50) 
8.16260414490826

>  <m_score__min__rmsd>  (50) 
8.16260414490826

>  <meeko>  (50) 
{"free_energy": -6.85, "intermolecular_energy": -8.94, "internal_energy": -3.29, "cluster_size": 8, "cluster_id": 3, "rank_in_cluster": 1}

>  <energy>  (50) 
-6.54

>  <cluster_rmsd>  (50) 
0.46

>  <cluster>  (50) 
3

$$$$
