
     RDKit          3D

 69 72  0  0  0  0  0  0  0  0999 V2000
  143.2390   76.7640  219.0450 C   0  0  0  0  0  0  0  0  0  0  0  0
  142.5810   78.0090  218.4130 C   0  0  0  0  0  0  0  0  0  0  0  0
  142.0260   78.8570  219.4600 C   0  0  0  0  0  0  0  0  0  0  0  0
  142.1870   80.1260  219.3040 O   0  0  0  0  0  0  0  0  0  0  0  0
  141.3350   78.4810  220.6210 N   0  0  0  0  0  0  0  0  0  0  0  0
  141.4450   79.4200  221.7320 C   0  0  0  0  0  0  0  0  0  0  0  0
  142.6070   79.3650  222.4830 C   0  0  0  0  0  0  0  0  0  0  0  0
  142.7890   80.2140  223.5460 C   0  0  0  0  0  0  0  0  0  0  0  0
  141.7790   81.1110  223.8280 C   0  0  0  0  0  0  0  0  0  0  0  0
  140.6180   81.1700  223.0830 C   0  0  0  0  0  0  0  0  0  0  0  0
  140.4220   80.3080  221.9980 C   0  0  0  0  0  0  0  0  0  0  0  0
  140.5450   77.3200  220.8610 C   0  0  0  0  0  0  0  0  0  0  0  0
  139.3810   77.1980  219.8820 C   0  0  0  0  0  0  0  0  0  0  0  0
  138.9290   75.7910  219.8440 C   0  0  0  0  0  0  0  0  0  0  0  0
  139.0550   75.1480  221.1390 N   0  0  0  0  0  0  0  0  0  0  0  0
  138.5940   73.7860  221.1390 C   0  0  0  0  0  0  0  0  0  0  0  0
  138.1590   73.3920  220.0060 O   0  0  0  0  0  0  0  0  0  0  0  0
  138.5620   72.8310  222.2310 C   0  0  1  0  0  0  0  0  0  0  0  0
  137.3850   72.0460  222.2430 N   0  0  0  0  0  0  0  0  0  0  0  0
  139.8330   71.9800  222.2170 C   0  0  0  0  0  0  0  0  0  0  0  0
  139.7380   70.9650  221.1070 C   0  0  0  0  0  0  0  0  0  0  0  0
  141.0460   72.8330  221.9540 C   0  0  0  0  0  0  0  0  0  0  0  0
  139.9450   71.3010  223.5150 C   0  0  0  0  0  0  0  0  0  0  0  0
  139.5260   69.9770  223.6300 C   0  0  0  0  0  0  0  0  0  0  0  0
  139.5900   69.2840  224.8220 C   0  0  0  0  0  0  0  0  0  0  0  0
  140.0790   69.8850  225.9640 C   0  0  0  0  0  0  0  0  0  0  0  0
  140.1700   69.2500  227.1810 C   0  0  0  0  0  0  0  0  0  0  0  0
  140.6710   69.9090  228.2990 C   0  0  0  0  0  0  0  0  0  0  0  0
  141.0980   71.2250  228.2240 C   0  0  0  0  0  0  0  0  0  0  0  0
  140.9960   71.8350  226.9910 C   0  0  0  0  0  0  0  0  0  0  0  0
  140.4990   71.1930  225.8710 C   0  0  0  0  0  0  0  0  0  0  0  0
  140.4300   71.8810  224.6680 C   0  0  0  0  0  0  0  0  0  0  0  0
  139.5600   75.6910  222.3440 C   0  0  0  0  0  0  0  0  0  0  0  0
  140.0330   77.1370  222.2550 C   0  0  0  0  0  0  0  0  0  0  0  0
  143.1969   76.8437  220.1413 H   0  0  0  0  0  0  0  0  0  0  0  0
  142.7005   75.8609  218.7220 H   0  0  0  0  0  0  0  0  0  0  0  0
  144.2886   76.7002  218.7220 H   0  0  0  0  0  0  0  0  0  0  0  0
  143.3363   78.5740  217.8470 H   0  0  0  0  0  0  0  0  0  0  0  0
  141.7740   77.6904  217.7367 H   0  0  0  0  0  0  0  0  0  0  0  0
  143.3896   78.6359  222.2260 H   0  0  0  0  0  0  0  0  0  0  0  0
  143.7069   80.1806  224.1513 H   0  0  0  0  0  0  0  0  0  0  0  0
  141.9030   81.8022  224.6747 H   0  0  0  0  0  0  0  0  0  0  0  0
  139.8395   81.9017  223.3448 H   0  0  0  0  0  0  0  0  0  0  0  0
  139.5047   80.3364  221.3915 H   0  0  0  0  0  0  0  0  0  0  0  0
  141.2723   76.5105  220.7004 H   0  0  0  0  0  0  0  0  0  0  0  0
  138.5528   77.8426  220.2117 H   0  0  0  0  0  0  0  0  0  0  0  0
  139.7051   77.5113  218.8786 H   0  0  0  0  0  0  0  0  0  0  0  0
  137.8737   75.7645  219.5347 H   0  0  0  0  0  0  0  0  0  0  0  0
  139.5648   75.2474  219.1296 H   0  0  0  0  0  0  0  0  0  0  0  0
  138.5357   73.3978  223.1734 H   0  0  0  0  0  0  0  0  0  0  0  0
  136.7210   72.2030  223.0180 H   0  0  0  0  0  0  0  0  0  0  0  0
  136.8610   72.0500  221.3560 H   0  0  0  0  0  0  0  0  0  0  0  0
  139.6437   69.9575  221.5385 H   0  0  0  0  0  0  0  0  0  0  0  0
  138.8562   71.1820  220.4862 H   0  0  0  0  0  0  0  0  0  0  0  0
  140.6447   71.0146  220.4862 H   0  0  0  0  0  0  0  0  0  0  0  0
  141.4895   73.1448  222.9111 H   0  0  0  0  0  0  0  0  0  0  0  0
  141.7839   72.2539  221.3794 H   0  0  0  0  0  0  0  0  0  0  0  0
  140.7506   73.7233  221.3794 H   0  0  0  0  0  0  0  0  0  0  0  0
  139.1304   69.4662  222.7397 H   0  0  0  0  0  0  0  0  0  0  0  0
  139.2469   68.2396  224.8622 H   0  0  0  0  0  0  0  0  0  0  0  0
  139.8413   68.2042  227.2715 H   0  0  0  0  0  0  0  0  0  0  0  0
  140.7292   69.3760  229.2595 H   0  0  0  0  0  0  0  0  0  0  0  0
  141.4972   71.7552  229.1012 H   0  0  0  0  0  0  0  0  0  0  0  0
  141.3250   72.8801  226.8939 H   0  0  0  0  0  0  0  0  0  0  0  0
  140.7741   72.9252  224.6330 H   0  0  0  0  0  0  0  0  0  0  0  0
  138.7635   75.6393  223.1009 H   0  0  0  0  0  0  0  0  0  0  0  0
  140.4479   75.0942  222.5997 H   0  0  0  0  0  0  0  0  0  0  0  0
  139.1967   77.8250  222.4481 H   0  0  0  0  0  0  0  0  0  0  0  0
  140.8121   77.3521  223.0012 H   0  0  0  0  0  0  0  0  0  0  0  0
  1  2  1  0
  2  3  1  0
  3  4  2  0
  3  5  1  0
  5  6  1  0
  6  7  2  0
  7  8  1  0
  8  9  2  0
  9 10  1  0
 10 11  2  0
  5 12  1  0
 12 13  1  0
 13 14  1  0
 14 15  1  0
 15 16  1  0
 16 17  2  0
 16 18  1  0
 18 19  1  0
 18 20  1  0
 20 21  1  0
 20 22  1  0
 20 23  1  0
 23 24  2  0
 24 25  1  0
 25 26  2  0
 26 27  1  0
 27 28  2  0
 28 29  1  0
 29 30  2  0
 30 31  1  0
 31 32  2  0
 15 33  1  0
 33 34  1  0
 11  6  1  0
 34 12  1  0
 32 23  1  0
 31 26  1  0
  1 35  1  0
  1 36  1  0
  1 37  1  0
  2 38  1  0
  2 39  1  0
  7 40  1  0
  8 41  1  0
  9 42  1  0
 10 43  1  0
 11 44  1  0
 12 45  1  0
 13 46  1  0
 13 47  1  0
 14 48  1  0
 14 49  1  0
 18 50  1  1
 19 51  1  0
 19 52  1  0
 21 53  1  0
 21 54  1  0
 21 55  1  0
 22 56  1  0
 22 57  1  0
 22 58  1  0
 24 59  1  0
 25 60  1  0
 27 61  1  0
 28 62  1  0
 29 63  1  0
 30 64  1  0
 32 65  1  0
 33 66  1  0
 33 67  1  0
 34 68  1  0
 34 69  1  0
M  END
>  <smiles>  (1) 
CCC(=O)N(c1ccccc1)C1CCN(C(=O)[C@@H](N)C(C)(C)c2ccc3ccccc3c2)CC1

>  <score_type>  (1) 
oracle

>  <origin>  (1) 
autodockgpu

>  <m_score__min__energy>  (1) 
-9.1699999999999999

>  <m_primary>  (1) 
energy

>  <rmsd>  (1) 
2.272830202012869

>  <m_score__min__rmsd>  (1) 
2.272830202012869

>  <meeko>  (1) 
{"free_energy": -8.65, "intermolecular_energy": -11.04, "internal_energy": -2.62, "cluster_size": 32, "cluster_id": 1, "rank_in_cluster": 11}

>  <energy>  (1) 
-9.17

>  <cluster_rmsd>  (1) 
0.0

>  <cluster>  (1) 
1

$$$$

     RDKit          3D

 69 72  0  0  0  0  0  0  0  0999 V2000
  142.2050   80.9520  217.8990 C   0  0  0  0  0  0  0  0  0  0  0  0
  141.2530   79.7920  218.2580 C   0  0  0  0  0  0  0  0  0  0  0  0
  142.0230   78.6560  218.7460 C   0  0  0  0  0  0  0  0  0  0  0  0
  143.0400   78.3140  218.0330 O   0  0  0  0  0  0  0  0  0  0  0  0
  141.8110   77.8780  219.8950 N   0  0  0  0  0  0  0  0  0  0  0  0
  141.7640   78.6290  221.1440 C   0  0  0  0  0  0  0  0  0  0  0  0
  141.2970   77.9530  222.2610 C   0  0  0  0  0  0  0  0  0  0  0  0
  141.2200   78.5870  223.4750 C   0  0  0  0  0  0  0  0  0  0  0  0
  141.6230   79.9060  223.5350 C   0  0  0  0  0  0  0  0  0  0  0  0
  142.0890   80.5840  222.4260 C   0  0  0  0  0  0  0  0  0  0  0  0
  142.1700   79.9470  221.1820 C   0  0  0  0  0  0  0  0  0  0  0  0
  141.6320   76.4690  220.0050 C   0  0  0  0  0  0  0  0  0  0  0  0
  142.9580   75.7200  220.0900 C   0  0  0  0  0  0  0  0  0  0  0  0
  142.7230   74.3910  220.6930 C   0  0  0  0  0  0  0  0  0  0  0  0
  141.4330   73.8460  220.3120 N   0  0  0  0  0  0  0  0  0  0  0  0
  141.1900   72.5390  220.8600 C   0  0  0  0  0  0  0  0  0  0  0  0
  142.1480   72.0980  221.5770 O   0  0  0  0  0  0  0  0  0  0  0  0
  140.0270   71.6840  220.7050 C   0  0  1  0  0  0  0  0  0  0  0  0
  140.3480   70.3070  220.7240 N   0  0  0  0  0  0  0  0  0  0  0  0
  138.9680   72.0530  221.7450 C   0  0  0  0  0  0  0  0  0  0  0  0
  138.9800   73.5450  221.9600 C   0  0  0  0  0  0  0  0  0  0  0  0
  137.5920   71.6710  221.2670 C   0  0  0  0  0  0  0  0  0  0  0  0
  139.2950   71.3590  222.9980 C   0  0  0  0  0  0  0  0  0  0  0  0
  138.8170   70.0660  223.2070 C   0  0  0  0  0  0  0  0  0  0  0  0
  139.0740   69.3630  224.3660 C   0  0  0  0  0  0  0  0  0  0  0  0
  139.8270   69.9210  225.3790 C   0  0  0  0  0  0  0  0  0  0  0  0
  140.1200   69.2730  226.5570 C   0  0  0  0  0  0  0  0  0  0  0  0
  140.8840   69.8890  227.5450 C   0  0  0  0  0  0  0  0  0  0  0  0
  141.3760   71.1710  227.3730 C   0  0  0  0  0  0  0  0  0  0  0  0
  141.0680   71.7960  226.1830 C   0  0  0  0  0  0  0  0  0  0  0  0
  140.3090   71.1970  225.1930 C   0  0  0  0  0  0  0  0  0  0  0  0
  140.0440   71.8960  224.0230 C   0  0  0  0  0  0  0  0  0  0  0  0
  140.4350   74.4350  219.4990 C   0  0  0  0  0  0  0  0  0  0  0  0
  140.7700   75.8230  218.9650 C   0  0  0  0  0  0  0  0  0  0  0  0
  142.5843   81.4142  218.8223 H   0  0  0  0  0  0  0  0  0  0  0  0
  143.0490   80.5646  217.3094 H   0  0  0  0  0  0  0  0  0  0  0  0
  141.6604   81.7042  217.3094 H   0  0  0  0  0  0  0  0  0  0  0  0
  140.5534   80.1222  219.0400 H   0  0  0  0  0  0  0  0  0  0  0  0
  140.6911   79.4920  217.3612 H   0  0  0  0  0  0  0  0  0  0  0  0
  140.9862   76.9015  222.1730 H   0  0  0  0  0  0  0  0  0  0  0  0
  140.8503   78.0631  224.3688 H   0  0  0  0  0  0  0  0  0  0  0  0
  141.5712   80.4345  224.4983 H   0  0  0  0  0  0  0  0  0  0  0  0
  142.3996   81.6349  222.5209 H   0  0  0  0  0  0  0  0  0  0  0  0
  142.5367   80.4680  220.2853 H   0  0  0  0  0  0  0  0  0  0  0  0
  141.0780   76.3810  220.9512 H   0  0  0  0  0  0  0  0  0  0  0  0
  143.3778   75.5979  219.0806 H   0  0  0  0  0  0  0  0  0  0  0  0
  143.6668   76.2889  220.7097 H   0  0  0  0  0  0  0  0  0  0  0  0
  143.5131   73.7032  220.3574 H   0  0  0  0  0  0  0  0  0  0  0  0
  142.7360   74.5051  221.7870 H   0  0  0  0  0  0  0  0  0  0  0  0
  139.6071   71.8636  219.7043 H   0  0  0  0  0  0  0  0  0  0  0  0
  141.2450   70.0380  221.1590 H   0  0  0  0  0  0  0  0  0  0  0  0
  139.6050   69.7020  221.1040 H   0  0  0  0  0  0  0  0  0  0  0  0
  138.9817   73.7600  223.0388 H   0  0  0  0  0  0  0  0  0  0  0  0
  139.8816   73.9746  221.4991 H   0  0  0  0  0  0  0  0  0  0  0  0
  138.0854   73.9891  221.4991 H   0  0  0  0  0  0  0  0  0  0  0  0
  136.9398   71.4899  222.1341 H   0  0  0  0  0  0  0  0  0  0  0  0
  137.1753   72.4874  220.6589 H   0  0  0  0  0  0  0  0  0  0  0  0
  137.6558   70.7566  220.6589 H   0  0  0  0  0  0  0  0  0  0  0  0
  138.2137   69.5896  222.4201 H   0  0  0  0  0  0  0  0  0  0  0  0
  138.6738   68.3452  224.4841 H   0  0  0  0  0  0  0  0  0  0  0  0
  139.7447   68.2521  226.7209 H   0  0  0  0  0  0  0  0  0  0  0  0
  141.1000   69.3475  228.4778 H   0  0  0  0  0  0  0  0  0  0  0  0
  141.9819   71.6662  228.1461 H   0  0  0  0  0  0  0  0  0  0  0  0
  141.4423   72.8163  226.0131 H   0  0  0  0  0  0  0  0  0  0  0  0
  140.4458   72.9138  223.9101 H   0  0  0  0  0  0  0  0  0  0  0  0
  140.2615   73.7719  218.6386 H   0  0  0  0  0  0  0  0  0  0  0  0
  139.5513   74.5599  220.1420 H   0  0  0  0  0  0  0  0  0  0  0  0
  141.3143   75.7448  218.0123 H   0  0  0  0  0  0  0  0  0  0  0  0
  139.8604   76.4112  218.7738 H   0  0  0  0  0  0  0  0  0  0  0  0
  1  2  1  0
  2  3  1  0
  3  4  2  0
  3  5  1  0
  5  6  1  0
  6  7  2  0
  7  8  1  0
  8  9  2  0
  9 10  1  0
 10 11  2  0
  5 12  1  0
 12 13  1  0
 13 14  1  0
 14 15  1  0
 15 16  1  0
 16 17  2  0
 16 18  1  0
 18 19  1  0
 18 20  1  0
 20 21  1  0
 20 22  1  0
 20 23  1  0
 23 24  2  0
 24 25  1  0
 25 26  2  0
 26 27  1  0
 27 28  2  0
 28 29  1  0
 29 30  2  0
 30 31  1  0
 31 32  2  0
 15 33  1  0
 33 34  1  0
 11  6  1  0
 34 12  1  0
 32 23  1  0
 31 26  1  0
  1 35  1  0
  1 36  1  0
  1 37  1  0
  2 38  1  0
  2 39  1  0
  7 40  1  0
  8 41  1  0
  9 42  1  0
 10 43  1  0
 11 44  1  0
 12 45  1  0
 13 46  1  0
 13 47  1  0
 14 48  1  0
 14 49  1  0
 18 50  1  6
 19 51  1  0
 19 52  1  0
 21 53  1  0
 21 54  1  0
 21 55  1  0
 22 56  1  0
 22 57  1  0
 22 58  1  0
 24 59  1  0
 25 60  1  0
 27 61  1  0
 28 62  1  0
 29 63  1  0
 30 64  1  0
 32 65  1  0
 33 66  1  0
 33 67  1  0
 34 68  1  0
 34 69  1  0
M  END
>  <smiles>  (2) 
CCC(=O)N(c1ccccc1)C1CCN(C(=O)[C@@H](N)C(C)(C)c2ccc3ccccc3c2)CC1

>  <score_type>  (2) 
oracle

>  <origin>  (2) 
autodockgpu

>  <m_score__min__energy>  (2) 
-9.1699999999999999

>  <m_primary>  (2) 
energy

>  <rmsd>  (2) 
2.9567769105415422

>  <m_score__min__rmsd>  (2) 
2.9567769105415422

>  <meeko>  (2) 
{"free_energy": -7.62, "intermolecular_energy": -10.01, "internal_energy": -2.47, "cluster_size": 32, "cluster_id": 1, "rank_in_cluster": 32}

>  <energy>  (2) 
-9.15

>  <cluster_rmsd>  (2) 
0.25

>  <cluster>  (2) 
1

$$$$

     RDKit          3D

 69 72  0  0  0  0  0  0  0  0999 V2000
  143.2510   76.6850  219.0440 C   0  0  0  0  0  0  0  0  0  0  0  0
  142.5790   77.9200  218.4060 C   0  0  0  0  0  0  0  0  0  0  0  0
  142.0230   78.7710  219.4490 C   0  0  0  0  0  0  0  0  0  0  0  0
  142.1680   80.0410  219.2800 O   0  0  0  0  0  0  0  0  0  0  0  0
  141.3450   78.3990  220.6190 N   0  0  0  0  0  0  0  0  0  0  0  0
  141.4890   79.3270  221.7340 C   0  0  0  0  0  0  0  0  0  0  0  0
  140.4880   80.2720  221.8940 C   0  0  0  0  0  0  0  0  0  0  0  0
  140.5490   81.1830  222.9190 C   0  0  0  0  0  0  0  0  0  0  0  0
  141.6340   81.1180  223.7690 C   0  0  0  0  0  0  0  0  0  0  0  0
  142.6350   80.1790  223.6140 C   0  0  0  0  0  0  0  0  0  0  0  0
  142.5830   79.2460  222.5730 C   0  0  0  0  0  0  0  0  0  0  0  0
  140.5380   77.2500  220.8630 C   0  0  0  0  0  0  0  0  0  0  0  0
  139.3470   77.1650  219.9140 C   0  0  0  0  0  0  0  0  0  0  0  0
  138.8660   75.7670  219.8690 C   0  0  0  0  0  0  0  0  0  0  0  0
  139.0130   75.1040  221.1510 N   0  0  0  0  0  0  0  0  0  0  0  0
  138.5250   73.7520  221.1440 C   0  0  0  0  0  0  0  0  0  0  0  0
  138.0530   73.3820  220.0180 O   0  0  0  0  0  0  0  0  0  0  0  0
  138.5020   72.7820  222.2240 C   0  0  1  0  0  0  0  0  0  0  0  0
  137.3390   71.9780  222.2190 N   0  0  0  0  0  0  0  0  0  0  0  0
  139.7870   71.9520  222.2060 C   0  0  0  0  0  0  0  0  0  0  0  0
  139.6990   70.9250  221.1070 C   0  0  0  0  0  0  0  0  0  0  0  0
  140.9830   72.8220  221.9230 C   0  0  0  0  0  0  0  0  0  0  0  0
  139.9230   71.2880  223.5090 C   0  0  0  0  0  0  0  0  0  0  0  0
  139.5150   69.9620  223.6450 C   0  0  0  0  0  0  0  0  0  0  0  0
  139.6010   69.2830  224.8430 C   0  0  0  0  0  0  0  0  0  0  0  0
  140.1020   69.8990  225.9710 C   0  0  0  0  0  0  0  0  0  0  0  0
  140.2140   69.2780  227.1940 C   0  0  0  0  0  0  0  0  0  0  0  0
  140.7270   69.9530  228.2980 C   0  0  0  0  0  0  0  0  0  0  0  0
  141.1420   71.2700  228.2020 C   0  0  0  0  0  0  0  0  0  0  0  0
  141.0190   71.8670  226.9650 C   0  0  0  0  0  0  0  0  0  0  0  0
  140.5100   71.2090  225.8590 C   0  0  0  0  0  0  0  0  0  0  0  0
  140.4190   71.8840  224.6490 C   0  0  0  0  0  0  0  0  0  0  0  0
  139.5600   75.6190  222.3500 C   0  0  0  0  0  0  0  0  0  0  0  0
  140.0590   77.0570  222.2680 C   0  0  0  0  0  0  0  0  0  0  0  0
  143.2058   76.7681  220.1399 H   0  0  0  0  0  0  0  0  0  0  0  0
  142.7241   75.7742  218.7233 H   0  0  0  0  0  0  0  0  0  0  0  0
  144.3019   76.6328  218.7233 H   0  0  0  0  0  0  0  0  0  0  0  0
  143.3264   78.4869  217.8316 H   0  0  0  0  0  0  0  0  0  0  0  0
  141.7710   77.5895  217.7367 H   0  0  0  0  0  0  0  0  0  0  0  0
  139.6389   80.2922  221.1949 H   0  0  0  0  0  0  0  0  0  0  0  0
  139.7610   81.9379  223.0578 H   0  0  0  0  0  0  0  0  0  0  0  0
  141.7041   81.8380  224.5977 H   0  0  0  0  0  0  0  0  0  0  0  0
  143.4816   80.1647  224.3162 H   0  0  0  0  0  0  0  0  0  0  0  0
  143.3694   78.4902  222.4307 H   0  0  0  0  0  0  0  0  0  0  0  0
  141.2443   76.4288  220.6712 H   0  0  0  0  0  0  0  0  0  0  0  0
  138.5408   77.8210  220.2742 H   0  0  0  0  0  0  0  0  0  0  0  0
  139.6507   77.4861  218.9067 H   0  0  0  0  0  0  0  0  0  0  0  0
  137.8026   75.7654  219.5874 H   0  0  0  0  0  0  0  0  0  0  0  0
  139.4719   75.2211  219.1308 H   0  0  0  0  0  0  0  0  0  0  0  0
  138.4605   73.3361  223.1734 H   0  0  0  0  0  0  0  0  0  0  0  0
  136.7750   71.9690  221.3550 H   0  0  0  0  0  0  0  0  0  0  0  0
  137.4930   71.0040  222.5190 H   0  0  0  0  0  0  0  0  0  0  0  0
  139.6130   69.9214  221.5490 H   0  0  0  0  0  0  0  0  0  0  0  0
  138.8150   71.1286  220.4848 H   0  0  0  0  0  0  0  0  0  0  0  0
  140.6047   70.9752  220.4848 H   0  0  0  0  0  0  0  0  0  0  0  0
  141.4318   73.1485  222.8727 H   0  0  0  0  0  0  0  0  0  0  0  0
  141.7238   72.2502  221.3448 H   0  0  0  0  0  0  0  0  0  0  0  0
  140.6671   73.7028  221.3448 H   0  0  0  0  0  0  0  0  0  0  0  0
  139.1102   69.4386  222.7663 H   0  0  0  0  0  0  0  0  0  0  0  0
  139.2657   68.2369  224.8994 H   0  0  0  0  0  0  0  0  0  0  0  0
  139.8930   68.2313  227.3008 H   0  0  0  0  0  0  0  0  0  0  0  0
  140.8039   69.4309  229.2632 H   0  0  0  0  0  0  0  0  0  0  0  0
  141.5490   71.8126  229.0680 H   0  0  0  0  0  0  0  0  0  0  0  0
  141.3398   72.9131  226.8523 H   0  0  0  0  0  0  0  0  0  0  0  0
  140.7542   72.9304  224.5982 H   0  0  0  0  0  0  0  0  0  0  0  0
  138.7827   75.5719  223.1269 H   0  0  0  0  0  0  0  0  0  0  0  0
  140.4420   75.0011  222.5744 H   0  0  0  0  0  0  0  0  0  0  0  0
  139.2418   77.7582  222.4926 H   0  0  0  0  0  0  0  0  0  0  0  0
  140.8616   77.2463  222.9961 H   0  0  0  0  0  0  0  0  0  0  0  0
  1  2  1  0
  2  3  1  0
  3  4  2  0
  3  5  1  0
  5  6  1  0
  6  7  2  0
  7  8  1  0
  8  9  2  0
  9 10  1  0
 10 11  2  0
  5 12  1  0
 12 13  1  0
 13 14  1  0
 14 15  1  0
 15 16  1  0
 16 17  2  0
 16 18  1  0
 18 19  1  0
 18 20  1  0
 20 21  1  0
 20 22  1  0
 20 23  1  0
 23 24  2  0
 24 25  1  0
 25 26  2  0
 26 27  1  0
 27 28  2  0
 28 29  1  0
 29 30  2  0
 30 31  1  0
 31 32  2  0
 15 33  1  0
 33 34  1  0
 11  6  1  0
 34 12  1  0
 32 23  1  0
 31 26  1  0
  1 35  1  0
  1 36  1  0
  1 37  1  0
  2 38  1  0
  2 39  1  0
  7 40  1  0
  8 41  1  0
  9 42  1  0
 10 43  1  0
 11 44  1  0
 12 45  1  0
 13 46  1  0
 13 47  1  0
 14 48  1  0
 14 49  1  0
 18 50  1  1
 19 51  1  0
 19 52  1  0
 21 53  1  0
 21 54  1  0
 21 55  1  0
 22 56  1  0
 22 57  1  0
 22 58  1  0
 24 59  1  0
 25 60  1  0
 27 61  1  0
 28 62  1  0
 29 63  1  0
 30 64  1  0
 32 65  1  0
 33 66  1  0
 33 67  1  0
 34 68  1  0
 34 69  1  0
M  END
>  <smiles>  (3) 
CCC(=O)N(c1ccccc1)C1CCN(C(=O)[C@@H](N)C(C)(C)c2ccc3ccccc3c2)CC1

>  <score_type>  (3) 
oracle

>  <origin>  (3) 
autodockgpu

>  <m_score__min__energy>  (3) 
-9.1699999999999999

>  <m_primary>  (3) 
energy

>  <rmsd>  (3) 
2.2641158569048785

>  <m_score__min__rmsd>  (3) 
2.2641158569048785

>  <meeko>  (3) 
{"free_energy": -8.54, "intermolecular_energy": -10.93, "internal_energy": -2.58, "cluster_size": 32, "cluster_id": 1, "rank_in_cluster": 14}

>  <energy>  (3) 
-9.13

>  <cluster_rmsd>  (3) 
0.25

>  <cluster>  (3) 
1

$$$$

     RDKit          3D

 69 72  0  0  0  0  0  0  0  0999 V2000
  143.2740   76.6260  219.0560 C   0  0  0  0  0  0  0  0  0  0  0  0
  142.5640   77.8210  218.3850 C   0  0  0  0  0  0  0  0  0  0  0  0
  141.9530   78.6660  219.4020 C   0  0  0  0  0  0  0  0  0  0  0  0
  142.0070   79.9360  219.1880 O   0  0  0  0  0  0  0  0  0  0  0  0
  141.3090   78.2870  220.5890 N   0  0  0  0  0  0  0  0  0  0  0  0
  141.4540   79.2280  221.6940 C   0  0  0  0  0  0  0  0  0  0  0  0
  140.4470   80.1650  221.8520 C   0  0  0  0  0  0  0  0  0  0  0  0
  140.5080   81.0870  222.8670 C   0  0  0  0  0  0  0  0  0  0  0  0
  141.6000   81.0390  223.7100 C   0  0  0  0  0  0  0  0  0  0  0  0
  142.6070   80.1070  223.5570 C   0  0  0  0  0  0  0  0  0  0  0  0
  142.5550   79.1630  222.5250 C   0  0  0  0  0  0  0  0  0  0  0  0
  140.5350   77.1220  220.8590 C   0  0  0  0  0  0  0  0  0  0  0  0
  139.3770   76.9540  219.8800 C   0  0  0  0  0  0  0  0  0  0  0  0
  138.9460   75.5390  219.8810 C   0  0  0  0  0  0  0  0  0  0  0  0
  139.0770   74.9350  221.1940 N   0  0  0  0  0  0  0  0  0  0  0  0
  138.6370   73.5680  221.2310 C   0  0  0  0  0  0  0  0  0  0  0  0
  138.2130   73.1350  220.1090 O   0  0  0  0  0  0  0  0  0  0  0  0
  138.6150   72.6440  222.3510 C   0  0  1  0  0  0  0  0  0  0  0  0
  137.4090   71.9100  222.4370 N   0  0  0  0  0  0  0  0  0  0  0  0
  139.8480   71.7400  222.3040 C   0  0  0  0  0  0  0  0  0  0  0  0
  139.6310   70.6570  221.2790 C   0  0  0  0  0  0  0  0  0  0  0  0
  141.0690   72.5200  221.8930 C   0  0  0  0  0  0  0  0  0  0  0  0
  140.0320   71.1470  223.6360 C   0  0  0  0  0  0  0  0  0  0  0  0
  140.6810   71.8830  224.6260 C   0  0  0  0  0  0  0  0  0  0  0  0
  140.9000   71.3810  225.8930 C   0  0  0  0  0  0  0  0  0  0  0  0
  140.4790   70.1120  226.2340 C   0  0  0  0  0  0  0  0  0  0  0  0
  140.6660   69.5550  227.4780 C   0  0  0  0  0  0  0  0  0  0  0  0
  140.2190   68.2680  227.7630 C   0  0  0  0  0  0  0  0  0  0  0  0
  139.5710   67.5070  226.8050 C   0  0  0  0  0  0  0  0  0  0  0  0
  139.3960   68.0910  225.5670 C   0  0  0  0  0  0  0  0  0  0  0  0
  139.8360   69.3690  225.2700 C   0  0  0  0  0  0  0  0  0  0  0  0
  139.6200   69.8830  223.9980 C   0  0  0  0  0  0  0  0  0  0  0  0
  139.5690   75.5200  222.3850 C   0  0  0  0  0  0  0  0  0  0  0  0
  140.0210   76.9700  222.2560 C   0  0  0  0  0  0  0  0  0  0  0  0
  143.2124   76.7297  220.1494 H   0  0  0  0  0  0  0  0  0  0  0  0
  142.7857   75.6896  218.7484 H   0  0  0  0  0  0  0  0  0  0  0  0
  144.3300   76.6071  218.7484 H   0  0  0  0  0  0  0  0  0  0  0  0
  143.2983   78.4088  217.8147 H   0  0  0  0  0  0  0  0  0  0  0  0
  141.7830   77.4457  217.7073 H   0  0  0  0  0  0  0  0  0  0  0  0
  139.5924   80.1706  221.1595 H   0  0  0  0  0  0  0  0  0  0  0  0
  139.7152   81.8372  223.0037 H   0  0  0  0  0  0  0  0  0  0  0  0
  141.6702   81.7676  224.5311 H   0  0  0  0  0  0  0  0  0  0  0  0
  143.4587   80.1063  224.2531 H   0  0  0  0  0  0  0  0  0  0  0  0
  143.3462   78.4120  222.3839 H   0  0  0  0  0  0  0  0  0  0  0  0
  141.2752   76.3197  220.7234 H   0  0  0  0  0  0  0  0  0  0  0  0
  138.5379   77.5952  220.1880 H   0  0  0  0  0  0  0  0  0  0  0  0
  139.7005   77.2429  218.8691 H   0  0  0  0  0  0  0  0  0  0  0  0
  137.8923   75.4879  219.5694 H   0  0  0  0  0  0  0  0  0  0  0  0
  139.5925   74.9849  219.1845 H   0  0  0  0  0  0  0  0  0  0  0  0
  138.6543   73.2359  223.2773 H   0  0  0  0  0  0  0  0  0  0  0  0
  136.7790   72.1270  223.2250 H   0  0  0  0  0  0  0  0  0  0  0  0
  136.8540   71.8990  221.5680 H   0  0  0  0  0  0  0  0  0  0  0  0
  139.4396   69.7018  221.7898 H   0  0  0  0  0  0  0  0  0  0  0  0
  138.7669   70.9158  220.6495 H   0  0  0  0  0  0  0  0  0  0  0  0
  140.5281   70.5629  220.6495 H   0  0  0  0  0  0  0  0  0  0  0  0
  141.6048   72.8623  222.7907 H   0  0  0  0  0  0  0  0  0  0  0  0
  141.7305   71.8768  221.2941 H   0  0  0  0  0  0  0  0  0  0  0  0
  140.7635   73.3906  221.2941 H   0  0  0  0  0  0  0  0  0  0  0  0
  141.0306   72.8988  224.3894 H   0  0  0  0  0  0  0  0  0  0  0  0
  141.4169   72.0007  226.6406 H   0  0  0  0  0  0  0  0  0  0  0  0
  141.1769   70.1360  228.2599 H   0  0  0  0  0  0  0  0  0  0  0  0
  140.3834   67.8484  228.7665 H   0  0  0  0  0  0  0  0  0  0  0  0
  139.2139   66.4890  227.0197 H   0  0  0  0  0  0  0  0  0  0  0  0
  138.8842   67.5153  224.7817 H   0  0  0  0  0  0  0  0  0  0  0  0
  139.1023   69.2597  223.2541 H   0  0  0  0  0  0  0  0  0  0  0  0
  138.7702   75.4782  223.1401 H   0  0  0  0  0  0  0  0  0  0  0  0
  140.4645   74.9440  222.6612 H   0  0  0  0  0  0  0  0  0  0  0  0
  139.1739   77.6506  222.4272 H   0  0  0  0  0  0  0  0  0  0  0  0
  140.7947   77.2172  222.9979 H   0  0  0  0  0  0  0  0  0  0  0  0
  1  2  1  0
  2  3  1  0
  3  4  2  0
  3  5  1  0
  5  6  1  0
  6  7  2  0
  7  8  1  0
  8  9  2  0
  9 10  1  0
 10 11  2  0
  5 12  1  0
 12 13  1  0
 13 14  1  0
 14 15  1  0
 15 16  1  0
 16 17  2  0
 16 18  1  0
 18 19  1  0
 18 20  1  0
 20 21  1  0
 20 22  1  0
 20 23  1  0
 23 24  2  0
 24 25  1  0
 25 26  2  0
 26 27  1  0
 27 28  2  0
 28 29  1  0
 29 30  2  0
 30 31  1  0
 31 32  2  0
 15 33  1  0
 33 34  1  0
 11  6  1  0
 34 12  1  0
 32 23  1  0
 31 26  1  0
  1 35  1  0
  1 36  1  0
  1 37  1  0
  2 38  1  0
  2 39  1  0
  7 40  1  0
  8 41  1  0
  9 42  1  0
 10 43  1  0
 11 44  1  0
 12 45  1  0
 13 46  1  0
 13 47  1  0
 14 48  1  0
 14 49  1  0
 18 50  1  1
 19 51  1  0
 19 52  1  0
 21 53  1  0
 21 54  1  0
 21 55  1  0
 22 56  1  0
 22 57  1  0
 22 58  1  0
 24 59  1  0
 25 60  1  0
 27 61  1  0
 28 62  1  0
 29 63  1  0
 30 64  1  0
 32 65  1  0
 33 66  1  0
 33 67  1  0
 34 68  1  0
 34 69  1  0
M  END
>  <smiles>  (4) 
CCC(=O)N(c1ccccc1)C1CCN(C(=O)[C@@H](N)C(C)(C)c2ccc3ccccc3c2)CC1

>  <score_type>  (4) 
oracle

>  <origin>  (4) 
autodockgpu

>  <m_score__min__energy>  (4) 
-9.1699999999999999

>  <m_primary>  (4) 
energy

>  <rmsd>  (4) 
2.949926453990647

>  <m_score__min__rmsd>  (4) 
2.949926453990647

>  <meeko>  (4) 
{"free_energy": -8.44, "intermolecular_energy": -10.83, "internal_energy": -2.58, "cluster_size": 32, "cluster_id": 1, "rank_in_cluster": 20}

>  <energy>  (4) 
-9.11

>  <cluster_rmsd>  (4) 
0.25

>  <cluster>  (4) 
1

$$$$

     RDKit          3D

 69 72  0  0  0  0  0  0  0  0999 V2000
  143.2480   76.6870  219.1350 C   0  0  0  0  0  0  0  0  0  0  0  0
  142.6060   77.8980  218.4270 C   0  0  0  0  0  0  0  0  0  0  0  0
  141.9170   78.7320  219.4030 C   0  0  0  0  0  0  0  0  0  0  0  0
  141.8960   79.9960  219.1540 O   0  0  0  0  0  0  0  0  0  0  0  0
  141.2680   78.3460  220.5860 N   0  0  0  0  0  0  0  0  0  0  0  0
  141.3910   79.2920  221.6900 C   0  0  0  0  0  0  0  0  0  0  0  0
  142.5770   79.2650  222.4060 C   0  0  0  0  0  0  0  0  0  0  0  0
  142.7730   80.1210  223.4600 C   0  0  0  0  0  0  0  0  0  0  0  0
  141.7520   80.9970  223.7700 C   0  0  0  0  0  0  0  0  0  0  0  0
  140.5680   81.0280  223.0610 C   0  0  0  0  0  0  0  0  0  0  0  0
  140.3580   80.1580  221.9840 C   0  0  0  0  0  0  0  0  0  0  0  0
  140.5090   77.1710  220.8520 C   0  0  0  0  0  0  0  0  0  0  0  0
  139.3530   76.9920  219.8720 C   0  0  0  0  0  0  0  0  0  0  0  0
  138.9400   75.5720  219.8680 C   0  0  0  0  0  0  0  0  0  0  0  0
  139.0770   74.9660  221.1800 N   0  0  0  0  0  0  0  0  0  0  0  0
  138.6540   73.5930  221.2130 C   0  0  0  0  0  0  0  0  0  0  0  0
  138.2360   73.1580  220.0890 O   0  0  0  0  0  0  0  0  0  0  0  0
  138.6420   72.6660  222.3300 C   0  0  1  0  0  0  0  0  0  0  0  0
  137.4450   71.9160  222.4120 N   0  0  0  0  0  0  0  0  0  0  0  0
  139.8870   71.7780  222.2820 C   0  0  0  0  0  0  0  0  0  0  0  0
  139.6920   70.7070  221.2410 C   0  0  0  0  0  0  0  0  0  0  0  0
  141.1010   72.5780  221.8940 C   0  0  0  0  0  0  0  0  0  0  0  0
  140.0660   71.1690  223.6070 C   0  0  0  0  0  0  0  0  0  0  0  0
  140.7010   71.8970  224.6130 C   0  0  0  0  0  0  0  0  0  0  0  0
  140.9150   71.3800  225.8740 C   0  0  0  0  0  0  0  0  0  0  0  0
  140.5020   70.1030  226.1950 C   0  0  0  0  0  0  0  0  0  0  0  0
  140.6840   69.5300  227.4320 C   0  0  0  0  0  0  0  0  0  0  0  0
  140.2460   68.2360  227.6960 C   0  0  0  0  0  0  0  0  0  0  0  0
  139.6120   67.4820  226.7240 C   0  0  0  0  0  0  0  0  0  0  0  0
  139.4420   68.0810  225.4930 C   0  0  0  0  0  0  0  0  0  0  0  0
  139.8720   69.3670  225.2160 C   0  0  0  0  0  0  0  0  0  0  0  0
  139.6620   69.8960  223.9490 C   0  0  0  0  0  0  0  0  0  0  0  0
  139.5610   75.5540  222.3730 C   0  0  0  0  0  0  0  0  0  0  0  0
  139.9950   77.0090  222.2490 C   0  0  0  0  0  0  0  0  0  0  0  0
  143.1777   76.8197  220.2247 H   0  0  0  0  0  0  0  0  0  0  0  0
  142.7185   75.7682  218.8426 H   0  0  0  0  0  0  0  0  0  0  0  0
  144.3056   76.6096  218.8426 H   0  0  0  0  0  0  0  0  0  0  0  0
  143.3900   78.4887  217.9306 H   0  0  0  0  0  0  0  0  0  0  0  0
  141.8824   77.5402  217.6797 H   0  0  0  0  0  0  0  0  0  0  0  0
  143.3670   78.5521  222.1273 H   0  0  0  0  0  0  0  0  0  0  0  0
  143.7094   80.1098  224.0370 H   0  0  0  0  0  0  0  0  0  0  0  0
  141.8865   81.6939  224.6104 H   0  0  0  0  0  0  0  0  0  0  0  0
  139.7818   81.7431  223.3448 H   0  0  0  0  0  0  0  0  0  0  0  0
  139.4226   80.1647  221.4053 H   0  0  0  0  0  0  0  0  0  0  0  0
  141.2593   76.3784  220.7146 H   0  0  0  0  0  0  0  0  0  0  0  0
  138.5059   77.6215  220.1821 H   0  0  0  0  0  0  0  0  0  0  0  0
  139.6728   77.2886  218.8622 H   0  0  0  0  0  0  0  0  0  0  0  0
  137.8875   75.5084  219.5548 H   0  0  0  0  0  0  0  0  0  0  0  0
  139.5941   75.0281  219.1707 H   0  0  0  0  0  0  0  0  0  0  0  0
  138.6720   73.2555  223.2582 H   0  0  0  0  0  0  0  0  0  0  0  0
  136.8100   72.1260  223.1990 H   0  0  0  0  0  0  0  0  0  0  0  0
  136.8940   71.8970  221.5420 H   0  0  0  0  0  0  0  0  0  0  0  0
  139.5161   69.7411  221.7371 H   0  0  0  0  0  0  0  0  0  0  0  0
  138.8251   70.9597  220.6128 H   0  0  0  0  0  0  0  0  0  0  0  0
  140.5923   70.6380  220.6128 H   0  0  0  0  0  0  0  0  0  0  0  0
  141.6201   72.9201  222.8015 H   0  0  0  0  0  0  0  0  0  0  0  0
  141.7794   71.9494  221.2984 H   0  0  0  0  0  0  0  0  0  0  0  0
  140.7910   73.4493  221.2984 H   0  0  0  0  0  0  0  0  0  0  0  0
  141.0431   72.9191  224.3933 H   0  0  0  0  0  0  0  0  0  0  0  0
  141.4215   71.9937  226.6335 H   0  0  0  0  0  0  0  0  0  0  0  0
  141.1841   70.1042  228.2258 H   0  0  0  0  0  0  0  0  0  0  0  0
  140.4065   67.8046  228.6951 H   0  0  0  0  0  0  0  0  0  0  0  0
  139.2618   66.4583  226.9227 H   0  0  0  0  0  0  0  0  0  0  0  0
  138.9423   67.5110  224.6959 H   0  0  0  0  0  0  0  0  0  0  0  0
  139.1560   69.2781  223.1926 H   0  0  0  0  0  0  0  0  0  0  0  0
  138.7622   75.5002  223.1274 H   0  0  0  0  0  0  0  0  0  0  0  0
  140.4636   74.9885  222.6478 H   0  0  0  0  0  0  0  0  0  0  0  0
  139.1394   77.6786  222.4211 H   0  0  0  0  0  0  0  0  0  0  0  0
  140.7645   77.2638  222.9926 H   0  0  0  0  0  0  0  0  0  0  0  0
  1  2  1  0
  2  3  1  0
  3  4  2  0
  3  5  1  0
  5  6  1  0
  6  7  2  0
  7  8  1  0
  8  9  2  0
  9 10  1  0
 10 11  2  0
  5 12  1  0
 12 13  1  0
 13 14  1  0
 14 15  1  0
 15 16  1  0
 16 17  2  0
 16 18  1  0
 18 19  1  0
 18 20  1  0
 20 21  1  0
 20 22  1  0
 20 23  1  0
 23 24  2  0
 24 25  1  0
 25 26  2  0
 26 27  1  0
 27 28  2  0
 28 29  1  0
 29 30  2  0
 30 31  1  0
 31 32  2  0
 15 33  1  0
 33 34  1  0
 11  6  1  0
 34 12  1  0
 32 23  1  0
 31 26  1  0
  1 35  1  0
  1 36  1  0
  1 37  1  0
  2 38  1  0
  2 39  1  0
  7 40  1  0
  8 41  1  0
  9 42  1  0
 10 43  1  0
 11 44  1  0
 12 45  1  0
 13 46  1  0
 13 47  1  0
 14 48  1  0
 14 49  1  0
 18 50  1  1
 19 51  1  0
 19 52  1  0
 21 53  1  0
 21 54  1  0
 21 55  1  0
 22 56  1  0
 22 57  1  0
 22 58  1  0
 24 59  1  0
 25 60  1  0
 27 61  1  0
 28 62  1  0
 29 63  1  0
 30 64  1  0
 32 65  1  0
 33 66  1  0
 33 67  1  0
 34 68  1  0
 34 69  1  0
M  END
>  <smiles>  (5) 
CCC(=O)N(c1ccccc1)C1CCN(C(=O)[C@@H](N)C(C)(C)c2ccc3ccccc3c2)CC1

>  <score_type>  (5) 
oracle

>  <origin>  (5) 
autodockgpu

>  <m_score__min__energy>  (5) 
-9.1699999999999999

>  <m_primary>  (5) 
energy

>  <rmsd>  (5) 
2.968462094747122

>  <m_score__min__rmsd>  (5) 
2.968462094747122

>  <meeko>  (5) 
{"free_energy": -8.46, "intermolecular_energy": -10.84, "internal_energy": -2.56, "cluster_size": 32, "cluster_id": 1, "rank_in_cluster": 18}

>  <energy>  (5) 
-9.07

>  <cluster_rmsd>  (5) 
0.27

>  <cluster>  (5) 
1

$$$$

     RDKit          3D

 69 72  0  0  0  0  0  0  0  0999 V2000
  136.0900   69.5350  224.9600 C   0  0  0  0  0  0  0  0  0  0  0  0
  136.9810   68.8800  223.8840 C   0  0  0  0  0  0  0  0  0  0  0  0
  138.3840   69.1210  224.1930 C   0  0  0  0  0  0  0  0  0  0  0  0
  139.1320   68.0750  224.2820 O   0  0  0  0  0  0  0  0  0  0  0  0
  139.0390   70.3430  224.4080 N   0  0  0  0  0  0  0  0  0  0  0  0
  139.7110   70.4610  225.6980 C   0  0  0  0  0  0  0  0  0  0  0  0
  139.4460   69.4730  226.6320 C   0  0  0  0  0  0  0  0  0  0  0  0
  140.0360   69.5110  227.8700 C   0  0  0  0  0  0  0  0  0  0  0  0
  140.8930   70.5580  228.1390 C   0  0  0  0  0  0  0  0  0  0  0  0
  141.1610   71.5460  227.2120 C   0  0  0  0  0  0  0  0  0  0  0  0
  140.5630   71.5180  225.9460 C   0  0  0  0  0  0  0  0  0  0  0  0
  139.1410   71.4720  223.5460 C   0  0  0  0  0  0  0  0  0  0  0  0
  138.0460   71.4920  222.4840 C   0  0  0  0  0  0  0  0  0  0  0  0
  137.8940   72.8720  221.9740 C   0  0  0  0  0  0  0  0  0  0  0  0
  139.1620   73.5770  221.9380 N   0  0  0  0  0  0  0  0  0  0  0  0
  139.0490   74.9130  221.4180 C   0  0  0  0  0  0  0  0  0  0  0  0
  137.8610   75.2340  221.0840 O   0  0  0  0  0  0  0  0  0  0  0  0
  140.0850   75.9120  221.2300 C   0  0  1  0  0  0  0  0  0  0  0  0
  141.0750   75.8760  222.2390 N   0  0  0  0  0  0  0  0  0  0  0  0
  140.6780   75.7890  219.8250 C   0  0  0  0  0  0  0  0  0  0  0  0
  139.6090   75.3120  218.8750 C   0  0  0  0  0  0  0  0  0  0  0  0
  141.1640   77.1260  219.3310 C   0  0  0  0  0  0  0  0  0  0  0  0
  141.7800   74.8190  219.8750 C   0  0  0  0  0  0  0  0  0  0  0  0
  141.5490   73.5030  219.4770 C   0  0  0  0  0  0  0  0  0  0  0  0
  142.5350   72.5380  219.5130 C   0  0  0  0  0  0  0  0  0  0  0  0
  143.8080   72.8440  219.9490 C   0  0  0  0  0  0  0  0  0  0  0  0
  144.8340   71.9290  220.0080 C   0  0  0  0  0  0  0  0  0  0  0  0
  146.0980   72.2960  220.4590 C   0  0  0  0  0  0  0  0  0  0  0  0
  146.3660   73.5930  220.8620 C   0  0  0  0  0  0  0  0  0  0  0  0
  145.3190   74.4890  220.7920 C   0  0  0  0  0  0  0  0  0  0  0  0
  144.0570   74.1380  220.3460 C   0  0  0  0  0  0  0  0  0  0  0  0
  143.0580   75.1010  220.3070 C   0  0  0  0  0  0  0  0  0  0  0  0
  140.4370   73.1140  222.3410 C   0  0  0  0  0  0  0  0  0  0  0  0
  140.4670   71.6910  222.8860 C   0  0  0  0  0  0  0  0  0  0  0  0
  136.4610   69.2623  225.9590 H   0  0  0  0  0  0  0  0  0  0  0  0
  136.1189   70.6285  224.8441 H   0  0  0  0  0  0  0  0  0  0  0  0
  135.0549   69.1812  224.8441 H   0  0  0  0  0  0  0  0  0  0  0  0
  136.7923   67.7965  223.8634 H   0  0  0  0  0  0  0  0  0  0  0  0
  136.7449   69.3156  222.9019 H   0  0  0  0  0  0  0  0  0  0  0  0
  138.7581   68.6527  226.3795 H   0  0  0  0  0  0  0  0  0  0  0  0
  139.8328   68.7340  228.6216 H   0  0  0  0  0  0  0  0  0  0  0  0
  141.3790   70.6076  229.1246 H   0  0  0  0  0  0  0  0  0  0  0  0
  141.8508   72.3628  227.4706 H   0  0  0  0  0  0  0  0  0  0  0  0
  140.7611   72.2942  225.1922 H   0  0  0  0  0  0  0  0  0  0  0  0
  139.0139   72.3089  224.2485 H   0  0  0  0  0  0  0  0  0  0  0  0
  138.3224   70.8216  221.6568 H   0  0  0  0  0  0  0  0  0  0  0  0
  137.0966   71.1517  222.9231 H   0  0  0  0  0  0  0  0  0  0  0  0
  137.4803   72.8315  220.9556 H   0  0  0  0  0  0  0  0  0  0  0  0
  137.2206   73.4149  222.6535 H   0  0  0  0  0  0  0  0  0  0  0  0
  139.6181   76.9036  221.3239 H   0  0  0  0  0  0  0  0  0  0  0  0
  142.0100   76.2400  221.9960 H   0  0  0  0  0  0  0  0  0  0  0  0
  140.7850   76.2930  223.1360 H   0  0  0  0  0  0  0  0  0  0  0  0
  138.7522   74.9297  219.4492 H   0  0  0  0  0  0  0  0  0  0  0  0
  139.2814   76.1493  218.2413 H   0  0  0  0  0  0  0  0  0  0  0  0
  140.0134   74.5089  218.2413 H   0  0  0  0  0  0  0  0  0  0  0  0
  141.3986   77.7713  220.1904 H   0  0  0  0  0  0  0  0  0  0  0  0
  142.0683   76.9848  218.7209 H   0  0  0  0  0  0  0  0  0  0  0  0
  140.3801   77.5985  218.7209 H   0  0  0  0  0  0  0  0  0  0  0  0
  140.5459   73.2241  219.1219 H   0  0  0  0  0  0  0  0  0  0  0  0
  142.3033   71.5123  219.1902 H   0  0  0  0  0  0  0  0  0  0  0  0
  144.6519   70.8907  219.6935 H   0  0  0  0  0  0  0  0  0  0  0  0
  146.8984   71.5424  220.4960 H   0  0  0  0  0  0  0  0  0  0  0  0
  147.3619   73.8937  221.2195 H   0  0  0  0  0  0  0  0  0  0  0  0
  145.4954   75.5287  221.1047 H   0  0  0  0  0  0  0  0  0  0  0  0
  143.2946   76.1248  220.6322 H   0  0  0  0  0  0  0  0  0  0  0  0
  141.1067   73.1591  221.4695 H   0  0  0  0  0  0  0  0  0  0  0  0
  140.7509   73.7655  223.1698 H   0  0  0  0  0  0  0  0  0  0  0  0
  140.6092   70.9711  222.0665 H   0  0  0  0  0  0  0  0  0  0  0  0
  141.2969   71.5488  223.5938 H   0  0  0  0  0  0  0  0  0  0  0  0
  1  2  1  0
  2  3  1  0
  3  4  2  0
  3  5  1  0
  5  6  1  0
  6  7  2  0
  7  8  1  0
  8  9  2  0
  9 10  1  0
 10 11  2  0
  5 12  1  0
 12 13  1  0
 13 14  1  0
 14 15  1  0
 15 16  1  0
 16 17  2  0
 16 18  1  0
 18 19  1  0
 18 20  1  0
 20 21  1  0
 20 22  1  0
 20 23  1  0
 23 24  2  0
 24 25  1  0
 25 26  2  0
 26 27  1  0
 27 28  2  0
 28 29  1  0
 29 30  2  0
 30 31  1  0
 31 32  2  0
 15 33  1  0
 33 34  1  0
 11  6  1  0
 34 12  1  0
 32 23  1  0
 31 26  1  0
  1 35  1  0
  1 36  1  0
  1 37  1  0
  2 38  1  0
  2 39  1  0
  7 40  1  0
  8 41  1  0
  9 42  1  0
 10 43  1  0
 11 44  1  0
 12 45  1  0
 13 46  1  0
 13 47  1  0
 14 48  1  0
 14 49  1  0
 18 50  1  6
 19 51  1  0
 19 52  1  0
 21 53  1  0
 21 54  1  0
 21 55  1  0
 22 56  1  0
 22 57  1  0
 22 58  1  0
 24 59  1  0
 25 60  1  0
 27 61  1  0
 28 62  1  0
 29 63  1  0
 30 64  1  0
 32 65  1  0
 33 66  1  0
 33 67  1  0
 34 68  1  0
 34 69  1  0
M  END
>  <smiles>  (6) 
CCC(=O)N(c1ccccc1)C1CCN(C(=O)[C@@H](N)C(C)(C)c2ccc3ccccc3c2)CC1

>  <score_type>  (6) 
oracle

>  <origin>  (6) 
autodockgpu

>  <m_score__min__energy>  (6) 
-9.1699999999999999

>  <m_primary>  (6) 
energy

>  <rmsd>  (6) 
6.852914503810885

>  <m_score__min__rmsd>  (6) 
6.852914503810885

>  <meeko>  (6) 
{"free_energy": -8.47, "intermolecular_energy": -10.85, "internal_energy": -2.02, "cluster_size": 2, "cluster_id": 3, "rank_in_cluster": 1}

>  <energy>  (6) 
-9.02

>  <cluster_rmsd>  (6) 
0.65

>  <cluster>  (6) 
1

$$$$

     RDKit          3D

 69 72  0  0  0  0  0  0  0  0999 V2000
  139.8330   72.6810  222.4390 C   0  0  0  0  0  0  0  0  0  0  0  0
  140.6660   71.4800  222.9330 C   0  0  0  0  0  0  0  0  0  0  0  0
  140.3930   71.2370  224.3430 C   0  0  0  0  0  0  0  0  0  0  0  0
  141.1020   71.9120  225.1810 O   0  0  0  0  0  0  0  0  0  0  0  0
  139.4560   70.3660  224.9190 N   0  0  0  0  0  0  0  0  0  0  0  0
  139.9440   69.6140  226.0700 C   0  0  0  0  0  0  0  0  0  0  0  0
  140.2540   68.2800  225.8580 C   0  0  0  0  0  0  0  0  0  0  0  0
  140.7190   67.5030  226.8890 C   0  0  0  0  0  0  0  0  0  0  0  0
  140.8630   68.0980  228.1250 C   0  0  0  0  0  0  0  0  0  0  0  0
  140.5550   69.4270  228.3420 C   0  0  0  0  0  0  0  0  0  0  0  0
  140.0800   70.2290  227.2980 C   0  0  0  0  0  0  0  0  0  0  0  0
  138.1050   70.1210  224.5400 C   0  0  0  0  0  0  0  0  0  0  0  0
  137.9940   69.0940  223.4170 C   0  0  0  0  0  0  0  0  0  0  0  0
  136.6300   68.5230  223.4200 C   0  0  0  0  0  0  0  0  0  0  0  0
  135.6340   69.5030  223.8120 N   0  0  0  0  0  0  0  0  0  0  0  0
  134.2950   68.9830  223.7940 C   0  0  0  0  0  0  0  0  0  0  0  0
  134.2240   67.7600  223.4390 O   0  0  0  0  0  0  0  0  0  0  0  0
  133.0490   69.6530  224.1200 C   0  0  1  0  0  0  0  0  0  0  0  0
  131.9470   69.1580  223.3840 N   0  0  0  0  0  0  0  0  0  0  0  0
  132.8120   69.6060  225.6310 C   0  0  0  0  0  0  0  0  0  0  0  0
  131.5730   68.7960  225.9140 C   0  0  0  0  0  0  0  0  0  0  0  0
  133.9650   68.9390  226.3330 C   0  0  0  0  0  0  0  0  0  0  0  0
  132.6360   70.9830  226.1100 C   0  0  0  0  0  0  0  0  0  0  0  0
  131.5060   71.3050  226.8610 C   0  0  0  0  0  0  0  0  0  0  0  0
  131.2720   72.5820  227.3300 C   0  0  0  0  0  0  0  0  0  0  0  0
  132.1610   73.6050  227.0710 C   0  0  0  0  0  0  0  0  0  0  0  0
  131.9850   74.8970  227.5100 C   0  0  0  0  0  0  0  0  0  0  0  0
  132.9170   75.8880  227.2170 C   0  0  0  0  0  0  0  0  0  0  0  0
  134.0510   75.6060  226.4740 C   0  0  0  0  0  0  0  0  0  0  0  0
  134.2020   74.3030  226.0480 C   0  0  0  0  0  0  0  0  0  0  0  0
  133.2830   73.3080  226.3320 C   0  0  0  0  0  0  0  0  0  0  0  0
  133.5100   72.0200  225.8640 C   0  0  0  0  0  0  0  0  0  0  0  0
  135.8310   70.8520  224.1920 C   0  0  0  0  0  0  0  0  0  0  0  0
  137.2820   71.3210  224.1900 C   0  0  0  0  0  0  0  0  0  0  0  0
  139.4458   73.2393  223.3041 H   0  0  0  0  0  0  0  0  0  0  0  0
  140.4676   73.3419  221.8303 H   0  0  0  0  0  0  0  0  0  0  0  0
  138.9916   72.3181  221.8303 H   0  0  0  0  0  0  0  0  0  0  0  0
  140.3993   70.5861  222.3500 H   0  0  0  0  0  0  0  0  0  0  0  0
  141.7356   71.7017  222.8030 H   0  0  0  0  0  0  0  0  0  0  0  0
  140.1265   67.8414  224.8573 H   0  0  0  0  0  0  0  0  0  0  0  0
  140.9682   66.4427  226.7352 H   0  0  0  0  0  0  0  0  0  0  0  0
  141.2354   67.4943  228.9657 H   0  0  0  0  0  0  0  0  0  0  0  0
  140.6843   69.8592  229.3452 H   0  0  0  0  0  0  0  0  0  0  0  0
  139.8293   71.2895  227.4477 H   0  0  0  0  0  0  0  0  0  0  0  0
  137.6741   69.7233  225.4707 H   0  0  0  0  0  0  0  0  0  0  0  0
  138.1874   69.5821  222.4504 H   0  0  0  0  0  0  0  0  0  0  0  0
  138.7324   68.2934  223.5712 H   0  0  0  0  0  0  0  0  0  0  0  0
  136.3938   68.1609  222.4085 H   0  0  0  0  0  0  0  0  0  0  0  0
  136.6060   67.7013  224.1510 H   0  0  0  0  0  0  0  0  0  0  0  0
  133.1436   70.7061  223.8166 H   0  0  0  0  0  0  0  0  0  0  0  0
  131.5080   69.7970  222.7030 H   0  0  0  0  0  0  0  0  0  0  0  0
  132.1160   68.2520  222.9210 H   0  0  0  0  0  0  0  0  0  0  0  0
  131.4346   68.7055  227.0015 H   0  0  0  0  0  0  0  0  0  0  0  0
  130.6986   69.2974  225.4735 H   0  0  0  0  0  0  0  0  0  0  0  0
  131.6815   67.7939  225.4735 H   0  0  0  0  0  0  0  0  0  0  0  0
  133.8272   69.0187  227.4214 H   0  0  0  0  0  0  0  0  0  0  0  0
  134.0053   67.8781  226.0452 H   0  0  0  0  0  0  0  0  0  0  0  0
  134.9048   69.4329  226.0452 H   0  0  0  0  0  0  0  0  0  0  0  0
  130.7759   70.5141  227.0875 H   0  0  0  0  0  0  0  0  0  0  0  0
  130.3651   72.7867  227.9178 H   0  0  0  0  0  0  0  0  0  0  0  0
  131.0933   75.1507  228.1021 H   0  0  0  0  0  0  0  0  0  0  0  0
  132.7501   76.9123  227.5816 H   0  0  0  0  0  0  0  0  0  0  0  0
  134.7936   76.3818  226.2357 H   0  0  0  0  0  0  0  0  0  0  0  0
  135.0922   74.0431  225.4564 H   0  0  0  0  0  0  0  0  0  0  0  0
  134.4186   71.8208  225.2768 H   0  0  0  0  0  0  0  0  0  0  0  0
  135.2666   71.4881  223.4943 H   0  0  0  0  0  0  0  0  0  0  0  0
  135.4862   70.9295  225.2337 H   0  0  0  0  0  0  0  0  0  0  0  0
  137.5602   71.6980  223.1948 H   0  0  0  0  0  0  0  0  0  0  0  0
  137.4410   72.1408  224.9060 H   0  0  0  0  0  0  0  0  0  0  0  0
  1  2  1  0
  2  3  1  0
  3  4  2  0
  3  5  1  0
  5  6  1  0
  6  7  2  0
  7  8  1  0
  8  9  2  0
  9 10  1  0
 10 11  2  0
  5 12  1  0
 12 13  1  0
 13 14  1  0
 14 15  1  0
 15 16  1  0
 16 17  2  0
 16 18  1  0
 18 19  1  0
 18 20  1  0
 20 21  1  0
 20 22  1  0
 20 23  1  0
 23 24  2  0
 24 25  1  0
 25 26  2  0
 26 27  1  0
 27 28  2  0
 28 29  1  0
 29 30  2  0
 30 31  1  0
 31 32  2  0
 15 33  1  0
 33 34  1  0
 11  6  1  0
 34 12  1  0
 32 23  1  0
 31 26  1  0
  1 35  1  0
  1 36  1  0
  1 37  1  0
  2 38  1  0
  2 39  1  0
  7 40  1  0
  8 41  1  0
  9 42  1  0
 10 43  1  0
 11 44  1  0
 12 45  1  0
 13 46  1  0
 13 47  1  0
 14 48  1  0
 14 49  1  0
 18 50  1  6
 19 51  1  0
 19 52  1  0
 21 53  1  0
 21 54  1  0
 21 55  1  0
 22 56  1  0
 22 57  1  0
 22 58  1  0
 24 59  1  0
 25 60  1  0
 27 61  1  0
 28 62  1  0
 29 63  1  0
 30 64  1  0
 32 65  1  0
 33 66  1  0
 33 67  1  0
 34 68  1  0
 34 69  1  0
M  END
>  <smiles>  (7) 
CCC(=O)N(c1ccccc1)C1CCN(C(=O)[C@@H](N)C(C)(C)c2ccc3ccccc3c2)CC1

>  <score_type>  (7) 
oracle

>  <origin>  (7) 
autodockgpu

>  <m_score__min__energy>  (7) 
-9.1699999999999999

>  <m_primary>  (7) 
energy

>  <rmsd>  (7) 
7.560821233383092

>  <m_score__min__rmsd>  (7) 
7.560821233383092

>  <meeko>  (7) 
{"free_energy": -7.71, "intermolecular_energy": -10.09, "internal_energy": -2.83, "cluster_size": 1, "cluster_id": 4, "rank_in_cluster": 1}

>  <energy>  (7) 
-8.96

>  <cluster_rmsd>  (7) 
0.37

>  <cluster>  (7) 
1

$$$$

     RDKit          3D

 69 72  0  0  0  0  0  0  0  0999 V2000
  143.0150   76.7970  219.0640 C   0  0  0  0  0  0  0  0  0  0  0  0
  142.5780   78.1270  218.4150 C   0  0  0  0  0  0  0  0  0  0  0  0
  141.8550   78.9360  219.3880 C   0  0  0  0  0  0  0  0  0  0  0  0
  141.7700   80.1940  219.1250 O   0  0  0  0  0  0  0  0  0  0  0  0
  141.2340   78.5310  220.5790 N   0  0  0  0  0  0  0  0  0  0  0  0
  141.4040   79.4460  221.7020 C   0  0  0  0  0  0  0  0  0  0  0  0
  142.5690   79.3180  222.4410 C   0  0  0  0  0  0  0  0  0  0  0  0
  142.8060   80.1390  223.5140 C   0  0  0  0  0  0  0  0  0  0  0  0
  141.8490   81.0850  223.8190 C   0  0  0  0  0  0  0  0  0  0  0  0
  140.6860   81.2170  223.0870 C   0  0  0  0  0  0  0  0  0  0  0  0
  140.4340   80.3840  221.9910 C   0  0  0  0  0  0  0  0  0  0  0  0
  140.4620   77.3620  220.8380 C   0  0  0  0  0  0  0  0  0  0  0  0
  139.2980   77.2070  219.8640 C   0  0  0  0  0  0  0  0  0  0  0  0
  138.8680   75.7920  219.8480 C   0  0  0  0  0  0  0  0  0  0  0  0
  139.0080   75.1700  221.1520 N   0  0  0  0  0  0  0  0  0  0  0  0
  138.5680   73.8020  221.1740 C   0  0  0  0  0  0  0  0  0  0  0  0
  138.1370   73.3850  220.0480 O   0  0  0  0  0  0  0  0  0  0  0  0
  138.5530   72.8640  222.2810 C   0  0  1  0  0  0  0  0  0  0  0  0
  137.3670   72.0950  222.3370 N   0  0  0  0  0  0  0  0  0  0  0  0
  139.8120   71.9940  222.2430 C   0  0  0  0  0  0  0  0  0  0  0  0
  139.6880   70.9900  221.1260 C   0  0  0  0  0  0  0  0  0  0  0  0
  141.0330   72.8320  221.9710 C   0  0  0  0  0  0  0  0  0  0  0  0
  139.9300   71.3030  223.5330 C   0  0  0  0  0  0  0  0  0  0  0  0
  139.5190   69.9750  223.6360 C   0  0  0  0  0  0  0  0  0  0  0  0
  139.5890   69.2700  224.8210 C   0  0  0  0  0  0  0  0  0  0  0  0
  140.0770   69.8620  225.9680 C   0  0  0  0  0  0  0  0  0  0  0  0
  140.1740   69.2160  227.1780 C   0  0  0  0  0  0  0  0  0  0  0  0
  140.6750   69.8660  228.3020 C   0  0  0  0  0  0  0  0  0  0  0  0
  141.0930   71.1840  228.2390 C   0  0  0  0  0  0  0  0  0  0  0  0
  140.9850   71.8070  227.0130 C   0  0  0  0  0  0  0  0  0  0  0  0
  140.4890   71.1740  225.8870 C   0  0  0  0  0  0  0  0  0  0  0  0
  140.4140   71.8740  224.6910 C   0  0  0  0  0  0  0  0  0  0  0  0
  139.5070   75.7390  222.3480 C   0  0  0  0  0  0  0  0  0  0  0  0
  139.9570   77.1910  222.2360 C   0  0  0  0  0  0  0  0  0  0  0  0
  142.9827   76.8954  220.1591 H   0  0  0  0  0  0  0  0  0  0  0  0
  142.3337   75.9934  218.7478 H   0  0  0  0  0  0  0  0  0  0  0  0
  144.0402   76.5541  218.7478 H   0  0  0  0  0  0  0  0  0  0  0  0
  143.4675   78.6759  218.0723 H   0  0  0  0  0  0  0  0  0  0  0  0
  141.9211   77.9150  217.5585 H   0  0  0  0  0  0  0  0  0  0  0  0
  143.3092   78.5525  222.1652 H   0  0  0  0  0  0  0  0  0  0  0  0
  143.7260   80.0465  224.1099 H   0  0  0  0  0  0  0  0  0  0  0  0
  142.0184   81.7563  224.6738 H   0  0  0  0  0  0  0  0  0  0  0  0
  139.9500   81.9846  223.3680 H   0  0  0  0  0  0  0  0  0  0  0  0
  139.5146   80.4720  221.3936 H   0  0  0  0  0  0  0  0  0  0  0  0
  141.2014   76.5617  220.6869 H   0  0  0  0  0  0  0  0  0  0  0  0
  138.4605   77.8432  220.1861 H   0  0  0  0  0  0  0  0  0  0  0  0
  139.6149   77.5103  218.8552 H   0  0  0  0  0  0  0  0  0  0  0  0
  137.8123   75.7444  219.5426 H   0  0  0  0  0  0  0  0  0  0  0  0
  139.5102   75.2481  219.1397 H   0  0  0  0  0  0  0  0  0  0  0  0
  138.5600   73.4451  223.2150 H   0  0  0  0  0  0  0  0  0  0  0  0
  136.7230   72.2780  223.1230 H   0  0  0  0  0  0  0  0  0  0  0  0
  136.8220   72.0890  221.4620 H   0  0  0  0  0  0  0  0  0  0  0  0
  139.5636   69.9828  221.5504 H   0  0  0  0  0  0  0  0  0  0  0  0
  138.8136   71.2372  220.5061 H   0  0  0  0  0  0  0  0  0  0  0  0
  140.5963   71.0171  220.5061 H   0  0  0  0  0  0  0  0  0  0  0  0
  141.4848   73.1421  222.9248 H   0  0  0  0  0  0  0  0  0  0  0  0
  141.7613   72.2425  221.3947 H   0  0  0  0  0  0  0  0  0  0  0  0
  140.7449   73.7236  221.3947 H   0  0  0  0  0  0  0  0  0  0  0  0
  139.1249   69.4708  222.7413 H   0  0  0  0  0  0  0  0  0  0  0  0
  139.2516   68.2235  224.8512 H   0  0  0  0  0  0  0  0  0  0  0  0
  139.8502   68.1679  227.2589 H   0  0  0  0  0  0  0  0  0  0  0  0
  140.7399   69.3232  229.2565 H   0  0  0  0  0  0  0  0  0  0  0  0
  141.4907   71.7075  229.1209 H   0  0  0  0  0  0  0  0  0  0  0  0
  141.3080   72.8550  226.9266 H   0  0  0  0  0  0  0  0  0  0  0  0
  140.7523   72.9204  224.6660 H   0  0  0  0  0  0  0  0  0  0  0  0
  138.7130   75.6862  223.1074 H   0  0  0  0  0  0  0  0  0  0  0  0
  140.4046   75.1601  222.6108 H   0  0  0  0  0  0  0  0  0  0  0  0
  139.1105   77.8685  222.4217 H   0  0  0  0  0  0  0  0  0  0  0  0
  140.7350   77.4290  222.9763 H   0  0  0  0  0  0  0  0  0  0  0  0
  1  2  1  0
  2  3  1  0
  3  4  2  0
  3  5  1  0
  5  6  1  0
  6  7  2  0
  7  8  1  0
  8  9  2  0
  9 10  1  0
 10 11  2  0
  5 12  1  0
 12 13  1  0
 13 14  1  0
 14 15  1  0
 15 16  1  0
 16 17  2  0
 16 18  1  0
 18 19  1  0
 18 20  1  0
 20 21  1  0
 20 22  1  0
 20 23  1  0
 23 24  2  0
 24 25  1  0
 25 26  2  0
 26 27  1  0
 27 28  2  0
 28 29  1  0
 29 30  2  0
 30 31  1  0
 31 32  2  0
 15 33  1  0
 33 34  1  0
 11  6  1  0
 34 12  1  0
 32 23  1  0
 31 26  1  0
  1 35  1  0
  1 36  1  0
  1 37  1  0
  2 38  1  0
  2 39  1  0
  7 40  1  0
  8 41  1  0
  9 42  1  0
 10 43  1  0
 11 44  1  0
 12 45  1  0
 13 46  1  0
 13 47  1  0
 14 48  1  0
 14 49  1  0
 18 50  1  1
 19 51  1  0
 19 52  1  0
 21 53  1  0
 21 54  1  0
 21 55  1  0
 22 56  1  0
 22 57  1  0
 22 58  1  0
 24 59  1  0
 25 60  1  0
 27 61  1  0
 28 62  1  0
 29 63  1  0
 30 64  1  0
 32 65  1  0
 33 66  1  0
 33 67  1  0
 34 68  1  0
 34 69  1  0
M  END
>  <smiles>  (8) 
CCC(=O)N(c1ccccc1)C1CCN(C(=O)[C@@H](N)C(C)(C)c2ccc3ccccc3c2)CC1

>  <score_type>  (8) 
oracle

>  <origin>  (8) 
autodockgpu

>  <m_score__min__energy>  (8) 
-9.1699999999999999

>  <m_primary>  (8) 
energy

>  <rmsd>  (8) 
2.263576599168716

>  <m_score__min__rmsd>  (8) 
2.263576599168716

>  <meeko>  (8) 
{"free_energy": -8.66, "intermolecular_energy": -11.05, "internal_energy": -2.57, "cluster_size": 32, "cluster_id": 1, "rank_in_cluster": 10}

>  <energy>  (8) 
-8.91

>  <cluster_rmsd>  (8) 
0.67

>  <cluster>  (8) 
1

$$$$

     RDKit          3D

 69 72  0  0  0  0  0  0  0  0999 V2000
  142.5790   80.4860  218.2030 C   0  0  0  0  0  0  0  0  0  0  0  0
  142.2560   79.0500  218.6690 C   0  0  0  0  0  0  0  0  0  0  0  0
  140.9420   79.0210  219.2990 C   0  0  0  0  0  0  0  0  0  0  0  0
  139.9810   79.5570  218.6270 O   0  0  0  0  0  0  0  0  0  0  0  0
  140.5760   78.4860  220.5430 N   0  0  0  0  0  0  0  0  0  0  0  0
  140.9630   79.2910  221.6950 C   0  0  0  0  0  0  0  0  0  0  0  0
  142.2220   79.0600  222.2240 C   0  0  0  0  0  0  0  0  0  0  0  0
  142.6630   79.7740  223.3100 C   0  0  0  0  0  0  0  0  0  0  0  0
  141.8100   80.7200  223.8420 C   0  0  0  0  0  0  0  0  0  0  0  0
  140.5530   80.9540  223.3200 C   0  0  0  0  0  0  0  0  0  0  0  0
  140.0940   80.2310  222.2140 C   0  0  0  0  0  0  0  0  0  0  0  0
  139.8790   77.2770  220.8310 C   0  0  0  0  0  0  0  0  0  0  0  0
  138.6650   77.0770  219.9290 C   0  0  0  0  0  0  0  0  0  0  0  0
  138.3040   75.6430  219.9180 C   0  0  0  0  0  0  0  0  0  0  0  0
  138.5550   75.0130  221.2010 N   0  0  0  0  0  0  0  0  0  0  0  0
  138.1840   73.6250  221.2290 C   0  0  0  0  0  0  0  0  0  0  0  0
  137.7040   73.2000  220.1260 O   0  0  0  0  0  0  0  0  0  0  0  0
  138.2840   72.6730  222.3200 C   0  0  1  0  0  0  0  0  0  0  0  0
  137.2070   71.7570  222.3540 N   0  0  0  0  0  0  0  0  0  0  0  0
  139.6450   71.9750  222.2790 C   0  0  0  0  0  0  0  0  0  0  0  0
  139.6510   70.9660  221.1600 C   0  0  0  0  0  0  0  0  0  0  0  0
  140.7460   72.9650  222.0090 C   0  0  0  0  0  0  0  0  0  0  0  0
  139.8540   71.3020  223.5680 C   0  0  0  0  0  0  0  0  0  0  0  0
  139.5290   69.9520  223.6930 C   0  0  0  0  0  0  0  0  0  0  0  0
  139.6860   69.2630  224.8780 C   0  0  0  0  0  0  0  0  0  0  0  0
  140.1800   69.8920  226.0030 C   0  0  0  0  0  0  0  0  0  0  0  0
  140.3610   69.2620  227.2120 C   0  0  0  0  0  0  0  0  0  0  0  0
  140.8620   69.9500  228.3130 C   0  0  0  0  0  0  0  0  0  0  0  0
  141.1960   71.2910  228.2270 C   0  0  0  0  0  0  0  0  0  0  0  0
  141.0040   71.8970  227.0030 C   0  0  0  0  0  0  0  0  0  0  0  0
  140.5070   71.2250  225.9000 C   0  0  0  0  0  0  0  0  0  0  0  0
  140.3440   71.9110  224.7040 C   0  0  0  0  0  0  0  0  0  0  0  0
  139.1000   75.5920  222.3720 C   0  0  0  0  0  0  0  0  0  0  0  0
  139.4710   77.0650  222.2550 C   0  0  0  0  0  0  0  0  0  0  0  0
  142.7244   81.1324  219.0811 H   0  0  0  0  0  0  0  0  0  0  0  0
  143.4976   80.4772  217.5980 H   0  0  0  0  0  0  0  0  0  0  0  0
  141.7451   80.8714  217.5980 H   0  0  0  0  0  0  0  0  0  0  0  0
  142.2601   78.3744  217.8009 H   0  0  0  0  0  0  0  0  0  0  0  0
  143.0150   78.7237  219.3952 H   0  0  0  0  0  0  0  0  0  0  0  0
  142.8734   78.2985  221.7703 H   0  0  0  0  0  0  0  0  0  0  0  0
  143.6599   79.5988  223.7408 H   0  0  0  0  0  0  0  0  0  0  0  0
  142.1426   81.3071  224.7107 H   0  0  0  0  0  0  0  0  0  0  0  0
  139.9063   81.7166  223.7786 H   0  0  0  0  0  0  0  0  0  0  0  0
  139.0969   80.4014  221.7818 H   0  0  0  0  0  0  0  0  0  0  0  0
  140.6450   76.5158  220.6217 H   0  0  0  0  0  0  0  0  0  0  0  0
  137.8196   77.6671  220.3124 H   0  0  0  0  0  0  0  0  0  0  0  0
  138.9027   77.4081  218.9073 H   0  0  0  0  0  0  0  0  0  0  0  0
  137.2349   75.5470  219.6776 H   0  0  0  0  0  0  0  0  0  0  0  0
  138.9263   75.1401  219.1632 H   0  0  0  0  0  0  0  0  0  0  0  0
  138.2101   73.2333  223.2637 H   0  0  0  0  0  0  0  0  0  0  0  0
  136.5590   71.8190  223.1550 H   0  0  0  0  0  0  0  0  0  0  0  0
  136.6520   71.7200  221.4860 H   0  0  0  0  0  0  0  0  0  0  0  0
  139.6570   69.9503  221.5822 H   0  0  0  0  0  0  0  0  0  0  0  0
  138.7520   71.1002  220.5404 H   0  0  0  0  0  0  0  0  0  0  0  0
  140.5483   71.1109  220.5404 H   0  0  0  0  0  0  0  0  0  0  0  0
  141.1526   73.3306  222.9635 H   0  0  0  0  0  0  0  0  0  0  0  0
  141.5456   72.4761  221.4331 H   0  0  0  0  0  0  0  0  0  0  0  0
  140.3445   73.8118  221.4331 H   0  0  0  0  0  0  0  0  0  0  0  0
  139.1337   69.4177  222.8165 H   0  0  0  0  0  0  0  0  0  0  0  0
  139.4139   68.1983  224.9269 H   0  0  0  0  0  0  0  0  0  0  0  0
  140.1055   68.1966  227.3104 H   0  0  0  0  0  0  0  0  0  0  0  0
  140.9949   69.4197  229.2675 H   0  0  0  0  0  0  0  0  0  0  0  0
  141.5939   71.8445  229.0903 H   0  0  0  0  0  0  0  0  0  0  0  0
  141.2573   72.9624  226.8989 H   0  0  0  0  0  0  0  0  0  0  0  0
  140.6149   72.9763  224.6612 H   0  0  0  0  0  0  0  0  0  0  0  0
  138.3588   75.4908  223.1784 H   0  0  0  0  0  0  0  0  0  0  0  0
  140.0397   75.0552  222.5690 H   0  0  0  0  0  0  0  0  0  0  0  0
  138.6059   77.6976  222.5027 H   0  0  0  0  0  0  0  0  0  0  0  0
  140.2809   77.3324  222.9497 H   0  0  0  0  0  0  0  0  0  0  0  0
  1  2  1  0
  2  3  1  0
  3  4  2  0
  3  5  1  0
  5  6  1  0
  6  7  2  0
  7  8  1  0
  8  9  2  0
  9 10  1  0
 10 11  2  0
  5 12  1  0
 12 13  1  0
 13 14  1  0
 14 15  1  0
 15 16  1  0
 16 17  2  0
 16 18  1  0
 18 19  1  0
 18 20  1  0
 20 21  1  0
 20 22  1  0
 20 23  1  0
 23 24  2  0
 24 25  1  0
 25 26  2  0
 26 27  1  0
 27 28  2  0
 28 29  1  0
 29 30  2  0
 30 31  1  0
 31 32  2  0
 15 33  1  0
 33 34  1  0
 11  6  1  0
 34 12  1  0
 32 23  1  0
 31 26  1  0
  1 35  1  0
  1 36  1  0
  1 37  1  0
  2 38  1  0
  2 39  1  0
  7 40  1  0
  8 41  1  0
  9 42  1  0
 10 43  1  0
 11 44  1  0
 12 45  1  0
 13 46  1  0
 13 47  1  0
 14 48  1  0
 14 49  1  0
 18 50  1  1
 19 51  1  0
 19 52  1  0
 21 53  1  0
 21 54  1  0
 21 55  1  0
 22 56  1  0
 22 57  1  0
 22 58  1  0
 24 59  1  0
 25 60  1  0
 27 61  1  0
 28 62  1  0
 29 63  1  0
 30 64  1  0
 32 65  1  0
 33 66  1  0
 33 67  1  0
 34 68  1  0
 34 69  1  0
M  END
>  <smiles>  (9) 
CCC(=O)N(c1ccccc1)C1CCN(C(=O)[C@@H](N)C(C)(C)c2ccc3ccccc3c2)CC1

>  <score_type>  (9) 
oracle

>  <origin>  (9) 
autodockgpu

>  <m_score__min__energy>  (9) 
-9.1699999999999999

>  <m_primary>  (9) 
energy

>  <rmsd>  (9) 
2.21779904162379

>  <m_score__min__rmsd>  (9) 
2.21779904162379

>  <meeko>  (9) 
{"free_energy": -8.06, "intermolecular_energy": -10.44, "internal_energy": -2.53, "cluster_size": 32, "cluster_id": 1, "rank_in_cluster": 29}

>  <energy>  (9) 
-8.84

>  <cluster_rmsd>  (9) 
0.38

>  <cluster>  (9) 
1

$$$$

     RDKit          3D

 69 72  0  0  0  0  0  0  0  0999 V2000
  143.3400   76.4360  219.1940 C   0  0  0  0  0  0  0  0  0  0  0  0
  142.7320   77.6270  218.4240 C   0  0  0  0  0  0  0  0  0  0  0  0
  142.0560   78.5210  219.3540 C   0  0  0  0  0  0  0  0  0  0  0  0
  142.1000   79.7770  219.0650 O   0  0  0  0  0  0  0  0  0  0  0  0
  141.3570   78.2040  220.5290 N   0  0  0  0  0  0  0  0  0  0  0  0
  141.4750   79.1880  221.5980 C   0  0  0  0  0  0  0  0  0  0  0  0
  140.4700   80.1370  221.6870 C   0  0  0  0  0  0  0  0  0  0  0  0
  140.5060   81.0990  222.6650 C   0  0  0  0  0  0  0  0  0  0  0  0
  141.5700   81.0800  223.5420 C   0  0  0  0  0  0  0  0  0  0  0  0
  142.5760   80.1370  223.4580 C   0  0  0  0  0  0  0  0  0  0  0  0
  142.5490   79.1520  222.4640 C   0  0  0  0  0  0  0  0  0  0  0  0
  140.5530   77.0640  220.8150 C   0  0  0  0  0  0  0  0  0  0  0  0
  139.3280   76.9760  219.9100 C   0  0  0  0  0  0  0  0  0  0  0  0
  138.8370   75.5810  219.8970 C   0  0  0  0  0  0  0  0  0  0  0  0
  139.0250   74.9310  221.1820 N   0  0  0  0  0  0  0  0  0  0  0  0
  138.5290   73.5820  221.2080 C   0  0  0  0  0  0  0  0  0  0  0  0
  138.0150   73.2030  220.1040 O   0  0  0  0  0  0  0  0  0  0  0  0
  138.5380   72.6250  222.2990 C   0  0  1  0  0  0  0  0  0  0  0  0
  137.3610   71.8430  222.3580 N   0  0  0  0  0  0  0  0  0  0  0  0
  139.8050   71.7710  222.2320 C   0  0  0  0  0  0  0  0  0  0  0  0
  139.6210   70.6910  221.1960 C   0  0  0  0  0  0  0  0  0  0  0  0
  140.9910   72.6020  221.8190 C   0  0  0  0  0  0  0  0  0  0  0  0
  140.0250   71.1710  223.5550 C   0  0  0  0  0  0  0  0  0  0  0  0
  140.7070   71.8980  224.5290 C   0  0  0  0  0  0  0  0  0  0  0  0
  140.9600   71.3890  225.7870 C   0  0  0  0  0  0  0  0  0  0  0  0
  140.5400   70.1210  226.1340 C   0  0  0  0  0  0  0  0  0  0  0  0
  140.7600   69.5570  227.3700 C   0  0  0  0  0  0  0  0  0  0  0  0
  140.3130   68.2720  227.6620 C   0  0  0  0  0  0  0  0  0  0  0  0
  139.6320   67.5190  226.7200 C   0  0  0  0  0  0  0  0  0  0  0  0
  139.4250   68.1100  225.4910 C   0  0  0  0  0  0  0  0  0  0  0  0
  139.8640   69.3870  225.1860 C   0  0  0  0  0  0  0  0  0  0  0  0
  139.6150   69.9070  223.9240 C   0  0  0  0  0  0  0  0  0  0  0  0
  139.6180   75.4570  222.3540 C   0  0  0  0  0  0  0  0  0  0  0  0
  140.1230   76.8900  222.2380 C   0  0  0  0  0  0  0  0  0  0  0  0
  143.2492   76.6139  220.2757 H   0  0  0  0  0  0  0  0  0  0  0  0
  142.8022   75.5142  218.9276 H   0  0  0  0  0  0  0  0  0  0  0  0
  144.4021   76.3309  218.9276 H   0  0  0  0  0  0  0  0  0  0  0  0
  143.5334   78.1754  217.9072 H   0  0  0  0  0  0  0  0  0  0  0  0
  142.0061   77.2516  217.6878 H   0  0  0  0  0  0  0  0  0  0  0  0
  139.6371   80.1194  220.9687 H   0  0  0  0  0  0  0  0  0  0  0  0
  139.7143   81.8583  222.7465 H   0  0  0  0  0  0  0  0  0  0  0  0
  141.6193   81.8410  224.3348 H   0  0  0  0  0  0  0  0  0  0  0  0
  143.4062   80.1605  224.1792 H   0  0  0  0  0  0  0  0  0  0  0  0
  143.3394   78.3918  222.3779 H   0  0  0  0  0  0  0  0  0  0  0  0
  141.2473   76.2363  220.6080 H   0  0  0  0  0  0  0  0  0  0  0  0
  138.5392   77.6409  220.2917 H   0  0  0  0  0  0  0  0  0  0  0  0
  139.5978   77.2841  218.8891 H   0  0  0  0  0  0  0  0  0  0  0  0
  137.7645   75.5833  219.6527 H   0  0  0  0  0  0  0  0  0  0  0  0
  139.4129   75.0229  219.1441 H   0  0  0  0  0  0  0  0  0  0  0  0
  138.5505   73.1905  223.2424 H   0  0  0  0  0  0  0  0  0  0  0  0
  136.7310   71.9980  223.1610 H   0  0  0  0  0  0  0  0  0  0  0  0
  136.7990   71.8540  221.4940 H   0  0  0  0  0  0  0  0  0  0  0  0
  139.4566   69.7259  221.6976 H   0  0  0  0  0  0  0  0  0  0  0  0
  138.7507   70.9304  220.5673 H   0  0  0  0  0  0  0  0  0  0  0  0
  140.5215   70.6288  220.5673 H   0  0  0  0  0  0  0  0  0  0  0  0
  141.5127   72.9675  222.7158 H   0  0  0  0  0  0  0  0  0  0  0  0
  141.6787   71.9872  221.2198 H   0  0  0  0  0  0  0  0  0  0  0  0
  140.6479   73.4583  221.2198 H   0  0  0  0  0  0  0  0  0  0  0  0
  141.0558   72.9127  224.2869 H   0  0  0  0  0  0  0  0  0  0  0  0
  141.5030   72.0015  226.5218 H   0  0  0  0  0  0  0  0  0  0  0  0
  141.2976   70.1310  228.1391 H   0  0  0  0  0  0  0  0  0  0  0  0
  140.5039   67.8468  228.6584 H   0  0  0  0  0  0  0  0  0  0  0  0
  139.2747   66.5023  226.9405 H   0  0  0  0  0  0  0  0  0  0  0  0
  138.8869   67.5410  224.7185 H   0  0  0  0  0  0  0  0  0  0  0  0
  139.0721   69.2900  223.1928 H   0  0  0  0  0  0  0  0  0  0  0  0
  138.8688   75.4242  223.1587 H   0  0  0  0  0  0  0  0  0  0  0  0
  140.5039   74.8361  222.5532 H   0  0  0  0  0  0  0  0  0  0  0  0
  139.3189   77.5993  222.4834 H   0  0  0  0  0  0  0  0  0  0  0  0
  140.9521   77.0818  222.9349 H   0  0  0  0  0  0  0  0  0  0  0  0
  1  2  1  0
  2  3  1  0
  3  4  2  0
  3  5  1  0
  5  6  1  0
  6  7  2  0
  7  8  1  0
  8  9  2  0
  9 10  1  0
 10 11  2  0
  5 12  1  0
 12 13  1  0
 13 14  1  0
 14 15  1  0
 15 16  1  0
 16 17  2  0
 16 18  1  0
 18 19  1  0
 18 20  1  0
 20 21  1  0
 20 22  1  0
 20 23  1  0
 23 24  2  0
 24 25  1  0
 25 26  2  0
 26 27  1  0
 27 28  2  0
 28 29  1  0
 29 30  2  0
 30 31  1  0
 31 32  2  0
 15 33  1  0
 33 34  1  0
 11  6  1  0
 34 12  1  0
 32 23  1  0
 31 26  1  0
  1 35  1  0
  1 36  1  0
  1 37  1  0
  2 38  1  0
  2 39  1  0
  7 40  1  0
  8 41  1  0
  9 42  1  0
 10 43  1  0
 11 44  1  0
 12 45  1  0
 13 46  1  0
 13 47  1  0
 14 48  1  0
 14 49  1  0
 18 50  1  1
 19 51  1  0
 19 52  1  0
 21 53  1  0
 21 54  1  0
 21 55  1  0
 22 56  1  0
 22 57  1  0
 22 58  1  0
 24 59  1  0
 25 60  1  0
 27 61  1  0
 28 62  1  0
 29 63  1  0
 30 64  1  0
 32 65  1  0
 33 66  1  0
 33 67  1  0
 34 68  1  0
 34 69  1  0
M  END
>  <smiles>  (10) 
CCC(=O)N(c1ccccc1)C1CCN(C(=O)[C@@H](N)C(C)(C)c2ccc3ccccc3c2)CC1

>  <score_type>  (10) 
oracle

>  <origin>  (10) 
autodockgpu

>  <m_score__min__energy>  (10) 
-9.1699999999999999

>  <m_primary>  (10) 
energy

>  <rmsd>  (10) 
2.9657163553809403

>  <m_score__min__rmsd>  (10) 
2.9657163553809403

>  <meeko>  (10) 
{"free_energy": -8.3, "intermolecular_energy": -10.69, "internal_energy": -2.65, "cluster_size": 32, "cluster_id": 1, "rank_in_cluster": 28}

>  <energy>  (10) 
-8.66

>  <cluster_rmsd>  (10) 
0.41

>  <cluster>  (10) 
1

$$$$

     RDKit          3D

 69 72  0  0  0  0  0  0  0  0999 V2000
  143.2780   76.5200  218.9750 C   0  0  0  0  0  0  0  0  0  0  0  0
  142.5480   77.7060  218.3110 C   0  0  0  0  0  0  0  0  0  0  0  0
  142.0020   78.5840  219.3370 C   0  0  0  0  0  0  0  0  0  0  0  0
  142.1470   79.8490  219.1350 O   0  0  0  0  0  0  0  0  0  0  0  0
  141.3340   78.2420  220.5220 N   0  0  0  0  0  0  0  0  0  0  0  0
  141.4660   79.2120  221.6040 C   0  0  0  0  0  0  0  0  0  0  0  0
  140.4600   80.1570  221.7210 C   0  0  0  0  0  0  0  0  0  0  0  0
  140.5090   81.1060  222.7110 C   0  0  0  0  0  0  0  0  0  0  0  0
  141.5870   81.0770  223.5720 C   0  0  0  0  0  0  0  0  0  0  0  0
  142.5930   80.1380  223.4600 C   0  0  0  0  0  0  0  0  0  0  0  0
  142.5530   79.1660  222.4530 C   0  0  0  0  0  0  0  0  0  0  0  0
  140.5470   77.0900  220.8100 C   0  0  0  0  0  0  0  0  0  0  0  0
  139.3590   76.9470  219.8640 C   0  0  0  0  0  0  0  0  0  0  0  0
  138.9030   75.5400  219.8720 C   0  0  0  0  0  0  0  0  0  0  0  0
  139.0610   74.9280  221.1790 N   0  0  0  0  0  0  0  0  0  0  0  0
  138.5970   73.5690  221.2240 C   0  0  0  0  0  0  0  0  0  0  0  0
  138.1340   73.1480  220.1120 O   0  0  0  0  0  0  0  0  0  0  0  0
  138.5900   72.6410  222.3400 C   0  0  1  0  0  0  0  0  0  0  0  0
  137.3990   71.8830  222.4200 N   0  0  0  0  0  0  0  0  0  0  0  0
  139.8410   71.7610  222.2930 C   0  0  0  0  0  0  0  0  0  0  0  0
  139.6510   70.6830  221.2580 C   0  0  0  0  0  0  0  0  0  0  0  0
  141.0490   72.5680  221.8960 C   0  0  0  0  0  0  0  0  0  0  0  0
  140.0290   71.1600  223.6210 C   0  0  0  0  0  0  0  0  0  0  0  0
  140.6870   71.8870  224.6120 C   0  0  0  0  0  0  0  0  0  0  0  0
  140.9100   71.3780  225.8750 C   0  0  0  0  0  0  0  0  0  0  0  0
  140.4830   70.1100  226.2110 C   0  0  0  0  0  0  0  0  0  0  0  0
  140.6730   69.5450  227.4510 C   0  0  0  0  0  0  0  0  0  0  0  0
  140.2200   68.2590  227.7320 C   0  0  0  0  0  0  0  0  0  0  0  0
  139.5630   67.5070  226.7740 C   0  0  0  0  0  0  0  0  0  0  0  0
  139.3860   68.0980  225.5400 C   0  0  0  0  0  0  0  0  0  0  0  0
  139.8310   69.3750  225.2470 C   0  0  0  0  0  0  0  0  0  0  0  0
  139.6120   69.8960  223.9790 C   0  0  0  0  0  0  0  0  0  0  0  0
  139.5970   75.4990  222.3570 C   0  0  0  0  0  0  0  0  0  0  0  0
  140.0710   76.9420  222.2210 C   0  0  0  0  0  0  0  0  0  0  0  0
  143.2175   76.6182  220.0689 H   0  0  0  0  0  0  0  0  0  0  0  0
  142.8036   75.5773  218.6647 H   0  0  0  0  0  0  0  0  0  0  0  0
  144.3333   76.5189  218.6647 H   0  0  0  0  0  0  0  0  0  0  0  0
  143.2579   78.2695  217.6877 H   0  0  0  0  0  0  0  0  0  0  0  0
  141.7282   77.3242  217.6847 H   0  0  0  0  0  0  0  0  0  0  0  0
  139.6161   80.1467  221.0155 H   0  0  0  0  0  0  0  0  0  0  0  0
  139.7174   81.8627  222.8145 H   0  0  0  0  0  0  0  0  0  0  0  0
  141.6468   81.8271  224.3744 H   0  0  0  0  0  0  0  0  0  0  0  0
  143.4341   80.1537  224.1688 H   0  0  0  0  0  0  0  0  0  0  0  0
  143.3433   78.4086  222.3447 H   0  0  0  0  0  0  0  0  0  0  0  0
  141.2678   76.2745  220.6504 H   0  0  0  0  0  0  0  0  0  0  0  0
  138.5407   77.6017  220.1982 H   0  0  0  0  0  0  0  0  0  0  0  0
  139.6586   77.2345  218.8454 H   0  0  0  0  0  0  0  0  0  0  0  0
  137.8400   75.5089  219.5907 H   0  0  0  0  0  0  0  0  0  0  0  0
  139.5191   74.9775  219.1550 H   0  0  0  0  0  0  0  0  0  0  0  0
  138.6149   73.2305  223.2684 H   0  0  0  0  0  0  0  0  0  0  0  0
  136.7700   72.0760  223.2160 H   0  0  0  0  0  0  0  0  0  0  0  0
  136.8390   71.8760  221.5550 H   0  0  0  0  0  0  0  0  0  0  0  0
  139.4811   69.7189  221.7597 H   0  0  0  0  0  0  0  0  0  0  0  0
  138.7821   70.9274  220.6293 H   0  0  0  0  0  0  0  0  0  0  0  0
  140.5511   70.6156  220.6293 H   0  0  0  0  0  0  0  0  0  0  0  0
  141.5704   72.9163  222.7997 H   0  0  0  0  0  0  0  0  0  0  0  0
  141.7284   71.9417  221.2991 H   0  0  0  0  0  0  0  0  0  0  0  0
  140.7305   73.4354  221.2991 H   0  0  0  0  0  0  0  0  0  0  0  0
  141.0408   72.9021  224.3789 H   0  0  0  0  0  0  0  0  0  0  0  0
  141.4346   71.9907  226.6229 H   0  0  0  0  0  0  0  0  0  0  0  0
  141.1914   70.1189  228.2333 H   0  0  0  0  0  0  0  0  0  0  0  0
  140.3871   67.8334  228.7325 H   0  0  0  0  0  0  0  0  0  0  0  0
  139.2005   66.4902  226.9855 H   0  0  0  0  0  0  0  0  0  0  0  0
  138.8681   67.5287  224.7541 H   0  0  0  0  0  0  0  0  0  0  0  0
  139.0877   69.2789  223.2345 H   0  0  0  0  0  0  0  0  0  0  0  0
  138.8195   75.4680  223.1345 H   0  0  0  0  0  0  0  0  0  0  0  0
  140.4899   74.9063  222.6048 H   0  0  0  0  0  0  0  0  0  0  0  0
  139.2415   77.6368  222.4192 H   0  0  0  0  0  0  0  0  0  0  0  0
  140.8697   77.1727  222.9413 H   0  0  0  0  0  0  0  0  0  0  0  0
  1  2  1  0
  2  3  1  0
  3  4  2  0
  3  5  1  0
  5  6  1  0
  6  7  2  0
  7  8  1  0
  8  9  2  0
  9 10  1  0
 10 11  2  0
  5 12  1  0
 12 13  1  0
 13 14  1  0
 14 15  1  0
 15 16  1  0
 16 17  2  0
 16 18  1  0
 18 19  1  0
 18 20  1  0
 20 21  1  0
 20 22  1  0
 20 23  1  0
 23 24  2  0
 24 25  1  0
 25 26  2  0
 26 27  1  0
 27 28  2  0
 28 29  1  0
 29 30  2  0
 30 31  1  0
 31 32  2  0
 15 33  1  0
 33 34  1  0
 11  6  1  0
 34 12  1  0
 32 23  1  0
 31 26  1  0
  1 35  1  0
  1 36  1  0
  1 37  1  0
  2 38  1  0
  2 39  1  0
  7 40  1  0
  8 41  1  0
  9 42  1  0
 10 43  1  0
 11 44  1  0
 12 45  1  0
 13 46  1  0
 13 47  1  0
 14 48  1  0
 14 49  1  0
 18 50  1  1
 19 51  1  0
 19 52  1  0
 21 53  1  0
 21 54  1  0
 21 55  1  0
 22 56  1  0
 22 57  1  0
 22 58  1  0
 24 59  1  0
 25 60  1  0
 27 61  1  0
 28 62  1  0
 29 63  1  0
 30 64  1  0
 32 65  1  0
 33 66  1  0
 33 67  1  0
 34 68  1  0
 34 69  1  0
M  END
>  <smiles>  (11) 
CCC(=O)N(c1ccccc1)C1CCN(C(=O)[C@@H](N)C(C)(C)c2ccc3ccccc3c2)CC1

>  <score_type>  (11) 
oracle

>  <origin>  (11) 
autodockgpu

>  <m_score__min__energy>  (11) 
-9.1699999999999999

>  <m_primary>  (11) 
energy

>  <rmsd>  (11) 
2.955645985520541

>  <m_score__min__rmsd>  (11) 
2.955645985520541

>  <meeko>  (11) 
{"free_energy": -8.41, "intermolecular_energy": -10.79, "internal_energy": -2.62, "cluster_size": 32, "cluster_id": 1, "rank_in_cluster": 22}

>  <energy>  (11) 
-8.65

>  <cluster_rmsd>  (11) 
0.43

>  <cluster>  (11) 
1

$$$$

     RDKit          3D

 69 72  0  0  0  0  0  0  0  0999 V2000
  142.1130   78.9410  216.8930 C   0  0  0  0  0  0  0  0  0  0  0  0
  142.5400   78.3280  218.2430 C   0  0  0  0  0  0  0  0  0  0  0  0
  142.0620   79.1650  219.3360 C   0  0  0  0  0  0  0  0  0  0  0  0
  142.2260   80.4350  219.1890 O   0  0  0  0  0  0  0  0  0  0  0  0
  141.4440   78.7770  220.5350 N   0  0  0  0  0  0  0  0  0  0  0  0
  141.6260   79.7020  221.6470 C   0  0  0  0  0  0  0  0  0  0  0  0
  142.6490   79.4150  222.5370 C   0  0  0  0  0  0  0  0  0  0  0  0
  142.8860   80.2350  223.6110 C   0  0  0  0  0  0  0  0  0  0  0  0
  142.0760   81.3410  223.7630 C   0  0  0  0  0  0  0  0  0  0  0  0
  141.0550   81.6330  222.8800 C   0  0  0  0  0  0  0  0  0  0  0  0
  140.8040   80.8030  221.7810 C   0  0  0  0  0  0  0  0  0  0  0  0
  140.6660   77.6160  220.8090 C   0  0  0  0  0  0  0  0  0  0  0  0
  139.5300   77.4280  219.8080 C   0  0  0  0  0  0  0  0  0  0  0  0
  139.1010   76.0130  219.8260 C   0  0  0  0  0  0  0  0  0  0  0  0
  139.2030   75.4350  221.1540 N   0  0  0  0  0  0  0  0  0  0  0  0
  138.7630   74.0670  221.2080 C   0  0  0  0  0  0  0  0  0  0  0  0
  138.3650   73.6120  220.0850 O   0  0  0  0  0  0  0  0  0  0  0  0
  138.7160   73.1660  222.3440 C   0  0  1  0  0  0  0  0  0  0  0  0
  137.4210   72.6530  222.5890 N   0  0  0  0  0  0  0  0  0  0  0  0
  139.7600   72.0600  222.1750 C   0  0  0  0  0  0  0  0  0  0  0  0
  139.3130   71.1180  221.0870 C   0  0  0  0  0  0  0  0  0  0  0  0
  141.0890   72.6370  221.7620 C   0  0  0  0  0  0  0  0  0  0  0  0
  139.8780   71.3410  223.4510 C   0  0  0  0  0  0  0  0  0  0  0  0
  139.4540   70.0150  223.5270 C   0  0  0  0  0  0  0  0  0  0  0  0
  139.5220   69.2860  224.6970 C   0  0  0  0  0  0  0  0  0  0  0  0
  140.0210   69.8490  225.8540 C   0  0  0  0  0  0  0  0  0  0  0  0
  140.1160   69.1770  227.0500 C   0  0  0  0  0  0  0  0  0  0  0  0
  140.6280   69.7990  228.1850 C   0  0  0  0  0  0  0  0  0  0  0  0
  141.0590   71.1140  228.1470 C   0  0  0  0  0  0  0  0  0  0  0  0
  140.9520   71.7630  226.9350 C   0  0  0  0  0  0  0  0  0  0  0  0
  140.4450   71.1580  225.7990 C   0  0  0  0  0  0  0  0  0  0  0  0
  140.3720   71.8830  224.6170 C   0  0  0  0  0  0  0  0  0  0  0  0
  139.6670   76.0430  222.3440 C   0  0  0  0  0  0  0  0  0  0  0  0
  140.1200   77.4910  222.1980 C   0  0  0  0  0  0  0  0  0  0  0  0
  141.4929   79.8313  217.0743 H   0  0  0  0  0  0  0  0  0  0  0  0
  143.0078   79.2277  216.3211 H   0  0  0  0  0  0  0  0  0  0  0  0
  141.5339   78.2010  216.3211 H   0  0  0  0  0  0  0  0  0  0  0  0
  142.1099   77.3202  218.3392 H   0  0  0  0  0  0  0  0  0  0  0  0
  143.6375   78.2669  218.2843 H   0  0  0  0  0  0  0  0  0  0  0  0
  143.2749   78.5240  222.3812 H   0  0  0  0  0  0  0  0  0  0  0  0
  143.6935   80.0181  224.3257 H   0  0  0  0  0  0  0  0  0  0  0  0
  142.2491   82.0132  224.6163 H   0  0  0  0  0  0  0  0  0  0  0  0
  140.4333   82.5259  223.0418 H   0  0  0  0  0  0  0  0  0  0  0  0
  139.9971   81.0161  221.0644 H   0  0  0  0  0  0  0  0  0  0  0  0
  141.4096   76.8121  220.7047 H   0  0  0  0  0  0  0  0  0  0  0  0
  138.6836   78.0735  220.0854 H   0  0  0  0  0  0  0  0  0  0  0  0
  139.8753   77.6986  218.7993 H   0  0  0  0  0  0  0  0  0  0  0  0
  138.0548   75.9540  219.4915 H   0  0  0  0  0  0  0  0  0  0  0  0
  139.7635   75.4465  219.1550 H   0  0  0  0  0  0  0  0  0  0  0  0
  138.9672   73.7463  223.2441 H   0  0  0  0  0  0  0  0  0  0  0  0
  136.9430   72.9690  223.4480 H   0  0  0  0  0  0  0  0  0  0  0  0
  136.7690   72.7480  221.7970 H   0  0  0  0  0  0  0  0  0  0  0  0
  138.8833   70.2123  221.5399 H   0  0  0  0  0  0  0  0  0  0  0  0
  138.5533   71.6121  220.4635 H   0  0  0  0  0  0  0  0  0  0  0  0
  140.1762   70.8420  220.4635 H   0  0  0  0  0  0  0  0  0  0  0  0
  141.6732   72.8907  222.6588 H   0  0  0  0  0  0  0  0  0  0  0  0
  141.6397   71.8970  221.1628 H   0  0  0  0  0  0  0  0  0  0  0  0
  140.9244   73.5447  221.1628 H   0  0  0  0  0  0  0  0  0  0  0  0
  139.0515   69.5334  222.6236 H   0  0  0  0  0  0  0  0  0  0  0  0
  139.1739   68.2426  224.7074 H   0  0  0  0  0  0  0  0  0  0  0  0
  139.7819   68.1307  227.1107 H   0  0  0  0  0  0  0  0  0  0  0  0
  140.6912   69.2362  229.1280 H   0  0  0  0  0  0  0  0  0  0  0  0
  141.4658   71.6153  229.0376 H   0  0  0  0  0  0  0  0  0  0  0  0
  141.2849   72.8093  226.8685 H   0  0  0  0  0  0  0  0  0  0  0  0
  140.7207   72.9263  224.6116 H   0  0  0  0  0  0  0  0  0  0  0  0
  138.8514   76.0141  223.0815 H   0  0  0  0  0  0  0  0  0  0  0  0
  140.5568   75.4739  222.6511 H   0  0  0  0  0  0  0  0  0  0  0  0
  139.2685   78.1734  222.3366 H   0  0  0  0  0  0  0  0  0  0  0  0
  140.8758   77.7542  222.9527 H   0  0  0  0  0  0  0  0  0  0  0  0
  1  2  1  0
  2  3  1  0
  3  4  2  0
  3  5  1  0
  5  6  1  0
  6  7  2  0
  7  8  1  0
  8  9  2  0
  9 10  1  0
 10 11  2  0
  5 12  1  0
 12 13  1  0
 13 14  1  0
 14 15  1  0
 15 16  1  0
 16 17  2  0
 16 18  1  0
 18 19  1  0
 18 20  1  0
 20 21  1  0
 20 22  1  0
 20 23  1  0
 23 24  2  0
 24 25  1  0
 25 26  2  0
 26 27  1  0
 27 28  2  0
 28 29  1  0
 29 30  2  0
 30 31  1  0
 31 32  2  0
 15 33  1  0
 33 34  1  0
 11  6  1  0
 34 12  1  0
 32 23  1  0
 31 26  1  0
  1 35  1  0
  1 36  1  0
  1 37  1  0
  2 38  1  0
  2 39  1  0
  7 40  1  0
  8 41  1  0
  9 42  1  0
 10 43  1  0
 11 44  1  0
 12 45  1  0
 13 46  1  0
 13 47  1  0
 14 48  1  0
 14 49  1  0
 18 50  1  1
 19 51  1  0
 19 52  1  0
 21 53  1  0
 21 54  1  0
 21 55  1  0
 22 56  1  0
 22 57  1  0
 22 58  1  0
 24 59  1  0
 25 60  1  0
 27 61  1  0
 28 62  1  0
 29 63  1  0
 30 64  1  0
 32 65  1  0
 33 66  1  0
 33 67  1  0
 34 68  1  0
 34 69  1  0
M  END
>  <smiles>  (12) 
CCC(=O)N(c1ccccc1)C1CCN(C(=O)[C@@H](N)C(C)(C)c2ccc3ccccc3c2)CC1

>  <score_type>  (12) 
oracle

>  <origin>  (12) 
autodockgpu

>  <m_score__min__energy>  (12) 
-9.1699999999999999

>  <m_primary>  (12) 
energy

>  <rmsd>  (12) 
2.3611410678033202

>  <m_score__min__rmsd>  (12) 
2.3611410678033202

>  <meeko>  (12) 
{"free_energy": -8.96, "intermolecular_energy": -11.35, "internal_energy": -2.22, "cluster_size": 32, "cluster_id": 1, "rank_in_cluster": 7}

>  <energy>  (12) 
-8.59

>  <cluster_rmsd>  (12) 
0.44

>  <cluster>  (12) 
1

$$$$

     RDKit          3D

 69 72  0  0  0  0  0  0  0  0999 V2000
  142.9880   76.9780  218.7590 C   0  0  0  0  0  0  0  0  0  0  0  0
  142.5220   78.3530  218.2350 C   0  0  0  0  0  0  0  0  0  0  0  0
  142.0620   79.1740  219.3470 C   0  0  0  0  0  0  0  0  0  0  0  0
  142.2260   80.4460  219.2160 O   0  0  0  0  0  0  0  0  0  0  0  0
  141.4610   78.7700  220.5480 N   0  0  0  0  0  0  0  0  0  0  0  0
  141.6610   79.6800  221.6710 C   0  0  0  0  0  0  0  0  0  0  0  0
  142.6970   79.3810  222.5400 C   0  0  0  0  0  0  0  0  0  0  0  0
  142.9520   80.1860  223.6220 C   0  0  0  0  0  0  0  0  0  0  0  0
  142.1430   81.2890  223.8030 C   0  0  0  0  0  0  0  0  0  0  0  0
  141.1080   81.5910  222.9400 C   0  0  0  0  0  0  0  0  0  0  0  0
  140.8390   80.7770  221.8340 C   0  0  0  0  0  0  0  0  0  0  0  0
  140.6860   77.6060  220.8180 C   0  0  0  0  0  0  0  0  0  0  0  0
  139.5630   77.4080  219.8050 C   0  0  0  0  0  0  0  0  0  0  0  0
  139.1410   75.9910  219.8230 C   0  0  0  0  0  0  0  0  0  0  0  0
  139.2310   75.4180  221.1530 N   0  0  0  0  0  0  0  0  0  0  0  0
  138.7980   74.0480  221.2070 C   0  0  0  0  0  0  0  0  0  0  0  0
  138.4160   73.5870  220.0810 O   0  0  0  0  0  0  0  0  0  0  0  0
  138.7430   73.1500  222.3460 C   0  0  1  0  0  0  0  0  0  0  0  0
  137.4450   72.6430  222.5870 N   0  0  0  0  0  0  0  0  0  0  0  0
  139.7840   72.0400  222.1840 C   0  0  0  0  0  0  0  0  0  0  0  0
  139.3360   71.0930  221.1010 C   0  0  0  0  0  0  0  0  0  0  0  0
  141.1150   72.6100  221.7710 C   0  0  0  0  0  0  0  0  0  0  0  0
  139.8970   71.3280  223.4640 C   0  0  0  0  0  0  0  0  0  0  0  0
  139.4640   70.0050  223.5490 C   0  0  0  0  0  0  0  0  0  0  0  0
  139.5280   69.2820  224.7230 C   0  0  0  0  0  0  0  0  0  0  0  0
  140.0300   69.8490  225.8760 C   0  0  0  0  0  0  0  0  0  0  0  0
  140.1210   69.1830  227.0760 C   0  0  0  0  0  0  0  0  0  0  0  0
  140.6370   69.8080  228.2080 C   0  0  0  0  0  0  0  0  0  0  0  0
  141.0770   71.1200  228.1620 C   0  0  0  0  0  0  0  0  0  0  0  0
  140.9740   71.7630  226.9460 C   0  0  0  0  0  0  0  0  0  0  0  0
  140.4630   71.1540  225.8140 C   0  0  0  0  0  0  0  0  0  0  0  0
  140.3950   71.8730  224.6280 C   0  0  0  0  0  0  0  0  0  0  0  0
  139.6780   76.0330  222.3470 C   0  0  0  0  0  0  0  0  0  0  0  0
  140.1250   77.4830  222.2000 C   0  0  0  0  0  0  0  0  0  0  0  0
  142.9857   76.9848  219.8590 H   0  0  0  0  0  0  0  0  0  0  0  0
  142.3046   76.1963  218.3957 H   0  0  0  0  0  0  0  0  0  0  0  0
  144.0058   76.7729  218.3957 H   0  0  0  0  0  0  0  0  0  0  0  0
  143.3613   78.8559  217.7323 H   0  0  0  0  0  0  0  0  0  0  0  0
  141.6960   78.2097  217.5229 H   0  0  0  0  0  0  0  0  0  0  0  0
  143.3199   78.4921  222.3618 H   0  0  0  0  0  0  0  0  0  0  0  0
  143.7718   79.9600  224.3197 H   0  0  0  0  0  0  0  0  0  0  0  0
  142.3285   81.9494  224.6629 H   0  0  0  0  0  0  0  0  0  0  0  0
  140.4884   82.4810  223.1240 H   0  0  0  0  0  0  0  0  0  0  0  0
  140.0195   80.9986  221.1345 H   0  0  0  0  0  0  0  0  0  0  0  0
  141.4353   76.8060  220.7258 H   0  0  0  0  0  0  0  0  0  0  0  0
  138.7100   78.0500  220.0702 H   0  0  0  0  0  0  0  0  0  0  0  0
  139.9188   77.6765  218.7993 H   0  0  0  0  0  0  0  0  0  0  0  0
  138.0989   75.9256  219.4771 H   0  0  0  0  0  0  0  0  0  0  0  0
  139.8139   75.4258  219.1613 H   0  0  0  0  0  0  0  0  0  0  0  0
  138.9926   73.7313  223.2459 H   0  0  0  0  0  0  0  0  0  0  0  0
  136.9620   72.9670  223.4400 H   0  0  0  0  0  0  0  0  0  0  0  0
  136.7980   72.7330  221.7900 H   0  0  0  0  0  0  0  0  0  0  0  0
  138.9082   70.1887  221.5585 H   0  0  0  0  0  0  0  0  0  0  0  0
  138.5745   71.5835  220.4769 H   0  0  0  0  0  0  0  0  0  0  0  0
  140.1982   70.8154  220.4769 H   0  0  0  0  0  0  0  0  0  0  0  0
  141.7006   72.8608  222.6677 H   0  0  0  0  0  0  0  0  0  0  0  0
  141.6620   71.8672  221.1718 H   0  0  0  0  0  0  0  0  0  0  0  0
  140.9548   73.5184  221.1718 H   0  0  0  0  0  0  0  0  0  0  0  0
  139.0573   69.5208  222.6489 H   0  0  0  0  0  0  0  0  0  0  0  0
  139.1742   68.2406  224.7394 H   0  0  0  0  0  0  0  0  0  0  0  0
  139.7804   68.1392  227.1424 H   0  0  0  0  0  0  0  0  0  0  0  0
  140.6961   69.2504  229.1543 H   0  0  0  0  0  0  0  0  0  0  0  0
  141.4876   71.6237  229.0495 H   0  0  0  0  0  0  0  0  0  0  0  0
  141.3134   72.8068  226.8732 H   0  0  0  0  0  0  0  0  0  0  0  0
  140.7510   72.9138  224.6170 H   0  0  0  0  0  0  0  0  0  0  0  0
  138.8539   76.0027  223.0750 H   0  0  0  0  0  0  0  0  0  0  0  0
  140.5668   75.4696  222.6673 H   0  0  0  0  0  0  0  0  0  0  0  0
  139.2683   78.1613  222.3261 H   0  0  0  0  0  0  0  0  0  0  0  0
  140.8709   77.7529  222.9621 H   0  0  0  0  0  0  0  0  0  0  0  0
  1  2  1  0
  2  3  1  0
  3  4  2  0
  3  5  1  0
  5  6  1  0
  6  7  2  0
  7  8  1  0
  8  9  2  0
  9 10  1  0
 10 11  2  0
  5 12  1  0
 12 13  1  0
 13 14  1  0
 14 15  1  0
 15 16  1  0
 16 17  2  0
 16 18  1  0
 18 19  1  0
 18 20  1  0
 20 21  1  0
 20 22  1  0
 20 23  1  0
 23 24  2  0
 24 25  1  0
 25 26  2  0
 26 27  1  0
 27 28  2  0
 28 29  1  0
 29 30  2  0
 30 31  1  0
 31 32  2  0
 15 33  1  0
 33 34  1  0
 11  6  1  0
 34 12  1  0
 32 23  1  0
 31 26  1  0
  1 35  1  0
  1 36  1  0
  1 37  1  0
  2 38  1  0
  2 39  1  0
  7 40  1  0
  8 41  1  0
  9 42  1  0
 10 43  1  0
 11 44  1  0
 12 45  1  0
 13 46  1  0
 13 47  1  0
 14 48  1  0
 14 49  1  0
 18 50  1  1
 19 51  1  0
 19 52  1  0
 21 53  1  0
 21 54  1  0
 21 55  1  0
 22 56  1  0
 22 57  1  0
 22 58  1  0
 24 59  1  0
 25 60  1  0
 27 61  1  0
 28 62  1  0
 29 63  1  0
 30 64  1  0
 32 65  1  0
 33 66  1  0
 33 67  1  0
 34 68  1  0
 34 69  1  0
M  END
>  <smiles>  (13) 
CCC(=O)N(c1ccccc1)C1CCN(C(=O)[C@@H](N)C(C)(C)c2ccc3ccccc3c2)CC1

>  <score_type>  (13) 
oracle

>  <origin>  (13) 
autodockgpu

>  <m_score__min__energy>  (13) 
-9.1699999999999999

>  <m_primary>  (13) 
energy

>  <rmsd>  (13) 
2.353117928431834

>  <m_score__min__rmsd>  (13) 
2.353117928431834

>  <meeko>  (13) 
{"free_energy": -9.11, "intermolecular_energy": -11.5, "internal_energy": -2.27, "cluster_size": 32, "cluster_id": 1, "rank_in_cluster": 4}

>  <energy>  (13) 
-8.57

>  <cluster_rmsd>  (13) 
0.46

>  <cluster>  (13) 
1

$$$$

     RDKit          3D

 69 72  0  0  0  0  0  0  0  0999 V2000
  142.1870   80.1690  217.3780 C   0  0  0  0  0  0  0  0  0  0  0  0
  142.1790   80.2300  218.9200 C   0  0  0  0  0  0  0  0  0  0  0  0
  142.0030   78.8910  219.4650 C   0  0  0  0  0  0  0  0  0  0  0  0
  142.5360   77.9310  218.7890 O   0  0  0  0  0  0  0  0  0  0  0  0
  141.3310   78.4980  220.6310 N   0  0  0  0  0  0  0  0  0  0  0  0
  141.4460   79.4270  221.7500 C   0  0  0  0  0  0  0  0  0  0  0  0
  142.5940   79.3350  222.5210 C   0  0  0  0  0  0  0  0  0  0  0  0
  142.7800   80.1720  223.5930 C   0  0  0  0  0  0  0  0  0  0  0  0
  141.7900   81.0950  223.8620 C   0  0  0  0  0  0  0  0  0  0  0  0
  140.6440   81.1910  223.0970 C   0  0  0  0  0  0  0  0  0  0  0  0
  140.4440   80.3410  222.0030 C   0  0  0  0  0  0  0  0  0  0  0  0
  140.5540   77.3280  220.8690 C   0  0  0  0  0  0  0  0  0  0  0  0
  139.4230   77.1660  219.8580 C   0  0  0  0  0  0  0  0  0  0  0  0
  138.9970   75.7500  219.8340 C   0  0  0  0  0  0  0  0  0  0  0  0
  139.0940   75.1340  221.1450 N   0  0  0  0  0  0  0  0  0  0  0  0
  138.6560   73.7650  221.1570 C   0  0  0  0  0  0  0  0  0  0  0  0
  138.2650   73.3420  220.0200 O   0  0  0  0  0  0  0  0  0  0  0  0
  138.6070   72.8320  222.2670 C   0  0  1  0  0  0  0  0  0  0  0  0
  137.3940   72.1060  222.3240 N   0  0  0  0  0  0  0  0  0  0  0  0
  139.8340   71.9190  222.2350 C   0  0  0  0  0  0  0  0  0  0  0  0
  139.6590   70.8900  221.1470 C   0  0  0  0  0  0  0  0  0  0  0  0
  141.0790   72.7060  221.9240 C   0  0  0  0  0  0  0  0  0  0  0  0
  139.9480   71.2570  223.5420 C   0  0  0  0  0  0  0  0  0  0  0  0
  139.5340   69.9330  223.6750 C   0  0  0  0  0  0  0  0  0  0  0  0
  139.5990   69.2560  224.8760 C   0  0  0  0  0  0  0  0  0  0  0  0
  140.0860   69.8740  226.0100 C   0  0  0  0  0  0  0  0  0  0  0  0
  140.1780   69.2560  227.2350 C   0  0  0  0  0  0  0  0  0  0  0  0
  140.6770   69.9320  228.3450 C   0  0  0  0  0  0  0  0  0  0  0  0
  141.0980   71.2470  228.2520 C   0  0  0  0  0  0  0  0  0  0  0  0
  140.9940   71.8420  227.0120 C   0  0  0  0  0  0  0  0  0  0  0  0
  140.5000   71.1820  225.9000 C   0  0  0  0  0  0  0  0  0  0  0  0
  140.4300   71.8540  224.6870 C   0  0  0  0  0  0  0  0  0  0  0  0
  139.5510   75.7100  222.3540 C   0  0  0  0  0  0  0  0  0  0  0  0
  140.0020   77.1620  222.2510 C   0  0  0  0  0  0  0  0  0  0  0  0
  142.3236   79.1270  217.0530 H   0  0  0  0  0  0  0  0  0  0  0  0
  141.2310   80.5515  216.9910 H   0  0  0  0  0  0  0  0  0  0  0  0
  143.0121   80.7850  216.9910 H   0  0  0  0  0  0  0  0  0  0  0  0
  143.1338   80.6460  219.2741 H   0  0  0  0  0  0  0  0  0  0  0  0
  141.3494   80.8704  219.2542 H   0  0  0  0  0  0  0  0  0  0  0  0
  143.3609   78.5866  222.2724 H   0  0  0  0  0  0  0  0  0  0  0  0
  143.6851   80.1093  224.2149 H   0  0  0  0  0  0  0  0  0  0  0  0
  141.9179   81.7777  224.7150 H   0  0  0  0  0  0  0  0  0  0  0  0
  139.8814   81.9424  223.3498 H   0  0  0  0  0  0  0  0  0  0  0  0
  139.5391   80.3985  221.3802 H   0  0  0  0  0  0  0  0  0  0  0  0
  141.3002   76.5293  220.7458 H   0  0  0  0  0  0  0  0  0  0  0  0
  138.5739   77.8016  220.1497 H   0  0  0  0  0  0  0  0  0  0  0  0
  139.7722   77.4657  218.8589 H   0  0  0  0  0  0  0  0  0  0  0  0
  137.9524   75.6985  219.4931 H   0  0  0  0  0  0  0  0  0  0  0  0
  139.6642   75.2045  219.1504 H   0  0  0  0  0  0  0  0  0  0  0  0
  138.6338   73.4156  223.1990 H   0  0  0  0  0  0  0  0  0  0  0  0
  136.8460   72.0340  221.4520 H   0  0  0  0  0  0  0  0  0  0  0  0
  137.4800   71.1650  222.7350 H   0  0  0  0  0  0  0  0  0  0  0  0
  139.4910   69.9020  221.6004 H   0  0  0  0  0  0  0  0  0  0  0  0
  138.7937   71.1592  220.5234 H   0  0  0  0  0  0  0  0  0  0  0  0
  140.5646   70.8581  220.5234 H   0  0  0  0  0  0  0  0  0  0  0  0
  141.5634   73.0122  222.8630 H   0  0  0  0  0  0  0  0  0  0  0  0
  141.7716   72.0813  221.3409 H   0  0  0  0  0  0  0  0  0  0  0  0
  140.8118   73.5996  221.3409 H   0  0  0  0  0  0  0  0  0  0  0  0
  139.1414   69.4088  222.7912 H   0  0  0  0  0  0  0  0  0  0  0  0
  139.2586   68.2114  224.9301 H   0  0  0  0  0  0  0  0  0  0  0  0
  139.8520   68.2106  227.3395 H   0  0  0  0  0  0  0  0  0  0  0  0
  140.7377   69.4120  229.3125 H   0  0  0  0  0  0  0  0  0  0  0  0
  141.4952   71.7899  229.1223 H   0  0  0  0  0  0  0  0  0  0  0  0
  141.3180   72.8874  226.9018 H   0  0  0  0  0  0  0  0  0  0  0  0
  140.7709   72.8987  224.6381 H   0  0  0  0  0  0  0  0  0  0  0  0
  138.7317   75.6592  223.0862 H   0  0  0  0  0  0  0  0  0  0  0  0
  140.4405   75.1342  222.6494 H   0  0  0  0  0  0  0  0  0  0  0  0
  139.1486   77.8387  222.4051 H   0  0  0  0  0  0  0  0  0  0  0  0
  140.7542   77.4046  223.0161 H   0  0  0  0  0  0  0  0  0  0  0  0
  1  2  1  0
  2  3  1  0
  3  4  2  0
  3  5  1  0
  5  6  1  0
  6  7  2  0
  7  8  1  0
  8  9  2  0
  9 10  1  0
 10 11  2  0
  5 12  1  0
 12 13  1  0
 13 14  1  0
 14 15  1  0
 15 16  1  0
 16 17  2  0
 16 18  1  0
 18 19  1  0
 18 20  1  0
 20 21  1  0
 20 22  1  0
 20 23  1  0
 23 24  2  0
 24 25  1  0
 25 26  2  0
 26 27  1  0
 27 28  2  0
 28 29  1  0
 29 30  2  0
 30 31  1  0
 31 32  2  0
 15 33  1  0
 33 34  1  0
 11  6  1  0
 34 12  1  0
 32 23  1  0
 31 26  1  0
  1 35  1  0
  1 36  1  0
  1 37  1  0
  2 38  1  0
  2 39  1  0
  7 40  1  0
  8 41  1  0
  9 42  1  0
 10 43  1  0
 11 44  1  0
 12 45  1  0
 13 46  1  0
 13 47  1  0
 14 48  1  0
 14 49  1  0
 18 50  1  1
 19 51  1  0
 19 52  1  0
 21 53  1  0
 21 54  1  0
 21 55  1  0
 22 56  1  0
 22 57  1  0
 22 58  1  0
 24 59  1  0
 25 60  1  0
 27 61  1  0
 28 62  1  0
 29 63  1  0
 30 64  1  0
 32 65  1  0
 33 66  1  0
 33 67  1  0
 34 68  1  0
 34 69  1  0
M  END
>  <smiles>  (14) 
CCC(=O)N(c1ccccc1)C1CCN(C(=O)[C@@H](N)C(C)(C)c2ccc3ccccc3c2)CC1

>  <score_type>  (14) 
oracle

>  <origin>  (14) 
autodockgpu

>  <m_score__min__energy>  (14) 
-9.1699999999999999

>  <m_primary>  (14) 
energy

>  <rmsd>  (14) 
2.2530282261478805

>  <m_score__min__rmsd>  (14) 
2.2530282261478805

>  <meeko>  (14) 
{"free_energy": -8.49, "intermolecular_energy": -10.88, "internal_energy": -2.41, "cluster_size": 32, "cluster_id": 1, "rank_in_cluster": 16}

>  <energy>  (14) 
-8.54

>  <cluster_rmsd>  (14) 
0.45

>  <cluster>  (14) 
1

$$$$

     RDKit          3D

 69 72  0  0  0  0  0  0  0  0999 V2000
  142.8910   77.1610  218.8000 C   0  0  0  0  0  0  0  0  0  0  0  0
  142.5450   78.5790  218.3010 C   0  0  0  0  0  0  0  0  0  0  0  0
  141.8270   79.3050  219.3400 C   0  0  0  0  0  0  0  0  0  0  0  0
  141.6140   80.5560  219.1120 O   0  0  0  0  0  0  0  0  0  0  0  0
  141.3320   78.8290  220.5630 N   0  0  0  0  0  0  0  0  0  0  0  0
  141.6310   79.6700  221.7170 C   0  0  0  0  0  0  0  0  0  0  0  0
  140.8080   80.7650  221.9220 C   0  0  0  0  0  0  0  0  0  0  0  0
  141.0220   81.6070  222.9840 C   0  0  0  0  0  0  0  0  0  0  0  0
  142.0770   81.3190  223.8260 C   0  0  0  0  0  0  0  0  0  0  0  0
  142.9010   80.2290  223.6260 C   0  0  0  0  0  0  0  0  0  0  0  0
  142.6920   79.3640  222.5460 C   0  0  0  0  0  0  0  0  0  0  0  0
  140.5790   77.6490  220.8290 C   0  0  0  0  0  0  0  0  0  0  0  0
  139.4650   77.4290  219.8100 C   0  0  0  0  0  0  0  0  0  0  0  0
  139.0720   76.0040  219.8260 C   0  0  0  0  0  0  0  0  0  0  0  0
  139.1660   75.4320  221.1570 N   0  0  0  0  0  0  0  0  0  0  0  0
  138.7600   74.0540  221.2080 C   0  0  0  0  0  0  0  0  0  0  0  0
  138.3930   73.5860  220.0800 O   0  0  0  0  0  0  0  0  0  0  0  0
  138.7180   73.1550  222.3460 C   0  0  1  0  0  0  0  0  0  0  0  0
  137.4220   72.6500  222.6030 N   0  0  0  0  0  0  0  0  0  0  0  0
  139.7540   72.0440  222.1710 C   0  0  0  0  0  0  0  0  0  0  0  0
  139.2920   71.1000  221.0900 C   0  0  0  0  0  0  0  0  0  0  0  0
  141.0820   72.6120  221.7450 C   0  0  0  0  0  0  0  0  0  0  0  0
  139.8790   71.3280  223.4480 C   0  0  0  0  0  0  0  0  0  0  0  0
  139.4600   70.0010  223.5300 C   0  0  0  0  0  0  0  0  0  0  0  0
  139.5350   69.2740  224.7010 C   0  0  0  0  0  0  0  0  0  0  0  0
  140.0380   69.8420  225.8540 C   0  0  0  0  0  0  0  0  0  0  0  0
  140.1400   69.1720  227.0510 C   0  0  0  0  0  0  0  0  0  0  0  0
  140.6550   69.7980  228.1820 C   0  0  0  0  0  0  0  0  0  0  0  0
  141.0820   71.1150  228.1400 C   0  0  0  0  0  0  0  0  0  0  0  0
  140.9680   71.7610  226.9270 C   0  0  0  0  0  0  0  0  0  0  0  0
  140.4580   71.1510  225.7940 C   0  0  0  0  0  0  0  0  0  0  0  0
  140.3770   71.8740  224.6110 C   0  0  0  0  0  0  0  0  0  0  0  0
  139.5950   76.0560  222.3520 C   0  0  0  0  0  0  0  0  0  0  0  0
  140.0130   77.5150  222.2090 C   0  0  0  0  0  0  0  0  0  0  0  0
  142.8937   77.1499  219.8999 H   0  0  0  0  0  0  0  0  0  0  0  0
  142.1405   76.4481  218.4280 H   0  0  0  0  0  0  0  0  0  0  0  0
  143.8856   76.8739  218.4280 H   0  0  0  0  0  0  0  0  0  0  0  0
  143.4728   79.1161  218.0545 H   0  0  0  0  0  0  0  0  0  0  0  0
  141.9112   78.5047  217.4050 H   0  0  0  0  0  0  0  0  0  0  0  0
  139.9769   80.9610  221.2285 H   0  0  0  0  0  0  0  0  0  0  0  0
  140.3760   82.4801  223.1581 H   0  0  0  0  0  0  0  0  0  0  0  0
  142.2678   81.9795  224.6847 H   0  0  0  0  0  0  0  0  0  0  0  0
  143.7304   80.0387  224.3230 H   0  0  0  0  0  0  0  0  0  0  0  0
  143.3361   78.4903  222.3677 H   0  0  0  0  0  0  0  0  0  0  0  0
  141.3444   76.8639  220.7406 H   0  0  0  0  0  0  0  0  0  0  0  0
  138.5979   78.0536  220.0710 H   0  0  0  0  0  0  0  0  0  0  0  0
  139.8200   77.7052  218.8061 H   0  0  0  0  0  0  0  0  0  0  0  0
  138.0334   75.9174  219.4742 H   0  0  0  0  0  0  0  0  0  0  0  0
  139.7604   75.4529  219.1684 H   0  0  0  0  0  0  0  0  0  0  0  0
  138.9804   73.7353  223.2429 H   0  0  0  0  0  0  0  0  0  0  0  0
  136.9450   72.9840  223.4560 H   0  0  0  0  0  0  0  0  0  0  0  0
  136.7690   72.7310  221.8100 H   0  0  0  0  0  0  0  0  0  0  0  0
  138.8528   70.2025  221.5500 H   0  0  0  0  0  0  0  0  0  0  0  0
  138.5364   71.5992  220.4656 H   0  0  0  0  0  0  0  0  0  0  0  0
  140.1498   70.8096  220.4656 H   0  0  0  0  0  0  0  0  0  0  0  0
  141.6751   72.8657  222.6360 H   0  0  0  0  0  0  0  0  0  0  0  0
  141.6237   71.8668  221.1439 H   0  0  0  0  0  0  0  0  0  0  0  0
  140.9173   73.5184  221.1439 H   0  0  0  0  0  0  0  0  0  0  0  0
  139.0552   69.5159  222.6295 H   0  0  0  0  0  0  0  0  0  0  0  0
  139.1898   68.2297  224.7154 H   0  0  0  0  0  0  0  0  0  0  0  0
  139.8093   68.1249  227.1151 H   0  0  0  0  0  0  0  0  0  0  0  0
  140.7242   69.2372  229.1258 H   0  0  0  0  0  0  0  0  0  0  0  0
  141.4908   71.6193  229.0280 H   0  0  0  0  0  0  0  0  0  0  0  0
  141.2972   72.8082  226.8567 H   0  0  0  0  0  0  0  0  0  0  0  0
  140.7223   72.9184  224.6021 H   0  0  0  0  0  0  0  0  0  0  0  0
  138.7686   76.0083  223.0764 H   0  0  0  0  0  0  0  0  0  0  0  0
  140.4945   75.5112  222.6747 H   0  0  0  0  0  0  0  0  0  0  0  0
  139.1420   78.1758  222.3307 H   0  0  0  0  0  0  0  0  0  0  0  0
  140.7485   77.8003  222.9755 H   0  0  0  0  0  0  0  0  0  0  0  0
  1  2  1  0
  2  3  1  0
  3  4  2  0
  3  5  1  0
  5  6  1  0
  6  7  2  0
  7  8  1  0
  8  9  2  0
  9 10  1  0
 10 11  2  0
  5 12  1  0
 12 13  1  0
 13 14  1  0
 14 15  1  0
 15 16  1  0
 16 17  2  0
 16 18  1  0
 18 19  1  0
 18 20  1  0
 20 21  1  0
 20 22  1  0
 20 23  1  0
 23 24  2  0
 24 25  1  0
 25 26  2  0
 26 27  1  0
 27 28  2  0
 28 29  1  0
 29 30  2  0
 30 31  1  0
 31 32  2  0
 15 33  1  0
 33 34  1  0
 11  6  1  0
 34 12  1  0
 32 23  1  0
 31 26  1  0
  1 35  1  0
  1 36  1  0
  1 37  1  0
  2 38  1  0
  2 39  1  0
  7 40  1  0
  8 41  1  0
  9 42  1  0
 10 43  1  0
 11 44  1  0
 12 45  1  0
 13 46  1  0
 13 47  1  0
 14 48  1  0
 14 49  1  0
 18 50  1  1
 19 51  1  0
 19 52  1  0
 21 53  1  0
 21 54  1  0
 21 55  1  0
 22 56  1  0
 22 57  1  0
 22 58  1  0
 24 59  1  0
 25 60  1  0
 27 61  1  0
 28 62  1  0
 29 63  1  0
 30 64  1  0
 32 65  1  0
 33 66  1  0
 33 67  1  0
 34 68  1  0
 34 69  1  0
M  END
>  <smiles>  (15) 
CCC(=O)N(c1ccccc1)C1CCN(C(=O)[C@@H](N)C(C)(C)c2ccc3ccccc3c2)CC1

>  <score_type>  (15) 
oracle

>  <origin>  (15) 
autodockgpu

>  <m_score__min__energy>  (15) 
-9.1699999999999999

>  <m_primary>  (15) 
energy

>  <rmsd>  (15) 
2.3516079645095083

>  <m_score__min__rmsd>  (15) 
2.3516079645095083

>  <meeko>  (15) 
{"free_energy": -9.07, "intermolecular_energy": -11.46, "internal_energy": -2.22, "cluster_size": 32, "cluster_id": 1, "rank_in_cluster": 5}

>  <energy>  (15) 
-8.52

>  <cluster_rmsd>  (15) 
0.48

>  <cluster>  (15) 
1

$$$$

     RDKit          3D

 69 72  0  0  0  0  0  0  0  0999 V2000
  135.8990   69.8420  225.1140 C   0  0  0  0  0  0  0  0  0  0  0  0
  136.7200   68.9080  224.2000 C   0  0  0  0  0  0  0  0  0  0  0  0
  138.1430   69.1110  224.4390 C   0  0  0  0  0  0  0  0  0  0  0  0
  138.8120   68.0670  224.7910 O   0  0  0  0  0  0  0  0  0  0  0  0
  138.8910   70.2930  224.3360 N   0  0  0  0  0  0  0  0  0  0  0  0
  139.6920   70.6170  225.5120 C   0  0  0  0  0  0  0  0  0  0  0  0
  140.6520   71.6040  225.3610 C   0  0  0  0  0  0  0  0  0  0  0  0
  141.4480   71.9670  226.4180 C   0  0  0  0  0  0  0  0  0  0  0  0
  141.2520   71.3180  227.6190 C   0  0  0  0  0  0  0  0  0  0  0  0
  140.2970   70.3330  227.7760 C   0  0  0  0  0  0  0  0  0  0  0  0
  139.4800   69.9540  226.7040 C   0  0  0  0  0  0  0  0  0  0  0  0
  138.9790   71.2100  223.2500 C   0  0  0  0  0  0  0  0  0  0  0  0
  137.6110   71.7240  222.8120 C   0  0  0  0  0  0  0  0  0  0  0  0
  137.7870   72.9920  222.0720 C   0  0  0  0  0  0  0  0  0  0  0  0
  139.0140   73.0000  221.2970 N   0  0  0  0  0  0  0  0  0  0  0  0
  139.1960   74.2100  220.5430 C   0  0  0  0  0  0  0  0  0  0  0  0
  138.2510   75.0540  220.6910 O   0  0  0  0  0  0  0  0  0  0  0  0
  140.2870   74.5820  219.6610 C   0  0  1  0  0  0  0  0  0  0  0  0
  139.8850   75.4550  218.6230 N   0  0  0  0  0  0  0  0  0  0  0  0
  141.4500   75.1460  220.4810 C   0  0  0  0  0  0  0  0  0  0  0  0
  141.7590   76.5430  220.0080 C   0  0  0  0  0  0  0  0  0  0  0  0
  141.0870   75.2270  221.9400 C   0  0  0  0  0  0  0  0  0  0  0  0
  142.6160   74.2750  220.2820 C   0  0  0  0  0  0  0  0  0  0  0  0
  143.8950   74.7910  220.4830 C   0  0  0  0  0  0  0  0  0  0  0  0
  145.0340   74.0330  220.3000 C   0  0  0  0  0  0  0  0  0  0  0  0
  144.9490   72.7140  219.9050 C   0  0  0  0  0  0  0  0  0  0  0  0
  146.0440   71.9050  219.7060 C   0  0  0  0  0  0  0  0  0  0  0  0
  145.8950   70.5800  219.3060 C   0  0  0  0  0  0  0  0  0  0  0  0
  144.6410   70.0320  219.0960 C   0  0  0  0  0  0  0  0  0  0  0  0
  143.5620   70.8650  219.3040 C   0  0  0  0  0  0  0  0  0  0  0  0
  143.6940   72.1840  219.7010 C   0  0  0  0  0  0  0  0  0  0  0  0
  142.5550   72.9550  219.8880 C   0  0  0  0  0  0  0  0  0  0  0  0
  140.0030   71.9920  221.2090 C   0  0  0  0  0  0  0  0  0  0  0  0
  139.7360   70.7460  222.0440 C   0  0  0  0  0  0  0  0  0  0  0  0
  136.1094   69.6026  226.1668 H   0  0  0  0  0  0  0  0  0  0  0  0
  136.1758   70.8875  224.9133 H   0  0  0  0  0  0  0  0  0  0  0  0
  134.8266   69.7016  224.9133 H   0  0  0  0  0  0  0  0  0  0  0  0
  136.4586   67.8618  224.4173 H   0  0  0  0  0  0  0  0  0  0  0  0
  136.4918   69.1357  223.1483 H   0  0  0  0  0  0  0  0  0  0  0  0
  140.7771   72.1001  224.3872 H   0  0  0  0  0  0  0  0  0  0  0  0
  142.2153   72.7480  226.3113 H   0  0  0  0  0  0  0  0  0  0  0  0
  141.8774   71.5942  228.4807 H   0  0  0  0  0  0  0  0  0  0  0  0
  140.1770   69.8414  228.7527 H   0  0  0  0  0  0  0  0  0  0  0  0
  138.7128   69.1723  226.8059 H   0  0  0  0  0  0  0  0  0  0  0  0
  139.5770   72.0242  223.6853 H   0  0  0  0  0  0  0  0  0  0  0  0
  137.1292   70.9805  222.1601 H   0  0  0  0  0  0  0  0  0  0  0  0
  136.9779   71.8942  223.6953 H   0  0  0  0  0  0  0  0  0  0  0  0
  136.9346   73.1271  221.3900 H   0  0  0  0  0  0  0  0  0  0  0  0
  137.8414   73.8101  222.8053 H   0  0  0  0  0  0  0  0  0  0  0  0
  140.6318   73.6713  219.1494 H   0  0  0  0  0  0  0  0  0  0  0  0
  139.9240   75.0900  217.6590 H   0  0  0  0  0  0  0  0  0  0  0  0
  138.9640   75.8950  218.7700 H   0  0  0  0  0  0  0  0  0  0  0  0
  141.9045   77.2008  220.8776 H   0  0  0  0  0  0  0  0  0  0  0  0
  142.6760   76.5300  219.4006 H   0  0  0  0  0  0  0  0  0  0  0  0
  140.9221   76.9180  219.4006 H   0  0  0  0  0  0  0  0  0  0  0  0
  141.9794   75.0279  222.5515 H   0  0  0  0  0  0  0  0  0  0  0  0
  140.7038   76.2327  222.1672 H   0  0  0  0  0  0  0  0  0  0  0  0
  140.3126   74.4796  222.1672 H   0  0  0  0  0  0  0  0  0  0  0  0
  144.0005   75.8394  220.7987 H   0  0  0  0  0  0  0  0  0  0  0  0
  146.0215   74.4863  220.4712 H   0  0  0  0  0  0  0  0  0  0  0  0
  147.0535   72.3118  219.8655 H   0  0  0  0  0  0  0  0  0  0  0  0
  146.7891   69.9575  219.1541 H   0  0  0  0  0  0  0  0  0  0  0  0
  144.5122   68.9864  218.7796 H   0  0  0  0  0  0  0  0  0  0  0  0
  142.5503   70.4627  219.1472 H   0  0  0  0  0  0  0  0  0  0  0  0
  141.5697   72.4972  219.7159 H   0  0  0  0  0  0  0  0  0  0  0  0
  140.0831   71.6850  220.1558 H   0  0  0  0  0  0  0  0  0  0  0  0
  140.9268   72.4352  221.6092 H   0  0  0  0  0  0  0  0  0  0  0  0
  139.1361   70.0236  221.4711 H   0  0  0  0  0  0  0  0  0  0  0  0
  140.6724   70.2423  222.3259 H   0  0  0  0  0  0  0  0  0  0  0  0
  1  2  1  0
  2  3  1  0
  3  4  2  0
  3  5  1  0
  5  6  1  0
  6  7  2  0
  7  8  1  0
  8  9  2  0
  9 10  1  0
 10 11  2  0
  5 12  1  0
 12 13  1  0
 13 14  1  0
 14 15  1  0
 15 16  1  0
 16 17  2  0
 16 18  1  0
 18 19  1  0
 18 20  1  0
 20 21  1  0
 20 22  1  0
 20 23  1  0
 23 24  2  0
 24 25  1  0
 25 26  2  0
 26 27  1  0
 27 28  2  0
 28 29  1  0
 29 30  2  0
 30 31  1  0
 31 32  2  0
 15 33  1  0
 33 34  1  0
 11  6  1  0
 34 12  1  0
 32 23  1  0
 31 26  1  0
  1 35  1  0
  1 36  1  0
  1 37  1  0
  2 38  1  0
  2 39  1  0
  7 40  1  0
  8 41  1  0
  9 42  1  0
 10 43  1  0
 11 44  1  0
 12 45  1  0
 13 46  1  0
 13 47  1  0
 14 48  1  0
 14 49  1  0
 18 50  1  6
 19 51  1  0
 19 52  1  0
 21 53  1  0
 21 54  1  0
 21 55  1  0
 22 56  1  0
 22 57  1  0
 22 58  1  0
 24 59  1  0
 25 60  1  0
 27 61  1  0
 28 62  1  0
 29 63  1  0
 30 64  1  0
 32 65  1  0
 33 66  1  0
 33 67  1  0
 34 68  1  0
 34 69  1  0
M  END
>  <smiles>  (16) 
CCC(=O)N(c1ccccc1)C1CCN(C(=O)[C@@H](N)C(C)(C)c2ccc3ccccc3c2)CC1

>  <score_type>  (16) 
oracle

>  <origin>  (16) 
autodockgpu

>  <m_score__min__energy>  (16) 
-9.1699999999999999

>  <m_primary>  (16) 
energy

>  <rmsd>  (16) 
7.027156047719397

>  <m_score__min__rmsd>  (16) 
7.027156047719397

>  <meeko>  (16) 
{"free_energy": -7.04, "intermolecular_energy": -9.43, "internal_energy": -2.85, "cluster_size": 2, "cluster_id": 3, "rank_in_cluster": 2}

>  <energy>  (16) 
-8.49

>  <cluster_rmsd>  (16) 
0.69

>  <cluster>  (16) 
1

$$$$

     RDKit          3D

 69 72  0  0  0  0  0  0  0  0999 V2000
  143.3400   76.4690  219.1420 C   0  0  0  0  0  0  0  0  0  0  0  0
  142.6330   77.6340  218.4180 C   0  0  0  0  0  0  0  0  0  0  0  0
  141.9940   78.5050  219.3960 C   0  0  0  0  0  0  0  0  0  0  0  0
  142.0650   79.7700  219.1570 O   0  0  0  0  0  0  0  0  0  0  0  0
  141.3080   78.1570  220.5680 N   0  0  0  0  0  0  0  0  0  0  0  0
  141.4220   79.1210  221.6560 C   0  0  0  0  0  0  0  0  0  0  0  0
  140.3540   79.9850  221.8390 C   0  0  0  0  0  0  0  0  0  0  0  0
  140.3820   80.9240  222.8400 C   0  0  0  0  0  0  0  0  0  0  0  0
  141.5020   80.9670  223.6450 C   0  0  0  0  0  0  0  0  0  0  0  0
  142.5700   80.1080  223.4670 C   0  0  0  0  0  0  0  0  0  0  0  0
  142.5510   79.1490  222.4490 C   0  0  0  0  0  0  0  0  0  0  0  0
  140.5180   77.0020  220.8370 C   0  0  0  0  0  0  0  0  0  0  0  0
  139.3180   76.8880  219.9020 C   0  0  0  0  0  0  0  0  0  0  0  0
  138.8540   75.4840  219.8810 C   0  0  0  0  0  0  0  0  0  0  0  0
  139.0230   74.8410  221.1710 N   0  0  0  0  0  0  0  0  0  0  0  0
  138.5520   73.4830  221.1890 C   0  0  0  0  0  0  0  0  0  0  0  0
  138.0740   73.0920  220.0730 O   0  0  0  0  0  0  0  0  0  0  0  0
  138.5520   72.5290  222.2830 C   0  0  1  0  0  0  0  0  0  0  0  0
  137.4060   71.7010  222.2930 N   0  0  0  0  0  0  0  0  0  0  0  0
  139.8540   71.7260  222.2730 C   0  0  0  0  0  0  0  0  0  0  0  0
  139.7530   70.6310  221.2420 C   0  0  0  0  0  0  0  0  0  0  0  0
  141.0210   72.6000  221.8970 C   0  0  0  0  0  0  0  0  0  0  0  0
  140.0460   71.1460  223.6090 C   0  0  0  0  0  0  0  0  0  0  0  0
  140.7040   71.8900  224.5870 C   0  0  0  0  0  0  0  0  0  0  0  0
  140.9310   71.4010  225.8570 C   0  0  0  0  0  0  0  0  0  0  0  0
  140.5070   70.1370  226.2150 C   0  0  0  0  0  0  0  0  0  0  0  0
  140.7010   69.5920  227.4630 C   0  0  0  0  0  0  0  0  0  0  0  0
  140.2520   68.3100  227.7650 C   0  0  0  0  0  0  0  0  0  0  0  0
  139.5940   67.5410  226.8200 C   0  0  0  0  0  0  0  0  0  0  0  0
  139.4130   68.1130  225.5780 C   0  0  0  0  0  0  0  0  0  0  0  0
  139.8540   69.3860  225.2630 C   0  0  0  0  0  0  0  0  0  0  0  0
  139.6320   69.8870  223.9880 C   0  0  0  0  0  0  0  0  0  0  0  0
  139.5750   75.3810  222.3570 C   0  0  0  0  0  0  0  0  0  0  0  0
  140.0560   76.8230  222.2500 C   0  0  0  0  0  0  0  0  0  0  0  0
  143.2555   76.6082  220.2299 H   0  0  0  0  0  0  0  0  0  0  0  0
  142.8664   75.5182  218.8561 H   0  0  0  0  0  0  0  0  0  0  0  0
  144.4020   76.4502  218.8561 H   0  0  0  0  0  0  0  0  0  0  0  0
  143.3731   78.2104  217.8435 H   0  0  0  0  0  0  0  0  0  0  0  0
  141.8698   77.2298  217.7368 H   0  0  0  0  0  0  0  0  0  0  0  0
  139.4777   79.9179  221.1775 H   0  0  0  0  0  0  0  0  0  0  0  0
  139.5420   81.6171  222.9948 H   0  0  0  0  0  0  0  0  0  0  0  0
  141.5462   81.7096  224.4553 H   0  0  0  0  0  0  0  0  0  0  0  0
  143.4432   80.1792  224.1322 H   0  0  0  0  0  0  0  0  0  0  0  0
  143.3897   78.4554  222.2893 H   0  0  0  0  0  0  0  0  0  0  0  0
  141.2329   76.1873  220.6493 H   0  0  0  0  0  0  0  0  0  0  0  0
  138.5073   77.5387  220.2617 H   0  0  0  0  0  0  0  0  0  0  0  0
  139.6075   77.1984  218.8872 H   0  0  0  0  0  0  0  0  0  0  0  0
  137.7879   75.4654  219.6109 H   0  0  0  0  0  0  0  0  0  0  0  0
  139.4584   74.9352  219.1437 H   0  0  0  0  0  0  0  0  0  0  0  0
  138.5013   73.0957  223.2245 H   0  0  0  0  0  0  0  0  0  0  0  0
  136.7470   71.8170  223.0800 H   0  0  0  0  0  0  0  0  0  0  0  0
  136.8700   71.7050  221.4130 H   0  0  0  0  0  0  0  0  0  0  0  0
  139.6633   69.6583  221.7478 H   0  0  0  0  0  0  0  0  0  0  0  0
  138.8667   70.8003  220.6129 H   0  0  0  0  0  0  0  0  0  0  0  0
  140.6554   70.6353  220.6129 H   0  0  0  0  0  0  0  0  0  0  0  0
  141.5125   72.9681  222.8097 H   0  0  0  0  0  0  0  0  0  0  0  0
  141.7399   72.0163  221.3033 H   0  0  0  0  0  0  0  0  0  0  0  0
  140.6631   73.4541  221.3033 H   0  0  0  0  0  0  0  0  0  0  0  0
  141.0545   72.9024  224.3375 H   0  0  0  0  0  0  0  0  0  0  0  0
  141.4566   72.0263  226.5937 H   0  0  0  0  0  0  0  0  0  0  0  0
  141.2197   70.1793  228.2350 H   0  0  0  0  0  0  0  0  0  0  0  0
  140.4227   67.9005  228.7716 H   0  0  0  0  0  0  0  0  0  0  0  0
  139.2343   66.5267  227.0479 H   0  0  0  0  0  0  0  0  0  0  0  0
  138.8943   67.5304  224.8024 H   0  0  0  0  0  0  0  0  0  0  0  0
  139.1074   69.2575  223.2542 H   0  0  0  0  0  0  0  0  0  0  0  0
  138.8055   75.3361  223.1418 H   0  0  0  0  0  0  0  0  0  0  0  0
  140.4667   74.7773  222.5814 H   0  0  0  0  0  0  0  0  0  0  0  0
  139.2330   77.5177  222.4736 H   0  0  0  0  0  0  0  0  0  0  0  0
  140.8638   77.0317  222.9668 H   0  0  0  0  0  0  0  0  0  0  0  0
  1  2  1  0
  2  3  1  0
  3  4  2  0
  3  5  1  0
  5  6  1  0
  6  7  2  0
  7  8  1  0
  8  9  2  0
  9 10  1  0
 10 11  2  0
  5 12  1  0
 12 13  1  0
 13 14  1  0
 14 15  1  0
 15 16  1  0
 16 17  2  0
 16 18  1  0
 18 19  1  0
 18 20  1  0
 20 21  1  0
 20 22  1  0
 20 23  1  0
 23 24  2  0
 24 25  1  0
 25 26  2  0
 26 27  1  0
 27 28  2  0
 28 29  1  0
 29 30  2  0
 30 31  1  0
 31 32  2  0
 15 33  1  0
 33 34  1  0
 11  6  1  0
 34 12  1  0
 32 23  1  0
 31 26  1  0
  1 35  1  0
  1 36  1  0
  1 37  1  0
  2 38  1  0
  2 39  1  0
  7 40  1  0
  8 41  1  0
  9 42  1  0
 10 43  1  0
 11 44  1  0
 12 45  1  0
 13 46  1  0
 13 47  1  0
 14 48  1  0
 14 49  1  0
 18 50  1  1
 19 51  1  0
 19 52  1  0
 21 53  1  0
 21 54  1  0
 21 55  1  0
 22 56  1  0
 22 57  1  0
 22 58  1  0
 24 59  1  0
 25 60  1  0
 27 61  1  0
 28 62  1  0
 29 63  1  0
 30 64  1  0
 32 65  1  0
 33 66  1  0
 33 67  1  0
 34 68  1  0
 34 69  1  0
M  END
>  <smiles>  (17) 
CCC(=O)N(c1ccccc1)C1CCN(C(=O)[C@@H](N)C(C)(C)c2ccc3ccccc3c2)CC1

>  <score_type>  (17) 
oracle

>  <origin>  (17) 
autodockgpu

>  <m_score__min__energy>  (17) 
-9.1699999999999999

>  <m_primary>  (17) 
energy

>  <rmsd>  (17) 
2.9294877715713796

>  <m_score__min__rmsd>  (17) 
2.9294877715713796

>  <meeko>  (17) 
{"free_energy": -8.33, "intermolecular_energy": -10.71, "internal_energy": -2.66, "cluster_size": 32, "cluster_id": 1, "rank_in_cluster": 25}

>  <energy>  (17) 
-8.48

>  <cluster_rmsd>  (17) 
0.47

>  <cluster>  (17) 
1

$$$$

     RDKit          3D

 69 72  0  0  0  0  0  0  0  0999 V2000
  146.4220   73.6990  216.5050 C   0  0  0  0  0  0  0  0  0  0  0  0
  145.0310   73.3490  217.0740 C   0  0  0  0  0  0  0  0  0  0  0  0
  145.1810   72.6410  218.3380 C   0  0  0  0  0  0  0  0  0  0  0  0
  146.2550   72.8940  219.0040 O   0  0  0  0  0  0  0  0  0  0  0  0
  144.3110   71.7170  218.9370 N   0  0  0  0  0  0  0  0  0  0  0  0
  144.7960   70.3410  218.9560 C   0  0  0  0  0  0  0  0  0  0  0  0
  144.0910   69.4420  219.7390 C   0  0  0  0  0  0  0  0  0  0  0  0
  144.4820   68.1280  219.8120 C   0  0  0  0  0  0  0  0  0  0  0  0
  145.5900   67.7490  219.0820 C   0  0  0  0  0  0  0  0  0  0  0  0
  146.2970   68.6410  218.3000 C   0  0  0  0  0  0  0  0  0  0  0  0
  145.9070   69.9830  218.2190 C   0  0  0  0  0  0  0  0  0  0  0  0
  143.0340   71.9370  219.5270 C   0  0  0  0  0  0  0  0  0  0  0  0
  142.0670   72.6370  218.5770 C   0  0  0  0  0  0  0  0  0  0  0  0
  140.6810   72.3870  219.0280 C   0  0  0  0  0  0  0  0  0  0  0  0
  140.5890   72.3160  220.4750 N   0  0  0  0  0  0  0  0  0  0  0  0
  139.2470   72.1040  220.9430 C   0  0  0  0  0  0  0  0  0  0  0  0
  138.3850   72.0160  220.0070 O   0  0  0  0  0  0  0  0  0  0  0  0
  138.7630   71.9790  222.3060 C   0  0  1  0  0  0  0  0  0  0  0  0
  137.4850   72.5560  222.4930 N   0  0  0  0  0  0  0  0  0  0  0  0
  138.8130   70.5140  222.7440 C   0  0  0  0  0  0  0  0  0  0  0  0
  137.4130   69.9570  222.7740 C   0  0  0  0  0  0  0  0  0  0  0  0
  139.6120   69.6900  221.7690 C   0  0  0  0  0  0  0  0  0  0  0  0
  139.4090   70.4570  224.0860 C   0  0  0  0  0  0  0  0  0  0  0  0
  140.1160   71.5580  224.5660 C   0  0  0  0  0  0  0  0  0  0  0  0
  140.7130   71.5660  225.8100 C   0  0  0  0  0  0  0  0  0  0  0  0
  140.6300   70.4670  226.6410 C   0  0  0  0  0  0  0  0  0  0  0  0
  141.2010   70.4130  227.8920 C   0  0  0  0  0  0  0  0  0  0  0  0
  141.0850   69.2750  228.6850 C   0  0  0  0  0  0  0  0  0  0  0  0
  140.3910   68.1620  228.2430 C   0  0  0  0  0  0  0  0  0  0  0  0
  139.8280   68.2450  226.9860 C   0  0  0  0  0  0  0  0  0  0  0  0
  139.9360   69.3690  226.1860 C   0  0  0  0  0  0  0  0  0  0  0  0
  139.3400   69.3710  224.9320 C   0  0  0  0  0  0  0  0  0  0  0  0
  141.6290   72.4270  221.4280 C   0  0  0  0  0  0  0  0  0  0  0  0
  143.0210   72.6440  220.8460 C   0  0  0  0  0  0  0  0  0  0  0  0
  147.1234   73.8755  217.3338 H   0  0  0  0  0  0  0  0  0  0  0  0
  146.7863   72.8645  215.8878 H   0  0  0  0  0  0  0  0  0  0  0  0
  146.3479   74.6065  215.8878 H   0  0  0  0  0  0  0  0  0  0  0  0
  144.4601   74.2746  217.2390 H   0  0  0  0  0  0  0  0  0  0  0  0
  144.4960   72.7072  216.3585 H   0  0  0  0  0  0  0  0  0  0  0  0
  143.2122   69.7830  220.3060 H   0  0  0  0  0  0  0  0  0  0  0  0
  143.9318   67.4033  220.4302 H   0  0  0  0  0  0  0  0  0  0  0  0
  145.9213   66.7009  219.1244 H   0  0  0  0  0  0  0  0  0  0  0  0
  147.1749   68.2937  217.7354 H   0  0  0  0  0  0  0  0  0  0  0  0
  146.4549   70.7111  217.6029 H   0  0  0  0  0  0  0  0  0  0  0  0
  142.6977   70.9101  219.7329 H   0  0  0  0  0  0  0  0  0  0  0  0
  142.2660   73.7189  218.5798 H   0  0  0  0  0  0  0  0  0  0  0  0
  142.2013   72.2471  217.5572 H   0  0  0  0  0  0  0  0  0  0  0  0
  140.0373   73.2041  218.6700 H   0  0  0  0  0  0  0  0  0  0  0  0
  140.3572   71.4193  218.6171 H   0  0  0  0  0  0  0  0  0  0  0  0
  139.4347   72.5585  222.9564 H   0  0  0  0  0  0  0  0  0  0  0  0
  137.4240   73.3740  223.1200 H   0  0  0  0  0  0  0  0  0  0  0  0
  136.9850   72.7750  221.6190 H   0  0  0  0  0  0  0  0  0  0  0  0
  137.0916   69.8291  223.8182 H   0  0  0  0  0  0  0  0  0  0  0  0
  136.7308   70.6522  222.2629 H   0  0  0  0  0  0  0  0  0  0  0  0
  137.3948   68.9831  222.2629 H   0  0  0  0  0  0  0  0  0  0  0  0
  140.2739   69.0074  222.3220 H   0  0  0  0  0  0  0  0  0  0  0  0
  138.9280   69.1052  221.1364 H   0  0  0  0  0  0  0  0  0  0  0  0
  140.2176   70.3556  221.1364 H   0  0  0  0  0  0  0  0  0  0  0  0
  140.2011   72.4520  223.9308 H   0  0  0  0  0  0  0  0  0  0  0  0
  141.2618   72.4591  226.1435 H   0  0  0  0  0  0  0  0  0  0  0  0
  141.7577   71.2827  228.2711 H   0  0  0  0  0  0  0  0  0  0  0  0
  141.5530   69.2599  229.6803 H   0  0  0  0  0  0  0  0  0  0  0  0
  140.2933   67.2579  228.8619 H   0  0  0  0  0  0  0  0  0  0  0  0
  139.2683   67.3791  226.6027 H   0  0  0  0  0  0  0  0  0  0  0  0
  138.7938   68.4749  224.6023 H   0  0  0  0  0  0  0  0  0  0  0  0
  141.3986   73.2780  222.0858 H   0  0  0  0  0  0  0  0  0  0  0  0
  141.6650   71.4621  221.9549 H   0  0  0  0  0  0  0  0  0  0  0  0
  143.2129   73.7180  220.7054 H   0  0  0  0  0  0  0  0  0  0  0  0
  143.8020   72.2572  221.5171 H   0  0  0  0  0  0  0  0  0  0  0  0
  1  2  1  0
  2  3  1  0
  3  4  2  0
  3  5  1  0
  5  6  1  0
  6  7  2  0
  7  8  1  0
  8  9  2  0
  9 10  1  0
 10 11  2  0
  5 12  1  0
 12 13  1  0
 13 14  1  0
 14 15  1  0
 15 16  1  0
 16 17  2  0
 16 18  1  0
 18 19  1  0
 18 20  1  0
 20 21  1  0
 20 22  1  0
 20 23  1  0
 23 24  2  0
 24 25  1  0
 25 26  2  0
 26 27  1  0
 27 28  2  0
 28 29  1  0
 29 30  2  0
 30 31  1  0
 31 32  2  0
 15 33  1  0
 33 34  1  0
 11  6  1  0
 34 12  1  0
 32 23  1  0
 31 26  1  0
  1 35  1  0
  1 36  1  0
  1 37  1  0
  2 38  1  0
  2 39  1  0
  7 40  1  0
  8 41  1  0
  9 42  1  0
 10 43  1  0
 11 44  1  0
 12 45  1  0
 13 46  1  0
 13 47  1  0
 14 48  1  0
 14 49  1  0
 18 50  1  1
 19 51  1  0
 19 52  1  0
 21 53  1  0
 21 54  1  0
 21 55  1  0
 22 56  1  0
 22 57  1  0
 22 58  1  0
 24 59  1  0
 25 60  1  0
 27 61  1  0
 28 62  1  0
 29 63  1  0
 30 64  1  0
 32 65  1  0
 33 66  1  0
 33 67  1  0
 34 68  1  0
 34 69  1  0
M  END
>  <smiles>  (18) 
CCC(=O)N(c1ccccc1)C1CCN(C(=O)[C@@H](N)C(C)(C)c2ccc3ccccc3c2)CC1

>  <score_type>  (18) 
oracle

>  <origin>  (18) 
autodockgpu

>  <m_score__min__energy>  (18) 
-9.1699999999999999

>  <m_primary>  (18) 
energy

>  <rmsd>  (18) 
2.9340713191370518

>  <m_score__min__rmsd>  (18) 
2.9340713191370518

>  <meeko>  (18) 
{"free_energy": -8.19, "intermolecular_energy": -10.58, "internal_energy": -2.74, "cluster_size": 8, "cluster_id": 2, "rank_in_cluster": 4}

>  <energy>  (18) 
-8.46

>  <cluster_rmsd>  (18) 
0.68

>  <cluster>  (18) 
1

$$$$

     RDKit          3D

 69 72  0  0  0  0  0  0  0  0999 V2000
  142.3900   78.3100  216.9820 C   0  0  0  0  0  0  0  0  0  0  0  0
  142.6210   77.7260  218.3920 C   0  0  0  0  0  0  0  0  0  0  0  0
  142.0320   78.6050  219.3920 C   0  0  0  0  0  0  0  0  0  0  0  0
  142.1640   79.8700  219.1820 O   0  0  0  0  0  0  0  0  0  0  0  0
  141.3340   78.2650  220.5610 N   0  0  0  0  0  0  0  0  0  0  0  0
  141.4230   79.2450  221.6370 C   0  0  0  0  0  0  0  0  0  0  0  0
  142.5810   79.2320  222.3990 C   0  0  0  0  0  0  0  0  0  0  0  0
  142.7430   80.1220  223.4310 C   0  0  0  0  0  0  0  0  0  0  0  0
  141.7200   81.0160  223.6730 C   0  0  0  0  0  0  0  0  0  0  0  0
  140.5640   81.0320  222.9170 C   0  0  0  0  0  0  0  0  0  0  0  0
  140.3880   80.1290  221.8630 C   0  0  0  0  0  0  0  0  0  0  0  0
  140.5540   77.1050  220.8360 C   0  0  0  0  0  0  0  0  0  0  0  0
  139.3880   76.9460  219.8660 C   0  0  0  0  0  0  0  0  0  0  0  0
  138.9470   75.5340  219.8690 C   0  0  0  0  0  0  0  0  0  0  0  0
  139.0830   74.9290  221.1810 N   0  0  0  0  0  0  0  0  0  0  0  0
  138.6330   73.5640  221.2210 C   0  0  0  0  0  0  0  0  0  0  0  0
  138.1980   73.1350  220.1010 O   0  0  0  0  0  0  0  0  0  0  0  0
  138.6120   72.6410  222.3400 C   0  0  1  0  0  0  0  0  0  0  0  0
  137.4140   71.8920  222.4160 N   0  0  0  0  0  0  0  0  0  0  0  0
  139.8560   71.7510  222.3030 C   0  0  0  0  0  0  0  0  0  0  0  0
  139.6600   70.6650  221.2760 C   0  0  0  0  0  0  0  0  0  0  0  0
  141.0710   72.5450  221.9030 C   0  0  0  0  0  0  0  0  0  0  0  0
  140.0360   71.1580  223.6360 C   0  0  0  0  0  0  0  0  0  0  0  0
  140.6840   71.8940  224.6270 C   0  0  0  0  0  0  0  0  0  0  0  0
  140.8990   71.3930  225.8950 C   0  0  0  0  0  0  0  0  0  0  0  0
  140.4740   70.1260  226.2360 C   0  0  0  0  0  0  0  0  0  0  0  0
  140.6560   69.5700  227.4810 C   0  0  0  0  0  0  0  0  0  0  0  0
  140.2050   68.2840  227.7670 C   0  0  0  0  0  0  0  0  0  0  0  0
  139.5570   67.5240  226.8090 C   0  0  0  0  0  0  0  0  0  0  0  0
  139.3870   68.1070  225.5700 C   0  0  0  0  0  0  0  0  0  0  0  0
  139.8310   69.3830  225.2720 C   0  0  0  0  0  0  0  0  0  0  0  0
  139.6200   69.8960  223.9990 C   0  0  0  0  0  0  0  0  0  0  0  0
  139.5880   75.5100  222.3680 C   0  0  0  0  0  0  0  0  0  0  0  0
  140.0490   76.9560  222.2370 C   0  0  0  0  0  0  0  0  0  0  0  0
  141.9867   79.3297  217.0690 H   0  0  0  0  0  0  0  0  0  0  0  0
  143.3445   78.3386  216.4361 H   0  0  0  0  0  0  0  0  0  0  0  0
  141.6742   77.6779  216.4361 H   0  0  0  0  0  0  0  0  0  0  0  0
  142.1525   76.7329  218.4573 H   0  0  0  0  0  0  0  0  0  0  0  0
  143.7019   77.6386  218.5765 H   0  0  0  0  0  0  0  0  0  0  0  0
  143.3747   78.5040  222.1751 H   0  0  0  0  0  0  0  0  0  0  0  0
  143.6564   80.1227  224.0439 H   0  0  0  0  0  0  0  0  0  0  0  0
  141.8286   81.7393  224.4946 H   0  0  0  0  0  0  0  0  0  0  0  0
  139.7738   81.7621  223.1460 H   0  0  0  0  0  0  0  0  0  0  0  0
  139.4755   80.1240  221.2488 H   0  0  0  0  0  0  0  0  0  0  0  0
  141.2875   76.2975  220.6945 H   0  0  0  0  0  0  0  0  0  0  0  0
  138.5558   77.5928  220.1808 H   0  0  0  0  0  0  0  0  0  0  0  0
  139.7060   77.2335  218.8530 H   0  0  0  0  0  0  0  0  0  0  0  0
  137.8908   75.4903  219.5647 H   0  0  0  0  0  0  0  0  0  0  0  0
  139.5844   74.9756  219.1676 H   0  0  0  0  0  0  0  0  0  0  0  0
  138.6359   73.2339  223.2663 H   0  0  0  0  0  0  0  0  0  0  0  0
  136.7780   72.0990  223.2020 H   0  0  0  0  0  0  0  0  0  0  0  0
  136.8650   71.8790  221.5440 H   0  0  0  0  0  0  0  0  0  0  0  0
  139.4868   69.7056  221.7854 H   0  0  0  0  0  0  0  0  0  0  0  0
  138.7912   70.9080  220.6466 H   0  0  0  0  0  0  0  0  0  0  0  0
  140.5589   70.5890  220.6466 H   0  0  0  0  0  0  0  0  0  0  0  0
  141.5976   72.8891  222.8054 H   0  0  0  0  0  0  0  0  0  0  0  0
  141.7429   71.9112  221.3057 H   0  0  0  0  0  0  0  0  0  0  0  0
  140.7603   73.4148  221.3057 H   0  0  0  0  0  0  0  0  0  0  0  0
  141.0361   72.9089  224.3902 H   0  0  0  0  0  0  0  0  0  0  0  0
  141.4159   72.0121  226.6431 H   0  0  0  0  0  0  0  0  0  0  0  0
  141.1662   70.1508  228.2635 H   0  0  0  0  0  0  0  0  0  0  0  0
  140.3665   67.8652  228.7712 H   0  0  0  0  0  0  0  0  0  0  0  0
  139.1961   66.5074  227.0242 H   0  0  0  0  0  0  0  0  0  0  0  0
  138.8757   67.5316  224.7842 H   0  0  0  0  0  0  0  0  0  0  0  0
  139.1027   69.2729  223.2546 H   0  0  0  0  0  0  0  0  0  0  0  0
  138.7947   75.4733  223.1291 H   0  0  0  0  0  0  0  0  0  0  0  0
  140.4818   74.9278  222.6366 H   0  0  0  0  0  0  0  0  0  0  0  0
  139.2081   77.6424  222.4148 H   0  0  0  0  0  0  0  0  0  0  0  0
  140.8296   77.1974  222.9735 H   0  0  0  0  0  0  0  0  0  0  0  0
  1  2  1  0
  2  3  1  0
  3  4  2  0
  3  5  1  0
  5  6  1  0
  6  7  2  0
  7  8  1  0
  8  9  2  0
  9 10  1  0
 10 11  2  0
  5 12  1  0
 12 13  1  0
 13 14  1  0
 14 15  1  0
 15 16  1  0
 16 17  2  0
 16 18  1  0
 18 19  1  0
 18 20  1  0
 20 21  1  0
 20 22  1  0
 20 23  1  0
 23 24  2  0
 24 25  1  0
 25 26  2  0
 26 27  1  0
 27 28  2  0
 28 29  1  0
 29 30  2  0
 30 31  1  0
 31 32  2  0
 15 33  1  0
 33 34  1  0
 11  6  1  0
 34 12  1  0
 32 23  1  0
 31 26  1  0
  1 35  1  0
  1 36  1  0
  1 37  1  0
  2 38  1  0
  2 39  1  0
  7 40  1  0
  8 41  1  0
  9 42  1  0
 10 43  1  0
 11 44  1  0
 12 45  1  0
 13 46  1  0
 13 47  1  0
 14 48  1  0
 14 49  1  0
 18 50  1  1
 19 51  1  0
 19 52  1  0
 21 53  1  0
 21 54  1  0
 21 55  1  0
 22 56  1  0
 22 57  1  0
 22 58  1  0
 24 59  1  0
 25 60  1  0
 27 61  1  0
 28 62  1  0
 29 63  1  0
 30 64  1  0
 32 65  1  0
 33 66  1  0
 33 67  1  0
 34 68  1  0
 34 69  1  0
M  END
>  <smiles>  (19) 
CCC(=O)N(c1ccccc1)C1CCN(C(=O)[C@@H](N)C(C)(C)c2ccc3ccccc3c2)CC1

>  <score_type>  (19) 
oracle

>  <origin>  (19) 
autodockgpu

>  <m_score__min__energy>  (19) 
-9.1699999999999999

>  <m_primary>  (19) 
energy

>  <rmsd>  (19) 
2.9492863215432874

>  <m_score__min__rmsd>  (19) 
2.9492863215432874

>  <meeko>  (19) 
{"free_energy": -8.32, "intermolecular_energy": -10.71, "internal_energy": -2.51, "cluster_size": 32, "cluster_id": 1, "rank_in_cluster": 26}

>  <energy>  (19) 
-8.45

>  <cluster_rmsd>  (19) 
0.69

>  <cluster>  (19) 
1

$$$$

     RDKit          3D

 69 72  0  0  0  0  0  0  0  0999 V2000
  142.1500   78.9580  216.9180 C   0  0  0  0  0  0  0  0  0  0  0  0
  142.5800   78.3240  218.2570 C   0  0  0  0  0  0  0  0  0  0  0  0
  142.1260   79.1560  219.3640 C   0  0  0  0  0  0  0  0  0  0  0  0
  142.2880   80.4260  219.2190 O   0  0  0  0  0  0  0  0  0  0  0  0
  141.5320   78.7640  220.5730 N   0  0  0  0  0  0  0  0  0  0  0  0
  141.7770   79.6600  221.6970 C   0  0  0  0  0  0  0  0  0  0  0  0
  140.9380   80.7560  221.8150 C   0  0  0  0  0  0  0  0  0  0  0  0
  141.1010   81.6490  222.8440 C   0  0  0  0  0  0  0  0  0  0  0  0
  142.1210   81.4100  223.7420 C   0  0  0  0  0  0  0  0  0  0  0  0
  142.9610   80.3200  223.6290 C   0  0  0  0  0  0  0  0  0  0  0  0
  142.8040   79.4040  222.5820 C   0  0  0  0  0  0  0  0  0  0  0  0
  140.7260   77.6220  220.8480 C   0  0  0  0  0  0  0  0  0  0  0  0
  139.5440   77.5000  219.8920 C   0  0  0  0  0  0  0  0  0  0  0  0
  139.0670   76.1000  219.8900 C   0  0  0  0  0  0  0  0  0  0  0  0
  139.2040   75.4820  221.1960 N   0  0  0  0  0  0  0  0  0  0  0  0
  138.7200   74.1290  221.2310 C   0  0  0  0  0  0  0  0  0  0  0  0
  138.2600   73.7190  220.1140 O   0  0  0  0  0  0  0  0  0  0  0  0
  138.6890   73.1970  222.3440 C   0  0  1  0  0  0  0  0  0  0  0  0
  137.4080   72.6380  222.5600 N   0  0  0  0  0  0  0  0  0  0  0  0
  139.7700   72.1300  222.1590 C   0  0  0  0  0  0  0  0  0  0  0  0
  139.3710   71.2100  221.0340 C   0  0  0  0  0  0  0  0  0  0  0  0
  141.0870   72.7600  221.7900 C   0  0  0  0  0  0  0  0  0  0  0  0
  139.8860   71.3740  223.4130 C   0  0  0  0  0  0  0  0  0  0  0  0
  139.4660   70.0450  223.4500 C   0  0  0  0  0  0  0  0  0  0  0  0
  139.5330   69.2820  224.5980 C   0  0  0  0  0  0  0  0  0  0  0  0
  140.0290   69.8120  225.7720 C   0  0  0  0  0  0  0  0  0  0  0  0
  140.1240   69.1050  226.9480 C   0  0  0  0  0  0  0  0  0  0  0  0
  140.6320   69.6940  228.1010 C   0  0  0  0  0  0  0  0  0  0  0  0
  141.0600   71.0110  228.1030 C   0  0  0  0  0  0  0  0  0  0  0  0
  140.9540   71.6950  226.9110 C   0  0  0  0  0  0  0  0  0  0  0  0
  140.4500   71.1230  225.7560 C   0  0  0  0  0  0  0  0  0  0  0  0
  140.3770   71.8820  224.5960 C   0  0  0  0  0  0  0  0  0  0  0  0
  139.7380   76.0400  222.3810 C   0  0  0  0  0  0  0  0  0  0  0  0
  140.2340   77.4760  222.2550 C   0  0  0  0  0  0  0  0  0  0  0  0
  141.5425   79.8537  217.1148 H   0  0  0  0  0  0  0  0  0  0  0  0
  143.0437   79.2403  216.3422 H   0  0  0  0  0  0  0  0  0  0  0  0
  141.5571   78.2321  216.3422 H   0  0  0  0  0  0  0  0  0  0  0  0
  142.1350   77.3220  218.3465 H   0  0  0  0  0  0  0  0  0  0  0  0
  143.6768   78.2457  218.2868 H   0  0  0  0  0  0  0  0  0  0  0  0
  140.1356   80.9115  221.0788 H   0  0  0  0  0  0  0  0  0  0  0  0
  140.4424   82.5237  222.9492 H   0  0  0  0  0  0  0  0  0  0  0  0
  142.2700   82.1115  224.5761 H   0  0  0  0  0  0  0  0  0  0  0  0
  143.7612   80.1699  224.3687 H   0  0  0  0  0  0  0  0  0  0  0  0
  143.4622   78.5296  222.4712 H   0  0  0  0  0  0  0  0  0  0  0  0
  141.4366   76.7973  220.6900 H   0  0  0  0  0  0  0  0  0  0  0  0
  138.7327   78.1653  220.2223 H   0  0  0  0  0  0  0  0  0  0  0  0
  139.8565   77.7869  218.8771 H   0  0  0  0  0  0  0  0  0  0  0  0
  138.0063   76.0857  219.5988 H   0  0  0  0  0  0  0  0  0  0  0  0
  139.6807   75.5307  219.1763 H   0  0  0  0  0  0  0  0  0  0  0  0
  138.9114   73.7603  223.2622 H   0  0  0  0  0  0  0  0  0  0  0  0
  136.9140   72.9100  223.4250 H   0  0  0  0  0  0  0  0  0  0  0  0
  136.7590   72.7400  221.7660 H   0  0  0  0  0  0  0  0  0  0  0  0
  138.9659   70.2759  221.4504 H   0  0  0  0  0  0  0  0  0  0  0  0
  138.6040   71.6987  220.4152 H   0  0  0  0  0  0  0  0  0  0  0  0
  140.2519   70.9839  220.4152 H   0  0  0  0  0  0  0  0  0  0  0  0
  141.6369   73.0231  222.7056 H   0  0  0  0  0  0  0  0  0  0  0  0
  141.6806   72.0484  221.1974 H   0  0  0  0  0  0  0  0  0  0  0  0
  140.9055   73.6688  221.1974 H   0  0  0  0  0  0  0  0  0  0  0  0
  139.0673   69.5887  222.5320 H   0  0  0  0  0  0  0  0  0  0  0  0
  139.1867   68.2381  224.5772 H   0  0  0  0  0  0  0  0  0  0  0  0
  139.7927   68.0565  226.9771 H   0  0  0  0  0  0  0  0  0  0  0  0
  140.6949   69.1037  229.0270 H   0  0  0  0  0  0  0  0  0  0  0  0
  141.4637   71.4867  229.0090 H   0  0  0  0  0  0  0  0  0  0  0  0
  141.2851   72.7434  226.8762 H   0  0  0  0  0  0  0  0  0  0  0  0
  140.7233   72.9257  224.6221 H   0  0  0  0  0  0  0  0  0  0  0  0
  138.9535   76.0172  223.1517 H   0  0  0  0  0  0  0  0  0  0  0  0
  140.6198   75.4332  222.6342 H   0  0  0  0  0  0  0  0  0  0  0  0
  139.4128   78.1821  222.4478 H   0  0  0  0  0  0  0  0  0  0  0  0
  141.0289   77.6926  222.9838 H   0  0  0  0  0  0  0  0  0  0  0  0
  1  2  1  0
  2  3  1  0
  3  4  2  0
  3  5  1  0
  5  6  1  0
  6  7  2  0
  7  8  1  0
  8  9  2  0
  9 10  1  0
 10 11  2  0
  5 12  1  0
 12 13  1  0
 13 14  1  0
 14 15  1  0
 15 16  1  0
 16 17  2  0
 16 18  1  0
 18 19  1  0
 18 20  1  0
 20 21  1  0
 20 22  1  0
 20 23  1  0
 23 24  2  0
 24 25  1  0
 25 26  2  0
 26 27  1  0
 27 28  2  0
 28 29  1  0
 29 30  2  0
 30 31  1  0
 31 32  2  0
 15 33  1  0
 33 34  1  0
 11  6  1  0
 34 12  1  0
 32 23  1  0
 31 26  1  0
  1 35  1  0
  1 36  1  0
  1 37  1  0
  2 38  1  0
  2 39  1  0
  7 40  1  0
  8 41  1  0
  9 42  1  0
 10 43  1  0
 11 44  1  0
 12 45  1  0
 13 46  1  0
 13 47  1  0
 14 48  1  0
 14 49  1  0
 18 50  1  1
 19 51  1  0
 19 52  1  0
 21 53  1  0
 21 54  1  0
 21 55  1  0
 22 56  1  0
 22 57  1  0
 22 58  1  0
 24 59  1  0
 25 60  1  0
 27 61  1  0
 28 62  1  0
 29 63  1  0
 30 64  1  0
 32 65  1  0
 33 66  1  0
 33 67  1  0
 34 68  1  0
 34 69  1  0
M  END
>  <smiles>  (20) 
CCC(=O)N(c1ccccc1)C1CCN(C(=O)[C@@H](N)C(C)(C)c2ccc3ccccc3c2)CC1

>  <score_type>  (20) 
oracle

>  <origin>  (20) 
autodockgpu

>  <m_score__min__energy>  (20) 
-9.1699999999999999

>  <m_primary>  (20) 
energy

>  <rmsd>  (20) 
2.383092069797877

>  <m_score__min__rmsd>  (20) 
2.383092069797877

>  <meeko>  (20) 
{"free_energy": -8.84, "intermolecular_energy": -11.22, "internal_energy": -2.31, "cluster_size": 32, "cluster_id": 1, "rank_in_cluster": 9}

>  <energy>  (20) 
-8.44

>  <cluster_rmsd>  (20) 
0.7

>  <cluster>  (20) 
1

$$$$

     RDKit          3D

 69 72  0  0  0  0  0  0  0  0999 V2000
  143.2500   76.7530  218.9930 C   0  0  0  0  0  0  0  0  0  0  0  0
  142.5830   78.0110  218.3980 C   0  0  0  0  0  0  0  0  0  0  0  0
  142.0340   78.8310  219.4690 C   0  0  0  0  0  0  0  0  0  0  0  0
  142.1820   80.1050  219.3380 O   0  0  0  0  0  0  0  0  0  0  0  0
  141.3600   78.4250  220.6300 N   0  0  0  0  0  0  0  0  0  0  0  0
  141.4880   79.3330  221.7640 C   0  0  0  0  0  0  0  0  0  0  0  0
  140.4830   80.2720  221.9280 C   0  0  0  0  0  0  0  0  0  0  0  0
  140.5280   81.1650  222.9690 C   0  0  0  0  0  0  0  0  0  0  0  0
  141.6010   81.0870  223.8320 C   0  0  0  0  0  0  0  0  0  0  0  0
  142.6070   80.1540  223.6740 C   0  0  0  0  0  0  0  0  0  0  0  0
  142.5710   79.2390  222.6150 C   0  0  0  0  0  0  0  0  0  0  0  0
  140.5720   77.2590  220.8500 C   0  0  0  0  0  0  0  0  0  0  0  0
  139.4350   77.1270  219.8420 C   0  0  0  0  0  0  0  0  0  0  0  0
  138.9940   75.7170  219.7940 C   0  0  0  0  0  0  0  0  0  0  0  0
  139.0910   75.0760  221.0920 N   0  0  0  0  0  0  0  0  0  0  0  0
  138.6400   73.7110  221.0820 C   0  0  0  0  0  0  0  0  0  0  0  0
  138.2370   73.3130  219.9390 O   0  0  0  0  0  0  0  0  0  0  0  0
  138.5860   72.7570  222.1740 C   0  0  1  0  0  0  0  0  0  0  0  0
  137.4330   71.9390  222.1360 N   0  0  0  0  0  0  0  0  0  0  0  0
  139.8800   71.9420  222.2180 C   0  0  0  0  0  0  0  0  0  0  0  0
  139.8460   70.8980  221.1320 C   0  0  0  0  0  0  0  0  0  0  0  0
  141.0760   72.8230  221.9700 C   0  0  0  0  0  0  0  0  0  0  0  0
  139.9720   71.2980  223.5360 C   0  0  0  0  0  0  0  0  0  0  0  0
  139.4900   70.0000  223.6950 C   0  0  0  0  0  0  0  0  0  0  0  0
  139.5310   69.3420  224.9080 C   0  0  0  0  0  0  0  0  0  0  0  0
  140.0610   69.9520  226.0260 C   0  0  0  0  0  0  0  0  0  0  0  0
  140.1320   69.3510  227.2610 C   0  0  0  0  0  0  0  0  0  0  0  0
  140.6770   70.0180  228.3540 C   0  0  0  0  0  0  0  0  0  0  0  0
  141.1660   71.3080  228.2350 C   0  0  0  0  0  0  0  0  0  0  0  0
  141.0820   71.8860  226.9850 C   0  0  0  0  0  0  0  0  0  0  0  0
  140.5430   71.2350  225.8900 C   0  0  0  0  0  0  0  0  0  0  0  0
  140.4960   71.8890  224.6660 C   0  0  0  0  0  0  0  0  0  0  0  0
  139.5610   75.6230  222.3100 C   0  0  0  0  0  0  0  0  0  0  0  0
  140.0260   77.0730  222.2320 C   0  0  0  0  0  0  0  0  0  0  0  0
  143.2212   76.8074  220.0913 H   0  0  0  0  0  0  0  0  0  0  0  0
  142.7086   75.8567  218.6559 H   0  0  0  0  0  0  0  0  0  0  0  0
  144.2956   76.6982  218.6559 H   0  0  0  0  0  0  0  0  0  0  0  0
  143.3319   78.5923  217.8401 H   0  0  0  0  0  0  0  0  0  0  0  0
  141.7713   77.7063  217.7211 H   0  0  0  0  0  0  0  0  0  0  0  0
  139.6428   80.3021  221.2187 H   0  0  0  0  0  0  0  0  0  0  0  0
  139.7367   81.9160  223.1101 H   0  0  0  0  0  0  0  0  0  0  0  0
  141.6575   81.7918  224.6747 H   0  0  0  0  0  0  0  0  0  0  0  0
  143.4444   80.1296  224.3869 H   0  0  0  0  0  0  0  0  0  0  0  0
  143.3610   78.4876  222.4692 H   0  0  0  0  0  0  0  0  0  0  0  0
  141.3088   76.4547  220.7078 H   0  0  0  0  0  0  0  0  0  0  0  0
  138.5940   77.7660  220.1493 H   0  0  0  0  0  0  0  0  0  0  0  0
  139.7830   77.4411  218.8469 H   0  0  0  0  0  0  0  0  0  0  0  0
  137.9472   75.6829  219.4577 H   0  0  0  0  0  0  0  0  0  0  0  0
  139.6519   75.1773  219.0969 H   0  0  0  0  0  0  0  0  0  0  0  0
  138.5013   73.3243  223.1126 H   0  0  0  0  0  0  0  0  0  0  0  0
  136.9080   71.9040  221.2480 H   0  0  0  0  0  0  0  0  0  0  0  0
  137.5840   70.9740  222.4640 H   0  0  0  0  0  0  0  0  0  0  0  0
  139.8134   69.8969  221.5867 H   0  0  0  0  0  0  0  0  0  0  0  0
  138.9522   71.0467  220.5083 H   0  0  0  0  0  0  0  0  0  0  0  0
  140.7476   70.9882  220.5083 H   0  0  0  0  0  0  0  0  0  0  0  0
  141.5047   73.1388  222.9326 H   0  0  0  0  0  0  0  0  0  0  0  0
  141.8311   72.2637  221.3982 H   0  0  0  0  0  0  0  0  0  0  0  0
  140.7658   73.7100  221.3982 H   0  0  0  0  0  0  0  0  0  0  0  0
  139.0622   69.4820  222.8240 H   0  0  0  0  0  0  0  0  0  0  0  0
  139.1360   68.3182  224.9839 H   0  0  0  0  0  0  0  0  0  0  0  0
  139.7518   68.3265  227.3868 H   0  0  0  0  0  0  0  0  0  0  0  0
  140.7201   69.5116  229.3296 H   0  0  0  0  0  0  0  0  0  0  0  0
  141.5989   71.8441  229.0924 H   0  0  0  0  0  0  0  0  0  0  0  0
  141.4606   72.9104  226.8533 H   0  0  0  0  0  0  0  0  0  0  0  0
  140.8903   72.9135  224.5956 H   0  0  0  0  0  0  0  0  0  0  0  0
  138.7456   75.5659  223.0461 H   0  0  0  0  0  0  0  0  0  0  0  0
  140.4460   75.0325  222.5893 H   0  0  0  0  0  0  0  0  0  0  0  0
  139.1803   77.7551  222.4036 H   0  0  0  0  0  0  0  0  0  0  0  0
  140.7845   77.2940  222.9974 H   0  0  0  0  0  0  0  0  0  0  0  0
  1  2  1  0
  2  3  1  0
  3  4  2  0
  3  5  1  0
  5  6  1  0
  6  7  2  0
  7  8  1  0
  8  9  2  0
  9 10  1  0
 10 11  2  0
  5 12  1  0
 12 13  1  0
 13 14  1  0
 14 15  1  0
 15 16  1  0
 16 17  2  0
 16 18  1  0
 18 19  1  0
 18 20  1  0
 20 21  1  0
 20 22  1  0
 20 23  1  0
 23 24  2  0
 24 25  1  0
 25 26  2  0
 26 27  1  0
 27 28  2  0
 28 29  1  0
 29 30  2  0
 30 31  1  0
 31 32  2  0
 15 33  1  0
 33 34  1  0
 11  6  1  0
 34 12  1  0
 32 23  1  0
 31 26  1  0
  1 35  1  0
  1 36  1  0
  1 37  1  0
  2 38  1  0
  2 39  1  0
  7 40  1  0
  8 41  1  0
  9 42  1  0
 10 43  1  0
 11 44  1  0
 12 45  1  0
 13 46  1  0
 13 47  1  0
 14 48  1  0
 14 49  1  0
 18 50  1  1
 19 51  1  0
 19 52  1  0
 21 53  1  0
 21 54  1  0
 21 55  1  0
 22 56  1  0
 22 57  1  0
 22 58  1  0
 24 59  1  0
 25 60  1  0
 27 61  1  0
 28 62  1  0
 29 63  1  0
 30 64  1  0
 32 65  1  0
 33 66  1  0
 33 67  1  0
 34 68  1  0
 34 69  1  0
M  END
>  <smiles>  (21) 
CCC(=O)N(c1ccccc1)C1CCN(C(=O)[C@@H](N)C(C)(C)c2ccc3ccccc3c2)CC1

>  <score_type>  (21) 
oracle

>  <origin>  (21) 
autodockgpu

>  <m_score__min__energy>  (21) 
-9.1699999999999999

>  <m_primary>  (21) 
energy

>  <rmsd>  (21) 
2.2736042559047056

>  <m_score__min__rmsd>  (21) 
2.2736042559047056

>  <meeko>  (21) 
{"free_energy": -8.57, "intermolecular_energy": -10.96, "internal_energy": -2.57, "cluster_size": 32, "cluster_id": 1, "rank_in_cluster": 13}

>  <energy>  (21) 
-8.41

>  <cluster_rmsd>  (21) 
0.74

>  <cluster>  (21) 
1

$$$$

     RDKit          3D

 69 72  0  0  0  0  0  0  0  0999 V2000
  142.9420   80.6570  223.5990 C   0  0  0  0  0  0  0  0  0  0  0  0
  142.0580   79.3970  223.4930 C   0  0  0  0  0  0  0  0  0  0  0  0
  141.2080   79.4900  222.3140 C   0  0  0  0  0  0  0  0  0  0  0  0
  140.5620   80.5960  222.1680 O   0  0  0  0  0  0  0  0  0  0  0  0
  140.9920   78.5360  221.3070 N   0  0  0  0  0  0  0  0  0  0  0  0
  141.6680   78.8130  220.0450 C   0  0  0  0  0  0  0  0  0  0  0  0
  142.2100   77.7280  219.3750 C   0  0  0  0  0  0  0  0  0  0  0  0
  142.8630   77.9030  218.1810 C   0  0  0  0  0  0  0  0  0  0  0  0
  142.9520   79.1870  217.6830 C   0  0  0  0  0  0  0  0  0  0  0  0
  142.4140   80.2730  218.3460 C   0  0  0  0  0  0  0  0  0  0  0  0
  141.7480   80.1050  219.5650 C   0  0  0  0  0  0  0  0  0  0  0  0
  140.2160   77.3430  221.3520 C   0  0  0  0  0  0  0  0  0  0  0  0
  139.0870   77.3460  220.3250 C   0  0  0  0  0  0  0  0  0  0  0  0
  138.6620   75.9520  220.0720 C   0  0  0  0  0  0  0  0  0  0  0  0
  138.7570   75.1330  221.2660 N   0  0  0  0  0  0  0  0  0  0  0  0
  138.3210   73.7800  221.0570 C   0  0  0  0  0  0  0  0  0  0  0  0
  137.9310   73.5450  219.8650 O   0  0  0  0  0  0  0  0  0  0  0  0
  138.2690   72.6790  222.0020 C   0  0  1  0  0  0  0  0  0  0  0  0
  137.1790   71.8070  221.7740 N   0  0  0  0  0  0  0  0  0  0  0  0
  139.6110   71.9460  222.0200 C   0  0  0  0  0  0  0  0  0  0  0  0
  139.6300   70.9170  220.9190 C   0  0  0  0  0  0  0  0  0  0  0  0
  140.7480   72.9020  221.7720 C   0  0  0  0  0  0  0  0  0  0  0  0
  139.7580   71.2900  223.3270 C   0  0  0  0  0  0  0  0  0  0  0  0
  139.3270   69.9730  223.4810 C   0  0  0  0  0  0  0  0  0  0  0  0
  139.4210   69.3020  224.6830 C   0  0  0  0  0  0  0  0  0  0  0  0
  139.9540   69.9190  225.7970 C   0  0  0  0  0  0  0  0  0  0  0  0
  140.0770   69.3060  227.0220 C   0  0  0  0  0  0  0  0  0  0  0  0
  140.6230   69.9790  228.1110 C   0  0  0  0  0  0  0  0  0  0  0  0
  141.0610   71.2880  227.9970 C   0  0  0  0  0  0  0  0  0  0  0  0
  140.9270   71.8760  226.7570 C   0  0  0  0  0  0  0  0  0  0  0  0
  140.3860   71.2190  225.6660 C   0  0  0  0  0  0  0  0  0  0  0  0
  140.2860   71.8860  224.4520 C   0  0  0  0  0  0  0  0  0  0  0  0
  139.2110   75.5060  222.5540 C   0  0  0  0  0  0  0  0  0  0  0  0
  139.6610   76.9560  222.6870 C   0  0  0  0  0  0  0  0  0  0  0  0
  143.1112   80.8981  224.6588 H   0  0  0  0  0  0  0  0  0  0  0  0
  143.9078   80.4698  223.1069 H   0  0  0  0  0  0  0  0  0  0  0  0
  142.4373   81.5015  223.1069 H   0  0  0  0  0  0  0  0  0  0  0  0
  142.6989   78.5067  223.4121 H   0  0  0  0  0  0  0  0  0  0  0  0
  141.4273   79.3185  224.3908 H   0  0  0  0  0  0  0  0  0  0  0  0
  142.1161   76.7192  219.8034 H   0  0  0  0  0  0  0  0  0  0  0  0
  143.2999   77.0505  217.6402 H   0  0  0  0  0  0  0  0  0  0  0  0
  143.4687   79.3512  216.7259 H   0  0  0  0  0  0  0  0  0  0  0  0
  142.5101   81.2790  217.9116 H   0  0  0  0  0  0  0  0  0  0  0  0
  141.3124   80.9551  220.1106 H   0  0  0  0  0  0  0  0  0  0  0  0
  140.9634   76.5749  221.1043 H   0  0  0  0  0  0  0  0  0  0  0  0
  138.2368   77.9260  220.7133 H   0  0  0  0  0  0  0  0  0  0  0  0
  139.4382   77.8031  219.3882 H   0  0  0  0  0  0  0  0  0  0  0  0
  137.6181   75.9557  219.7253 H   0  0  0  0  0  0  0  0  0  0  0  0
  139.3308   75.5242  219.3107 H   0  0  0  0  0  0  0  0  0  0  0  0
  138.0906   73.1008  223.0021 H   0  0  0  0  0  0  0  0  0  0  0  0
  136.4350   71.7840  222.4890 H   0  0  0  0  0  0  0  0  0  0  0  0
  136.7400   71.9080  220.8470 H   0  0  0  0  0  0  0  0  0  0  0  0
  139.6486   69.9092  221.3594 H   0  0  0  0  0  0  0  0  0  0  0  0
  138.7296   71.0288  220.2970 H   0  0  0  0  0  0  0  0  0  0  0  0
  140.5256   71.0620  220.2970 H   0  0  0  0  0  0  0  0  0  0  0  0
  141.1555   73.2446  222.7346 H   0  0  0  0  0  0  0  0  0  0  0  0
  141.5375   72.3924  221.2002 H   0  0  0  0  0  0  0  0  0  0  0  0
  140.3815   73.7672  221.2002 H   0  0  0  0  0  0  0  0  0  0  0  0
  138.8969   69.4505  222.6138 H   0  0  0  0  0  0  0  0  0  0  0  0
  139.0670   68.2630  224.7544 H   0  0  0  0  0  0  0  0  0  0  0  0
  139.7382   68.2665  227.1431 H   0  0  0  0  0  0  0  0  0  0  0  0
  140.7081   69.4626  229.0785 H   0  0  0  0  0  0  0  0  0  0  0  0
  141.4932   71.8302  228.8510 H   0  0  0  0  0  0  0  0  0  0  0  0
  141.2656   72.9148  226.6293 H   0  0  0  0  0  0  0  0  0  0  0  0
  140.6402   72.9253  224.3860 H   0  0  0  0  0  0  0  0  0  0  0  0
  138.3901   75.3374  223.2665 H   0  0  0  0  0  0  0  0  0  0  0  0
  140.0999   74.8901  222.7553 H   0  0  0  0  0  0  0  0  0  0  0  0
  138.8066   77.5986  222.9459 H   0  0  0  0  0  0  0  0  0  0  0  0
  140.4113   77.0723  223.4829 H   0  0  0  0  0  0  0  0  0  0  0  0
  1  2  1  0
  2  3  1  0
  3  4  2  0
  3  5  1  0
  5  6  1  0
  6  7  2  0
  7  8  1  0
  8  9  2  0
  9 10  1  0
 10 11  2  0
  5 12  1  0
 12 13  1  0
 13 14  1  0
 14 15  1  0
 15 16  1  0
 16 17  2  0
 16 18  1  0
 18 19  1  0
 18 20  1  0
 20 21  1  0
 20 22  1  0
 20 23  1  0
 23 24  2  0
 24 25  1  0
 25 26  2  0
 26 27  1  0
 27 28  2  0
 28 29  1  0
 29 30  2  0
 30 31  1  0
 31 32  2  0
 15 33  1  0
 33 34  1  0
 11  6  1  0
 34 12  1  0
 32 23  1  0
 31 26  1  0
  1 35  1  0
  1 36  1  0
  1 37  1  0
  2 38  1  0
  2 39  1  0
  7 40  1  0
  8 41  1  0
  9 42  1  0
 10 43  1  0
 11 44  1  0
 12 45  1  0
 13 46  1  0
 13 47  1  0
 14 48  1  0
 14 49  1  0
 18 50  1  1
 19 51  1  0
 19 52  1  0
 21 53  1  0
 21 54  1  0
 21 55  1  0
 22 56  1  0
 22 57  1  0
 22 58  1  0
 24 59  1  0
 25 60  1  0
 27 61  1  0
 28 62  1  0
 29 63  1  0
 30 64  1  0
 32 65  1  0
 33 66  1  0
 33 67  1  0
 34 68  1  0
 34 69  1  0
M  END
>  <smiles>  (22) 
CCC(=O)N(c1ccccc1)C1CCN(C(=O)[C@@H](N)C(C)(C)c2ccc3ccccc3c2)CC1

>  <score_type>  (22) 
oracle

>  <origin>  (22) 
autodockgpu

>  <m_score__min__energy>  (22) 
-9.1699999999999999

>  <m_primary>  (22) 
energy

>  <rmsd>  (22) 
2.3199663016404006

>  <m_score__min__rmsd>  (22) 
2.3199663016404006

>  <meeko>  (22) 
{"free_energy": -7.81, "intermolecular_energy": -10.2, "internal_energy": -2.58, "cluster_size": 32, "cluster_id": 1, "rank_in_cluster": 31}

>  <energy>  (22) 
-8.41

>  <cluster_rmsd>  (22) 
0.71

>  <cluster>  (22) 
1

$$$$

     RDKit          3D

 69 72  0  0  0  0  0  0  0  0999 V2000
  145.6820   73.7880  221.1880 C   0  0  0  0  0  0  0  0  0  0  0  0
  145.5210   72.5540  220.2760 C   0  0  0  0  0  0  0  0  0  0  0  0
  144.1730   72.5210  219.7260 C   0  0  0  0  0  0  0  0  0  0  0  0
  143.8400   71.4400  219.1090 O   0  0  0  0  0  0  0  0  0  0  0  0
  143.1780   73.5100  219.7760 N   0  0  0  0  0  0  0  0  0  0  0  0
  142.0890   73.2380  220.7060 C   0  0  0  0  0  0  0  0  0  0  0  0
  141.2210   74.2840  220.9740 C   0  0  0  0  0  0  0  0  0  0  0  0
  140.1690   74.1120  221.8390 C   0  0  0  0  0  0  0  0  0  0  0  0
  140.0170   72.8700  222.4200 C   0  0  0  0  0  0  0  0  0  0  0  0
  140.8790   71.8240  222.1580 C   0  0  0  0  0  0  0  0  0  0  0  0
  141.9550   71.9890  221.2780 C   0  0  0  0  0  0  0  0  0  0  0  0
  143.0910   74.7330  219.0520 C   0  0  0  0  0  0  0  0  0  0  0  0
  143.5960   74.5980  217.6190 C   0  0  0  0  0  0  0  0  0  0  0  0
  143.0310   75.6950  216.8030 C   0  0  0  0  0  0  0  0  0  0  0  0
  142.8890   76.9190  217.5690 N   0  0  0  0  0  0  0  0  0  0  0  0
  142.3710   78.0120  216.7930 C   0  0  0  0  0  0  0  0  0  0  0  0
  142.1310   77.7090  215.5770 O   0  0  0  0  0  0  0  0  0  0  0  0
  142.0940   79.3760  217.2040 C   0  0  1  0  0  0  0  0  0  0  0  0
  142.2020   80.3060  216.1440 N   0  0  0  0  0  0  0  0  0  0  0  0
  140.7350   79.4430  217.9040 C   0  0  0  0  0  0  0  0  0  0  0  0
  140.1220   80.8000  217.6690 C   0  0  0  0  0  0  0  0  0  0  0  0
  139.7920   78.4120  217.3410 C   0  0  0  0  0  0  0  0  0  0  0  0
  140.9470   79.2260  219.3410 C   0  0  0  0  0  0  0  0  0  0  0  0
  140.3800   78.1100  219.9540 C   0  0  0  0  0  0  0  0  0  0  0  0
  140.5270   77.8530  221.3020 C   0  0  0  0  0  0  0  0  0  0  0  0
  141.2550   78.7050  222.1080 C   0  0  0  0  0  0  0  0  0  0  0  0
  141.4400   78.5060  223.4560 C   0  0  0  0  0  0  0  0  0  0  0  0
  142.1840   79.4010  224.2190 C   0  0  0  0  0  0  0  0  0  0  0  0
  142.7630   80.5200  223.6460 C   0  0  0  0  0  0  0  0  0  0  0  0
  142.5620   80.6940  222.2930 C   0  0  0  0  0  0  0  0  0  0  0  0
  141.8240   79.8130  221.5220 C   0  0  0  0  0  0  0  0  0  0  0  0
  141.6690   80.0620  220.1650 C   0  0  0  0  0  0  0  0  0  0  0  0
  143.1920   77.1420  218.9330 C   0  0  0  0  0  0  0  0  0  0  0  0
  143.7300   75.9300  219.6850 C   0  0  0  0  0  0  0  0  0  0  0  0
  145.6410   73.4734  222.2413 H   0  0  0  0  0  0  0  0  0  0  0  0
  146.6505   74.2690  220.9865 H   0  0  0  0  0  0  0  0  0  0  0  0
  144.8693   74.5014  220.9865 H   0  0  0  0  0  0  0  0  0  0  0  0
  146.2498   72.6096  219.4539 H   0  0  0  0  0  0  0  0  0  0  0  0
  145.6960   71.6414  220.8647 H   0  0  0  0  0  0  0  0  0  0  0  0
  141.3759   75.2596  220.4901 H   0  0  0  0  0  0  0  0  0  0  0  0
  139.4728   74.9343  222.0607 H   0  0  0  0  0  0  0  0  0  0  0  0
  139.1805   72.7076  223.1157 H   0  0  0  0  0  0  0  0  0  0  0  0
  140.7187   70.8511  222.6457 H   0  0  0  0  0  0  0  0  0  0  0  0
  142.6542   71.1696  221.0549 H   0  0  0  0  0  0  0  0  0  0  0  0
  142.0086   74.9286  219.0629 H   0  0  0  0  0  0  0  0  0  0  0  0
  144.6943   74.6583  217.6080 H   0  0  0  0  0  0  0  0  0  0  0  0
  143.2831   73.6281  217.2049 H   0  0  0  0  0  0  0  0  0  0  0  0
  143.6990   75.8845  215.9499 H   0  0  0  0  0  0  0  0  0  0  0  0
  142.0314   75.3874  216.4621 H   0  0  0  0  0  0  0  0  0  0  0  0
  142.8707   79.6743  217.9235 H   0  0  0  0  0  0  0  0  0  0  0  0
  143.0400   80.9090  216.1290 H   0  0  0  0  0  0  0  0  0  0  0  0
  142.0750   79.8980  215.2050 H   0  0  0  0  0  0  0  0  0  0  0  0
  139.9063   81.2774  218.6363 H   0  0  0  0  0  0  0  0  0  0  0  0
  140.8247   81.4262  217.0996 H   0  0  0  0  0  0  0  0  0  0  0  0
  139.1877   80.6867  217.0996 H   0  0  0  0  0  0  0  0  0  0  0  0
  139.3009   77.8750  218.1659 H   0  0  0  0  0  0  0  0  0  0  0  0
  139.0305   78.9102  216.7230 H   0  0  0  0  0  0  0  0  0  0  0  0
  140.3560   77.6979  216.7230 H   0  0  0  0  0  0  0  0  0  0  0  0
  139.7943   77.4089  219.3413 H   0  0  0  0  0  0  0  0  0  0  0  0
  140.0586   76.9589  221.7392 H   0  0  0  0  0  0  0  0  0  0  0  0
  140.9926   77.6249  223.9392 H   0  0  0  0  0  0  0  0  0  0  0  0
  142.3141   79.2160  225.2955 H   0  0  0  0  0  0  0  0  0  0  0  0
  143.3532   81.2338  224.2395 H   0  0  0  0  0  0  0  0  0  0  0  0
  143.0084   81.5727  221.8044 H   0  0  0  0  0  0  0  0  0  0  0  0
  142.1388   80.9577  219.7325 H   0  0  0  0  0  0  0  0  0  0  0  0
  143.9477   77.9394  218.9877 H   0  0  0  0  0  0  0  0  0  0  0  0
  142.2403   77.4044  219.4181 H   0  0  0  0  0  0  0  0  0  0  0  0
  144.8243   75.8750  219.5878 H   0  0  0  0  0  0  0  0  0  0  0  0
  143.4999   75.9882  220.7591 H   0  0  0  0  0  0  0  0  0  0  0  0
  1  2  1  0
  2  3  1  0
  3  4  2  0
  3  5  1  0
  5  6  1  0
  6  7  2  0
  7  8  1  0
  8  9  2  0
  9 10  1  0
 10 11  2  0
  5 12  1  0
 12 13  1  0
 13 14  1  0
 14 15  1  0
 15 16  1  0
 16 17  2  0
 16 18  1  0
 18 19  1  0
 18 20  1  0
 20 21  1  0
 20 22  1  0
 20 23  1  0
 23 24  2  0
 24 25  1  0
 25 26  2  0
 26 27  1  0
 27 28  2  0
 28 29  1  0
 29 30  2  0
 30 31  1  0
 31 32  2  0
 15 33  1  0
 33 34  1  0
 11  6  1  0
 34 12  1  0
 32 23  1  0
 31 26  1  0
  1 35  1  0
  1 36  1  0
  1 37  1  0
  2 38  1  0
  2 39  1  0
  7 40  1  0
  8 41  1  0
  9 42  1  0
 10 43  1  0
 11 44  1  0
 12 45  1  0
 13 46  1  0
 13 47  1  0
 14 48  1  0
 14 49  1  0
 18 50  1  1
 19 51  1  0
 19 52  1  0
 21 53  1  0
 21 54  1  0
 21 55  1  0
 22 56  1  0
 22 57  1  0
 22 58  1  0
 24 59  1  0
 25 60  1  0
 27 61  1  0
 28 62  1  0
 29 63  1  0
 30 64  1  0
 32 65  1  0
 33 66  1  0
 33 67  1  0
 34 68  1  0
 34 69  1  0
M  END
>  <smiles>  (23) 
CCC(=O)N(c1ccccc1)C1CCN(C(=O)[C@@H](N)C(C)(C)c2ccc3ccccc3c2)CC1

>  <score_type>  (23) 
oracle

>  <origin>  (23) 
autodockgpu

>  <m_score__min__energy>  (23) 
-9.1699999999999999

>  <m_primary>  (23) 
energy

>  <rmsd>  (23) 
10.046305429451307

>  <m_score__min__rmsd>  (23) 
10.046305429451307

>  <meeko>  (23) 
{"free_energy": -7.1, "intermolecular_energy": -9.49, "internal_energy": -3.49, "cluster_size": 1, "cluster_id": 7, "rank_in_cluster": 1}

>  <energy>  (23) 
-8.36

>  <cluster_rmsd>  (23) 
0.75

>  <cluster>  (23) 
1

$$$$

     RDKit          3D

 69 72  0  0  0  0  0  0  0  0999 V2000
  140.2230   72.0450  220.1400 C   0  0  0  0  0  0  0  0  0  0  0  0
  140.9420   72.5670  221.4020 C   0  0  0  0  0  0  0  0  0  0  0  0
  141.4110   73.9270  221.1750 C   0  0  0  0  0  0  0  0  0  0  0  0
  140.8890   74.8380  221.9220 O   0  0  0  0  0  0  0  0  0  0  0  0
  142.3610   74.3860  220.2500 N   0  0  0  0  0  0  0  0  0  0  0  0
  143.5930   73.6070  220.1960 C   0  0  0  0  0  0  0  0  0  0  0  0
  144.6920   74.1310  220.8560 C   0  0  0  0  0  0  0  0  0  0  0  0
  145.8900   73.4610  220.8530 C   0  0  0  0  0  0  0  0  0  0  0  0
  145.9490   72.2600  220.1760 C   0  0  0  0  0  0  0  0  0  0  0  0
  144.8560   71.7330  219.5160 C   0  0  0  0  0  0  0  0  0  0  0  0
  143.6310   72.4090  219.5120 C   0  0  0  0  0  0  0  0  0  0  0  0
  142.2850   75.4960  219.3610 C   0  0  0  0  0  0  0  0  0  0  0  0
  142.0450   75.0690  217.9160 C   0  0  0  0  0  0  0  0  0  0  0  0
  141.4860   76.2110  217.1620 C   0  0  0  0  0  0  0  0  0  0  0  0
  142.0250   77.4780  217.6220 N   0  0  0  0  0  0  0  0  0  0  0  0
  141.5220   78.6050  216.8850 C   0  0  0  0  0  0  0  0  0  0  0  0
  140.6970   78.2890  215.9650 O   0  0  0  0  0  0  0  0  0  0  0  0
  141.8240   80.0150  217.0510 C   0  0  1  0  0  0  0  0  0  0  0  0
  142.0210   80.6850  215.8220 N   0  0  0  0  0  0  0  0  0  0  0  0
  140.7490   80.6790  217.9140 C   0  0  0  0  0  0  0  0  0  0  0  0
  140.9850   82.1680  217.9410 C   0  0  0  0  0  0  0  0  0  0  0  0
  139.3780   80.4440  217.3380 C   0  0  0  0  0  0  0  0  0  0  0  0
  140.8460   80.1280  219.2720 C   0  0  0  0  0  0  0  0  0  0  0  0
  140.0690   79.0220  219.6160 C   0  0  0  0  0  0  0  0  0  0  0  0
  140.1000   78.4630  220.8780 C   0  0  0  0  0  0  0  0  0  0  0  0
  140.9140   78.9840  221.8620 C   0  0  0  0  0  0  0  0  0  0  0  0
  140.9910   78.4730  223.1370 C   0  0  0  0  0  0  0  0  0  0  0  0
  141.8310   79.0430  224.0900 C   0  0  0  0  0  0  0  0  0  0  0  0
  142.6170   80.1410  223.7860 C   0  0  0  0  0  0  0  0  0  0  0  0
  142.5200   80.6310  222.5000 C   0  0  0  0  0  0  0  0  0  0  0  0
  141.6900   80.0760  221.5430 C   0  0  0  0  0  0  0  0  0  0  0  0
  141.6510   80.6310  220.2710 C   0  0  0  0  0  0  0  0  0  0  0  0
  142.9480   77.7120  218.6690 C   0  0  0  0  0  0  0  0  0  0  0  0
  143.4260   76.4640  219.4020 C   0  0  0  0  0  0  0  0  0  0  0  0
  139.3660   71.4228  220.4372 H   0  0  0  0  0  0  0  0  0  0  0  0
  139.8676   72.8969  219.5417 H   0  0  0  0  0  0  0  0  0  0  0  0
  140.9230   71.4433  219.5417 H   0  0  0  0  0  0  0  0  0  0  0  0
  140.2423   72.5588  222.2507 H   0  0  0  0  0  0  0  0  0  0  0  0
  141.8021   71.9184  221.6247 H   0  0  0  0  0  0  0  0  0  0  0  0
  144.6042   75.0907  221.3863 H   0  0  0  0  0  0  0  0  0  0  0  0
  146.7712   73.8668  221.3715 H   0  0  0  0  0  0  0  0  0  0  0  0
  146.8979   71.7039  220.1614 H   0  0  0  0  0  0  0  0  0  0  0  0
  144.9496   70.7724  218.9884 H   0  0  0  0  0  0  0  0  0  0  0  0
  142.7479   72.0081  218.9929 H   0  0  0  0  0  0  0  0  0  0  0  0
  141.4138   76.0420  219.7520 H   0  0  0  0  0  0  0  0  0  0  0  0
  142.9967   74.7572  217.4609 H   0  0  0  0  0  0  0  0  0  0  0  0
  141.3387   74.2261  217.8905 H   0  0  0  0  0  0  0  0  0  0  0  0
  141.7289   76.0869  216.0964 H   0  0  0  0  0  0  0  0  0  0  0  0
  140.3976   76.2251  217.3211 H   0  0  0  0  0  0  0  0  0  0  0  0
  142.7876   80.0943  217.5755 H   0  0  0  0  0  0  0  0  0  0  0  0
  142.9950   80.8890  215.5460 H   0  0  0  0  0  0  0  0  0  0  0  0
  141.5370   80.2550  215.0200 H   0  0  0  0  0  0  0  0  0  0  0  0
  141.0395   82.5117  218.9845 H   0  0  0  0  0  0  0  0  0  0  0  0
  141.9309   82.3987  217.4291 H   0  0  0  0  0  0  0  0  0  0  0  0
  140.1568   82.6799  217.4291 H   0  0  0  0  0  0  0  0  0  0  0  0
  138.6530   80.3197  218.1559 H   0  0  0  0  0  0  0  0  0  0  0  0
  139.0879   81.3055  216.7186 H   0  0  0  0  0  0  0  0  0  0  0  0
  139.3914   79.5350  216.7186 H   0  0  0  0  0  0  0  0  0  0  0  0
  139.4086   78.5798  218.8555 H   0  0  0  0  0  0  0  0  0  0  0  0
  139.4676   77.5912  221.1015 H   0  0  0  0  0  0  0  0  0  0  0  0
  140.3791   77.6000  223.4079 H   0  0  0  0  0  0  0  0  0  0  0  0
  141.8706   78.6133  225.1018 H   0  0  0  0  0  0  0  0  0  0  0  0
  143.2842   80.5990  224.5310 H   0  0  0  0  0  0  0  0  0  0  0  0
  143.1307   81.5030  222.2231 H   0  0  0  0  0  0  0  0  0  0  0  0
  142.2851   81.5030  220.0529 H   0  0  0  0  0  0  0  0  0  0  0  0
  143.8284   78.2138  218.2411 H   0  0  0  0  0  0  0  0  0  0  0  0
  142.4161   78.3202  219.4154 H   0  0  0  0  0  0  0  0  0  0  0  0
  144.3060   76.0385  218.8975 H   0  0  0  0  0  0  0  0  0  0  0  0
  143.7211   76.6938  220.4365 H   0  0  0  0  0  0  0  0  0  0  0  0
  1  2  1  0
  2  3  1  0
  3  4  2  0
  3  5  1  0
  5  6  1  0
  6  7  2  0
  7  8  1  0
  8  9  2  0
  9 10  1  0
 10 11  2  0
  5 12  1  0
 12 13  1  0
 13 14  1  0
 14 15  1  0
 15 16  1  0
 16 17  2  0
 16 18  1  0
 18 19  1  0
 18 20  1  0
 20 21  1  0
 20 22  1  0
 20 23  1  0
 23 24  2  0
 24 25  1  0
 25 26  2  0
 26 27  1  0
 27 28  2  0
 28 29  1  0
 29 30  2  0
 30 31  1  0
 31 32  2  0
 15 33  1  0
 33 34  1  0
 11  6  1  0
 34 12  1  0
 32 23  1  0
 31 26  1  0
  1 35  1  0
  1 36  1  0
  1 37  1  0
  2 38  1  0
  2 39  1  0
  7 40  1  0
  8 41  1  0
  9 42  1  0
 10 43  1  0
 11 44  1  0
 12 45  1  0
 13 46  1  0
 13 47  1  0
 14 48  1  0
 14 49  1  0
 18 50  1  1
 19 51  1  0
 19 52  1  0
 21 53  1  0
 21 54  1  0
 21 55  1  0
 22 56  1  0
 22 57  1  0
 22 58  1  0
 24 59  1  0
 25 60  1  0
 27 61  1  0
 28 62  1  0
 29 63  1  0
 30 64  1  0
 32 65  1  0
 33 66  1  0
 33 67  1  0
 34 68  1  0
 34 69  1  0
M  END
>  <smiles>  (24) 
CCC(=O)N(c1ccccc1)C1CCN(C(=O)[C@@H](N)C(C)(C)c2ccc3ccccc3c2)CC1

>  <score_type>  (24) 
oracle

>  <origin>  (24) 
autodockgpu

>  <m_score__min__energy>  (24) 
-9.1699999999999999

>  <m_primary>  (24) 
energy

>  <rmsd>  (24) 
10.019879801795891

>  <m_score__min__rmsd>  (24) 
10.019879801795891

>  <meeko>  (24) 
{"free_energy": -7.38, "intermolecular_energy": -9.76, "internal_energy": -3.3, "cluster_size": 5, "cluster_id": 6, "rank_in_cluster": 4}

>  <energy>  (24) 
-8.34

>  <cluster_rmsd>  (24) 
0.75

>  <cluster>  (24) 
1

$$$$

     RDKit          3D

 69 72  0  0  0  0  0  0  0  0999 V2000
  142.2070   80.4240  217.2860 C   0  0  0  0  0  0  0  0  0  0  0  0
  142.2210   80.4910  218.8280 C   0  0  0  0  0  0  0  0  0  0  0  0
  142.1380   79.1460  219.3800 C   0  0  0  0  0  0  0  0  0  0  0  0
  142.6800   78.2120  218.6770 O   0  0  0  0  0  0  0  0  0  0  0  0
  141.5470   78.7230  220.5800 N   0  0  0  0  0  0  0  0  0  0  0  0
  141.7640   79.6110  221.7170 C   0  0  0  0  0  0  0  0  0  0  0  0
  140.9070   80.6930  221.8370 C   0  0  0  0  0  0  0  0  0  0  0  0
  141.0430   81.5760  222.8780 C   0  0  0  0  0  0  0  0  0  0  0  0
  142.0540   81.3430  223.7870 C   0  0  0  0  0  0  0  0  0  0  0  0
  142.9120   80.2660  223.6730 C   0  0  0  0  0  0  0  0  0  0  0  0
  142.7820   79.3600  222.6140 C   0  0  0  0  0  0  0  0  0  0  0  0
  140.7680   77.5590  220.8360 C   0  0  0  0  0  0  0  0  0  0  0  0
  139.6780   77.3470  219.7900 C   0  0  0  0  0  0  0  0  0  0  0  0
  139.2610   75.9280  219.8080 C   0  0  0  0  0  0  0  0  0  0  0  0
  139.3110   75.3680  221.1460 N   0  0  0  0  0  0  0  0  0  0  0  0
  138.8820   73.9970  221.1990 C   0  0  0  0  0  0  0  0  0  0  0  0
  138.5360   73.5250  220.0660 O   0  0  0  0  0  0  0  0  0  0  0  0
  138.7950   73.1090  222.3430 C   0  0  1  0  0  0  0  0  0  0  0  0
  137.4770   72.6600  222.5940 N   0  0  0  0  0  0  0  0  0  0  0  0
  139.7860   71.9550  222.1840 C   0  0  0  0  0  0  0  0  0  0  0  0
  139.2620   70.9900  221.1510 C   0  0  0  0  0  0  0  0  0  0  0  0
  141.1210   72.4580  221.7030 C   0  0  0  0  0  0  0  0  0  0  0  0
  139.9190   71.2820  223.4830 C   0  0  0  0  0  0  0  0  0  0  0  0
  139.5240   69.9500  223.6050 C   0  0  0  0  0  0  0  0  0  0  0  0
  139.6080   69.2630  224.7980 C   0  0  0  0  0  0  0  0  0  0  0  0
  140.0960   69.8750  225.9340 C   0  0  0  0  0  0  0  0  0  0  0  0
  140.2060   69.2450  227.1530 C   0  0  0  0  0  0  0  0  0  0  0  0
  140.7050   69.9160  228.2650 C   0  0  0  0  0  0  0  0  0  0  0  0
  141.1070   71.2380  228.1830 C   0  0  0  0  0  0  0  0  0  0  0  0
  140.9860   71.8440  226.9500 C   0  0  0  0  0  0  0  0  0  0  0  0
  140.4920   71.1900  225.8350 C   0  0  0  0  0  0  0  0  0  0  0  0
  140.4030   71.8730  224.6300 C   0  0  0  0  0  0  0  0  0  0  0  0
  139.7190   75.9960  222.3470 C   0  0  0  0  0  0  0  0  0  0  0  0
  140.1650   77.4460  222.2020 C   0  0  0  0  0  0  0  0  0  0  0  0
  141.9919   79.3939  216.9657 H   0  0  0  0  0  0  0  0  0  0  0  0
  141.4304   81.0988  216.8967 H   0  0  0  0  0  0  0  0  0  0  0  0
  143.1888   80.7316  216.8967 H   0  0  0  0  0  0  0  0  0  0  0  0
  143.1537   80.9671  219.1646 H   0  0  0  0  0  0  0  0  0  0  0  0
  141.3589   81.0800  219.1742 H   0  0  0  0  0  0  0  0  0  0  0  0
  140.1119   80.8451  221.0923 H   0  0  0  0  0  0  0  0  0  0  0  0
  140.3696   82.4393  222.9841 H   0  0  0  0  0  0  0  0  0  0  0  0
  142.1814   82.0375  224.6305 H   0  0  0  0  0  0  0  0  0  0  0  0
  143.7046   80.1192  224.4215 H   0  0  0  0  0  0  0  0  0  0  0  0
  143.4539   78.4961  222.5030 H   0  0  0  0  0  0  0  0  0  0  0  0
  141.5225   76.7609  220.7741 H   0  0  0  0  0  0  0  0  0  0  0  0
  138.8146   77.9878  220.0223 H   0  0  0  0  0  0  0  0  0  0  0  0
  140.0642   77.6077  218.7935 H   0  0  0  0  0  0  0  0  0  0  0  0
  138.2306   75.8549  219.4298 H   0  0  0  0  0  0  0  0  0  0  0  0
  139.9566   75.3594  219.1734 H   0  0  0  0  0  0  0  0  0  0  0  0
  139.0748   73.6844  223.2378 H   0  0  0  0  0  0  0  0  0  0  0  0
  137.0170   73.0030  223.4520 H   0  0  0  0  0  0  0  0  0  0  0  0
  136.8280   72.7810  221.8030 H   0  0  0  0  0  0  0  0  0  0  0  0
  138.7955   70.1308  221.6551 H   0  0  0  0  0  0  0  0  0  0  0  0
  138.5148   71.4961  220.5221 H   0  0  0  0  0  0  0  0  0  0  0  0
  140.0934   70.6390  220.5221 H   0  0  0  0  0  0  0  0  0  0  0  0
  141.7562   72.6973  222.5686 H   0  0  0  0  0  0  0  0  0  0  0  0
  141.6078   71.6816  221.0945 H   0  0  0  0  0  0  0  0  0  0  0  0
  140.9744   73.3626  221.0945 H   0  0  0  0  0  0  0  0  0  0  0  0
  139.1318   69.4293  222.7190 H   0  0  0  0  0  0  0  0  0  0  0  0
  139.2817   68.2135  224.8443 H   0  0  0  0  0  0  0  0  0  0  0  0
  139.8944   68.1945  227.2494 H   0  0  0  0  0  0  0  0  0  0  0  0
  140.7814   69.3866  229.2262 H   0  0  0  0  0  0  0  0  0  0  0  0
  141.5026   71.7774  229.0562 H   0  0  0  0  0  0  0  0  0  0  0  0
  141.2961   72.8945  226.8483 H   0  0  0  0  0  0  0  0  0  0  0  0
  140.7301   72.9224  224.5891 H   0  0  0  0  0  0  0  0  0  0  0  0
  138.8731   75.9688  223.0496 H   0  0  0  0  0  0  0  0  0  0  0  0
  140.6002   75.4393  222.6985 H   0  0  0  0  0  0  0  0  0  0  0  0
  139.3025   78.1222  222.2959 H   0  0  0  0  0  0  0  0  0  0  0  0
  140.8859   77.7254  222.9845 H   0  0  0  0  0  0  0  0  0  0  0  0
  1  2  1  0
  2  3  1  0
  3  4  2  0
  3  5  1  0
  5  6  1  0
  6  7  2  0
  7  8  1  0
  8  9  2  0
  9 10  1  0
 10 11  2  0
  5 12  1  0
 12 13  1  0
 13 14  1  0
 14 15  1  0
 15 16  1  0
 16 17  2  0
 16 18  1  0
 18 19  1  0
 18 20  1  0
 20 21  1  0
 20 22  1  0
 20 23  1  0
 23 24  2  0
 24 25  1  0
 25 26  2  0
 26 27  1  0
 27 28  2  0
 28 29  1  0
 29 30  2  0
 30 31  1  0
 31 32  2  0
 15 33  1  0
 33 34  1  0
 11  6  1  0
 34 12  1  0
 32 23  1  0
 31 26  1  0
  1 35  1  0
  1 36  1  0
  1 37  1  0
  2 38  1  0
  2 39  1  0
  7 40  1  0
  8 41  1  0
  9 42  1  0
 10 43  1  0
 11 44  1  0
 12 45  1  0
 13 46  1  0
 13 47  1  0
 14 48  1  0
 14 49  1  0
 18 50  1  1
 19 51  1  0
 19 52  1  0
 21 53  1  0
 21 54  1  0
 21 55  1  0
 22 56  1  0
 22 57  1  0
 22 58  1  0
 24 59  1  0
 25 60  1  0
 27 61  1  0
 28 62  1  0
 29 63  1  0
 30 64  1  0
 32 65  1  0
 33 66  1  0
 33 67  1  0
 34 68  1  0
 34 69  1  0
M  END
>  <smiles>  (25) 
CCC(=O)N(c1ccccc1)C1CCN(C(=O)[C@@H](N)C(C)(C)c2ccc3ccccc3c2)CC1

>  <score_type>  (25) 
oracle

>  <origin>  (25) 
autodockgpu

>  <m_score__min__energy>  (25) 
-9.1699999999999999

>  <m_primary>  (25) 
energy

>  <rmsd>  (25) 
2.3425551205770168

>  <m_score__min__rmsd>  (25) 
2.3425551205770168

>  <meeko>  (25) 
{"free_energy": -9.02, "intermolecular_energy": -11.41, "internal_energy": -2.16, "cluster_size": 32, "cluster_id": 1, "rank_in_cluster": 6}

>  <energy>  (25) 
-8.33

>  <cluster_rmsd>  (25) 
0.77

>  <cluster>  (25) 
1

$$$$

     RDKit          3D

 69 72  0  0  0  0  0  0  0  0999 V2000
  143.2310   76.7160  219.0680 C   0  0  0  0  0  0  0  0  0  0  0  0
  142.5790   77.9570  218.4230 C   0  0  0  0  0  0  0  0  0  0  0  0
  142.0140   78.8110  219.4590 C   0  0  0  0  0  0  0  0  0  0  0  0
  142.1670   80.0790  219.2920 O   0  0  0  0  0  0  0  0  0  0  0  0
  141.3200   78.4420  220.6210 N   0  0  0  0  0  0  0  0  0  0  0  0
  141.4280   79.3860  221.7270 C   0  0  0  0  0  0  0  0  0  0  0  0
  142.5890   79.3340  222.4810 C   0  0  0  0  0  0  0  0  0  0  0  0
  142.7690   80.1880  223.5400 C   0  0  0  0  0  0  0  0  0  0  0  0
  141.7600   81.0880  223.8150 C   0  0  0  0  0  0  0  0  0  0  0  0
  140.6000   81.1440  223.0680 C   0  0  0  0  0  0  0  0  0  0  0  0
  140.4060   80.2770  221.9860 C   0  0  0  0  0  0  0  0  0  0  0  0
  140.5270   77.2830  220.8650 C   0  0  0  0  0  0  0  0  0  0  0  0
  139.3550   77.1670  219.8960 C   0  0  0  0  0  0  0  0  0  0  0  0
  138.8980   75.7610  219.8580 C   0  0  0  0  0  0  0  0  0  0  0  0
  139.0320   75.1150  221.1510 N   0  0  0  0  0  0  0  0  0  0  0  0
  138.5670   73.7550  221.1520 C   0  0  0  0  0  0  0  0  0  0  0  0
  138.1220   73.3650  220.0220 O   0  0  0  0  0  0  0  0  0  0  0  0
  138.5400   72.7990  222.2430 C   0  0  1  0  0  0  0  0  0  0  0  0
  137.3730   71.9990  222.2480 N   0  0  0  0  0  0  0  0  0  0  0  0
  139.8220   71.9630  222.2340 C   0  0  0  0  0  0  0  0  0  0  0  0
  139.7370   70.9370  221.1330 C   0  0  0  0  0  0  0  0  0  0  0  0
  141.0230   72.8280  221.9610 C   0  0  0  0  0  0  0  0  0  0  0  0
  139.9440   71.2960  223.5370 C   0  0  0  0  0  0  0  0  0  0  0  0
  139.5370   69.9690  223.6660 C   0  0  0  0  0  0  0  0  0  0  0  0
  139.6100   69.2880  224.8630 C   0  0  0  0  0  0  0  0  0  0  0  0
  140.0980   69.9030  225.9980 C   0  0  0  0  0  0  0  0  0  0  0  0
  140.1980   69.2790  227.2210 C   0  0  0  0  0  0  0  0  0  0  0  0
  140.6970   69.9530  228.3320 C   0  0  0  0  0  0  0  0  0  0  0  0
  141.1110   71.2710  228.2430 C   0  0  0  0  0  0  0  0  0  0  0  0
  141.0000   71.8700  227.0060 C   0  0  0  0  0  0  0  0  0  0  0  0
  140.5050   71.2140  225.8930 C   0  0  0  0  0  0  0  0  0  0  0  0
  140.4270   71.8910  224.6830 C   0  0  0  0  0  0  0  0  0  0  0  0
  139.5490   75.6540  222.3530 C   0  0  0  0  0  0  0  0  0  0  0  0
  140.0270   77.0990  222.2630 C   0  0  0  0  0  0  0  0  0  0  0  0
  143.1843   76.8049  220.1634 H   0  0  0  0  0  0  0  0  0  0  0  0
  142.6916   75.8115  218.7502 H   0  0  0  0  0  0  0  0  0  0  0  0
  144.2818   76.6470  218.7502 H   0  0  0  0  0  0  0  0  0  0  0  0
  143.3396   78.5188  217.8610 H   0  0  0  0  0  0  0  0  0  0  0  0
  141.7784   77.6342  217.7413 H   0  0  0  0  0  0  0  0  0  0  0  0
  143.3718   78.6033  222.2292 H   0  0  0  0  0  0  0  0  0  0  0  0
  143.6851   80.1562  224.1480 H   0  0  0  0  0  0  0  0  0  0  0  0
  141.8838   81.7842  224.6576 H   0  0  0  0  0  0  0  0  0  0  0  0
  139.8210   81.8767  223.3255 H   0  0  0  0  0  0  0  0  0  0  0  0
  139.4907   80.3043  221.3765 H   0  0  0  0  0  0  0  0  0  0  0  0
  141.2494   76.4709  220.6959 H   0  0  0  0  0  0  0  0  0  0  0  0
  138.5316   77.8132  220.2343 H   0  0  0  0  0  0  0  0  0  0  0  0
  139.6718   77.4817  218.8907 H   0  0  0  0  0  0  0  0  0  0  0  0
  137.8403   75.7385  219.5568 H   0  0  0  0  0  0  0  0  0  0  0  0
  139.5262   75.2169  219.1374 H   0  0  0  0  0  0  0  0  0  0  0  0
  138.5007   73.3647  223.1856 H   0  0  0  0  0  0  0  0  0  0  0  0
  136.8210   71.9650  221.3760 H   0  0  0  0  0  0  0  0  0  0  0  0
  137.5190   71.0350  222.5800 H   0  0  0  0  0  0  0  0  0  0  0  0
  139.6538   69.9325  221.5735 H   0  0  0  0  0  0  0  0  0  0  0  0
  138.8525   71.1390  220.5110 H   0  0  0  0  0  0  0  0  0  0  0  0
  140.6427   70.9907  220.5110 H   0  0  0  0  0  0  0  0  0  0  0  0
  141.4682   73.1487  222.9144 H   0  0  0  0  0  0  0  0  0  0  0  0
  141.7642   72.2550  221.3845 H   0  0  0  0  0  0  0  0  0  0  0  0
  140.7144   73.7126  221.3845 H   0  0  0  0  0  0  0  0  0  0  0  0
  139.1436   69.4465  222.7816 H   0  0  0  0  0  0  0  0  0  0  0  0
  139.2750   68.2415  224.9137 H   0  0  0  0  0  0  0  0  0  0  0  0
  139.8785   68.2313  227.3219 H   0  0  0  0  0  0  0  0  0  0  0  0
  140.7635   69.4294  229.2971 H   0  0  0  0  0  0  0  0  0  0  0  0
  141.5080   71.8125  229.1142 H   0  0  0  0  0  0  0  0  0  0  0  0
  141.3196   72.9171  226.8992 H   0  0  0  0  0  0  0  0  0  0  0  0
  140.7620   72.9377  224.6374 H   0  0  0  0  0  0  0  0  0  0  0  0
  138.7585   75.6038  223.1163 H   0  0  0  0  0  0  0  0  0  0  0  0
  140.4368   75.0534  222.6002 H   0  0  0  0  0  0  0  0  0  0  0  0
  139.1952   77.7898  222.4652 H   0  0  0  0  0  0  0  0  0  0  0  0
  140.8136   77.3094  223.0026 H   0  0  0  0  0  0  0  0  0  0  0  0
  1  2  1  0
  2  3  1  0
  3  4  2  0
  3  5  1  0
  5  6  1  0
  6  7  2  0
  7  8  1  0
  8  9  2  0
  9 10  1  0
 10 11  2  0
  5 12  1  0
 12 13  1  0
 13 14  1  0
 14 15  1  0
 15 16  1  0
 16 17  2  0
 16 18  1  0
 18 19  1  0
 18 20  1  0
 20 21  1  0
 20 22  1  0
 20 23  1  0
 23 24  2  0
 24 25  1  0
 25 26  2  0
 26 27  1  0
 27 28  2  0
 28 29  1  0
 29 30  2  0
 30 31  1  0
 31 32  2  0
 15 33  1  0
 33 34  1  0
 11  6  1  0
 34 12  1  0
 32 23  1  0
 31 26  1  0
  1 35  1  0
  1 36  1  0
  1 37  1  0
  2 38  1  0
  2 39  1  0
  7 40  1  0
  8 41  1  0
  9 42  1  0
 10 43  1  0
 11 44  1  0
 12 45  1  0
 13 46  1  0
 13 47  1  0
 14 48  1  0
 14 49  1  0
 18 50  1  1
 19 51  1  0
 19 52  1  0
 21 53  1  0
 21 54  1  0
 21 55  1  0
 22 56  1  0
 22 57  1  0
 22 58  1  0
 24 59  1  0
 25 60  1  0
 27 61  1  0
 28 62  1  0
 29 63  1  0
 30 64  1  0
 32 65  1  0
 33 66  1  0
 33 67  1  0
 34 68  1  0
 34 69  1  0
M  END
>  <smiles>  (26) 
CCC(=O)N(c1ccccc1)C1CCN(C(=O)[C@@H](N)C(C)(C)c2ccc3ccccc3c2)CC1

>  <score_type>  (26) 
oracle

>  <origin>  (26) 
autodockgpu

>  <m_score__min__energy>  (26) 
-9.1699999999999999

>  <m_primary>  (26) 
energy

>  <rmsd>  (26) 
2.2634087732512183

>  <m_score__min__rmsd>  (26) 
2.2634087732512183

>  <meeko>  (26) 
{"free_energy": -8.59, "intermolecular_energy": -10.98, "internal_energy": -2.58, "cluster_size": 32, "cluster_id": 1, "rank_in_cluster": 12}

>  <energy>  (26) 
-8.32

>  <cluster_rmsd>  (26) 
0.73

>  <cluster>  (26) 
1

$$$$

     RDKit          3D

 69 72  0  0  0  0  0  0  0  0999 V2000
  145.6650   73.2330  216.2890 C   0  0  0  0  0  0  0  0  0  0  0  0
  145.4390   71.7750  216.7400 C   0  0  0  0  0  0  0  0  0  0  0  0
  145.2060   71.7330  218.1770 C   0  0  0  0  0  0  0  0  0  0  0  0
  145.9640   72.4890  218.8950 O   0  0  0  0  0  0  0  0  0  0  0  0
  144.2630   70.9810  218.8930 N   0  0  0  0  0  0  0  0  0  0  0  0
  144.5840   69.5650  219.0310 C   0  0  0  0  0  0  0  0  0  0  0  0
  145.9260   69.2230  218.9910 C   0  0  0  0  0  0  0  0  0  0  0  0
  146.3130   67.9110  219.1120 C   0  0  0  0  0  0  0  0  0  0  0  0
  145.3220   66.9650  219.2760 C   0  0  0  0  0  0  0  0  0  0  0  0
  143.9830   67.3000  219.3160 C   0  0  0  0  0  0  0  0  0  0  0  0
  143.5780   68.6340  219.1920 C   0  0  0  0  0  0  0  0  0  0  0  0
  143.0480   71.4080  219.5020 C   0  0  0  0  0  0  0  0  0  0  0  0
  142.2180   72.2970  218.5810 C   0  0  0  0  0  0  0  0  0  0  0  0
  140.8110   72.2850  219.0380 C   0  0  0  0  0  0  0  0  0  0  0  0
  140.7140   72.1890  220.4830 N   0  0  0  0  0  0  0  0  0  0  0  0
  139.3580   72.2060  220.9590 C   0  0  0  0  0  0  0  0  0  0  0  0
  138.4900   72.3020  220.0290 O   0  0  0  0  0  0  0  0  0  0  0  0
  138.8660   72.1290  222.3220 C   0  0  1  0  0  0  0  0  0  0  0  0
  137.6470   72.8230  222.5090 N   0  0  0  0  0  0  0  0  0  0  0  0
  138.7800   70.6670  222.7630 C   0  0  0  0  0  0  0  0  0  0  0  0
  137.3320   70.2540  222.8330 C   0  0  0  0  0  0  0  0  0  0  0  0
  139.4650   69.7660  221.7690 C   0  0  0  0  0  0  0  0  0  0  0  0
  139.4040   70.5500  224.0880 C   0  0  0  0  0  0  0  0  0  0  0  0
  140.2170   71.5830  224.5530 C   0  0  0  0  0  0  0  0  0  0  0  0
  140.8450   71.5320  225.7800 C   0  0  0  0  0  0  0  0  0  0  0  0
  140.6890   70.4400  226.6090 C   0  0  0  0  0  0  0  0  0  0  0  0
  141.2860   70.3280  227.8440 C   0  0  0  0  0  0  0  0  0  0  0  0
  141.0930   69.2000  228.6360 C   0  0  0  0  0  0  0  0  0  0  0  0
  140.2920   68.1540  228.2090 C   0  0  0  0  0  0  0  0  0  0  0  0
  139.7060   68.2940  226.9680 C   0  0  0  0  0  0  0  0  0  0  0  0
  139.8900   69.4090  226.1700 C   0  0  0  0  0  0  0  0  0  0  0  0
  139.2630   69.4700  224.9320 C   0  0  0  0  0  0  0  0  0  0  0  0
  141.7620   72.0840  221.4290 C   0  0  0  0  0  0  0  0  0  0  0  0
  143.1670   72.0670  220.8410 C   0  0  0  0  0  0  0  0  0  0  0  0
  145.7651   73.8791  217.1736 H   0  0  0  0  0  0  0  0  0  0  0  0
  146.5830   73.2921  215.6859 H   0  0  0  0  0  0  0  0  0  0  0  0
  144.8079   73.5673  215.6859 H   0  0  0  0  0  0  0  0  0  0  0  0
  144.5643   71.3622  216.2161 H   0  0  0  0  0  0  0  0  0  0  0  0
  146.3312   71.1782  216.4994 H   0  0  0  0  0  0  0  0  0  0  0  0
  146.6863   70.0074  218.8615 H   0  0  0  0  0  0  0  0  0  0  0  0
  147.3746   67.6246  219.0794 H   0  0  0  0  0  0  0  0  0  0  0  0
  145.6084   65.9079  219.3784 H   0  0  0  0  0  0  0  0  0  0  0  0
  143.2276   66.5111  219.4465 H   0  0  0  0  0  0  0  0  0  0  0  0
  142.5174   68.9241  219.2212 H   0  0  0  0  0  0  0  0  0  0  0  0
  142.5347   70.4521  219.6828 H   0  0  0  0  0  0  0  0  0  0  0  0
  142.6070   73.3254  218.6125 H   0  0  0  0  0  0  0  0  0  0  0  0
  142.2765   71.9198  217.5493 H   0  0  0  0  0  0  0  0  0  0  0  0
  140.3220   73.2139  218.7093 H   0  0  0  0  0  0  0  0  0  0  0  0
  140.3179   71.4031  218.6031 H   0  0  0  0  0  0  0  0  0  0  0  0
  139.5894   72.6446  222.9707 H   0  0  0  0  0  0  0  0  0  0  0  0
  136.9120   72.6840  221.7980 H   0  0  0  0  0  0  0  0  0  0  0  0
  137.2280   72.7020  223.4420 H   0  0  0  0  0  0  0  0  0  0  0  0
  137.0261   70.1667  223.8860 H   0  0  0  0  0  0  0  0  0  0  0  0
  136.7103   71.0106  222.3320 H   0  0  0  0  0  0  0  0  0  0  0  0
  137.2030   69.2832  222.3320 H   0  0  0  0  0  0  0  0  0  0  0  0
  140.0459   69.0019  222.3063 H   0  0  0  0  0  0  0  0  0  0  0  0
  138.7097   69.2755  221.1374 H   0  0  0  0  0  0  0  0  0  0  0  0
  140.1396   70.3626  221.1374 H   0  0  0  0  0  0  0  0  0  0  0  0
  140.3627   72.4699  223.9189 H   0  0  0  0  0  0  0  0  0  0  0  0
  141.4780   72.3722  226.1016 H   0  0  0  0  0  0  0  0  0  0  0  0
  141.9263   71.1436  228.2112 H   0  0  0  0  0  0  0  0  0  0  0  0
  141.5850   69.1382  229.6179 H   0  0  0  0  0  0  0  0  0  0  0  0
  140.1315   67.2584  228.8271 H   0  0  0  0  0  0  0  0  0  0  0  0
  139.0634   67.4824  226.5962 H   0  0  0  0  0  0  0  0  0  0  0  0
  138.6320   68.6268  224.6144 H   0  0  0  0  0  0  0  0  0  0  0  0
  141.6899   72.9421  222.1134 H   0  0  0  0  0  0  0  0  0  0  0  0
  141.6276   71.1124  221.9269 H   0  0  0  0  0  0  0  0  0  0  0  0
  143.5466   73.0933  220.7291 H   0  0  0  0  0  0  0  0  0  0  0  0
  143.8695   71.5279  221.4935 H   0  0  0  0  0  0  0  0  0  0  0  0
  1  2  1  0
  2  3  1  0
  3  4  2  0
  3  5  1  0
  5  6  1  0
  6  7  2  0
  7  8  1  0
  8  9  2  0
  9 10  1  0
 10 11  2  0
  5 12  1  0
 12 13  1  0
 13 14  1  0
 14 15  1  0
 15 16  1  0
 16 17  2  0
 16 18  1  0
 18 19  1  0
 18 20  1  0
 20 21  1  0
 20 22  1  0
 20 23  1  0
 23 24  2  0
 24 25  1  0
 25 26  2  0
 26 27  1  0
 27 28  2  0
 28 29  1  0
 29 30  2  0
 30 31  1  0
 31 32  2  0
 15 33  1  0
 33 34  1  0
 11  6  1  0
 34 12  1  0
 32 23  1  0
 31 26  1  0
  1 35  1  0
  1 36  1  0
  1 37  1  0
  2 38  1  0
  2 39  1  0
  7 40  1  0
  8 41  1  0
  9 42  1  0
 10 43  1  0
 11 44  1  0
 12 45  1  0
 13 46  1  0
 13 47  1  0
 14 48  1  0
 14 49  1  0
 18 50  1  1
 19 51  1  0
 19 52  1  0
 21 53  1  0
 21 54  1  0
 21 55  1  0
 22 56  1  0
 22 57  1  0
 22 58  1  0
 24 59  1  0
 25 60  1  0
 27 61  1  0
 28 62  1  0
 29 63  1  0
 30 64  1  0
 32 65  1  0
 33 66  1  0
 33 67  1  0
 34 68  1  0
 34 69  1  0
M  END
>  <smiles>  (27) 
CCC(=O)N(c1ccccc1)C1CCN(C(=O)[C@@H](N)C(C)(C)c2ccc3ccccc3c2)CC1

>  <score_type>  (27) 
oracle

>  <origin>  (27) 
autodockgpu

>  <m_score__min__energy>  (27) 
-9.1699999999999999

>  <m_primary>  (27) 
energy

>  <rmsd>  (27) 
2.9801631317563744

>  <m_score__min__rmsd>  (27) 
2.9801631317563744

>  <meeko>  (27) 
{"free_energy": -8.05, "intermolecular_energy": -10.44, "internal_energy": -2.57, "cluster_size": 8, "cluster_id": 2, "rank_in_cluster": 8}

>  <energy>  (27) 
-8.32

>  <cluster_rmsd>  (27) 
0.76

>  <cluster>  (27) 
1

$$$$

     RDKit          3D

 69 72  0  0  0  0  0  0  0  0999 V2000
  142.5980   78.0790  217.1050 C   0  0  0  0  0  0  0  0  0  0  0  0
  142.5880   79.2890  218.0630 C   0  0  0  0  0  0  0  0  0  0  0  0
  141.5850   79.0890  219.0990 C   0  0  0  0  0  0  0  0  0  0  0  0
  140.5230   79.8130  219.0060 O   0  0  0  0  0  0  0  0  0  0  0  0
  141.6130   78.2110  220.1930 N   0  0  0  0  0  0  0  0  0  0  0  0
  141.7590   78.8540  221.4940 C   0  0  0  0  0  0  0  0  0  0  0  0
  142.2150   80.1620  221.4960 C   0  0  0  0  0  0  0  0  0  0  0  0
  142.3810   80.8390  222.6780 C   0  0  0  0  0  0  0  0  0  0  0  0
  142.0760   80.1710  223.8460 C   0  0  0  0  0  0  0  0  0  0  0  0
  141.6210   78.8670  223.8500 C   0  0  0  0  0  0  0  0  0  0  0  0
  141.4500   78.1670  222.6500 C   0  0  0  0  0  0  0  0  0  0  0  0
  141.5160   76.7900  220.2070 C   0  0  0  0  0  0  0  0  0  0  0  0
  142.8620   76.1120  219.9700 C   0  0  0  0  0  0  0  0  0  0  0  0
  142.8020   74.7270  220.4840 C   0  0  0  0  0  0  0  0  0  0  0  0
  141.4850   74.1420  220.3070 N   0  0  0  0  0  0  0  0  0  0  0  0
  141.4050   72.7840  220.7700 C   0  0  0  0  0  0  0  0  0  0  0  0
  142.5010   72.3410  221.2500 O   0  0  0  0  0  0  0  0  0  0  0  0
  140.2700   71.8800  220.7610 C   0  0  1  0  0  0  0  0  0  0  0  0
  140.6470   70.5190  220.8390 N   0  0  0  0  0  0  0  0  0  0  0  0
  139.2810   72.2760  221.8590 C   0  0  0  0  0  0  0  0  0  0  0  0
  139.6080   73.6650  222.3440 C   0  0  0  0  0  0  0  0  0  0  0  0
  137.8710   72.2970  221.3290 C   0  0  0  0  0  0  0  0  0  0  0  0
  139.4090   71.3130  222.9610 C   0  0  0  0  0  0  0  0  0  0  0  0
  138.7370   70.0940  222.8830 C   0  0  0  0  0  0  0  0  0  0  0  0
  138.8010   69.1500  223.8880 C   0  0  0  0  0  0  0  0  0  0  0  0
  139.5460   69.3800  225.0260 C   0  0  0  0  0  0  0  0  0  0  0  0
  139.6530   68.4810  226.0620 C   0  0  0  0  0  0  0  0  0  0  0  0
  140.4190   68.7690  227.1880 C   0  0  0  0  0  0  0  0  0  0  0  0
  141.1010   69.9680  227.3010 C   0  0  0  0  0  0  0  0  0  0  0  0
  140.9770   70.8500  226.2480 C   0  0  0  0  0  0  0  0  0  0  0  0
  140.2180   70.5770  225.1230 C   0  0  0  0  0  0  0  0  0  0  0  0
  140.1460   71.5200  224.1070 C   0  0  0  0  0  0  0  0  0  0  0  0
  140.3260   74.7380  219.7550 C   0  0  0  0  0  0  0  0  0  0  0  0
  140.4950   76.1820  219.2950 C   0  0  0  0  0  0  0  0  0  0  0  0
  142.6057   77.1478  217.6905 H   0  0  0  0  0  0  0  0  0  0  0  0
  141.6996   78.1060  216.4708 H   0  0  0  0  0  0  0  0  0  0  0  0
  143.4958   78.1208  216.4708 H   0  0  0  0  0  0  0  0  0  0  0  0
  143.5788   79.3939  218.5292 H   0  0  0  0  0  0  0  0  0  0  0  0
  142.3473   80.1999  217.4953 H   0  0  0  0  0  0  0  0  0  0  0  0
  142.4456   80.6615  220.5435 H   0  0  0  0  0  0  0  0  0  0  0  0
  142.7442   81.8772  222.6937 H   0  0  0  0  0  0  0  0  0  0  0  0
  142.1993   80.6942  224.8057 H   0  0  0  0  0  0  0  0  0  0  0  0
  141.3907   78.3736  224.8058 H   0  0  0  0  0  0  0  0  0  0  0  0
  141.0896   77.1279  222.6297 H   0  0  0  0  0  0  0  0  0  0  0  0
  141.1609   76.5953  221.2297 H   0  0  0  0  0  0  0  0  0  0  0  0
  143.0819   76.0960  218.8923 H   0  0  0  0  0  0  0  0  0  0  0  0
  143.6545   76.6677  220.4926 H   0  0  0  0  0  0  0  0  0  0  0  0
  143.5390   74.1146  219.9437 H   0  0  0  0  0  0  0  0  0  0  0  0
  143.0224   74.7526  221.5614 H   0  0  0  0  0  0  0  0  0  0  0  0
  139.7674   71.9804  219.7877 H   0  0  0  0  0  0  0  0  0  0  0  0
  140.2560   69.8800  220.1280 H   0  0  0  0  0  0  0  0  0  0  0  0
  141.6640   70.3620  220.8970 H   0  0  0  0  0  0  0  0  0  0  0  0
  139.6111   73.6781  223.4439 H   0  0  0  0  0  0  0  0  0  0  0  0
  140.6000   73.9595  221.9710 H   0  0  0  0  0  0  0  0  0  0  0  0
  138.8515   74.3712  221.9710 H   0  0  0  0  0  0  0  0  0  0  0  0
  137.1630   72.3075  222.1708 H   0  0  0  0  0  0  0  0  0  0  0  0
  137.7236   73.1974  220.7146 H   0  0  0  0  0  0  0  0  0  0  0  0
  137.6969   71.4013  220.7146 H   0  0  0  0  0  0  0  0  0  0  0  0
  138.1344   69.8768  221.9888 H   0  0  0  0  0  0  0  0  0  0  0  0
  138.2515   68.2032  223.7802 H   0  0  0  0  0  0  0  0  0  0  0  0
  139.1243   67.5184  225.9994 H   0  0  0  0  0  0  0  0  0  0  0  0
  140.4834   68.0314  228.0015 H   0  0  0  0  0  0  0  0  0  0  0  0
  141.7107   70.2053  228.1853 H   0  0  0  0  0  0  0  0  0  0  0  0
  141.5048   71.8134  226.3046 H   0  0  0  0  0  0  0  0  0  0  0  0
  140.6964   72.4656  224.2205 H   0  0  0  0  0  0  0  0  0  0  0  0
  140.0156   74.1383  218.8867 H   0  0  0  0  0  0  0  0  0  0  0  0
  139.5798   74.7603  220.5629 H   0  0  0  0  0  0  0  0  0  0  0  0
  140.8469   76.2124  218.2532 H   0  0  0  0  0  0  0  0  0  0  0  0
  139.5426   76.7310  219.3341 H   0  0  0  0  0  0  0  0  0  0  0  0
  1  2  1  0
  2  3  1  0
  3  4  2  0
  3  5  1  0
  5  6  1  0
  6  7  2  0
  7  8  1  0
  8  9  2  0
  9 10  1  0
 10 11  2  0
  5 12  1  0
 12 13  1  0
 13 14  1  0
 14 15  1  0
 15 16  1  0
 16 17  2  0
 16 18  1  0
 18 19  1  0
 18 20  1  0
 20 21  1  0
 20 22  1  0
 20 23  1  0
 23 24  2  0
 24 25  1  0
 25 26  2  0
 26 27  1  0
 27 28  2  0
 28 29  1  0
 29 30  2  0
 30 31  1  0
 31 32  2  0
 15 33  1  0
 33 34  1  0
 11  6  1  0
 34 12  1  0
 32 23  1  0
 31 26  1  0
  1 35  1  0
  1 36  1  0
  1 37  1  0
  2 38  1  0
  2 39  1  0
  7 40  1  0
  8 41  1  0
  9 42  1  0
 10 43  1  0
 11 44  1  0
 12 45  1  0
 13 46  1  0
 13 47  1  0
 14 48  1  0
 14 49  1  0
 18 50  1  6
 19 51  1  0
 19 52  1  0
 21 53  1  0
 21 54  1  0
 21 55  1  0
 22 56  1  0
 22 57  1  0
 22 58  1  0
 24 59  1  0
 25 60  1  0
 27 61  1  0
 28 62  1  0
 29 63  1  0
 30 64  1  0
 32 65  1  0
 33 66  1  0
 33 67  1  0
 34 68  1  0
 34 69  1  0
M  END
>  <smiles>  (28) 
CCC(=O)N(c1ccccc1)C1CCN(C(=O)[C@@H](N)C(C)(C)c2ccc3ccccc3c2)CC1

>  <score_type>  (28) 
oracle

>  <origin>  (28) 
autodockgpu

>  <m_score__min__energy>  (28) 
-9.1699999999999999

>  <m_primary>  (28) 
energy

>  <rmsd>  (28) 
3.0296806481532226

>  <m_score__min__rmsd>  (28) 
3.0296806481532226

>  <meeko>  (28) 
{"free_energy": -7.96, "intermolecular_energy": -10.35, "internal_energy": -2.41, "cluster_size": 32, "cluster_id": 1, "rank_in_cluster": 30}

>  <energy>  (28) 
-8.3

>  <cluster_rmsd>  (28) 
0.73

>  <cluster>  (28) 
1

$$$$

     RDKit          3D

 69 72  0  0  0  0  0  0  0  0999 V2000
  140.5810   71.9210  222.4730 C   0  0  0  0  0  0  0  0  0  0  0  0
  140.7230   72.4430  221.0280 C   0  0  0  0  0  0  0  0  0  0  0  0
  141.3940   73.7350  221.0330 C   0  0  0  0  0  0  0  0  0  0  0  0
  141.0280   74.5580  221.9550 O   0  0  0  0  0  0  0  0  0  0  0  0
  142.3920   74.2110  220.1700 N   0  0  0  0  0  0  0  0  0  0  0  0
  143.6260   73.4330  220.1690 C   0  0  0  0  0  0  0  0  0  0  0  0
  143.6150   72.2460  219.4550 C   0  0  0  0  0  0  0  0  0  0  0  0
  144.7350   71.4550  219.4040 C   0  0  0  0  0  0  0  0  0  0  0  0
  145.8550   71.8870  220.0840 C   0  0  0  0  0  0  0  0  0  0  0  0
  145.8720   73.0690  220.7990 C   0  0  0  0  0  0  0  0  0  0  0  0
  144.7350   73.8830  220.8570 C   0  0  0  0  0  0  0  0  0  0  0  0
  142.3640   75.3380  219.2980 C   0  0  0  0  0  0  0  0  0  0  0  0
  142.3800   74.9340  217.8270 C   0  0  0  0  0  0  0  0  0  0  0  0
  141.8530   76.0520  217.0150 C   0  0  0  0  0  0  0  0  0  0  0  0
  142.2140   77.3430  217.5730 N   0  0  0  0  0  0  0  0  0  0  0  0
  141.7400   78.4490  216.7870 C   0  0  0  0  0  0  0  0  0  0  0  0
  141.0910   78.0970  215.7470 O   0  0  0  0  0  0  0  0  0  0  0  0
  141.9000   79.8720  217.0210 C   0  0  1  0  0  0  0  0  0  0  0  0
  142.1190   80.6050  215.8310 N   0  0  0  0  0  0  0  0  0  0  0  0
  140.7130   80.4040  217.8260 C   0  0  0  0  0  0  0  0  0  0  0  0
  140.7540   81.9110  217.8330 C   0  0  0  0  0  0  0  0  0  0  0  0
  139.4100   79.9850  217.2010 C   0  0  0  0  0  0  0  0  0  0  0  0
  140.8220   79.8900  219.1980 C   0  0  0  0  0  0  0  0  0  0  0  0
  140.0700   78.7770  219.5710 C   0  0  0  0  0  0  0  0  0  0  0  0
  140.1130   78.2520  220.8470 C   0  0  0  0  0  0  0  0  0  0  0  0
  140.9160   78.8150  221.8170 C   0  0  0  0  0  0  0  0  0  0  0  0
  141.0050   78.3380  223.1040 C   0  0  0  0  0  0  0  0  0  0  0  0
  141.8340   78.9500  224.0410 C   0  0  0  0  0  0  0  0  0  0  0  0
  142.5970   80.0560  223.7070 C   0  0  0  0  0  0  0  0  0  0  0  0
  142.4880   80.5110  222.4100 C   0  0  0  0  0  0  0  0  0  0  0  0
  141.6690   79.9140  221.4680 C   0  0  0  0  0  0  0  0  0  0  0  0
  141.6180   80.4360  220.1830 C   0  0  0  0  0  0  0  0  0  0  0  0
  142.9460   77.6160  218.7530 C   0  0  0  0  0  0  0  0  0  0  0  0
  143.4050   76.3880  219.5300 C   0  0  0  0  0  0  0  0  0  0  0  0
  140.8022   72.7341  223.1800 H   0  0  0  0  0  0  0  0  0  0  0  0
  139.5531   71.5641  222.6346 H   0  0  0  0  0  0  0  0  0  0  0  0
  141.2864   71.0926  222.6346 H   0  0  0  0  0  0  0  0  0  0  0  0
  141.3139   71.7271  220.4377 H   0  0  0  0  0  0  0  0  0  0  0  0
  139.7233   72.5552  220.5829 H   0  0  0  0  0  0  0  0  0  0  0  0
  142.7023   71.9355  218.9254 H   0  0  0  0  0  0  0  0  0  0  0  0
  144.7397   70.5100  218.8410 H   0  0  0  0  0  0  0  0  0  0  0  0
  146.7650   71.2696  220.0559 H   0  0  0  0  0  0  0  0  0  0  0  0
  146.7875   73.3731  221.3275 H   0  0  0  0  0  0  0  0  0  0  0  0
  144.7256   74.8284  221.4193 H   0  0  0  0  0  0  0  0  0  0  0  0
  141.4036   75.8065  219.5592 H   0  0  0  0  0  0  0  0  0  0  0  0
  143.4111   74.7077  217.5179 H   0  0  0  0  0  0  0  0  0  0  0  0
  141.7549   74.0409  217.6800 H   0  0  0  0  0  0  0  0  0  0  0  0
  142.2637   75.9770  215.9973 H   0  0  0  0  0  0  0  0  0  0  0  0
  140.7554   75.9792  217.0058 H   0  0  0  0  0  0  0  0  0  0  0  0
  142.8140   80.0155  217.6160 H   0  0  0  0  0  0  0  0  0  0  0  0
  143.0930   80.8660  215.6100 H   0  0  0  0  0  0  0  0  0  0  0  0
  141.6920   80.1900  214.9900 H   0  0  0  0  0  0  0  0  0  0  0  0
  140.7638   82.2727  218.8718 H   0  0  0  0  0  0  0  0  0  0  0  0
  141.6618   82.2555  217.3162 H   0  0  0  0  0  0  0  0  0  0  0  0
  139.8662   82.3044  217.3162 H   0  0  0  0  0  0  0  0  0  0  0  0
  138.6824   79.7510  217.9921 H   0  0  0  0  0  0  0  0  0  0  0  0
  139.0226   80.8039  216.5770 H   0  0  0  0  0  0  0  0  0  0  0  0
  139.5725   79.0938  216.5770 H   0  0  0  0  0  0  0  0  0  0  0  0
  139.4198   78.3006  218.8225 H   0  0  0  0  0  0  0  0  0  0  0  0
  139.4989   77.3733  221.0934 H   0  0  0  0  0  0  0  0  0  0  0  0
  140.4121   77.4593  223.3979 H   0  0  0  0  0  0  0  0  0  0  0  0
  141.8834   78.5479  225.0637 H   0  0  0  0  0  0  0  0  0  0  0  0
  143.2561   80.5464  224.4386 H   0  0  0  0  0  0  0  0  0  0  0  0
  143.0793   81.3889  222.1104 H   0  0  0  0  0  0  0  0  0  0  0  0
  142.2335   81.3152  219.9420 H   0  0  0  0  0  0  0  0  0  0  0  0
  143.8384   78.1952  218.4736 H   0  0  0  0  0  0  0  0  0  0  0  0
  142.2601   78.1601  219.4190 H   0  0  0  0  0  0  0  0  0  0  0  0
  144.3824   76.0451  219.1597 H   0  0  0  0  0  0  0  0  0  0  0  0
  143.5207   76.6099  220.6012 H   0  0  0  0  0  0  0  0  0  0  0  0
  1  2  1  0
  2  3  1  0
  3  4  2  0
  3  5  1  0
  5  6  1  0
  6  7  2  0
  7  8  1  0
  8  9  2  0
  9 10  1  0
 10 11  2  0
  5 12  1  0
 12 13  1  0
 13 14  1  0
 14 15  1  0
 15 16  1  0
 16 17  2  0
 16 18  1  0
 18 19  1  0
 18 20  1  0
 20 21  1  0
 20 22  1  0
 20 23  1  0
 23 24  2  0
 24 25  1  0
 25 26  2  0
 26 27  1  0
 27 28  2  0
 28 29  1  0
 29 30  2  0
 30 31  1  0
 31 32  2  0
 15 33  1  0
 33 34  1  0
 11  6  1  0
 34 12  1  0
 32 23  1  0
 31 26  1  0
  1 35  1  0
  1 36  1  0
  1 37  1  0
  2 38  1  0
  2 39  1  0
  7 40  1  0
  8 41  1  0
  9 42  1  0
 10 43  1  0
 11 44  1  0
 12 45  1  0
 13 46  1  0
 13 47  1  0
 14 48  1  0
 14 49  1  0
 18 50  1  1
 19 51  1  0
 19 52  1  0
 21 53  1  0
 21 54  1  0
 21 55  1  0
 22 56  1  0
 22 57  1  0
 22 58  1  0
 24 59  1  0
 25 60  1  0
 27 61  1  0
 28 62  1  0
 29 63  1  0
 30 64  1  0
 32 65  1  0
 33 66  1  0
 33 67  1  0
 34 68  1  0
 34 69  1  0
M  END
>  <smiles>  (29) 
CCC(=O)N(c1ccccc1)C1CCN(C(=O)[C@@H](N)C(C)(C)c2ccc3ccccc3c2)CC1

>  <score_type>  (29) 
oracle

>  <origin>  (29) 
autodockgpu

>  <m_score__min__energy>  (29) 
-9.1699999999999999

>  <m_primary>  (29) 
energy

>  <rmsd>  (29) 
9.978413492225913

>  <m_score__min__rmsd>  (29) 
9.978413492225913

>  <meeko>  (29) 
{"free_energy": -7.42, "intermolecular_energy": -9.81, "internal_energy": -3.35, "cluster_size": 5, "cluster_id": 6, "rank_in_cluster": 2}

>  <energy>  (29) 
-8.06

>  <cluster_rmsd>  (29) 
0.85

>  <cluster>  (29) 
1

$$$$

     RDKit          3D

 69 72  0  0  0  0  0  0  0  0999 V2000
  140.8220   80.9450  218.3050 C   0  0  0  0  0  0  0  0  0  0  0  0
  142.2150   80.5170  218.8130 C   0  0  0  0  0  0  0  0  0  0  0  0
  142.1470   79.1680  219.3600 C   0  0  0  0  0  0  0  0  0  0  0  0
  142.6940   78.2420  218.6500 O   0  0  0  0  0  0  0  0  0  0  0  0
  141.5650   78.7350  220.5610 N   0  0  0  0  0  0  0  0  0  0  0  0
  141.7710   79.6240  221.6980 C   0  0  0  0  0  0  0  0  0  0  0  0
  140.9160   80.7080  221.8060 C   0  0  0  0  0  0  0  0  0  0  0  0
  141.0430   81.5930  222.8470 C   0  0  0  0  0  0  0  0  0  0  0  0
  142.0430   81.3590  223.7680 C   0  0  0  0  0  0  0  0  0  0  0  0
  142.8990   80.2800  223.6650 C   0  0  0  0  0  0  0  0  0  0  0  0
  142.7790   79.3720  222.6070 C   0  0  0  0  0  0  0  0  0  0  0  0
  140.8040   77.5580  220.8170 C   0  0  0  0  0  0  0  0  0  0  0  0
  139.7400   77.3120  219.7530 C   0  0  0  0  0  0  0  0  0  0  0  0
  139.3500   75.8850  219.7820 C   0  0  0  0  0  0  0  0  0  0  0  0
  139.3850   75.3430  221.1270 N   0  0  0  0  0  0  0  0  0  0  0  0
  138.9810   73.9650  221.1900 C   0  0  0  0  0  0  0  0  0  0  0  0
  138.6680   73.4710  220.0570 O   0  0  0  0  0  0  0  0  0  0  0  0
  138.8890   73.0910  222.3440 C   0  0  1  0  0  0  0  0  0  0  0  0
  137.5770   72.6140  222.5720 N   0  0  0  0  0  0  0  0  0  0  0  0
  139.9100   71.9570  222.2220 C   0  0  0  0  0  0  0  0  0  0  0  0
  139.4520   70.9890  221.1620 C   0  0  0  0  0  0  0  0  0  0  0  0
  141.2550   72.4910  221.8040 C   0  0  0  0  0  0  0  0  0  0  0  0
  139.9990   71.2780  223.5220 C   0  0  0  0  0  0  0  0  0  0  0  0
  139.5660   69.9580  223.6330 C   0  0  0  0  0  0  0  0  0  0  0  0
  139.6080   69.2660  224.8260 C   0  0  0  0  0  0  0  0  0  0  0  0
  140.0890   69.8630  225.9730 C   0  0  0  0  0  0  0  0  0  0  0  0
  140.1580   69.2280  227.1920 C   0  0  0  0  0  0  0  0  0  0  0  0
  140.6520   69.8830  228.3160 C   0  0  0  0  0  0  0  0  0  0  0  0
  141.0910   71.1940  228.2450 C   0  0  0  0  0  0  0  0  0  0  0  0
  141.0110   71.8050  227.0110 C   0  0  0  0  0  0  0  0  0  0  0  0
  140.5220   71.1670  225.8850 C   0  0  0  0  0  0  0  0  0  0  0  0
  140.4750   71.8550  224.6800 C   0  0  0  0  0  0  0  0  0  0  0  0
  139.7560   75.9940  222.3280 C   0  0  0  0  0  0  0  0  0  0  0  0
  140.1770   77.4510  222.1720 C   0  0  0  0  0  0  0  0  0  0  0  0
  140.1647   81.1470  219.1636 H   0  0  0  0  0  0  0  0  0  0  0  0
  140.9180   81.8551  217.6946 H   0  0  0  0  0  0  0  0  0  0  0  0
  140.3904   80.1380  217.6946 H   0  0  0  0  0  0  0  0  0  0  0  0
  142.9305   80.5369  217.9777 H   0  0  0  0  0  0  0  0  0  0  0  0
  142.5445   81.2120  219.5994 H   0  0  0  0  0  0  0  0  0  0  0  0
  140.1296   80.8607  221.0521 H   0  0  0  0  0  0  0  0  0  0  0  0
  140.3711   82.4585  222.9437 H   0  0  0  0  0  0  0  0  0  0  0  0
  142.1625   82.0544  224.6119 H   0  0  0  0  0  0  0  0  0  0  0  0
  143.6831   80.1329  224.4223 H   0  0  0  0  0  0  0  0  0  0  0  0
  143.4500   78.5063  222.5054 H   0  0  0  0  0  0  0  0  0  0  0  0
  141.5743   76.7736  220.7804 H   0  0  0  0  0  0  0  0  0  0  0  0
  138.8601   77.9390  219.9596 H   0  0  0  0  0  0  0  0  0  0  0  0
  140.1407   77.5675  218.7610 H   0  0  0  0  0  0  0  0  0  0  0  0
  138.3287   75.7871  219.3854 H   0  0  0  0  0  0  0  0  0  0  0  0
  140.0688   75.3221  219.1683 H   0  0  0  0  0  0  0  0  0  0  0  0
  139.1353   73.6852  223.2363 H   0  0  0  0  0  0  0  0  0  0  0  0
  137.1590   72.8050  223.4970 H   0  0  0  0  0  0  0  0  0  0  0  0
  136.8960   72.8760  221.8440 H   0  0  0  0  0  0  0  0  0  0  0  0
  139.0285   70.0940  221.6411 H   0  0  0  0  0  0  0  0  0  0  0  0
  138.6847   71.4673  220.5355 H   0  0  0  0  0  0  0  0  0  0  0  0
  140.3084   70.6991  220.5355 H   0  0  0  0  0  0  0  0  0  0  0  0
  141.8499   72.7272  222.6986 H   0  0  0  0  0  0  0  0  0  0  0  0
  141.7801   71.7331  221.2041 H   0  0  0  0  0  0  0  0  0  0  0  0
  141.1173   73.4026  221.2041 H   0  0  0  0  0  0  0  0  0  0  0  0
  139.1771   69.4500  222.7382 H   0  0  0  0  0  0  0  0  0  0  0  0
  139.2536   68.2253  224.8630 H   0  0  0  0  0  0  0  0  0  0  0  0
  139.8171   68.1858  227.2793 H   0  0  0  0  0  0  0  0  0  0  0  0
  140.6944   69.3500  229.2773 H   0  0  0  0  0  0  0  0  0  0  0  0
  141.4834   71.7212  229.1271 H   0  0  0  0  0  0  0  0  0  0  0  0
  141.3515   72.8468  226.9179 H   0  0  0  0  0  0  0  0  0  0  0  0
  140.8296   72.8958  224.6482 H   0  0  0  0  0  0  0  0  0  0  0  0
  138.8965   75.9595  223.0136 H   0  0  0  0  0  0  0  0  0  0  0  0
  140.6400   75.4590  222.7053 H   0  0  0  0  0  0  0  0  0  0  0  0
  139.3000   78.1114  222.2402 H   0  0  0  0  0  0  0  0  0  0  0  0
  140.8771   77.7545  222.9643 H   0  0  0  0  0  0  0  0  0  0  0  0
  1  2  1  0
  2  3  1  0
  3  4  2  0
  3  5  1  0
  5  6  1  0
  6  7  2  0
  7  8  1  0
  8  9  2  0
  9 10  1  0
 10 11  2  0
  5 12  1  0
 12 13  1  0
 13 14  1  0
 14 15  1  0
 15 16  1  0
 16 17  2  0
 16 18  1  0
 18 19  1  0
 18 20  1  0
 20 21  1  0
 20 22  1  0
 20 23  1  0
 23 24  2  0
 24 25  1  0
 25 26  2  0
 26 27  1  0
 27 28  2  0
 28 29  1  0
 29 30  2  0
 30 31  1  0
 31 32  2  0
 15 33  1  0
 33 34  1  0
 11  6  1  0
 34 12  1  0
 32 23  1  0
 31 26  1  0
  1 35  1  0
  1 36  1  0
  1 37  1  0
  2 38  1  0
  2 39  1  0
  7 40  1  0
  8 41  1  0
  9 42  1  0
 10 43  1  0
 11 44  1  0
 12 45  1  0
 13 46  1  0
 13 47  1  0
 14 48  1  0
 14 49  1  0
 18 50  1  1
 19 51  1  0
 19 52  1  0
 21 53  1  0
 21 54  1  0
 21 55  1  0
 22 56  1  0
 22 57  1  0
 22 58  1  0
 24 59  1  0
 25 60  1  0
 27 61  1  0
 28 62  1  0
 29 63  1  0
 30 64  1  0
 32 65  1  0
 33 66  1  0
 33 67  1  0
 34 68  1  0
 34 69  1  0
M  END
>  <smiles>  (30) 
CCC(=O)N(c1ccccc1)C1CCN(C(=O)[C@@H](N)C(C)(C)c2ccc3ccccc3c2)CC1

>  <score_type>  (30) 
oracle

>  <origin>  (30) 
autodockgpu

>  <m_score__min__energy>  (30) 
-9.1699999999999999

>  <m_primary>  (30) 
energy

>  <rmsd>  (30) 
2.3332284576708755

>  <m_score__min__rmsd>  (30) 
2.3332284576708755

>  <meeko>  (30) 
{"free_energy": -8.91, "intermolecular_energy": -11.3, "internal_energy": -2.18, "cluster_size": 32, "cluster_id": 1, "rank_in_cluster": 8}

>  <energy>  (30) 
-7.96

>  <cluster_rmsd>  (30) 
1.91

>  <cluster>  (30) 
1

$$$$

     RDKit          3D

 69 72  0  0  0  0  0  0  0  0999 V2000
  144.6890   69.3370  215.1900 C   0  0  0  0  0  0  0  0  0  0  0  0
  145.9680   69.9250  215.8220 C   0  0  0  0  0  0  0  0  0  0  0  0
  145.6230   70.6870  217.0150 C   0  0  0  0  0  0  0  0  0  0  0  0
  146.1190   71.8750  217.0890 O   0  0  0  0  0  0  0  0  0  0  0  0
  144.8210   70.3060  218.1000 N   0  0  0  0  0  0  0  0  0  0  0  0
  144.9940   68.9250  218.5370 C   0  0  0  0  0  0  0  0  0  0  0  0
  143.8670   68.1200  218.5250 C   0  0  0  0  0  0  0  0  0  0  0  0
  143.9450   66.8080  218.9220 C   0  0  0  0  0  0  0  0  0  0  0  0
  145.1760   66.3340  219.3260 C   0  0  0  0  0  0  0  0  0  0  0  0
  146.3030   67.1320  219.3410 C   0  0  0  0  0  0  0  0  0  0  0  0
  146.2340   68.4710  218.9390 C   0  0  0  0  0  0  0  0  0  0  0  0
  143.8710   71.0770  218.8300 C   0  0  0  0  0  0  0  0  0  0  0  0
  143.4610   72.3460  218.0890 C   0  0  0  0  0  0  0  0  0  0  0  0
  142.1630   72.8160  218.6200 C   0  0  0  0  0  0  0  0  0  0  0  0
  142.0330   72.5500  220.0410 N   0  0  0  0  0  0  0  0  0  0  0  0
  140.7920   73.0240  220.5900 C   0  0  0  0  0  0  0  0  0  0  0  0
  140.0340   73.5890  219.7330 O   0  0  0  0  0  0  0  0  0  0  0  0
  140.3060   72.9430  221.9550 C   0  0  1  0  0  0  0  0  0  0  0  0
  139.5660   74.0830  222.3470 N   0  0  0  0  0  0  0  0  0  0  0  0
  139.5250   71.6430  222.1540 C   0  0  0  0  0  0  0  0  0  0  0  0
  138.0530   71.9160  221.9790 C   0  0  0  0  0  0  0  0  0  0  0  0
  139.9240   70.6160  221.1270 C   0  0  0  0  0  0  0  0  0  0  0  0
  139.7900   71.1510  223.5130 C   0  0  0  0  0  0  0  0  0  0  0  0
  139.4380   69.8440  223.8460 C   0  0  0  0  0  0  0  0  0  0  0  0
  139.6450   69.3230  225.1070 C   0  0  0  0  0  0  0  0  0  0  0  0
  140.2190   70.0880  226.1020 C   0  0  0  0  0  0  0  0  0  0  0  0
  140.4530   69.6280  227.3780 C   0  0  0  0  0  0  0  0  0  0  0  0
  141.0350   70.4470  228.3410 C   0  0  0  0  0  0  0  0  0  0  0  0
  141.3990   71.7500  228.0470 C   0  0  0  0  0  0  0  0  0  0  0  0
  141.1540   72.1830  226.7610 C   0  0  0  0  0  0  0  0  0  0  0  0
  140.5750   71.3810  225.7930 C   0  0  0  0  0  0  0  0  0  0  0  0
  140.3620   71.8960  224.5220 C   0  0  0  0  0  0  0  0  0  0  0  0
  142.9520   71.9060  220.9020 C   0  0  0  0  0  0  0  0  0  0  0  0
  144.2380   71.4290  220.2380 C   0  0  0  0  0  0  0  0  0  0  0  0
  143.9991   69.0198  215.9859 H   0  0  0  0  0  0  0  0  0  0  0  0
  144.2029   70.1020  214.5668 H   0  0  0  0  0  0  0  0  0  0  0  0
  144.9532   68.4700  214.5668 H   0  0  0  0  0  0  0  0  0  0  0  0
  146.6497   69.1063  216.0959 H   0  0  0  0  0  0  0  0  0  0  0  0
  146.4598   70.5893  215.0961 H   0  0  0  0  0  0  0  0  0  0  0  0
  142.9030   68.5346  218.1952 H   0  0  0  0  0  0  0  0  0  0  0  0
  143.0576   66.1580  218.9181 H   0  0  0  0  0  0  0  0  0  0  0  0
  145.2627   65.2854  219.6469 H   0  0  0  0  0  0  0  0  0  0  0  0
  147.2640   66.7114  219.6720 H   0  0  0  0  0  0  0  0  0  0  0  0
  147.1185   69.1249  218.9432 H   0  0  0  0  0  0  0  0  0  0  0  0
  143.0214   70.3825  218.9060 H   0  0  0  0  0  0  0  0  0  0  0  0
  144.2243   73.1237  218.2393 H   0  0  0  0  0  0  0  0  0  0  0  0
  143.3678   72.1345  217.0136 H   0  0  0  0  0  0  0  0  0  0  0  0
  142.0811   73.9000  218.4518 H   0  0  0  0  0  0  0  0  0  0  0  0
  141.3627   72.2727  218.0961 H   0  0  0  0  0  0  0  0  0  0  0  0
  141.1803   72.9282  222.6223 H   0  0  0  0  0  0  0  0  0  0  0  0
  139.1720   74.6710  221.5950 H   0  0  0  0  0  0  0  0  0  0  0  0
  138.8240   73.8930  223.0370 H   0  0  0  0  0  0  0  0  0  0  0  0
  137.5765   72.0044  222.9665 H   0  0  0  0  0  0  0  0  0  0  0  0
  137.9179   72.8545  221.4214 H   0  0  0  0  0  0  0  0  0  0  0  0
  137.5903   71.0883  221.4214 H   0  0  0  0  0  0  0  0  0  0  0  0
  140.2772   69.7069  221.6356 H   0  0  0  0  0  0  0  0  0  0  0  0
  139.0559   70.3703  220.4977 H   0  0  0  0  0  0  0  0  0  0  0  0
  140.7303   71.0208  220.4977 H   0  0  0  0  0  0  0  0  0  0  0  0
  138.9792   69.2055  223.0767 H   0  0  0  0  0  0  0  0  0  0  0  0
  139.3490   68.2856  225.3217 H   0  0  0  0  0  0  0  0  0  0  0  0
  140.1756   68.5965  227.6408 H   0  0  0  0  0  0  0  0  0  0  0  0
  141.2088   70.0523  229.3530 H   0  0  0  0  0  0  0  0  0  0  0  0
  141.8598   72.4059  228.8003 H   0  0  0  0  0  0  0  0  0  0  0  0
  141.4314   73.2129  226.4922 H   0  0  0  0  0  0  0  0  0  0  0  0
  140.6598   72.9340  224.3126 H   0  0  0  0  0  0  0  0  0  0  0  0
  143.2230   72.6125  221.7004 H   0  0  0  0  0  0  0  0  0  0  0  0
  142.4444   71.0019  221.2692 H   0  0  0  0  0  0  0  0  0  0  0  0
  144.9924   72.2295  220.2474 H   0  0  0  0  0  0  0  0  0  0  0  0
  144.6693   70.5674  220.7688 H   0  0  0  0  0  0  0  0  0  0  0  0
  1  2  1  0
  2  3  1  0
  3  4  2  0
  3  5  1  0
  5  6  1  0
  6  7  2  0
  7  8  1  0
  8  9  2  0
  9 10  1  0
 10 11  2  0
  5 12  1  0
 12 13  1  0
 13 14  1  0
 14 15  1  0
 15 16  1  0
 16 17  2  0
 16 18  1  0
 18 19  1  0
 18 20  1  0
 20 21  1  0
 20 22  1  0
 20 23  1  0
 23 24  2  0
 24 25  1  0
 25 26  2  0
 26 27  1  0
 27 28  2  0
 28 29  1  0
 29 30  2  0
 30 31  1  0
 31 32  2  0
 15 33  1  0
 33 34  1  0
 11  6  1  0
 34 12  1  0
 32 23  1  0
 31 26  1  0
  1 35  1  0
  1 36  1  0
  1 37  1  0
  2 38  1  0
  2 39  1  0
  7 40  1  0
  8 41  1  0
  9 42  1  0
 10 43  1  0
 11 44  1  0
 12 45  1  0
 13 46  1  0
 13 47  1  0
 14 48  1  0
 14 49  1  0
 18 50  1  1
 19 51  1  0
 19 52  1  0
 21 53  1  0
 21 54  1  0
 21 55  1  0
 22 56  1  0
 22 57  1  0
 22 58  1  0
 24 59  1  0
 25 60  1  0
 27 61  1  0
 28 62  1  0
 29 63  1  0
 30 64  1  0
 32 65  1  0
 33 66  1  0
 33 67  1  0
 34 68  1  0
 34 69  1  0
M  END
>  <smiles>  (31) 
CCC(=O)N(c1ccccc1)C1CCN(C(=O)[C@@H](N)C(C)(C)c2ccc3ccccc3c2)CC1

>  <score_type>  (31) 
oracle

>  <origin>  (31) 
autodockgpu

>  <m_score__min__energy>  (31) 
-9.1699999999999999

>  <m_primary>  (31) 
energy

>  <rmsd>  (31) 
3.0502415856880876

>  <m_score__min__rmsd>  (31) 
3.0502415856880876

>  <meeko>  (31) 
{"free_energy": -8.48, "intermolecular_energy": -10.87, "internal_energy": -2.62, "cluster_size": 8, "cluster_id": 2, "rank_in_cluster": 1}

>  <energy>  (31) 
-7.81

>  <cluster_rmsd>  (31) 
1.84

>  <cluster>  (31) 
1

$$$$

     RDKit          3D

 69 72  0  0  0  0  0  0  0  0999 V2000
  142.9500   80.5930  218.1370 C   0  0  0  0  0  0  0  0  0  0  0  0
  141.5900   80.0590  218.6330 C   0  0  0  0  0  0  0  0  0  0  0  0
  141.7890   78.8260  219.3840 C   0  0  0  0  0  0  0  0  0  0  0  0
  142.6400   77.9940  218.8890 O   0  0  0  0  0  0  0  0  0  0  0  0
  141.1800   78.4170  220.5790 N   0  0  0  0  0  0  0  0  0  0  0  0
  141.3700   79.3220  221.7070 C   0  0  0  0  0  0  0  0  0  0  0  0
  142.5540   79.1980  222.4150 C   0  0  0  0  0  0  0  0  0  0  0  0
  142.8110   80.0110  223.4900 C   0  0  0  0  0  0  0  0  0  0  0  0
  141.8520   80.9430  223.8290 C   0  0  0  0  0  0  0  0  0  0  0  0
  140.6690   81.0720  223.1280 C   0  0  0  0  0  0  0  0  0  0  0  0
  140.3980   80.2470  222.0310 C   0  0  0  0  0  0  0  0  0  0  0  0
  140.4040   77.2510  220.8380 C   0  0  0  0  0  0  0  0  0  0  0  0
  139.2180   77.1190  219.8880 C   0  0  0  0  0  0  0  0  0  0  0  0
  138.7750   75.7080  219.8620 C   0  0  0  0  0  0  0  0  0  0  0  0
  138.9370   75.0670  221.1540 N   0  0  0  0  0  0  0  0  0  0  0  0
  138.4860   73.7020  221.1670 C   0  0  0  0  0  0  0  0  0  0  0  0
  138.0280   73.3040  220.0450 O   0  0  0  0  0  0  0  0  0  0  0  0
  138.4870   72.7490  222.2600 C   0  0  1  0  0  0  0  0  0  0  0  0
  137.3430   71.9180  222.2690 N   0  0  0  0  0  0  0  0  0  0  0  0
  139.7910   71.9480  222.2520 C   0  0  0  0  0  0  0  0  0  0  0  0
  139.7380   70.9250  221.1470 C   0  0  0  0  0  0  0  0  0  0  0  0
  140.9700   72.8470  221.9880 C   0  0  0  0  0  0  0  0  0  0  0  0
  139.9270   71.2800  223.5530 C   0  0  0  0  0  0  0  0  0  0  0  0
  139.5390   69.9460  223.6790 C   0  0  0  0  0  0  0  0  0  0  0  0
  139.6260   69.2630  224.8750 C   0  0  0  0  0  0  0  0  0  0  0  0
  140.1090   69.8810  226.0100 C   0  0  0  0  0  0  0  0  0  0  0  0
  140.2210   69.2560  227.2300 C   0  0  0  0  0  0  0  0  0  0  0  0
  140.7150   69.9330  228.3410 C   0  0  0  0  0  0  0  0  0  0  0  0
  141.1110   71.2570  228.2550 C   0  0  0  0  0  0  0  0  0  0  0  0
  140.9880   71.8580  227.0200 C   0  0  0  0  0  0  0  0  0  0  0  0
  140.4980   71.1980  225.9070 C   0  0  0  0  0  0  0  0  0  0  0  0
  140.4060   71.8770  224.6990 C   0  0  0  0  0  0  0  0  0  0  0  0
  139.4670   75.6150  222.3470 C   0  0  0  0  0  0  0  0  0  0  0  0
  139.9270   77.0650  222.2450 C   0  0  0  0  0  0  0  0  0  0  0  0
  143.5835   80.8417  219.0012 H   0  0  0  0  0  0  0  0  0  0  0  0
  143.4463   79.8230  217.5281 H   0  0  0  0  0  0  0  0  0  0  0  0
  142.7898   81.4950  217.5281 H   0  0  0  0  0  0  0  0  0  0  0  0
  141.1175   80.8103  219.2828 H   0  0  0  0  0  0  0  0  0  0  0  0
  140.9412   79.8571  217.7679 H   0  0  0  0  0  0  0  0  0  0  0  0
  143.2939   78.4420  222.1131 H   0  0  0  0  0  0  0  0  0  0  0  0
  143.7473   79.9229  224.0606 H   0  0  0  0  0  0  0  0  0  0  0  0
  142.0359   81.6062  224.6871 H   0  0  0  0  0  0  0  0  0  0  0  0
  139.9334   81.8301  223.4349 H   0  0  0  0  0  0  0  0  0  0  0  0
  139.4624   80.3308  221.4586 H   0  0  0  0  0  0  0  0  0  0  0  0
  141.1332   76.4470  220.6594 H   0  0  0  0  0  0  0  0  0  0  0  0
  138.3933   77.7579  220.2370 H   0  0  0  0  0  0  0  0  0  0  0  0
  139.5158   77.4332  218.8768 H   0  0  0  0  0  0  0  0  0  0  0  0
  137.7127   75.6738  219.5785 H   0  0  0  0  0  0  0  0  0  0  0  0
  139.3971   75.1683  219.1328 H   0  0  0  0  0  0  0  0  0  0  0  0
  138.4341   73.3165  223.2008 H   0  0  0  0  0  0  0  0  0  0  0  0
  136.7970   71.8570  221.3950 H   0  0  0  0  0  0  0  0  0  0  0  0
  137.5130   70.9620  222.6160 H   0  0  0  0  0  0  0  0  0  0  0  0
  139.6858   69.9165  221.5832 H   0  0  0  0  0  0  0  0  0  0  0  0
  138.8478   71.1023  220.5256 H   0  0  0  0  0  0  0  0  0  0  0  0
  140.6417   71.0094  220.5256 H   0  0  0  0  0  0  0  0  0  0  0  0
  141.4016   73.1761  222.9448 H   0  0  0  0  0  0  0  0  0  0  0  0
  141.7294   72.2966  221.4132 H   0  0  0  0  0  0  0  0  0  0  0  0
  140.6402   73.7250  221.4132 H   0  0  0  0  0  0  0  0  0  0  0  0
  139.1502   69.4203  222.7944 H   0  0  0  0  0  0  0  0  0  0  0  0
  139.3060   68.2117  224.9240 H   0  0  0  0  0  0  0  0  0  0  0  0
  139.9152   68.2040  227.3292 H   0  0  0  0  0  0  0  0  0  0  0  0
  140.7922   69.4072  229.3041 H   0  0  0  0  0  0  0  0  0  0  0  0
  141.5034   71.8012  229.1267 H   0  0  0  0  0  0  0  0  0  0  0  0
  141.2932   72.9096  226.9149 H   0  0  0  0  0  0  0  0  0  0  0  0
  140.7268   72.9283  224.6554 H   0  0  0  0  0  0  0  0  0  0  0  0
  138.6893   75.5581  223.1228 H   0  0  0  0  0  0  0  0  0  0  0  0
  140.3650   75.0249  222.5822 H   0  0  0  0  0  0  0  0  0  0  0  0
  139.0904   77.7468  222.4578 H   0  0  0  0  0  0  0  0  0  0  0  0
  140.7225   77.2864  222.9717 H   0  0  0  0  0  0  0  0  0  0  0  0
  1  2  1  0
  2  3  1  0
  3  4  2  0
  3  5  1  0
  5  6  1  0
  6  7  2  0
  7  8  1  0
  8  9  2  0
  9 10  1  0
 10 11  2  0
  5 12  1  0
 12 13  1  0
 13 14  1  0
 14 15  1  0
 15 16  1  0
 16 17  2  0
 16 18  1  0
 18 19  1  0
 18 20  1  0
 20 21  1  0
 20 22  1  0
 20 23  1  0
 23 24  2  0
 24 25  1  0
 25 26  2  0
 26 27  1  0
 27 28  2  0
 28 29  1  0
 29 30  2  0
 30 31  1  0
 31 32  2  0
 15 33  1  0
 33 34  1  0
 11  6  1  0
 34 12  1  0
 32 23  1  0
 31 26  1  0
  1 35  1  0
  1 36  1  0
  1 37  1  0
  2 38  1  0
  2 39  1  0
  7 40  1  0
  8 41  1  0
  9 42  1  0
 10 43  1  0
 11 44  1  0
 12 45  1  0
 13 46  1  0
 13 47  1  0
 14 48  1  0
 14 49  1  0
 18 50  1  1
 19 51  1  0
 19 52  1  0
 21 53  1  0
 21 54  1  0
 21 55  1  0
 22 56  1  0
 22 57  1  0
 22 58  1  0
 24 59  1  0
 25 60  1  0
 27 61  1  0
 28 62  1  0
 29 63  1  0
 30 64  1  0
 32 65  1  0
 33 66  1  0
 33 67  1  0
 34 68  1  0
 34 69  1  0
M  END
>  <smiles>  (32) 
CCC(=O)N(c1ccccc1)C1CCN(C(=O)[C@@H](N)C(C)(C)c2ccc3ccccc3c2)CC1

>  <score_type>  (32) 
oracle

>  <origin>  (32) 
autodockgpu

>  <m_score__min__energy>  (32) 
-9.1699999999999999

>  <m_primary>  (32) 
energy

>  <rmsd>  (32) 
2.2338083144086465

>  <m_score__min__rmsd>  (32) 
2.2338083144086465

>  <meeko>  (32) 
{"free_energy": -8.34, "intermolecular_energy": -10.73, "internal_energy": -2.48, "cluster_size": 32, "cluster_id": 1, "rank_in_cluster": 24}

>  <energy>  (32) 
-7.62

>  <cluster_rmsd>  (32) 
1.93

>  <cluster>  (32) 
1

$$$$

     RDKit          3D

 69 72  0  0  0  0  0  0  0  0999 V2000
  143.0270   76.9890  218.8010 C   0  0  0  0  0  0  0  0  0  0  0  0
  142.5510   78.3560  218.2670 C   0  0  0  0  0  0  0  0  0  0  0  0
  142.0660   79.1740  219.3700 C   0  0  0  0  0  0  0  0  0  0  0  0
  142.2100   80.4480  219.2360 O   0  0  0  0  0  0  0  0  0  0  0  0
  141.4590   78.7660  220.5670 N   0  0  0  0  0  0  0  0  0  0  0  0
  141.6440   79.6760  221.6920 C   0  0  0  0  0  0  0  0  0  0  0  0
  142.6880   79.3940  222.5580 C   0  0  0  0  0  0  0  0  0  0  0  0
  142.9300   80.2010  223.6420 C   0  0  0  0  0  0  0  0  0  0  0  0
  142.1010   81.2880  223.8270 C   0  0  0  0  0  0  0  0  0  0  0  0
  141.0590   81.5740  222.9670 C   0  0  0  0  0  0  0  0  0  0  0  0
  140.8030   80.7570  221.8600 C   0  0  0  0  0  0  0  0  0  0  0  0
  140.6900   77.5960  220.8310 C   0  0  0  0  0  0  0  0  0  0  0  0
  139.5860   77.3830  219.8000 C   0  0  0  0  0  0  0  0  0  0  0  0
  139.1760   75.9620  219.8190 C   0  0  0  0  0  0  0  0  0  0  0  0
  139.2490   75.3970  221.1540 N   0  0  0  0  0  0  0  0  0  0  0  0
  138.8270   74.0240  221.2080 C   0  0  0  0  0  0  0  0  0  0  0  0
  138.4670   73.5540  220.0780 O   0  0  0  0  0  0  0  0  0  0  0  0
  138.7620   73.1310  222.3500 C   0  0  1  0  0  0  0  0  0  0  0  0
  137.4560   72.6490  222.6000 N   0  0  0  0  0  0  0  0  0  0  0  0
  139.7810   72.0020  222.1880 C   0  0  0  0  0  0  0  0  0  0  0  0
  139.2960   71.0440  221.1300 C   0  0  0  0  0  0  0  0  0  0  0  0
  141.1130   72.5430  221.7390 C   0  0  0  0  0  0  0  0  0  0  0  0
  139.9070   71.3090  223.4770 C   0  0  0  0  0  0  0  0  0  0  0  0
  139.4890   69.9840  223.5830 C   0  0  0  0  0  0  0  0  0  0  0  0
  139.5660   69.2790  224.7670 C   0  0  0  0  0  0  0  0  0  0  0  0
  140.0680   69.8670  225.9100 C   0  0  0  0  0  0  0  0  0  0  0  0
  140.1720   69.2190  227.1190 C   0  0  0  0  0  0  0  0  0  0  0  0
  140.6860   69.8660  228.2380 C   0  0  0  0  0  0  0  0  0  0  0  0
  141.1120   71.1820  228.1720 C   0  0  0  0  0  0  0  0  0  0  0  0
  140.9970   71.8060  226.9470 C   0  0  0  0  0  0  0  0  0  0  0  0
  140.4870   71.1760  225.8260 C   0  0  0  0  0  0  0  0  0  0  0  0
  140.4050   71.8770  224.6310 C   0  0  0  0  0  0  0  0  0  0  0  0
  139.6710   76.0220  222.3510 C   0  0  0  0  0  0  0  0  0  0  0  0
  140.1080   77.4750  222.2050 C   0  0  0  0  0  0  0  0  0  0  0  0
  143.0221   77.0031  219.9009 H   0  0  0  0  0  0  0  0  0  0  0  0
  142.3509   76.1993  218.4414 H   0  0  0  0  0  0  0  0  0  0  0  0
  144.0473   76.7900  218.4414 H   0  0  0  0  0  0  0  0  0  0  0  0
  143.3905   78.8681  217.7741 H   0  0  0  0  0  0  0  0  0  0  0  0
  141.7364   78.2003  217.5443 H   0  0  0  0  0  0  0  0  0  0  0  0
  143.3273   78.5176  222.3758 H   0  0  0  0  0  0  0  0  0  0  0  0
  143.7550   79.9885  224.3378 H   0  0  0  0  0  0  0  0  0  0  0  0
  142.2758   81.9492  224.6885 H   0  0  0  0  0  0  0  0  0  0  0  0
  140.4241   82.4526  223.1539 H   0  0  0  0  0  0  0  0  0  0  0  0
  139.9778   80.9649  221.1630 H   0  0  0  0  0  0  0  0  0  0  0  0
  141.4473   76.8017  220.7561 H   0  0  0  0  0  0  0  0  0  0  0  0
  138.7232   78.0190  220.0471 H   0  0  0  0  0  0  0  0  0  0  0  0
  139.9563   77.6493  218.7990 H   0  0  0  0  0  0  0  0  0  0  0  0
  138.1403   75.8855  219.4563 H   0  0  0  0  0  0  0  0  0  0  0  0
  139.8646   75.3991  219.1717 H   0  0  0  0  0  0  0  0  0  0  0  0
  139.0277   73.7111  223.2461 H   0  0  0  0  0  0  0  0  0  0  0  0
  136.9820   72.9880  223.4520 H   0  0  0  0  0  0  0  0  0  0  0  0
  136.8070   72.7450  221.8050 H   0  0  0  0  0  0  0  0  0  0  0  0
  138.8493   70.1616  221.6114 H   0  0  0  0  0  0  0  0  0  0  0  0
  138.5411   71.5414  220.5033 H   0  0  0  0  0  0  0  0  0  0  0  0
  140.1437   70.7300  220.5033 H   0  0  0  0  0  0  0  0  0  0  0  0
  141.7237   72.7910  222.6196 H   0  0  0  0  0  0  0  0  0  0  0  0
  141.6320   71.7844  221.1347 H   0  0  0  0  0  0  0  0  0  0  0  0
  140.9561   73.4487  221.1347 H   0  0  0  0  0  0  0  0  0  0  0  0
  139.0835   69.4824  222.6919 H   0  0  0  0  0  0  0  0  0  0  0  0
  139.2226   68.2345  224.8000 H   0  0  0  0  0  0  0  0  0  0  0  0
  139.8435   68.1725  227.2022 H   0  0  0  0  0  0  0  0  0  0  0  0
  140.7553   69.3228  229.1920 H   0  0  0  0  0  0  0  0  0  0  0  0
  141.5208   71.7027  229.0505 H   0  0  0  0  0  0  0  0  0  0  0  0
  141.3257   72.8519  226.8576 H   0  0  0  0  0  0  0  0  0  0  0  0
  140.7490   72.9215  224.6032 H   0  0  0  0  0  0  0  0  0  0  0  0
  138.8354   75.9881  223.0656 H   0  0  0  0  0  0  0  0  0  0  0  0
  140.5598   75.4682  222.6878 H   0  0  0  0  0  0  0  0  0  0  0  0
  139.2438   78.1467  222.3143 H   0  0  0  0  0  0  0  0  0  0  0  0
  140.8390   77.7550  222.9778 H   0  0  0  0  0  0  0  0  0  0  0  0
  1  2  1  0
  2  3  1  0
  3  4  2  0
  3  5  1  0
  5  6  1  0
  6  7  2  0
  7  8  1  0
  8  9  2  0
  9 10  1  0
 10 11  2  0
  5 12  1  0
 12 13  1  0
 13 14  1  0
 14 15  1  0
 15 16  1  0
 16 17  2  0
 16 18  1  0
 18 19  1  0
 18 20  1  0
 20 21  1  0
 20 22  1  0
 20 23  1  0
 23 24  2  0
 24 25  1  0
 25 26  2  0
 26 27  1  0
 27 28  2  0
 28 29  1  0
 29 30  2  0
 30 31  1  0
 31 32  2  0
 15 33  1  0
 33 34  1  0
 11  6  1  0
 34 12  1  0
 32 23  1  0
 31 26  1  0
  1 35  1  0
  1 36  1  0
  1 37  1  0
  2 38  1  0
  2 39  1  0
  7 40  1  0
  8 41  1  0
  9 42  1  0
 10 43  1  0
 11 44  1  0
 12 45  1  0
 13 46  1  0
 13 47  1  0
 14 48  1  0
 14 49  1  0
 18 50  1  1
 19 51  1  0
 19 52  1  0
 21 53  1  0
 21 54  1  0
 21 55  1  0
 22 56  1  0
 22 57  1  0
 22 58  1  0
 24 59  1  0
 25 60  1  0
 27 61  1  0
 28 62  1  0
 29 63  1  0
 30 64  1  0
 32 65  1  0
 33 66  1  0
 33 67  1  0
 34 68  1  0
 34 69  1  0
M  END
>  <smiles>  (33) 
CCC(=O)N(c1ccccc1)C1CCN(C(=O)[C@@H](N)C(C)(C)c2ccc3ccccc3c2)CC1

>  <score_type>  (33) 
oracle

>  <origin>  (33) 
autodockgpu

>  <m_score__min__energy>  (33) 
-9.1699999999999999

>  <m_primary>  (33) 
energy

>  <rmsd>  (33) 
2.3472481494749102

>  <m_score__min__rmsd>  (33) 
2.3472481494749102

>  <meeko>  (33) 
{"free_energy": -9.13, "intermolecular_energy": -11.51, "internal_energy": -2.24, "cluster_size": 32, "cluster_id": 1, "rank_in_cluster": 3}

>  <energy>  (33) 
-8.48

>  <cluster_rmsd>  (33) 
0.0

>  <cluster>  (33) 
2

$$$$

     RDKit          3D

 69 72  0  0  0  0  0  0  0  0999 V2000
  138.8320   75.7490  220.9810 C   0  0  0  0  0  0  0  0  0  0  0  0
  140.0190   75.6420  221.9600 C   0  0  0  0  0  0  0  0  0  0  0  0
  141.0090   74.7120  221.4340 C   0  0  0  0  0  0  0  0  0  0  0  0
  141.0600   73.5570  222.0040 O   0  0  0  0  0  0  0  0  0  0  0  0
  141.9220   74.9000  220.3850 N   0  0  0  0  0  0  0  0  0  0  0  0
  142.9400   73.8630  220.2630 C   0  0  0  0  0  0  0  0  0  0  0  0
  144.1920   74.1540  220.7790 C   0  0  0  0  0  0  0  0  0  0  0  0
  145.2060   73.2320  220.7040 C   0  0  0  0  0  0  0  0  0  0  0  0
  144.9280   72.0220  220.1030 C   0  0  0  0  0  0  0  0  0  0  0  0
  143.6820   71.7270  219.5860 C   0  0  0  0  0  0  0  0  0  0  0  0
  142.6410   72.6600  219.6570 C   0  0  0  0  0  0  0  0  0  0  0  0
  141.9860   75.9540  219.4290 C   0  0  0  0  0  0  0  0  0  0  0  0
  141.6760   75.4750  218.0140 C   0  0  0  0  0  0  0  0  0  0  0  0
  141.2680   76.6340  217.1910 C   0  0  0  0  0  0  0  0  0  0  0  0
  141.9770   77.8420  217.5700 N   0  0  0  0  0  0  0  0  0  0  0  0
  141.6220   78.9790  216.7660 C   0  0  0  0  0  0  0  0  0  0  0  0
  140.7520   78.7210  215.8690 O   0  0  0  0  0  0  0  0  0  0  0  0
  142.1130   80.3430  216.8430 C   0  0  1  0  0  0  0  0  0  0  0  0
  142.3450   80.9180  215.5720 N   0  0  0  0  0  0  0  0  0  0  0  0
  141.1710   81.1870  217.7040 C   0  0  0  0  0  0  0  0  0  0  0  0
  141.7270   82.5830  217.8250 C   0  0  0  0  0  0  0  0  0  0  0  0
  139.8110   81.2900  217.0670 C   0  0  0  0  0  0  0  0  0  0  0  0
  141.0800   80.5630  219.0310 C   0  0  0  0  0  0  0  0  0  0  0  0
  140.0540   79.6540  219.2880 C   0  0  0  0  0  0  0  0  0  0  0  0
  139.9010   79.0430  220.5160 C   0  0  0  0  0  0  0  0  0  0  0  0
  140.7710   79.3110  221.5520 C   0  0  0  0  0  0  0  0  0  0  0  0
  140.6740   78.7350  222.7980 C   0  0  0  0  0  0  0  0  0  0  0  0
  141.5810   79.0450  223.8060 C   0  0  0  0  0  0  0  0  0  0  0  0
  142.6130   79.9430  223.5890 C   0  0  0  0  0  0  0  0  0  0  0  0
  142.6870   80.5040  222.3310 C   0  0  0  0  0  0  0  0  0  0  0  0
  141.7910   80.2050  221.3190 C   0  0  0  0  0  0  0  0  0  0  0  0
  141.9360   80.8160  220.0810 C   0  0  0  0  0  0  0  0  0  0  0  0
  142.9340   78.0130  218.5980 C   0  0  0  0  0  0  0  0  0  0  0  0
  143.2480   76.7600  219.4070 C   0  0  0  0  0  0  0  0  0  0  0  0
  137.8942   75.8335  221.5496 H   0  0  0  0  0  0  0  0  0  0  0  0
  138.9583   76.6394  220.3476 H   0  0  0  0  0  0  0  0  0  0  0  0
  138.7970   74.8504  220.3476 H   0  0  0  0  0  0  0  0  0  0  0  0
  140.4793   76.6331  222.0858 H   0  0  0  0  0  0  0  0  0  0  0  0
  139.6567   75.2760  222.9320 H   0  0  0  0  0  0  0  0  0  0  0  0
  144.3748   75.1302  221.2519 H   0  0  0  0  0  0  0  0  0  0  0  0
  146.2052   73.4504  221.1089 H   0  0  0  0  0  0  0  0  0  0  0  0
  145.7251   71.2672  220.0333 H   0  0  0  0  0  0  0  0  0  0  0  0
  143.5058   70.7493  219.1138 H   0  0  0  0  0  0  0  0  0  0  0  0
  141.6407   72.4462  219.2524 H   0  0  0  0  0  0  0  0  0  0  0  0
  141.2003   76.6355  219.7871 H   0  0  0  0  0  0  0  0  0  0  0  0
  142.5723   75.0102  217.5775 H   0  0  0  0  0  0  0  0  0  0  0  0
  140.8626   74.7351  218.0424 H   0  0  0  0  0  0  0  0  0  0  0  0
  141.4811   76.4129  216.1347 H   0  0  0  0  0  0  0  0  0  0  0  0
  140.1932   76.8047  217.3509 H   0  0  0  0  0  0  0  0  0  0  0  0
  143.0996   80.3197  217.3290 H   0  0  0  0  0  0  0  0  0  0  0  0
  143.3280   81.0610  215.2910 H   0  0  0  0  0  0  0  0  0  0  0  0
  141.8470   80.4560  214.7980 H   0  0  0  0  0  0  0  0  0  0  0  0
  141.8314   82.8452  218.8882 H   0  0  0  0  0  0  0  0  0  0  0  0
  142.7120   82.6289  217.3376 H   0  0  0  0  0  0  0  0  0  0  0  0
  141.0432   83.2935  217.3376 H   0  0  0  0  0  0  0  0  0  0  0  0
  139.0421   81.3482  217.8515 H   0  0  0  0  0  0  0  0  0  0  0  0
  139.7664   82.1941  216.4420 H   0  0  0  0  0  0  0  0  0  0  0  0
  139.6307   80.4029  216.4420 H   0  0  0  0  0  0  0  0  0  0  0  0
  139.3420   79.4158  218.4841 H   0  0  0  0  0  0  0  0  0  0  0  0
  139.0748   78.3334  220.6704 H   0  0  0  0  0  0  0  0  0  0  0  0
  139.8654   78.0172  223.0003 H   0  0  0  0  0  0  0  0  0  0  0  0
  141.4769   78.5689  224.7922 H   0  0  0  0  0  0  0  0  0  0  0  0
  143.3359   80.1956  224.3787 H   0  0  0  0  0  0  0  0  0  0  0  0
  143.4944   81.2213  222.1225 H   0  0  0  0  0  0  0  0  0  0  0  0
  142.7626   81.5265  219.9330 H   0  0  0  0  0  0  0  0  0  0  0  0
  143.8692   78.3640  218.1374 H   0  0  0  0  0  0  0  0  0  0  0  0
  142.4963   78.7320  219.3062 H   0  0  0  0  0  0  0  0  0  0  0  0
  144.0574   76.1892  218.9284 H   0  0  0  0  0  0  0  0  0  0  0  0
  143.5826   77.0113  220.4243 H   0  0  0  0  0  0  0  0  0  0  0  0
  1  2  1  0
  2  3  1  0
  3  4  2  0
  3  5  1  0
  5  6  1  0
  6  7  2  0
  7  8  1  0
  8  9  2  0
  9 10  1  0
 10 11  2  0
  5 12  1  0
 12 13  1  0
 13 14  1  0
 14 15  1  0
 15 16  1  0
 16 17  2  0
 16 18  1  0
 18 19  1  0
 18 20  1  0
 20 21  1  0
 20 22  1  0
 20 23  1  0
 23 24  2  0
 24 25  1  0
 25 26  2  0
 26 27  1  0
 27 28  2  0
 28 29  1  0
 29 30  2  0
 30 31  1  0
 31 32  2  0
 15 33  1  0
 33 34  1  0
 11  6  1  0
 34 12  1  0
 32 23  1  0
 31 26  1  0
  1 35  1  0
  1 36  1  0
  1 37  1  0
  2 38  1  0
  2 39  1  0
  7 40  1  0
  8 41  1  0
  9 42  1  0
 10 43  1  0
 11 44  1  0
 12 45  1  0
 13 46  1  0
 13 47  1  0
 14 48  1  0
 14 49  1  0
 18 50  1  1
 19 51  1  0
 19 52  1  0
 21 53  1  0
 21 54  1  0
 21 55  1  0
 22 56  1  0
 22 57  1  0
 22 58  1  0
 24 59  1  0
 25 60  1  0
 27 61  1  0
 28 62  1  0
 29 63  1  0
 30 64  1  0
 32 65  1  0
 33 66  1  0
 33 67  1  0
 34 68  1  0
 34 69  1  0
M  END
>  <smiles>  (34) 
CCC(=O)N(c1ccccc1)C1CCN(C(=O)[C@@H](N)C(C)(C)c2ccc3ccccc3c2)CC1

>  <score_type>  (34) 
oracle

>  <origin>  (34) 
autodockgpu

>  <m_score__min__energy>  (34) 
-9.1699999999999999

>  <m_primary>  (34) 
energy

>  <rmsd>  (34) 
10.24382571082596

>  <m_score__min__rmsd>  (34) 
10.24382571082596

>  <meeko>  (34) 
{"free_energy": -7.02, "intermolecular_energy": -9.4, "internal_energy": -3.73, "cluster_size": 5, "cluster_id": 6, "rank_in_cluster": 5}

>  <energy>  (34) 
-8.46

>  <cluster_rmsd>  (34) 
1.57

>  <cluster>  (34) 
2

$$$$

     RDKit          3D

 69 72  0  0  0  0  0  0  0  0999 V2000
  146.1210   73.0280  221.2950 C   0  0  0  0  0  0  0  0  0  0  0  0
  145.6540   73.5000  219.9020 C   0  0  0  0  0  0  0  0  0  0  0  0
  145.2560   72.3510  219.1000 C   0  0  0  0  0  0  0  0  0  0  0  0
  145.8880   72.1910  217.9880 O   0  0  0  0  0  0  0  0  0  0  0  0
  144.2730   71.3880  219.3720 N   0  0  0  0  0  0  0  0  0  0  0  0
  144.6650   70.0130  219.0850 C   0  0  0  0  0  0  0  0  0  0  0  0
  143.6820   69.1740  218.5860 C   0  0  0  0  0  0  0  0  0  0  0  0
  143.9680   67.8650  218.2910 C   0  0  0  0  0  0  0  0  0  0  0  0
  145.2590   67.4280  218.5090 C   0  0  0  0  0  0  0  0  0  0  0  0
  146.2430   68.2590  219.0070 C   0  0  0  0  0  0  0  0  0  0  0  0
  145.9610   69.5950  219.3120 C   0  0  0  0  0  0  0  0  0  0  0  0
  142.9580   71.5670  219.8890 C   0  0  0  0  0  0  0  0  0  0  0  0
  142.0120   72.1910  218.8670 C   0  0  0  0  0  0  0  0  0  0  0  0
  140.6170   71.8910  219.2560 C   0  0  0  0  0  0  0  0  0  0  0  0
  140.4520   71.8620  220.6980 N   0  0  0  0  0  0  0  0  0  0  0  0
  139.0990   71.6030  221.1050 C   0  0  0  0  0  0  0  0  0  0  0  0
  138.2910   71.4460  220.1300 O   0  0  0  0  0  0  0  0  0  0  0  0
  138.5500   71.5000  222.4450 C   0  0  1  0  0  0  0  0  0  0  0  0
  137.2980   72.1440  222.5800 N   0  0  0  0  0  0  0  0  0  0  0  0
  138.5030   70.0330  222.8760 C   0  0  0  0  0  0  0  0  0  0  0  0
  137.0670   69.5820  222.9450 C   0  0  0  0  0  0  0  0  0  0  0  0
  139.2110   69.1570  221.8760 C   0  0  0  0  0  0  0  0  0  0  0  0
  139.1310   69.9240  224.2000 C   0  0  0  0  0  0  0  0  0  0  0  0
  139.1410   68.6910  224.8510 C   0  0  0  0  0  0  0  0  0  0  0  0
  139.6990   68.5220  226.1020 C   0  0  0  0  0  0  0  0  0  0  0  0
  140.2800   69.5820  226.7660 C   0  0  0  0  0  0  0  0  0  0  0  0
  140.8550   69.4790  228.0120 C   0  0  0  0  0  0  0  0  0  0  0  0
  141.4250   70.5860  228.6340 C   0  0  0  0  0  0  0  0  0  0  0  0
  141.4350   71.8270  228.0190 C   0  0  0  0  0  0  0  0  0  0  0  0
  140.8530   71.9000  226.7700 C   0  0  0  0  0  0  0  0  0  0  0  0
  140.2820   70.8090  226.1400 C   0  0  0  0  0  0  0  0  0  0  0  0
  139.7160   70.9690  224.8820 C   0  0  0  0  0  0  0  0  0  0  0  0
  141.4350   72.0520  221.6980 C   0  0  0  0  0  0  0  0  0  0  0  0
  142.8450   72.3150  221.1810 C   0  0  0  0  0  0  0  0  0  0  0  0
  145.5735   73.5813  222.0722 H   0  0  0  0  0  0  0  0  0  0  0  0
  145.9227   71.9514  221.4029 H   0  0  0  0  0  0  0  0  0  0  0  0
  147.1996   73.2148  221.4029 H   0  0  0  0  0  0  0  0  0  0  0  0
  144.7974   74.1808  220.0152 H   0  0  0  0  0  0  0  0  0  0  0  0
  146.4804   74.0247  219.4002 H   0  0  0  0  0  0  0  0  0  0  0  0
  142.6647   69.5602  218.4251 H   0  0  0  0  0  0  0  0  0  0  0  0
  143.1964   67.1883  217.8951 H   0  0  0  0  0  0  0  0  0  0  0  0
  145.5125   66.3828  218.2783 H   0  0  0  0  0  0  0  0  0  0  0  0
  147.2584   67.8668  219.1655 H   0  0  0  0  0  0  0  0  0  0  0  0
  146.7290   70.2743  219.7104 H   0  0  0  0  0  0  0  0  0  0  0  0
  142.6570   70.5330  220.1132 H   0  0  0  0  0  0  0  0  0  0  0  0
  142.1619   73.2805  218.8428 H   0  0  0  0  0  0  0  0  0  0  0  0
  142.2169   71.7761  217.8691 H   0  0  0  0  0  0  0  0  0  0  0  0
  139.9568   72.6652  218.8379 H   0  0  0  0  0  0  0  0  0  0  0  0
  140.3597   70.8963  218.8631 H   0  0  0  0  0  0  0  0  0  0  0  0
  139.2222   72.0409  223.1273 H   0  0  0  0  0  0  0  0  0  0  0  0
  137.2730   73.0140  223.1350 H   0  0  0  0  0  0  0  0  0  0  0  0
  136.8060   72.3080  221.6900 H   0  0  0  0  0  0  0  0  0  0  0  0
  136.7629   69.4865  223.9978 H   0  0  0  0  0  0  0  0  0  0  0  0
  136.4258   70.3220  222.4438 H   0  0  0  0  0  0  0  0  0  0  0  0
  136.9640   68.6083  222.4438 H   0  0  0  0  0  0  0  0  0  0  0  0
  139.8162   68.4082  222.4081 H   0  0  0  0  0  0  0  0  0  0  0  0
  138.4684   68.6469  221.2448 H   0  0  0  0  0  0  0  0  0  0  0  0
  139.8655   69.7761  221.2448 H   0  0  0  0  0  0  0  0  0  0  0  0
  138.6884   67.8226  224.3500 H   0  0  0  0  0  0  0  0  0  0  0  0
  139.6801   67.5293  226.5754 H   0  0  0  0  0  0  0  0  0  0  0  0
  140.8643   68.5059  228.5248 H   0  0  0  0  0  0  0  0  0  0  0  0
  141.8753   70.4733  229.6313 H   0  0  0  0  0  0  0  0  0  0  0  0
  141.8834   72.7083  228.5010 H   0  0  0  0  0  0  0  0  0  0  0  0
  140.8427   72.8702  226.2517 H   0  0  0  0  0  0  0  0  0  0  0  0
  139.7353   71.9642  224.4137 H   0  0  0  0  0  0  0  0  0  0  0  0
  141.1324   72.9120  222.3135 H   0  0  0  0  0  0  0  0  0  0  0  0
  141.4868   71.1069  222.2584 H   0  0  0  0  0  0  0  0  0  0  0  0
  142.9959   73.3917  221.0136 H   0  0  0  0  0  0  0  0  0  0  0  0
  143.6065   71.9871  221.9039 H   0  0  0  0  0  0  0  0  0  0  0  0
  1  2  1  0
  2  3  1  0
  3  4  2  0
  3  5  1  0
  5  6  1  0
  6  7  2  0
  7  8  1  0
  8  9  2  0
  9 10  1  0
 10 11  2  0
  5 12  1  0
 12 13  1  0
 13 14  1  0
 14 15  1  0
 15 16  1  0
 16 17  2  0
 16 18  1  0
 18 19  1  0
 18 20  1  0
 20 21  1  0
 20 22  1  0
 20 23  1  0
 23 24  2  0
 24 25  1  0
 25 26  2  0
 26 27  1  0
 27 28  2  0
 28 29  1  0
 29 30  2  0
 30 31  1  0
 31 32  2  0
 15 33  1  0
 33 34  1  0
 11  6  1  0
 34 12  1  0
 32 23  1  0
 31 26  1  0
  1 35  1  0
  1 36  1  0
  1 37  1  0
  2 38  1  0
  2 39  1  0
  7 40  1  0
  8 41  1  0
  9 42  1  0
 10 43  1  0
 11 44  1  0
 12 45  1  0
 13 46  1  0
 13 47  1  0
 14 48  1  0
 14 49  1  0
 18 50  1  1
 19 51  1  0
 19 52  1  0
 21 53  1  0
 21 54  1  0
 21 55  1  0
 22 56  1  0
 22 57  1  0
 22 58  1  0
 24 59  1  0
 25 60  1  0
 27 61  1  0
 28 62  1  0
 29 63  1  0
 30 64  1  0
 32 65  1  0
 33 66  1  0
 33 67  1  0
 34 68  1  0
 34 69  1  0
M  END
>  <smiles>  (35) 
CCC(=O)N(c1ccccc1)C1CCN(C(=O)[C@@H](N)C(C)(C)c2ccc3ccccc3c2)CC1

>  <score_type>  (35) 
oracle

>  <origin>  (35) 
autodockgpu

>  <m_score__min__energy>  (35) 
-9.1699999999999999

>  <m_primary>  (35) 
energy

>  <rmsd>  (35) 
2.264015573008227

>  <m_score__min__rmsd>  (35) 
2.264015573008227

>  <meeko>  (35) 
{"free_energy": -8.46, "intermolecular_energy": -10.85, "internal_energy": -2.68, "cluster_size": 8, "cluster_id": 2, "rank_in_cluster": 2}

>  <energy>  (35) 
-8.36

>  <cluster_rmsd>  (35) 
1.54

>  <cluster>  (35) 
2

$$$$

     RDKit          3D

 69 72  0  0  0  0  0  0  0  0999 V2000
  142.9100   80.6070  217.8940 C   0  0  0  0  0  0  0  0  0  0  0  0
  141.6700   80.3140  218.7650 C   0  0  0  0  0  0  0  0  0  0  0  0
  141.8220   79.0210  219.4180 C   0  0  0  0  0  0  0  0  0  0  0  0
  142.5870   78.1730  218.8220 O   0  0  0  0  0  0  0  0  0  0  0  0
  141.2470   78.5680  220.6150 N   0  0  0  0  0  0  0  0  0  0  0  0
  141.4630   79.4370  221.7670 C   0  0  0  0  0  0  0  0  0  0  0  0
  140.5090   80.4140  222.0000 C   0  0  0  0  0  0  0  0  0  0  0  0
  140.6380   81.2730  223.0620 C   0  0  0  0  0  0  0  0  0  0  0  0
  141.7410   81.1220  223.8770 C   0  0  0  0  0  0  0  0  0  0  0  0
  142.6950   80.1490  223.6500 C   0  0  0  0  0  0  0  0  0  0  0  0
  142.5740   79.2690  222.5690 C   0  0  0  0  0  0  0  0  0  0  0  0
  140.4840   77.3900  220.8560 C   0  0  0  0  0  0  0  0  0  0  0  0
  139.3480   77.2180  219.8530 C   0  0  0  0  0  0  0  0  0  0  0  0
  138.9360   75.7980  219.8280 C   0  0  0  0  0  0  0  0  0  0  0  0
  139.0500   75.1800  221.1370 N   0  0  0  0  0  0  0  0  0  0  0  0
  138.6280   73.8060  221.1490 C   0  0  0  0  0  0  0  0  0  0  0  0
  138.2320   73.3810  220.0130 O   0  0  0  0  0  0  0  0  0  0  0  0
  138.5960   72.8690  222.2570 C   0  0  1  0  0  0  0  0  0  0  0  0
  137.4050   72.1080  222.3020 N   0  0  0  0  0  0  0  0  0  0  0  0
  139.8500   71.9920  222.2320 C   0  0  0  0  0  0  0  0  0  0  0  0
  139.7240   70.9770  221.1250 C   0  0  0  0  0  0  0  0  0  0  0  0
  141.0770   72.8190  221.9560 C   0  0  0  0  0  0  0  0  0  0  0  0
  139.9600   71.3130  223.5310 C   0  0  0  0  0  0  0  0  0  0  0  0
  139.5270   69.9930  223.6490 C   0  0  0  0  0  0  0  0  0  0  0  0
  139.5880   69.3020  224.8420 C   0  0  0  0  0  0  0  0  0  0  0  0
  140.0890   69.8990  225.9810 C   0  0  0  0  0  0  0  0  0  0  0  0
  140.1780   69.2640  227.1980 C   0  0  0  0  0  0  0  0  0  0  0  0
  140.6920   69.9190  228.3130 C   0  0  0  0  0  0  0  0  0  0  0  0
  141.1320   71.2290  228.2350 C   0  0  0  0  0  0  0  0  0  0  0  0
  141.0320   71.8400  227.0020 C   0  0  0  0  0  0  0  0  0  0  0  0
  140.5230   71.2020  225.8850 C   0  0  0  0  0  0  0  0  0  0  0  0
  140.4560   71.8890  224.6800 C   0  0  0  0  0  0  0  0  0  0  0  0
  139.5110   75.7570  222.3440 C   0  0  0  0  0  0  0  0  0  0  0  0
  139.9450   77.2140  222.2410 C   0  0  0  0  0  0  0  0  0  0  0  0
  143.7742   80.8112  218.5432 H   0  0  0  0  0  0  0  0  0  0  0  0
  143.1263   79.7352  217.2590 H   0  0  0  0  0  0  0  0  0  0  0  0
  142.7133   81.4834  217.2590 H   0  0  0  0  0  0  0  0  0  0  0  0
  141.5659   81.0990  219.5285 H   0  0  0  0  0  0  0  0  0  0  0  0
  140.7736   80.2966  218.1277 H   0  0  0  0  0  0  0  0  0  0  0  0
  139.6419   80.5017  221.3288 H   0  0  0  0  0  0  0  0  0  0  0  0
  139.8886   82.0544  223.2568 H   0  0  0  0  0  0  0  0  0  0  0  0
  141.8648   81.7985  224.7355 H   0  0  0  0  0  0  0  0  0  0  0  0
  143.5587   80.0652  224.3261 H   0  0  0  0  0  0  0  0  0  0  0  0
  143.3219   78.4874  222.3694 H   0  0  0  0  0  0  0  0  0  0  0  0
  141.2378   76.5996  220.7255 H   0  0  0  0  0  0  0  0  0  0  0  0
  138.4945   77.8441  220.1521 H   0  0  0  0  0  0  0  0  0  0  0  0
  139.6876   77.5232  218.8522 H   0  0  0  0  0  0  0  0  0  0  0  0
  137.8893   75.7368  219.4954 H   0  0  0  0  0  0  0  0  0  0  0  0
  139.6026   75.2608  219.1372 H   0  0  0  0  0  0  0  0  0  0  0  0
  138.5970   73.4504  223.1908 H   0  0  0  0  0  0  0  0  0  0  0  0
  136.8440   72.0580  221.4370 H   0  0  0  0  0  0  0  0  0  0  0  0
  137.5240   71.1530  222.6720 H   0  0  0  0  0  0  0  0  0  0  0  0
  139.5995   69.9741  221.5595 H   0  0  0  0  0  0  0  0  0  0  0  0
  138.8490   71.2187  220.5038 H   0  0  0  0  0  0  0  0  0  0  0  0
  140.6316   70.9974  220.5038 H   0  0  0  0  0  0  0  0  0  0  0  0
  141.5336   73.1267  222.9083 H   0  0  0  0  0  0  0  0  0  0  0  0
  141.7990   72.2225  221.3790 H   0  0  0  0  0  0  0  0  0  0  0  0
  140.7951   73.7121  221.3790 H   0  0  0  0  0  0  0  0  0  0  0  0
  139.1230   69.4850  222.7609 H   0  0  0  0  0  0  0  0  0  0  0  0
  139.2327   68.2619  224.8857 H   0  0  0  0  0  0  0  0  0  0  0  0
  139.8375   68.2222  227.2913 H   0  0  0  0  0  0  0  0  0  0  0  0
  140.7497   69.3861  229.2736 H   0  0  0  0  0  0  0  0  0  0  0  0
  141.5401   71.7555  229.1104 H   0  0  0  0  0  0  0  0  0  0  0  0
  141.3723   72.8813  226.9027 H   0  0  0  0  0  0  0  0  0  0  0  0
  140.8113   72.9293  224.6416 H   0  0  0  0  0  0  0  0  0  0  0  0
  138.6986   75.6951  223.0831 H   0  0  0  0  0  0  0  0  0  0  0  0
  140.4090   75.1900  222.6305 H   0  0  0  0  0  0  0  0  0  0  0  0
  139.0854   77.8807  222.4036 H   0  0  0  0  0  0  0  0  0  0  0  0
  140.7006   77.4627  223.0007 H   0  0  0  0  0  0  0  0  0  0  0  0
  1  2  1  0
  2  3  1  0
  3  4  2  0
  3  5  1  0
  5  6  1  0
  6  7  2  0
  7  8  1  0
  8  9  2  0
  9 10  1  0
 10 11  2  0
  5 12  1  0
 12 13  1  0
 13 14  1  0
 14 15  1  0
 15 16  1  0
 16 17  2  0
 16 18  1  0
 18 19  1  0
 18 20  1  0
 20 21  1  0
 20 22  1  0
 20 23  1  0
 23 24  2  0
 24 25  1  0
 25 26  2  0
 26 27  1  0
 27 28  2  0
 28 29  1  0
 29 30  2  0
 30 31  1  0
 31 32  2  0
 15 33  1  0
 33 34  1  0
 11  6  1  0
 34 12  1  0
 32 23  1  0
 31 26  1  0
  1 35  1  0
  1 36  1  0
  1 37  1  0
  2 38  1  0
  2 39  1  0
  7 40  1  0
  8 41  1  0
  9 42  1  0
 10 43  1  0
 11 44  1  0
 12 45  1  0
 13 46  1  0
 13 47  1  0
 14 48  1  0
 14 49  1  0
 18 50  1  1
 19 51  1  0
 19 52  1  0
 21 53  1  0
 21 54  1  0
 21 55  1  0
 22 56  1  0
 22 57  1  0
 22 58  1  0
 24 59  1  0
 25 60  1  0
 27 61  1  0
 28 62  1  0
 29 63  1  0
 30 64  1  0
 32 65  1  0
 33 66  1  0
 33 67  1  0
 34 68  1  0
 34 69  1  0
M  END
>  <smiles>  (36) 
CCC(=O)N(c1ccccc1)C1CCN(C(=O)[C@@H](N)C(C)(C)c2ccc3ccccc3c2)CC1

>  <score_type>  (36) 
oracle

>  <origin>  (36) 
autodockgpu

>  <m_score__min__energy>  (36) 
-9.1699999999999999

>  <m_primary>  (36) 
energy

>  <rmsd>  (36) 
2.2804112930836586

>  <m_score__min__rmsd>  (36) 
2.2804112930836586

>  <meeko>  (36) 
{"free_energy": -8.45, "intermolecular_energy": -10.83, "internal_energy": -2.41, "cluster_size": 32, "cluster_id": 1, "rank_in_cluster": 19}

>  <energy>  (36) 
-8.19

>  <cluster_rmsd>  (36) 
1.54

>  <cluster>  (36) 
2

$$$$

     RDKit          3D

 69 72  0  0  0  0  0  0  0  0999 V2000
  140.8200   80.7570  218.5750 C   0  0  0  0  0  0  0  0  0  0  0  0
  142.1960   80.1330  218.8930 C   0  0  0  0  0  0  0  0  0  0  0  0
  142.0140   78.8020  219.4550 C   0  0  0  0  0  0  0  0  0  0  0  0
  142.5640   77.8340  218.8050 O   0  0  0  0  0  0  0  0  0  0  0  0
  141.3200   78.4240  220.6140 N   0  0  0  0  0  0  0  0  0  0  0  0
  141.4250   79.3620  221.7260 C   0  0  0  0  0  0  0  0  0  0  0  0
  142.6120   79.3530  222.4410 C   0  0  0  0  0  0  0  0  0  0  0  0
  142.7910   80.2050  223.5020 C   0  0  0  0  0  0  0  0  0  0  0  0
  141.7530   81.0570  223.8200 C   0  0  0  0  0  0  0  0  0  0  0  0
  140.5680   81.0700  223.1120 C   0  0  0  0  0  0  0  0  0  0  0  0
  140.3750   80.2050  222.0280 C   0  0  0  0  0  0  0  0  0  0  0  0
  140.5310   77.2620  220.8500 C   0  0  0  0  0  0  0  0  0  0  0  0
  139.3680   77.1410  219.8710 C   0  0  0  0  0  0  0  0  0  0  0  0
  138.9170   75.7330  219.8290 C   0  0  0  0  0  0  0  0  0  0  0  0
  139.0430   75.0870  221.1220 N   0  0  0  0  0  0  0  0  0  0  0  0
  138.5830   73.7250  221.1180 C   0  0  0  0  0  0  0  0  0  0  0  0
  138.1500   73.3330  219.9840 O   0  0  0  0  0  0  0  0  0  0  0  0
  138.5510   72.7670  222.2080 C   0  0  1  0  0  0  0  0  0  0  0  0
  137.3970   71.9500  222.1910 N   0  0  0  0  0  0  0  0  0  0  0  0
  139.8460   71.9520  222.2230 C   0  0  0  0  0  0  0  0  0  0  0  0
  139.7920   70.9160  221.1300 C   0  0  0  0  0  0  0  0  0  0  0  0
  141.0380   72.8330  221.9590 C   0  0  0  0  0  0  0  0  0  0  0  0
  139.9610   71.2980  223.5340 C   0  0  0  0  0  0  0  0  0  0  0  0
  139.5220   69.9830  223.6810 C   0  0  0  0  0  0  0  0  0  0  0  0
  139.5870   69.3150  224.8870 C   0  0  0  0  0  0  0  0  0  0  0  0
  140.0980   69.9310  226.0100 C   0  0  0  0  0  0  0  0  0  0  0  0
  140.1910   69.3200  227.2390 C   0  0  0  0  0  0  0  0  0  0  0  0
  140.7160   69.9930  228.3380 C   0  0  0  0  0  0  0  0  0  0  0  0
  141.1620   71.2990  228.2310 C   0  0  0  0  0  0  0  0  0  0  0  0
  141.0580   71.8860  226.9870 C   0  0  0  0  0  0  0  0  0  0  0  0
  140.5380   71.2290  225.8860 C   0  0  0  0  0  0  0  0  0  0  0  0
  140.4670   71.8930  224.6690 C   0  0  0  0  0  0  0  0  0  0  0  0
  139.5470   75.6270  222.3290 C   0  0  0  0  0  0  0  0  0  0  0  0
  140.0190   77.0740  222.2440 C   0  0  0  0  0  0  0  0  0  0  0  0
  140.2987   80.9934  219.5143 H   0  0  0  0  0  0  0  0  0  0  0  0
  140.9614   81.6790  217.9920 H   0  0  0  0  0  0  0  0  0  0  0  0
  140.2196   80.0431  217.9920 H   0  0  0  0  0  0  0  0  0  0  0  0
  142.7875   80.0616  217.9683 H   0  0  0  0  0  0  0  0  0  0  0  0
  142.7234   80.7666  219.6213 H   0  0  0  0  0  0  0  0  0  0  0  0
  143.4161   78.6584  222.1563 H   0  0  0  0  0  0  0  0  0  0  0  0
  143.7281   80.2086  224.0781 H   0  0  0  0  0  0  0  0  0  0  0  0
  141.8740   81.7492  224.6663 H   0  0  0  0  0  0  0  0  0  0  0  0
  139.7677   81.7666  223.4022 H   0  0  0  0  0  0  0  0  0  0  0  0
  139.4393   80.1978  221.4498 H   0  0  0  0  0  0  0  0  0  0  0  0
  141.2593   76.4540  220.6866 H   0  0  0  0  0  0  0  0  0  0  0  0
  138.5391   77.7838  220.2021 H   0  0  0  0  0  0  0  0  0  0  0  0
  139.6923   77.4569  218.8685 H   0  0  0  0  0  0  0  0  0  0  0  0
  137.8619   75.7064  219.5192 H   0  0  0  0  0  0  0  0  0  0  0  0
  139.5535   75.1918  219.1134 H   0  0  0  0  0  0  0  0  0  0  0  0
  138.4856   73.3306  223.1504 H   0  0  0  0  0  0  0  0  0  0  0  0
  136.8530   71.9200  221.3140 H   0  0  0  0  0  0  0  0  0  0  0  0
  137.5560   70.9830  222.5110 H   0  0  0  0  0  0  0  0  0  0  0  0
  139.7397   69.9127  221.5780 H   0  0  0  0  0  0  0  0  0  0  0  0
  138.9015   71.0863  220.5071 H   0  0  0  0  0  0  0  0  0  0  0  0
  140.6954   70.9928  220.5071 H   0  0  0  0  0  0  0  0  0  0  0  0
  141.4745   73.1556  222.9157 H   0  0  0  0  0  0  0  0  0  0  0  0
  141.7890   72.2712  221.3842 H   0  0  0  0  0  0  0  0  0  0  0  0
  140.7213   73.7158  221.3842 H   0  0  0  0  0  0  0  0  0  0  0  0
  139.1096   69.4598  222.8057 H   0  0  0  0  0  0  0  0  0  0  0  0
  139.2265   68.2779  224.9533 H   0  0  0  0  0  0  0  0  0  0  0  0
  139.8446   68.2824  227.3549 H   0  0  0  0  0  0  0  0  0  0  0  0
  140.7776   69.4784  229.3083 H   0  0  0  0  0  0  0  0  0  0  0  0
  141.5778   71.8407  229.0933 H   0  0  0  0  0  0  0  0  0  0  0  0
  141.4040   72.9230  226.8649 H   0  0  0  0  0  0  0  0  0  0  0  0
  140.8273   72.9306  224.6087 H   0  0  0  0  0  0  0  0  0  0  0  0
  138.7501   75.5726  223.0853 H   0  0  0  0  0  0  0  0  0  0  0  0
  140.4351   75.0301  222.5837 H   0  0  0  0  0  0  0  0  0  0  0  0
  139.1822   77.7607  222.4393 H   0  0  0  0  0  0  0  0  0  0  0  0
  140.7981   77.2872  222.9906 H   0  0  0  0  0  0  0  0  0  0  0  0
  1  2  1  0
  2  3  1  0
  3  4  2  0
  3  5  1  0
  5  6  1  0
  6  7  2  0
  7  8  1  0
  8  9  2  0
  9 10  1  0
 10 11  2  0
  5 12  1  0
 12 13  1  0
 13 14  1  0
 14 15  1  0
 15 16  1  0
 16 17  2  0
 16 18  1  0
 18 19  1  0
 18 20  1  0
 20 21  1  0
 20 22  1  0
 20 23  1  0
 23 24  2  0
 24 25  1  0
 25 26  2  0
 26 27  1  0
 27 28  2  0
 28 29  1  0
 29 30  2  0
 30 31  1  0
 31 32  2  0
 15 33  1  0
 33 34  1  0
 11  6  1  0
 34 12  1  0
 32 23  1  0
 31 26  1  0
  1 35  1  0
  1 36  1  0
  1 37  1  0
  2 38  1  0
  2 39  1  0
  7 40  1  0
  8 41  1  0
  9 42  1  0
 10 43  1  0
 11 44  1  0
 12 45  1  0
 13 46  1  0
 13 47  1  0
 14 48  1  0
 14 49  1  0
 18 50  1  1
 19 51  1  0
 19 52  1  0
 21 53  1  0
 21 54  1  0
 21 55  1  0
 22 56  1  0
 22 57  1  0
 22 58  1  0
 24 59  1  0
 25 60  1  0
 27 61  1  0
 28 62  1  0
 29 63  1  0
 30 64  1  0
 32 65  1  0
 33 66  1  0
 33 67  1  0
 34 68  1  0
 34 69  1  0
M  END
>  <smiles>  (37) 
CCC(=O)N(c1ccccc1)C1CCN(C(=O)[C@@H](N)C(C)(C)c2ccc3ccccc3c2)CC1

>  <score_type>  (37) 
oracle

>  <origin>  (37) 
autodockgpu

>  <m_score__min__energy>  (37) 
-9.1699999999999999

>  <m_primary>  (37) 
energy

>  <rmsd>  (37) 
2.2663621498475126

>  <m_score__min__rmsd>  (37) 
2.2663621498475126

>  <meeko>  (37) 
{"free_energy": -8.36, "intermolecular_energy": -10.74, "internal_energy": -2.54, "cluster_size": 32, "cluster_id": 1, "rank_in_cluster": 23}

>  <energy>  (37) 
-8.16

>  <cluster_rmsd>  (37) 
0.96

>  <cluster>  (37) 
2

$$$$

     RDKit          3D

 69 72  0  0  0  0  0  0  0  0999 V2000
  142.1280   79.8330  217.2930 C   0  0  0  0  0  0  0  0  0  0  0  0
  142.1850   80.0070  218.8260 C   0  0  0  0  0  0  0  0  0  0  0  0
  142.0900   78.7060  219.4730 C   0  0  0  0  0  0  0  0  0  0  0  0
  142.7400   77.7460  218.9110 O   0  0  0  0  0  0  0  0  0  0  0  0
  141.3850   78.3510  220.6330 N   0  0  0  0  0  0  0  0  0  0  0  0
  141.5110   79.2910  221.7410 C   0  0  0  0  0  0  0  0  0  0  0  0
  140.5100   80.2390  221.8730 C   0  0  0  0  0  0  0  0  0  0  0  0
  140.5540   81.1610  222.8880 C   0  0  0  0  0  0  0  0  0  0  0  0
  141.6230   81.1020  223.7590 C   0  0  0  0  0  0  0  0  0  0  0  0
  142.6240   80.1590  223.6320 C   0  0  0  0  0  0  0  0  0  0  0  0
  142.5890   79.2150  222.6000 C   0  0  0  0  0  0  0  0  0  0  0  0
  140.5660   77.2100  220.8720 C   0  0  0  0  0  0  0  0  0  0  0  0
  139.3660   77.1490  219.9310 C   0  0  0  0  0  0  0  0  0  0  0  0
  138.8680   75.7570  219.8760 C   0  0  0  0  0  0  0  0  0  0  0  0
  139.0160   75.0790  221.1500 N   0  0  0  0  0  0  0  0  0  0  0  0
  138.5120   73.7330  221.1340 C   0  0  0  0  0  0  0  0  0  0  0  0
  138.0270   73.3810  220.0080 O   0  0  0  0  0  0  0  0  0  0  0  0
  138.4850   72.7540  222.2050 C   0  0  1  0  0  0  0  0  0  0  0  0
  137.3220   71.9490  222.1880 N   0  0  0  0  0  0  0  0  0  0  0  0
  139.7710   71.9240  222.1830 C   0  0  0  0  0  0  0  0  0  0  0  0
  139.6720   70.8840  221.0970 C   0  0  0  0  0  0  0  0  0  0  0  0
  140.9630   72.7910  221.8780 C   0  0  0  0  0  0  0  0  0  0  0  0
  139.9190   71.2750  223.4930 C   0  0  0  0  0  0  0  0  0  0  0  0
  139.4990   69.9550  223.6510 C   0  0  0  0  0  0  0  0  0  0  0  0
  139.5960   69.2900  224.8570 C   0  0  0  0  0  0  0  0  0  0  0  0
  140.1220   69.9150  225.9690 C   0  0  0  0  0  0  0  0  0  0  0  0
  140.2470   69.3080  227.1970 C   0  0  0  0  0  0  0  0  0  0  0  0
  140.7850   69.9900  228.2840 C   0  0  0  0  0  0  0  0  0  0  0  0
  141.2140   71.3020  228.1650 C   0  0  0  0  0  0  0  0  0  0  0  0
  141.0770   71.8840  226.9220 C   0  0  0  0  0  0  0  0  0  0  0  0
  140.5440   71.2180  225.8330 C   0  0  0  0  0  0  0  0  0  0  0  0
  140.4410   71.8790  224.6160 C   0  0  0  0  0  0  0  0  0  0  0  0
  139.5790   75.5760  222.3500 C   0  0  0  0  0  0  0  0  0  0  0  0
  140.0960   77.0090  222.2790 C   0  0  0  0  0  0  0  0  0  0  0  0
  141.7939   78.8131  217.0519 H   0  0  0  0  0  0  0  0  0  0  0  0
  141.4212   80.5605  216.8674 H   0  0  0  0  0  0  0  0  0  0  0  0
  143.1283   80.0014  216.8674 H   0  0  0  0  0  0  0  0  0  0  0  0
  143.1358   80.4849  219.1044 H   0  0  0  0  0  0  0  0  0  0  0  0
  141.3445   80.6374  219.1519 H   0  0  0  0  0  0  0  0  0  0  0  0
  139.6735   80.2528  221.1588 H   0  0  0  0  0  0  0  0  0  0  0  0
  139.7659   81.9197  223.0034 H   0  0  0  0  0  0  0  0  0  0  0  0
  141.6796   81.8301  224.5816 H   0  0  0  0  0  0  0  0  0  0  0  0
  143.4575   80.1500  224.3498 H   0  0  0  0  0  0  0  0  0  0  0  0
  143.3756   78.4555  222.4799 H   0  0  0  0  0  0  0  0  0  0  0  0
  141.2603   76.3819  220.6664 H   0  0  0  0  0  0  0  0  0  0  0  0
  138.5706   77.8109  220.3041 H   0  0  0  0  0  0  0  0  0  0  0  0
  139.6656   77.4768  218.9246 H   0  0  0  0  0  0  0  0  0  0  0  0
  137.8027   75.7709  219.6022 H   0  0  0  0  0  0  0  0  0  0  0  0
  139.4624   75.2115  219.1283 H   0  0  0  0  0  0  0  0  0  0  0  0
  138.4394   73.2992  223.1593 H   0  0  0  0  0  0  0  0  0  0  0  0
  136.6620   72.0580  222.9740 H   0  0  0  0  0  0  0  0  0  0  0  0
  136.7900   71.9880  221.3060 H   0  0  0  0  0  0  0  0  0  0  0  0
  139.5771   69.8869  221.5517 H   0  0  0  0  0  0  0  0  0  0  0  0
  138.7892   71.0881  220.4733 H   0  0  0  0  0  0  0  0  0  0  0  0
  140.5774   70.9179  220.4733 H   0  0  0  0  0  0  0  0  0  0  0  0
  141.4233   73.1258  222.8193 H   0  0  0  0  0  0  0  0  0  0  0  0
  141.6967   72.2141  221.2959 H   0  0  0  0  0  0  0  0  0  0  0  0
  140.6401   73.6667  221.2959 H   0  0  0  0  0  0  0  0  0  0  0  0
  139.0757   69.4251  222.7849 H   0  0  0  0  0  0  0  0  0  0  0  0
  139.2496   68.2487  224.9323 H   0  0  0  0  0  0  0  0  0  0  0  0
  139.9162   68.2664  227.3218 H   0  0  0  0  0  0  0  0  0  0  0  0
  140.8712   69.4788  229.2542 H   0  0  0  0  0  0  0  0  0  0  0  0
  141.6415   71.8508  229.0171 H   0  0  0  0  0  0  0  0  0  0  0  0
  141.4066   72.9252  226.7907 H   0  0  0  0  0  0  0  0  0  0  0  0
  140.7880   72.9205  224.5462 H   0  0  0  0  0  0  0  0  0  0  0  0
  138.8071   75.5309  223.1324 H   0  0  0  0  0  0  0  0  0  0  0  0
  140.4551   74.9451  222.5608 H   0  0  0  0  0  0  0  0  0  0  0  0
  139.2897   77.7183  222.5174 H   0  0  0  0  0  0  0  0  0  0  0  0
  140.9066   77.1807  223.0025 H   0  0  0  0  0  0  0  0  0  0  0  0
  1  2  1  0
  2  3  1  0
  3  4  2  0
  3  5  1  0
  5  6  1  0
  6  7  2  0
  7  8  1  0
  8  9  2  0
  9 10  1  0
 10 11  2  0
  5 12  1  0
 12 13  1  0
 13 14  1  0
 14 15  1  0
 15 16  1  0
 16 17  2  0
 16 18  1  0
 18 19  1  0
 18 20  1  0
 20 21  1  0
 20 22  1  0
 20 23  1  0
 23 24  2  0
 24 25  1  0
 25 26  2  0
 26 27  1  0
 27 28  2  0
 28 29  1  0
 29 30  2  0
 30 31  1  0
 31 32  2  0
 15 33  1  0
 33 34  1  0
 11  6  1  0
 34 12  1  0
 32 23  1  0
 31 26  1  0
  1 35  1  0
  1 36  1  0
  1 37  1  0
  2 38  1  0
  2 39  1  0
  7 40  1  0
  8 41  1  0
  9 42  1  0
 10 43  1  0
 11 44  1  0
 12 45  1  0
 13 46  1  0
 13 47  1  0
 14 48  1  0
 14 49  1  0
 18 50  1  1
 19 51  1  0
 19 52  1  0
 21 53  1  0
 21 54  1  0
 21 55  1  0
 22 56  1  0
 22 57  1  0
 22 58  1  0
 24 59  1  0
 25 60  1  0
 27 61  1  0
 28 62  1  0
 29 63  1  0
 30 64  1  0
 32 65  1  0
 33 66  1  0
 33 67  1  0
 34 68  1  0
 34 69  1  0
M  END
>  <smiles>  (38) 
CCC(=O)N(c1ccccc1)C1CCN(C(=O)[C@@H](N)C(C)(C)c2ccc3ccccc3c2)CC1

>  <score_type>  (38) 
oracle

>  <origin>  (38) 
autodockgpu

>  <m_score__min__energy>  (38) 
-9.1699999999999999

>  <m_primary>  (38) 
energy

>  <rmsd>  (38) 
2.2655127800634776

>  <m_score__min__rmsd>  (38) 
2.2655127800634776

>  <meeko>  (38) 
{"free_energy": -8.41, "intermolecular_energy": -10.8, "internal_energy": -2.55, "cluster_size": 32, "cluster_id": 1, "rank_in_cluster": 21}

>  <energy>  (38) 
-8.14

>  <cluster_rmsd>  (38) 
1.43

>  <cluster>  (38) 
2

$$$$

     RDKit          3D

 69 72  0  0  0  0  0  0  0  0999 V2000
  143.0150   77.0560  218.7810 C   0  0  0  0  0  0  0  0  0  0  0  0
  142.5790   78.4430  218.2640 C   0  0  0  0  0  0  0  0  0  0  0  0
  142.0290   79.2270  219.3610 C   0  0  0  0  0  0  0  0  0  0  0  0
  142.0500   80.5070  219.2080 O   0  0  0  0  0  0  0  0  0  0  0  0
  141.4750   78.7800  220.5700 N   0  0  0  0  0  0  0  0  0  0  0  0
  141.7150   79.6510  221.7150 C   0  0  0  0  0  0  0  0  0  0  0  0
  140.8630   80.7330  221.8660 C   0  0  0  0  0  0  0  0  0  0  0  0
  141.0210   81.6020  222.9170 C   0  0  0  0  0  0  0  0  0  0  0  0
  142.0500   81.3530  223.8030 C   0  0  0  0  0  0  0  0  0  0  0  0
  142.9030   80.2770  223.6570 C   0  0  0  0  0  0  0  0  0  0  0  0
  142.7500   79.3850  222.5890 C   0  0  0  0  0  0  0  0  0  0  0  0
  140.7130   77.6050  220.8290 C   0  0  0  0  0  0  0  0  0  0  0  0
  139.6220   77.3790  219.7870 C   0  0  0  0  0  0  0  0  0  0  0  0
  139.2240   75.9550  219.8050 C   0  0  0  0  0  0  0  0  0  0  0  0
  139.2870   75.3940  221.1430 N   0  0  0  0  0  0  0  0  0  0  0  0
  138.8760   74.0180  221.1960 C   0  0  0  0  0  0  0  0  0  0  0  0
  138.5330   73.5410  220.0640 O   0  0  0  0  0  0  0  0  0  0  0  0
  138.8060   73.1280  222.3400 C   0  0  1  0  0  0  0  0  0  0  0  0
  137.4960   72.6610  222.5970 N   0  0  0  0  0  0  0  0  0  0  0  0
  139.8120   71.9870  222.1760 C   0  0  0  0  0  0  0  0  0  0  0  0
  139.3090   71.0310  221.1240 C   0  0  0  0  0  0  0  0  0  0  0  0
  141.1460   72.5120  221.7160 C   0  0  0  0  0  0  0  0  0  0  0  0
  139.9390   71.2980  223.4670 C   0  0  0  0  0  0  0  0  0  0  0  0
  139.5280   69.9700  223.5740 C   0  0  0  0  0  0  0  0  0  0  0  0
  139.6050   69.2680  224.7600 C   0  0  0  0  0  0  0  0  0  0  0  0
  140.1020   69.8620  225.9020 C   0  0  0  0  0  0  0  0  0  0  0  0
  140.2070   69.2170  227.1130 C   0  0  0  0  0  0  0  0  0  0  0  0
  140.7150   69.8690  228.2320 C   0  0  0  0  0  0  0  0  0  0  0  0
  141.1340   71.1870  228.1640 C   0  0  0  0  0  0  0  0  0  0  0  0
  141.0180   71.8080  226.9380 C   0  0  0  0  0  0  0  0  0  0  0  0
  140.5140   71.1720  225.8170 C   0  0  0  0  0  0  0  0  0  0  0  0
  140.4310   71.8700  224.6200 C   0  0  0  0  0  0  0  0  0  0  0  0
  139.6910   76.0270  222.3430 C   0  0  0  0  0  0  0  0  0  0  0  0
  140.1170   77.4830  222.1960 C   0  0  0  0  0  0  0  0  0  0  0  0
  143.0144   77.0579  219.8810 H   0  0  0  0  0  0  0  0  0  0  0  0
  142.3139   76.2913  218.4153 H   0  0  0  0  0  0  0  0  0  0  0  0
  144.0275   76.8300  218.4153 H   0  0  0  0  0  0  0  0  0  0  0  0
  143.4499   78.9659  217.8420 H   0  0  0  0  0  0  0  0  0  0  0  0
  141.8108   78.3163  217.4869 H   0  0  0  0  0  0  0  0  0  0  0  0
  140.0543   80.8970  221.1386 H   0  0  0  0  0  0  0  0  0  0  0  0
  140.3520   82.4653  223.0484 H   0  0  0  0  0  0  0  0  0  0  0  0
  142.1953   82.0347  224.6539 H   0  0  0  0  0  0  0  0  0  0  0  0
  143.7106   80.1192  224.3870 H   0  0  0  0  0  0  0  0  0  0  0  0
  143.4169   78.5208  222.4538 H   0  0  0  0  0  0  0  0  0  0  0  0
  141.4782   76.8174  220.7646 H   0  0  0  0  0  0  0  0  0  0  0  0
  138.7510   78.0080  220.0231 H   0  0  0  0  0  0  0  0  0  0  0  0
  140.0011   77.6455  218.7894 H   0  0  0  0  0  0  0  0  0  0  0  0
  138.1931   75.8687  219.4310 H   0  0  0  0  0  0  0  0  0  0  0  0
  139.9244   75.3963  219.1668 H   0  0  0  0  0  0  0  0  0  0  0  0
  139.0820   73.7071  223.2336 H   0  0  0  0  0  0  0  0  0  0  0  0
  137.3390   71.6420  222.5430 H   0  0  0  0  0  0  0  0  0  0  0  0
  137.0830   73.0100  223.4740 H   0  0  0  0  0  0  0  0  0  0  0  0
  138.8498   70.1582  221.6112 H   0  0  0  0  0  0  0  0  0  0  0  0
  138.5603   71.5369  220.4967 H   0  0  0  0  0  0  0  0  0  0  0  0
  140.1500   70.7005  220.4967 H   0  0  0  0  0  0  0  0  0  0  0  0
  141.7657   72.7559  222.5915 H   0  0  0  0  0  0  0  0  0  0  0  0
  141.6524   71.7461  221.1102 H   0  0  0  0  0  0  0  0  0  0  0  0
  140.9945   73.4176  221.1102 H   0  0  0  0  0  0  0  0  0  0  0  0
  139.1286   69.4643  222.6825 H   0  0  0  0  0  0  0  0  0  0  0  0
  139.2660   68.2221  224.7952 H   0  0  0  0  0  0  0  0  0  0  0  0
  139.8840   68.1689  227.1976 H   0  0  0  0  0  0  0  0  0  0  0  0
  140.7850   69.3282  229.1873 H   0  0  0  0  0  0  0  0  0  0  0  0
  141.5384   71.7115  229.0422 H   0  0  0  0  0  0  0  0  0  0  0  0
  141.3405   72.8557  226.8472 H   0  0  0  0  0  0  0  0  0  0  0  0
  140.7698   72.9161  224.5909 H   0  0  0  0  0  0  0  0  0  0  0  0
  138.8481   75.9885  223.0487 H   0  0  0  0  0  0  0  0  0  0  0  0
  140.5806   75.4819  222.6916 H   0  0  0  0  0  0  0  0  0  0  0  0
  139.2457   78.1474  222.2933 H   0  0  0  0  0  0  0  0  0  0  0  0
  140.8373   77.7716  222.9756 H   0  0  0  0  0  0  0  0  0  0  0  0
  1  2  1  0
  2  3  1  0
  3  4  2  0
  3  5  1  0
  5  6  1  0
  6  7  2  0
  7  8  1  0
  8  9  2  0
  9 10  1  0
 10 11  2  0
  5 12  1  0
 12 13  1  0
 13 14  1  0
 14 15  1  0
 15 16  1  0
 16 17  2  0
 16 18  1  0
 18 19  1  0
 18 20  1  0
 20 21  1  0
 20 22  1  0
 20 23  1  0
 23 24  2  0
 24 25  1  0
 25 26  2  0
 26 27  1  0
 27 28  2  0
 28 29  1  0
 29 30  2  0
 30 31  1  0
 31 32  2  0
 15 33  1  0
 33 34  1  0
 11  6  1  0
 34 12  1  0
 32 23  1  0
 31 26  1  0
  1 35  1  0
  1 36  1  0
  1 37  1  0
  2 38  1  0
  2 39  1  0
  7 40  1  0
  8 41  1  0
  9 42  1  0
 10 43  1  0
 11 44  1  0
 12 45  1  0
 13 46  1  0
 13 47  1  0
 14 48  1  0
 14 49  1  0
 18 50  1  1
 19 51  1  0
 19 52  1  0
 21 53  1  0
 21 54  1  0
 21 55  1  0
 22 56  1  0
 22 57  1  0
 22 58  1  0
 24 59  1  0
 25 60  1  0
 27 61  1  0
 28 62  1  0
 29 63  1  0
 30 64  1  0
 32 65  1  0
 33 66  1  0
 33 67  1  0
 34 68  1  0
 34 69  1  0
M  END
>  <smiles>  (39) 
CCC(=O)N(c1ccccc1)C1CCN(C(=O)[C@@H](N)C(C)(C)c2ccc3ccccc3c2)CC1

>  <score_type>  (39) 
oracle

>  <origin>  (39) 
autodockgpu

>  <m_score__min__energy>  (39) 
-9.1699999999999999

>  <m_primary>  (39) 
energy

>  <rmsd>  (39) 
2.348367257466245

>  <m_score__min__rmsd>  (39) 
2.348367257466245

>  <meeko>  (39) 
{"free_energy": -9.17, "intermolecular_energy": -11.55, "internal_energy": -1.96, "cluster_size": 32, "cluster_id": 1, "rank_in_cluster": 1}

>  <energy>  (39) 
-8.09

>  <cluster_rmsd>  (39) 
1.6

>  <cluster>  (39) 
2

$$$$

     RDKit          3D

 69 72  0  0  0  0  0  0  0  0999 V2000
  139.7200   72.6150  222.3350 C   0  0  0  0  0  0  0  0  0  0  0  0
  140.9250   72.5720  221.3710 C   0  0  0  0  0  0  0  0  0  0  0  0
  141.4470   73.9170  221.1740 C   0  0  0  0  0  0  0  0  0  0  0  0
  140.9760   74.8270  221.9560 O   0  0  0  0  0  0  0  0  0  0  0  0
  142.3990   74.3630  220.2450 N   0  0  0  0  0  0  0  0  0  0  0  0
  143.6250   73.5750  220.1950 C   0  0  0  0  0  0  0  0  0  0  0  0
  144.7340   74.1050  220.8330 C   0  0  0  0  0  0  0  0  0  0  0  0
  145.9270   73.4260  220.8320 C   0  0  0  0  0  0  0  0  0  0  0  0
  145.9720   72.2120  220.1790 C   0  0  0  0  0  0  0  0  0  0  0  0
  144.8690   71.6790  219.5400 C   0  0  0  0  0  0  0  0  0  0  0  0
  143.6480   72.3630  219.5350 C   0  0  0  0  0  0  0  0  0  0  0  0
  142.3300   75.4680  219.3490 C   0  0  0  0  0  0  0  0  0  0  0  0
  142.1370   75.0310  217.9000 C   0  0  0  0  0  0  0  0  0  0  0  0
  141.5820   76.1610  217.1250 C   0  0  0  0  0  0  0  0  0  0  0  0
  142.0880   77.4380  217.5930 N   0  0  0  0  0  0  0  0  0  0  0  0
  141.5870   78.5530  216.8380 C   0  0  0  0  0  0  0  0  0  0  0  0
  140.7930   78.2200  215.8970 O   0  0  0  0  0  0  0  0  0  0  0  0
  141.8630   79.9680  217.0050 C   0  0  1  0  0  0  0  0  0  0  0  0
  142.0520   80.6430  215.7760 N   0  0  0  0  0  0  0  0  0  0  0  0
  140.7730   80.6130  217.8640 C   0  0  0  0  0  0  0  0  0  0  0  0
  140.9920   82.1030  217.9080 C   0  0  0  0  0  0  0  0  0  0  0  0
  139.4100   80.3690  217.2710 C   0  0  0  0  0  0  0  0  0  0  0  0
  140.8610   80.0480  219.2170 C   0  0  0  0  0  0  0  0  0  0  0  0
  140.0830   78.9390  219.5460 C   0  0  0  0  0  0  0  0  0  0  0  0
  140.1070   78.3680  220.8020 C   0  0  0  0  0  0  0  0  0  0  0  0
  140.9150   78.8800  221.7970 C   0  0  0  0  0  0  0  0  0  0  0  0
  140.9850   78.3570  223.0670 C   0  0  0  0  0  0  0  0  0  0  0  0
  141.8190   78.9180  224.0300 C   0  0  0  0  0  0  0  0  0  0  0  0
  142.6070   80.0200  223.7400 C   0  0  0  0  0  0  0  0  0  0  0  0
  142.5170   80.5220  222.4590 C   0  0  0  0  0  0  0  0  0  0  0  0
  141.6920   79.9750  221.4920 C   0  0  0  0  0  0  0  0  0  0  0  0
  141.6600   80.5430  220.2250 C   0  0  0  0  0  0  0  0  0  0  0  0
  142.9780   77.6910  218.6640 C   0  0  0  0  0  0  0  0  0  0  0  0
  143.4550   76.4540  219.4170 C   0  0  0  0  0  0  0  0  0  0  0  0
  140.0810   72.6021  223.3740 H   0  0  0  0  0  0  0  0  0  0  0  0
  139.1422   73.5343  222.1590 H   0  0  0  0  0  0  0  0  0  0  0  0
  139.0782   71.7392  222.1590 H   0  0  0  0  0  0  0  0  0  0  0  0
  141.7122   71.9337  221.7986 H   0  0  0  0  0  0  0  0  0  0  0  0
  140.6012   72.1625  220.4028 H   0  0  0  0  0  0  0  0  0  0  0  0
  144.6584   75.0763  221.3438 H   0  0  0  0  0  0  0  0  0  0  0  0
  146.8158   73.8357  221.3343 H   0  0  0  0  0  0  0  0  0  0  0  0
  146.9172   71.6495  220.1665 H   0  0  0  0  0  0  0  0  0  0  0  0
  144.9513   70.7077  219.0303 H   0  0  0  0  0  0  0  0  0  0  0  0
  142.7569   71.9576  219.0334 H   0  0  0  0  0  0  0  0  0  0  0  0
  141.4398   76.0020  219.7129 H   0  0  0  0  0  0  0  0  0  0  0  0
  143.1056   74.7318  217.4731 H   0  0  0  0  0  0  0  0  0  0  0  0
  141.4445   74.1773  217.8590 H   0  0  0  0  0  0  0  0  0  0  0  0
  141.8565   76.0357  216.0672 H   0  0  0  0  0  0  0  0  0  0  0  0
  140.4896   76.1591  217.2539 H   0  0  0  0  0  0  0  0  0  0  0  0
  142.8234   80.0635  217.5327 H   0  0  0  0  0  0  0  0  0  0  0  0
  143.0230   80.8660  215.5050 H   0  0  0  0  0  0  0  0  0  0  0  0
  141.5800   80.2040  214.9720 H   0  0  0  0  0  0  0  0  0  0  0  0
  141.0409   82.4356  218.9554 H   0  0  0  0  0  0  0  0  0  0  0  0
  141.9361   82.3500  217.4004 H   0  0  0  0  0  0  0  0  0  0  0  0
  140.1589   82.6112  217.4004 H   0  0  0  0  0  0  0  0  0  0  0  0
  138.6763   80.2377  218.0800 H   0  0  0  0  0  0  0  0  0  0  0  0
  139.1209   81.2297  216.6500 H   0  0  0  0  0  0  0  0  0  0  0  0
  139.4374   79.4615  216.6500 H   0  0  0  0  0  0  0  0  0  0  0  0
  139.4271   78.5039  218.7776 H   0  0  0  0  0  0  0  0  0  0  0  0
  139.4740   77.4935  221.0130 H   0  0  0  0  0  0  0  0  0  0  0  0
  140.3720   77.4811  223.3260 H   0  0  0  0  0  0  0  0  0  0  0  0
  141.8530   78.4790  225.0380 H   0  0  0  0  0  0  0  0  0  0  0  0
  143.2701   80.4711  224.4928 H   0  0  0  0  0  0  0  0  0  0  0  0
  143.1287   81.3969  222.1937 H   0  0  0  0  0  0  0  0  0  0  0  0
  142.2941   81.4179  220.0190 H   0  0  0  0  0  0  0  0  0  0  0  0
  143.8621   78.2043  218.2579 H   0  0  0  0  0  0  0  0  0  0  0  0
  142.4160   78.2941  219.3923 H   0  0  0  0  0  0  0  0  0  0  0  0
  144.3553   76.0398  218.9396 H   0  0  0  0  0  0  0  0  0  0  0  0
  143.7178   76.6933  220.4580 H   0  0  0  0  0  0  0  0  0  0  0  0
  1  2  1  0
  2  3  1  0
  3  4  2  0
  3  5  1  0
  5  6  1  0
  6  7  2  0
  7  8  1  0
  8  9  2  0
  9 10  1  0
 10 11  2  0
  5 12  1  0
 12 13  1  0
 13 14  1  0
 14 15  1  0
 15 16  1  0
 16 17  2  0
 16 18  1  0
 18 19  1  0
 18 20  1  0
 20 21  1  0
 20 22  1  0
 20 23  1  0
 23 24  2  0
 24 25  1  0
 25 26  2  0
 26 27  1  0
 27 28  2  0
 28 29  1  0
 29 30  2  0
 30 31  1  0
 31 32  2  0
 15 33  1  0
 33 34  1  0
 11  6  1  0
 34 12  1  0
 32 23  1  0
 31 26  1  0
  1 35  1  0
  1 36  1  0
  1 37  1  0
  2 38  1  0
  2 39  1  0
  7 40  1  0
  8 41  1  0
  9 42  1  0
 10 43  1  0
 11 44  1  0
 12 45  1  0
 13 46  1  0
 13 47  1  0
 14 48  1  0
 14 49  1  0
 18 50  1  1
 19 51  1  0
 19 52  1  0
 21 53  1  0
 21 54  1  0
 21 55  1  0
 22 56  1  0
 22 57  1  0
 22 58  1  0
 24 59  1  0
 25 60  1  0
 27 61  1  0
 28 62  1  0
 29 63  1  0
 30 64  1  0
 32 65  1  0
 33 66  1  0
 33 67  1  0
 34 68  1  0
 34 69  1  0
M  END
>  <smiles>  (40) 
CCC(=O)N(c1ccccc1)C1CCN(C(=O)[C@@H](N)C(C)(C)c2ccc3ccccc3c2)CC1

>  <score_type>  (40) 
oracle

>  <origin>  (40) 
autodockgpu

>  <m_score__min__energy>  (40) 
-9.1699999999999999

>  <m_primary>  (40) 
energy

>  <rmsd>  (40) 
9.981546205348895

>  <m_score__min__rmsd>  (40) 
9.981546205348895

>  <meeko>  (40) 
{"free_energy": -7.51, "intermolecular_energy": -9.9, "internal_energy": -3.29, "cluster_size": 5, "cluster_id": 6, "rank_in_cluster": 1}

>  <energy>  (40) 
-8.05

>  <cluster_rmsd>  (40) 
1.36

>  <cluster>  (40) 
2

$$$$

     RDKit          3D

 69 72  0  0  0  0  0  0  0  0999 V2000
  137.5590   80.9380  224.8950 C   0  0  0  0  0  0  0  0  0  0  0  0
  136.7950   80.1250  223.8300 C   0  0  0  0  0  0  0  0  0  0  0  0
  137.6560   79.8910  222.6780 C   0  0  0  0  0  0  0  0  0  0  0  0
  137.4800   80.6770  221.6720 O   0  0  0  0  0  0  0  0  0  0  0  0
  138.6580   78.9240  222.5110 N   0  0  0  0  0  0  0  0  0  0  0  0
  139.9970   79.3540  222.8950 C   0  0  0  0  0  0  0  0  0  0  0  0
  140.9410   78.3580  223.0910 C   0  0  0  0  0  0  0  0  0  0  0  0
  142.2250   78.6790  223.4550 C   0  0  0  0  0  0  0  0  0  0  0  0
  142.5300   80.0150  223.6130 C   0  0  0  0  0  0  0  0  0  0  0  0
  141.5940   81.0120  223.4190 C   0  0  0  0  0  0  0  0  0  0  0  0
  140.2820   80.6960  223.0490 C   0  0  0  0  0  0  0  0  0  0  0  0
  138.5460   77.5890  222.0260 C   0  0  0  0  0  0  0  0  0  0  0  0
  138.1200   77.5360  220.5620 C   0  0  0  0  0  0  0  0  0  0  0  0
  138.5020   76.2250  219.9950 C   0  0  0  0  0  0  0  0  0  0  0  0
  138.3960   75.1610  220.9760 N   0  0  0  0  0  0  0  0  0  0  0  0
  138.7330   73.8690  220.4440 C   0  0  0  0  0  0  0  0  0  0  0  0
  139.0630   73.8920  219.2120 O   0  0  0  0  0  0  0  0  0  0  0  0
  138.7460   72.5800  221.1120 C   0  0  1  0  0  0  0  0  0  0  0  0
  138.3210   71.5220  220.2760 N   0  0  0  0  0  0  0  0  0  0  0  0
  140.1250   72.3240  221.7230 C   0  0  0  0  0  0  0  0  0  0  0  0
  140.9380   71.4790  220.7770 C   0  0  0  0  0  0  0  0  0  0  0  0
  140.8670   73.6180  221.9320 C   0  0  0  0  0  0  0  0  0  0  0  0
  139.9380   71.6190  222.9980 C   0  0  0  0  0  0  0  0  0  0  0  0
  138.9930   70.5970  223.0800 C   0  0  0  0  0  0  0  0  0  0  0  0
  138.7560   69.9040  224.2500 C   0  0  0  0  0  0  0  0  0  0  0  0
  139.4560   70.1990  225.4010 C   0  0  0  0  0  0  0  0  0  0  0  0
  139.2680   69.5460  226.5970 C   0  0  0  0  0  0  0  0  0  0  0  0
  140.0050   69.8890  227.7270 C   0  0  0  0  0  0  0  0  0  0  0  0
  140.9530   70.8970  227.6840 C   0  0  0  0  0  0  0  0  0  0  0  0
  141.1210   71.5340  226.4720 C   0  0  0  0  0  0  0  0  0  0  0  0
  140.3950   71.2050  225.3410 C   0  0  0  0  0  0  0  0  0  0  0  0
  140.6260   71.8970  224.1600 C   0  0  0  0  0  0  0  0  0  0  0  0
  138.0160   75.2540  222.3360 C   0  0  0  0  0  0  0  0  0  0  0  0
  137.6810   76.6600  222.8210 C   0  0  0  0  0  0  0  0  0  0  0  0
  137.2502   80.6094  225.8983 H   0  0  0  0  0  0  0  0  0  0  0  0
  138.6403   80.7771  224.7731 H   0  0  0  0  0  0  0  0  0  0  0  0
  137.3313   82.0073  224.7731 H   0  0  0  0  0  0  0  0  0  0  0  0
  136.4874   79.1597  224.2584 H   0  0  0  0  0  0  0  0  0  0  0  0
  135.9057   80.6884  223.5110 H   0  0  0  0  0  0  0  0  0  0  0  0
  140.6593   77.3036  222.9540 H   0  0  0  0  0  0  0  0  0  0  0  0
  142.9837   77.8987  223.6150 H   0  0  0  0  0  0  0  0  0  0  0  0
  143.5532   80.2958  223.9033 H   0  0  0  0  0  0  0  0  0  0  0  0
  141.8827   82.0645  223.5567 H   0  0  0  0  0  0  0  0  0  0  0  0
  139.5203   81.4734  222.8897 H   0  0  0  0  0  0  0  0  0  0  0  0
  139.5743   77.2163  222.1428 H   0  0  0  0  0  0  0  0  0  0  0  0
  137.0299   77.6649  220.4905 H   0  0  0  0  0  0  0  0  0  0  0  0
  138.6171   78.3416  220.0016 H   0  0  0  0  0  0  0  0  0  0  0  0
  137.8377   75.9961  219.1486 H   0  0  0  0  0  0  0  0  0  0  0  0
  139.5510   76.2862  219.6697 H   0  0  0  0  0  0  0  0  0  0  0  0
  138.0071   72.6148  221.9261 H   0  0  0  0  0  0  0  0  0  0  0  0
  137.4310   71.0570  220.5180 H   0  0  0  0  0  0  0  0  0  0  0  0
  138.3070   71.7510  219.2710 H   0  0  0  0  0  0  0  0  0  0  0  0
  141.5874   70.8041  221.3539 H   0  0  0  0  0  0  0  0  0  0  0  0
  140.2629   70.8853  220.1432 H   0  0  0  0  0  0  0  0  0  0  0  0
  141.5573   72.1307  220.1432 H   0  0  0  0  0  0  0  0  0  0  0  0
  140.9760   73.8082  223.0099 H   0  0  0  0  0  0  0  0  0  0  0  0
  141.8626   73.5486  221.4694 H   0  0  0  0  0  0  0  0  0  0  0  0
  140.3043   74.4422  221.4694 H   0  0  0  0  0  0  0  0  0  0  0  0
  138.4163   70.3339  222.1810 H   0  0  0  0  0  0  0  0  0  0  0  0
  137.9990   69.1061  224.2645 H   0  0  0  0  0  0  0  0  0  0  0  0
  138.5229   68.7394  226.6615 H   0  0  0  0  0  0  0  0  0  0  0  0
  139.8312   69.3500  228.6700 H   0  0  0  0  0  0  0  0  0  0  0  0
  141.5418   71.1756  228.5704 H   0  0  0  0  0  0  0  0  0  0  0  0
  141.8660   72.3402  226.4015 H   0  0  0  0  0  0  0  0  0  0  0  0
  141.3838   72.6943  224.1509 H   0  0  0  0  0  0  0  0  0  0  0  0
  137.1283   74.6218  222.4854 H   0  0  0  0  0  0  0  0  0  0  0  0
  138.8896   74.9293  222.9202 H   0  0  0  0  0  0  0  0  0  0  0  0
  136.6183   76.8821  222.6440 H   0  0  0  0  0  0  0  0  0  0  0  0
  137.8615   76.7670  223.9008 H   0  0  0  0  0  0  0  0  0  0  0  0
  1  2  1  0
  2  3  1  0
  3  4  2  0
  3  5  1  0
  5  6  1  0
  6  7  2  0
  7  8  1  0
  8  9  2  0
  9 10  1  0
 10 11  2  0
  5 12  1  0
 12 13  1  0
 13 14  1  0
 14 15  1  0
 15 16  1  0
 16 17  2  0
 16 18  1  0
 18 19  1  0
 18 20  1  0
 20 21  1  0
 20 22  1  0
 20 23  1  0
 23 24  2  0
 24 25  1  0
 25 26  2  0
 26 27  1  0
 27 28  2  0
 28 29  1  0
 29 30  2  0
 30 31  1  0
 31 32  2  0
 15 33  1  0
 33 34  1  0
 11  6  1  0
 34 12  1  0
 32 23  1  0
 31 26  1  0
  1 35  1  0
  1 36  1  0
  1 37  1  0
  2 38  1  0
  2 39  1  0
  7 40  1  0
  8 41  1  0
  9 42  1  0
 10 43  1  0
 11 44  1  0
 12 45  1  0
 13 46  1  0
 13 47  1  0
 14 48  1  0
 14 49  1  0
 18 50  1  1
 19 51  1  0
 19 52  1  0
 21 53  1  0
 21 54  1  0
 21 55  1  0
 22 56  1  0
 22 57  1  0
 22 58  1  0
 24 59  1  0
 25 60  1  0
 27 61  1  0
 28 62  1  0
 29 63  1  0
 30 64  1  0
 32 65  1  0
 33 66  1  0
 33 67  1  0
 34 68  1  0
 34 69  1  0
M  END
>  <smiles>  (41) 
CCC(=O)N(c1ccccc1)C1CCN(C(=O)[C@@H](N)C(C)(C)c2ccc3ccccc3c2)CC1

>  <score_type>  (41) 
oracle

>  <origin>  (41) 
autodockgpu

>  <m_score__min__energy>  (41) 
-9.1699999999999999

>  <m_primary>  (41) 
energy

>  <rmsd>  (41) 
2.6122385134570987

>  <m_score__min__rmsd>  (41) 
2.6122385134570987

>  <meeko>  (41) 
{"free_energy": -7.64, "intermolecular_energy": -10.03, "internal_energy": -2.69, "cluster_size": 1, "cluster_id": 5, "rank_in_cluster": 1}

>  <energy>  (41) 
-8.47

>  <cluster_rmsd>  (41) 
0.0

>  <cluster>  (41) 
3

$$$$

     RDKit          3D

 69 72  0  0  0  0  0  0  0  0999 V2000
  142.2390   78.6410  217.0430 C   0  0  0  0  0  0  0  0  0  0  0  0
  142.5780   78.0310  218.4190 C   0  0  0  0  0  0  0  0  0  0  0  0
  142.0250   78.8650  219.4770 C   0  0  0  0  0  0  0  0  0  0  0  0
  142.1650   80.1370  219.3260 O   0  0  0  0  0  0  0  0  0  0  0  0
  141.3540   78.4730  220.6460 N   0  0  0  0  0  0  0  0  0  0  0  0
  141.4950   79.3900  221.7710 C   0  0  0  0  0  0  0  0  0  0  0  0
  140.5090   80.3520  221.9200 C   0  0  0  0  0  0  0  0  0  0  0  0
  140.5670   81.2540  222.9520 C   0  0  0  0  0  0  0  0  0  0  0  0
  141.6340   81.1620  223.8230 C   0  0  0  0  0  0  0  0  0  0  0  0
  142.6200   80.2050  223.6800 C   0  0  0  0  0  0  0  0  0  0  0  0
  142.5700   79.2810  222.6300 C   0  0  0  0  0  0  0  0  0  0  0  0
  140.5590   77.3150  220.8800 C   0  0  0  0  0  0  0  0  0  0  0  0
  139.3940   77.2030  219.9010 C   0  0  0  0  0  0  0  0  0  0  0  0
  138.9350   75.7970  219.8560 C   0  0  0  0  0  0  0  0  0  0  0  0
  139.0590   75.1480  221.1480 N   0  0  0  0  0  0  0  0  0  0  0  0
  138.5920   73.7880  221.1420 C   0  0  0  0  0  0  0  0  0  0  0  0
  138.1550   73.4020  220.0070 O   0  0  0  0  0  0  0  0  0  0  0  0
  138.5550   72.8290  222.2300 C   0  0  1  0  0  0  0  0  0  0  0  0
  137.3760   72.0470  222.2370 N   0  0  0  0  0  0  0  0  0  0  0  0
  139.8240   71.9740  222.2130 C   0  0  0  0  0  0  0  0  0  0  0  0
  139.7210   70.9550  221.1070 C   0  0  0  0  0  0  0  0  0  0  0  0
  141.0380   72.8220  221.9410 C   0  0  0  0  0  0  0  0  0  0  0  0
  139.9400   71.2990  223.5130 C   0  0  0  0  0  0  0  0  0  0  0  0
  139.5250   69.9730  223.6320 C   0  0  0  0  0  0  0  0  0  0  0  0
  139.5920   69.2840  224.8260 C   0  0  0  0  0  0  0  0  0  0  0  0
  140.0810   69.8900  225.9650 C   0  0  0  0  0  0  0  0  0  0  0  0
  140.1750   69.2580  227.1840 C   0  0  0  0  0  0  0  0  0  0  0  0
  140.6760   69.9220  228.3000 C   0  0  0  0  0  0  0  0  0  0  0  0
  141.0980   71.2380  228.2200 C   0  0  0  0  0  0  0  0  0  0  0  0
  140.9930   71.8460  226.9860 C   0  0  0  0  0  0  0  0  0  0  0  0
  140.4960   71.1990  225.8680 C   0  0  0  0  0  0  0  0  0  0  0  0
  140.4240   71.8830  224.6630 C   0  0  0  0  0  0  0  0  0  0  0  0
  139.5670   75.6830  222.3560 C   0  0  0  0  0  0  0  0  0  0  0  0
  140.0470   77.1270  222.2740 C   0  0  0  0  0  0  0  0  0  0  0  0
  141.7091   79.5944  217.1851 H   0  0  0  0  0  0  0  0  0  0  0  0
  143.1681   78.8180  216.4814 H   0  0  0  0  0  0  0  0  0  0  0  0
  141.5980   77.9454  216.4814 H   0  0  0  0  0  0  0  0  0  0  0  0
  142.1473   77.0211  218.4871 H   0  0  0  0  0  0  0  0  0  0  0  0
  143.6707   77.9759  218.5331 H   0  0  0  0  0  0  0  0  0  0  0  0
  139.6736   80.3928  221.2056 H   0  0  0  0  0  0  0  0  0  0  0  0
  139.7911   82.0230  223.0808 H   0  0  0  0  0  0  0  0  0  0  0  0
  141.7014   81.8743  224.6586 H   0  0  0  0  0  0  0  0  0  0  0  0
  143.4523   80.1689  224.3982 H   0  0  0  0  0  0  0  0  0  0  0  0
  143.3441   78.5109  222.4967 H   0  0  0  0  0  0  0  0  0  0  0  0
  141.2824   76.5031  220.7144 H   0  0  0  0  0  0  0  0  0  0  0  0
  138.5689   77.8497  220.2343 H   0  0  0  0  0  0  0  0  0  0  0  0
  139.7192   77.5197  218.8990 H   0  0  0  0  0  0  0  0  0  0  0  0
  137.8794   75.7768  219.5472 H   0  0  0  0  0  0  0  0  0  0  0  0
  139.5673   75.2537  219.1384 H   0  0  0  0  0  0  0  0  0  0  0  0
  138.5282   73.3918  223.1747 H   0  0  0  0  0  0  0  0  0  0  0  0
  136.7150   72.1980  223.0150 H   0  0  0  0  0  0  0  0  0  0  0  0
  136.8500   72.0630  221.3510 H   0  0  0  0  0  0  0  0  0  0  0  0
  139.6194   69.9501  221.5426 H   0  0  0  0  0  0  0  0  0  0  0  0
  138.8406   71.1760  220.4856 H   0  0  0  0  0  0  0  0  0  0  0  0
  140.6278   70.9953  220.4856 H   0  0  0  0  0  0  0  0  0  0  0  0
  141.4872   73.1358  222.8948 H   0  0  0  0  0  0  0  0  0  0  0  0
  141.7712   72.2386  221.3647 H   0  0  0  0  0  0  0  0  0  0  0  0
  140.7425   73.7112  221.3647 H   0  0  0  0  0  0  0  0  0  0  0  0
  139.1306   69.4583  222.7434 H   0  0  0  0  0  0  0  0  0  0  0  0
  139.2514   68.2390  224.8701 H   0  0  0  0  0  0  0  0  0  0  0  0
  139.8491   68.2116  227.2778 H   0  0  0  0  0  0  0  0  0  0  0  0
  140.7376   69.3920  229.2619 H   0  0  0  0  0  0  0  0  0  0  0  0
  141.4966   71.7716  229.0954 H   0  0  0  0  0  0  0  0  0  0  0  0
  141.3189   72.8919  226.8862 H   0  0  0  0  0  0  0  0  0  0  0  0
  140.7653   72.9280  224.6246 H   0  0  0  0  0  0  0  0  0  0  0  0
  138.7703   75.6315  223.1127 H   0  0  0  0  0  0  0  0  0  0  0  0
  140.4521   75.0806  222.6087 H   0  0  0  0  0  0  0  0  0  0  0  0
  139.2142   77.8180  222.4714 H   0  0  0  0  0  0  0  0  0  0  0  0
  140.8278   77.3342  223.0206 H   0  0  0  0  0  0  0  0  0  0  0  0
  1  2  1  0
  2  3  1  0
  3  4  2  0
  3  5  1  0
  5  6  1  0
  6  7  2  0
  7  8  1  0
  8  9  2  0
  9 10  1  0
 10 11  2  0
  5 12  1  0
 12 13  1  0
 13 14  1  0
 14 15  1  0
 15 16  1  0
 16 17  2  0
 16 18  1  0
 18 19  1  0
 18 20  1  0
 20 21  1  0
 20 22  1  0
 20 23  1  0
 23 24  2  0
 24 25  1  0
 25 26  2  0
 26 27  1  0
 27 28  2  0
 28 29  1  0
 29 30  2  0
 30 31  1  0
 31 32  2  0
 15 33  1  0
 33 34  1  0
 11  6  1  0
 34 12  1  0
 32 23  1  0
 31 26  1  0
  1 35  1  0
  1 36  1  0
  1 37  1  0
  2 38  1  0
  2 39  1  0
  7 40  1  0
  8 41  1  0
  9 42  1  0
 10 43  1  0
 11 44  1  0
 12 45  1  0
 13 46  1  0
 13 47  1  0
 14 48  1  0
 14 49  1  0
 18 50  1  1
 19 51  1  0
 19 52  1  0
 21 53  1  0
 21 54  1  0
 21 55  1  0
 22 56  1  0
 22 57  1  0
 22 58  1  0
 24 59  1  0
 25 60  1  0
 27 61  1  0
 28 62  1  0
 29 63  1  0
 30 64  1  0
 32 65  1  0
 33 66  1  0
 33 67  1  0
 34 68  1  0
 34 69  1  0
M  END
>  <smiles>  (42) 
CCC(=O)N(c1ccccc1)C1CCN(C(=O)[C@@H](N)C(C)(C)c2ccc3ccccc3c2)CC1

>  <score_type>  (42) 
oracle

>  <origin>  (42) 
autodockgpu

>  <m_score__min__energy>  (42) 
-9.1699999999999999

>  <m_primary>  (42) 
energy

>  <rmsd>  (42) 
2.2748835952044395

>  <m_score__min__rmsd>  (42) 
2.2748835952044395

>  <meeko>  (42) 
{"free_energy": -8.52, "intermolecular_energy": -10.9, "internal_energy": -2.54, "cluster_size": 32, "cluster_id": 1, "rank_in_cluster": 15}

>  <energy>  (42) 
-7.04

>  <cluster_rmsd>  (42) 
1.59

>  <cluster>  (42) 
3

$$$$

     RDKit          3D

 69 72  0  0  0  0  0  0  0  0999 V2000
  143.3010   76.4770  219.2750 C   0  0  0  0  0  0  0  0  0  0  0  0
  142.7180   77.6770  218.4990 C   0  0  0  0  0  0  0  0  0  0  0  0
  141.9800   78.5420  219.4100 C   0  0  0  0  0  0  0  0  0  0  0  0
  141.9700   79.7960  219.1150 O   0  0  0  0  0  0  0  0  0  0  0  0
  141.2730   78.1960  220.5710 N   0  0  0  0  0  0  0  0  0  0  0  0
  141.3450   79.1750  221.6490 C   0  0  0  0  0  0  0  0  0  0  0  0
  142.4980   79.1750  222.4160 C   0  0  0  0  0  0  0  0  0  0  0  0
  142.6460   80.0640  223.4510 C   0  0  0  0  0  0  0  0  0  0  0  0
  141.6110   80.9460  223.6880 C   0  0  0  0  0  0  0  0  0  0  0  0
  140.4590   80.9510  222.9270 C   0  0  0  0  0  0  0  0  0  0  0  0
  140.2990   80.0480  221.8700 C   0  0  0  0  0  0  0  0  0  0  0  0
  140.4960   77.0310  220.8360 C   0  0  0  0  0  0  0  0  0  0  0  0
  139.3140   76.8910  219.8820 C   0  0  0  0  0  0  0  0  0  0  0  0
  138.8730   75.4790  219.8660 C   0  0  0  0  0  0  0  0  0  0  0  0
  139.0300   74.8490  221.1640 N   0  0  0  0  0  0  0  0  0  0  0  0
  138.5800   73.4850  221.1850 C   0  0  0  0  0  0  0  0  0  0  0  0
  138.1270   73.0770  220.0650 O   0  0  0  0  0  0  0  0  0  0  0  0
  138.5770   72.5400  222.2870 C   0  0  1  0  0  0  0  0  0  0  0  0
  137.4240   71.7210  222.3090 N   0  0  0  0  0  0  0  0  0  0  0  0
  139.8720   71.7260  222.2790 C   0  0  0  0  0  0  0  0  0  0  0  0
  139.7650   70.6340  221.2450 C   0  0  0  0  0  0  0  0  0  0  0  0
  141.0470   72.5920  221.9090 C   0  0  0  0  0  0  0  0  0  0  0  0
  140.0550   71.1410  223.6140 C   0  0  0  0  0  0  0  0  0  0  0  0
  140.6880   71.8900  224.6050 C   0  0  0  0  0  0  0  0  0  0  0  0
  140.9060   71.3970  225.8760 C   0  0  0  0  0  0  0  0  0  0  0  0
  140.4980   70.1240  226.2200 C   0  0  0  0  0  0  0  0  0  0  0  0
  140.6830   69.5750  227.4680 C   0  0  0  0  0  0  0  0  0  0  0  0
  140.2510   68.2840  227.7560 C   0  0  0  0  0  0  0  0  0  0  0  0
  139.6180   67.5100  226.7970 C   0  0  0  0  0  0  0  0  0  0  0  0
  139.4450   68.0870  225.5560 C   0  0  0  0  0  0  0  0  0  0  0  0
  139.8700   69.3690  225.2550 C   0  0  0  0  0  0  0  0  0  0  0  0
  139.6570   69.8730  223.9800 C   0  0  0  0  0  0  0  0  0  0  0  0
  139.5540   75.4080  222.3540 C   0  0  0  0  0  0  0  0  0  0  0  0
  140.0140   76.8570  222.2420 C   0  0  0  0  0  0  0  0  0  0  0  0
  143.2116   76.6609  220.3558 H   0  0  0  0  0  0  0  0  0  0  0  0
  142.7456   75.5649  219.0111 H   0  0  0  0  0  0  0  0  0  0  0  0
  144.3613   76.3499  219.0111 H   0  0  0  0  0  0  0  0  0  0  0  0
  143.5381   78.2470  218.0380 H   0  0  0  0  0  0  0  0  0  0  0  0
  142.0378   77.3082  217.7171 H   0  0  0  0  0  0  0  0  0  0  0  0
  143.3013   78.4571  222.1940 H   0  0  0  0  0  0  0  0  0  0  0  0
  143.5559   80.0733  224.0690 H   0  0  0  0  0  0  0  0  0  0  0  0
  141.7073   81.6694  224.5111 H   0  0  0  0  0  0  0  0  0  0  0  0
  139.6594   81.6716  223.1537 H   0  0  0  0  0  0  0  0  0  0  0  0
  139.3905   80.0347  221.2500 H   0  0  0  0  0  0  0  0  0  0  0  0
  141.2255   76.2253  220.6665 H   0  0  0  0  0  0  0  0  0  0  0  0
  138.4873   77.5318  220.2225 H   0  0  0  0  0  0  0  0  0  0  0  0
  139.6150   77.1980  218.8695 H   0  0  0  0  0  0  0  0  0  0  0  0
  137.8120   75.4409  219.5780 H   0  0  0  0  0  0  0  0  0  0  0  0
  139.4992   74.9341  219.1442 H   0  0  0  0  0  0  0  0  0  0  0  0
  138.5351   73.1156  223.2235 H   0  0  0  0  0  0  0  0  0  0  0  0
  136.8590   71.6780  221.4450 H   0  0  0  0  0  0  0  0  0  0  0  0
  137.5910   70.7590  222.6400 H   0  0  0  0  0  0  0  0  0  0  0  0
  139.6696   69.6606  221.7483 H   0  0  0  0  0  0  0  0  0  0  0  0
  138.8798   70.8099  220.6161 H   0  0  0  0  0  0  0  0  0  0  0  0
  140.6675   70.6348  220.6161 H   0  0  0  0  0  0  0  0  0  0  0  0
  141.5382   72.9541  222.8242 H   0  0  0  0  0  0  0  0  0  0  0  0
  141.7634   72.0043  221.3163 H   0  0  0  0  0  0  0  0  0  0  0  0
  140.6977   73.4503  221.3163 H   0  0  0  0  0  0  0  0  0  0  0  0
  141.0255   72.9093  224.3659 H   0  0  0  0  0  0  0  0  0  0  0  0
  141.4110   72.0263  226.6237 H   0  0  0  0  0  0  0  0  0  0  0  0
  141.1805   70.1663  228.2508 H   0  0  0  0  0  0  0  0  0  0  0  0
  140.4149   67.8709  228.7622 H   0  0  0  0  0  0  0  0  0  0  0  0
  139.2715   66.4888  227.0138 H   0  0  0  0  0  0  0  0  0  0  0  0
  138.9464   67.5012  224.7697 H   0  0  0  0  0  0  0  0  0  0  0  0
  139.1532   69.2389  223.2356 H   0  0  0  0  0  0  0  0  0  0  0  0
  138.7726   75.3576  223.1266 H   0  0  0  0  0  0  0  0  0  0  0  0
  140.4514   74.8206  222.5982 H   0  0  0  0  0  0  0  0  0  0  0  0
  139.1765   77.5404  222.4460 H   0  0  0  0  0  0  0  0  0  0  0  0
  140.8066   77.0848  222.9700 H   0  0  0  0  0  0  0  0  0  0  0  0
  1  2  1  0
  2  3  1  0
  3  4  2  0
  3  5  1  0
  5  6  1  0
  6  7  2  0
  7  8  1  0
  8  9  2  0
  9 10  1  0
 10 11  2  0
  5 12  1  0
 12 13  1  0
 13 14  1  0
 14 15  1  0
 15 16  1  0
 16 17  2  0
 16 18  1  0
 18 19  1  0
 18 20  1  0
 20 21  1  0
 20 22  1  0
 20 23  1  0
 23 24  2  0
 24 25  1  0
 25 26  2  0
 26 27  1  0
 27 28  2  0
 28 29  1  0
 29 30  2  0
 30 31  1  0
 31 32  2  0
 15 33  1  0
 33 34  1  0
 11  6  1  0
 34 12  1  0
 32 23  1  0
 31 26  1  0
  1 35  1  0
  1 36  1  0
  1 37  1  0
  2 38  1  0
  2 39  1  0
  7 40  1  0
  8 41  1  0
  9 42  1  0
 10 43  1  0
 11 44  1  0
 12 45  1  0
 13 46  1  0
 13 47  1  0
 14 48  1  0
 14 49  1  0
 18 50  1  1
 19 51  1  0
 19 52  1  0
 21 53  1  0
 21 54  1  0
 21 55  1  0
 22 56  1  0
 22 57  1  0
 22 58  1  0
 24 59  1  0
 25 60  1  0
 27 61  1  0
 28 62  1  0
 29 63  1  0
 30 64  1  0
 32 65  1  0
 33 66  1  0
 33 67  1  0
 34 68  1  0
 34 69  1  0
M  END
>  <smiles>  (43) 
CCC(=O)N(c1ccccc1)C1CCN(C(=O)[C@@H](N)C(C)(C)c2ccc3ccccc3c2)CC1

>  <score_type>  (43) 
oracle

>  <origin>  (43) 
autodockgpu

>  <m_score__min__energy>  (43) 
-9.1699999999999999

>  <m_primary>  (43) 
energy

>  <rmsd>  (43) 
2.934311072364417

>  <m_score__min__rmsd>  (43) 
2.934311072364417

>  <meeko>  (43) 
{"free_energy": -8.32, "intermolecular_energy": -10.7, "internal_energy": -2.59, "cluster_size": 32, "cluster_id": 1, "rank_in_cluster": 27}

>  <energy>  (43) 
-7.71

>  <cluster_rmsd>  (43) 
0.0

>  <cluster>  (43) 
4

$$$$

     RDKit          3D

 69 72  0  0  0  0  0  0  0  0999 V2000
  145.9340   73.0260  221.4260 C   0  0  0  0  0  0  0  0  0  0  0  0
  146.3050   73.2840  219.9500 C   0  0  0  0  0  0  0  0  0  0  0  0
  145.4270   72.5140  219.0800 C   0  0  0  0  0  0  0  0  0  0  0  0
  145.5810   72.7000  217.8140 O   0  0  0  0  0  0  0  0  0  0  0  0
  144.4320   71.5890  219.4300 N   0  0  0  0  0  0  0  0  0  0  0  0
  144.8140   70.1900  219.2820 C   0  0  0  0  0  0  0  0  0  0  0  0
  145.9010   69.9220  218.4660 C   0  0  0  0  0  0  0  0  0  0  0  0
  146.3240   68.6310  218.2720 C   0  0  0  0  0  0  0  0  0  0  0  0
  145.6310   67.6270  218.9170 C   0  0  0  0  0  0  0  0  0  0  0  0
  144.5460   67.8880  219.7310 C   0  0  0  0  0  0  0  0  0  0  0  0
  144.1060   69.2000  219.9340 C   0  0  0  0  0  0  0  0  0  0  0  0
  143.1130   71.8290  219.9120 C   0  0  0  0  0  0  0  0  0  0  0  0
  142.2300   72.5130  218.8720 C   0  0  0  0  0  0  0  0  0  0  0  0
  140.8110   72.2800  219.2160 C   0  0  0  0  0  0  0  0  0  0  0  0
  140.6030   72.2420  220.6520 N   0  0  0  0  0  0  0  0  0  0  0  0
  139.2260   72.0470  221.0160 C   0  0  0  0  0  0  0  0  0  0  0  0
  138.4410   71.9430  220.0160 O   0  0  0  0  0  0  0  0  0  0  0  0
  138.6340   71.9550  222.3380 C   0  0  1  0  0  0  0  0  0  0  0  0
  137.3540   72.5530  222.4120 N   0  0  0  0  0  0  0  0  0  0  0  0
  138.6270   70.4980  222.8050 C   0  0  0  0  0  0  0  0  0  0  0  0
  137.2030   70.0140  222.8990 C   0  0  0  0  0  0  0  0  0  0  0  0
  139.3460   69.6160  221.8190 C   0  0  0  0  0  0  0  0  0  0  0  0
  139.2690   70.4370  224.1250 C   0  0  0  0  0  0  0  0  0  0  0  0
  140.0290   71.5200  224.5650 C   0  0  0  0  0  0  0  0  0  0  0  0
  140.6720   71.5230  225.7860 C   0  0  0  0  0  0  0  0  0  0  0  0
  140.5840   70.4370  226.6330 C   0  0  0  0  0  0  0  0  0  0  0  0
  141.1990   70.3780  227.8630 C   0  0  0  0  0  0  0  0  0  0  0  0
  141.0750   69.2540  228.6740 C   0  0  0  0  0  0  0  0  0  0  0  0
  140.3280   68.1600  228.2720 C   0  0  0  0  0  0  0  0  0  0  0  0
  139.7230   68.2470  227.0360 C   0  0  0  0  0  0  0  0  0  0  0  0
  139.8370   69.3580  226.2180 C   0  0  0  0  0  0  0  0  0  0  0  0
  139.1960   69.3640  224.9870 C   0  0  0  0  0  0  0  0  0  0  0  0
  141.5640   72.3690  221.6830 C   0  0  0  0  0  0  0  0  0  0  0  0
  142.9990   72.5660  221.2100 C   0  0  0  0  0  0  0  0  0  0  0  0
  146.6600   73.5309  222.0802 H   0  0  0  0  0  0  0  0  0  0  0  0
  144.9260   73.4190  221.6248 H   0  0  0  0  0  0  0  0  0  0  0  0
  145.9516   71.9443  221.6248 H   0  0  0  0  0  0  0  0  0  0  0  0
  146.1926   74.3553  219.7269 H   0  0  0  0  0  0  0  0  0  0  0  0
  147.3473   72.9775  219.7781 H   0  0  0  0  0  0  0  0  0  0  0  0
  146.4288   70.7499  217.9701 H   0  0  0  0  0  0  0  0  0  0  0  0
  147.1847   68.4046  217.6255 H   0  0  0  0  0  0  0  0  0  0  0  0
  145.9533   66.5844  218.7783 H   0  0  0  0  0  0  0  0  0  0  0  0
  144.0228   67.0557  220.2245 H   0  0  0  0  0  0  0  0  0  0  0  0
  143.2439   69.4303  220.5773 H   0  0  0  0  0  0  0  0  0  0  0  0
  142.7548   70.8087  220.1138 H   0  0  0  0  0  0  0  0  0  0  0  0
  142.4355   73.5936  218.8672 H   0  0  0  0  0  0  0  0  0  0  0  0
  142.4429   72.1002  217.8749 H   0  0  0  0  0  0  0  0  0  0  0  0
  140.2035   73.0919  218.7897 H   0  0  0  0  0  0  0  0  0  0  0  0
  140.5148   71.3049  218.8020 H   0  0  0  0  0  0  0  0  0  0  0  0
  139.2606   72.5375  223.0294 H   0  0  0  0  0  0  0  0  0  0  0  0
  137.2320   73.3230  223.0890 H   0  0  0  0  0  0  0  0  0  0  0  0
  136.9700   72.8510  221.5030 H   0  0  0  0  0  0  0  0  0  0  0  0
  136.9178   69.9171  223.9569 H   0  0  0  0  0  0  0  0  0  0  0  0
  136.5369   70.7362  222.4043 H   0  0  0  0  0  0  0  0  0  0  0  0
  137.1149   69.0355  222.4043 H   0  0  0  0  0  0  0  0  0  0  0  0
  139.9502   68.8748  222.3627 H   0  0  0  0  0  0  0  0  0  0  0  0
  138.6104   69.0969  221.1870 H   0  0  0  0  0  0  0  0  0  0  0  0
  140.0027   70.2319  221.1870 H   0  0  0  0  0  0  0  0  0  0  0  0
  140.1193   72.4034  223.9158 H   0  0  0  0  0  0  0  0  0  0  0  0
  141.2616   72.4013  226.0877 H   0  0  0  0  0  0  0  0  0  0  0  0
  141.7979   71.2328  228.2104 H   0  0  0  0  0  0  0  0  0  0  0  0
  141.5793   69.2344  229.6514 H   0  0  0  0  0  0  0  0  0  0  0  0
  140.2225   67.2673  228.9060 H   0  0  0  0  0  0  0  0  0  0  0  0
  139.1227   67.3951  226.6840 H   0  0  0  0  0  0  0  0  0  0  0  0
  138.6097   68.4823  224.6891 H   0  0  0  0  0  0  0  0  0  0  0  0
  141.2873   73.2355  222.3015 H   0  0  0  0  0  0  0  0  0  0  0  0
  141.5511   71.4160  222.2321 H   0  0  0  0  0  0  0  0  0  0  0  0
  143.2086   73.6356  221.0614 H   0  0  0  0  0  0  0  0  0  0  0  0
  143.7212   72.1908  221.9500 H   0  0  0  0  0  0  0  0  0  0  0  0
  1  2  1  0
  2  3  1  0
  3  4  2  0
  3  5  1  0
  5  6  1  0
  6  7  2  0
  7  8  1  0
  8  9  2  0
  9 10  1  0
 10 11  2  0
  5 12  1  0
 12 13  1  0
 13 14  1  0
 14 15  1  0
 15 16  1  0
 16 17  2  0
 16 18  1  0
 18 19  1  0
 18 20  1  0
 20 21  1  0
 20 22  1  0
 20 23  1  0
 23 24  2  0
 24 25  1  0
 25 26  2  0
 26 27  1  0
 27 28  2  0
 28 29  1  0
 29 30  2  0
 30 31  1  0
 31 32  2  0
 15 33  1  0
 33 34  1  0
 11  6  1  0
 34 12  1  0
 32 23  1  0
 31 26  1  0
  1 35  1  0
  1 36  1  0
  1 37  1  0
  2 38  1  0
  2 39  1  0
  7 40  1  0
  8 41  1  0
  9 42  1  0
 10 43  1  0
 11 44  1  0
 12 45  1  0
 13 46  1  0
 13 47  1  0
 14 48  1  0
 14 49  1  0
 18 50  1  1
 19 51  1  0
 19 52  1  0
 21 53  1  0
 21 54  1  0
 21 55  1  0
 22 56  1  0
 22 57  1  0
 22 58  1  0
 24 59  1  0
 25 60  1  0
 27 61  1  0
 28 62  1  0
 29 63  1  0
 30 64  1  0
 32 65  1  0
 33 66  1  0
 33 67  1  0
 34 68  1  0
 34 69  1  0
M  END
>  <smiles>  (44) 
CCC(=O)N(c1ccccc1)C1CCN(C(=O)[C@@H](N)C(C)(C)c2ccc3ccccc3c2)CC1

>  <score_type>  (44) 
oracle

>  <origin>  (44) 
autodockgpu

>  <m_score__min__energy>  (44) 
-9.1699999999999999

>  <m_primary>  (44) 
energy

>  <rmsd>  (44) 
2.9435910771697515

>  <m_score__min__rmsd>  (44) 
2.9435910771697515

>  <meeko>  (44) 
{"free_energy": -8.36, "intermolecular_energy": -10.74, "internal_energy": -2.64, "cluster_size": 8, "cluster_id": 2, "rank_in_cluster": 3}

>  <energy>  (44) 
-7.64

>  <cluster_rmsd>  (44) 
0.0

>  <cluster>  (44) 
5

$$$$

     RDKit          3D

 69 72  0  0  0  0  0  0  0  0999 V2000
  145.9660   73.2270  221.0860 C   0  0  0  0  0  0  0  0  0  0  0  0
  145.2600   73.4250  219.7280 C   0  0  0  0  0  0  0  0  0  0  0  0
  145.0180   72.1300  219.1070 C   0  0  0  0  0  0  0  0  0  0  0  0
  145.9210   71.7200  218.2840 O   0  0  0  0  0  0  0  0  0  0  0  0
  143.9300   71.2610  219.2810 N   0  0  0  0  0  0  0  0  0  0  0  0
  144.1510   69.8990  218.8090 C   0  0  0  0  0  0  0  0  0  0  0  0
  144.8140   69.0390  219.6710 C   0  0  0  0  0  0  0  0  0  0  0  0
  145.0620   67.7410  219.3030 C   0  0  0  0  0  0  0  0  0  0  0  0
  144.6290   67.3350  218.0570 C   0  0  0  0  0  0  0  0  0  0  0  0
  143.9690   68.1870  217.1940 C   0  0  0  0  0  0  0  0  0  0  0  0
  143.7110   69.5130  217.5590 C   0  0  0  0  0  0  0  0  0  0  0  0
  142.6530   71.5230  219.8550 C   0  0  0  0  0  0  0  0  0  0  0  0
  141.7700   72.3700  218.9440 C   0  0  0  0  0  0  0  0  0  0  0  0
  140.3560   72.1850  219.3360 C   0  0  0  0  0  0  0  0  0  0  0  0
  140.2120   71.9990  220.7680 N   0  0  0  0  0  0  0  0  0  0  0  0
  138.8440   71.8470  221.1820 C   0  0  0  0  0  0  0  0  0  0  0  0
  138.0090   71.9020  220.2200 O   0  0  0  0  0  0  0  0  0  0  0  0
  138.3090   71.6440  222.5150 C   0  0  1  0  0  0  0  0  0  0  0  0
  137.0670   72.2890  222.7160 N   0  0  0  0  0  0  0  0  0  0  0  0
  138.2490   70.1480  222.8300 C   0  0  0  0  0  0  0  0  0  0  0  0
  136.8080   69.7240  222.9530 C   0  0  0  0  0  0  0  0  0  0  0  0
  138.8700   69.3420  221.7200 C   0  0  0  0  0  0  0  0  0  0  0  0
  138.9540   69.9170  224.0990 C   0  0  0  0  0  0  0  0  0  0  0  0
  139.0700   68.6170  224.5880 C   0  0  0  0  0  0  0  0  0  0  0  0
  139.7050   68.3310  225.7790 C   0  0  0  0  0  0  0  0  0  0  0  0
  140.2600   69.3370  226.5440 C   0  0  0  0  0  0  0  0  0  0  0  0
  140.9070   69.1180  227.7380 C   0  0  0  0  0  0  0  0  0  0  0  0
  141.4460   70.1750  228.4660 C   0  0  0  0  0  0  0  0  0  0  0  0
  141.3510   71.4790  228.0130 C   0  0  0  0  0  0  0  0  0  0  0  0
  140.6990   71.6680  226.8120 C   0  0  0  0  0  0  0  0  0  0  0  0
  140.1570   70.6280  226.0780 C   0  0  0  0  0  0  0  0  0  0  0  0
  139.5150   70.9060  224.8780 C   0  0  0  0  0  0  0  0  0  0  0  0
  141.2260   71.9530  221.7540 C   0  0  0  0  0  0  0  0  0  0  0  0
  142.6480   72.1160  221.2300 C   0  0  0  0  0  0  0  0  0  0  0  0
  145.2551   73.4264  221.9014 H   0  0  0  0  0  0  0  0  0  0  0  0
  146.3305   72.1920  221.1623 H   0  0  0  0  0  0  0  0  0  0  0  0
  146.8156   73.9215  221.1623 H   0  0  0  0  0  0  0  0  0  0  0  0
  144.3007   73.9396  219.8862 H   0  0  0  0  0  0  0  0  0  0  0  0
  145.9000   74.0308  219.0696 H   0  0  0  0  0  0  0  0  0  0  0  0
  145.1433   69.3999  220.6565 H   0  0  0  0  0  0  0  0  0  0  0  0
  145.5873   67.0484  219.9770 H   0  0  0  0  0  0  0  0  0  0  0  0
  144.8159   66.2981  217.7410 H   0  0  0  0  0  0  0  0  0  0  0  0
  143.6427   67.8198  216.2098 H   0  0  0  0  0  0  0  0  0  0  0  0
  143.1869   70.2088  216.8873 H   0  0  0  0  0  0  0  0  0  0  0  0
  142.2380   70.5100  219.9632 H   0  0  0  0  0  0  0  0  0  0  0  0
  142.0451   73.4302  219.0455 H   0  0  0  0  0  0  0  0  0  0  0  0
  141.9093   72.0594  217.8980 H   0  0  0  0  0  0  0  0  0  0  0  0
  139.7837   73.0743  219.0334 H   0  0  0  0  0  0  0  0  0  0  0  0
  139.9784   71.2815  218.8349 H   0  0  0  0  0  0  0  0  0  0  0  0
  138.9958   72.1216  223.2293 H   0  0  0  0  0  0  0  0  0  0  0  0
  137.0300   73.0310  223.4330 H   0  0  0  0  0  0  0  0  0  0  0  0
  136.6280   72.6450  221.8540 H   0  0  0  0  0  0  0  0  0  0  0  0
  136.5386   69.6447  224.0166 H   0  0  0  0  0  0  0  0  0  0  0  0
  136.1633   70.4705  222.4661 H   0  0  0  0  0  0  0  0  0  0  0  0
  136.6703   68.7473  222.4661 H   0  0  0  0  0  0  0  0  0  0  0  0
  139.4878   68.5401  222.1505 H   0  0  0  0  0  0  0  0  0  0  0  0
  138.0765   68.9004  221.0993 H   0  0  0  0  0  0  0  0  0  0  0  0
  139.4994   69.9967  221.0993 H   0  0  0  0  0  0  0  0  0  0  0  0
  138.6402   67.7900  224.0038 H   0  0  0  0  0  0  0  0  0  0  0  0
  139.7698   67.2883  226.1232 H   0  0  0  0  0  0  0  0  0  0  0  0
  140.9999   68.0919  228.1234 H   0  0  0  0  0  0  0  0  0  0  0  0
  141.9566   69.9699  229.4185 H   0  0  0  0  0  0  0  0  0  0  0  0
  141.7733   72.3211  228.5809 H   0  0  0  0  0  0  0  0  0  0  0  0
  140.6059   72.6917  226.4203 H   0  0  0  0  0  0  0  0  0  0  0  0
  139.4522   71.9503  224.5381 H   0  0  0  0  0  0  0  0  0  0  0  0
  141.0349   72.7600  222.4766 H   0  0  0  0  0  0  0  0  0  0  0  0
  141.1768   70.9469  222.1960 H   0  0  0  0  0  0  0  0  0  0  0  0
  142.9198   73.1811  221.1877 H   0  0  0  0  0  0  0  0  0  0  0  0
  143.3779   71.6184  221.8855 H   0  0  0  0  0  0  0  0  0  0  0  0
  1  2  1  0
  2  3  1  0
  3  4  2  0
  3  5  1  0
  5  6  1  0
  6  7  2  0
  7  8  1  0
  8  9  2  0
  9 10  1  0
 10 11  2  0
  5 12  1  0
 12 13  1  0
 13 14  1  0
 14 15  1  0
 15 16  1  0
 16 17  2  0
 16 18  1  0
 18 19  1  0
 18 20  1  0
 20 21  1  0
 20 22  1  0
 20 23  1  0
 23 24  2  0
 24 25  1  0
 25 26  2  0
 26 27  1  0
 27 28  2  0
 28 29  1  0
 29 30  2  0
 30 31  1  0
 31 32  2  0
 15 33  1  0
 33 34  1  0
 11  6  1  0
 34 12  1  0
 32 23  1  0
 31 26  1  0
  1 35  1  0
  1 36  1  0
  1 37  1  0
  2 38  1  0
  2 39  1  0
  7 40  1  0
  8 41  1  0
  9 42  1  0
 10 43  1  0
 11 44  1  0
 12 45  1  0
 13 46  1  0
 13 47  1  0
 14 48  1  0
 14 49  1  0
 18 50  1  1
 19 51  1  0
 19 52  1  0
 21 53  1  0
 21 54  1  0
 21 55  1  0
 22 56  1  0
 22 57  1  0
 22 58  1  0
 24 59  1  0
 25 60  1  0
 27 61  1  0
 28 62  1  0
 29 63  1  0
 30 64  1  0
 32 65  1  0
 33 66  1  0
 33 67  1  0
 34 68  1  0
 34 69  1  0
M  END
>  <smiles>  (45) 
CCC(=O)N(c1ccccc1)C1CCN(C(=O)[C@@H](N)C(C)(C)c2ccc3ccccc3c2)CC1

>  <score_type>  (45) 
oracle

>  <origin>  (45) 
autodockgpu

>  <m_score__min__energy>  (45) 
-9.1699999999999999

>  <m_primary>  (45) 
energy

>  <rmsd>  (45) 
2.0907154315938543

>  <m_score__min__rmsd>  (45) 
2.0907154315938543

>  <meeko>  (45) 
{"free_energy": -8.09, "intermolecular_energy": -10.47, "internal_energy": -2.8, "cluster_size": 8, "cluster_id": 2, "rank_in_cluster": 7}

>  <energy>  (45) 
-7.51

>  <cluster_rmsd>  (45) 
0.0

>  <cluster>  (45) 
6

$$$$

     RDKit          3D

 69 72  0  0  0  0  0  0  0  0999 V2000
  140.2260   72.2360  222.6520 C   0  0  0  0  0  0  0  0  0  0  0  0
  140.9390   72.3710  221.2900 C   0  0  0  0  0  0  0  0  0  0  0  0
  141.4570   73.7240  221.1370 C   0  0  0  0  0  0  0  0  0  0  0  0
  140.9570   74.6130  221.9250 O   0  0  0  0  0  0  0  0  0  0  0  0
  142.4320   74.1970  220.2460 N   0  0  0  0  0  0  0  0  0  0  0  0
  143.6690   73.4250  220.2230 C   0  0  0  0  0  0  0  0  0  0  0  0
  143.6460   72.2280  219.5260 C   0  0  0  0  0  0  0  0  0  0  0  0
  144.7690   71.4420  219.4570 C   0  0  0  0  0  0  0  0  0  0  0  0
  145.9030   71.8890  220.1010 C   0  0  0  0  0  0  0  0  0  0  0  0
  145.9320   73.0810  220.7990 C   0  0  0  0  0  0  0  0  0  0  0  0
  144.7930   73.8900  220.8760 C   0  0  0  0  0  0  0  0  0  0  0  0
  142.3760   75.3140  219.3640 C   0  0  0  0  0  0  0  0  0  0  0  0
  142.3880   74.8980  217.8970 C   0  0  0  0  0  0  0  0  0  0  0  0
  141.8350   75.9990  217.0790 C   0  0  0  0  0  0  0  0  0  0  0  0
  142.1780   77.3010  217.6230 N   0  0  0  0  0  0  0  0  0  0  0  0
  141.6790   78.3910  216.8310 C   0  0  0  0  0  0  0  0  0  0  0  0
  141.0280   78.0190  215.7980 O   0  0  0  0  0  0  0  0  0  0  0  0
  141.8160   79.8190  217.0500 C   0  0  1  0  0  0  0  0  0  0  0  0
  142.0180   80.5450  215.8530 N   0  0  0  0  0  0  0  0  0  0  0  0
  140.6240   80.3390  217.8560 C   0  0  0  0  0  0  0  0  0  0  0  0
  140.6290   81.8460  217.8320 C   0  0  0  0  0  0  0  0  0  0  0  0
  139.3260   79.8770  217.2500 C   0  0  0  0  0  0  0  0  0  0  0  0
  140.7570   79.8550  219.2360 C   0  0  0  0  0  0  0  0  0  0  0  0
  140.0020   78.7590  219.6510 C   0  0  0  0  0  0  0  0  0  0  0  0
  140.0670   78.2630  220.9370 C   0  0  0  0  0  0  0  0  0  0  0  0
  140.8960   78.8390  221.8760 C   0  0  0  0  0  0  0  0  0  0  0  0
  141.0080   78.3920  223.1730 C   0  0  0  0  0  0  0  0  0  0  0  0
  141.8610   79.0160  224.0770 C   0  0  0  0  0  0  0  0  0  0  0  0
  142.6280   80.1070  223.7020 C   0  0  0  0  0  0  0  0  0  0  0  0
  142.4960   80.5330  222.3970 C   0  0  0  0  0  0  0  0  0  0  0  0
  141.6510   79.9230  221.4870 C   0  0  0  0  0  0  0  0  0  0  0  0
  141.5780   80.4160  220.1910 C   0  0  0  0  0  0  0  0  0  0  0  0
  142.9150   77.5970  218.7940 C   0  0  0  0  0  0  0  0  0  0  0  0
  143.4020   76.3840  219.5780 C   0  0  0  0  0  0  0  0  0  0  0  0
  140.9559   72.3742  223.4633 H   0  0  0  0  0  0  0  0  0  0  0  0
  139.4399   73.0013  222.7318 H   0  0  0  0  0  0  0  0  0  0  0  0
  139.7740   71.2363  222.7318 H   0  0  0  0  0  0  0  0  0  0  0  0
  141.7712   71.6534  221.2406 H   0  0  0  0  0  0  0  0  0  0  0  0
  140.2221   72.1627  220.4821 H   0  0  0  0  0  0  0  0  0  0  0  0
  142.7216   71.9054  219.0246 H   0  0  0  0  0  0  0  0  0  0  0  0
  144.7644   70.4892  218.9073 H   0  0  0  0  0  0  0  0  0  0  0  0
  146.8154   71.2761  220.0577 H   0  0  0  0  0  0  0  0  0  0  0  0
  146.8594   73.3970  221.2990 H   0  0  0  0  0  0  0  0  0  0  0  0
  144.7931   74.8427  221.4258 H   0  0  0  0  0  0  0  0  0  0  0  0
  141.4088   75.7666  219.6281 H   0  0  0  0  0  0  0  0  0  0  0  0
  143.4207   74.6874  217.5820 H   0  0  0  0  0  0  0  0  0  0  0  0
  141.7775   73.9929  217.7627 H   0  0  0  0  0  0  0  0  0  0  0  0
  142.2390   75.9219  216.0588 H   0  0  0  0  0  0  0  0  0  0  0  0
  140.7389   75.9070  217.0787 H   0  0  0  0  0  0  0  0  0  0  0  0
  142.7306   79.9828  217.6388 H   0  0  0  0  0  0  0  0  0  0  0  0
  142.9810   80.8500  215.6430 H   0  0  0  0  0  0  0  0  0  0  0  0
  141.6250   80.0960  215.0120 H   0  0  0  0  0  0  0  0  0  0  0  0
  140.6303   82.2291  218.8631 H   0  0  0  0  0  0  0  0  0  0  0  0
  141.5283   82.2014  217.3077 H   0  0  0  0  0  0  0  0  0  0  0  0
  139.7320   82.2073  217.3077 H   0  0  0  0  0  0  0  0  0  0  0  0
  138.6164   79.6244  218.0517 H   0  0  0  0  0  0  0  0  0  0  0  0
  138.9053   80.6806  216.6277 H   0  0  0  0  0  0  0  0  0  0  0  0
  139.5077   78.9883  216.6277 H   0  0  0  0  0  0  0  0  0  0  0  0
  139.3309   78.2725  218.9279 H   0  0  0  0  0  0  0  0  0  0  0  0
  139.4494   77.3968  221.2166 H   0  0  0  0  0  0  0  0  0  0  0  0
  140.4128   77.5267  223.5000 H   0  0  0  0  0  0  0  0  0  0  0  0
  141.9278   78.6368  225.1074 H   0  0  0  0  0  0  0  0  0  0  0  0
  143.3069   80.6074  224.4082 H   0  0  0  0  0  0  0  0  0  0  0  0
  143.0897   81.3973  222.0644 H   0  0  0  0  0  0  0  0  0  0  0  0
  142.1962   81.2836  219.9169 H   0  0  0  0  0  0  0  0  0  0  0  0
  143.7948   78.1891  218.5018 H   0  0  0  0  0  0  0  0  0  0  0  0
  142.2253   78.1349  219.4611 H   0  0  0  0  0  0  0  0  0  0  0  0
  144.3819   76.0544  219.2022 H   0  0  0  0  0  0  0  0  0  0  0  0
  143.5236   76.6173  220.6461 H   0  0  0  0  0  0  0  0  0  0  0  0
  1  2  1  0
  2  3  1  0
  3  4  2  0
  3  5  1  0
  5  6  1  0
  6  7  2  0
  7  8  1  0
  8  9  2  0
  9 10  1  0
 10 11  2  0
  5 12  1  0
 12 13  1  0
 13 14  1  0
 14 15  1  0
 15 16  1  0
 16 17  2  0
 16 18  1  0
 18 19  1  0
 18 20  1  0
 20 21  1  0
 20 22  1  0
 20 23  1  0
 23 24  2  0
 24 25  1  0
 25 26  2  0
 26 27  1  0
 27 28  2  0
 28 29  1  0
 29 30  2  0
 30 31  1  0
 31 32  2  0
 15 33  1  0
 33 34  1  0
 11  6  1  0
 34 12  1  0
 32 23  1  0
 31 26  1  0
  1 35  1  0
  1 36  1  0
  1 37  1  0
  2 38  1  0
  2 39  1  0
  7 40  1  0
  8 41  1  0
  9 42  1  0
 10 43  1  0
 11 44  1  0
 12 45  1  0
 13 46  1  0
 13 47  1  0
 14 48  1  0
 14 49  1  0
 18 50  1  1
 19 51  1  0
 19 52  1  0
 21 53  1  0
 21 54  1  0
 21 55  1  0
 22 56  1  0
 22 57  1  0
 22 58  1  0
 24 59  1  0
 25 60  1  0
 27 61  1  0
 28 62  1  0
 29 63  1  0
 30 64  1  0
 32 65  1  0
 33 66  1  0
 33 67  1  0
 34 68  1  0
 34 69  1  0
M  END
>  <smiles>  (46) 
CCC(=O)N(c1ccccc1)C1CCN(C(=O)[C@@H](N)C(C)(C)c2ccc3ccccc3c2)CC1

>  <score_type>  (46) 
oracle

>  <origin>  (46) 
autodockgpu

>  <m_score__min__energy>  (46) 
-9.1699999999999999

>  <m_primary>  (46) 
energy

>  <rmsd>  (46) 
9.954546688407104

>  <m_score__min__rmsd>  (46) 
9.954546688407104

>  <meeko>  (46) 
{"free_energy": -7.41, "intermolecular_energy": -9.8, "internal_energy": -3.33, "cluster_size": 5, "cluster_id": 6, "rank_in_cluster": 3}

>  <energy>  (46) 
-7.42

>  <cluster_rmsd>  (46) 
0.28

>  <cluster>  (46) 
6

$$$$

     RDKit          3D

 69 72  0  0  0  0  0  0  0  0999 V2000
  146.7000   70.0060  216.3010 C   0  0  0  0  0  0  0  0  0  0  0  0
  145.6070   71.0920  216.3920 C   0  0  0  0  0  0  0  0  0  0  0  0
  145.2880   71.3550  217.7890 C   0  0  0  0  0  0  0  0  0  0  0  0
  145.9390   72.3180  218.3460 O   0  0  0  0  0  0  0  0  0  0  0  0
  144.3640   70.7010  218.6170 N   0  0  0  0  0  0  0  0  0  0  0  0
  144.6440   69.2900  218.8560 C   0  0  0  0  0  0  0  0  0  0  0  0
  145.9070   68.9750  219.3300 C   0  0  0  0  0  0  0  0  0  0  0  0
  146.2510   67.6700  219.5790 C   0  0  0  0  0  0  0  0  0  0  0  0
  145.2990   66.7010  219.3420 C   0  0  0  0  0  0  0  0  0  0  0  0
  144.0380   67.0080  218.8690 C   0  0  0  0  0  0  0  0  0  0  0  0
  143.6770   68.3360  218.6100 C   0  0  0  0  0  0  0  0  0  0  0  0
  143.2030   71.2240  219.2550 C   0  0  0  0  0  0  0  0  0  0  0  0
  142.5470   72.3380  218.4450 C   0  0  0  0  0  0  0  0  0  0  0  0
  141.1380   72.4780  218.8710 C   0  0  0  0  0  0  0  0  0  0  0  0
  140.9740   72.2140  220.2890 N   0  0  0  0  0  0  0  0  0  0  0  0
  139.6170   72.3730  220.7380 C   0  0  0  0  0  0  0  0  0  0  0  0
  138.8080   72.7160  219.8140 O   0  0  0  0  0  0  0  0  0  0  0  0
  139.0690   72.1970  222.0700 C   0  0  1  0  0  0  0  0  0  0  0  0
  137.9460   73.0210  222.3180 N   0  0  0  0  0  0  0  0  0  0  0  0
  138.7740   70.7170  222.3210 C   0  0  0  0  0  0  0  0  0  0  0  0
  137.2880   70.4840  222.2310 C   0  0  0  0  0  0  0  0  0  0  0  0
  139.4350   69.8550  221.2780 C   0  0  0  0  0  0  0  0  0  0  0  0
  139.2590   70.3740  223.6650 C   0  0  0  0  0  0  0  0  0  0  0  0
  139.1610   69.0560  224.1100 C   0  0  0  0  0  0  0  0  0  0  0  0
  139.5830   68.6680  225.3650 C   0  0  0  0  0  0  0  0  0  0  0  0
  140.1290   69.5830  226.2420 C   0  0  0  0  0  0  0  0  0  0  0  0
  140.5700   69.2610  227.5040 C   0  0  0  0  0  0  0  0  0  0  0  0
  141.1110   70.2290  228.3450 C   0  0  0  0  0  0  0  0  0  0  0  0
  141.2260   71.5470  227.9380 C   0  0  0  0  0  0  0  0  0  0  0  0
  140.7770   71.8410  226.6680 C   0  0  0  0  0  0  0  0  0  0  0  0
  140.2360   70.8900  225.8210 C   0  0  0  0  0  0  0  0  0  0  0  0
  139.8080   71.2700  224.5570 C   0  0  0  0  0  0  0  0  0  0  0  0
  141.9580   71.8330  221.2320 C   0  0  0  0  0  0  0  0  0  0  0  0
  143.3670   71.6810  220.6710 C   0  0  0  0  0  0  0  0  0  0  0  0
  147.0030   69.7049  217.3147 H   0  0  0  0  0  0  0  0  0  0  0  0
  146.3049   69.1324  215.7617 H   0  0  0  0  0  0  0  0  0  0  0  0
  147.5710   70.4067  215.7617 H   0  0  0  0  0  0  0  0  0  0  0  0
  145.9707   72.0167  215.9201 H   0  0  0  0  0  0  0  0  0  0  0  0
  144.7028   70.7418  215.8726 H   0  0  0  0  0  0  0  0  0  0  0  0
  146.6392   69.7764  219.5080 H   0  0  0  0  0  0  0  0  0  0  0  0
  147.2508   67.4063  219.9543 H   0  0  0  0  0  0  0  0  0  0  0  0
  145.5522   65.6483  219.5361 H   0  0  0  0  0  0  0  0  0  0  0  0
  143.3105   66.2017  218.6941 H   0  0  0  0  0  0  0  0  0  0  0  0
  142.6793   68.6038  218.2319 H   0  0  0  0  0  0  0  0  0  0  0  0
  142.5490   70.3406  219.2986 H   0  0  0  0  0  0  0  0  0  0  0  0
  143.0806   73.2840  218.6194 H   0  0  0  0  0  0  0  0  0  0  0  0
  142.5884   72.0920  217.3737 H   0  0  0  0  0  0  0  0  0  0  0  0
  140.8023   73.5038  218.6588 H   0  0  0  0  0  0  0  0  0  0  0  0
  140.5383   71.7423  218.3150 H   0  0  0  0  0  0  0  0  0  0  0  0
  139.8298   72.5265  222.7929 H   0  0  0  0  0  0  0  0  0  0  0  0
  138.0500   73.7570  223.0340 H   0  0  0  0  0  0  0  0  0  0  0  0
  137.5320   73.4420  221.4730 H   0  0  0  0  0  0  0  0  0  0  0  0
  136.8652   70.4177  223.2443 H   0  0  0  0  0  0  0  0  0  0  0  0
  136.8179   71.3194  221.6915 H   0  0  0  0  0  0  0  0  0  0  0  0
  137.0961   69.5448  221.6915 H   0  0  0  0  0  0  0  0  0  0  0  0
  140.0330   69.0751  221.7721 H   0  0  0  0  0  0  0  0  0  0  0  0
  138.6647   69.3836  220.6500 H   0  0  0  0  0  0  0  0  0  0  0  0
  140.0901   70.4766  220.6500 H   0  0  0  0  0  0  0  0  0  0  0  0
  138.7322   68.2991  223.4368 H   0  0  0  0  0  0  0  0  0  0  0  0
  139.4830   67.6160  225.6704 H   0  0  0  0  0  0  0  0  0  0  0  0
  140.4940   68.2212  227.8546 H   0  0  0  0  0  0  0  0  0  0  0  0
  141.4530   69.9418  229.3503 H   0  0  0  0  0  0  0  0  0  0  0  0
  141.6535   72.3198  228.5938 H   0  0  0  0  0  0  0  0  0  0  0  0
  140.8523   72.8790  226.3119 H   0  0  0  0  0  0  0  0  0  0  0  0
  139.9104   72.3231  224.2563 H   0  0  0  0  0  0  0  0  0  0  0  0
  141.9866   72.5975  222.0224 H   0  0  0  0  0  0  0  0  0  0  0  0
  141.6642   70.8373  221.5958 H   0  0  0  0  0  0  0  0  0  0  0  0
  143.8964   72.6447  220.7022 H   0  0  0  0  0  0  0  0  0  0  0  0
  143.9584   70.9636  221.2589 H   0  0  0  0  0  0  0  0  0  0  0  0
  1  2  1  0
  2  3  1  0
  3  4  2  0
  3  5  1  0
  5  6  1  0
  6  7  2  0
  7  8  1  0
  8  9  2  0
  9 10  1  0
 10 11  2  0
  5 12  1  0
 12 13  1  0
 13 14  1  0
 14 15  1  0
 15 16  1  0
 16 17  2  0
 16 18  1  0
 18 19  1  0
 18 20  1  0
 20 21  1  0
 20 22  1  0
 20 23  1  0
 23 24  2  0
 24 25  1  0
 25 26  2  0
 26 27  1  0
 27 28  2  0
 28 29  1  0
 29 30  2  0
 30 31  1  0
 31 32  2  0
 15 33  1  0
 33 34  1  0
 11  6  1  0
 34 12  1  0
 32 23  1  0
 31 26  1  0
  1 35  1  0
  1 36  1  0
  1 37  1  0
  2 38  1  0
  2 39  1  0
  7 40  1  0
  8 41  1  0
  9 42  1  0
 10 43  1  0
 11 44  1  0
 12 45  1  0
 13 46  1  0
 13 47  1  0
 14 48  1  0
 14 49  1  0
 18 50  1  1
 19 51  1  0
 19 52  1  0
 21 53  1  0
 21 54  1  0
 21 55  1  0
 22 56  1  0
 22 57  1  0
 22 58  1  0
 24 59  1  0
 25 60  1  0
 27 61  1  0
 28 62  1  0
 29 63  1  0
 30 64  1  0
 32 65  1  0
 33 66  1  0
 33 67  1  0
 34 68  1  0
 34 69  1  0
M  END
>  <smiles>  (47) 
CCC(=O)N(c1ccccc1)C1CCN(C(=O)[C@@H](N)C(C)(C)c2ccc3ccccc3c2)CC1

>  <score_type>  (47) 
oracle

>  <origin>  (47) 
autodockgpu

>  <m_score__min__energy>  (47) 
-9.1699999999999999

>  <m_primary>  (47) 
energy

>  <rmsd>  (47) 
2.434378968858881

>  <m_score__min__rmsd>  (47) 
2.434378968858881

>  <meeko>  (47) 
{"free_energy": -8.16, "intermolecular_energy": -10.54, "internal_energy": -2.77, "cluster_size": 8, "cluster_id": 2, "rank_in_cluster": 5}

>  <energy>  (47) 
-7.41

>  <cluster_rmsd>  (47) 
0.25

>  <cluster>  (47) 
6

$$$$

     RDKit          3D

 69 72  0  0  0  0  0  0  0  0999 V2000
  143.0600   76.9800  218.7630 C   0  0  0  0  0  0  0  0  0  0  0  0
  142.5690   78.3460  218.2400 C   0  0  0  0  0  0  0  0  0  0  0  0
  142.0960   79.1590  219.3530 C   0  0  0  0  0  0  0  0  0  0  0  0
  142.2560   80.4320  219.2320 O   0  0  0  0  0  0  0  0  0  0  0  0
  141.4850   78.7450  220.5460 N   0  0  0  0  0  0  0  0  0  0  0  0
  141.6590   79.6550  221.6730 C   0  0  0  0  0  0  0  0  0  0  0  0
  142.7040   79.3830  222.5400 C   0  0  0  0  0  0  0  0  0  0  0  0
  142.9350   80.1900  223.6260 C   0  0  0  0  0  0  0  0  0  0  0  0
  142.0940   81.2680  223.8120 C   0  0  0  0  0  0  0  0  0  0  0  0
  141.0500   81.5440  222.9510 C   0  0  0  0  0  0  0  0  0  0  0  0
  140.8050   80.7260  221.8410 C   0  0  0  0  0  0  0  0  0  0  0  0
  140.7220   77.5700  220.8050 C   0  0  0  0  0  0  0  0  0  0  0  0
  139.6480   77.3310  219.7480 C   0  0  0  0  0  0  0  0  0  0  0  0
  139.2540   75.9060  219.7750 C   0  0  0  0  0  0  0  0  0  0  0  0
  139.2980   75.3580  221.1180 N   0  0  0  0  0  0  0  0  0  0  0  0
  138.8900   73.9810  221.1790 C   0  0  0  0  0  0  0  0  0  0  0  0
  138.5650   73.4930  220.0460 O   0  0  0  0  0  0  0  0  0  0  0  0
  138.8040   73.1030  222.3300 C   0  0  1  0  0  0  0  0  0  0  0  0
  137.4910   72.6380  222.5740 N   0  0  0  0  0  0  0  0  0  0  0  0
  139.8120   71.9600  222.1900 C   0  0  0  0  0  0  0  0  0  0  0  0
  139.3200   70.9900  221.1470 C   0  0  0  0  0  0  0  0  0  0  0  0
  141.1500   72.4790  221.7350 C   0  0  0  0  0  0  0  0  0  0  0  0
  139.9280   71.2880  223.4910 C   0  0  0  0  0  0  0  0  0  0  0  0
  139.5180   69.9610  223.6120 C   0  0  0  0  0  0  0  0  0  0  0  0
  139.5860   69.2750  224.8080 C   0  0  0  0  0  0  0  0  0  0  0  0
  140.0710   69.8850  225.9470 C   0  0  0  0  0  0  0  0  0  0  0  0
  140.1650   69.2560  227.1670 C   0  0  0  0  0  0  0  0  0  0  0  0
  140.6630   69.9240  228.2820 C   0  0  0  0  0  0  0  0  0  0  0  0
  141.0800   71.2420  228.2000 C   0  0  0  0  0  0  0  0  0  0  0  0
  140.9750   71.8460  226.9650 C   0  0  0  0  0  0  0  0  0  0  0  0
  140.4820   71.1950  225.8480 C   0  0  0  0  0  0  0  0  0  0  0  0
  140.4090   71.8770  224.6410 C   0  0  0  0  0  0  0  0  0  0  0  0
  139.6820   76.0030  222.3180 C   0  0  0  0  0  0  0  0  0  0  0  0
  140.1060   77.4590  222.1640 C   0  0  0  0  0  0  0  0  0  0  0  0
  143.0578   76.9862  219.8630 H   0  0  0  0  0  0  0  0  0  0  0  0
  142.3909   76.1862  218.3994 H   0  0  0  0  0  0  0  0  0  0  0  0
  144.0813   76.7938  218.3994 H   0  0  0  0  0  0  0  0  0  0  0  0
  143.3984   78.8638  217.7360 H   0  0  0  0  0  0  0  0  0  0  0  0
  141.7445   78.1880  217.5292 H   0  0  0  0  0  0  0  0  0  0  0  0
  143.3534   78.5142  222.3571 H   0  0  0  0  0  0  0  0  0  0  0  0
  143.7609   79.9847  224.3230 H   0  0  0  0  0  0  0  0  0  0  0  0
  142.2606   81.9296  224.6748 H   0  0  0  0  0  0  0  0  0  0  0  0
  140.4047   82.4148  223.1389 H   0  0  0  0  0  0  0  0  0  0  0  0
  139.9788   80.9258  221.1428 H   0  0  0  0  0  0  0  0  0  0  0  0
  141.4900   76.7838  220.7603 H   0  0  0  0  0  0  0  0  0  0  0  0
  138.7718   77.9600  219.9639 H   0  0  0  0  0  0  0  0  0  0  0  0
  140.0415   77.5888  218.7537 H   0  0  0  0  0  0  0  0  0  0  0  0
  138.2292   75.8129  219.3863 H   0  0  0  0  0  0  0  0  0  0  0  0
  139.9663   75.3434  219.1536 H   0  0  0  0  0  0  0  0  0  0  0  0
  139.0674   73.6912  223.2214 H   0  0  0  0  0  0  0  0  0  0  0  0
  137.0100   72.9990  223.4130 H   0  0  0  0  0  0  0  0  0  0  0  0
  136.8530   72.7230  221.7680 H   0  0  0  0  0  0  0  0  0  0  0  0
  138.8756   70.1138  221.6418 H   0  0  0  0  0  0  0  0  0  0  0  0
  138.5616   71.4803  220.5189 H   0  0  0  0  0  0  0  0  0  0  0  0
  140.1636   70.6678  220.5189 H   0  0  0  0  0  0  0  0  0  0  0  0
  141.7681   72.7187  222.6128 H   0  0  0  0  0  0  0  0  0  0  0  0
  141.6546   71.7114  221.1299 H   0  0  0  0  0  0  0  0  0  0  0  0
  141.0049   73.3861  221.1299 H   0  0  0  0  0  0  0  0  0  0  0  0
  139.1269   69.4428  222.7240 H   0  0  0  0  0  0  0  0  0  0  0  0
  139.2493   68.2288  224.8538 H   0  0  0  0  0  0  0  0  0  0  0  0
  139.8416   68.2090  227.2628 H   0  0  0  0  0  0  0  0  0  0  0  0
  140.7264   69.3959  229.2449 H   0  0  0  0  0  0  0  0  0  0  0  0
  141.4746   71.7793  229.0750 H   0  0  0  0  0  0  0  0  0  0  0  0
  141.2977   72.8926  226.8631 H   0  0  0  0  0  0  0  0  0  0  0  0
  140.7465   72.9232  224.6008 H   0  0  0  0  0  0  0  0  0  0  0  0
  138.8287   75.9683  223.0113 H   0  0  0  0  0  0  0  0  0  0  0  0
  140.5678   75.4638  222.6850 H   0  0  0  0  0  0  0  0  0  0  0  0
  139.2315   78.1216  222.2421 H   0  0  0  0  0  0  0  0  0  0  0  0
  140.8136   77.7571  222.9517 H   0  0  0  0  0  0  0  0  0  0  0  0
  1  2  1  0
  2  3  1  0
  3  4  2  0
  3  5  1  0
  5  6  1  0
  6  7  2  0
  7  8  1  0
  8  9  2  0
  9 10  1  0
 10 11  2  0
  5 12  1  0
 12 13  1  0
 13 14  1  0
 14 15  1  0
 15 16  1  0
 16 17  2  0
 16 18  1  0
 18 19  1  0
 18 20  1  0
 20 21  1  0
 20 22  1  0
 20 23  1  0
 23 24  2  0
 24 25  1  0
 25 26  2  0
 26 27  1  0
 27 28  2  0
 28 29  1  0
 29 30  2  0
 30 31  1  0
 31 32  2  0
 15 33  1  0
 33 34  1  0
 11  6  1  0
 34 12  1  0
 32 23  1  0
 31 26  1  0
  1 35  1  0
  1 36  1  0
  1 37  1  0
  2 38  1  0
  2 39  1  0
  7 40  1  0
  8 41  1  0
  9 42  1  0
 10 43  1  0
 11 44  1  0
 12 45  1  0
 13 46  1  0
 13 47  1  0
 14 48  1  0
 14 49  1  0
 18 50  1  1
 19 51  1  0
 19 52  1  0
 21 53  1  0
 21 54  1  0
 21 55  1  0
 22 56  1  0
 22 57  1  0
 22 58  1  0
 24 59  1  0
 25 60  1  0
 27 61  1  0
 28 62  1  0
 29 63  1  0
 30 64  1  0
 32 65  1  0
 33 66  1  0
 33 67  1  0
 34 68  1  0
 34 69  1  0
M  END
>  <smiles>  (48) 
CCC(=O)N(c1ccccc1)C1CCN(C(=O)[C@@H](N)C(C)(C)c2ccc3ccccc3c2)CC1

>  <score_type>  (48) 
oracle

>  <origin>  (48) 
autodockgpu

>  <m_score__min__energy>  (48) 
-9.1699999999999999

>  <m_primary>  (48) 
energy

>  <rmsd>  (48) 
2.340690483271261

>  <m_score__min__rmsd>  (48) 
2.340690483271261

>  <meeko>  (48) 
{"free_energy": -9.15, "intermolecular_energy": -11.54, "internal_energy": -2.22, "cluster_size": 32, "cluster_id": 1, "rank_in_cluster": 2}

>  <energy>  (48) 
-7.38

>  <cluster_rmsd>  (48) 
0.27

>  <cluster>  (48) 
6

$$$$

     RDKit          3D

 69 72  0  0  0  0  0  0  0  0999 V2000
  144.7580   73.9950  216.7180 C   0  0  0  0  0  0  0  0  0  0  0  0
  144.9680   72.4700  216.8340 C   0  0  0  0  0  0  0  0  0  0  0  0
  145.0080   72.0850  218.2390 C   0  0  0  0  0  0  0  0  0  0  0  0
  145.9640   72.5940  218.9370 O   0  0  0  0  0  0  0  0  0  0  0  0
  144.1450   71.2310  218.9410 N   0  0  0  0  0  0  0  0  0  0  0  0
  144.6000   69.8500  219.0490 C   0  0  0  0  0  0  0  0  0  0  0  0
  143.6240   68.8830  219.2330 C   0  0  0  0  0  0  0  0  0  0  0  0
  143.9690   67.5600  219.3450 C   0  0  0  0  0  0  0  0  0  0  0  0
  145.3090   67.2390  219.2660 C   0  0  0  0  0  0  0  0  0  0  0  0
  146.2860   68.1980  219.0820 C   0  0  0  0  0  0  0  0  0  0  0  0
  145.9450   69.5500  218.9680 C   0  0  0  0  0  0  0  0  0  0  0  0
  142.8970   71.5280  219.5620 C   0  0  0  0  0  0  0  0  0  0  0  0
  142.0170   72.4240  218.6970 C   0  0  0  0  0  0  0  0  0  0  0  0
  140.6100   72.2820  219.1310 C   0  0  0  0  0  0  0  0  0  0  0  0
  140.5060   72.0720  220.5640 N   0  0  0  0  0  0  0  0  0  0  0  0
  139.1480   71.9610  221.0190 C   0  0  0  0  0  0  0  0  0  0  0  0
  138.2840   72.0660  220.0870 O   0  0  0  0  0  0  0  0  0  0  0  0
  138.6490   71.7500  222.3660 C   0  0  1  0  0  0  0  0  0  0  0  0
  137.3880   72.3510  222.5880 N   0  0  0  0  0  0  0  0  0  0  0  0
  138.6510   70.2550  222.6930 C   0  0  0  0  0  0  0  0  0  0  0  0
  137.2330   69.7430  222.6800 C   0  0  0  0  0  0  0  0  0  0  0  0
  139.4260   69.4820  221.6600 C   0  0  0  0  0  0  0  0  0  0  0  0
  139.2400   70.0790  224.0280 C   0  0  0  0  0  0  0  0  0  0  0  0
  139.2210   68.8170  224.6200 C   0  0  0  0  0  0  0  0  0  0  0  0
  139.7430   68.5840  225.8760 C   0  0  0  0  0  0  0  0  0  0  0  0
  140.3140   69.6070  226.6050 C   0  0  0  0  0  0  0  0  0  0  0  0
  140.8520   69.4400  227.8610 C   0  0  0  0  0  0  0  0  0  0  0  0
  141.4140   70.5110  228.5490 C   0  0  0  0  0  0  0  0  0  0  0  0
  141.4510   71.7790  227.9930 C   0  0  0  0  0  0  0  0  0  0  0  0
  140.9050   71.9160  226.7340 C   0  0  0  0  0  0  0  0  0  0  0  0
  140.3430   70.8610  226.0380 C   0  0  0  0  0  0  0  0  0  0  0  0
  139.8140   71.0850  224.7740 C   0  0  0  0  0  0  0  0  0  0  0  0
  141.5490   71.9700  221.5150 C   0  0  0  0  0  0  0  0  0  0  0  0
  142.9580   72.0920  220.9470 C   0  0  0  0  0  0  0  0  0  0  0  0
  144.6975   74.4344  217.7246 H   0  0  0  0  0  0  0  0  0  0  0  0
  145.6032   74.4411  216.1734 H   0  0  0  0  0  0  0  0  0  0  0  0
  143.8237   74.1961  216.1734 H   0  0  0  0  0  0  0  0  0  0  0  0
  144.1383   71.9477  216.3353 H   0  0  0  0  0  0  0  0  0  0  0  0
  145.9190   72.1958  216.3540 H   0  0  0  0  0  0  0  0  0  0  0  0
  142.5659   69.1784  219.2896 H   0  0  0  0  0  0  0  0  0  0  0  0
  143.2048   66.7826  219.4925 H   0  0  0  0  0  0  0  0  0  0  0  0
  145.6090   66.1842  219.3525 H   0  0  0  0  0  0  0  0  0  0  0  0
  147.3421   67.8958  219.0246 H   0  0  0  0  0  0  0  0  0  0  0  0
  146.7062   70.3305  218.8220 H   0  0  0  0  0  0  0  0  0  0  0  0
  142.4486   70.5288  219.6645 H   0  0  0  0  0  0  0  0  0  0  0  0
  142.3337   73.4714  218.8098 H   0  0  0  0  0  0  0  0  0  0  0  0
  142.1115   72.1296  217.6413 H   0  0  0  0  0  0  0  0  0  0  0  0
  140.0612   73.1973  218.8646 H   0  0  0  0  0  0  0  0  0  0  0  0
  140.1832   71.4035  218.6250 H   0  0  0  0  0  0  0  0  0  0  0  0
  139.3321   72.2583  223.0624 H   0  0  0  0  0  0  0  0  0  0  0  0
  137.3320   73.0740  223.3220 H   0  0  0  0  0  0  0  0  0  0  0  0
  136.9330   72.7120  221.7370 H   0  0  0  0  0  0  0  0  0  0  0  0
  136.8797   69.6154  223.7139 H   0  0  0  0  0  0  0  0  0  0  0  0
  136.5873   70.4648  222.1583 H   0  0  0  0  0  0  0  0  0  0  0  0
  137.1974   68.7752  222.1583 H   0  0  0  0  0  0  0  0  0  0  0  0
  140.1188   68.7910  222.1626 H   0  0  0  0  0  0  0  0  0  0  0  0
  138.7286   68.9091  221.0312 H   0  0  0  0  0  0  0  0  0  0  0  0
  139.9971   70.1809  221.0312 H   0  0  0  0  0  0  0  0  0  0  0  0
  138.7744   67.9777  224.0667 H   0  0  0  0  0  0  0  0  0  0  0  0
  139.7034   67.5703  226.3013 H   0  0  0  0  0  0  0  0  0  0  0  0
  140.8374   68.4442  228.3281 H   0  0  0  0  0  0  0  0  0  0  0  0
  141.8361   70.3478  229.5516 H   0  0  0  0  0  0  0  0  0  0  0  0
  141.8930   72.6325  228.5279 H   0  0  0  0  0  0  0  0  0  0  0  0
  140.9170   72.9094  226.2618 H   0  0  0  0  0  0  0  0  0  0  0  0
  139.8546   72.1007  224.3537 H   0  0  0  0  0  0  0  0  0  0  0  0
  141.4112   72.7689  222.2584 H   0  0  0  0  0  0  0  0  0  0  0  0
  141.4773   70.9579  221.9399 H   0  0  0  0  0  0  0  0  0  0  0  0
  143.2673   73.1472  220.9163 H   0  0  0  0  0  0  0  0  0  0  0  0
  143.6898   71.5546  221.5681 H   0  0  0  0  0  0  0  0  0  0  0  0
  1  2  1  0
  2  3  1  0
  3  4  2  0
  3  5  1  0
  5  6  1  0
  6  7  2  0
  7  8  1  0
  8  9  2  0
  9 10  1  0
 10 11  2  0
  5 12  1  0
 12 13  1  0
 13 14  1  0
 14 15  1  0
 15 16  1  0
 16 17  2  0
 16 18  1  0
 18 19  1  0
 18 20  1  0
 20 21  1  0
 20 22  1  0
 20 23  1  0
 23 24  2  0
 24 25  1  0
 25 26  2  0
 26 27  1  0
 27 28  2  0
 28 29  1  0
 29 30  2  0
 30 31  1  0
 31 32  2  0
 15 33  1  0
 33 34  1  0
 11  6  1  0
 34 12  1  0
 32 23  1  0
 31 26  1  0
  1 35  1  0
  1 36  1  0
  1 37  1  0
  2 38  1  0
  2 39  1  0
  7 40  1  0
  8 41  1  0
  9 42  1  0
 10 43  1  0
 11 44  1  0
 12 45  1  0
 13 46  1  0
 13 47  1  0
 14 48  1  0
 14 49  1  0
 18 50  1  1
 19 51  1  0
 19 52  1  0
 21 53  1  0
 21 54  1  0
 21 55  1  0
 22 56  1  0
 22 57  1  0
 22 58  1  0
 24 59  1  0
 25 60  1  0
 27 61  1  0
 28 62  1  0
 29 63  1  0
 30 64  1  0
 32 65  1  0
 33 66  1  0
 33 67  1  0
 34 68  1  0
 34 69  1  0
M  END
>  <smiles>  (49) 
CCC(=O)N(c1ccccc1)C1CCN(C(=O)[C@@H](N)C(C)(C)c2ccc3ccccc3c2)CC1

>  <score_type>  (49) 
oracle

>  <origin>  (49) 
autodockgpu

>  <m_score__min__energy>  (49) 
-9.1699999999999999

>  <m_primary>  (49) 
energy

>  <rmsd>  (49) 
2.2415741237037423

>  <m_score__min__rmsd>  (49) 
2.2415741237037423

>  <meeko>  (49) 
{"free_energy": -8.14, "intermolecular_energy": -10.53, "internal_energy": -2.81, "cluster_size": 8, "cluster_id": 2, "rank_in_cluster": 6}

>  <energy>  (49) 
-7.02

>  <cluster_rmsd>  (49) 
0.91

>  <cluster>  (49) 
6

$$$$

     RDKit          3D

 69 72  0  0  0  0  0  0  0  0999 V2000
  142.2350   78.6350  217.0460 C   0  0  0  0  0  0  0  0  0  0  0  0
  142.5780   78.0160  218.4180 C   0  0  0  0  0  0  0  0  0  0  0  0
  142.0310   78.8460  219.4830 C   0  0  0  0  0  0  0  0  0  0  0  0
  142.1770   80.1180  219.3400 O   0  0  0  0  0  0  0  0  0  0  0  0
  141.3610   78.4490  220.6500 N   0  0  0  0  0  0  0  0  0  0  0  0
  141.4980   79.3640  221.7770 C   0  0  0  0  0  0  0  0  0  0  0  0
  140.5050   80.3170  221.9320 C   0  0  0  0  0  0  0  0  0  0  0  0
  140.5600   81.2170  222.9680 C   0  0  0  0  0  0  0  0  0  0  0  0
  141.6300   81.1300  223.8340 C   0  0  0  0  0  0  0  0  0  0  0  0
  142.6230   80.1820  223.6850 C   0  0  0  0  0  0  0  0  0  0  0  0
  142.5770   79.2600  222.6320 C   0  0  0  0  0  0  0  0  0  0  0  0
  140.5680   77.2880  220.8800 C   0  0  0  0  0  0  0  0  0  0  0  0
  139.4160   77.1650  219.8880 C   0  0  0  0  0  0  0  0  0  0  0  0
  138.9650   75.7570  219.8450 C   0  0  0  0  0  0  0  0  0  0  0  0
  139.0760   75.1150  221.1410 N   0  0  0  0  0  0  0  0  0  0  0  0
  138.6160   73.7530  221.1360 C   0  0  0  0  0  0  0  0  0  0  0  0
  138.1950   73.3590  219.9990 O   0  0  0  0  0  0  0  0  0  0  0  0
  138.5710   72.7990  222.2290 C   0  0  1  0  0  0  0  0  0  0  0  0
  137.3960   72.0110  222.2250 N   0  0  0  0  0  0  0  0  0  0  0  0
  139.8440   71.9510  222.2320 C   0  0  0  0  0  0  0  0  0  0  0  0
  139.7550   70.9180  221.1390 C   0  0  0  0  0  0  0  0  0  0  0  0
  141.0550   72.8030  221.9590 C   0  0  0  0  0  0  0  0  0  0  0  0
  139.9540   71.2940  223.5410 C   0  0  0  0  0  0  0  0  0  0  0  0
  139.5210   69.9760  223.6810 C   0  0  0  0  0  0  0  0  0  0  0  0
  139.5820   69.3040  224.8850 C   0  0  0  0  0  0  0  0  0  0  0  0
  140.0820   69.9190  226.0140 C   0  0  0  0  0  0  0  0  0  0  0  0
  140.1710   69.3040  227.2420 C   0  0  0  0  0  0  0  0  0  0  0  0
  140.6840   69.9770  228.3470 C   0  0  0  0  0  0  0  0  0  0  0  0
  141.1250   71.2860  228.2460 C   0  0  0  0  0  0  0  0  0  0  0  0
  141.0250   71.8770  227.0040 C   0  0  0  0  0  0  0  0  0  0  0  0
  140.5160   71.2200  225.8970 C   0  0  0  0  0  0  0  0  0  0  0  0
  140.4500   71.8880  224.6820 C   0  0  0  0  0  0  0  0  0  0  0  0
  139.5660   75.6590  222.3520 C   0  0  0  0  0  0  0  0  0  0  0  0
  140.0400   77.1050  222.2690 C   0  0  0  0  0  0  0  0  0  0  0  0
  141.7068   79.5882  217.1956 H   0  0  0  0  0  0  0  0  0  0  0  0
  143.1625   78.8142  216.4824 H   0  0  0  0  0  0  0  0  0  0  0  0
  141.5913   77.9436  216.4824 H   0  0  0  0  0  0  0  0  0  0  0  0
  142.1449   77.0069  218.4822 H   0  0  0  0  0  0  0  0  0  0  0  0
  143.6710   77.9572  218.5276 H   0  0  0  0  0  0  0  0  0  0  0  0
  139.6668   80.3533  221.2207 H   0  0  0  0  0  0  0  0  0  0  0  0
  139.7788   81.9797  223.1023 H   0  0  0  0  0  0  0  0  0  0  0  0
  141.6946   81.8399  224.6718 H   0  0  0  0  0  0  0  0  0  0  0  0
  143.4581   80.1508  224.4003 H   0  0  0  0  0  0  0  0  0  0  0  0
  143.3564   78.4962  222.4939 H   0  0  0  0  0  0  0  0  0  0  0  0
  141.2970   76.4787  220.7268 H   0  0  0  0  0  0  0  0  0  0  0  0
  138.5837   77.8091  220.2078 H   0  0  0  0  0  0  0  0  0  0  0  0
  139.7517   77.4781  218.8884 H   0  0  0  0  0  0  0  0  0  0  0  0
  137.9134   75.7298  219.5233 H   0  0  0  0  0  0  0  0  0  0  0  0
  139.6094   75.2135  219.1383 H   0  0  0  0  0  0  0  0  0  0  0  0
  138.5301   73.3662  223.1706 H   0  0  0  0  0  0  0  0  0  0  0  0
  136.8480   71.9850  221.3510 H   0  0  0  0  0  0  0  0  0  0  0  0
  137.5320   71.0440  222.5550 H   0  0  0  0  0  0  0  0  0  0  0  0
  139.6688   69.9170  221.5867 H   0  0  0  0  0  0  0  0  0  0  0  0
  138.8708   71.1185  220.5161 H   0  0  0  0  0  0  0  0  0  0  0  0
  140.6605   70.9643  220.5161 H   0  0  0  0  0  0  0  0  0  0  0  0
  141.5037   73.1187  222.9124 H   0  0  0  0  0  0  0  0  0  0  0  0
  141.7898   72.2218  221.3826 H   0  0  0  0  0  0  0  0  0  0  0  0
  140.7562   73.6909  221.3826 H   0  0  0  0  0  0  0  0  0  0  0  0
  139.1168   69.4537  222.8013 H   0  0  0  0  0  0  0  0  0  0  0  0
  139.2273   68.2645  224.9451 H   0  0  0  0  0  0  0  0  0  0  0  0
  139.8312   68.2636  227.3520 H   0  0  0  0  0  0  0  0  0  0  0  0
  140.7401   69.4607  229.3167 H   0  0  0  0  0  0  0  0  0  0  0  0
  141.5341   71.8266  229.1122 H   0  0  0  0  0  0  0  0  0  0  0  0
  141.3648   72.9167  226.8878 H   0  0  0  0  0  0  0  0  0  0  0  0
  140.8058   72.9274  224.6277 H   0  0  0  0  0  0  0  0  0  0  0  0
  138.7601   75.6074  223.0989 H   0  0  0  0  0  0  0  0  0  0  0  0
  140.4510   75.0625  222.6185 H   0  0  0  0  0  0  0  0  0  0  0  0
  139.2016   77.7930  222.4528 H   0  0  0  0  0  0  0  0  0  0  0  0
  140.8104   77.3201  223.0241 H   0  0  0  0  0  0  0  0  0  0  0  0
  1  2  1  0
  2  3  1  0
  3  4  2  0
  3  5  1  0
  5  6  1  0
  6  7  2  0
  7  8  1  0
  8  9  2  0
  9 10  1  0
 10 11  2  0
  5 12  1  0
 12 13  1  0
 13 14  1  0
 14 15  1  0
 15 16  1  0
 16 17  2  0
 16 18  1  0
 18 19  1  0
 18 20  1  0
 20 21  1  0
 20 22  1  0
 20 23  1  0
 23 24  2  0
 24 25  1  0
 25 26  2  0
 26 27  1  0
 27 28  2  0
 28 29  1  0
 29 30  2  0
 30 31  1  0
 31 32  2  0
 15 33  1  0
 33 34  1  0
 11  6  1  0
 34 12  1  0
 32 23  1  0
 31 26  1  0
  1 35  1  0
  1 36  1  0
  1 37  1  0
  2 38  1  0
  2 39  1  0
  7 40  1  0
  8 41  1  0
  9 42  1  0
 10 43  1  0
 11 44  1  0
 12 45  1  0
 13 46  1  0
 13 47  1  0
 14 48  1  0
 14 49  1  0
 18 50  1  1
 19 51  1  0
 19 52  1  0
 21 53  1  0
 21 54  1  0
 21 55  1  0
 22 56  1  0
 22 57  1  0
 22 58  1  0
 24 59  1  0
 25 60  1  0
 27 61  1  0
 28 62  1  0
 29 63  1  0
 30 64  1  0
 32 65  1  0
 33 66  1  0
 33 67  1  0
 34 68  1  0
 34 69  1  0
M  END
>  <smiles>  (50) 
CCC(=O)N(c1ccccc1)C1CCN(C(=O)[C@@H](N)C(C)(C)c2ccc3ccccc3c2)CC1

>  <score_type>  (50) 
oracle

>  <origin>  (50) 
autodockgpu

>  <m_score__min__energy>  (50) 
-9.1699999999999999

>  <m_primary>  (50) 
energy

>  <rmsd>  (50) 
2.2693421850951876

>  <m_score__min__rmsd>  (50) 
2.2693421850951876

>  <meeko>  (50) 
{"free_energy": -8.48, "intermolecular_energy": -10.87, "internal_energy": -2.48, "cluster_size": 32, "cluster_id": 1, "rank_in_cluster": 17}

>  <energy>  (50) 
-7.1

>  <cluster_rmsd>  (50) 
0.0

>  <cluster>  (50) 
7

$$$$
