
     RDKit          3D

 56 59  0  0  0  0  0  0  0  0999 V2000
  137.6090   71.0040  221.2470 O   0  0  0  0  0  0  0  0  0  0  0  0
  138.1860   71.5440  222.2290 C   0  0  0  0  0  0  0  0  0  0  0  0
  138.3590   72.9590  222.2600 N   0  0  0  0  0  0  0  0  0  0  0  0
  137.8680   73.7270  221.1640 C   0  0  0  0  0  0  0  0  0  0  0  0
  138.8720   73.9540  220.1060 C   0  0  0  0  0  0  0  0  0  0  0  0
  138.4930   73.8410  218.9130 O   0  0  0  0  0  0  0  0  0  0  0  0
  140.1990   74.2840  220.4890 N   0  0  0  0  0  0  0  0  0  0  0  0
  141.4460   73.6770  219.9890 C   0  0  0  0  0  0  0  0  0  0  0  0
  142.3450   74.8930  219.9160 C   0  0  2  0  0  0  0  0  0  0  0  0
  143.3730   74.6930  220.8450 O   0  0  0  0  0  0  0  0  0  0  0  0
  141.5270   76.0700  220.4510 C   0  0  0  0  0  0  0  0  0  0  0  0
  140.6650   75.2810  221.4460 C   0  0  1  0  0  0  0  0  0  0  0  0
  139.5500   76.0500  222.0020 C   0  0  0  0  0  0  0  0  0  0  0  0
  139.4250   77.3510  221.6990 O   0  0  0  0  0  0  0  0  0  0  0  0
  139.4320   78.3100  222.6400 C   0  0  0  0  0  0  0  0  0  0  0  0
  140.7020   79.0620  222.8100 C   0  0  0  0  0  0  0  0  0  0  0  0
  141.3460   79.2020  224.0210 C   0  0  0  0  0  0  0  0  0  0  0  0
  142.5230   79.9100  224.1360 C   0  0  0  0  0  0  0  0  0  0  0  0
  143.1190   80.5150  223.0450 C   0  0  0  0  0  0  0  0  0  0  0  0
  142.4810   80.3790  221.8300 C   0  0  0  0  0  0  0  0  0  0  0  0
  141.3050   79.6740  221.7040 C   0  0  0  0  0  0  0  0  0  0  0  0
  138.6910   70.7410  223.3570 C   0  0  0  0  0  0  0  0  0  0  0  0
  138.4170   69.3770  223.3550 C   0  0  0  0  0  0  0  0  0  0  0  0
  138.8770   68.6130  224.3940 C   0  0  0  0  0  0  0  0  0  0  0  0
  139.5940   69.2030  225.4110 C   0  0  0  0  0  0  0  0  0  0  0  0
  140.0510   68.4350  226.4450 C   0  0  0  0  0  0  0  0  0  0  0  0
  140.7700   69.0710  227.4510 C   0  0  0  0  0  0  0  0  0  0  0  0
  141.3830   68.1510  228.8020 Cl  0  0  0  0  0  0  0  0  0  0  0  0
  141.0250   70.4240  227.4260 C   0  0  0  0  0  0  0  0  0  0  0  0
  140.5620   71.1970  226.3760 C   0  0  0  0  0  0  0  0  0  0  0  0
  139.8490   70.5540  225.3860 C   0  0  0  0  0  0  0  0  0  0  0  0
  139.3960   71.3050  224.3630 N   0  0  0  0  0  0  0  0  0  0  0  0
  138.8450   73.3600  223.0970 H   0  0  0  0  0  0  0  0  0  0  0  0
  137.0117   73.1959  220.7229 H   0  0  0  0  0  0  0  0  0  0  0  0
  137.5881   74.7140  221.5609 H   0  0  0  0  0  0  0  0  0  0  0  0
  141.8388   72.9247  220.6888 H   0  0  0  0  0  0  0  0  0  0  0  0
  141.3383   73.1329  219.0391 H   0  0  0  0  0  0  0  0  0  0  0  0
  142.7233   75.0626  218.8971 H   0  0  0  0  0  0  0  0  0  0  0  0
  143.1860   75.1630  221.6830 H   0  0  0  0  0  0  0  0  0  0  0  0
  142.1547   76.8245  220.9476 H   0  0  0  0  0  0  0  0  0  0  0  0
  140.9844   76.6662  219.7025 H   0  0  0  0  0  0  0  0  0  0  0  0
  141.1757   74.9312  222.3553 H   0  0  0  0  0  0  0  0  0  0  0  0
  138.6248   75.5550  221.6720 H   0  0  0  0  0  0  0  0  0  0  0  0
  139.7561   76.0566  223.0825 H   0  0  0  0  0  0  0  0  0  0  0  0
  138.6457   79.0354  222.3839 H   0  0  0  0  0  0  0  0  0  0  0  0
  139.2751   77.7840  223.5932 H   0  0  0  0  0  0  0  0  0  0  0  0
  140.9097   78.7372  224.9175 H   0  0  0  0  0  0  0  0  0  0  0  0
  143.0012   79.9960  225.1229 H   0  0  0  0  0  0  0  0  0  0  0  0
  144.0586   81.0787  223.1417 H   0  0  0  0  0  0  0  0  0  0  0  0
  142.9234   80.8462  220.9378 H   0  0  0  0  0  0  0  0  0  0  0  0
  140.8299   79.5899  220.7155 H   0  0  0  0  0  0  0  0  0  0  0  0
  137.8423   68.9214  222.5351 H   0  0  0  0  0  0  0  0  0  0  0  0
  138.6746   67.5320  224.4163 H   0  0  0  0  0  0  0  0  0  0  0  0
  139.8570   67.3528  226.4801 H   0  0  0  0  0  0  0  0  0  0  0  0
  141.5972   70.8906  228.2414 H   0  0  0  0  0  0  0  0  0  0  0  0
  140.7545   72.2791  226.3327 H   0  0  0  0  0  0  0  0  0  0  0  0
  1  2  2  0
  2  3  1  0
  3  4  1  0
  4  5  1  0
  5  6  2  0
  5  7  1  0
  7  8  1  0
  8  9  1  0
  9 10  1  0
  9 11  1  0
 11 12  1  0
 12 13  1  0
 13 14  1  0
 14 15  1  0
 15 16  1  0
 16 17  2  0
 17 18  1  0
 18 19  2  0
 19 20  1  0
 20 21  2  0
  2 22  1  0
 22 23  2  0
 23 24  1  0
 24 25  2  0
 25 26  1  0
 26 27  2  0
 27 28  1  0
 27 29  1  0
 29 30  2  0
 30 31  1  0
 31 32  2  0
 12  7  1  0
 21 16  1  0
 32 22  1  0
 31 25  1  0
  3 33  1  0
  4 34  1  0
  4 35  1  0
  8 36  1  0
  8 37  1  0
  9 38  1  6
 10 39  1  0
 11 40  1  0
 11 41  1  0
 12 42  1  1
 13 43  1  0
 13 44  1  0
 15 45  1  0
 15 46  1  0
 17 47  1  0
 18 48  1  0
 19 49  1  0
 20 50  1  0
 21 51  1  0
 23 52  1  0
 24 53  1  0
 26 54  1  0
 29 55  1  0
 30 56  1  0
M  END
>  <smiles>  (1) 
O=C(NCC(=O)N1C[C@H](O)C[C@H]1COCc1ccccc1)c1ccc2cc(Cl)ccc2n1

>  <score_type>  (1) 
oracle

>  <origin>  (1) 
autodockgpu

>  <m_score__min__energy>  (1) 
-8.9399999999999995

>  <m_primary>  (1) 
energy

>  <rmsd>  (1) 
1.839432856887451

>  <m_score__min__rmsd>  (1) 
1.839432856887451

>  <meeko>  (1) 
{"free_energy": -7.96, "intermolecular_energy": -10.65, "internal_energy": -1.73, "cluster_size": 16, "cluster_id": 1, "rank_in_cluster": 13}

>  <energy>  (1) 
-8.94

>  <cluster_rmsd>  (1) 
0.0

>  <cluster>  (1) 
1

$$$$

     RDKit          3D

 56 59  0  0  0  0  0  0  0  0999 V2000
  140.3090   72.5020  220.4940 O   0  0  0  0  0  0  0  0  0  0  0  0
  140.1390   72.8820  221.6840 C   0  0  0  0  0  0  0  0  0  0  0  0
  139.9800   74.2690  221.9690 N   0  0  0  0  0  0  0  0  0  0  0  0
  140.0200   75.1950  220.8860 C   0  0  0  0  0  0  0  0  0  0  0  0
  140.7830   76.4230  221.1880 C   0  0  0  0  0  0  0  0  0  0  0  0
  141.0730   76.6440  222.3900 O   0  0  0  0  0  0  0  0  0  0  0  0
  141.1460   77.2780  220.1140 N   0  0  0  0  0  0  0  0  0  0  0  0
  142.4870   77.4460  219.5260 C   0  0  0  0  0  0  0  0  0  0  0  0
  142.1370   77.5850  218.0580 C   0  0  2  0  0  0  0  0  0  0  0  0
  142.5070   78.8790  217.6750 O   0  0  0  0  0  0  0  0  0  0  0  0
  140.6110   77.5470  217.9710 C   0  0  0  0  0  0  0  0  0  0  0  0
  140.3140   78.1870  219.3340 C   0  0  1  0  0  0  0  0  0  0  0  0
  138.9080   78.1020  219.7340 C   0  0  0  0  0  0  0  0  0  0  0  0
  138.5090   78.6700  220.8820 O   0  0  0  0  0  0  0  0  0  0  0  0
  138.9280   79.8880  221.2620 C   0  0  0  0  0  0  0  0  0  0  0  0
  140.2080   79.9430  222.0140 C   0  0  0  0  0  0  0  0  0  0  0  0
  141.3450   80.5600  221.5350 C   0  0  0  0  0  0  0  0  0  0  0  0
  142.5140   80.5880  222.2650 C   0  0  0  0  0  0  0  0  0  0  0  0
  142.6080   80.0010  223.5130 C   0  0  0  0  0  0  0  0  0  0  0  0
  141.4750   79.3830  223.9990 C   0  0  0  0  0  0  0  0  0  0  0  0
  140.3020   79.3490  223.2780 C   0  0  0  0  0  0  0  0  0  0  0  0
  140.0990   71.9170  222.7970 C   0  0  0  0  0  0  0  0  0  0  0  0
  139.5870   70.6500  222.5380 C   0  0  0  0  0  0  0  0  0  0  0  0
  139.5410   69.7380  223.5590 C   0  0  0  0  0  0  0  0  0  0  0  0
  139.9980   70.0890  224.8100 C   0  0  0  0  0  0  0  0  0  0  0  0
  139.9510   69.1760  225.8240 C   0  0  0  0  0  0  0  0  0  0  0  0
  140.4220   69.5720  227.0710 C   0  0  0  0  0  0  0  0  0  0  0  0
  140.3910   68.4540  228.4120 Cl  0  0  0  0  0  0  0  0  0  0  0  0
  140.9240   70.8340  227.2970 C   0  0  0  0  0  0  0  0  0  0  0  0
  140.9710   71.7550  226.2660 C   0  0  0  0  0  0  0  0  0  0  0  0
  140.5000   71.3500  225.0350 C   0  0  0  0  0  0  0  0  0  0  0  0
  140.5440   72.2460  224.0300 N   0  0  0  0  0  0  0  0  0  0  0  0
  139.8420   74.5340  222.9740 H   0  0  0  0  0  0  0  0  0  0  0  0
  140.4859   74.6995  220.0214 H   0  0  0  0  0  0  0  0  0  0  0  0
  138.9829   75.5004  220.6833 H   0  0  0  0  0  0  0  0  0  0  0  0
  142.9876   78.3471  219.9100 H   0  0  0  0  0  0  0  0  0  0  0  0
  143.1892   76.6300  219.7519 H   0  0  0  0  0  0  0  0  0  0  0  0
  142.6196   76.8091  217.4455 H   0  0  0  0  0  0  0  0  0  0  0  0
  143.3170   78.8650  217.1270 H   0  0  0  0  0  0  0  0  0  0  0  0
  140.2246   78.1471  217.1340 H   0  0  0  0  0  0  0  0  0  0  0  0
  140.1585   76.5614  217.7873 H   0  0  0  0  0  0  0  0  0  0  0  0
  140.5069   79.2671  219.4127 H   0  0  0  0  0  0  0  0  0  0  0  0
  138.3184   78.5631  218.9279 H   0  0  0  0  0  0  0  0  0  0  0  0
  138.7567   77.0273  219.9133 H   0  0  0  0  0  0  0  0  0  0  0  0
  139.0466   80.4988  220.3549 H   0  0  0  0  0  0  0  0  0  0  0  0
  138.1626   80.2543  221.9621 H   0  0  0  0  0  0  0  0  0  0  0  0
  141.3182   81.0414  220.5463 H   0  0  0  0  0  0  0  0  0  0  0  0
  143.3963   81.0913  221.8428 H   0  0  0  0  0  0  0  0  0  0  0  0
  143.5432   80.0257  224.0916 H   0  0  0  0  0  0  0  0  0  0  0  0
  141.5090   78.9045  224.9889 H   0  0  0  0  0  0  0  0  0  0  0  0
  139.4218   78.8452  223.7038 H   0  0  0  0  0  0  0  0  0  0  0  0
  139.2262   70.3856  221.5331 H   0  0  0  0  0  0  0  0  0  0  0  0
  139.1406   68.7291  223.3805 H   0  0  0  0  0  0  0  0  0  0  0  0
  139.5546   68.1630  225.6604 H   0  0  0  0  0  0  0  0  0  0  0  0
  141.2878   71.1099  228.2978 H   0  0  0  0  0  0  0  0  0  0  0  0
  141.3679   72.7690  226.4218 H   0  0  0  0  0  0  0  0  0  0  0  0
  1  2  2  0
  2  3  1  0
  3  4  1  0
  4  5  1  0
  5  6  2  0
  5  7  1  0
  7  8  1  0
  8  9  1  0
  9 10  1  0
  9 11  1  0
 11 12  1  0
 12 13  1  0
 13 14  1  0
 14 15  1  0
 15 16  1  0
 16 17  2  0
 17 18  1  0
 18 19  2  0
 19 20  1  0
 20 21  2  0
  2 22  1  0
 22 23  2  0
 23 24  1  0
 24 25  2  0
 25 26  1  0
 26 27  2  0
 27 28  1  0
 27 29  1  0
 29 30  2  0
 30 31  1  0
 31 32  2  0
 12  7  1  0
 21 16  1  0
 32 22  1  0
 31 25  1  0
  3 33  1  0
  4 34  1  0
  4 35  1  0
  8 36  1  0
  8 37  1  0
  9 38  1  6
 10 39  1  0
 11 40  1  0
 11 41  1  0
 12 42  1  6
 13 43  1  0
 13 44  1  0
 15 45  1  0
 15 46  1  0
 17 47  1  0
 18 48  1  0
 19 49  1  0
 20 50  1  0
 21 51  1  0
 23 52  1  0
 24 53  1  0
 26 54  1  0
 29 55  1  0
 30 56  1  0
M  END
>  <smiles>  (2) 
O=C(NCC(=O)N1C[C@H](O)C[C@H]1COCc1ccccc1)c1ccc2cc(Cl)ccc2n1

>  <score_type>  (2) 
oracle

>  <origin>  (2) 
autodockgpu

>  <m_score__min__energy>  (2) 
-8.9399999999999995

>  <m_primary>  (2) 
energy

>  <rmsd>  (2) 
2.274195028103649

>  <m_score__min__rmsd>  (2) 
2.274195028103649

>  <meeko>  (2) 
{"free_energy": -7.82, "intermolecular_energy": -10.51, "internal_energy": -2.42, "cluster_size": 9, "cluster_id": 4, "rank_in_cluster": 5}

>  <energy>  (2) 
-8.64

>  <cluster_rmsd>  (2) 
1.43

>  <cluster>  (2) 
1

$$$$

     RDKit          3D

 56 59  0  0  0  0  0  0  0  0999 V2000
  140.1080   83.9870  220.9870 O   0  0  0  0  0  0  0  0  0  0  0  0
  139.7290   82.7840  220.9630 C   0  0  0  0  0  0  0  0  0  0  0  0
  138.5320   82.4050  221.6380 N   0  0  0  0  0  0  0  0  0  0  0  0
  137.7930   83.4110  222.3270 C   0  0  0  0  0  0  0  0  0  0  0  0
  136.5850   82.8950  223.0020 C   0  0  0  0  0  0  0  0  0  0  0  0
  135.5320   82.8130  222.3220 O   0  0  0  0  0  0  0  0  0  0  0  0
  136.6780   82.5240  224.3690 N   0  0  0  0  0  0  0  0  0  0  0  0
  136.5850   83.4140  225.5400 C   0  0  0  0  0  0  0  0  0  0  0  0
  135.8080   82.5390  226.5020 C   0  0  2  0  0  0  0  0  0  0  0  0
  136.6600   82.2650  227.5780 O   0  0  0  0  0  0  0  0  0  0  0  0
  135.5940   81.2010  225.7930 C   0  0  0  0  0  0  0  0  0  0  0  0
  136.8820   81.2050  224.9580 C   0  0  1  0  0  0  0  0  0  0  0  0
  136.9250   80.1620  223.9310 C   0  0  0  0  0  0  0  0  0  0  0  0
  138.0240   80.0210  223.1750 O   0  0  0  0  0  0  0  0  0  0  0  0
  138.9690   79.1050  223.4460 C   0  0  0  0  0  0  0  0  0  0  0  0
  140.3780   79.5750  223.4070 C   0  0  0  0  0  0  0  0  0  0  0  0
  141.4460   78.7530  223.1160 C   0  0  0  0  0  0  0  0  0  0  0  0
  142.7390   79.2290  223.0920 C   0  0  0  0  0  0  0  0  0  0  0  0
  143.0330   80.5540  223.3560 C   0  0  0  0  0  0  0  0  0  0  0  0
  141.9700   81.3840  223.6470 C   0  0  0  0  0  0  0  0  0  0  0  0
  140.6740   80.9180  223.6740 C   0  0  0  0  0  0  0  0  0  0  0  0
  140.5000   81.7520  220.2480 C   0  0  0  0  0  0  0  0  0  0  0  0
  141.4670   82.1770  219.3410 C   0  0  0  0  0  0  0  0  0  0  0  0
  142.1940   81.2340  218.6660 C   0  0  0  0  0  0  0  0  0  0  0  0
  141.9590   79.8960  218.8950 C   0  0  0  0  0  0  0  0  0  0  0  0
  142.6880   78.9600  218.2190 C   0  0  0  0  0  0  0  0  0  0  0  0
  142.4180   77.6210  218.4800 C   0  0  0  0  0  0  0  0  0  0  0  0
  143.3130   76.3720  217.6520 Cl  0  0  0  0  0  0  0  0  0  0  0  0
  141.4550   77.2310  219.3830 C   0  0  0  0  0  0  0  0  0  0  0  0
  140.7200   78.1830  220.0660 C   0  0  0  0  0  0  0  0  0  0  0  0
  140.9970   79.5070  219.7980 C   0  0  0  0  0  0  0  0  0  0  0  0
  140.2820   80.4350  220.4610 N   0  0  0  0  0  0  0  0  0  0  0  0
  138.2600   81.3950  221.5890 H   0  0  0  0  0  0  0  0  0  0  0  0
  138.4476   83.8667  223.0846 H   0  0  0  0  0  0  0  0  0  0  0  0
  137.4572   84.1392  221.5740 H   0  0  0  0  0  0  0  0  0  0  0  0
  137.5796   83.6668  225.9361 H   0  0  0  0  0  0  0  0  0  0  0  0
  136.1194   84.3892  225.3345 H   0  0  0  0  0  0  0  0  0  0  0  0
  134.8665   83.0119  226.8183 H   0  0  0  0  0  0  0  0  0  0  0  0
  136.9150   83.0880  228.0420 H   0  0  0  0  0  0  0  0  0  0  0  0
  135.5543   80.3564  226.4966 H   0  0  0  0  0  0  0  0  0  0  0  0
  134.6526   81.0914  225.2346 H   0  0  0  0  0  0  0  0  0  0  0  0
  137.8154   81.0190  225.5095 H   0  0  0  0  0  0  0  0  0  0  0  0
  136.7648   79.2021  224.4437 H   0  0  0  0  0  0  0  0  0  0  0  0
  136.1564   80.4787  223.2106 H   0  0  0  0  0  0  0  0  0  0  0  0
  138.7751   78.7133  224.4554 H   0  0  0  0  0  0  0  0  0  0  0  0
  138.8889   78.3576  222.6429 H   0  0  0  0  0  0  0  0  0  0  0  0
  141.2614   77.6908  222.8976 H   0  0  0  0  0  0  0  0  0  0  0  0
  143.5599   78.5357  222.8563 H   0  0  0  0  0  0  0  0  0  0  0  0
  144.0669   80.9291  223.3350 H   0  0  0  0  0  0  0  0  0  0  0  0
  142.1624   82.4453  223.8630 H   0  0  0  0  0  0  0  0  0  0  0  0
  139.8555   81.6140  223.9098 H   0  0  0  0  0  0  0  0  0  0  0  0
  141.6432   83.2493  219.1703 H   0  0  0  0  0  0  0  0  0  0  0  0
  142.9633   81.5434  217.9432 H   0  0  0  0  0  0  0  0  0  0  0  0
  143.4611   79.2545  217.4940 H   0  0  0  0  0  0  0  0  0  0  0  0
  141.2699   76.1615  219.5615 H   0  0  0  0  0  0  0  0  0  0  0  0
  139.9462   77.8957  220.7931 H   0  0  0  0  0  0  0  0  0  0  0  0
  1  2  2  0
  2  3  1  0
  3  4  1  0
  4  5  1  0
  5  6  2  0
  5  7  1  0
  7  8  1  0
  8  9  1  0
  9 10  1  0
  9 11  1  0
 11 12  1  0
 12 13  1  0
 13 14  1  0
 14 15  1  0
 15 16  1  0
 16 17  2  0
 17 18  1  0
 18 19  2  0
 19 20  1  0
 20 21  2  0
  2 22  1  0
 22 23  2  0
 23 24  1  0
 24 25  2  0
 25 26  1  0
 26 27  2  0
 27 28  1  0
 27 29  1  0
 29 30  2  0
 30 31  1  0
 31 32  2  0
 12  7  1  0
 21 16  1  0
 32 22  1  0
 31 25  1  0
  3 33  1  0
  4 34  1  0
  4 35  1  0
  8 36  1  0
  8 37  1  0
  9 38  1  1
 10 39  1  0
 11 40  1  0
 11 41  1  0
 12 42  1  1
 13 43  1  0
 13 44  1  0
 15 45  1  0
 15 46  1  0
 17 47  1  0
 18 48  1  0
 19 49  1  0
 20 50  1  0
 21 51  1  0
 23 52  1  0
 24 53  1  0
 26 54  1  0
 29 55  1  0
 30 56  1  0
M  END
>  <smiles>  (3) 
O=C(NCC(=O)N1C[C@H](O)C[C@H]1COCc1ccccc1)c1ccc2cc(Cl)ccc2n1

>  <score_type>  (3) 
oracle

>  <origin>  (3) 
autodockgpu

>  <m_score__min__energy>  (3) 
-8.9399999999999995

>  <m_primary>  (3) 
energy

>  <rmsd>  (3) 
11.301497849886516

>  <m_score__min__rmsd>  (3) 
11.301497849886516

>  <meeko>  (3) 
{"free_energy": -5.8, "intermolecular_energy": -8.48, "internal_energy": -4.02, "cluster_size": 1, "cluster_id": 10, "rank_in_cluster": 1}

>  <energy>  (3) 
-8.6

>  <cluster_rmsd>  (3) 
1.8

>  <cluster>  (3) 
1

$$$$

     RDKit          3D

 56 59  0  0  0  0  0  0  0  0999 V2000
  135.0580   68.5350  224.7470 O   0  0  0  0  0  0  0  0  0  0  0  0
  135.5430   69.6890  224.8920 C   0  0  0  0  0  0  0  0  0  0  0  0
  136.8760   69.9560  224.4630 N   0  0  0  0  0  0  0  0  0  0  0  0
  137.6280   68.8960  223.8780 C   0  0  0  0  0  0  0  0  0  0  0  0
  138.2100   69.2400  222.5660 C   0  0  0  0  0  0  0  0  0  0  0  0
  139.0330   68.4330  222.0670 O   0  0  0  0  0  0  0  0  0  0  0  0
  137.8120   70.4540  221.9440 N   0  0  0  0  0  0  0  0  0  0  0  0
  136.6730   70.6520  221.0300 C   0  0  0  0  0  0  0  0  0  0  0  0
  136.1830   72.0130  221.4780 C   0  0  2  0  0  0  0  0  0  0  0  0
  136.3740   72.8870  220.4020 O   0  0  0  0  0  0  0  0  0  0  0  0
  137.1460   72.4830  222.5690 C   0  0  0  0  0  0  0  0  0  0  0  0
  138.4060   71.7820  222.0420 C   0  0  1  0  0  0  0  0  0  0  0  0
  139.5290   71.7970  222.9830 C   0  0  0  0  0  0  0  0  0  0  0  0
  139.3320   71.4270  224.2570 O   0  0  0  0  0  0  0  0  0  0  0  0
  140.3120   71.4650  225.1740 C   0  0  0  0  0  0  0  0  0  0  0  0
  140.3360   70.3580  226.1640 C   0  0  0  0  0  0  0  0  0  0  0  0
  140.3360   70.5580  227.5290 C   0  0  0  0  0  0  0  0  0  0  0  0
  140.3600   69.5020  228.4140 C   0  0  0  0  0  0  0  0  0  0  0  0
  140.3830   68.1890  227.9820 C   0  0  0  0  0  0  0  0  0  0  0  0
  140.3820   67.9800  226.6190 C   0  0  0  0  0  0  0  0  0  0  0  0
  140.3590   69.0280  225.7260 C   0  0  0  0  0  0  0  0  0  0  0  0
  134.7580   70.7790  225.4980 C   0  0  0  0  0  0  0  0  0  0  0  0
  133.7530   70.4320  226.3950 C   0  0  0  0  0  0  0  0  0  0  0  0
  133.0120   71.4300  226.9690 C   0  0  0  0  0  0  0  0  0  0  0  0
  133.2720   72.7440  226.6520 C   0  0  0  0  0  0  0  0  0  0  0  0
  132.5300   73.7360  227.2290 C   0  0  0  0  0  0  0  0  0  0  0  0
  132.8280   75.0490  226.8810 C   0  0  0  0  0  0  0  0  0  0  0  0
  131.9180   76.3650  227.5800 Cl  0  0  0  0  0  0  0  0  0  0  0  0
  133.8290   75.3610  225.9900 C   0  0  0  0  0  0  0  0  0  0  0  0
  134.5790   74.3540  225.4090 C   0  0  0  0  0  0  0  0  0  0  0  0
  134.2740   73.0560  225.7620 C   0  0  0  0  0  0  0  0  0  0  0  0
  135.0020   72.0740  225.1980 N   0  0  0  0  0  0  0  0  0  0  0  0
  137.2340   70.9310  224.6060 H   0  0  0  0  0  0  0  0  0  0  0  0
  138.4467   68.6309  224.5631 H   0  0  0  0  0  0  0  0  0  0  0  0
  136.9331   68.0592  223.7138 H   0  0  0  0  0  0  0  0  0  0  0  0
  136.9952   70.6638  219.9783 H   0  0  0  0  0  0  0  0  0  0  0  0
  135.9128   69.8580  221.0710 H   0  0  0  0  0  0  0  0  0  0  0  0
  135.1365   71.9812  221.8154 H   0  0  0  0  0  0  0  0  0  0  0  0
  136.5530   72.3930  219.5760 H   0  0  0  0  0  0  0  0  0  0  0  0
  137.2535   73.5775  222.5892 H   0  0  0  0  0  0  0  0  0  0  0  0
  136.8578   72.2524  223.6052 H   0  0  0  0  0  0  0  0  0  0  0  0
  138.8596   72.2181  221.1398 H   0  0  0  0  0  0  0  0  0  0  0  0
  140.2991   71.1279  222.5717 H   0  0  0  0  0  0  0  0  0  0  0  0
  139.7834   72.8642  223.0621 H   0  0  0  0  0  0  0  0  0  0  0  0
  141.2723   71.4546  224.6376 H   0  0  0  0  0  0  0  0  0  0  0  0
  140.1266   72.3767  225.7609 H   0  0  0  0  0  0  0  0  0  0  0  0
  140.3164   71.5858  227.9206 H   0  0  0  0  0  0  0  0  0  0  0  0
  140.3609   69.7096  229.4942 H   0  0  0  0  0  0  0  0  0  0  0  0
  140.4012   67.3497  228.6928 H   0  0  0  0  0  0  0  0  0  0  0  0
  140.4001   66.9493  226.2351 H   0  0  0  0  0  0  0  0  0  0  0  0
  140.3587   68.8162  224.6466 H   0  0  0  0  0  0  0  0  0  0  0  0
  133.5576   69.3772  226.6382 H   0  0  0  0  0  0  0  0  0  0  0  0
  132.2112   71.1825  227.6814 H   0  0  0  0  0  0  0  0  0  0  0  0
  131.7260   73.5042  227.9430 H   0  0  0  0  0  0  0  0  0  0  0  0
  134.0332   76.4124  225.7393 H   0  0  0  0  0  0  0  0  0  0  0  0
  135.3851   74.5792  224.6952 H   0  0  0  0  0  0  0  0  0  0  0  0
  1  2  2  0
  2  3  1  0
  3  4  1  0
  4  5  1  0
  5  6  2  0
  5  7  1  0
  7  8  1  0
  8  9  1  0
  9 10  1  0
  9 11  1  0
 11 12  1  0
 12 13  1  0
 13 14  1  0
 14 15  1  0
 15 16  1  0
 16 17  2  0
 17 18  1  0
 18 19  2  0
 19 20  1  0
 20 21  2  0
  2 22  1  0
 22 23  2  0
 23 24  1  0
 24 25  2  0
 25 26  1  0
 26 27  2  0
 27 28  1  0
 27 29  1  0
 29 30  2  0
 30 31  1  0
 31 32  2  0
 12  7  1  0
 21 16  1  0
 32 22  1  0
 31 25  1  0
  3 33  1  0
  4 34  1  0
  4 35  1  0
  8 36  1  0
  8 37  1  0
  9 38  1  1
 10 39  1  0
 11 40  1  0
 11 41  1  0
 12 42  1  6
 13 43  1  0
 13 44  1  0
 15 45  1  0
 15 46  1  0
 17 47  1  0
 18 48  1  0
 19 49  1  0
 20 50  1  0
 21 51  1  0
 23 52  1  0
 24 53  1  0
 26 54  1  0
 29 55  1  0
 30 56  1  0
M  END
>  <smiles>  (4) 
O=C(NCC(=O)N1C[C@H](O)C[C@H]1COCc1ccccc1)c1ccc2cc(Cl)ccc2n1

>  <score_type>  (4) 
oracle

>  <origin>  (4) 
autodockgpu

>  <m_score__min__energy>  (4) 
-8.9399999999999995

>  <m_primary>  (4) 
energy

>  <rmsd>  (4) 
6.808662100578722

>  <m_score__min__rmsd>  (4) 
6.808662100578722

>  <meeko>  (4) 
{"free_energy": -6.72, "intermolecular_energy": -9.41, "internal_energy": -3.24, "cluster_size": 6, "cluster_id": 2, "rank_in_cluster": 6}

>  <energy>  (4) 
-8.46

>  <cluster_rmsd>  (4) 
1.87

>  <cluster>  (4) 
1

$$$$

     RDKit          3D

 56 59  0  0  0  0  0  0  0  0999 V2000
  133.3100   70.0130  226.1620 O   0  0  0  0  0  0  0  0  0  0  0  0
  133.4170   71.1170  225.5620 C   0  0  0  0  0  0  0  0  0  0  0  0
  133.9630   71.1580  224.2460 N   0  0  0  0  0  0  0  0  0  0  0  0
  134.3770   69.9350  223.6430 C   0  0  0  0  0  0  0  0  0  0  0  0
  135.5890   69.3560  224.2570 C   0  0  0  0  0  0  0  0  0  0  0  0
  135.4270   68.5240  225.1840 O   0  0  0  0  0  0  0  0  0  0  0  0
  136.8580   69.7650  223.7700 N   0  0  0  0  0  0  0  0  0  0  0  0
  137.1260   70.6820  222.6470 C   0  0  0  0  0  0  0  0  0  0  0  0
  138.3200   71.4460  223.1830 C   0  0  2  0  0  0  0  0  0  0  0  0
  139.4030   71.1370  222.3530 O   0  0  0  0  0  0  0  0  0  0  0  0
  138.6520   70.8310  224.5430 C   0  0  0  0  0  0  0  0  0  0  0  0
  138.1900   69.3990  224.2370 C   0  0  1  0  0  0  0  0  0  0  0  0
  138.1240   68.5340  225.4160 C   0  0  0  0  0  0  0  0  0  0  0  0
  139.1630   67.7390  225.7150 O   0  0  0  0  0  0  0  0  0  0  0  0
  140.3570   68.2280  226.0860 C   0  0  0  0  0  0  0  0  0  0  0  0
  140.3400   69.4820  226.8840 C   0  0  0  0  0  0  0  0  0  0  0  0
  139.5680   69.6540  228.0130 C   0  0  0  0  0  0  0  0  0  0  0  0
  139.5800   70.8340  228.7240 C   0  0  0  0  0  0  0  0  0  0  0  0
  140.3680   71.9050  228.3450 C   0  0  0  0  0  0  0  0  0  0  0  0
  141.1440   71.7410  227.2170 C   0  0  0  0  0  0  0  0  0  0  0  0
  141.1390   70.5660  226.4990 C   0  0  0  0  0  0  0  0  0  0  0  0
  132.9860   72.3760  226.1940 C   0  0  0  0  0  0  0  0  0  0  0  0
  131.8890   72.3310  227.0490 C   0  0  0  0  0  0  0  0  0  0  0  0
  131.4730   73.4900  227.6460 C   0  0  0  0  0  0  0  0  0  0  0  0
  132.1400   74.6680  227.3920 C   0  0  0  0  0  0  0  0  0  0  0  0
  131.7210   75.8220  227.9910 C   0  0  0  0  0  0  0  0  0  0  0  0
  132.4240   76.9870  227.7080 C   0  0  0  0  0  0  0  0  0  0  0  0
  131.9410   78.4980  228.4390 Cl  0  0  0  0  0  0  0  0  0  0  0  0
  133.5060   77.0020  226.8570 C   0  0  0  0  0  0  0  0  0  0  0  0
  133.9280   75.8310  226.2530 C   0  0  0  0  0  0  0  0  0  0  0  0
  133.2220   74.6810  226.5430 C   0  0  0  0  0  0  0  0  0  0  0  0
  133.6310   73.5400  225.9560 N   0  0  0  0  0  0  0  0  0  0  0  0
  134.0310   72.0990  223.7900 H   0  0  0  0  0  0  0  0  0  0  0  0
  133.5580   69.2065  223.7354 H   0  0  0  0  0  0  0  0  0  0  0  0
  134.6208   70.1579  222.5938 H   0  0  0  0  0  0  0  0  0  0  0  0
  137.3763   70.1332  221.7271 H   0  0  0  0  0  0  0  0  0  0  0  0
  136.2721   71.3137  222.3611 H   0  0  0  0  0  0  0  0  0  0  0  0
  138.1250   72.5272  223.2382 H   0  0  0  0  0  0  0  0  0  0  0  0
  139.2490   71.4550  221.4410 H   0  0  0  0  0  0  0  0  0  0  0  0
  139.7260   70.8835  224.7748 H   0  0  0  0  0  0  0  0  0  0  0  0
  138.1944   71.3129  225.4195 H   0  0  0  0  0  0  0  0  0  0  0  0
  138.8365   68.8164  223.5642 H   0  0  0  0  0  0  0  0  0  0  0  0
  137.9635   69.1897  226.2845 H   0  0  0  0  0  0  0  0  0  0  0  0
  137.3205   67.8244  225.1692 H   0  0  0  0  0  0  0  0  0  0  0  0
  140.8625   67.4568  226.6857 H   0  0  0  0  0  0  0  0  0  0  0  0
  140.8706   68.4861  225.1481 H   0  0  0  0  0  0  0  0  0  0  0  0
  138.9263   68.8285  228.3548 H   0  0  0  0  0  0  0  0  0  0  0  0
  138.9453   70.9266  229.6176 H   0  0  0  0  0  0  0  0  0  0  0  0
  140.3755   72.8446  228.9169 H   0  0  0  0  0  0  0  0  0  0  0  0
  141.7839   72.5706  226.8819 H   0  0  0  0  0  0  0  0  0  0  0  0
  141.7748   70.4770  225.6058 H   0  0  0  0  0  0  0  0  0  0  0  0
  131.3664   71.3823  227.2412 H   0  0  0  0  0  0  0  0  0  0  0  0
  130.6088   73.4808  228.3265 H   0  0  0  0  0  0  0  0  0  0  0  0
  130.8580   75.8289  228.6730 H   0  0  0  0  0  0  0  0  0  0  0  0
  134.0352   77.9454  226.6571 H   0  0  0  0  0  0  0  0  0  0  0  0
  134.7902   75.8171  225.5701 H   0  0  0  0  0  0  0  0  0  0  0  0
  1  2  2  0
  2  3  1  0
  3  4  1  0
  4  5  1  0
  5  6  2  0
  5  7  1  0
  7  8  1  0
  8  9  1  0
  9 10  1  0
  9 11  1  0
 11 12  1  0
 12 13  1  0
 13 14  1  0
 14 15  1  0
 15 16  1  0
 16 17  2  0
 17 18  1  0
 18 19  2  0
 19 20  1  0
 20 21  2  0
  2 22  1  0
 22 23  2  0
 23 24  1  0
 24 25  2  0
 25 26  1  0
 26 27  2  0
 27 28  1  0
 27 29  1  0
 29 30  2  0
 30 31  1  0
 31 32  2  0
 12  7  1  0
 21 16  1  0
 32 22  1  0
 31 25  1  0
  3 33  1  0
  4 34  1  0
  4 35  1  0
  8 36  1  0
  8 37  1  0
  9 38  1  1
 10 39  1  0
 11 40  1  0
 11 41  1  0
 12 42  1  6
 13 43  1  0
 13 44  1  0
 15 45  1  0
 15 46  1  0
 17 47  1  0
 18 48  1  0
 19 49  1  0
 20 50  1  0
 21 51  1  0
 23 52  1  0
 24 53  1  0
 26 54  1  0
 29 55  1  0
 30 56  1  0
M  END
>  <smiles>  (5) 
O=C(NCC(=O)N1C[C@H](O)C[C@H]1COCc1ccccc1)c1ccc2cc(Cl)ccc2n1

>  <score_type>  (5) 
oracle

>  <origin>  (5) 
autodockgpu

>  <m_score__min__energy>  (5) 
-8.9399999999999995

>  <m_primary>  (5) 
energy

>  <rmsd>  (5) 
8.419231039529405

>  <m_score__min__rmsd>  (5) 
8.419231039529405

>  <meeko>  (5) 
{"free_energy": -8.41, "intermolecular_energy": -11.1, "internal_energy": -1.62, "cluster_size": 6, "cluster_id": 2, "rank_in_cluster": 2}

>  <energy>  (5) 
-8.46

>  <cluster_rmsd>  (5) 
1.88

>  <cluster>  (5) 
1

$$$$

     RDKit          3D

 56 59  0  0  0  0  0  0  0  0999 V2000
  141.5360   72.2310  221.0250 O   0  0  0  0  0  0  0  0  0  0  0  0
  140.9220   73.1190  221.6770 C   0  0  0  0  0  0  0  0  0  0  0  0
  139.9920   72.7400  222.6880 N   0  0  0  0  0  0  0  0  0  0  0  0
  139.7830   71.3520  222.9330 C   0  0  0  0  0  0  0  0  0  0  0  0
  138.3580   70.9850  223.0670 C   0  0  0  0  0  0  0  0  0  0  0  0
  137.5640   71.8800  223.4490 O   0  0  0  0  0  0  0  0  0  0  0  0
  137.9680   69.6550  222.7610 N   0  0  0  0  0  0  0  0  0  0  0  0
  137.6420   69.1090  221.4310 C   0  0  0  0  0  0  0  0  0  0  0  0
  138.2540   67.7270  221.5340 C   0  0  2  0  0  0  0  0  0  0  0  0
  137.1980   66.8110  221.4630 O   0  0  0  0  0  0  0  0  0  0  0  0
  138.8130   67.6050  222.9520 C   0  0  0  0  0  0  0  0  0  0  0  0
  137.7920   68.5140  223.6510 C   0  0  1  0  0  0  0  0  0  0  0  0
  138.1480   68.8520  225.0310 C   0  0  0  0  0  0  0  0  0  0  0  0
  138.8540   67.9800  225.7660 O   0  0  0  0  0  0  0  0  0  0  0  0
  140.1320   68.2060  226.1130 C   0  0  0  0  0  0  0  0  0  0  0  0
  140.4560   69.5730  226.5960 C   0  0  0  0  0  0  0  0  0  0  0  0
  141.1650   70.4930  225.8540 C   0  0  0  0  0  0  0  0  0  0  0  0
  141.4460   71.7520  226.3390 C   0  0  0  0  0  0  0  0  0  0  0  0
  141.0310   72.1580  227.5940 C   0  0  0  0  0  0  0  0  0  0  0  0
  140.3200   71.2440  228.3430 C   0  0  0  0  0  0  0  0  0  0  0  0
  140.0350   69.9840  227.8670 C   0  0  0  0  0  0  0  0  0  0  0  0
  141.1460   74.5520  221.4150 C   0  0  0  0  0  0  0  0  0  0  0  0
  141.9810   74.8960  220.3570 C   0  0  0  0  0  0  0  0  0  0  0  0
  142.2020   76.2210  220.0970 C   0  0  0  0  0  0  0  0  0  0  0  0
  141.6000   77.1810  220.8810 C   0  0  0  0  0  0  0  0  0  0  0  0
  141.8230   78.5020  220.6170 C   0  0  0  0  0  0  0  0  0  0  0  0
  141.1960   79.4370  221.4330 C   0  0  0  0  0  0  0  0  0  0  0  0
  141.4380   81.1440  221.1520 Cl  0  0  0  0  0  0  0  0  0  0  0  0
  140.3750   79.0670  222.4740 C   0  0  0  0  0  0  0  0  0  0  0  0
  140.1500   77.7280  222.7370 C   0  0  0  0  0  0  0  0  0  0  0  0
  140.7790   76.8100  221.9210 C   0  0  0  0  0  0  0  0  0  0  0  0
  140.5620   75.5060  222.1750 N   0  0  0  0  0  0  0  0  0  0  0  0
  139.5080   73.5150  223.2010 H   0  0  0  0  0  0  0  0  0  0  0  0
  140.2120   70.7822  222.0956 H   0  0  0  0  0  0  0  0  0  0  0  0
  140.2693   71.1158  223.8910 H   0  0  0  0  0  0  0  0  0  0  0  0
  136.5551   69.0594  221.2690 H   0  0  0  0  0  0  0  0  0  0  0  0
  138.0138   69.7102  220.5882 H   0  0  0  0  0  0  0  0  0  0  0  0
  139.0147   67.5562  220.7581 H   0  0  0  0  0  0  0  0  0  0  0  0
  137.0650   66.4990  220.5450 H   0  0  0  0  0  0  0  0  0  0  0  0
  138.7793   66.5717  223.3276 H   0  0  0  0  0  0  0  0  0  0  0  0
  139.8721   67.8721  223.0824 H   0  0  0  0  0  0  0  0  0  0  0  0
  136.7803   68.0996  223.7726 H   0  0  0  0  0  0  0  0  0  0  0  0
  138.7325   69.7830  224.9912 H   0  0  0  0  0  0  0  0  0  0  0  0
  137.1760   68.8932  225.5444 H   0  0  0  0  0  0  0  0  0  0  0  0
  140.3908   67.4983  226.9144 H   0  0  0  0  0  0  0  0  0  0  0  0
  140.7118   68.0795  225.1868 H   0  0  0  0  0  0  0  0  0  0  0  0
  141.5155   70.2152  224.8490 H   0  0  0  0  0  0  0  0  0  0  0  0
  142.0157   72.4527  225.7109 H   0  0  0  0  0  0  0  0  0  0  0  0
  141.2576   73.1638  227.9773 H   0  0  0  0  0  0  0  0  0  0  0  0
  139.9716   71.5291  229.3467 H   0  0  0  0  0  0  0  0  0  0  0  0
  139.4651   69.2859  228.4977 H   0  0  0  0  0  0  0  0  0  0  0  0
  142.4547   74.1175  219.7410 H   0  0  0  0  0  0  0  0  0  0  0  0
  142.8576   76.5187  219.2654 H   0  0  0  0  0  0  0  0  0  0  0  0
  142.4753   78.8152  219.7885 H   0  0  0  0  0  0  0  0  0  0  0  0
  139.8973   79.8372  223.0974 H   0  0  0  0  0  0  0  0  0  0  0  0
  139.4968   77.4081  223.5623 H   0  0  0  0  0  0  0  0  0  0  0  0
  1  2  2  0
  2  3  1  0
  3  4  1  0
  4  5  1  0
  5  6  2  0
  5  7  1  0
  7  8  1  0
  8  9  1  0
  9 10  1  0
  9 11  1  0
 11 12  1  0
 12 13  1  0
 13 14  1  0
 14 15  1  0
 15 16  1  0
 16 17  2  0
 17 18  1  0
 18 19  2  0
 19 20  1  0
 20 21  2  0
  2 22  1  0
 22 23  2  0
 23 24  1  0
 24 25  2  0
 25 26  1  0
 26 27  2  0
 27 28  1  0
 27 29  1  0
 29 30  2  0
 30 31  1  0
 31 32  2  0
 12  7  1  0
 21 16  1  0
 32 22  1  0
 31 25  1  0
  3 33  1  0
  4 34  1  0
  4 35  1  0
  8 36  1  0
  8 37  1  0
  9 38  1  6
 10 39  1  0
 11 40  1  0
 11 41  1  0
 12 42  1  1
 13 43  1  0
 13 44  1  0
 15 45  1  0
 15 46  1  0
 17 47  1  0
 18 48  1  0
 19 49  1  0
 20 50  1  0
 21 51  1  0
 23 52  1  0
 24 53  1  0
 26 54  1  0
 29 55  1  0
 30 56  1  0
M  END
>  <smiles>  (6) 
O=C(NCC(=O)N1C[C@H](O)C[C@H]1COCc1ccccc1)c1ccc2cc(Cl)ccc2n1

>  <score_type>  (6) 
oracle

>  <origin>  (6) 
autodockgpu

>  <m_score__min__energy>  (6) 
-8.9399999999999995

>  <m_primary>  (6) 
energy

>  <rmsd>  (6) 
8.163510569467093

>  <m_score__min__rmsd>  (6) 
8.163510569467093

>  <meeko>  (6) 
{"free_energy": -8.52, "intermolecular_energy": -11.21, "internal_energy": -2.26, "cluster_size": 12, "cluster_id": 3, "rank_in_cluster": 2}

>  <energy>  (6) 
-8.44

>  <cluster_rmsd>  (6) 
1.26

>  <cluster>  (6) 
1

$$$$

     RDKit          3D

 56 59  0  0  0  0  0  0  0  0999 V2000
  138.8800   71.5080  220.9240 O   0  0  0  0  0  0  0  0  0  0  0  0
  139.2180   71.9860  222.0410 C   0  0  0  0  0  0  0  0  0  0  0  0
  139.3720   73.3950  222.1920 N   0  0  0  0  0  0  0  0  0  0  0  0
  139.1370   74.2300  221.0600 C   0  0  0  0  0  0  0  0  0  0  0  0
  140.1570   74.0890  220.0020 C   0  0  0  0  0  0  0  0  0  0  0  0
  139.7700   74.1760  218.8100 O   0  0  0  0  0  0  0  0  0  0  0  0
  141.5060   73.8650  220.3840 N   0  0  0  0  0  0  0  0  0  0  0  0
  142.1090   72.5900  220.8110 C   0  0  0  0  0  0  0  0  0  0  0  0
  143.4720   72.6880  220.1580 C   0  0  2  0  0  0  0  0  0  0  0  0
  144.4130   72.7430  221.1930 O   0  0  0  0  0  0  0  0  0  0  0  0
  143.5280   74.0550  219.4750 C   0  0  0  0  0  0  0  0  0  0  0  0
  142.6160   74.8080  220.4540 C   0  0  1  0  0  0  0  0  0  0  0  0
  142.2190   76.1380  219.9870 C   0  0  0  0  0  0  0  0  0  0  0  0
  141.8580   77.0730  220.8790 O   0  0  0  0  0  0  0  0  0  0  0  0
  141.6750   78.3580  220.5350 C   0  0  0  0  0  0  0  0  0  0  0  0
  141.7980   79.3600  221.6260 C   0  0  0  0  0  0  0  0  0  0  0  0
  142.0690   79.0280  222.9360 C   0  0  0  0  0  0  0  0  0  0  0  0
  142.1740   79.9880  223.9190 C   0  0  0  0  0  0  0  0  0  0  0  0
  142.0140   81.3330  223.6430 C   0  0  0  0  0  0  0  0  0  0  0  0
  141.7440   81.6740  222.3340 C   0  0  0  0  0  0  0  0  0  0  0  0
  141.6370   80.7230  221.3450 C   0  0  0  0  0  0  0  0  0  0  0  0
  139.4600   71.1150  223.2050 C   0  0  0  0  0  0  0  0  0  0  0  0
  139.0790   69.7800  223.1060 C   0  0  0  0  0  0  0  0  0  0  0  0
  139.2950   68.9540  224.1760 C   0  0  0  0  0  0  0  0  0  0  0  0
  139.8770   69.4540  225.3190 C   0  0  0  0  0  0  0  0  0  0  0  0
  140.0900   68.6250  226.3840 C   0  0  0  0  0  0  0  0  0  0  0  0
  140.6810   69.1710  227.5180 C   0  0  0  0  0  0  0  0  0  0  0  0
  140.9820   68.1690  228.9150 Cl  0  0  0  0  0  0  0  0  0  0  0  0
  141.0470   70.4970  227.5870 C   0  0  0  0  0  0  0  0  0  0  0  0
  140.8300   71.3320  226.5060 C   0  0  0  0  0  0  0  0  0  0  0  0
  140.2430   70.7790  225.3870 C   0  0  0  0  0  0  0  0  0  0  0  0
  140.0310   71.5900  224.3340 N   0  0  0  0  0  0  0  0  0  0  0  0
  139.6550   73.7430  223.1390 H   0  0  0  0  0  0  0  0  0  0  0  0
  138.1561   73.9717  220.6345 H   0  0  0  0  0  0  0  0  0  0  0  0
  139.1780   75.2713  221.4121 H   0  0  0  0  0  0  0  0  0  0  0  0
  142.1885   72.5265  221.9063 H   0  0  0  0  0  0  0  0  0  0  0  0
  141.5323   71.6966  220.5295 H   0  0  0  0  0  0  0  0  0  0  0  0
  143.6554   71.8548  219.4636 H   0  0  0  0  0  0  0  0  0  0  0  0
  144.8520   71.8770  221.3150 H   0  0  0  0  0  0  0  0  0  0  0  0
  144.5469   74.4687  219.4498 H   0  0  0  0  0  0  0  0  0  0  0  0
  143.2329   74.0823  218.4157 H   0  0  0  0  0  0  0  0  0  0  0  0
  143.0466   75.0329  221.4409 H   0  0  0  0  0  0  0  0  0  0  0  0
  143.0709   76.5462  219.4233 H   0  0  0  0  0  0  0  0  0  0  0  0
  141.2929   75.9475  219.4249 H   0  0  0  0  0  0  0  0  0  0  0  0
  142.4209   78.6077  219.7661 H   0  0  0  0  0  0  0  0  0  0  0  0
  140.6305   78.4230  220.1961 H   0  0  0  0  0  0  0  0  0  0  0  0
  142.2049   77.9697  223.2036 H   0  0  0  0  0  0  0  0  0  0  0  0
  142.3910   79.6756  224.9512 H   0  0  0  0  0  0  0  0  0  0  0  0
  142.0981   82.0961  224.4308 H   0  0  0  0  0  0  0  0  0  0  0  0
  141.6107   82.7344  222.0737 H   0  0  0  0  0  0  0  0  0  0  0  0
  141.4208   81.0392  220.3138 H   0  0  0  0  0  0  0  0  0  0  0  0
  138.6135   69.3963  222.1862 H   0  0  0  0  0  0  0  0  0  0  0  0
  139.0045   67.8944  224.1227 H   0  0  0  0  0  0  0  0  0  0  0  0
  139.8041   67.5635  226.3457 H   0  0  0  0  0  0  0  0  0  0  0  0
  141.5121   70.8921  228.5022 H   0  0  0  0  0  0  0  0  0  0  0  0
  141.1141   72.3942  226.5374 H   0  0  0  0  0  0  0  0  0  0  0  0
  1  2  2  0
  2  3  1  0
  3  4  1  0
  4  5  1  0
  5  6  2  0
  5  7  1  0
  7  8  1  0
  8  9  1  0
  9 10  1  0
  9 11  1  0
 11 12  1  0
 12 13  1  0
 13 14  1  0
 14 15  1  0
 15 16  1  0
 16 17  2  0
 17 18  1  0
 18 19  2  0
 19 20  1  0
 20 21  2  0
  2 22  1  0
 22 23  2  0
 23 24  1  0
 24 25  2  0
 25 26  1  0
 26 27  2  0
 27 28  1  0
 27 29  1  0
 29 30  2  0
 30 31  1  0
 31 32  2  0
 12  7  1  0
 21 16  1  0
 32 22  1  0
 31 25  1  0
  3 33  1  0
  4 34  1  0
  4 35  1  0
  8 36  1  0
  8 37  1  0
  9 38  1  6
 10 39  1  0
 11 40  1  0
 11 41  1  0
 12 42  1  1
 13 43  1  0
 13 44  1  0
 15 45  1  0
 15 46  1  0
 17 47  1  0
 18 48  1  0
 19 49  1  0
 20 50  1  0
 21 51  1  0
 23 52  1  0
 24 53  1  0
 26 54  1  0
 29 55  1  0
 30 56  1  0
M  END
>  <smiles>  (7) 
O=C(NCC(=O)N1C[C@H](O)C[C@H]1COCc1ccccc1)c1ccc2cc(Cl)ccc2n1

>  <score_type>  (7) 
oracle

>  <origin>  (7) 
autodockgpu

>  <m_score__min__energy>  (7) 
-8.9399999999999995

>  <m_primary>  (7) 
energy

>  <rmsd>  (7) 
2.6090170028693835

>  <m_score__min__rmsd>  (7) 
2.6090170028693835

>  <meeko>  (7) 
{"free_energy": -8.44, "intermolecular_energy": -11.13, "internal_energy": -1.77, "cluster_size": 16, "cluster_id": 1, "rank_in_cluster": 6}

>  <energy>  (7) 
-8.41

>  <cluster_rmsd>  (7) 
0.45

>  <cluster>  (7) 
1

$$$$

     RDKit          3D

 56 59  0  0  0  0  0  0  0  0999 V2000
  141.7590   72.3820  220.9830 O   0  0  0  0  0  0  0  0  0  0  0  0
  141.0710   73.2310  221.6120 C   0  0  0  0  0  0  0  0  0  0  0  0
  140.1130   72.7950  222.5730 N   0  0  0  0  0  0  0  0  0  0  0  0
  139.9620   71.3950  222.7960 C   0  0  0  0  0  0  0  0  0  0  0  0
  138.5760   70.9960  223.1140 C   0  0  0  0  0  0  0  0  0  0  0  0
  137.8540   71.8330  223.7090 O   0  0  0  0  0  0  0  0  0  0  0  0
  138.1390   69.6990  222.7330 N   0  0  0  0  0  0  0  0  0  0  0  0
  137.9550   69.1910  221.3620 C   0  0  0  0  0  0  0  0  0  0  0  0
  138.4520   67.7690  221.5170 C   0  0  2  0  0  0  0  0  0  0  0  0
  137.3540   66.9300  221.2910 O   0  0  0  0  0  0  0  0  0  0  0  0
  138.8100   67.5930  222.9930 C   0  0  0  0  0  0  0  0  0  0  0  0
  137.7700   68.5640  223.5710 C   0  0  1  0  0  0  0  0  0  0  0  0
  137.9640   68.8620  224.9910 C   0  0  0  0  0  0  0  0  0  0  0  0
  138.7870   68.0960  225.7230 O   0  0  0  0  0  0  0  0  0  0  0  0
  140.0880   68.3880  225.8790 C   0  0  0  0  0  0  0  0  0  0  0  0
  140.4030   69.7010  226.4990 C   0  0  0  0  0  0  0  0  0  0  0  0
  140.0080   70.0560  227.7710 C   0  0  0  0  0  0  0  0  0  0  0  0
  140.3200   71.2860  228.3080 C   0  0  0  0  0  0  0  0  0  0  0  0
  141.0460   72.2270  227.6020 C   0  0  0  0  0  0  0  0  0  0  0  0
  141.4460   71.8800  226.3290 C   0  0  0  0  0  0  0  0  0  0  0  0
  141.1390   70.6530  225.7820 C   0  0  0  0  0  0  0  0  0  0  0  0
  141.2340   74.6760  221.3740 C   0  0  0  0  0  0  0  0  0  0  0  0
  142.0590   75.0720  220.3260 C   0  0  0  0  0  0  0  0  0  0  0  0
  142.2250   76.4100  220.0880 C   0  0  0  0  0  0  0  0  0  0  0  0
  141.5790   77.3300  220.8840 C   0  0  0  0  0  0  0  0  0  0  0  0
  141.7470   78.6640  220.6420 C   0  0  0  0  0  0  0  0  0  0  0  0
  141.0760   79.5580  221.4680 C   0  0  0  0  0  0  0  0  0  0  0  0
  141.2470   81.2780  221.2160 Cl  0  0  0  0  0  0  0  0  0  0  0  0
  140.2660   79.1370  222.4990 C   0  0  0  0  0  0  0  0  0  0  0  0
  140.0980   77.7850  222.7390 C   0  0  0  0  0  0  0  0  0  0  0  0
  140.7690   76.9090  221.9130 C   0  0  0  0  0  0  0  0  0  0  0  0
  140.6070   75.5920  222.1450 N   0  0  0  0  0  0  0  0  0  0  0  0
  139.5660   73.5390  223.0680 H   0  0  0  0  0  0  0  0  0  0  0  0
  140.2784   70.8615  221.8876 H   0  0  0  0  0  0  0  0  0  0  0  0
  140.5814   71.1372  223.6677 H   0  0  0  0  0  0  0  0  0  0  0  0
  136.8982   69.2196  221.0582 H   0  0  0  0  0  0  0  0  0  0  0  0
  138.4751   69.7732  220.5870 H   0  0  0  0  0  0  0  0  0  0  0  0
  139.2947   67.5533  220.8437 H   0  0  0  0  0  0  0  0  0  0  0  0
  136.5400   67.4500  221.1410 H   0  0  0  0  0  0  0  0  0  0  0  0
  138.6570   66.5606  223.3404 H   0  0  0  0  0  0  0  0  0  0  0  0
  139.8584   67.7838  223.2656 H   0  0  0  0  0  0  0  0  0  0  0  0
  136.7252   68.2203  223.5523 H   0  0  0  0  0  0  0  0  0  0  0  0
  138.3473   69.8913  225.0518 H   0  0  0  0  0  0  0  0  0  0  0  0
  136.9745   68.6697  225.4314 H   0  0  0  0  0  0  0  0  0  0  0  0
  140.5329   67.6049  226.5105 H   0  0  0  0  0  0  0  0  0  0  0  0
  140.4986   68.4413  224.8599 H   0  0  0  0  0  0  0  0  0  0  0  0
  139.4293   69.3395  228.3724 H   0  0  0  0  0  0  0  0  0  0  0  0
  139.9820   71.5258  229.3269 H   0  0  0  0  0  0  0  0  0  0  0  0
  141.2931   73.2072  228.0358 H   0  0  0  0  0  0  0  0  0  0  0  0
  142.0254   72.6016  225.7344 H   0  0  0  0  0  0  0  0  0  0  0  0
  141.4785   70.4166  224.7627 H   0  0  0  0  0  0  0  0  0  0  0  0
  142.5683   74.3242  219.7004 H   0  0  0  0  0  0  0  0  0  0  0  0
  142.8713   76.7488  219.2649 H   0  0  0  0  0  0  0  0  0  0  0  0
  142.3902   79.0179  219.8228 H   0  0  0  0  0  0  0  0  0  0  0  0
  139.7525   79.8758  223.1318 H   0  0  0  0  0  0  0  0  0  0  0  0
  139.4554   77.4239  223.5555 H   0  0  0  0  0  0  0  0  0  0  0  0
  1  2  2  0
  2  3  1  0
  3  4  1  0
  4  5  1  0
  5  6  2  0
  5  7  1  0
  7  8  1  0
  8  9  1  0
  9 10  1  0
  9 11  1  0
 11 12  1  0
 12 13  1  0
 13 14  1  0
 14 15  1  0
 15 16  1  0
 16 17  2  0
 17 18  1  0
 18 19  2  0
 19 20  1  0
 20 21  2  0
  2 22  1  0
 22 23  2  0
 23 24  1  0
 24 25  2  0
 25 26  1  0
 26 27  2  0
 27 28  1  0
 27 29  1  0
 29 30  2  0
 30 31  1  0
 31 32  2  0
 12  7  1  0
 21 16  1  0
 32 22  1  0
 31 25  1  0
  3 33  1  0
  4 34  1  0
  4 35  1  0
  8 36  1  0
  8 37  1  0
  9 38  1  6
 10 39  1  0
 11 40  1  0
 11 41  1  0
 12 42  1  1
 13 43  1  0
 13 44  1  0
 15 45  1  0
 15 46  1  0
 17 47  1  0
 18 48  1  0
 19 49  1  0
 20 50  1  0
 21 51  1  0
 23 52  1  0
 24 53  1  0
 26 54  1  0
 29 55  1  0
 30 56  1  0
M  END
>  <smiles>  (8) 
O=C(NCC(=O)N1C[C@H](O)C[C@H]1COCc1ccccc1)c1ccc2cc(Cl)ccc2n1

>  <score_type>  (8) 
oracle

>  <origin>  (8) 
autodockgpu

>  <m_score__min__energy>  (8) 
-8.9399999999999995

>  <m_primary>  (8) 
energy

>  <rmsd>  (8) 
8.202851869591507

>  <m_score__min__rmsd>  (8) 
8.202851869591507

>  <meeko>  (8) 
{"free_energy": -8.33, "intermolecular_energy": -11.02, "internal_energy": -2.35, "cluster_size": 12, "cluster_id": 3, "rank_in_cluster": 6}

>  <energy>  (8) 
-8.4

>  <cluster_rmsd>  (8) 
1.39

>  <cluster>  (8) 
1

$$$$

     RDKit          3D

 56 59  0  0  0  0  0  0  0  0999 V2000
  139.9500   74.4070  222.3450 O   0  0  0  0  0  0  0  0  0  0  0  0
  139.7880   75.3140  221.4840 C   0  0  0  0  0  0  0  0  0  0  0  0
  140.3190   75.1490  220.1720 N   0  0  0  0  0  0  0  0  0  0  0  0
  141.0260   73.9490  219.8700 C   0  0  0  0  0  0  0  0  0  0  0  0
  142.4930   74.1060  219.8990 C   0  0  0  0  0  0  0  0  0  0  0  0
  143.1250   73.4890  220.7930 O   0  0  0  0  0  0  0  0  0  0  0  0
  143.1060   74.9380  218.9250 N   0  0  0  0  0  0  0  0  0  0  0  0
  143.7350   74.5130  217.6620 C   0  0  0  0  0  0  0  0  0  0  0  0
  143.3040   75.6340  216.7390 C   0  0  2  0  0  0  0  0  0  0  0  0
  144.4680   76.3060  216.3480 O   0  0  0  0  0  0  0  0  0  0  0  0
  142.5210   76.6270  217.6000 C   0  0  0  0  0  0  0  0  0  0  0  0
  143.2710   76.3870  218.9180 C   0  0  1  0  0  0  0  0  0  0  0  0
  142.6330   77.0040  220.0820 C   0  0  0  0  0  0  0  0  0  0  0  0
  141.4560   77.6320  219.9380 O   0  0  0  0  0  0  0  0  0  0  0  0
  141.3520   78.9710  219.9440 C   0  0  0  0  0  0  0  0  0  0  0  0
  141.6740   79.6550  221.2230 C   0  0  0  0  0  0  0  0  0  0  0  0
  142.2860   79.0280  222.2870 C   0  0  0  0  0  0  0  0  0  0  0  0
  142.5660   79.6990  223.4580 C   0  0  0  0  0  0  0  0  0  0  0  0
  142.2500   81.0340  223.6260 C   0  0  0  0  0  0  0  0  0  0  0  0
  141.6380   81.6690  222.5660 C   0  0  0  0  0  0  0  0  0  0  0  0
  141.3540   81.0080  221.3920 C   0  0  0  0  0  0  0  0  0  0  0  0
  139.0560   76.5520  221.8060 C   0  0  0  0  0  0  0  0  0  0  0  0
  137.8540   76.7850  221.1450 C   0  0  0  0  0  0  0  0  0  0  0  0
  137.1580   77.9290  221.4280 C   0  0  0  0  0  0  0  0  0  0  0  0
  137.6560   78.8200  222.3530 C   0  0  0  0  0  0  0  0  0  0  0  0
  136.9570   79.9600  222.6330 C   0  0  0  0  0  0  0  0  0  0  0  0
  137.4960   80.8320  223.5730 C   0  0  0  0  0  0  0  0  0  0  0  0
  136.6550   82.3080  223.9780 Cl  0  0  0  0  0  0  0  0  0  0  0  0
  138.6890   80.5750  224.2110 C   0  0  0  0  0  0  0  0  0  0  0  0
  139.3920   79.4190  223.9250 C   0  0  0  0  0  0  0  0  0  0  0  0
  138.8470   78.5630  222.9910 C   0  0  0  0  0  0  0  0  0  0  0  0
  139.5300   77.4370  222.7110 N   0  0  0  0  0  0  0  0  0  0  0  0
  140.1580   75.9310  219.4940 H   0  0  0  0  0  0  0  0  0  0  0  0
  140.7433   73.1835  220.6076 H   0  0  0  0  0  0  0  0  0  0  0  0
  140.7519   73.6619  218.8441 H   0  0  0  0  0  0  0  0  0  0  0  0
  144.8301   74.4615  217.7524 H   0  0  0  0  0  0  0  0  0  0  0  0
  143.4440   73.5075  217.3241 H   0  0  0  0  0  0  0  0  0  0  0  0
  142.7240   75.2606  215.8821 H   0  0  0  0  0  0  0  0  0  0  0  0
  145.2350   76.0190  216.8820 H   0  0  0  0  0  0  0  0  0  0  0  0
  142.6235   77.6623  217.2427 H   0  0  0  0  0  0  0  0  0  0  0  0
  141.4298   76.4915  217.6291 H   0  0  0  0  0  0  0  0  0  0  0  0
  144.2907   76.7956  218.9754 H   0  0  0  0  0  0  0  0  0  0  0  0
  142.4804   76.2056  220.8232 H   0  0  0  0  0  0  0  0  0  0  0  0
  143.3250   77.8144  220.3549 H   0  0  0  0  0  0  0  0  0  0  0  0
  142.0337   79.3626  219.1747 H   0  0  0  0  0  0  0  0  0  0  0  0
  140.2879   79.1813  219.7612 H   0  0  0  0  0  0  0  0  0  0  0  0
  142.5577   77.9657  222.1995 H   0  0  0  0  0  0  0  0  0  0  0  0
  143.0543   79.1572  224.2814 H   0  0  0  0  0  0  0  0  0  0  0  0
  142.4763   81.5654  224.5622 H   0  0  0  0  0  0  0  0  0  0  0  0
  141.3696   82.7315  222.6608 H   0  0  0  0  0  0  0  0  0  0  0  0
  140.8662   81.5533  220.5706 H   0  0  0  0  0  0  0  0  0  0  0  0
  137.4703   76.0633  220.4088 H   0  0  0  0  0  0  0  0  0  0  0  0
  136.2051   78.1360  220.9190 H   0  0  0  0  0  0  0  0  0  0  0  0
  136.0023   80.1803  222.1330 H   0  0  0  0  0  0  0  0  0  0  0  0
  139.0830   81.2897  224.9486 H   0  0  0  0  0  0  0  0  0  0  0  0
  140.3466   79.1915  224.4220 H   0  0  0  0  0  0  0  0  0  0  0  0
  1  2  2  0
  2  3  1  0
  3  4  1  0
  4  5  1  0
  5  6  2  0
  5  7  1  0
  7  8  1  0
  8  9  1  0
  9 10  1  0
  9 11  1  0
 11 12  1  0
 12 13  1  0
 13 14  1  0
 14 15  1  0
 15 16  1  0
 16 17  2  0
 17 18  1  0
 18 19  2  0
 19 20  1  0
 20 21  2  0
  2 22  1  0
 22 23  2  0
 23 24  1  0
 24 25  2  0
 25 26  1  0
 26 27  2  0
 27 28  1  0
 27 29  1  0
 29 30  2  0
 30 31  1  0
 31 32  2  0
 12  7  1  0
 21 16  1  0
 32 22  1  0
 31 25  1  0
  3 33  1  0
  4 34  1  0
  4 35  1  0
  8 36  1  0
  8 37  1  0
  9 38  1  6
 10 39  1  0
 11 40  1  0
 11 41  1  0
 12 42  1  6
 13 43  1  0
 13 44  1  0
 15 45  1  0
 15 46  1  0
 17 47  1  0
 18 48  1  0
 19 49  1  0
 20 50  1  0
 21 51  1  0
 23 52  1  0
 24 53  1  0
 26 54  1  0
 29 55  1  0
 30 56  1  0
M  END
>  <smiles>  (9) 
O=C(NCC(=O)N1C[C@H](O)C[C@H]1COCc1ccccc1)c1ccc2cc(Cl)ccc2n1

>  <score_type>  (9) 
oracle

>  <origin>  (9) 
autodockgpu

>  <m_score__min__energy>  (9) 
-8.9399999999999995

>  <m_primary>  (9) 
energy

>  <rmsd>  (9) 
7.001941472923627

>  <m_score__min__rmsd>  (9) 
7.001941472923627

>  <meeko>  (9) 
{"free_energy": -6.31, "intermolecular_energy": -8.99, "internal_energy": -3.5, "cluster_size": 2, "cluster_id": 9, "rank_in_cluster": 2}

>  <energy>  (9) 
-8.34

>  <cluster_rmsd>  (9) 
1.73

>  <cluster>  (9) 
1

$$$$

     RDKit          3D

 56 59  0  0  0  0  0  0  0  0999 V2000
  138.9850   77.6340  221.9430 O   0  0  0  0  0  0  0  0  0  0  0  0
  139.1530   76.3880  222.0450 C   0  0  0  0  0  0  0  0  0  0  0  0
  138.1700   75.5920  222.7020 N   0  0  0  0  0  0  0  0  0  0  0  0
  137.0150   76.2370  223.2300 C   0  0  0  0  0  0  0  0  0  0  0  0
  135.7720   75.4600  223.0520 C   0  0  0  0  0  0  0  0  0  0  0  0
  135.1410   75.6150  221.9770 O   0  0  0  0  0  0  0  0  0  0  0  0
  135.3620   74.5870  224.0940 N   0  0  0  0  0  0  0  0  0  0  0  0
  134.7020   74.9610  225.3580 C   0  0  0  0  0  0  0  0  0  0  0  0
  133.7240   73.8150  225.5180 C   0  0  2  0  0  0  0  0  0  0  0  0
  134.1070   73.1140  226.6680 O   0  0  0  0  0  0  0  0  0  0  0  0
  133.9790   72.8620  224.3490 C   0  0  0  0  0  0  0  0  0  0  0  0
  135.4810   73.1360  224.1870 C   0  0  1  0  0  0  0  0  0  0  0  0
  136.0580   72.5680  222.9680 C   0  0  0  0  0  0  0  0  0  0  0  0
  137.3840   72.6270  222.7710 O   0  0  0  0  0  0  0  0  0  0  0  0
  138.1420   71.5240  222.6590 C   0  0  0  0  0  0  0  0  0  0  0  0
  138.9610   71.1600  223.8430 C   0  0  0  0  0  0  0  0  0  0  0  0
  140.1310   71.8050  224.1870 C   0  0  0  0  0  0  0  0  0  0  0  0
  140.8630   71.4340  225.2940 C   0  0  0  0  0  0  0  0  0  0  0  0
  140.4630   70.3990  226.1180 C   0  0  0  0  0  0  0  0  0  0  0  0
  139.2940   69.7480  225.7820 C   0  0  0  0  0  0  0  0  0  0  0  0
  138.5560   70.1110  224.6780 C   0  0  0  0  0  0  0  0  0  0  0  0
  140.3520   75.7300  221.4950 C   0  0  0  0  0  0  0  0  0  0  0  0
  141.2550   76.5160  220.7860 C   0  0  0  0  0  0  0  0  0  0  0  0
  142.3750   75.9240  220.2680 C   0  0  0  0  0  0  0  0  0  0  0  0
  142.5850   74.5760  220.4550 C   0  0  0  0  0  0  0  0  0  0  0  0
  143.7050   73.9900  219.9350 C   0  0  0  0  0  0  0  0  0  0  0  0
  143.8770   72.6270  220.1480 C   0  0  0  0  0  0  0  0  0  0  0  0
  145.2850   71.8150  219.5120 Cl  0  0  0  0  0  0  0  0  0  0  0  0
  142.9650   71.8750  220.8540 C   0  0  0  0  0  0  0  0  0  0  0  0
  141.8330   72.4720  221.3790 C   0  0  0  0  0  0  0  0  0  0  0  0
  141.6740   73.8250  221.1610 C   0  0  0  0  0  0  0  0  0  0  0  0
  140.5720   74.4080  221.6700 N   0  0  0  0  0  0  0  0  0  0  0  0
  138.3560   74.5630  222.7610 H   0  0  0  0  0  0  0  0  0  0  0  0
  137.1705   76.4029  224.3062 H   0  0  0  0  0  0  0  0  0  0  0  0
  136.8893   77.1789  222.6759 H   0  0  0  0  0  0  0  0  0  0  0  0
  135.4181   75.0014  226.1920 H   0  0  0  0  0  0  0  0  0  0  0  0
  134.2377   75.9582  225.3515 H   0  0  0  0  0  0  0  0  0  0  0  0
  132.6829   74.1671  225.5645 H   0  0  0  0  0  0  0  0  0  0  0  0
  133.6330   72.2610  226.7330 H   0  0  0  0  0  0  0  0  0  0  0  0
  133.7709   71.8140  224.6106 H   0  0  0  0  0  0  0  0  0  0  0  0
  133.3577   73.0130  223.4539 H   0  0  0  0  0  0  0  0  0  0  0  0
  136.1352   72.7153  224.9648 H   0  0  0  0  0  0  0  0  0  0  0  0
  135.7795   71.5040  222.9488 H   0  0  0  0  0  0  0  0  0  0  0  0
  135.6514   73.2066  222.1700 H   0  0  0  0  0  0  0  0  0  0  0  0
  137.4721   70.6786  222.4433 H   0  0  0  0  0  0  0  0  0  0  0  0
  138.8661   71.7480  221.8618 H   0  0  0  0  0  0  0  0  0  0  0  0
  140.4886   72.6364  223.5618 H   0  0  0  0  0  0  0  0  0  0  0  0
  141.7909   71.9763  225.5282 H   0  0  0  0  0  0  0  0  0  0  0  0
  141.0500   70.1076  227.0015 H   0  0  0  0  0  0  0  0  0  0  0  0
  138.9427   68.9177  226.4123 H   0  0  0  0  0  0  0  0  0  0  0  0
  137.6290   69.5658  224.4469 H   0  0  0  0  0  0  0  0  0  0  0  0
  141.0724   77.5915  220.6446 H   0  0  0  0  0  0  0  0  0  0  0  0
  143.1051   76.5231  219.7041 H   0  0  0  0  0  0  0  0  0  0  0  0
  144.4437   74.5758  219.3683 H   0  0  0  0  0  0  0  0  0  0  0  0
  143.1367   70.7984  221.0007 H   0  0  0  0  0  0  0  0  0  0  0  0
  141.0904   71.8921  221.9467 H   0  0  0  0  0  0  0  0  0  0  0  0
  1  2  2  0
  2  3  1  0
  3  4  1  0
  4  5  1  0
  5  6  2  0
  5  7  1  0
  7  8  1  0
  8  9  1  0
  9 10  1  0
  9 11  1  0
 11 12  1  0
 12 13  1  0
 13 14  1  0
 14 15  1  0
 15 16  1  0
 16 17  2  0
 17 18  1  0
 18 19  2  0
 19 20  1  0
 20 21  2  0
  2 22  1  0
 22 23  2  0
 23 24  1  0
 24 25  2  0
 25 26  1  0
 26 27  2  0
 27 28  1  0
 27 29  1  0
 29 30  2  0
 30 31  1  0
 31 32  2  0
 12  7  1  0
 21 16  1  0
 32 22  1  0
 31 25  1  0
  3 33  1  0
  4 34  1  0
  4 35  1  0
  8 36  1  0
  8 37  1  0
  9 38  1  1
 10 39  1  0
 11 40  1  0
 11 41  1  0
 12 42  1  1
 13 43  1  0
 13 44  1  0
 15 45  1  0
 15 46  1  0
 17 47  1  0
 18 48  1  0
 19 49  1  0
 20 50  1  0
 21 51  1  0
 23 52  1  0
 24 53  1  0
 26 54  1  0
 29 55  1  0
 30 56  1  0
M  END
>  <smiles>  (10) 
O=C(NCC(=O)N1C[C@H](O)C[C@H]1COCc1ccccc1)c1ccc2cc(Cl)ccc2n1

>  <score_type>  (10) 
oracle

>  <origin>  (10) 
autodockgpu

>  <m_score__min__energy>  (10) 
-8.9399999999999995

>  <m_primary>  (10) 
energy

>  <rmsd>  (10) 
7.71670785846956

>  <m_score__min__rmsd>  (10) 
7.71670785846956

>  <meeko>  (10) 
{"free_energy": -6.6, "intermolecular_energy": -9.28, "internal_energy": -3.13, "cluster_size": 1, "cluster_id": 8, "rank_in_cluster": 1}

>  <energy>  (10) 
-8.24

>  <cluster_rmsd>  (10) 
2.0

>  <cluster>  (10) 
1

$$$$

     RDKit          3D

 56 59  0  0  0  0  0  0  0  0999 V2000
  138.0300   73.4950  221.3320 O   0  0  0  0  0  0  0  0  0  0  0  0
  137.7810   74.4980  222.0550 C   0  0  0  0  0  0  0  0  0  0  0  0
  136.5500   74.5670  222.7710 N   0  0  0  0  0  0  0  0  0  0  0  0
  135.6290   73.4870  222.6450 C   0  0  0  0  0  0  0  0  0  0  0  0
  135.4000   72.7570  223.9080 C   0  0  0  0  0  0  0  0  0  0  0  0
  135.1530   73.4390  224.9340 O   0  0  0  0  0  0  0  0  0  0  0  0
  135.4700   71.3390  223.8950 N   0  0  0  0  0  0  0  0  0  0  0  0
  134.3400   70.3930  223.9140 C   0  0  0  0  0  0  0  0  0  0  0  0
  134.8510   69.3210  222.9730 C   0  0  2  0  0  0  0  0  0  0  0  0
  135.0080   68.1570  223.7340 O   0  0  0  0  0  0  0  0  0  0  0  0
  136.2630   69.7420  222.5640 C   0  0  0  0  0  0  0  0  0  0  0  0
  136.6420   70.4710  223.8610 C   0  0  1  0  0  0  0  0  0  0  0  0
  137.8800   71.2470  223.7640 C   0  0  0  0  0  0  0  0  0  0  0  0
  139.0470   70.6130  223.5760 O   0  0  0  0  0  0  0  0  0  0  0  0
  140.2020   71.0700  224.0870 C   0  0  0  0  0  0  0  0  0  0  0  0
  140.3740   70.9380  225.5570 C   0  0  0  0  0  0  0  0  0  0  0  0
  140.9820   71.8970  226.3400 C   0  0  0  0  0  0  0  0  0  0  0  0
  141.1230   71.7350  227.7010 C   0  0  0  0  0  0  0  0  0  0  0  0
  140.6630   70.6050  228.3520 C   0  0  0  0  0  0  0  0  0  0  0  0
  140.0530   69.6420  227.5760 C   0  0  0  0  0  0  0  0  0  0  0  0
  139.9070   69.7940  226.2160 C   0  0  0  0  0  0  0  0  0  0  0  0
  138.7400   75.6100  222.1780 C   0  0  0  0  0  0  0  0  0  0  0  0
  140.0450   75.3920  221.7470 C   0  0  0  0  0  0  0  0  0  0  0  0
  140.9510   76.4120  221.8530 C   0  0  0  0  0  0  0  0  0  0  0  0
  140.5600   77.6220  222.3800 C   0  0  0  0  0  0  0  0  0  0  0  0
  141.4680   78.6370  222.4830 C   0  0  0  0  0  0  0  0  0  0  0  0
  141.0300   79.8420  223.0200 C   0  0  0  0  0  0  0  0  0  0  0  0
  142.1400   81.1810  223.1810 Cl  0  0  0  0  0  0  0  0  0  0  0  0
  139.7320   80.0280  223.4400 C   0  0  0  0  0  0  0  0  0  0  0  0
  138.8150   78.9980  223.3320 C   0  0  0  0  0  0  0  0  0  0  0  0
  139.2620   77.8080  222.7980 C   0  0  0  0  0  0  0  0  0  0  0  0
  138.3710   76.8040  222.6930 N   0  0  0  0  0  0  0  0  0  0  0  0
  136.3900   75.4200  223.3570 H   0  0  0  0  0  0  0  0  0  0  0  0
  134.6665   73.8893  222.2961 H   0  0  0  0  0  0  0  0  0  0  0  0
  136.0654   72.7714  221.9326 H   0  0  0  0  0  0  0  0  0  0  0  0
  134.1628   69.9943  224.9238 H   0  0  0  0  0  0  0  0  0  0  0  0
  133.3741   70.8316  223.6230 H   0  0  0  0  0  0  0  0  0  0  0  0
  134.1813   69.1761  222.1125 H   0  0  0  0  0  0  0  0  0  0  0  0
  134.3300   67.4910  223.5000 H   0  0  0  0  0  0  0  0  0  0  0  0
  136.9151   68.8791  222.3634 H   0  0  0  0  0  0  0  0  0  0  0  0
  136.3466   70.3260  221.6356 H   0  0  0  0  0  0  0  0  0  0  0  0
  136.8433   69.8320  224.7335 H   0  0  0  0  0  0  0  0  0  0  0  0
  137.7554   71.9431  222.9214 H   0  0  0  0  0  0  0  0  0  0  0  0
  137.9858   71.6882  224.7661 H   0  0  0  0  0  0  0  0  0  0  0  0
  141.0225   70.5195  223.6036 H   0  0  0  0  0  0  0  0  0  0  0  0
  140.2000   72.1522  223.8898 H   0  0  0  0  0  0  0  0  0  0  0  0
  141.3636   72.8135  225.8663 H   0  0  0  0  0  0  0  0  0  0  0  0
  141.6150   72.5262  228.2858 H   0  0  0  0  0  0  0  0  0  0  0  0
  140.7783   70.4801  229.4388 H   0  0  0  0  0  0  0  0  0  0  0  0
  139.6731   68.7284  228.0566 H   0  0  0  0  0  0  0  0  0  0  0  0
  139.4136   69.0010  225.6349 H   0  0  0  0  0  0  0  0  0  0  0  0
  140.3425   74.4188  221.3293 H   0  0  0  0  0  0  0  0  0  0  0  0
  141.9885   76.2655  221.5181 H   0  0  0  0  0  0  0  0  0  0  0  0
  142.5090   78.5056  222.1527 H   0  0  0  0  0  0  0  0  0  0  0  0
  139.4241   80.9962  223.8617 H   0  0  0  0  0  0  0  0  0  0  0  0
  137.7721   79.1232  223.6587 H   0  0  0  0  0  0  0  0  0  0  0  0
  1  2  2  0
  2  3  1  0
  3  4  1  0
  4  5  1  0
  5  6  2  0
  5  7  1  0
  7  8  1  0
  8  9  1  0
  9 10  1  0
  9 11  1  0
 11 12  1  0
 12 13  1  0
 13 14  1  0
 14 15  1  0
 15 16  1  0
 16 17  2  0
 17 18  1  0
 18 19  2  0
 19 20  1  0
 20 21  2  0
  2 22  1  0
 22 23  2  0
 23 24  1  0
 24 25  2  0
 25 26  1  0
 26 27  2  0
 27 28  1  0
 27 29  1  0
 29 30  2  0
 30 31  1  0
 31 32  2  0
 12  7  1  0
 21 16  1  0
 32 22  1  0
 31 25  1  0
  3 33  1  0
  4 34  1  0
  4 35  1  0
  8 36  1  0
  8 37  1  0
  9 38  1  6
 10 39  1  0
 11 40  1  0
 11 41  1  0
 12 42  1  1
 13 43  1  0
 13 44  1  0
 15 45  1  0
 15 46  1  0
 17 47  1  0
 18 48  1  0
 19 49  1  0
 20 50  1  0
 21 51  1  0
 23 52  1  0
 24 53  1  0
 26 54  1  0
 29 55  1  0
 30 56  1  0
M  END
>  <smiles>  (11) 
O=C(NCC(=O)N1C[C@H](O)C[C@H]1COCc1ccccc1)c1ccc2cc(Cl)ccc2n1

>  <score_type>  (11) 
oracle

>  <origin>  (11) 
autodockgpu

>  <m_score__min__energy>  (11) 
-8.9399999999999995

>  <m_primary>  (11) 
energy

>  <rmsd>  (11) 
8.108785614591824

>  <m_score__min__rmsd>  (11) 
8.108785614591824

>  <meeko>  (11) 
{"free_energy": -7.56, "intermolecular_energy": -10.25, "internal_energy": -2.0, "cluster_size": 1, "cluster_id": 5, "rank_in_cluster": 1}

>  <energy>  (11) 
-8.23

>  <cluster_rmsd>  (11) 
1.87

>  <cluster>  (11) 
1

$$$$

     RDKit          3D

 56 59  0  0  0  0  0  0  0  0999 V2000
  140.7750   72.6200  220.9430 O   0  0  0  0  0  0  0  0  0  0  0  0
  140.2580   72.9090  222.0560 C   0  0  0  0  0  0  0  0  0  0  0  0
  139.7210   74.2110  222.2720 N   0  0  0  0  0  0  0  0  0  0  0  0
  139.7860   75.1580  221.2080 C   0  0  0  0  0  0  0  0  0  0  0  0
  141.0120   75.9800  221.2250 C   0  0  0  0  0  0  0  0  0  0  0  0
  141.0800   76.9010  222.0760 O   0  0  0  0  0  0  0  0  0  0  0  0
  142.0380   75.6880  220.2870 N   0  0  0  0  0  0  0  0  0  0  0  0
  143.0670   74.6390  220.3950 C   0  0  0  0  0  0  0  0  0  0  0  0
  143.1480   74.1720  218.9560 C   0  0  2  0  0  0  0  0  0  0  0  0
  144.4320   74.4900  218.4990 O   0  0  0  0  0  0  0  0  0  0  0  0
  142.1930   75.0600  218.1580 C   0  0  0  0  0  0  0  0  0  0  0  0
  142.3350   76.3280  219.0110 C   0  0  1  0  0  0  0  0  0  0  0  0
  141.3540   77.3680  218.6940 C   0  0  0  0  0  0  0  0  0  0  0  0
  141.5280   78.6110  219.1680 O   0  0  0  0  0  0  0  0  0  0  0  0
  140.5700   79.2580  219.8520 C   0  0  0  0  0  0  0  0  0  0  0  0
  140.9140   79.6820  221.2330 C   0  0  0  0  0  0  0  0  0  0  0  0
  140.0130   79.6780  222.2770 C   0  0  0  0  0  0  0  0  0  0  0  0
  140.3730   80.0810  223.5450 C   0  0  0  0  0  0  0  0  0  0  0  0
  141.6550   80.5080  223.8370 C   0  0  0  0  0  0  0  0  0  0  0  0
  142.5630   80.5140  222.7990 C   0  0  0  0  0  0  0  0  0  0  0  0
  142.2130   80.1140  221.5290 C   0  0  0  0  0  0  0  0  0  0  0  0
  140.1970   71.9230  223.1500 C   0  0  0  0  0  0  0  0  0  0  0  0
  139.6270   70.6840  222.8740 C   0  0  0  0  0  0  0  0  0  0  0  0
  139.5590   69.7540  223.8770 C   0  0  0  0  0  0  0  0  0  0  0  0
  140.0510   70.0590  225.1260 C   0  0  0  0  0  0  0  0  0  0  0  0
  139.9810   69.1270  226.1230 C   0  0  0  0  0  0  0  0  0  0  0  0
  140.4900   69.4770  227.3690 C   0  0  0  0  0  0  0  0  0  0  0  0
  140.4330   68.3340  228.6870 Cl  0  0  0  0  0  0  0  0  0  0  0  0
  141.0480   70.7120  227.6120 C   0  0  0  0  0  0  0  0  0  0  0  0
  141.1170   71.6520  226.5990 C   0  0  0  0  0  0  0  0  0  0  0  0
  140.6090   71.2930  225.3690 C   0  0  0  0  0  0  0  0  0  0  0  0
  140.6750   72.2070  224.3820 N   0  0  0  0  0  0  0  0  0  0  0  0
  139.3040   74.4020  223.2130 H   0  0  0  0  0  0  0  0  0  0  0  0
  139.7458   74.6126  220.2536 H   0  0  0  0  0  0  0  0  0  0  0  0
  138.9351   75.8438  221.3330 H   0  0  0  0  0  0  0  0  0  0  0  0
  144.0272   75.0480  220.7426 H   0  0  0  0  0  0  0  0  0  0  0  0
  142.8335   73.8447  221.1193 H   0  0  0  0  0  0  0  0  0  0  0  0
  142.9183   73.1007  218.8588 H   0  0  0  0  0  0  0  0  0  0  0  0
  144.4830   75.4260  218.2190 H   0  0  0  0  0  0  0  0  0  0  0  0
  142.5305   75.2125  217.1222 H   0  0  0  0  0  0  0  0  0  0  0  0
  141.1709   74.6767  218.0221 H   0  0  0  0  0  0  0  0  0  0  0  0
  143.2848   76.8735  218.9099 H   0  0  0  0  0  0  0  0  0  0  0  0
  141.3155   77.4469  217.5975 H   0  0  0  0  0  0  0  0  0  0  0  0
  140.4417   77.0243  219.2035 H   0  0  0  0  0  0  0  0  0  0  0  0
  140.3036   80.1602  219.2819 H   0  0  0  0  0  0  0  0  0  0  0  0
  139.7519   78.5315  219.9656 H   0  0  0  0  0  0  0  0  0  0  0  0
  138.9809   79.3448  222.0932 H   0  0  0  0  0  0  0  0  0  0  0  0
  139.6197   80.0623  224.3464 H   0  0  0  0  0  0  0  0  0  0  0  0
  141.9378   80.8282  224.8506 H   0  0  0  0  0  0  0  0  0  0  0  0
  143.5937   80.8470  222.9908 H   0  0  0  0  0  0  0  0  0  0  0  0
  142.9691   80.1341  220.7303 H   0  0  0  0  0  0  0  0  0  0  0  0
  139.2388   70.4561  221.8703 H   0  0  0  0  0  0  0  0  0  0  0  0
  139.1129   68.7670  223.6853 H   0  0  0  0  0  0  0  0  0  0  0  0
  139.5381   68.1357  225.9464 H   0  0  0  0  0  0  0  0  0  0  0  0
  141.4391   70.9515  228.6118 H   0  0  0  0  0  0  0  0  0  0  0  0
  141.5591   72.6449  226.7683 H   0  0  0  0  0  0  0  0  0  0  0  0
  1  2  2  0
  2  3  1  0
  3  4  1  0
  4  5  1  0
  5  6  2  0
  5  7  1  0
  7  8  1  0
  8  9  1  0
  9 10  1  0
  9 11  1  0
 11 12  1  0
 12 13  1  0
 13 14  1  0
 14 15  1  0
 15 16  1  0
 16 17  2  0
 17 18  1  0
 18 19  2  0
 19 20  1  0
 20 21  2  0
  2 22  1  0
 22 23  2  0
 23 24  1  0
 24 25  2  0
 25 26  1  0
 26 27  2  0
 27 28  1  0
 27 29  1  0
 29 30  2  0
 30 31  1  0
 31 32  2  0
 12  7  1  0
 21 16  1  0
 32 22  1  0
 31 25  1  0
  3 33  1  0
  4 34  1  0
  4 35  1  0
  8 36  1  0
  8 37  1  0
  9 38  1  1
 10 39  1  0
 11 40  1  0
 11 41  1  0
 12 42  1  1
 13 43  1  0
 13 44  1  0
 15 45  1  0
 15 46  1  0
 17 47  1  0
 18 48  1  0
 19 49  1  0
 20 50  1  0
 21 51  1  0
 23 52  1  0
 24 53  1  0
 26 54  1  0
 29 55  1  0
 30 56  1  0
M  END
>  <smiles>  (12) 
O=C(NCC(=O)N1C[C@H](O)C[C@H]1COCc1ccccc1)c1ccc2cc(Cl)ccc2n1

>  <score_type>  (12) 
oracle

>  <origin>  (12) 
autodockgpu

>  <m_score__min__energy>  (12) 
-8.9399999999999995

>  <m_primary>  (12) 
energy

>  <rmsd>  (12) 
2.424894372211881

>  <m_score__min__rmsd>  (12) 
2.424894372211881

>  <meeko>  (12) 
{"free_energy": -8.1, "intermolecular_energy": -10.78, "internal_energy": -1.94, "cluster_size": 16, "cluster_id": 1, "rank_in_cluster": 12}

>  <energy>  (12) 
-8.1

>  <cluster_rmsd>  (12) 
1.83

>  <cluster>  (12) 
1

$$$$

     RDKit          3D

 56 59  0  0  0  0  0  0  0  0999 V2000
  139.4130   72.2920  220.6420 O   0  0  0  0  0  0  0  0  0  0  0  0
  140.0040   72.5860  221.7160 C   0  0  0  0  0  0  0  0  0  0  0  0
  140.7380   73.8040  221.8110 N   0  0  0  0  0  0  0  0  0  0  0  0
  140.7800   74.6620  220.6730 C   0  0  0  0  0  0  0  0  0  0  0  0
  141.2840   76.0170  220.9750 C   0  0  0  0  0  0  0  0  0  0  0  0
  141.4240   76.3260  222.1840 O   0  0  0  0  0  0  0  0  0  0  0  0
  141.5810   76.8880  219.8930 N   0  0  0  0  0  0  0  0  0  0  0  0
  142.9040   77.1500  219.3010 C   0  0  0  0  0  0  0  0  0  0  0  0
  142.5440   77.2490  217.8330 C   0  0  2  0  0  0  0  0  0  0  0  0
  142.8160   78.5640  217.4380 O   0  0  0  0  0  0  0  0  0  0  0  0
  141.0240   77.0980  217.7490 C   0  0  0  0  0  0  0  0  0  0  0  0
  140.6830   77.7260  219.1070 C   0  0  1  0  0  0  0  0  0  0  0  0
  139.2870   77.5400  219.5110 C   0  0  0  0  0  0  0  0  0  0  0  0
  138.8980   77.9080  220.7400 O   0  0  0  0  0  0  0  0  0  0  0  0
  139.0780   79.1550  221.2060 C   0  0  0  0  0  0  0  0  0  0  0  0
  140.3340   79.4060  221.9590 C   0  0  0  0  0  0  0  0  0  0  0  0
  140.5610   78.9400  223.2370 C   0  0  0  0  0  0  0  0  0  0  0  0
  141.7400   79.1960  223.9020 C   0  0  0  0  0  0  0  0  0  0  0  0
  142.7580   79.9320  223.3230 C   0  0  0  0  0  0  0  0  0  0  0  0
  142.5390   80.4010  222.0440 C   0  0  0  0  0  0  0  0  0  0  0  0
  141.3640   80.1510  221.3720 C   0  0  0  0  0  0  0  0  0  0  0  0
  139.9550   71.6920  222.8870 C   0  0  0  0  0  0  0  0  0  0  0  0
  139.3060   70.4690  222.7420 C   0  0  0  0  0  0  0  0  0  0  0  0
  139.2490   69.6240  223.8180 C   0  0  0  0  0  0  0  0  0  0  0  0
  139.8280   69.9960  225.0110 C   0  0  0  0  0  0  0  0  0  0  0  0
  139.7680   69.1490  226.0810 C   0  0  0  0  0  0  0  0  0  0  0  0
  140.3660   69.5640  227.2650 C   0  0  0  0  0  0  0  0  0  0  0  0
  140.3260   68.5300  228.6720 Cl  0  0  0  0  0  0  0  0  0  0  0  0
  141.0000   70.7810  227.3790 C   0  0  0  0  0  0  0  0  0  0  0  0
  141.0590   71.6350  226.2920 C   0  0  0  0  0  0  0  0  0  0  0  0
  140.4620   71.2120  225.1230 C   0  0  0  0  0  0  0  0  0  0  0  0
  140.5180   72.0420  224.0650 N   0  0  0  0  0  0  0  0  0  0  0  0
  141.2120   74.0030  222.7230 H   0  0  0  0  0  0  0  0  0  0  0  0
  141.4371   74.2065  219.9176 H   0  0  0  0  0  0  0  0  0  0  0  0
  139.7463   74.7739  220.3139 H   0  0  0  0  0  0  0  0  0  0  0  0
  143.3364   78.0894  219.6760 H   0  0  0  0  0  0  0  0  0  0  0  0
  143.6650   76.3904  219.5329 H   0  0  0  0  0  0  0  0  0  0  0  0
  143.0825   76.5055  217.2270 H   0  0  0  0  0  0  0  0  0  0  0  0
  143.7160   78.6390  217.0610 H   0  0  0  0  0  0  0  0  0  0  0  0
  140.5934   77.6609  216.9077 H   0  0  0  0  0  0  0  0  0  0  0  0
  140.6448   76.0803  217.5743 H   0  0  0  0  0  0  0  0  0  0  0  0
  140.7958   78.8180  219.1760 H   0  0  0  0  0  0  0  0  0  0  0  0
  138.6700   78.1063  218.7978 H   0  0  0  0  0  0  0  0  0  0  0  0
  139.1656   76.4468  219.5197 H   0  0  0  0  0  0  0  0  0  0  0  0
  139.0621   79.8392  220.3448 H   0  0  0  0  0  0  0  0  0  0  0  0
  138.2666   79.3149  221.9313 H   0  0  0  0  0  0  0  0  0  0  0  0
  139.7806   78.3487  223.7383 H   0  0  0  0  0  0  0  0  0  0  0  0
  141.8755   78.8045  224.9210 H   0  0  0  0  0  0  0  0  0  0  0  0
  143.6981   80.1339  223.8572 H   0  0  0  0  0  0  0  0  0  0  0  0
  143.3243   80.9904  221.5482 H   0  0  0  0  0  0  0  0  0  0  0  0
  141.2315   80.5444  220.3533 H   0  0  0  0  0  0  0  0  0  0  0  0
  138.8482   70.1871  221.7824 H   0  0  0  0  0  0  0  0  0  0  0  0
  138.7425   68.6515  223.7298 H   0  0  0  0  0  0  0  0  0  0  0  0
  139.2646   68.1737  226.0082 H   0  0  0  0  0  0  0  0  0  0  0  0
  141.4596   71.0743  228.3344 H   0  0  0  0  0  0  0  0  0  0  0  0
  141.5615   72.6113  226.3576 H   0  0  0  0  0  0  0  0  0  0  0  0
  1  2  2  0
  2  3  1  0
  3  4  1  0
  4  5  1  0
  5  6  2  0
  5  7  1  0
  7  8  1  0
  8  9  1  0
  9 10  1  0
  9 11  1  0
 11 12  1  0
 12 13  1  0
 13 14  1  0
 14 15  1  0
 15 16  1  0
 16 17  2  0
 17 18  1  0
 18 19  2  0
 19 20  1  0
 20 21  2  0
  2 22  1  0
 22 23  2  0
 23 24  1  0
 24 25  2  0
 25 26  1  0
 26 27  2  0
 27 28  1  0
 27 29  1  0
 29 30  2  0
 30 31  1  0
 31 32  2  0
 12  7  1  0
 21 16  1  0
 32 22  1  0
 31 25  1  0
  3 33  1  0
  4 34  1  0
  4 35  1  0
  8 36  1  0
  8 37  1  0
  9 38  1  6
 10 39  1  0
 11 40  1  0
 11 41  1  0
 12 42  1  6
 13 43  1  0
 13 44  1  0
 15 45  1  0
 15 46  1  0
 17 47  1  0
 18 48  1  0
 19 49  1  0
 20 50  1  0
 21 51  1  0
 23 52  1  0
 24 53  1  0
 26 54  1  0
 29 55  1  0
 30 56  1  0
M  END
>  <smiles>  (13) 
O=C(NCC(=O)N1C[C@H](O)C[C@H]1COCc1ccccc1)c1ccc2cc(Cl)ccc2n1

>  <score_type>  (13) 
oracle

>  <origin>  (13) 
autodockgpu

>  <m_score__min__energy>  (13) 
-8.9399999999999995

>  <m_primary>  (13) 
energy

>  <rmsd>  (13) 
2.307309841601097

>  <m_score__min__rmsd>  (13) 
2.307309841601097

>  <meeko>  (13) 
{"free_energy": -7.56, "intermolecular_energy": -10.24, "internal_energy": -2.63, "cluster_size": 9, "cluster_id": 4, "rank_in_cluster": 8}

>  <energy>  (13) 
-7.96

>  <cluster_rmsd>  (13) 
1.94

>  <cluster>  (13) 
1

$$$$

     RDKit          3D

 56 59  0  0  0  0  0  0  0  0999 V2000
  133.9090   69.5970  226.8290 O   0  0  0  0  0  0  0  0  0  0  0  0
  134.1160   70.6220  226.1250 C   0  0  0  0  0  0  0  0  0  0  0  0
  134.9120   70.5230  224.9470 N   0  0  0  0  0  0  0  0  0  0  0  0
  135.4560   69.2520  224.5980 C   0  0  0  0  0  0  0  0  0  0  0  0
  136.1660   69.2500  223.3030 C   0  0  0  0  0  0  0  0  0  0  0  0
  135.5740   68.7400  222.3190 O   0  0  0  0  0  0  0  0  0  0  0  0
  137.4650   69.8190  223.2410 N   0  0  0  0  0  0  0  0  0  0  0  0
  137.9530   70.8150  222.2700 C   0  0  0  0  0  0  0  0  0  0  0  0
  138.8250   71.6760  223.1600 C   0  0  2  0  0  0  0  0  0  0  0  0
  140.1400   71.5280  222.7020 O   0  0  0  0  0  0  0  0  0  0  0  0
  138.7950   71.0330  224.5470 C   0  0  0  0  0  0  0  0  0  0  0  0
  138.6230   69.5770  224.0930 C   0  0  1  0  0  0  0  0  0  0  0  0
  138.3020   68.6520  225.1810 C   0  0  0  0  0  0  0  0  0  0  0  0
  139.2110   67.7460  225.5710 O   0  0  0  0  0  0  0  0  0  0  0  0
  140.4300   68.0970  226.0120 C   0  0  0  0  0  0  0  0  0  0  0  0
  140.5430   69.4310  226.6540 C   0  0  0  0  0  0  0  0  0  0  0  0
  139.8720   69.7790  227.8080 C   0  0  0  0  0  0  0  0  0  0  0  0
  140.0040   71.0300  228.3720 C   0  0  0  0  0  0  0  0  0  0  0  0
  140.8150   72.0000  227.8120 C   0  0  0  0  0  0  0  0  0  0  0  0
  141.4910   71.6600  226.6590 C   0  0  0  0  0  0  0  0  0  0  0  0
  141.3660   70.4130  226.0880 C   0  0  0  0  0  0  0  0  0  0  0  0
  133.5510   71.9320  226.4940 C   0  0  0  0  0  0  0  0  0  0  0  0
  132.3780   71.9440  227.2420 C   0  0  0  0  0  0  0  0  0  0  0  0
  131.8350   73.1500  227.5960 C   0  0  0  0  0  0  0  0  0  0  0  0
  132.4540   74.3180  227.2070 C   0  0  0  0  0  0  0  0  0  0  0  0
  131.9090   75.5190  227.5630 C   0  0  0  0  0  0  0  0  0  0  0  0
  132.5660   76.6720  227.1490 C   0  0  0  0  0  0  0  0  0  0  0  0
  131.9240   78.2410  227.5690 Cl  0  0  0  0  0  0  0  0  0  0  0  0
  133.7260   76.6290  226.4080 C   0  0  0  0  0  0  0  0  0  0  0  0
  134.2750   75.4110  226.0520 C   0  0  0  0  0  0  0  0  0  0  0  0
  133.6130   74.2740  226.4670 C   0  0  0  0  0  0  0  0  0  0  0  0
  134.1450   73.0870  226.1210 N   0  0  0  0  0  0  0  0  0  0  0  0
  135.0560   71.4030  224.3960 H   0  0  0  0  0  0  0  0  0  0  0  0
  136.1638   68.9488  225.3835 H   0  0  0  0  0  0  0  0  0  0  0  0
  134.6114   68.5534  224.5048 H   0  0  0  0  0  0  0  0  0  0  0  0
  138.5365   70.3437  221.4654 H   0  0  0  0  0  0  0  0  0  0  0  0
  137.1588   71.3637  221.7425 H   0  0  0  0  0  0  0  0  0  0  0  0
  138.4955   72.7255  223.1673 H   0  0  0  0  0  0  0  0  0  0  0  0
  140.7610   72.0600  223.2400 H   0  0  0  0  0  0  0  0  0  0  0  0
  139.7321   71.1903  225.1012 H   0  0  0  0  0  0  0  0  0  0  0  0
  138.0367   71.4175  225.2450 H   0  0  0  0  0  0  0  0  0  0  0  0
  139.5091   69.1026  223.6461 H   0  0  0  0  0  0  0  0  0  0  0  0
  138.0644   69.2658  226.0624 H   0  0  0  0  0  0  0  0  0  0  0  0
  137.4895   68.0381  224.7650 H   0  0  0  0  0  0  0  0  0  0  0  0
  140.7490   67.3439  226.7476 H   0  0  0  0  0  0  0  0  0  0  0  0
  141.0605   68.1523  225.1123 H   0  0  0  0  0  0  0  0  0  0  0  0
  139.2153   69.0399  228.2901 H   0  0  0  0  0  0  0  0  0  0  0  0
  139.4490   71.2630  229.2927 H   0  0  0  0  0  0  0  0  0  0  0  0
  140.9163   72.9971  228.2654 H   0  0  0  0  0  0  0  0  0  0  0  0
  142.1469   72.4039  226.1832 H   0  0  0  0  0  0  0  0  0  0  0  0
  141.9241   70.1834  225.1683 H   0  0  0  0  0  0  0  0  0  0  0  0
  131.8959   71.0023  227.5433 H   0  0  0  0  0  0  0  0  0  0  0  0
  130.9088   73.1863  228.1883 H   0  0  0  0  0  0  0  0  0  0  0  0
  130.9839   75.5718  228.1557 H   0  0  0  0  0  0  0  0  0  0  0  0
  134.2160   77.5642  226.0992 H   0  0  0  0  0  0  0  0  0  0  0  0
  135.2015   75.3510  225.4621 H   0  0  0  0  0  0  0  0  0  0  0  0
  1  2  2  0
  2  3  1  0
  3  4  1  0
  4  5  1  0
  5  6  2  0
  5  7  1  0
  7  8  1  0
  8  9  1  0
  9 10  1  0
  9 11  1  0
 11 12  1  0
 12 13  1  0
 13 14  1  0
 14 15  1  0
 15 16  1  0
 16 17  2  0
 17 18  1  0
 18 19  2  0
 19 20  1  0
 20 21  2  0
  2 22  1  0
 22 23  2  0
 23 24  1  0
 24 25  2  0
 25 26  1  0
 26 27  2  0
 27 28  1  0
 27 29  1  0
 29 30  2  0
 30 31  1  0
 31 32  2  0
 12  7  1  0
 21 16  1  0
 32 22  1  0
 31 25  1  0
  3 33  1  0
  4 34  1  0
  4 35  1  0
  8 36  1  0
  8 37  1  0
  9 38  1  1
 10 39  1  0
 11 40  1  0
 11 41  1  0
 12 42  1  6
 13 43  1  0
 13 44  1  0
 15 45  1  0
 15 46  1  0
 17 47  1  0
 18 48  1  0
 19 49  1  0
 20 50  1  0
 21 51  1  0
 23 52  1  0
 24 53  1  0
 26 54  1  0
 29 55  1  0
 30 56  1  0
M  END
>  <smiles>  (14) 
O=C(NCC(=O)N1C[C@H](O)C[C@H]1COCc1ccccc1)c1ccc2cc(Cl)ccc2n1

>  <score_type>  (14) 
oracle

>  <origin>  (14) 
autodockgpu

>  <m_score__min__energy>  (14) 
-8.9399999999999995

>  <m_primary>  (14) 
energy

>  <rmsd>  (14) 
8.12139680698651

>  <m_score__min__rmsd>  (14) 
8.12139680698651

>  <meeko>  (14) 
{"free_energy": -8.73, "intermolecular_energy": -11.42, "internal_energy": -1.66, "cluster_size": 6, "cluster_id": 2, "rank_in_cluster": 1}

>  <energy>  (14) 
-7.39

>  <cluster_rmsd>  (14) 
1.6

>  <cluster>  (14) 
1

$$$$

     RDKit          3D

 56 59  0  0  0  0  0  0  0  0999 V2000
  138.5030   71.0990  219.9880 O   0  0  0  0  0  0  0  0  0  0  0  0
  138.8910   71.7590  220.9910 C   0  0  0  0  0  0  0  0  0  0  0  0
  139.0700   73.1690  220.8850 N   0  0  0  0  0  0  0  0  0  0  0  0
  138.8020   73.7960  219.6330 C   0  0  0  0  0  0  0  0  0  0  0  0
  139.4840   75.0960  219.4670 C   0  0  0  0  0  0  0  0  0  0  0  0
  138.7770   76.1320  219.5270 O   0  0  0  0  0  0  0  0  0  0  0  0
  140.8880   75.1040  219.2530 N   0  0  0  0  0  0  0  0  0  0  0  0
  141.5880   75.1120  217.9560 C   0  0  0  0  0  0  0  0  0  0  0  0
  142.7470   76.0370  218.2660 C   0  0  2  0  0  0  0  0  0  0  0  0
  143.9140   75.2700  218.1670 O   0  0  0  0  0  0  0  0  0  0  0  0
  142.6200   76.4110  219.7430 C   0  0  0  0  0  0  0  0  0  0  0  0
  141.9720   75.1060  220.2280 C   0  0  1  0  0  0  0  0  0  0  0  0
  141.4600   75.1730  221.5980 C   0  0  0  0  0  0  0  0  0  0  0  0
  140.2360   75.6720  221.8240 O   0  0  0  0  0  0  0  0  0  0  0  0
  140.0230   76.6920  222.6720 C   0  0  0  0  0  0  0  0  0  0  0  0
  140.8910   77.8860  222.5020 C   0  0  0  0  0  0  0  0  0  0  0  0
  141.7390   78.3560  223.4830 C   0  0  0  0  0  0  0  0  0  0  0  0
  142.5270   79.4690  223.2850 C   0  0  0  0  0  0  0  0  0  0  0  0
  142.5100   80.1720  222.0950 C   0  0  0  0  0  0  0  0  0  0  0  0
  141.6650   79.7090  221.1080 C   0  0  0  0  0  0  0  0  0  0  0  0
  140.8730   78.5980  221.2950 C   0  0  0  0  0  0  0  0  0  0  0  0
  139.1660   71.1010  222.2800 C   0  0  0  0  0  0  0  0  0  0  0  0
  138.7350   69.7880  222.4430 C   0  0  0  0  0  0  0  0  0  0  0  0
  138.9800   69.1580  223.6340 C   0  0  0  0  0  0  0  0  0  0  0  0
  139.6410   69.8300  224.6380 C   0  0  0  0  0  0  0  0  0  0  0  0
  139.8830   69.1970  225.8240 C   0  0  0  0  0  0  0  0  0  0  0  0
  140.5530   69.9110  226.8110 C   0  0  0  0  0  0  0  0  0  0  0  0
  140.8950   69.1630  228.3510 Cl  0  0  0  0  0  0  0  0  0  0  0  0
  140.9660   71.2110  226.6220 C   0  0  0  0  0  0  0  0  0  0  0  0
  140.7200   71.8470  225.4180 C   0  0  0  0  0  0  0  0  0  0  0  0
  140.0540   71.1280  224.4480 C   0  0  0  0  0  0  0  0  0  0  0  0
  139.8130   71.7460  223.2760 N   0  0  0  0  0  0  0  0  0  0  0  0
  139.3940   73.6720  221.7450 H   0  0  0  0  0  0  0  0  0  0  0  0
  139.1342   73.1233  218.8285 H   0  0  0  0  0  0  0  0  0  0  0  0
  137.7201   73.9909  219.5937 H   0  0  0  0  0  0  0  0  0  0  0  0
  141.9358   74.1063  217.6772 H   0  0  0  0  0  0  0  0  0  0  0  0
  140.9672   75.4285  217.1048 H   0  0  0  0  0  0  0  0  0  0  0  0
  142.7610   76.9145  217.6028 H   0  0  0  0  0  0  0  0  0  0  0  0
  144.6620   75.8090  217.8390 H   0  0  0  0  0  0  0  0  0  0  0  0
  143.5973   76.5930  220.2140 H   0  0  0  0  0  0  0  0  0  0  0  0
  142.0714   77.3383  219.9647 H   0  0  0  0  0  0  0  0  0  0  0  0
  142.6317   74.2271  220.2760 H   0  0  0  0  0  0  0  0  0  0  0  0
  141.4637   74.1456  221.9910 H   0  0  0  0  0  0  0  0  0  0  0  0
  142.1276   75.8978  222.0869 H   0  0  0  0  0  0  0  0  0  0  0  0
  138.9793   77.0169  222.5489 H   0  0  0  0  0  0  0  0  0  0  0  0
  140.2629   76.2966  223.6701 H   0  0  0  0  0  0  0  0  0  0  0  0
  141.7875   77.8293  224.4475 H   0  0  0  0  0  0  0  0  0  0  0  0
  143.1879   79.8074  224.0966 H   0  0  0  0  0  0  0  0  0  0  0  0
  143.1413   81.0598  221.9422 H   0  0  0  0  0  0  0  0  0  0  0  0
  141.6226   80.2412  220.1462 H   0  0  0  0  0  0  0  0  0  0  0  0
  140.2133   78.2629  220.4810 H   0  0  0  0  0  0  0  0  0  0  0  0
  138.2077   69.2662  221.6308 H   0  0  0  0  0  0  0  0  0  0  0  0
  138.6503   68.1199  223.7880 H   0  0  0  0  0  0  0  0  0  0  0  0
  139.5593   68.1592  225.9922 H   0  0  0  0  0  0  0  0  0  0  0  0
  141.4915   71.7439  227.4282 H   0  0  0  0  0  0  0  0  0  0  0  0
  141.0425   72.8838  225.2419 H   0  0  0  0  0  0  0  0  0  0  0  0
  1  2  2  0
  2  3  1  0
  3  4  1  0
  4  5  1  0
  5  6  2  0
  5  7  1  0
  7  8  1  0
  8  9  1  0
  9 10  1  0
  9 11  1  0
 11 12  1  0
 12 13  1  0
 13 14  1  0
 14 15  1  0
 15 16  1  0
 16 17  2  0
 17 18  1  0
 18 19  2  0
 19 20  1  0
 20 21  2  0
  2 22  1  0
 22 23  2  0
 23 24  1  0
 24 25  2  0
 25 26  1  0
 26 27  2  0
 27 28  1  0
 27 29  1  0
 29 30  2  0
 30 31  1  0
 31 32  2  0
 12  7  1  0
 21 16  1  0
 32 22  1  0
 31 25  1  0
  3 33  1  0
  4 34  1  0
  4 35  1  0
  8 36  1  0
  8 37  1  0
  9 38  1  6
 10 39  1  0
 11 40  1  0
 11 41  1  0
 12 42  1  1
 13 43  1  0
 13 44  1  0
 15 45  1  0
 15 46  1  0
 17 47  1  0
 18 48  1  0
 19 49  1  0
 20 50  1  0
 21 51  1  0
 23 52  1  0
 24 53  1  0
 26 54  1  0
 29 55  1  0
 30 56  1  0
M  END
>  <smiles>  (15) 
O=C(NCC(=O)N1C[C@H](O)C[C@H]1COCc1ccccc1)c1ccc2cc(Cl)ccc2n1

>  <score_type>  (15) 
oracle

>  <origin>  (15) 
autodockgpu

>  <m_score__min__energy>  (15) 
-8.9399999999999995

>  <m_primary>  (15) 
energy

>  <rmsd>  (15) 
1.8851163662333241

>  <m_score__min__rmsd>  (15) 
1.8851163662333241

>  <meeko>  (15) 
{"free_energy": -6.77, "intermolecular_energy": -9.45, "internal_energy": -2.64, "cluster_size": 16, "cluster_id": 1, "rank_in_cluster": 16}

>  <energy>  (15) 
-7.02

>  <cluster_rmsd>  (15) 
1.55

>  <cluster>  (15) 
1

$$$$

     RDKit          3D

 56 59  0  0  0  0  0  0  0  0999 V2000
  139.3680   72.6280  220.6080 O   0  0  0  0  0  0  0  0  0  0  0  0
  140.0130   72.8670  221.6650 C   0  0  0  0  0  0  0  0  0  0  0  0
  140.7600   74.0760  221.7810 N   0  0  0  0  0  0  0  0  0  0  0  0
  140.7540   74.9870  220.6850 C   0  0  0  0  0  0  0  0  0  0  0  0
  141.0500   76.3800  221.0750 C   0  0  0  0  0  0  0  0  0  0  0  0
  141.0020   76.6610  222.2990 O   0  0  0  0  0  0  0  0  0  0  0  0
  141.3680   77.3170  220.0570 N   0  0  0  0  0  0  0  0  0  0  0  0
  142.6530   77.4560  219.3480 C   0  0  0  0  0  0  0  0  0  0  0  0
  142.1720   77.7700  217.9470 C   0  0  2  0  0  0  0  0  0  0  0  0
  142.6000   79.0700  217.6540 O   0  0  0  0  0  0  0  0  0  0  0  0
  140.6460   77.8430  218.0190 C   0  0  0  0  0  0  0  0  0  0  0  0
  140.5360   78.3560  219.4620 C   0  0  1  0  0  0  0  0  0  0  0  0
  139.1740   78.3230  219.9990 C   0  0  0  0  0  0  0  0  0  0  0  0
  138.6780   79.4060  220.6160 O   0  0  0  0  0  0  0  0  0  0  0  0
  139.4450   80.4600  220.9410 C   0  0  0  0  0  0  0  0  0  0  0  0
  140.5000   80.2220  221.9600 C   0  0  0  0  0  0  0  0  0  0  0  0
  140.2840   79.5270  223.1310 C   0  0  0  0  0  0  0  0  0  0  0  0
  141.2910   79.3300  224.0510 C   0  0  0  0  0  0  0  0  0  0  0  0
  142.5690   79.8160  223.8480 C   0  0  0  0  0  0  0  0  0  0  0  0
  142.7940   80.5120  222.6780 C   0  0  0  0  0  0  0  0  0  0  0  0
  141.7950   80.7140  221.7530 C   0  0  0  0  0  0  0  0  0  0  0  0
  140.0130   71.9190  222.7930 C   0  0  0  0  0  0  0  0  0  0  0  0
  139.4560   70.6610  222.5830 C   0  0  0  0  0  0  0  0  0  0  0  0
  139.4460   69.7650  223.6170 C   0  0  0  0  0  0  0  0  0  0  0  0
  139.9820   70.1210  224.8350 C   0  0  0  0  0  0  0  0  0  0  0  0
  139.9700   69.2230  225.8640 C   0  0  0  0  0  0  0  0  0  0  0  0
  140.5220   69.6230  227.0760 C   0  0  0  0  0  0  0  0  0  0  0  0
  140.5390   68.5250  228.4330 Cl  0  0  0  0  0  0  0  0  0  0  0  0
  141.0660   70.8750  227.2540 C   0  0  0  0  0  0  0  0  0  0  0  0
  141.0780   71.7810  226.2090 C   0  0  0  0  0  0  0  0  0  0  0  0
  140.5270   71.3720  225.0130 C   0  0  0  0  0  0  0  0  0  0  0  0
  140.5360   72.2520  223.9940 N   0  0  0  0  0  0  0  0  0  0  0  0
  141.2800   74.2270  222.6780 H   0  0  0  0  0  0  0  0  0  0  0  0
  141.5115   74.6608  219.9571 H   0  0  0  0  0  0  0  0  0  0  0  0
  139.7383   74.9782  220.2627 H   0  0  0  0  0  0  0  0  0  0  0  0
  143.2570   78.2768  219.7621 H   0  0  0  0  0  0  0  0  0  0  0  0
  143.3089   76.5757  219.4176 H   0  0  0  0  0  0  0  0  0  0  0  0
  142.5312   77.0319  217.2148 H   0  0  0  0  0  0  0  0  0  0  0  0
  143.4040   79.0580  217.0960 H   0  0  0  0  0  0  0  0  0  0  0  0
  140.2261   78.5515  217.2898 H   0  0  0  0  0  0  0  0  0  0  0  0
  140.1027   76.9144  217.7896 H   0  0  0  0  0  0  0  0  0  0  0  0
  140.8188   79.4066  219.6241 H   0  0  0  0  0  0  0  0  0  0  0  0
  138.5036   78.1008  219.1557 H   0  0  0  0  0  0  0  0  0  0  0  0
  139.2327   77.5739  220.8024 H   0  0  0  0  0  0  0  0  0  0  0  0
  139.9398   80.8093  220.0227 H   0  0  0  0  0  0  0  0  0  0  0  0
  138.7595   81.1901  221.3961 H   0  0  0  0  0  0  0  0  0  0  0  0
  139.2830   79.1196  223.3360 H   0  0  0  0  0  0  0  0  0  0  0  0
  141.0717   78.7705  224.9723 H   0  0  0  0  0  0  0  0  0  0  0  0
  143.3696   79.6553  224.5851 H   0  0  0  0  0  0  0  0  0  0  0  0
  143.7977   80.9158  222.4794 H   0  0  0  0  0  0  0  0  0  0  0  0
  142.0181   81.2732  220.8324 H   0  0  0  0  0  0  0  0  0  0  0  0
  139.0318   70.3922  221.6043 H   0  0  0  0  0  0  0  0  0  0  0  0
  139.0116   68.7642  223.4762 H   0  0  0  0  0  0  0  0  0  0  0  0
  139.5389   68.2188  225.7384 H   0  0  0  0  0  0  0  0  0  0  0  0
  141.4918   71.1553  228.2288 H   0  0  0  0  0  0  0  0  0  0  0  0
  141.5092   72.7860  226.3271 H   0  0  0  0  0  0  0  0  0  0  0  0
  1  2  2  0
  2  3  1  0
  3  4  1  0
  4  5  1  0
  5  6  2  0
  5  7  1  0
  7  8  1  0
  8  9  1  0
  9 10  1  0
  9 11  1  0
 11 12  1  0
 12 13  1  0
 13 14  1  0
 14 15  1  0
 15 16  1  0
 16 17  2  0
 17 18  1  0
 18 19  2  0
 19 20  1  0
 20 21  2  0
  2 22  1  0
 22 23  2  0
 23 24  1  0
 24 25  2  0
 25 26  1  0
 26 27  2  0
 27 28  1  0
 27 29  1  0
 29 30  2  0
 30 31  1  0
 31 32  2  0
 12  7  1  0
 21 16  1  0
 32 22  1  0
 31 25  1  0
  3 33  1  0
  4 34  1  0
  4 35  1  0
  8 36  1  0
  8 37  1  0
  9 38  1  6
 10 39  1  0
 11 40  1  0
 11 41  1  0
 12 42  1  6
 13 43  1  0
 13 44  1  0
 15 45  1  0
 15 46  1  0
 17 47  1  0
 18 48  1  0
 19 49  1  0
 20 50  1  0
 21 51  1  0
 23 52  1  0
 24 53  1  0
 26 54  1  0
 29 55  1  0
 30 56  1  0
M  END
>  <smiles>  (16) 
O=C(NCC(=O)N1C[C@H](O)C[C@H]1COCc1ccccc1)c1ccc2cc(Cl)ccc2n1

>  <score_type>  (16) 
oracle

>  <origin>  (16) 
autodockgpu

>  <m_score__min__energy>  (16) 
-8.9399999999999995

>  <m_primary>  (16) 
energy

>  <rmsd>  (16) 
2.384001920779563

>  <m_score__min__rmsd>  (16) 
2.384001920779563

>  <meeko>  (16) 
{"free_energy": -7.71, "intermolecular_energy": -10.39, "internal_energy": -2.43, "cluster_size": 9, "cluster_id": 4, "rank_in_cluster": 6}

>  <energy>  (16) 
-6.77

>  <cluster_rmsd>  (16) 
1.9

>  <cluster>  (16) 
1

$$$$

     RDKit          3D

 56 59  0  0  0  0  0  0  0  0999 V2000
  141.3580   72.2110  220.7810 O   0  0  0  0  0  0  0  0  0  0  0  0
  140.8080   73.0650  221.5280 C   0  0  0  0  0  0  0  0  0  0  0  0
  139.9420   72.6370  222.5770 N   0  0  0  0  0  0  0  0  0  0  0  0
  139.7240   71.2400  222.7510 C   0  0  0  0  0  0  0  0  0  0  0  0
  138.3410   70.8170  222.4500 C   0  0  0  0  0  0  0  0  0  0  0  0
  138.0220   70.7010  221.2400 O   0  0  0  0  0  0  0  0  0  0  0  0
  137.4570   70.5680  223.5320 N   0  0  0  0  0  0  0  0  0  0  0  0
  136.2850   71.3710  223.9260 C   0  0  0  0  0  0  0  0  0  0  0  0
  135.3160   70.2800  224.3300 C   0  0  2  0  0  0  0  0  0  0  0  0
  135.0810   70.4350  225.7010 O   0  0  0  0  0  0  0  0  0  0  0  0
  136.0680   68.9560  224.1860 C   0  0  0  0  0  0  0  0  0  0  0  0
  137.4730   69.4850  224.5090 C   0  0  1  0  0  0  0  0  0  0  0  0
  138.5450   68.5280  224.2290 C   0  0  0  0  0  0  0  0  0  0  0  0
  139.2770   68.0380  225.2410 O   0  0  0  0  0  0  0  0  0  0  0  0
  139.1750   68.5090  226.4940 C   0  0  0  0  0  0  0  0  0  0  0  0
  139.9090   69.7660  226.7910 C   0  0  0  0  0  0  0  0  0  0  0  0
  139.8900   70.3850  228.0230 C   0  0  0  0  0  0  0  0  0  0  0  0
  140.5850   71.5520  228.2570 C   0  0  0  0  0  0  0  0  0  0  0  0
  141.3360   72.1630  227.2700 C   0  0  0  0  0  0  0  0  0  0  0  0
  141.3600   71.5500  226.0340 C   0  0  0  0  0  0  0  0  0  0  0  0
  140.6700   70.3840  225.7910 C   0  0  0  0  0  0  0  0  0  0  0  0
  141.0390   74.5080  221.3400 C   0  0  0  0  0  0  0  0  0  0  0  0
  141.9400   74.8970  220.3540 C   0  0  0  0  0  0  0  0  0  0  0  0
  142.1710   76.2330  220.1630 C   0  0  0  0  0  0  0  0  0  0  0  0
  141.5130   77.1580  220.9440 C   0  0  0  0  0  0  0  0  0  0  0  0
  141.7460   78.4900  220.7490 C   0  0  0  0  0  0  0  0  0  0  0  0
  141.0610   79.3890  221.5580 C   0  0  0  0  0  0  0  0  0  0  0  0
  141.3110   81.1060  221.3640 Cl  0  0  0  0  0  0  0  0  0  0  0  0
  140.1750   78.9740  222.5270 C   0  0  0  0  0  0  0  0  0  0  0  0
  139.9410   77.6240  222.7200 C   0  0  0  0  0  0  0  0  0  0  0  0
  140.6270   76.7430  221.9110 C   0  0  0  0  0  0  0  0  0  0  0  0
  140.4020   75.4290  222.0970 N   0  0  0  0  0  0  0  0  0  0  0  0
  139.5090   73.3850  223.1690 H   0  0  0  0  0  0  0  0  0  0  0  0
  140.4077   70.6952  222.0834 H   0  0  0  0  0  0  0  0  0  0  0  0
  139.9077   71.0137  223.8117 H   0  0  0  0  0  0  0  0  0  0  0  0
  136.5168   72.0389  224.7687 H   0  0  0  0  0  0  0  0  0  0  0  0
  135.9104   72.0451  223.1416 H   0  0  0  0  0  0  0  0  0  0  0  0
  134.3907   70.3130  223.7361 H   0  0  0  0  0  0  0  0  0  0  0  0
  134.7670   71.3390  225.9040 H   0  0  0  0  0  0  0  0  0  0  0  0
  135.7284   68.2010  224.9103 H   0  0  0  0  0  0  0  0  0  0  0  0
  135.9537   68.4332  223.2249 H   0  0  0  0  0  0  0  0  0  0  0  0
  137.6635   69.7365  225.5628 H   0  0  0  0  0  0  0  0  0  0  0  0
  138.0814   67.6676  223.7243 H   0  0  0  0  0  0  0  0  0  0  0  0
  139.2704   69.1169  223.6485 H   0  0  0  0  0  0  0  0  0  0  0  0
  138.1090   68.6882  226.6980 H   0  0  0  0  0  0  0  0  0  0  0  0
  139.6396   67.7427  227.1320 H   0  0  0  0  0  0  0  0  0  0  0  0
  139.3055   69.9361  228.8396 H   0  0  0  0  0  0  0  0  0  0  0  0
  140.5410   72.0097  229.2563 H   0  0  0  0  0  0  0  0  0  0  0  0
  141.8888   73.0946  227.4612 H   0  0  0  0  0  0  0  0  0  0  0  0
  141.9458   72.0050  225.2217 H   0  0  0  0  0  0  0  0  0  0  0  0
  140.7173   69.9284  224.7909 H   0  0  0  0  0  0  0  0  0  0  0  0
  142.4571   74.1454  219.7394 H   0  0  0  0  0  0  0  0  0  0  0  0
  142.8786   76.5663  219.3896 H   0  0  0  0  0  0  0  0  0  0  0  0
  142.4504   78.8385  219.9794 H   0  0  0  0  0  0  0  0  0  0  0  0
  139.6527   79.7165  223.1482 H   0  0  0  0  0  0  0  0  0  0  0  0
  139.2371   77.2684  223.4868 H   0  0  0  0  0  0  0  0  0  0  0  0
  1  2  2  0
  2  3  1  0
  3  4  1  0
  4  5  1  0
  5  6  2  0
  5  7  1  0
  7  8  1  0
  8  9  1  0
  9 10  1  0
  9 11  1  0
 11 12  1  0
 12 13  1  0
 13 14  1  0
 14 15  1  0
 15 16  1  0
 16 17  2  0
 17 18  1  0
 18 19  2  0
 19 20  1  0
 20 21  2  0
  2 22  1  0
 22 23  2  0
 23 24  1  0
 24 25  2  0
 25 26  1  0
 26 27  2  0
 27 28  1  0
 27 29  1  0
 29 30  2  0
 30 31  1  0
 31 32  2  0
 12  7  1  0
 21 16  1  0
 32 22  1  0
 31 25  1  0
  3 33  1  0
  4 34  1  0
  4 35  1  0
  8 36  1  0
  8 37  1  0
  9 38  1  6
 10 39  1  0
 11 40  1  0
 11 41  1  0
 12 42  1  1
 13 43  1  0
 13 44  1  0
 15 45  1  0
 15 46  1  0
 17 47  1  0
 18 48  1  0
 19 49  1  0
 20 50  1  0
 21 51  1  0
 23 52  1  0
 24 53  1  0
 26 54  1  0
 29 55  1  0
 30 56  1  0
M  END
>  <smiles>  (17) 
O=C(NCC(=O)N1C[C@H](O)C[C@H]1COCc1ccccc1)c1ccc2cc(Cl)ccc2n1

>  <score_type>  (17) 
oracle

>  <origin>  (17) 
autodockgpu

>  <m_score__min__energy>  (17) 
-8.9399999999999995

>  <m_primary>  (17) 
energy

>  <rmsd>  (17) 
8.243966851330368

>  <m_score__min__rmsd>  (17) 
8.243966851330368

>  <meeko>  (17) 
{"free_energy": -8.19, "intermolecular_energy": -10.88, "internal_energy": -2.05, "cluster_size": 12, "cluster_id": 3, "rank_in_cluster": 8}

>  <energy>  (17) 
-8.73

>  <cluster_rmsd>  (17) 
0.0

>  <cluster>  (17) 
2

$$$$

     RDKit          3D

 56 59  0  0  0  0  0  0  0  0999 V2000
  139.0550   71.8650  220.7770 O   0  0  0  0  0  0  0  0  0  0  0  0
  139.3760   72.3130  221.9120 C   0  0  0  0  0  0  0  0  0  0  0  0
  139.5360   73.7160  222.1020 N   0  0  0  0  0  0  0  0  0  0  0  0
  139.3270   74.5810  220.9870 C   0  0  0  0  0  0  0  0  0  0  0  0
  140.2800   74.3570  219.8810 C   0  0  0  0  0  0  0  0  0  0  0  0
  139.8050   74.0180  218.7680 O   0  0  0  0  0  0  0  0  0  0  0  0
  141.6660   74.5340  220.1320 N   0  0  0  0  0  0  0  0  0  0  0  0
  142.6310   73.5050  220.5590 C   0  0  0  0  0  0  0  0  0  0  0  0
  143.8530   73.9140  219.7640 C   0  0  2  0  0  0  0  0  0  0  0  0
  144.8280   74.3000  220.6900 O   0  0  0  0  0  0  0  0  0  0  0  0
  143.4720   75.1880  219.0080 C   0  0  0  0  0  0  0  0  0  0  0  0
  142.4760   75.7430  220.0370 C   0  0  1  0  0  0  0  0  0  0  0  0
  141.6900   76.8760  219.5470 C   0  0  0  0  0  0  0  0  0  0  0  0
  140.8750   77.5320  220.3870 O   0  0  0  0  0  0  0  0  0  0  0  0
  141.0600   77.5230  221.7180 C   0  0  0  0  0  0  0  0  0  0  0  0
  141.4870   78.8050  222.3360 C   0  0  0  0  0  0  0  0  0  0  0  0
  141.9420   78.9100  223.6330 C   0  0  0  0  0  0  0  0  0  0  0  0
  142.3270   80.1190  224.1690 C   0  0  0  0  0  0  0  0  0  0  0  0
  142.2780   81.2900  223.4350 C   0  0  0  0  0  0  0  0  0  0  0  0
  141.8250   81.1940  222.1360 C   0  0  0  0  0  0  0  0  0  0  0  0
  141.4380   79.9900  221.5910 C   0  0  0  0  0  0  0  0  0  0  0  0
  139.5900   71.4110  223.0580 C   0  0  0  0  0  0  0  0  0  0  0  0
  139.2170   70.0780  222.9120 C   0  0  0  0  0  0  0  0  0  0  0  0
  139.4080   69.2230  223.9640 C   0  0  0  0  0  0  0  0  0  0  0  0
  139.9580   69.6940  225.1360 C   0  0  0  0  0  0  0  0  0  0  0  0
  140.1460   68.8360  226.1830 C   0  0  0  0  0  0  0  0  0  0  0  0
  140.7040   69.3530  227.3470 C   0  0  0  0  0  0  0  0  0  0  0  0
  140.9720   68.3130  228.7230 Cl  0  0  0  0  0  0  0  0  0  0  0  0
  141.0620   70.6780  227.4620 C   0  0  0  0  0  0  0  0  0  0  0  0
  140.8710   71.5420  226.3990 C   0  0  0  0  0  0  0  0  0  0  0  0
  140.3160   71.0170  225.2500 C   0  0  0  0  0  0  0  0  0  0  0  0
  140.1290   71.8560  224.2140 N   0  0  0  0  0  0  0  0  0  0  0  0
  139.8030   74.0380  223.0620 H   0  0  0  0  0  0  0  0  0  0  0  0
  138.3077   74.4187  220.6066 H   0  0  0  0  0  0  0  0  0  0  0  0
  139.4804   75.6105  221.3428 H   0  0  0  0  0  0  0  0  0  0  0  0
  142.8187   73.5507  221.6419 H   0  0  0  0  0  0  0  0  0  0  0  0
  142.3001   72.4705  220.3852 H   0  0  0  0  0  0  0  0  0  0  0  0
  144.1979   73.1087  219.0988 H   0  0  0  0  0  0  0  0  0  0  0  0
  145.5710   74.7580  220.2480 H   0  0  0  0  0  0  0  0  0  0  0  0
  144.3318   75.8568  218.8548 H   0  0  0  0  0  0  0  0  0  0  0  0
  143.0906   75.0519  217.9853 H   0  0  0  0  0  0  0  0  0  0  0  0
  142.9123   76.1519  220.9603 H   0  0  0  0  0  0  0  0  0  0  0  0
  142.4048   77.6142  219.1544 H   0  0  0  0  0  0  0  0  0  0  0  0
  140.9984   76.4155  218.8261 H   0  0  0  0  0  0  0  0  0  0  0  0
  140.1095   77.2267  222.1857 H   0  0  0  0  0  0  0  0  0  0  0  0
  141.8917   76.8244  221.8919 H   0  0  0  0  0  0  0  0  0  0  0  0
  141.9991   78.0051  224.2558 H   0  0  0  0  0  0  0  0  0  0  0  0
  142.6831   80.1540  225.2092 H   0  0  0  0  0  0  0  0  0  0  0  0
  142.5861   82.2534  223.8673 H   0  0  0  0  0  0  0  0  0  0  0  0
  141.7714   82.1031  221.5190 H   0  0  0  0  0  0  0  0  0  0  0  0
  141.0835   79.9583  220.5502 H   0  0  0  0  0  0  0  0  0  0  0  0
  138.7774   69.7186  221.9699 H   0  0  0  0  0  0  0  0  0  0  0  0
  139.1235   68.1643  223.8739 H   0  0  0  0  0  0  0  0  0  0  0  0
  139.8661   67.7749  226.1076 H   0  0  0  0  0  0  0  0  0  0  0  0
  141.5002   71.0494  228.4001 H   0  0  0  0  0  0  0  0  0  0  0  0
  141.1500   72.6039  226.4668 H   0  0  0  0  0  0  0  0  0  0  0  0
  1  2  2  0
  2  3  1  0
  3  4  1  0
  4  5  1  0
  5  6  2  0
  5  7  1  0
  7  8  1  0
  8  9  1  0
  9 10  1  0
  9 11  1  0
 11 12  1  0
 12 13  1  0
 13 14  1  0
 14 15  1  0
 15 16  1  0
 16 17  2  0
 17 18  1  0
 18 19  2  0
 19 20  1  0
 20 21  2  0
  2 22  1  0
 22 23  2  0
 23 24  1  0
 24 25  2  0
 25 26  1  0
 26 27  2  0
 27 28  1  0
 27 29  1  0
 29 30  2  0
 30 31  1  0
 31 32  2  0
 12  7  1  0
 21 16  1  0
 32 22  1  0
 31 25  1  0
  3 33  1  0
  4 34  1  0
  4 35  1  0
  8 36  1  0
  8 37  1  0
  9 38  1  6
 10 39  1  0
 11 40  1  0
 11 41  1  0
 12 42  1  1
 13 43  1  0
 13 44  1  0
 15 45  1  0
 15 46  1  0
 17 47  1  0
 18 48  1  0
 19 49  1  0
 20 50  1  0
 21 51  1  0
 23 52  1  0
 24 53  1  0
 26 54  1  0
 29 55  1  0
 30 56  1  0
M  END
>  <smiles>  (18) 
O=C(NCC(=O)N1C[C@H](O)C[C@H]1COCc1ccccc1)c1ccc2cc(Cl)ccc2n1

>  <score_type>  (18) 
oracle

>  <origin>  (18) 
autodockgpu

>  <m_score__min__energy>  (18) 
-8.9399999999999995

>  <m_primary>  (18) 
energy

>  <rmsd>  (18) 
2.4236034007736142

>  <m_score__min__rmsd>  (18) 
2.4236034007736142

>  <meeko>  (18) 
{"free_energy": -8.4, "intermolecular_energy": -11.09, "internal_energy": -1.92, "cluster_size": 16, "cluster_id": 1, "rank_in_cluster": 8}

>  <energy>  (18) 
-8.41

>  <cluster_rmsd>  (18) 
0.94

>  <cluster>  (18) 
2

$$$$

     RDKit          3D

 56 59  0  0  0  0  0  0  0  0999 V2000
  140.8020   72.5420  220.7290 O   0  0  0  0  0  0  0  0  0  0  0  0
  140.3380   72.8890  221.8490 C   0  0  0  0  0  0  0  0  0  0  0  0
  139.9220   74.2360  222.0580 N   0  0  0  0  0  0  0  0  0  0  0  0
  140.0450   75.1600  220.9800 C   0  0  0  0  0  0  0  0  0  0  0  0
  140.8120   76.3730  221.3280 C   0  0  0  0  0  0  0  0  0  0  0  0
  141.0680   76.5680  222.5420 O   0  0  0  0  0  0  0  0  0  0  0  0
  141.2150   77.2450  220.2820 N   0  0  0  0  0  0  0  0  0  0  0  0
  142.5250   77.2770  219.6070 C   0  0  0  0  0  0  0  0  0  0  0  0
  142.1030   77.5590  218.1800 C   0  0  2  0  0  0  0  0  0  0  0  0
  142.6170   78.8170  217.8470 O   0  0  0  0  0  0  0  0  0  0  0  0
  140.5830   77.7260  218.2030 C   0  0  0  0  0  0  0  0  0  0  0  0
  140.4640   78.3050  219.6200 C   0  0  1  0  0  0  0  0  0  0  0  0
  139.0880   78.3760  220.1170 C   0  0  0  0  0  0  0  0  0  0  0  0
  138.6520   79.5010  220.7040 O   0  0  0  0  0  0  0  0  0  0  0  0
  138.7710   79.7120  222.0250 C   0  0  0  0  0  0  0  0  0  0  0  0
  140.1530   79.8590  222.5510 C   0  0  0  0  0  0  0  0  0  0  0  0
  140.6330   79.1530  223.6330 C   0  0  0  0  0  0  0  0  0  0  0  0
  141.9230   79.3190  224.0910 C   0  0  0  0  0  0  0  0  0  0  0  0
  142.8010   80.2010  223.4890 C   0  0  0  0  0  0  0  0  0  0  0  0
  142.3280   80.9110  222.4050 C   0  0  0  0  0  0  0  0  0  0  0  0
  141.0420   80.7520  221.9400 C   0  0  0  0  0  0  0  0  0  0  0  0
  140.2150   71.9260  222.9580 C   0  0  0  0  0  0  0  0  0  0  0  0
  139.5860   70.7130  222.6960 C   0  0  0  0  0  0  0  0  0  0  0  0
  139.4610   69.8040  223.7120 C   0  0  0  0  0  0  0  0  0  0  0  0
  139.9540   70.1050  224.9620 C   0  0  0  0  0  0  0  0  0  0  0  0
  139.8280   69.1940  225.9730 C   0  0  0  0  0  0  0  0  0  0  0  0
  140.3400   69.5380  227.2190 C   0  0  0  0  0  0  0  0  0  0  0  0
  140.2110   68.4220  228.5550 Cl  0  0  0  0  0  0  0  0  0  0  0  0
  140.9570   70.7480  227.4480 C   0  0  0  0  0  0  0  0  0  0  0  0
  141.0840   71.6660  226.4210 C   0  0  0  0  0  0  0  0  0  0  0  0
  140.5720   71.3130  225.1910 C   0  0  0  0  0  0  0  0  0  0  0  0
  140.6940   72.2060  224.1900 N   0  0  0  0  0  0  0  0  0  0  0  0
  139.5440   74.4740  223.0060 H   0  0  0  0  0  0  0  0  0  0  0  0
  140.5524   74.6550  220.1448 H   0  0  0  0  0  0  0  0  0  0  0  0
  139.0281   75.4853  220.7153 H   0  0  0  0  0  0  0  0  0  0  0  0
  143.1660   78.0774  220.0051 H   0  0  0  0  0  0  0  0  0  0  0  0
  143.1240   76.3630  219.7323 H   0  0  0  0  0  0  0  0  0  0  0  0
  142.4368   76.7701  217.4899 H   0  0  0  0  0  0  0  0  0  0  0  0
  143.3260   78.7410  217.1770 H   0  0  0  0  0  0  0  0  0  0  0  0
  140.2274   78.4269  217.4334 H   0  0  0  0  0  0  0  0  0  0  0  0
  139.9909   76.8225  217.9951 H   0  0  0  0  0  0  0  0  0  0  0  0
  140.8051   79.3430  219.7474 H   0  0  0  0  0  0  0  0  0  0  0  0
  138.4279   78.1878  219.2574 H   0  0  0  0  0  0  0  0  0  0  0  0
  139.0708   77.6376  220.9322 H   0  0  0  0  0  0  0  0  0  0  0  0
  138.2215   80.6336  222.2671 H   0  0  0  0  0  0  0  0  0  0  0  0
  138.3730   78.8042  222.5019 H   0  0  0  0  0  0  0  0  0  0  0  0
  139.9703   78.4391  224.1441 H   0  0  0  0  0  0  0  0  0  0  0  0
  142.2625   78.7340  224.9585 H   0  0  0  0  0  0  0  0  0  0  0  0
  143.8293   80.3306  223.8574 H   0  0  0  0  0  0  0  0  0  0  0  0
  142.9961   81.6232  221.8987 H   0  0  0  0  0  0  0  0  0  0  0  0
  140.7062   81.3378  221.0716 H   0  0  0  0  0  0  0  0  0  0  0  0
  139.1967   70.4887  221.6920 H   0  0  0  0  0  0  0  0  0  0  0  0
  138.9688   68.8372  223.5306 H   0  0  0  0  0  0  0  0  0  0  0  0
  139.3388   68.2229  225.8068 H   0  0  0  0  0  0  0  0  0  0  0  0
  141.3490   70.9845  228.4482 H   0  0  0  0  0  0  0  0  0  0  0  0
  141.5737   72.6381  226.5796 H   0  0  0  0  0  0  0  0  0  0  0  0
  1  2  2  0
  2  3  1  0
  3  4  1  0
  4  5  1  0
  5  6  2  0
  5  7  1  0
  7  8  1  0
  8  9  1  0
  9 10  1  0
  9 11  1  0
 11 12  1  0
 12 13  1  0
 13 14  1  0
 14 15  1  0
 15 16  1  0
 16 17  2  0
 17 18  1  0
 18 19  2  0
 19 20  1  0
 20 21  2  0
  2 22  1  0
 22 23  2  0
 23 24  1  0
 24 25  2  0
 25 26  1  0
 26 27  2  0
 27 28  1  0
 27 29  1  0
 29 30  2  0
 30 31  1  0
 31 32  2  0
 12  7  1  0
 21 16  1  0
 32 22  1  0
 31 25  1  0
  3 33  1  0
  4 34  1  0
  4 35  1  0
  8 36  1  0
  8 37  1  0
  9 38  1  6
 10 39  1  0
 11 40  1  0
 11 41  1  0
 12 42  1  6
 13 43  1  0
 13 44  1  0
 15 45  1  0
 15 46  1  0
 17 47  1  0
 18 48  1  0
 19 49  1  0
 20 50  1  0
 21 51  1  0
 23 52  1  0
 24 53  1  0
 26 54  1  0
 29 55  1  0
 30 56  1  0
M  END
>  <smiles>  (19) 
O=C(NCC(=O)N1C[C@H](O)C[C@H]1COCc1ccccc1)c1ccc2cc(Cl)ccc2n1

>  <score_type>  (19) 
oracle

>  <origin>  (19) 
autodockgpu

>  <m_score__min__energy>  (19) 
-8.9399999999999995

>  <m_primary>  (19) 
energy

>  <rmsd>  (19) 
2.242651979507968

>  <m_score__min__rmsd>  (19) 
2.242651979507968

>  <meeko>  (19) 
{"free_energy": -8.19, "intermolecular_energy": -10.88, "internal_energy": -2.13, "cluster_size": 9, "cluster_id": 4, "rank_in_cluster": 4}

>  <energy>  (19) 
-8.2

>  <cluster_rmsd>  (19) 
1.43

>  <cluster>  (19) 
2

$$$$

     RDKit          3D

 56 59  0  0  0  0  0  0  0  0999 V2000
  139.4070   72.5150  220.4900 O   0  0  0  0  0  0  0  0  0  0  0  0
  139.9270   72.8240  221.5960 C   0  0  0  0  0  0  0  0  0  0  0  0
  140.5210   74.1090  221.7650 N   0  0  0  0  0  0  0  0  0  0  0  0
  140.5080   75.0150  220.6650 C   0  0  0  0  0  0  0  0  0  0  0  0
  140.9810   76.3700  221.0110 C   0  0  0  0  0  0  0  0  0  0  0  0
  141.0990   76.6480  222.2300 O   0  0  0  0  0  0  0  0  0  0  0  0
  141.2740   77.2760  219.9570 N   0  0  0  0  0  0  0  0  0  0  0  0
  142.5780   77.4870  219.3040 C   0  0  0  0  0  0  0  0  0  0  0  0
  142.1470   77.6850  217.8660 C   0  0  2  0  0  0  0  0  0  0  0  0
  142.4800   79.0000  217.5200 O   0  0  0  0  0  0  0  0  0  0  0  0
  140.6180   77.6310  217.8610 C   0  0  0  0  0  0  0  0  0  0  0  0
  140.3900   78.2070  219.2650 C   0  0  1  0  0  0  0  0  0  0  0  0
  139.0100   78.0860  219.7380 C   0  0  0  0  0  0  0  0  0  0  0  0
  138.5500   78.9360  220.6680 O   0  0  0  0  0  0  0  0  0  0  0  0
  139.1810   80.0850  220.9640 C   0  0  0  0  0  0  0  0  0  0  0  0
  140.3360   79.9860  221.8920 C   0  0  0  0  0  0  0  0  0  0  0  0
  140.2770   79.3530  223.1160 C   0  0  0  0  0  0  0  0  0  0  0  0
  141.3730   79.2850  223.9490 C   0  0  0  0  0  0  0  0  0  0  0  0
  142.5880   79.8450  223.6010 C   0  0  0  0  0  0  0  0  0  0  0  0
  142.6560   80.4790  222.3780 C   0  0  0  0  0  0  0  0  0  0  0  0
  141.5670   80.5530  221.5390 C   0  0  0  0  0  0  0  0  0  0  0  0
  139.9360   71.8810  222.7280 C   0  0  0  0  0  0  0  0  0  0  0  0
  139.3650   70.6270  222.5320 C   0  0  0  0  0  0  0  0  0  0  0  0
  139.3630   69.7360  223.5710 C   0  0  0  0  0  0  0  0  0  0  0  0
  139.9200   70.0930  224.7790 C   0  0  0  0  0  0  0  0  0  0  0  0
  139.9160   69.2000  225.8120 C   0  0  0  0  0  0  0  0  0  0  0  0
  140.4890   69.6010  227.0140 C   0  0  0  0  0  0  0  0  0  0  0  0
  140.5170   68.5090  228.3760 Cl  0  0  0  0  0  0  0  0  0  0  0  0
  141.0460   70.8490  227.1780 C   0  0  0  0  0  0  0  0  0  0  0  0
  141.0490   71.7500  226.1290 C   0  0  0  0  0  0  0  0  0  0  0  0
  140.4780   71.3400  224.9430 C   0  0  0  0  0  0  0  0  0  0  0  0
  140.4790   72.2160  223.9200 N   0  0  0  0  0  0  0  0  0  0  0  0
  140.9410   74.3180  222.7020 H   0  0  0  0  0  0  0  0  0  0  0  0
  141.1571   74.6113  219.8740 H   0  0  0  0  0  0  0  0  0  0  0  0
  139.4620   75.1116  220.3384 H   0  0  0  0  0  0  0  0  0  0  0  0
  143.0894   78.3770  219.6995 H   0  0  0  0  0  0  0  0  0  0  0  0
  143.2999   76.6708  219.4546 H   0  0  0  0  0  0  0  0  0  0  0  0
  142.6046   76.9430  217.1951 H   0  0  0  0  0  0  0  0  0  0  0  0
  143.3590   79.0380  217.0920 H   0  0  0  0  0  0  0  0  0  0  0  0
  140.1797   78.2619  217.0737 H   0  0  0  0  0  0  0  0  0  0  0  0
  140.1665   76.6485  217.6589 H   0  0  0  0  0  0  0  0  0  0  0  0
  140.5749   79.2852  219.3804 H   0  0  0  0  0  0  0  0  0  0  0  0
  138.3601   78.1944  218.8572 H   0  0  0  0  0  0  0  0  0  0  0  0
  138.9993   77.1134  220.2518 H   0  0  0  0  0  0  0  0  0  0  0  0
  139.5459   80.5185  220.0212 H   0  0  0  0  0  0  0  0  0  0  0  0
  138.4359   80.6992  221.4908 H   0  0  0  0  0  0  0  0  0  0  0  0
  139.3313   78.8907  223.4354 H   0  0  0  0  0  0  0  0  0  0  0  0
  141.2783   78.7712  224.9170 H   0  0  0  0  0  0  0  0  0  0  0  0
  143.4603   79.7876  224.2687 H   0  0  0  0  0  0  0  0  0  0  0  0
  143.6055   80.9376  222.0647 H   0  0  0  0  0  0  0  0  0  0  0  0
  141.6657   81.0678  220.5719 H   0  0  0  0  0  0  0  0  0  0  0  0
  138.9239   70.3572  221.5611 H   0  0  0  0  0  0  0  0  0  0  0  0
  138.9181   68.7383  223.4417 H   0  0  0  0  0  0  0  0  0  0  0  0
  139.4751   68.1988  225.6974 H   0  0  0  0  0  0  0  0  0  0  0  0
  141.4893   71.1300  228.1447 H   0  0  0  0  0  0  0  0  0  0  0  0
  141.4888   72.7525  226.2364 H   0  0  0  0  0  0  0  0  0  0  0  0
  1  2  2  0
  2  3  1  0
  3  4  1  0
  4  5  1  0
  5  6  2  0
  5  7  1  0
  7  8  1  0
  8  9  1  0
  9 10  1  0
  9 11  1  0
 11 12  1  0
 12 13  1  0
 13 14  1  0
 14 15  1  0
 15 16  1  0
 16 17  2  0
 17 18  1  0
 18 19  2  0
 19 20  1  0
 20 21  2  0
  2 22  1  0
 22 23  2  0
 23 24  1  0
 24 25  2  0
 25 26  1  0
 26 27  2  0
 27 28  1  0
 27 29  1  0
 29 30  2  0
 30 31  1  0
 31 32  2  0
 12  7  1  0
 21 16  1  0
 32 22  1  0
 31 25  1  0
  3 33  1  0
  4 34  1  0
  4 35  1  0
  8 36  1  0
  8 37  1  0
  9 38  1  6
 10 39  1  0
 11 40  1  0
 11 41  1  0
 12 42  1  6
 13 43  1  0
 13 44  1  0
 15 45  1  0
 15 46  1  0
 17 47  1  0
 18 48  1  0
 19 49  1  0
 20 50  1  0
 21 51  1  0
 23 52  1  0
 24 53  1  0
 26 54  1  0
 29 55  1  0
 30 56  1  0
M  END
>  <smiles>  (20) 
O=C(NCC(=O)N1C[C@H](O)C[C@H]1COCc1ccccc1)c1ccc2cc(Cl)ccc2n1

>  <score_type>  (20) 
oracle

>  <origin>  (20) 
autodockgpu

>  <m_score__min__energy>  (20) 
-8.9399999999999995

>  <m_primary>  (20) 
energy

>  <rmsd>  (20) 
2.335633613267334

>  <m_score__min__rmsd>  (20) 
2.335633613267334

>  <meeko>  (20) 
{"free_energy": -7.58, "intermolecular_energy": -10.26, "internal_energy": -2.61, "cluster_size": 9, "cluster_id": 4, "rank_in_cluster": 7}

>  <energy>  (20) 
-7.75

>  <cluster_rmsd>  (20) 
1.42

>  <cluster>  (20) 
2

$$$$

     RDKit          3D

 56 59  0  0  0  0  0  0  0  0999 V2000
  139.4750   72.0550  219.9830 O   0  0  0  0  0  0  0  0  0  0  0  0
  139.8220   72.5640  221.0830 C   0  0  0  0  0  0  0  0  0  0  0  0
  140.3210   73.8990  221.1200 N   0  0  0  0  0  0  0  0  0  0  0  0
  140.4130   74.6250  219.8970 C   0  0  0  0  0  0  0  0  0  0  0  0
  139.3960   75.6870  219.7630 C   0  0  0  0  0  0  0  0  0  0  0  0
  139.6980   76.6950  219.0790 O   0  0  0  0  0  0  0  0  0  0  0  0
  138.1430   75.5120  220.4090 N   0  0  0  0  0  0  0  0  0  0  0  0
  136.9990   74.7170  219.9280 C   0  0  0  0  0  0  0  0  0  0  0  0
  136.5010   74.1210  221.2290 C   0  0  2  0  0  0  0  0  0  0  0  0
  135.2230   74.6460  221.4510 O   0  0  0  0  0  0  0  0  0  0  0  0
  137.3840   74.6990  222.3360 C   0  0  0  0  0  0  0  0  0  0  0  0
  137.6730   76.0560  221.6780 C   0  0  1  0  0  0  0  0  0  0  0  0
  138.7190   76.8280  222.3500 C   0  0  0  0  0  0  0  0  0  0  0  0
  139.8540   76.2200  222.7260 O   0  0  0  0  0  0  0  0  0  0  0  0
  141.0630   76.6430  222.3210 C   0  0  0  0  0  0  0  0  0  0  0  0
  141.3280   78.1000  222.4380 C   0  0  0  0  0  0  0  0  0  0  0  0
  141.2120   78.9820  221.3840 C   0  0  0  0  0  0  0  0  0  0  0  0
  141.4680   80.3270  221.5350 C   0  0  0  0  0  0  0  0  0  0  0  0
  141.8550   80.8640  222.7490 C   0  0  0  0  0  0  0  0  0  0  0  0
  141.9730   79.9890  223.8090 C   0  0  0  0  0  0  0  0  0  0  0  0
  141.7190   78.6430  223.6690 C   0  0  0  0  0  0  0  0  0  0  0  0
  139.7230   71.8060  222.3430 C   0  0  0  0  0  0  0  0  0  0  0  0
  138.8820   70.6970  222.3670 C   0  0  0  0  0  0  0  0  0  0  0  0
  138.7760   69.9790  223.5280 C   0  0  0  0  0  0  0  0  0  0  0  0
  139.4950   70.3630  224.6380 C   0  0  0  0  0  0  0  0  0  0  0  0
  139.3850   69.6420  225.7930 C   0  0  0  0  0  0  0  0  0  0  0  0
  140.1280   70.0650  226.8900 C   0  0  0  0  0  0  0  0  0  0  0  0
  140.0350   69.1900  228.3980 Cl  0  0  0  0  0  0  0  0  0  0  0  0
  140.9510   71.1670  226.8350 C   0  0  0  0  0  0  0  0  0  0  0  0
  141.0600   71.8930  225.6630 C   0  0  0  0  0  0  0  0  0  0  0  0
  140.3180   71.4640  224.5830 C   0  0  0  0  0  0  0  0  0  0  0  0
  140.4220   72.1700  223.4410 N   0  0  0  0  0  0  0  0  0  0  0  0
  140.5960   74.2760  222.0580 H   0  0  0  0  0  0  0  0  0  0  0  0
  141.4091   75.0882  219.8415 H   0  0  0  0  0  0  0  0  0  0  0  0
  140.2398   73.9073  219.0816 H   0  0  0  0  0  0  0  0  0  0  0  0
  136.2352   75.3517  219.4548 H   0  0  0  0  0  0  0  0  0  0  0  0
  137.2517   73.9765  219.1549 H   0  0  0  0  0  0  0  0  0  0  0  0
  136.5080   73.0213  221.2062 H   0  0  0  0  0  0  0  0  0  0  0  0
  134.8830   75.0930  220.6500 H   0  0  0  0  0  0  0  0  0  0  0  0
  136.8453   74.8027  223.2894 H   0  0  0  0  0  0  0  0  0  0  0  0
  138.2614   74.0999  222.6211 H   0  0  0  0  0  0  0  0  0  0  0  0
  136.8387   76.7727  221.6607 H   0  0  0  0  0  0  0  0  0  0  0  0
  139.0038   77.6419  221.6670 H   0  0  0  0  0  0  0  0  0  0  0  0
  138.2533   77.1154  223.3042 H   0  0  0  0  0  0  0  0  0  0  0  0
  141.8198   76.1163  222.9209 H   0  0  0  0  0  0  0  0  0  0  0  0
  141.1021   76.4252  221.2435 H   0  0  0  0  0  0  0  0  0  0  0  0
  140.9073   78.6017  220.3978 H   0  0  0  0  0  0  0  0  0  0  0  0
  141.3616   80.9924  220.6656 H   0  0  0  0  0  0  0  0  0  0  0  0
  142.0592   81.9387  222.8642 H   0  0  0  0  0  0  0  0  0  0  0  0
  142.2781   80.3769  224.7921 H   0  0  0  0  0  0  0  0  0  0  0  0
  141.8251   77.9808  224.5409 H   0  0  0  0  0  0  0  0  0  0  0  0
  138.3143   70.4035  221.4717 H   0  0  0  0  0  0  0  0  0  0  0  0
  138.1186   69.0982  223.5740 H   0  0  0  0  0  0  0  0  0  0  0  0
  138.7323   68.7586  225.8533 H   0  0  0  0  0  0  0  0  0  0  0  0
  141.5227   71.4706  227.7244 H   0  0  0  0  0  0  0  0  0  0  0  0
  141.7119   72.7764  225.5952 H   0  0  0  0  0  0  0  0  0  0  0  0
  1  2  2  0
  2  3  1  0
  3  4  1  0
  4  5  1  0
  5  6  2  0
  5  7  1  0
  7  8  1  0
  8  9  1  0
  9 10  1  0
  9 11  1  0
 11 12  1  0
 12 13  1  0
 13 14  1  0
 14 15  1  0
 15 16  1  0
 16 17  2  0
 17 18  1  0
 18 19  2  0
 19 20  1  0
 20 21  2  0
  2 22  1  0
 22 23  2  0
 23 24  1  0
 24 25  2  0
 25 26  1  0
 26 27  2  0
 27 28  1  0
 27 29  1  0
 29 30  2  0
 30 31  1  0
 31 32  2  0
 12  7  1  0
 21 16  1  0
 32 22  1  0
 31 25  1  0
  3 33  1  0
  4 34  1  0
  4 35  1  0
  8 36  1  0
  8 37  1  0
  9 38  1  6
 10 39  1  0
 11 40  1  0
 11 41  1  0
 12 42  1  6
 13 43  1  0
 13 44  1  0
 15 45  1  0
 15 46  1  0
 17 47  1  0
 18 48  1  0
 19 49  1  0
 20 50  1  0
 21 51  1  0
 23 52  1  0
 24 53  1  0
 26 54  1  0
 29 55  1  0
 30 56  1  0
M  END
>  <smiles>  (21) 
O=C(NCC(=O)N1C[C@H](O)C[C@H]1COCc1ccccc1)c1ccc2cc(Cl)ccc2n1

>  <score_type>  (21) 
oracle

>  <origin>  (21) 
autodockgpu

>  <m_score__min__energy>  (21) 
-8.9399999999999995

>  <m_primary>  (21) 
energy

>  <rmsd>  (21) 
3.1826626056998375

>  <m_score__min__rmsd>  (21) 
3.1826626056998375

>  <meeko>  (21) 
{"free_energy": -6.41, "intermolecular_energy": -9.09, "internal_energy": -3.15, "cluster_size": 9, "cluster_id": 4, "rank_in_cluster": 9}

>  <energy>  (21) 
-7.4

>  <cluster_rmsd>  (21) 
1.42

>  <cluster>  (21) 
2

$$$$

     RDKit          3D

 56 59  0  0  0  0  0  0  0  0999 V2000
  141.4550   72.1960  221.3030 O   0  0  0  0  0  0  0  0  0  0  0  0
  140.6960   73.0900  221.7660 C   0  0  0  0  0  0  0  0  0  0  0  0
  139.5480   72.7210  222.5270 N   0  0  0  0  0  0  0  0  0  0  0  0
  139.2920   71.3350  222.7420 C   0  0  0  0  0  0  0  0  0  0  0  0
  137.8610   71.0230  222.9260 C   0  0  0  0  0  0  0  0  0  0  0  0
  137.1130   71.9480  223.3290 O   0  0  0  0  0  0  0  0  0  0  0  0
  137.4110   69.7060  222.6400 N   0  0  0  0  0  0  0  0  0  0  0  0
  136.8260   69.2220  221.3770 C   0  0  0  0  0  0  0  0  0  0  0  0
  137.4400   67.8400  221.2910 C   0  0  2  0  0  0  0  0  0  0  0  0
  136.3870   66.9230  221.3880 O   0  0  0  0  0  0  0  0  0  0  0  0
  138.2680   67.6540  222.5630 C   0  0  0  0  0  0  0  0  0  0  0  0
  137.4100   68.5230  223.4930 C   0  0  1  0  0  0  0  0  0  0  0  0
  138.0340   68.7980  224.7890 C   0  0  0  0  0  0  0  0  0  0  0  0
  139.2250   68.2530  225.0810 O   0  0  0  0  0  0  0  0  0  0  0  0
  139.7820   68.3570  226.2980 C   0  0  0  0  0  0  0  0  0  0  0  0
  140.2790   69.7020  226.6860 C   0  0  0  0  0  0  0  0  0  0  0  0
  141.0140   70.5130  225.8470 C   0  0  0  0  0  0  0  0  0  0  0  0
  141.4570   71.7550  226.2470 C   0  0  0  0  0  0  0  0  0  0  0  0
  141.1890   72.2530  227.5080 C   0  0  0  0  0  0  0  0  0  0  0  0
  140.4540   71.4490  228.3540 C   0  0  0  0  0  0  0  0  0  0  0  0
  140.0060   70.2060  227.9640 C   0  0  0  0  0  0  0  0  0  0  0  0
  140.9690   74.5200  221.5380 C   0  0  0  0  0  0  0  0  0  0  0  0
  141.9190   74.8530  220.5770 C   0  0  0  0  0  0  0  0  0  0  0  0
  142.1880   76.1750  220.3490 C   0  0  0  0  0  0  0  0  0  0  0  0
  141.5210   77.1420  221.0680 C   0  0  0  0  0  0  0  0  0  0  0  0
  141.7930   78.4610  220.8370 C   0  0  0  0  0  0  0  0  0  0  0  0
  141.0970   79.4030  221.5850 C   0  0  0  0  0  0  0  0  0  0  0  0
  141.3950   81.1060  221.3400 Cl  0  0  0  0  0  0  0  0  0  0  0  0
  140.1620   79.0430  222.5300 C   0  0  0  0  0  0  0  0  0  0  0  0
  139.8890   77.7070  222.7600 C   0  0  0  0  0  0  0  0  0  0  0  0
  140.5870   76.7820  222.0120 C   0  0  0  0  0  0  0  0  0  0  0  0
  140.3230   75.4810  222.2350 N   0  0  0  0  0  0  0  0  0  0  0  0
  138.9490   73.5000  222.8890 H   0  0  0  0  0  0  0  0  0  0  0  0
  139.6619   70.7733  221.8715 H   0  0  0  0  0  0  0  0  0  0  0  0
  139.8076   71.0507  223.6712 H   0  0  0  0  0  0  0  0  0  0  0  0
  135.7284   69.1746  221.4312 H   0  0  0  0  0  0  0  0  0  0  0  0
  137.0263   69.8643  220.5067 H   0  0  0  0  0  0  0  0  0  0  0  0
  138.0309   67.7099  220.3724 H   0  0  0  0  0  0  0  0  0  0  0  0
  135.5750   67.3540  221.7220 H   0  0  0  0  0  0  0  0  0  0  0  0
  138.3051   66.6038  222.8881 H   0  0  0  0  0  0  0  0  0  0  0  0
  139.3330   67.9205  222.4935 H   0  0  0  0  0  0  0  0  0  0  0  0
  136.4411   68.0976  223.7935 H   0  0  0  0  0  0  0  0  0  0  0  0
  138.1562   69.8889  224.8595 H   0  0  0  0  0  0  0  0  0  0  0  0
  137.3509   68.3233  225.5088 H   0  0  0  0  0  0  0  0  0  0  0  0
  139.0272   68.0532  227.0382 H   0  0  0  0  0  0  0  0  0  0  0  0
  140.6744   67.7147  226.2659 H   0  0  0  0  0  0  0  0  0  0  0  0
  141.2526   70.1595  224.8330 H   0  0  0  0  0  0  0  0  0  0  0  0
  142.0401   72.3670  225.5431 H   0  0  0  0  0  0  0  0  0  0  0  0
  141.5455   73.2450  227.8225 H   0  0  0  0  0  0  0  0  0  0  0  0
  140.2194   71.8096  229.3664 H   0  0  0  0  0  0  0  0  0  0  0  0
  139.4223   69.5973  228.6702 H   0  0  0  0  0  0  0  0  0  0  0  0
  142.4435   74.0685  220.0117 H   0  0  0  0  0  0  0  0  0  0  0  0
  142.9341   76.4644  219.5943 H   0  0  0  0  0  0  0  0  0  0  0  0
  142.5363   78.7663  220.0858 H   0  0  0  0  0  0  0  0  0  0  0  0
  139.6320   79.8187  223.1022 H   0  0  0  0  0  0  0  0  0  0  0  0
  139.1459   77.3949  223.5086 H   0  0  0  0  0  0  0  0  0  0  0  0
  1  2  2  0
  2  3  1  0
  3  4  1  0
  4  5  1  0
  5  6  2  0
  5  7  1  0
  7  8  1  0
  8  9  1  0
  9 10  1  0
  9 11  1  0
 11 12  1  0
 12 13  1  0
 13 14  1  0
 14 15  1  0
 15 16  1  0
 16 17  2  0
 17 18  1  0
 18 19  2  0
 19 20  1  0
 20 21  2  0
  2 22  1  0
 22 23  2  0
 23 24  1  0
 24 25  2  0
 25 26  1  0
 26 27  2  0
 27 28  1  0
 27 29  1  0
 29 30  2  0
 30 31  1  0
 31 32  2  0
 12  7  1  0
 21 16  1  0
 32 22  1  0
 31 25  1  0
  3 33  1  0
  4 34  1  0
  4 35  1  0
  8 36  1  0
  8 37  1  0
  9 38  1  6
 10 39  1  0
 11 40  1  0
 11 41  1  0
 12 42  1  1
 13 43  1  0
 13 44  1  0
 15 45  1  0
 15 46  1  0
 17 47  1  0
 18 48  1  0
 19 49  1  0
 20 50  1  0
 21 51  1  0
 23 52  1  0
 24 53  1  0
 26 54  1  0
 29 55  1  0
 30 56  1  0
M  END
>  <smiles>  (22) 
O=C(NCC(=O)N1C[C@H](O)C[C@H]1COCc1ccccc1)c1ccc2cc(Cl)ccc2n1

>  <score_type>  (22) 
oracle

>  <origin>  (22) 
autodockgpu

>  <m_score__min__energy>  (22) 
-8.9399999999999995

>  <m_primary>  (22) 
energy

>  <rmsd>  (22) 
8.10462636834364

>  <m_score__min__rmsd>  (22) 
8.10462636834364

>  <meeko>  (22) 
{"free_energy": -8.07, "intermolecular_energy": -10.76, "internal_energy": -2.26, "cluster_size": 12, "cluster_id": 3, "rank_in_cluster": 10}

>  <energy>  (22) 
-6.72

>  <cluster_rmsd>  (22) 
1.92

>  <cluster>  (22) 
2

$$$$

     RDKit          3D

 56 59  0  0  0  0  0  0  0  0999 V2000
  138.9870   71.3540  221.1050 O   0  0  0  0  0  0  0  0  0  0  0  0
  138.6240   71.7610  222.2420 C   0  0  0  0  0  0  0  0  0  0  0  0
  137.5780   72.7240  222.3480 N   0  0  0  0  0  0  0  0  0  0  0  0
  136.9690   73.2020  221.1510 C   0  0  0  0  0  0  0  0  0  0  0  0
  137.6500   74.3780  220.5730 C   0  0  0  0  0  0  0  0  0  0  0  0
  137.3570   74.6950  219.3930 O   0  0  0  0  0  0  0  0  0  0  0  0
  138.5880   75.0820  221.3740 N   0  0  0  0  0  0  0  0  0  0  0  0
  140.0460   75.1620  221.1710 C   0  0  0  0  0  0  0  0  0  0  0  0
  140.3070   76.6030  221.5570 C   0  0  2  0  0  0  0  0  0  0  0  0
  141.1120   76.5760  222.7020 O   0  0  0  0  0  0  0  0  0  0  0  0
  138.9640   77.1810  222.0080 C   0  0  0  0  0  0  0  0  0  0  0  0
  138.3650   75.8850  222.5710 C   0  0  1  0  0  0  0  0  0  0  0  0
  136.9390   75.9820  222.8910 C   0  0  0  0  0  0  0  0  0  0  0  0
  136.3180   74.9460  223.4740 O   0  0  0  0  0  0  0  0  0  0  0  0
  135.1870   75.0950  224.1820 C   0  0  0  0  0  0  0  0  0  0  0  0
  134.7220   73.9080  224.9460 C   0  0  0  0  0  0  0  0  0  0  0  0
  135.0590   72.6120  224.6170 C   0  0  0  0  0  0  0  0  0  0  0  0
  134.6060   71.5380  225.3510 C   0  0  0  0  0  0  0  0  0  0  0  0
  133.7910   71.7030  226.4560 C   0  0  0  0  0  0  0  0  0  0  0  0
  133.4500   72.9960  226.7930 C   0  0  0  0  0  0  0  0  0  0  0  0
  133.8980   74.0760  226.0650 C   0  0  0  0  0  0  0  0  0  0  0  0
  139.2590   71.2620  223.4740 C   0  0  0  0  0  0  0  0  0  0  0  0
  140.3170   71.9960  224.0010 C   0  0  0  0  0  0  0  0  0  0  0  0
  140.9220   71.5490  225.1450 C   0  0  0  0  0  0  0  0  0  0  0  0
  140.4770   70.3930  225.7460 C   0  0  0  0  0  0  0  0  0  0  0  0
  141.0840   69.9520  226.8880 C   0  0  0  0  0  0  0  0  0  0  0  0
  140.6030   68.7810  227.4620 C   0  0  0  0  0  0  0  0  0  0  0  0
  141.3320   68.1600  228.9220 Cl  0  0  0  0  0  0  0  0  0  0  0  0
  139.5540   68.0750  226.9170 C   0  0  0  0  0  0  0  0  0  0  0  0
  138.9420   68.5260  225.7610 C   0  0  0  0  0  0  0  0  0  0  0  0
  139.4290   69.6880  225.2020 C   0  0  0  0  0  0  0  0  0  0  0  0
  138.8350   70.1290  224.0760 N   0  0  0  0  0  0  0  0  0  0  0  0
  137.3130   73.0310  223.3140 H   0  0  0  0  0  0  0  0  0  0  0  0
  136.9809   72.3921  220.4068 H   0  0  0  0  0  0  0  0  0  0  0  0
  135.9469   73.5149  221.4105 H   0  0  0  0  0  0  0  0  0  0  0  0
  140.5852   74.4630  221.8273 H   0  0  0  0  0  0  0  0  0  0  0  0
  140.3804   74.8939  220.1579 H   0  0  0  0  0  0  0  0  0  0  0  0
  140.7630   77.1723  220.7336 H   0  0  0  0  0  0  0  0  0  0  0  0
  142.0580   76.5000  222.4640 H   0  0  0  0  0  0  0  0  0  0  0  0
  139.0802   77.9575  222.7784 H   0  0  0  0  0  0  0  0  0  0  0  0
  138.3722   77.6962  221.2371 H   0  0  0  0  0  0  0  0  0  0  0  0
  138.7878   75.5312  223.5229 H   0  0  0  0  0  0  0  0  0  0  0  0
  136.8206   76.8446  223.5633 H   0  0  0  0  0  0  0  0  0  0  0  0
  136.4582   76.0470  221.9038 H   0  0  0  0  0  0  0  0  0  0  0  0
  135.3474   75.9128  224.9000 H   0  0  0  0  0  0  0  0  0  0  0  0
  134.4007   75.2885  223.4375 H   0  0  0  0  0  0  0  0  0  0  0  0
  135.7062   72.4312  223.7461 H   0  0  0  0  0  0  0  0  0  0  0  0
  134.9004   70.5217  225.0501 H   0  0  0  0  0  0  0  0  0  0  0  0
  133.4313   70.8425  227.0392 H   0  0  0  0  0  0  0  0  0  0  0  0
  132.8034   73.1694  227.6659 H   0  0  0  0  0  0  0  0  0  0  0  0
  133.6023   75.0909  226.3691 H   0  0  0  0  0  0  0  0  0  0  0  0
  140.6607   72.9174  223.5082 H   0  0  0  0  0  0  0  0  0  0  0  0
  141.7603   72.1113  225.5822 H   0  0  0  0  0  0  0  0  0  0  0  0
  141.9231   70.5038  227.3369 H   0  0  0  0  0  0  0  0  0  0  0  0
  139.2023   67.1519  227.4010 H   0  0  0  0  0  0  0  0  0  0  0  0
  138.1019   67.9800  225.3070 H   0  0  0  0  0  0  0  0  0  0  0  0
  1  2  2  0
  2  3  1  0
  3  4  1  0
  4  5  1  0
  5  6  2  0
  5  7  1  0
  7  8  1  0
  8  9  1  0
  9 10  1  0
  9 11  1  0
 11 12  1  0
 12 13  1  0
 13 14  1  0
 14 15  1  0
 15 16  1  0
 16 17  2  0
 17 18  1  0
 18 19  2  0
 19 20  1  0
 20 21  2  0
  2 22  1  0
 22 23  2  0
 23 24  1  0
 24 25  2  0
 25 26  1  0
 26 27  2  0
 27 28  1  0
 27 29  1  0
 29 30  2  0
 30 31  1  0
 31 32  2  0
 12  7  1  0
 21 16  1  0
 32 22  1  0
 31 25  1  0
  3 33  1  0
  4 34  1  0
  4 35  1  0
  8 36  1  0
  8 37  1  0
  9 38  1  6
 10 39  1  0
 11 40  1  0
 11 41  1  0
 12 42  1  1
 13 43  1  0
 13 44  1  0
 15 45  1  0
 15 46  1  0
 17 47  1  0
 18 48  1  0
 19 49  1  0
 20 50  1  0
 21 51  1  0
 23 52  1  0
 24 53  1  0
 26 54  1  0
 29 55  1  0
 30 56  1  0
M  END
>  <smiles>  (23) 
O=C(NCC(=O)N1C[C@H](O)C[C@H]1COCc1ccccc1)c1ccc2cc(Cl)ccc2n1

>  <score_type>  (23) 
oracle

>  <origin>  (23) 
autodockgpu

>  <m_score__min__energy>  (23) 
-8.9399999999999995

>  <m_primary>  (23) 
energy

>  <rmsd>  (23) 
3.2365462320410687

>  <m_score__min__rmsd>  (23) 
3.2365462320410687

>  <meeko>  (23) 
{"free_energy": -7.21, "intermolecular_energy": -9.9, "internal_energy": -2.76, "cluster_size": 1, "cluster_id": 6, "rank_in_cluster": 1}

>  <energy>  (23) 
-8.63

>  <cluster_rmsd>  (23) 
0.0

>  <cluster>  (23) 
3

$$$$

     RDKit          3D

 56 59  0  0  0  0  0  0  0  0999 V2000
  141.3540   72.1400  221.0800 O   0  0  0  0  0  0  0  0  0  0  0  0
  140.6750   73.0430  221.6380 C   0  0  0  0  0  0  0  0  0  0  0  0
  139.6060   72.6890  222.5130 N   0  0  0  0  0  0  0  0  0  0  0  0
  139.3370   71.3070  222.7310 C   0  0  0  0  0  0  0  0  0  0  0  0
  137.9230   71.0250  223.0520 C   0  0  0  0  0  0  0  0  0  0  0  0
  137.2180   71.9850  223.4530 O   0  0  0  0  0  0  0  0  0  0  0  0
  137.4410   69.7000  222.8900 N   0  0  0  0  0  0  0  0  0  0  0  0
  136.5190   69.2100  221.8490 C   0  0  0  0  0  0  0  0  0  0  0  0
  137.1130   67.8470  221.5630 C   0  0  2  0  0  0  0  0  0  0  0  0
  136.1590   66.8990  221.9510 O   0  0  0  0  0  0  0  0  0  0  0  0
  138.2860   67.6730  222.5290 C   0  0  0  0  0  0  0  0  0  0  0  0
  137.7210   68.5100  223.6850 C   0  0  1  0  0  0  0  0  0  0  0  0
  138.6940   68.7900  224.7430 C   0  0  0  0  0  0  0  0  0  0  0  0
  139.1940   67.7790  225.4700 O   0  0  0  0  0  0  0  0  0  0  0  0
  140.1250   67.9700  226.4190 C   0  0  0  0  0  0  0  0  0  0  0  0
  140.4380   69.3810  226.7640 C   0  0  0  0  0  0  0  0  0  0  0  0
  141.1920   70.2110  225.9620 C   0  0  0  0  0  0  0  0  0  0  0  0
  141.4610   71.5140  226.3200 C   0  0  0  0  0  0  0  0  0  0  0  0
  140.9900   72.0570  227.5010 C   0  0  0  0  0  0  0  0  0  0  0  0
  140.2340   71.2340  228.3090 C   0  0  0  0  0  0  0  0  0  0  0  0
  139.9600   69.9310  227.9600 C   0  0  0  0  0  0  0  0  0  0  0  0
  140.9610   74.4700  221.4060 C   0  0  0  0  0  0  0  0  0  0  0  0
  141.8790   74.7930  220.4120 C   0  0  0  0  0  0  0  0  0  0  0  0
  142.1600   76.1130  220.1800 C   0  0  0  0  0  0  0  0  0  0  0  0
  141.5350   77.0860  220.9270 C   0  0  0  0  0  0  0  0  0  0  0  0
  141.8180   78.4020  220.6910 C   0  0  0  0  0  0  0  0  0  0  0  0
  141.1650   79.3510  221.4690 C   0  0  0  0  0  0  0  0  0  0  0  0
  141.4800   81.0500  221.2200 Cl  0  0  0  0  0  0  0  0  0  0  0  0
  140.2610   79.0010  222.4460 C   0  0  0  0  0  0  0  0  0  0  0  0
  139.9760   77.6680  222.6810 C   0  0  0  0  0  0  0  0  0  0  0  0
  140.6310   76.7360  221.9030 C   0  0  0  0  0  0  0  0  0  0  0  0
  140.3560   75.4370  222.1300 N   0  0  0  0  0  0  0  0  0  0  0  0
  139.0720   73.4760  222.9510 H   0  0  0  0  0  0  0  0  0  0  0  0
  139.6043   70.7523  221.8195 H   0  0  0  0  0  0  0  0  0  0  0  0
  139.9344   70.9945  223.6001 H   0  0  0  0  0  0  0  0  0  0  0  0
  135.4883   69.1316  222.2253 H   0  0  0  0  0  0  0  0  0  0  0  0
  136.4363   69.8647  220.9689 H   0  0  0  0  0  0  0  0  0  0  0  0
  137.4079   67.7421  220.5085 H   0  0  0  0  0  0  0  0  0  0  0  0
  136.0470   66.2110  221.2650 H   0  0  0  0  0  0  0  0  0  0  0  0
  138.4432   66.6216  222.8114 H   0  0  0  0  0  0  0  0  0  0  0  0
  139.2759   67.9691  222.1516 H   0  0  0  0  0  0  0  0  0  0  0  0
  136.8945   68.0558  224.2512 H   0  0  0  0  0  0  0  0  0  0  0  0
  139.5481   69.2931  224.2661 H   0  0  0  0  0  0  0  0  0  0  0  0
  138.1156   69.3715  225.4760 H   0  0  0  0  0  0  0  0  0  0  0  0
  139.7760   67.4711  227.3352 H   0  0  0  0  0  0  0  0  0  0  0  0
  141.0558   67.5582  226.0018 H   0  0  0  0  0  0  0  0  0  0  0  0
  141.5889   69.8232  225.0122 H   0  0  0  0  0  0  0  0  0  0  0  0
  142.0670   72.1393  225.6479 H   0  0  0  0  0  0  0  0  0  0  0  0
  141.2083   73.0976  227.7831 H   0  0  0  0  0  0  0  0  0  0  0  0
  139.8397   71.6290  229.2569 H   0  0  0  0  0  0  0  0  0  0  0  0
  139.3531   69.3089  228.6343 H   0  0  0  0  0  0  0  0  0  0  0  0
  142.3696   74.0035  219.8238 H   0  0  0  0  0  0  0  0  0  0  0  0
  142.8823   76.3948  219.3997 H   0  0  0  0  0  0  0  0  0  0  0  0
  142.5367   78.6996  219.9133 H   0  0  0  0  0  0  0  0  0  0  0  0
  139.7646   79.7821  223.0406 H   0  0  0  0  0  0  0  0  0  0  0  0
  139.2570   77.3638  223.4560 H   0  0  0  0  0  0  0  0  0  0  0  0
  1  2  2  0
  2  3  1  0
  3  4  1  0
  4  5  1  0
  5  6  2  0
  5  7  1  0
  7  8  1  0
  8  9  1  0
  9 10  1  0
  9 11  1  0
 11 12  1  0
 12 13  1  0
 13 14  1  0
 14 15  1  0
 15 16  1  0
 16 17  2  0
 17 18  1  0
 18 19  2  0
 19 20  1  0
 20 21  2  0
  2 22  1  0
 22 23  2  0
 23 24  1  0
 24 25  2  0
 25 26  1  0
 26 27  2  0
 27 28  1  0
 27 29  1  0
 29 30  2  0
 30 31  1  0
 31 32  2  0
 12  7  1  0
 21 16  1  0
 32 22  1  0
 31 25  1  0
  3 33  1  0
  4 34  1  0
  4 35  1  0
  8 36  1  0
  8 37  1  0
  9 38  1  6
 10 39  1  0
 11 40  1  0
 11 41  1  0
 12 42  1  1
 13 43  1  0
 13 44  1  0
 15 45  1  0
 15 46  1  0
 17 47  1  0
 18 48  1  0
 19 49  1  0
 20 50  1  0
 21 51  1  0
 23 52  1  0
 24 53  1  0
 26 54  1  0
 29 55  1  0
 30 56  1  0
M  END
>  <smiles>  (24) 
O=C(NCC(=O)N1C[C@H](O)C[C@H]1COCc1ccccc1)c1ccc2cc(Cl)ccc2n1

>  <score_type>  (24) 
oracle

>  <origin>  (24) 
autodockgpu

>  <m_score__min__energy>  (24) 
-8.9399999999999995

>  <m_primary>  (24) 
energy

>  <rmsd>  (24) 
8.133397439359058

>  <m_score__min__rmsd>  (24) 
8.133397439359058

>  <meeko>  (24) 
{"free_energy": -8.63, "intermolecular_energy": -11.31, "internal_energy": -2.1, "cluster_size": 12, "cluster_id": 3, "rank_in_cluster": 1}

>  <energy>  (24) 
-8.52

>  <cluster_rmsd>  (24) 
0.5

>  <cluster>  (24) 
3

$$$$

     RDKit          3D

 56 59  0  0  0  0  0  0  0  0999 V2000
  140.5840   72.1920  220.7580 O   0  0  0  0  0  0  0  0  0  0  0  0
  140.2260   72.5790  221.9040 C   0  0  0  0  0  0  0  0  0  0  0  0
  139.8850   73.9470  222.1160 N   0  0  0  0  0  0  0  0  0  0  0  0
  139.9600   74.8450  221.0120 C   0  0  0  0  0  0  0  0  0  0  0  0
  141.0320   75.8520  221.1440 C   0  0  0  0  0  0  0  0  0  0  0  0
  141.1330   76.4500  222.2440 O   0  0  0  0  0  0  0  0  0  0  0  0
  141.8840   76.0870  220.0320 N   0  0  0  0  0  0  0  0  0  0  0  0
  142.6080   75.0770  219.2380 C   0  0  0  0  0  0  0  0  0  0  0  0
  142.4710   75.6590  217.8470 C   0  0  2  0  0  0  0  0  0  0  0  0
  143.7610   75.9910  217.4180 O   0  0  0  0  0  0  0  0  0  0  0  0
  141.7320   76.9890  218.0030 C   0  0  0  0  0  0  0  0  0  0  0  0
  142.2550   77.3480  219.4010 C   0  0  1  0  0  0  0  0  0  0  0  0
  141.5620   78.4800  220.0190 C   0  0  0  0  0  0  0  0  0  0  0  0
  140.2630   78.3690  220.3360 O   0  0  0  0  0  0  0  0  0  0  0  0
  139.7340   78.9720  221.4130 C   0  0  0  0  0  0  0  0  0  0  0  0
  140.6780   79.7150  222.2870 C   0  0  0  0  0  0  0  0  0  0  0  0
  140.9640   81.0550  222.1320 C   0  0  0  0  0  0  0  0  0  0  0  0
  141.8480   81.7070  222.9640 C   0  0  0  0  0  0  0  0  0  0  0  0
  142.4930   81.0530  223.9970 C   0  0  0  0  0  0  0  0  0  0  0  0
  142.2120   79.7130  224.1610 C   0  0  0  0  0  0  0  0  0  0  0  0
  141.3300   79.0520  223.3350 C   0  0  0  0  0  0  0  0  0  0  0  0
  140.1520   71.6420  223.0390 C   0  0  0  0  0  0  0  0  0  0  0  0
  139.5670   70.3990  222.8170 C   0  0  0  0  0  0  0  0  0  0  0  0
  139.4870   69.5140  223.8580 C   0  0  0  0  0  0  0  0  0  0  0  0
  139.9820   69.8670  225.0940 C   0  0  0  0  0  0  0  0  0  0  0  0
  139.9000   68.9800  226.1300 C   0  0  0  0  0  0  0  0  0  0  0  0
  140.4120   69.3770  227.3600 C   0  0  0  0  0  0  0  0  0  0  0  0
  140.3400   68.2930  228.7270 Cl  0  0  0  0  0  0  0  0  0  0  0  0
  140.9850   70.6150  227.5500 C   0  0  0  0  0  0  0  0  0  0  0  0
  141.0660   71.5090  226.4980 C   0  0  0  0  0  0  0  0  0  0  0  0
  140.5550   71.1040  225.2830 C   0  0  0  0  0  0  0  0  0  0  0  0
  140.6320   71.9730  224.2580 N   0  0  0  0  0  0  0  0  0  0  0  0
  139.5940   74.2180  223.0850 H   0  0  0  0  0  0  0  0  0  0  0  0
  140.1426   74.2596  220.0988 H   0  0  0  0  0  0  0  0  0  0  0  0
  139.0059   75.3911  220.9735 H   0  0  0  0  0  0  0  0  0  0  0  0
  143.6621   75.0014  219.5433 H   0  0  0  0  0  0  0  0  0  0  0  0
  142.2221   74.0523  219.3433 H   0  0  0  0  0  0  0  0  0  0  0  0
  141.9628   74.9652  217.1611 H   0  0  0  0  0  0  0  0  0  0  0  0
  144.4370   75.6260  218.0240 H   0  0  0  0  0  0  0  0  0  0  0  0
  142.0308   77.7255  217.2425 H   0  0  0  0  0  0  0  0  0  0  0  0
  140.6388   76.9553  217.8859 H   0  0  0  0  0  0  0  0  0  0  0  0
  143.3059   77.6682  219.4559 H   0  0  0  0  0  0  0  0  0  0  0  0
  142.0992   78.7137  220.9500 H   0  0  0  0  0  0  0  0  0  0  0  0
  141.5697   79.2475  219.2310 H   0  0  0  0  0  0  0  0  0  0  0  0
  138.9755   79.6851  221.0579 H   0  0  0  0  0  0  0  0  0  0  0  0
  139.3383   78.1576  222.0377 H   0  0  0  0  0  0  0  0  0  0  0  0
  140.4741   81.6177  221.3237 H   0  0  0  0  0  0  0  0  0  0  0  0
  142.0458   82.7768  222.8018 H   0  0  0  0  0  0  0  0  0  0  0  0
  143.1984   81.5777  224.6582 H   0  0  0  0  0  0  0  0  0  0  0  0
  142.7050   79.1576  224.9725 H   0  0  0  0  0  0  0  0  0  0  0  0
  141.1336   77.9825  223.5014 H   0  0  0  0  0  0  0  0  0  0  0  0
  139.1763   70.1328  221.8238 H   0  0  0  0  0  0  0  0  0  0  0  0
  139.0293   68.5250  223.7082 H   0  0  0  0  0  0  0  0  0  0  0  0
  139.4452   67.9875  225.9957 H   0  0  0  0  0  0  0  0  0  0  0  0
  141.3784   70.8927  228.5390 H   0  0  0  0  0  0  0  0  0  0  0  0
  141.5197   72.5030  226.6253 H   0  0  0  0  0  0  0  0  0  0  0  0
  1  2  2  0
  2  3  1  0
  3  4  1  0
  4  5  1  0
  5  6  2  0
  5  7  1  0
  7  8  1  0
  8  9  1  0
  9 10  1  0
  9 11  1  0
 11 12  1  0
 12 13  1  0
 13 14  1  0
 14 15  1  0
 15 16  1  0
 16 17  2  0
 17 18  1  0
 18 19  2  0
 19 20  1  0
 20 21  2  0
  2 22  1  0
 22 23  2  0
 23 24  1  0
 24 25  2  0
 25 26  1  0
 26 27  2  0
 27 28  1  0
 27 29  1  0
 29 30  2  0
 30 31  1  0
 31 32  2  0
 12  7  1  0
 21 16  1  0
 32 22  1  0
 31 25  1  0
  3 33  1  0
  4 34  1  0
  4 35  1  0
  8 36  1  0
  8 37  1  0
  9 38  1  6
 10 39  1  0
 11 40  1  0
 11 41  1  0
 12 42  1  6
 13 43  1  0
 13 44  1  0
 15 45  1  0
 15 46  1  0
 17 47  1  0
 18 48  1  0
 19 49  1  0
 20 50  1  0
 21 51  1  0
 23 52  1  0
 24 53  1  0
 26 54  1  0
 29 55  1  0
 30 56  1  0
M  END
>  <smiles>  (25) 
O=C(NCC(=O)N1C[C@H](O)C[C@H]1COCc1ccccc1)c1ccc2cc(Cl)ccc2n1

>  <score_type>  (25) 
oracle

>  <origin>  (25) 
autodockgpu

>  <m_score__min__energy>  (25) 
-8.9399999999999995

>  <m_primary>  (25) 
energy

>  <rmsd>  (25) 
1.873430673811915

>  <m_score__min__rmsd>  (25) 
1.873430673811915

>  <meeko>  (25) 
{"free_energy": -8.46, "intermolecular_energy": -11.14, "internal_energy": -1.72, "cluster_size": 16, "cluster_id": 1, "rank_in_cluster": 5}

>  <energy>  (25) 
-8.47

>  <cluster_rmsd>  (25) 
0.54

>  <cluster>  (25) 
3

$$$$

     RDKit          3D

 56 59  0  0  0  0  0  0  0  0999 V2000
  139.7830   71.9570  220.6860 O   0  0  0  0  0  0  0  0  0  0  0  0
  139.7280   72.3790  221.8730 C   0  0  0  0  0  0  0  0  0  0  0  0
  139.5770   73.7740  222.1220 N   0  0  0  0  0  0  0  0  0  0  0  0
  139.4930   74.6590  221.0080 C   0  0  0  0  0  0  0  0  0  0  0  0
  140.1720   75.9510  221.2280 C   0  0  0  0  0  0  0  0  0  0  0  0
  139.8300   76.6200  222.2350 O   0  0  0  0  0  0  0  0  0  0  0  0
  141.1640   76.3640  220.3000 N   0  0  0  0  0  0  0  0  0  0  0  0
  142.4980   75.7690  220.1020 C   0  0  0  0  0  0  0  0  0  0  0  0
  142.6300   75.8640  218.5960 C   0  0  2  0  0  0  0  0  0  0  0  0
  143.6880   76.7430  218.3370 O   0  0  0  0  0  0  0  0  0  0  0  0
  141.3710   76.5730  218.0950 C   0  0  0  0  0  0  0  0  0  0  0  0
  141.1280   77.4520  219.3290 C   0  0  1  0  0  0  0  0  0  0  0  0
  139.8280   78.1250  219.3290 C   0  0  0  0  0  0  0  0  0  0  0  0
  139.7390   79.3960  219.7510 O   0  0  0  0  0  0  0  0  0  0  0  0
  140.8180   80.1070  220.1160 C   0  0  0  0  0  0  0  0  0  0  0  0
  141.2620   79.9610  221.5260 C   0  0  0  0  0  0  0  0  0  0  0  0
  140.4600   79.4550  222.5270 C   0  0  0  0  0  0  0  0  0  0  0  0
  140.9110   79.3360  223.8240 C   0  0  0  0  0  0  0  0  0  0  0  0
  142.1890   79.7170  224.1890 C   0  0  0  0  0  0  0  0  0  0  0  0
  142.9980   80.2240  223.1940 C   0  0  0  0  0  0  0  0  0  0  0  0
  142.5570   80.3460  221.8950 C   0  0  0  0  0  0  0  0  0  0  0  0
  139.8170   71.4560  223.0180 C   0  0  0  0  0  0  0  0  0  0  0  0
  139.3510   70.1570  222.8420 C   0  0  0  0  0  0  0  0  0  0  0  0
  139.4240   69.2840  223.8940 C   0  0  0  0  0  0  0  0  0  0  0  0
  139.9510   69.7040  225.0950 C   0  0  0  0  0  0  0  0  0  0  0  0
  140.0220   68.8280  226.1410 C   0  0  0  0  0  0  0  0  0  0  0  0
  140.5620   69.2930  227.3350 C   0  0  0  0  0  0  0  0  0  0  0  0
  140.6820   68.2280  228.7130 Cl  0  0  0  0  0  0  0  0  0  0  0  0
  141.0150   70.5860  227.4800 C   0  0  0  0  0  0  0  0  0  0  0  0
  140.9420   71.4680  226.4170 C   0  0  0  0  0  0  0  0  0  0  0  0
  140.4040   70.9950  225.2390 C   0  0  0  0  0  0  0  0  0  0  0  0
  140.3320   71.8520  224.2030 N   0  0  0  0  0  0  0  0  0  0  0  0
  139.5370   74.0750  223.1250 H   0  0  0  0  0  0  0  0  0  0  0  0
  139.9533   74.1678  220.1380 H   0  0  0  0  0  0  0  0  0  0  0  0
  138.4267   74.8776  220.8490 H   0  0  0  0  0  0  0  0  0  0  0  0
  143.2800   76.3487  220.6144 H   0  0  0  0  0  0  0  0  0  0  0  0
  142.6076   74.7516  220.5057 H   0  0  0  0  0  0  0  0  0  0  0  0
  142.7782   74.8768  218.1339 H   0  0  0  0  0  0  0  0  0  0  0  0
  144.4610   76.2640  217.9770 H   0  0  0  0  0  0  0  0  0  0  0  0
  141.5583   77.1673  217.1885 H   0  0  0  0  0  0  0  0  0  0  0  0
  140.5372   75.9246  217.7878 H   0  0  0  0  0  0  0  0  0  0  0  0
  141.8205   78.2957  219.4651 H   0  0  0  0  0  0  0  0  0  0  0  0
  139.4584   78.1058  218.2931 H   0  0  0  0  0  0  0  0  0  0  0  0
  139.2485   77.5645  220.0773 H   0  0  0  0  0  0  0  0  0  0  0  0
  141.6537   79.8019  219.4691 H   0  0  0  0  0  0  0  0  0  0  0  0
  140.5209   81.1610  220.0120 H   0  0  0  0  0  0  0  0  0  0  0  0
  139.4348   79.1384  222.2844 H   0  0  0  0  0  0  0  0  0  0  0  0
  140.2356   78.9267  224.5897 H   0  0  0  0  0  0  0  0  0  0  0  0
  142.5441   79.6201  225.2256 H   0  0  0  0  0  0  0  0  0  0  0  0
  144.0218   80.5391  223.4442 H   0  0  0  0  0  0  0  0  0  0  0  0
  143.2358   80.7542  221.1317 H   0  0  0  0  0  0  0  0  0  0  0  0
  138.9321   69.8376  221.8763 H   0  0  0  0  0  0  0  0  0  0  0  0
  139.0631   68.2511  223.7804 H   0  0  0  0  0  0  0  0  0  0  0  0
  139.6649   67.7923  226.0422 H   0  0  0  0  0  0  0  0  0  0  0  0
  141.4348   70.9170  228.4413 H   0  0  0  0  0  0  0  0  0  0  0  0
  141.2987   72.5046  226.5078 H   0  0  0  0  0  0  0  0  0  0  0  0
  1  2  2  0
  2  3  1  0
  3  4  1  0
  4  5  1  0
  5  6  2  0
  5  7  1  0
  7  8  1  0
  8  9  1  0
  9 10  1  0
  9 11  1  0
 11 12  1  0
 12 13  1  0
 13 14  1  0
 14 15  1  0
 15 16  1  0
 16 17  2  0
 17 18  1  0
 18 19  2  0
 19 20  1  0
 20 21  2  0
  2 22  1  0
 22 23  2  0
 23 24  1  0
 24 25  2  0
 25 26  1  0
 26 27  2  0
 27 28  1  0
 27 29  1  0
 29 30  2  0
 30 31  1  0
 31 32  2  0
 12  7  1  0
 21 16  1  0
 32 22  1  0
 31 25  1  0
  3 33  1  0
  4 34  1  0
  4 35  1  0
  8 36  1  0
  8 37  1  0
  9 38  1  6
 10 39  1  0
 11 40  1  0
 11 41  1  0
 12 42  1  1
 13 43  1  0
 13 44  1  0
 15 45  1  0
 15 46  1  0
 17 47  1  0
 18 48  1  0
 19 49  1  0
 20 50  1  0
 21 51  1  0
 23 52  1  0
 24 53  1  0
 26 54  1  0
 29 55  1  0
 30 56  1  0
M  END
>  <smiles>  (26) 
O=C(NCC(=O)N1C[C@H](O)C[C@H]1COCc1ccccc1)c1ccc2cc(Cl)ccc2n1

>  <score_type>  (26) 
oracle

>  <origin>  (26) 
autodockgpu

>  <m_score__min__energy>  (26) 
-8.9399999999999995

>  <m_primary>  (26) 
energy

>  <rmsd>  (26) 
1.8816151933176466

>  <m_score__min__rmsd>  (26) 
1.8816151933176466

>  <meeko>  (26) 
{"free_energy": -8.24, "intermolecular_energy": -10.92, "internal_energy": -2.07, "cluster_size": 16, "cluster_id": 1, "rank_in_cluster": 10}

>  <energy>  (26) 
-8.37

>  <cluster_rmsd>  (26) 
1.48

>  <cluster>  (26) 
3

$$$$

     RDKit          3D

 56 59  0  0  0  0  0  0  0  0999 V2000
  139.0190   73.1180  221.2600 O   0  0  0  0  0  0  0  0  0  0  0  0
  140.0690   72.6550  221.7830 C   0  0  0  0  0  0  0  0  0  0  0  0
  141.3420   73.0040  221.2450 N   0  0  0  0  0  0  0  0  0  0  0  0
  141.3890   73.8760  220.1190 C   0  0  0  0  0  0  0  0  0  0  0  0
  142.4920   74.8550  220.1770 C   0  0  0  0  0  0  0  0  0  0  0  0
  143.5090   74.5430  220.8440 O   0  0  0  0  0  0  0  0  0  0  0  0
  142.3460   76.0850  219.4820 N   0  0  0  0  0  0  0  0  0  0  0  0
  143.3350   76.7300  218.6000 C   0  0  0  0  0  0  0  0  0  0  0  0
  142.4310   77.2860  217.5190 C   0  0  2  0  0  0  0  0  0  0  0  0
  142.5310   78.6810  217.5860 O   0  0  0  0  0  0  0  0  0  0  0  0
  140.9990   76.9530  217.9380 C   0  0  0  0  0  0  0  0  0  0  0  0
  141.2140   77.0050  219.4570 C   0  0  1  0  0  0  0  0  0  0  0  0
  140.0860   76.4860  220.2320 C   0  0  0  0  0  0  0  0  0  0  0  0
  139.8370   76.9820  221.4540 O   0  0  0  0  0  0  0  0  0  0  0  0
  140.7800   77.0450  222.4080 C   0  0  0  0  0  0  0  0  0  0  0  0
  141.3870   78.3790  222.6520 C   0  0  0  0  0  0  0  0  0  0  0  0
  141.6160   79.3040  221.6560 C   0  0  0  0  0  0  0  0  0  0  0  0
  142.1830   80.5310  221.9240 C   0  0  0  0  0  0  0  0  0  0  0  0
  142.5520   80.8980  223.2050 C   0  0  0  0  0  0  0  0  0  0  0  0
  142.3270   79.9790  224.2080 C   0  0  0  0  0  0  0  0  0  0  0  0
  141.7600   78.7500  223.9500 C   0  0  0  0  0  0  0  0  0  0  0  0
  140.0110   71.7530  222.9470 C   0  0  0  0  0  0  0  0  0  0  0  0
  139.3440   70.5410  222.7960 C   0  0  0  0  0  0  0  0  0  0  0  0
  139.2780   69.6890  223.8650 C   0  0  0  0  0  0  0  0  0  0  0  0
  139.8670   70.0440  225.0590 C   0  0  0  0  0  0  0  0  0  0  0  0
  139.7980   69.1890  226.1230 C   0  0  0  0  0  0  0  0  0  0  0  0
  140.4060   69.5870  227.3080 C   0  0  0  0  0  0  0  0  0  0  0  0
  140.3570   68.5440  228.7070 Cl  0  0  0  0  0  0  0  0  0  0  0  0
  141.0590   70.7930  227.4280 C   0  0  0  0  0  0  0  0  0  0  0  0
  141.1270   71.6540  226.3480 C   0  0  0  0  0  0  0  0  0  0  0  0
  140.5200   71.2490  225.1780 C   0  0  0  0  0  0  0  0  0  0  0  0
  140.5840   72.0860  224.1250 N   0  0  0  0  0  0  0  0  0  0  0  0
  142.1840   72.5930  221.7150 H   0  0  0  0  0  0  0  0  0  0  0  0
  141.5121   73.2664  219.2117 H   0  0  0  0  0  0  0  0  0  0  0  0
  140.4493   74.4478  220.1137 H   0  0  0  0  0  0  0  0  0  0  0  0
  143.8818   77.5295  219.1213 H   0  0  0  0  0  0  0  0  0  0  0  0
  144.1244   76.0579  218.2325 H   0  0  0  0  0  0  0  0  0  0  0  0
  142.6887   76.8911  216.5252 H   0  0  0  0  0  0  0  0  0  0  0  0
  143.3230   79.0000  217.1100 H   0  0  0  0  0  0  0  0  0  0  0  0
  140.2760   77.7064  217.5919 H   0  0  0  0  0  0  0  0  0  0  0  0
  140.5801   76.0179  217.5378 H   0  0  0  0  0  0  0  0  0  0  0  0
  141.3465   78.0065  219.8923 H   0  0  0  0  0  0  0  0  0  0  0  0
  139.1809   76.6522  219.6293 H   0  0  0  0  0  0  0  0  0  0  0  0
  140.3695   75.4420  220.4311 H   0  0  0  0  0  0  0  0  0  0  0  0
  140.3249   76.7072  223.3508 H   0  0  0  0  0  0  0  0  0  0  0  0
  141.6035   76.4118  222.0461 H   0  0  0  0  0  0  0  0  0  0  0  0
  141.3390   79.0563  220.6207 H   0  0  0  0  0  0  0  0  0  0  0  0
  142.3464   81.2374  221.0967 H   0  0  0  0  0  0  0  0  0  0  0  0
  143.0045   81.8785  223.4144 H   0  0  0  0  0  0  0  0  0  0  0  0
  142.6074   80.2336  225.2407 H   0  0  0  0  0  0  0  0  0  0  0  0
  141.5971   78.0464  224.7797 H   0  0  0  0  0  0  0  0  0  0  0  0
  138.8788   70.2730  221.8359 H   0  0  0  0  0  0  0  0  0  0  0  0
  138.7569   68.7248  223.7714 H   0  0  0  0  0  0  0  0  0  0  0  0
  139.2804   68.2216  226.0445 H   0  0  0  0  0  0  0  0  0  0  0  0
  141.5270   71.0719  228.3836 H   0  0  0  0  0  0  0  0  0  0  0  0
  141.6441   72.6223  226.4194 H   0  0  0  0  0  0  0  0  0  0  0  0
  1  2  2  0
  2  3  1  0
  3  4  1  0
  4  5  1  0
  5  6  2  0
  5  7  1  0
  7  8  1  0
  8  9  1  0
  9 10  1  0
  9 11  1  0
 11 12  1  0
 12 13  1  0
 13 14  1  0
 14 15  1  0
 15 16  1  0
 16 17  2  0
 17 18  1  0
 18 19  2  0
 19 20  1  0
 20 21  2  0
  2 22  1  0
 22 23  2  0
 23 24  1  0
 24 25  2  0
 25 26  1  0
 26 27  2  0
 27 28  1  0
 27 29  1  0
 29 30  2  0
 30 31  1  0
 31 32  2  0
 12  7  1  0
 21 16  1  0
 32 22  1  0
 31 25  1  0
  3 33  1  0
  4 34  1  0
  4 35  1  0
  8 36  1  0
  8 37  1  0
  9 38  1  6
 10 39  1  0
 11 40  1  0
 11 41  1  0
 12 42  1  1
 13 43  1  0
 13 44  1  0
 15 45  1  0
 15 46  1  0
 17 47  1  0
 18 48  1  0
 19 49  1  0
 20 50  1  0
 21 51  1  0
 23 52  1  0
 24 53  1  0
 26 54  1  0
 29 55  1  0
 30 56  1  0
M  END
>  <smiles>  (27) 
O=C(NCC(=O)N1C[C@H](O)C[C@H]1COCc1ccccc1)c1ccc2cc(Cl)ccc2n1

>  <score_type>  (27) 
oracle

>  <origin>  (27) 
autodockgpu

>  <m_score__min__energy>  (27) 
-8.9399999999999995

>  <m_primary>  (27) 
energy

>  <rmsd>  (27) 
2.462900471812456

>  <m_score__min__rmsd>  (27) 
2.462900471812456

>  <meeko>  (27) 
{"free_energy": -8.33, "intermolecular_energy": -11.02, "internal_energy": -1.87, "cluster_size": 9, "cluster_id": 4, "rank_in_cluster": 2}

>  <energy>  (27) 
-8.34

>  <cluster_rmsd>  (27) 
0.92

>  <cluster>  (27) 
3

$$$$

     RDKit          3D

 56 59  0  0  0  0  0  0  0  0999 V2000
  139.6850   72.6950  220.5700 O   0  0  0  0  0  0  0  0  0  0  0  0
  139.3050   73.5480  221.4180 C   0  0  0  0  0  0  0  0  0  0  0  0
  138.2540   73.2260  222.3260 N   0  0  0  0  0  0  0  0  0  0  0  0
  137.6590   71.9330  222.2440 C   0  0  0  0  0  0  0  0  0  0  0  0
  138.5400   70.8470  222.7190 C   0  0  0  0  0  0  0  0  0  0  0  0
  139.6070   71.1770  223.2950 O   0  0  0  0  0  0  0  0  0  0  0  0
  138.1390   69.5030  222.5000 N   0  0  0  0  0  0  0  0  0  0  0  0
  137.9640   68.8280  221.2020 C   0  0  0  0  0  0  0  0  0  0  0  0
  138.5020   67.4490  221.5230 C   0  0  2  0  0  0  0  0  0  0  0  0
  137.4280   66.5580  221.4080 O   0  0  0  0  0  0  0  0  0  0  0  0
  138.8710   67.4630  223.0080 C   0  0  0  0  0  0  0  0  0  0  0  0
  137.8060   68.4670  223.4710 C   0  0  1  0  0  0  0  0  0  0  0  0
  137.9970   68.9400  224.8440 C   0  0  0  0  0  0  0  0  0  0  0  0
  138.6920   68.1910  225.7130 O   0  0  0  0  0  0  0  0  0  0  0  0
  139.9990   68.3940  225.9480 C   0  0  0  0  0  0  0  0  0  0  0  0
  140.3730   69.7170  226.5110 C   0  0  0  0  0  0  0  0  0  0  0  0
  141.1280   70.6470  225.8280 C   0  0  0  0  0  0  0  0  0  0  0  0
  141.4550   71.8640  226.3870 C   0  0  0  0  0  0  0  0  0  0  0  0
  141.0430   72.2150  227.6590 C   0  0  0  0  0  0  0  0  0  0  0  0
  140.2860   71.2910  228.3490 C   0  0  0  0  0  0  0  0  0  0  0  0
  139.9540   70.0730  227.7990 C   0  0  0  0  0  0  0  0  0  0  0  0
  139.9270   74.8820  221.4940 C   0  0  0  0  0  0  0  0  0  0  0  0
  141.0940   75.0950  220.7670 C   0  0  0  0  0  0  0  0  0  0  0  0
  141.6880   76.3280  220.8240 C   0  0  0  0  0  0  0  0  0  0  0  0
  141.1250   77.3230  221.5910 C   0  0  0  0  0  0  0  0  0  0  0  0
  141.7210   78.5510  221.6440 C   0  0  0  0  0  0  0  0  0  0  0  0
  141.1190   79.5260  222.4310 C   0  0  0  0  0  0  0  0  0  0  0  0
  141.8290   81.1180  222.5440 Cl  0  0  0  0  0  0  0  0  0  0  0  0
  139.9640   79.2850  223.1400 C   0  0  0  0  0  0  0  0  0  0  0  0
  139.3630   78.0410  223.0830 C   0  0  0  0  0  0  0  0  0  0  0  0
  139.9700   77.0820  222.2990 C   0  0  0  0  0  0  0  0  0  0  0  0
  139.3870   75.8690  222.2420 N   0  0  0  0  0  0  0  0  0  0  0  0
  137.9740   73.9680  223.0100 H   0  0  0  0  0  0  0  0  0  0  0  0
  136.7443   71.9314  222.8550 H   0  0  0  0  0  0  0  0  0  0  0  0
  137.4517   71.7395  221.1812 H   0  0  0  0  0  0  0  0  0  0  0  0
  136.9055   68.7903  220.9050 H   0  0  0  0  0  0  0  0  0  0  0  0
  138.4644   69.3266  220.3588 H   0  0  0  0  0  0  0  0  0  0  0  0
  139.3475   67.1772  220.8739 H   0  0  0  0  0  0  0  0  0  0  0  0
  136.5730   67.0330  221.4410 H   0  0  0  0  0  0  0  0  0  0  0  0
  138.7489   66.4764  223.4789 H   0  0  0  0  0  0  0  0  0  0  0  0
  139.9146   67.7145  223.2482 H   0  0  0  0  0  0  0  0  0  0  0  0
  136.7715   68.0942  223.5005 H   0  0  0  0  0  0  0  0  0  0  0  0
  138.5092   69.9113  224.7787 H   0  0  0  0  0  0  0  0  0  0  0  0
  136.9788   68.9380  225.2603 H   0  0  0  0  0  0  0  0  0  0  0  0
  140.3352   67.6222  226.6561 H   0  0  0  0  0  0  0  0  0  0  0  0
  140.4828   68.3500  224.9611 H   0  0  0  0  0  0  0  0  0  0  0  0
  141.4780   70.4120  224.8120 H   0  0  0  0  0  0  0  0  0  0  0  0
  142.0601   72.5749  225.8052 H   0  0  0  0  0  0  0  0  0  0  0  0
  141.3069   73.1871  228.1010 H   0  0  0  0  0  0  0  0  0  0  0  0
  139.9388   71.5333  229.3643 H   0  0  0  0  0  0  0  0  0  0  0  0
  139.3474   69.3653  228.3832 H   0  0  0  0  0  0  0  0  0  0  0  0
  141.5309   74.2894  220.1586 H   0  0  0  0  0  0  0  0  0  0  0  0
  142.6115   76.5224  220.2590 H   0  0  0  0  0  0  0  0  0  0  0  0
  142.6442   78.7608  221.0840 H   0  0  0  0  0  0  0  0  0  0  0  0
  139.5187   80.0828  223.7525 H   0  0  0  0  0  0  0  0  0  0  0  0
  138.4392   77.8251  223.6397 H   0  0  0  0  0  0  0  0  0  0  0  0
  1  2  2  0
  2  3  1  0
  3  4  1  0
  4  5  1  0
  5  6  2  0
  5  7  1  0
  7  8  1  0
  8  9  1  0
  9 10  1  0
  9 11  1  0
 11 12  1  0
 12 13  1  0
 13 14  1  0
 14 15  1  0
 15 16  1  0
 16 17  2  0
 17 18  1  0
 18 19  2  0
 19 20  1  0
 20 21  2  0
  2 22  1  0
 22 23  2  0
 23 24  1  0
 24 25  2  0
 25 26  1  0
 26 27  2  0
 27 28  1  0
 27 29  1  0
 29 30  2  0
 30 31  1  0
 31 32  2  0
 12  7  1  0
 21 16  1  0
 32 22  1  0
 31 25  1  0
  3 33  1  0
  4 34  1  0
  4 35  1  0
  8 36  1  0
  8 37  1  0
  9 38  1  6
 10 39  1  0
 11 40  1  0
 11 41  1  0
 12 42  1  1
 13 43  1  0
 13 44  1  0
 15 45  1  0
 15 46  1  0
 17 47  1  0
 18 48  1  0
 19 49  1  0
 20 50  1  0
 21 51  1  0
 23 52  1  0
 24 53  1  0
 26 54  1  0
 29 55  1  0
 30 56  1  0
M  END
>  <smiles>  (28) 
O=C(NCC(=O)N1C[C@H](O)C[C@H]1COCc1ccccc1)c1ccc2cc(Cl)ccc2n1

>  <score_type>  (28) 
oracle

>  <origin>  (28) 
autodockgpu

>  <m_score__min__energy>  (28) 
-8.9399999999999995

>  <m_primary>  (28) 
energy

>  <rmsd>  (28) 
8.030150262142115

>  <m_score__min__rmsd>  (28) 
8.030150262142115

>  <meeko>  (28) 
{"free_energy": -8.23, "intermolecular_energy": -10.91, "internal_energy": -2.02, "cluster_size": 12, "cluster_id": 3, "rank_in_cluster": 7}

>  <energy>  (28) 
-8.33

>  <cluster_rmsd>  (28) 
0.62

>  <cluster>  (28) 
3

$$$$

     RDKit          3D

 56 59  0  0  0  0  0  0  0  0999 V2000
  141.6790   72.2950  221.0600 O   0  0  0  0  0  0  0  0  0  0  0  0
  141.0020   73.1720  221.6630 C   0  0  0  0  0  0  0  0  0  0  0  0
  140.0200   72.7780  222.6170 N   0  0  0  0  0  0  0  0  0  0  0  0
  139.8310   71.3860  222.8630 C   0  0  0  0  0  0  0  0  0  0  0  0
  138.4160   71.0070  223.0510 C   0  0  0  0  0  0  0  0  0  0  0  0
  137.6340   71.8890  223.4860 O   0  0  0  0  0  0  0  0  0  0  0  0
  138.0200   69.6810  222.7340 N   0  0  0  0  0  0  0  0  0  0  0  0
  137.7540   69.1310  221.3920 C   0  0  0  0  0  0  0  0  0  0  0  0
  138.3370   67.7400  221.5350 C   0  0  2  0  0  0  0  0  0  0  0  0
  137.2720   66.8400  221.4170 O   0  0  0  0  0  0  0  0  0  0  0  0
  138.8220   67.6200  222.9810 C   0  0  0  0  0  0  0  0  0  0  0  0
  137.7810   68.5490  223.6210 C   0  0  1  0  0  0  0  0  0  0  0  0
  138.0710   68.8920  225.0150 C   0  0  0  0  0  0  0  0  0  0  0  0
  138.8250   68.0670  225.7570 O   0  0  0  0  0  0  0  0  0  0  0  0
  140.1230   68.3090  226.0040 C   0  0  0  0  0  0  0  0  0  0  0  0
  140.4580   69.6580  226.5270 C   0  0  0  0  0  0  0  0  0  0  0  0
  141.1760   70.5940  225.8130 C   0  0  0  0  0  0  0  0  0  0  0  0
  141.4670   71.8360  226.3350 C   0  0  0  0  0  0  0  0  0  0  0  0
  141.0530   72.2080  227.6010 C   0  0  0  0  0  0  0  0  0  0  0  0
  140.3340   71.2780  228.3220 C   0  0  0  0  0  0  0  0  0  0  0  0
  140.0380   70.0350  227.8090 C   0  0  0  0  0  0  0  0  0  0  0  0
  141.2040   74.6080  221.4020 C   0  0  0  0  0  0  0  0  0  0  0  0
  142.0470   74.9640  220.3530 C   0  0  0  0  0  0  0  0  0  0  0  0
  142.2490   76.2930  220.0940 C   0  0  0  0  0  0  0  0  0  0  0  0
  141.6200   77.2440  220.8680 C   0  0  0  0  0  0  0  0  0  0  0  0
  141.8240   78.5680  220.6040 C   0  0  0  0  0  0  0  0  0  0  0  0
  141.1700   79.4940  221.4090 C   0  0  0  0  0  0  0  0  0  0  0  0
  141.3870   81.2030  221.1280 Cl  0  0  0  0  0  0  0  0  0  0  0  0
  140.3420   79.1110  222.4410 C   0  0  0  0  0  0  0  0  0  0  0  0
  140.1370   77.7690  222.7030 C   0  0  0  0  0  0  0  0  0  0  0  0
  140.7920   76.8610  221.8970 C   0  0  0  0  0  0  0  0  0  0  0  0
  140.5950   75.5530  222.1510 N   0  0  0  0  0  0  0  0  0  0  0  0
  139.4830   73.5430  223.0900 H   0  0  0  0  0  0  0  0  0  0  0  0
  140.2310   70.8237  222.0064 H   0  0  0  0  0  0  0  0  0  0  0  0
  140.3563   71.1491  223.8000 H   0  0  0  0  0  0  0  0  0  0  0  0
  136.6763   69.0979  221.1743 H   0  0  0  0  0  0  0  0  0  0  0  0
  138.1786   69.7202  220.5658 H   0  0  0  0  0  0  0  0  0  0  0  0
  139.1327   67.5513  220.7993 H   0  0  0  0  0  0  0  0  0  0  0  0
  136.4180   67.2800  221.6030 H   0  0  0  0  0  0  0  0  0  0  0  0
  138.7537   66.5901  223.3612 H   0  0  0  0  0  0  0  0  0  0  0  0
  139.8771   67.8722  223.1632 H   0  0  0  0  0  0  0  0  0  0  0  0
  136.7583   68.1503  223.6933 H   0  0  0  0  0  0  0  0  0  0  0  0
  138.5796   69.8673  225.0049 H   0  0  0  0  0  0  0  0  0  0  0  0
  137.0854   68.8473  225.5014 H   0  0  0  0  0  0  0  0  0  0  0  0
  140.4661   67.5696  226.7426 H   0  0  0  0  0  0  0  0  0  0  0  0
  140.6224   68.2438  225.0261 H   0  0  0  0  0  0  0  0  0  0  0  0
  141.5256   70.3430  224.8007 H   0  0  0  0  0  0  0  0  0  0  0  0
  142.0437   72.5501  225.7287 H   0  0  0  0  0  0  0  0  0  0  0  0
  141.2865   73.2004  228.0140 H   0  0  0  0  0  0  0  0  0  0  0  0
  139.9878   71.5360  229.3337 H   0  0  0  0  0  0  0  0  0  0  0  0
  139.4603   69.3240  228.4179 H   0  0  0  0  0  0  0  0  0  0  0  0
  142.5411   74.1926  219.7441 H   0  0  0  0  0  0  0  0  0  0  0  0
  142.9109   76.6006  219.2711 H   0  0  0  0  0  0  0  0  0  0  0  0
  142.4822   78.8905  219.7838 H   0  0  0  0  0  0  0  0  0  0  0  0
  139.8434   79.8736  223.0573 H   0  0  0  0  0  0  0  0  0  0  0  0
  139.4789   77.4390  223.5203 H   0  0  0  0  0  0  0  0  0  0  0  0
  1  2  2  0
  2  3  1  0
  3  4  1  0
  4  5  1  0
  5  6  2  0
  5  7  1  0
  7  8  1  0
  8  9  1  0
  9 10  1  0
  9 11  1  0
 11 12  1  0
 12 13  1  0
 13 14  1  0
 14 15  1  0
 15 16  1  0
 16 17  2  0
 17 18  1  0
 18 19  2  0
 19 20  1  0
 20 21  2  0
  2 22  1  0
 22 23  2  0
 23 24  1  0
 24 25  2  0
 25 26  1  0
 26 27  2  0
 27 28  1  0
 27 29  1  0
 29 30  2  0
 30 31  1  0
 31 32  2  0
 12  7  1  0
 21 16  1  0
 32 22  1  0
 31 25  1  0
  3 33  1  0
  4 34  1  0
  4 35  1  0
  8 36  1  0
  8 37  1  0
  9 38  1  6
 10 39  1  0
 11 40  1  0
 11 41  1  0
 12 42  1  1
 13 43  1  0
 13 44  1  0
 15 45  1  0
 15 46  1  0
 17 47  1  0
 18 48  1  0
 19 49  1  0
 20 50  1  0
 21 51  1  0
 23 52  1  0
 24 53  1  0
 26 54  1  0
 29 55  1  0
 30 56  1  0
M  END
>  <smiles>  (29) 
O=C(NCC(=O)N1C[C@H](O)C[C@H]1COCc1ccccc1)c1ccc2cc(Cl)ccc2n1

>  <score_type>  (29) 
oracle

>  <origin>  (29) 
autodockgpu

>  <m_score__min__energy>  (29) 
-8.9399999999999995

>  <m_primary>  (29) 
energy

>  <rmsd>  (29) 
8.184293737631442

>  <m_score__min__rmsd>  (29) 
8.184293737631442

>  <meeko>  (29) 
{"free_energy": -8.47, "intermolecular_energy": -11.16, "internal_energy": -2.32, "cluster_size": 12, "cluster_id": 3, "rank_in_cluster": 3}

>  <energy>  (29) 
-8.23

>  <cluster_rmsd>  (29) 
1.04

>  <cluster>  (29) 
3

$$$$

     RDKit          3D

 56 59  0  0  0  0  0  0  0  0999 V2000
  134.3460   70.4410  227.7710 O   0  0  0  0  0  0  0  0  0  0  0  0
  133.7340   70.9920  226.8160 C   0  0  0  0  0  0  0  0  0  0  0  0
  133.5890   70.3040  225.5760 N   0  0  0  0  0  0  0  0  0  0  0  0
  134.1490   68.9980  225.4540 C   0  0  0  0  0  0  0  0  0  0  0  0
  134.7300   68.7290  224.1240 C   0  0  0  0  0  0  0  0  0  0  0  0
  134.4360   67.6380  223.5740 O   0  0  0  0  0  0  0  0  0  0  0  0
  135.5800   69.7070  223.5430 N   0  0  0  0  0  0  0  0  0  0  0  0
  135.2510   70.6280  222.4410 C   0  0  0  0  0  0  0  0  0  0  0  0
  135.9630   71.8840  222.8990 C   0  0  2  0  0  0  0  0  0  0  0  0
  136.9710   72.1430  221.9630 O   0  0  0  0  0  0  0  0  0  0  0  0
  136.6870   71.5230  224.1970 C   0  0  0  0  0  0  0  0  0  0  0  0
  136.9590   70.0470  223.8730 C   0  0  1  0  0  0  0  0  0  0  0  0
  137.4430   69.2710  225.0160 C   0  0  0  0  0  0  0  0  0  0  0  0
  138.4510   68.4020  224.8490 O   0  0  0  0  0  0  0  0  0  0  0  0
  139.4350   68.2630  225.7510 C   0  0  0  0  0  0  0  0  0  0  0  0
  139.8950   69.5040  226.4260 C   0  0  0  0  0  0  0  0  0  0  0  0
  139.6430   69.7890  227.7510 C   0  0  0  0  0  0  0  0  0  0  0  0
  140.0870   70.9530  228.3380 C   0  0  0  0  0  0  0  0  0  0  0  0
  140.8090   71.8970  227.6310 C   0  0  0  0  0  0  0  0  0  0  0  0
  141.0670   71.6200  226.3050 C   0  0  0  0  0  0  0  0  0  0  0  0
  140.6280   70.4590  225.7090 C   0  0  0  0  0  0  0  0  0  0  0  0
  133.1590   72.3420  226.9520 C   0  0  0  0  0  0  0  0  0  0  0  0
  131.8930   72.4530  227.5200 C   0  0  0  0  0  0  0  0  0  0  0  0
  131.3410   73.6980  227.6550 C   0  0  0  0  0  0  0  0  0  0  0  0
  132.0400   74.8060  227.2310 C   0  0  0  0  0  0  0  0  0  0  0  0
  131.4840   76.0460  227.3690 C   0  0  0  0  0  0  0  0  0  0  0  0
  132.2250   77.1370  226.9280 C   0  0  0  0  0  0  0  0  0  0  0  0
  131.5740   78.7510  227.0740 Cl  0  0  0  0  0  0  0  0  0  0  0  0
  133.4750   76.9960  226.3700 C   0  0  0  0  0  0  0  0  0  0  0  0
  134.0350   75.7380  226.2330 C   0  0  0  0  0  0  0  0  0  0  0  0
  133.2900   74.6650  226.6740 C   0  0  0  0  0  0  0  0  0  0  0  0
  133.8320   73.4390  226.5410 N   0  0  0  0  0  0  0  0  0  0  0  0
  133.0730   70.8030  224.8140 H   0  0  0  0  0  0  0  0  0  0  0  0
  134.9411   68.8868  226.2091 H   0  0  0  0  0  0  0  0  0  0  0  0
  133.3293   68.2792  225.6007 H   0  0  0  0  0  0  0  0  0  0  0  0
  135.6455   70.2666  221.4799 H   0  0  0  0  0  0  0  0  0  0  0  0
  134.1735   70.7554  222.2601 H   0  0  0  0  0  0  0  0  0  0  0  0
  135.2685   72.7289  223.0165 H   0  0  0  0  0  0  0  0  0  0  0  0
  137.0060   71.4410  221.2820 H   0  0  0  0  0  0  0  0  0  0  0  0
  137.6140   72.0992  224.3333 H   0  0  0  0  0  0  0  0  0  0  0  0
  136.1416   71.7240  225.1309 H   0  0  0  0  0  0  0  0  0  0  0  0
  137.7376   69.8524  223.1207 H   0  0  0  0  0  0  0  0  0  0  0  0
  137.7681   69.9944  225.7783 H   0  0  0  0  0  0  0  0  0  0  0  0
  136.5881   68.6268  225.2694 H   0  0  0  0  0  0  0  0  0  0  0  0
  139.0800   67.5712  226.5291 H   0  0  0  0  0  0  0  0  0  0  0  0
  140.3039   67.9021  225.1810 H   0  0  0  0  0  0  0  0  0  0  0  0
  139.0726   69.0681  228.3550 H   0  0  0  0  0  0  0  0  0  0  0  0
  139.8610   71.1369  229.3987 H   0  0  0  0  0  0  0  0  0  0  0  0
  141.1611   72.8255  228.1042 H   0  0  0  0  0  0  0  0  0  0  0  0
  141.6385   72.3456  225.7077 H   0  0  0  0  0  0  0  0  0  0  0  0
  140.8574   70.2775  224.6486 H   0  0  0  0  0  0  0  0  0  0  0  0
  131.3473   71.5581  227.8536 H   0  0  0  0  0  0  0  0  0  0  0  0
  130.3420   73.8132  228.1008 H   0  0  0  0  0  0  0  0  0  0  0  0
  130.4861   76.1769  227.8130 H   0  0  0  0  0  0  0  0  0  0  0  0
  134.0295   77.8841  226.0326 H   0  0  0  0  0  0  0  0  0  0  0  0
  135.0327   75.5999  225.7908 H   0  0  0  0  0  0  0  0  0  0  0  0
  1  2  2  0
  2  3  1  0
  3  4  1  0
  4  5  1  0
  5  6  2  0
  5  7  1  0
  7  8  1  0
  8  9  1  0
  9 10  1  0
  9 11  1  0
 11 12  1  0
 12 13  1  0
 13 14  1  0
 14 15  1  0
 15 16  1  0
 16 17  2  0
 17 18  1  0
 18 19  2  0
 19 20  1  0
 20 21  2  0
  2 22  1  0
 22 23  2  0
 23 24  1  0
 24 25  2  0
 25 26  1  0
 26 27  2  0
 27 28  1  0
 27 29  1  0
 29 30  2  0
 30 31  1  0
 31 32  2  0
 12  7  1  0
 21 16  1  0
 32 22  1  0
 31 25  1  0
  3 33  1  0
  4 34  1  0
  4 35  1  0
  8 36  1  0
  8 37  1  0
  9 38  1  1
 10 39  1  0
 11 40  1  0
 11 41  1  0
 12 42  1  6
 13 43  1  0
 13 44  1  0
 15 45  1  0
 15 46  1  0
 17 47  1  0
 18 48  1  0
 19 49  1  0
 20 50  1  0
 21 51  1  0
 23 52  1  0
 24 53  1  0
 26 54  1  0
 29 55  1  0
 30 56  1  0
M  END
>  <smiles>  (30) 
O=C(NCC(=O)N1C[C@H](O)C[C@H]1COCc1ccccc1)c1ccc2cc(Cl)ccc2n1

>  <score_type>  (30) 
oracle

>  <origin>  (30) 
autodockgpu

>  <m_score__min__energy>  (30) 
-8.9399999999999995

>  <m_primary>  (30) 
energy

>  <rmsd>  (30) 
8.804445036417992

>  <m_score__min__rmsd>  (30) 
8.804445036417992

>  <meeko>  (30) 
{"free_energy": -8.2, "intermolecular_energy": -10.89, "internal_energy": -1.83, "cluster_size": 6, "cluster_id": 2, "rank_in_cluster": 3}

>  <energy>  (30) 
-8.19

>  <cluster_rmsd>  (30) 
1.47

>  <cluster>  (30) 
3

$$$$

     RDKit          3D

 56 59  0  0  0  0  0  0  0  0999 V2000
  139.9880   74.1480  222.0120 O   0  0  0  0  0  0  0  0  0  0  0  0
  139.8680   72.9120  221.7930 C   0  0  0  0  0  0  0  0  0  0  0  0
  139.6500   72.4460  220.4640 N   0  0  0  0  0  0  0  0  0  0  0  0
  139.5730   73.4040  219.4110 C   0  0  0  0  0  0  0  0  0  0  0  0
  140.8920   73.8160  218.8920 C   0  0  0  0  0  0  0  0  0  0  0  0
  140.9300   74.3200  217.7420 O   0  0  0  0  0  0  0  0  0  0  0  0
  142.0350   73.6230  219.7120 N   0  0  0  0  0  0  0  0  0  0  0  0
  142.7490   72.3570  219.9580 C   0  0  0  0  0  0  0  0  0  0  0  0
  144.1840   72.8400  219.9830 C   0  0  2  0  0  0  0  0  0  0  0  0
  144.6630   72.6200  221.2800 O   0  0  0  0  0  0  0  0  0  0  0  0
  144.1330   74.3590  219.8130 C   0  0  0  0  0  0  0  0  0  0  0  0
  142.7820   74.5950  220.5020 C   0  0  1  0  0  0  0  0  0  0  0  0
  142.2540   75.9490  220.3220 C   0  0  0  0  0  0  0  0  0  0  0  0
  140.9340   76.1640  220.4200 O   0  0  0  0  0  0  0  0  0  0  0  0
  140.4210   77.3880  220.6280 C   0  0  0  0  0  0  0  0  0  0  0  0
  141.1210   78.2390  221.6240 C   0  0  0  0  0  0  0  0  0  0  0  0
  141.1470   77.9660  222.9750 C   0  0  0  0  0  0  0  0  0  0  0  0
  141.8080   78.7830  223.8660 C   0  0  0  0  0  0  0  0  0  0  0  0
  142.4810   79.9180  223.4530 C   0  0  0  0  0  0  0  0  0  0  0  0
  142.4610   80.1980  222.1030 C   0  0  0  0  0  0  0  0  0  0  0  0
  141.8030   79.3890  221.2040 C   0  0  0  0  0  0  0  0  0  0  0  0
  139.9480   71.9290  222.8880 C   0  0  0  0  0  0  0  0  0  0  0  0
  139.4780   70.6430  222.6400 C   0  0  0  0  0  0  0  0  0  0  0  0
  139.5430   69.7150  223.6440 C   0  0  0  0  0  0  0  0  0  0  0  0
  140.0680   70.0670  224.8680 C   0  0  0  0  0  0  0  0  0  0  0  0
  140.1310   69.1360  225.8660 C   0  0  0  0  0  0  0  0  0  0  0  0
  140.6680   69.5340  227.0850 C   0  0  0  0  0  0  0  0  0  0  0  0
  140.7790   68.3960  228.4040 Cl  0  0  0  0  0  0  0  0  0  0  0  0
  141.1260   70.8150  227.3010 C   0  0  0  0  0  0  0  0  0  0  0  0
  141.0610   71.7530  226.2870 C   0  0  0  0  0  0  0  0  0  0  0  0
  140.5260   71.3460  225.0830 C   0  0  0  0  0  0  0  0  0  0  0  0
  140.4610   72.2590  224.0940 N   0  0  0  0  0  0  0  0  0  0  0  0
  139.5560   71.4100  220.3340 H   0  0  0  0  0  0  0  0  0  0  0  0
  138.9946   72.9665  218.5839 H   0  0  0  0  0  0  0  0  0  0  0  0
  139.0935   74.3029  219.8259 H   0  0  0  0  0  0  0  0  0  0  0  0
  142.4565   71.9074  220.9184 H   0  0  0  0  0  0  0  0  0  0  0  0
  142.5468   71.5691  219.2175 H   0  0  0  0  0  0  0  0  0  0  0  0
  144.7972   72.3436  219.2164 H   0  0  0  0  0  0  0  0  0  0  0  0
  145.2790   71.8610  221.3030 H   0  0  0  0  0  0  0  0  0  0  0  0
  144.9608   74.8659  220.3306 H   0  0  0  0  0  0  0  0  0  0  0  0
  144.2272   74.7370  218.7843 H   0  0  0  0  0  0  0  0  0  0  0  0
  142.7746   74.4924  221.5972 H   0  0  0  0  0  0  0  0  0  0  0  0
  142.7380   76.5838  221.0788 H   0  0  0  0  0  0  0  0  0  0  0  0
  142.4732   76.1723  219.2675 H   0  0  0  0  0  0  0  0  0  0  0  0
  140.4304   77.9222  219.6665 H   0  0  0  0  0  0  0  0  0  0  0  0
  139.4178   77.2164  221.0453 H   0  0  0  0  0  0  0  0  0  0  0  0
  140.6266   77.0729  223.3513 H   0  0  0  0  0  0  0  0  0  0  0  0
  141.8001   78.5252  224.9353 H   0  0  0  0  0  0  0  0  0  0  0  0
  143.0077   80.5672  224.1679 H   0  0  0  0  0  0  0  0  0  0  0  0
  142.9850   81.0921  221.7342 H   0  0  0  0  0  0  0  0  0  0  0  0
  141.8128   79.6503  220.1355 H   0  0  0  0  0  0  0  0  0  0  0  0
  139.0625   70.3775  221.6567 H   0  0  0  0  0  0  0  0  0  0  0  0
  139.1773   68.6916  223.4741 H   0  0  0  0  0  0  0  0  0  0  0  0
  139.7699   68.1087  225.7106 H   0  0  0  0  0  0  0  0  0  0  0  0
  141.5436   71.0919  228.2803 H   0  0  0  0  0  0  0  0  0  0  0  0
  141.4213   72.7817  226.4348 H   0  0  0  0  0  0  0  0  0  0  0  0
  1  2  2  0
  2  3  1  0
  3  4  1  0
  4  5  1  0
  5  6  2  0
  5  7  1  0
  7  8  1  0
  8  9  1  0
  9 10  1  0
  9 11  1  0
 11 12  1  0
 12 13  1  0
 13 14  1  0
 14 15  1  0
 15 16  1  0
 16 17  2  0
 17 18  1  0
 18 19  2  0
 19 20  1  0
 20 21  2  0
  2 22  1  0
 22 23  2  0
 23 24  1  0
 24 25  2  0
 25 26  1  0
 26 27  2  0
 27 28  1  0
 27 29  1  0
 29 30  2  0
 30 31  1  0
 31 32  2  0
 12  7  1  0
 21 16  1  0
 32 22  1  0
 31 25  1  0
  3 33  1  0
  4 34  1  0
  4 35  1  0
  8 36  1  0
  8 37  1  0
  9 38  1  6
 10 39  1  0
 11 40  1  0
 11 41  1  0
 12 42  1  1
 13 43  1  0
 13 44  1  0
 15 45  1  0
 15 46  1  0
 17 47  1  0
 18 48  1  0
 19 49  1  0
 20 50  1  0
 21 51  1  0
 23 52  1  0
 24 53  1  0
 26 54  1  0
 29 55  1  0
 30 56  1  0
M  END
>  <smiles>  (31) 
O=C(NCC(=O)N1C[C@H](O)C[C@H]1COCc1ccccc1)c1ccc2cc(Cl)ccc2n1

>  <score_type>  (31) 
oracle

>  <origin>  (31) 
autodockgpu

>  <m_score__min__energy>  (31) 
-8.9399999999999995

>  <m_primary>  (31) 
energy

>  <rmsd>  (31) 
3.0553433436515225

>  <m_score__min__rmsd>  (31) 
3.0553433436515225

>  <meeko>  (31) 
{"free_energy": -8.41, "intermolecular_energy": -11.1, "internal_energy": -1.92, "cluster_size": 16, "cluster_id": 1, "rank_in_cluster": 7}

>  <energy>  (31) 
-8.19

>  <cluster_rmsd>  (31) 
1.1

>  <cluster>  (31) 
3

$$$$

     RDKit          3D

 56 59  0  0  0  0  0  0  0  0999 V2000
  138.1270   74.7480  219.7400 O   0  0  0  0  0  0  0  0  0  0  0  0
  138.3630   74.9670  220.9590 C   0  0  0  0  0  0  0  0  0  0  0  0
  137.7370   74.1650  221.9580 N   0  0  0  0  0  0  0  0  0  0  0  0
  136.8540   73.1270  221.5410 C   0  0  0  0  0  0  0  0  0  0  0  0
  137.5460   71.9730  220.9330 C   0  0  0  0  0  0  0  0  0  0  0  0
  136.8840   71.2460  220.1520 O   0  0  0  0  0  0  0  0  0  0  0  0
  138.9100   71.7500  221.2610 N   0  0  0  0  0  0  0  0  0  0  0  0
  140.0900   72.1480  220.4720 C   0  0  0  0  0  0  0  0  0  0  0  0
  141.0420   72.5620  221.5740 C   0  0  2  0  0  0  0  0  0  0  0  0
  142.1160   71.6650  221.5390 O   0  0  0  0  0  0  0  0  0  0  0  0
  140.3200   72.2900  222.8950 C   0  0  0  0  0  0  0  0  0  0  0  0
  139.4850   71.0900  222.4270 C   0  0  1  0  0  0  0  0  0  0  0  0
  138.4480   70.6830  223.3770 C   0  0  0  0  0  0  0  0  0  0  0  0
  138.7070   69.7110  224.2650 O   0  0  0  0  0  0  0  0  0  0  0  0
  139.9320   69.5190  224.7810 C   0  0  0  0  0  0  0  0  0  0  0  0
  140.2770   70.3190  225.9840 C   0  0  0  0  0  0  0  0  0  0  0  0
  139.8170   70.0250  227.2510 C   0  0  0  0  0  0  0  0  0  0  0  0
  140.1600   70.7940  228.3410 C   0  0  0  0  0  0  0  0  0  0  0  0
  140.9830   71.8980  228.2240 C   0  0  0  0  0  0  0  0  0  0  0  0
  141.4490   72.1990  226.9610 C   0  0  0  0  0  0  0  0  0  0  0  0
  141.1110   71.4370  225.8650 C   0  0  0  0  0  0  0  0  0  0  0  0
  139.2770   76.0430  221.3810 C   0  0  0  0  0  0  0  0  0  0  0  0
  140.5830   76.0080  220.9020 C   0  0  0  0  0  0  0  0  0  0  0  0
  141.4490   76.9980  221.2820 C   0  0  0  0  0  0  0  0  0  0  0  0
  141.0160   78.0000  222.1220 C   0  0  0  0  0  0  0  0  0  0  0  0
  141.8850   78.9860  222.4970 C   0  0  0  0  0  0  0  0  0  0  0  0
  141.4060   79.9770  223.3460 C   0  0  0  0  0  0  0  0  0  0  0  0
  142.4620   81.2670  223.8650 Cl  0  0  0  0  0  0  0  0  0  0  0  0
  140.1070   79.9850  223.8040 C   0  0  0  0  0  0  0  0  0  0  0  0
  139.2320   78.9860  223.4210 C   0  0  0  0  0  0  0  0  0  0  0  0
  139.7190   78.0080  222.5790 C   0  0  0  0  0  0  0  0  0  0  0  0
  138.8680   77.0340  222.2050 N   0  0  0  0  0  0  0  0  0  0  0  0
  137.9650   74.3880  222.9560 H   0  0  0  0  0  0  0  0  0  0  0  0
  136.2932   72.7735  222.4188 H   0  0  0  0  0  0  0  0  0  0  0  0
  136.1962   73.5529  220.7690 H   0  0  0  0  0  0  0  0  0  0  0  0
  140.4890   71.3058  219.8876 H   0  0  0  0  0  0  0  0  0  0  0  0
  139.8942   72.9288  219.7223 H   0  0  0  0  0  0  0  0  0  0  0  0
  141.3618   73.6091  221.4679 H   0  0  0  0  0  0  0  0  0  0  0  0
  142.2420   71.3030  220.6380 H   0  0  0  0  0  0  0  0  0  0  0  0
  141.0155   72.0252  223.7050 H   0  0  0  0  0  0  0  0  0  0  0  0
  139.7607   73.1333  223.3263 H   0  0  0  0  0  0  0  0  0  0  0  0
  140.0345   70.1492  222.2755 H   0  0  0  0  0  0  0  0  0  0  0  0
  138.1745   71.5785  223.9543 H   0  0  0  0  0  0  0  0  0  0  0  0
  137.6695   70.2444  222.7355 H   0  0  0  0  0  0  0  0  0  0  0  0
  140.0184   68.4560  225.0505 H   0  0  0  0  0  0  0  0  0  0  0  0
  140.6322   69.8506  224.0001 H   0  0  0  0  0  0  0  0  0  0  0  0
  139.1598   69.1546  227.3943 H   0  0  0  0  0  0  0  0  0  0  0  0
  139.7680   70.5219  229.3321 H   0  0  0  0  0  0  0  0  0  0  0  0
  141.2540   72.5087  229.0979 H   0  0  0  0  0  0  0  0  0  0  0  0
  142.1073   73.0698  226.8260 H   0  0  0  0  0  0  0  0  0  0  0  0
  141.5045   71.7125  224.8754 H   0  0  0  0  0  0  0  0  0  0  0  0
  140.9130   75.2010  220.2314 H   0  0  0  0  0  0  0  0  0  0  0  0
  142.4869   76.9932  220.9177 H   0  0  0  0  0  0  0  0  0  0  0  0
  142.9254   78.9950  222.1400 H   0  0  0  0  0  0  0  0  0  0  0  0
  139.7657   80.7870  224.4750 H   0  0  0  0  0  0  0  0  0  0  0  0
  138.1900   78.9715  223.7732 H   0  0  0  0  0  0  0  0  0  0  0  0
  1  2  2  0
  2  3  1  0
  3  4  1  0
  4  5  1  0
  5  6  2  0
  5  7  1  0
  7  8  1  0
  8  9  1  0
  9 10  1  0
  9 11  1  0
 11 12  1  0
 12 13  1  0
 13 14  1  0
 14 15  1  0
 15 16  1  0
 16 17  2  0
 17 18  1  0
 18 19  2  0
 19 20  1  0
 20 21  2  0
  2 22  1  0
 22 23  2  0
 23 24  1  0
 24 25  2  0
 25 26  1  0
 26 27  2  0
 27 28  1  0
 27 29  1  0
 29 30  2  0
 30 31  1  0
 31 32  2  0
 12  7  1  0
 21 16  1  0
 32 22  1  0
 31 25  1  0
  3 33  1  0
  4 34  1  0
  4 35  1  0
  8 36  1  0
  8 37  1  0
  9 38  1  6
 10 39  1  0
 11 40  1  0
 11 41  1  0
 12 42  1  6
 13 43  1  0
 13 44  1  0
 15 45  1  0
 15 46  1  0
 17 47  1  0
 18 48  1  0
 19 49  1  0
 20 50  1  0
 21 51  1  0
 23 52  1  0
 24 53  1  0
 26 54  1  0
 29 55  1  0
 30 56  1  0
M  END
>  <smiles>  (32) 
O=C(NCC(=O)N1C[C@H](O)C[C@H]1COCc1ccccc1)c1ccc2cc(Cl)ccc2n1

>  <score_type>  (32) 
oracle

>  <origin>  (32) 
autodockgpu

>  <m_score__min__energy>  (32) 
-8.9399999999999995

>  <m_primary>  (32) 
energy

>  <rmsd>  (32) 
7.1006959786712995

>  <m_score__min__rmsd>  (32) 
7.1006959786712995

>  <meeko>  (32) 
{"free_energy": -7.64, "intermolecular_energy": -10.33, "internal_energy": -2.04, "cluster_size": 12, "cluster_id": 3, "rank_in_cluster": 12}

>  <energy>  (32) 
-8.07

>  <cluster_rmsd>  (32) 
0.38

>  <cluster>  (32) 
3

$$$$

     RDKit          3D

 56 59  0  0  0  0  0  0  0  0999 V2000
  141.0050   72.6030  221.3730 O   0  0  0  0  0  0  0  0  0  0  0  0
  140.0720   72.5730  222.2210 C   0  0  0  0  0  0  0  0  0  0  0  0
  138.9840   73.4870  222.1110 N   0  0  0  0  0  0  0  0  0  0  0  0
  138.9850   74.4170  221.0300 C   0  0  0  0  0  0  0  0  0  0  0  0
  139.3620   75.7870  221.4330 C   0  0  0  0  0  0  0  0  0  0  0  0
  138.6230   76.3700  222.2660 O   0  0  0  0  0  0  0  0  0  0  0  0
  140.5270   76.3660  220.8630 N   0  0  0  0  0  0  0  0  0  0  0  0
  141.0960   76.0890  219.5320 C   0  0  0  0  0  0  0  0  0  0  0  0
  141.5550   77.4740  219.1260 C   0  0  2  0  0  0  0  0  0  0  0  0
  142.9510   77.4250  219.0290 O   0  0  0  0  0  0  0  0  0  0  0  0
  141.2550   78.3940  220.3100 C   0  0  0  0  0  0  0  0  0  0  0  0
  141.4380   77.3550  221.4260 C   0  0  1  0  0  0  0  0  0  0  0  0
  140.9840   77.8130  222.7410 C   0  0  0  0  0  0  0  0  0  0  0  0
  141.8810   78.2590  223.6330 O   0  0  0  0  0  0  0  0  0  0  0  0
  141.9460   79.5490  224.0010 C   0  0  0  0  0  0  0  0  0  0  0  0
  141.3370   80.5350  223.0710 C   0  0  0  0  0  0  0  0  0  0  0  0
  142.0400   81.1710  222.0700 C   0  0  0  0  0  0  0  0  0  0  0  0
  141.4370   82.0810  221.2280 C   0  0  0  0  0  0  0  0  0  0  0  0
  140.0970   82.4010  221.3420 C   0  0  0  0  0  0  0  0  0  0  0  0
  139.3860   81.7680  222.3400 C   0  0  0  0  0  0  0  0  0  0  0  0
  139.9790   80.8590  223.1860 C   0  0  0  0  0  0  0  0  0  0  0  0
  140.0810   71.6080  223.3350 C   0  0  0  0  0  0  0  0  0  0  0  0
  139.5710   70.3360  223.0940 C   0  0  0  0  0  0  0  0  0  0  0  0
  139.5690   69.4240  224.1150 C   0  0  0  0  0  0  0  0  0  0  0  0
  140.0660   69.7790  225.3490 C   0  0  0  0  0  0  0  0  0  0  0  0
  140.0630   68.8650  226.3640 C   0  0  0  0  0  0  0  0  0  0  0  0
  140.5750   69.2650  227.5930 C   0  0  0  0  0  0  0  0  0  0  0  0
  140.6000   68.1470  228.9340 Cl  0  0  0  0  0  0  0  0  0  0  0  0
  141.0730   70.5310  227.8020 C   0  0  0  0  0  0  0  0  0  0  0  0
  141.0750   71.4530  226.7710 C   0  0  0  0  0  0  0  0  0  0  0  0
  140.5640   71.0440  225.5570 C   0  0  0  0  0  0  0  0  0  0  0  0
  140.5660   71.9400  224.5520 N   0  0  0  0  0  0  0  0  0  0  0  0
  138.2350   73.4230  222.8400 H   0  0  0  0  0  0  0  0  0  0  0  0
  139.7004   74.0679  220.2708 H   0  0  0  0  0  0  0  0  0  0  0  0
  137.9565   74.4647  220.6427 H   0  0  0  0  0  0  0  0  0  0  0  0
  141.9385   75.3842  219.5906 H   0  0  0  0  0  0  0  0  0  0  0  0
  140.3965   75.6161  218.8270 H   0  0  0  0  0  0  0  0  0  0  0  0
  141.0777   77.8076  218.1928 H   0  0  0  0  0  0  0  0  0  0  0  0
  143.3720   77.7770  219.8390 H   0  0  0  0  0  0  0  0  0  0  0  0
  141.9738   79.2230  220.3882 H   0  0  0  0  0  0  0  0  0  0  0  0
  140.2879   78.9176  220.2865 H   0  0  0  0  0  0  0  0  0  0  0  0
  142.4735   77.0497  221.6372 H   0  0  0  0  0  0  0  0  0  0  0  0
  140.2727   78.6335  222.5655 H   0  0  0  0  0  0  0  0  0  0  0  0
  140.5879   76.8997  223.2090 H   0  0  0  0  0  0  0  0  0  0  0  0
  141.4368   79.6459  224.9712 H   0  0  0  0  0  0  0  0  0  0  0  0
  143.0186   79.7922  224.0218 H   0  0  0  0  0  0  0  0  0  0  0  0
  143.1090   80.9467  221.9399 H   0  0  0  0  0  0  0  0  0  0  0  0
  142.0382   82.5654  220.4445 H   0  0  0  0  0  0  0  0  0  0  0  0
  139.6197   83.1272  220.6676 H   0  0  0  0  0  0  0  0  0  0  0  0
  138.3169   81.9957  222.4629 H   0  0  0  0  0  0  0  0  0  0  0  0
  139.3744   80.3770  223.9684 H   0  0  0  0  0  0  0  0  0  0  0  0
  139.1771   70.0684  222.1024 H   0  0  0  0  0  0  0  0  0  0  0  0
  139.1719   68.4115  223.9502 H   0  0  0  0  0  0  0  0  0  0  0  0
  139.6695   67.8487  226.2143 H   0  0  0  0  0  0  0  0  0  0  0  0
  141.4696   70.8096  228.7895 H   0  0  0  0  0  0  0  0  0  0  0  0
  141.4679   72.4705  226.9134 H   0  0  0  0  0  0  0  0  0  0  0  0
  1  2  2  0
  2  3  1  0
  3  4  1  0
  4  5  1  0
  5  6  2  0
  5  7  1  0
  7  8  1  0
  8  9  1  0
  9 10  1  0
  9 11  1  0
 11 12  1  0
 12 13  1  0
 13 14  1  0
 14 15  1  0
 15 16  1  0
 16 17  2  0
 17 18  1  0
 18 19  2  0
 19 20  1  0
 20 21  2  0
  2 22  1  0
 22 23  2  0
 23 24  1  0
 24 25  2  0
 25 26  1  0
 26 27  2  0
 27 28  1  0
 27 29  1  0
 29 30  2  0
 30 31  1  0
 31 32  2  0
 12  7  1  0
 21 16  1  0
 32 22  1  0
 31 25  1  0
  3 33  1  0
  4 34  1  0
  4 35  1  0
  8 36  1  0
  8 37  1  0
  9 38  1  6
 10 39  1  0
 11 40  1  0
 11 41  1  0
 12 42  1  1
 13 43  1  0
 13 44  1  0
 15 45  1  0
 15 46  1  0
 17 47  1  0
 18 48  1  0
 19 49  1  0
 20 50  1  0
 21 51  1  0
 23 52  1  0
 24 53  1  0
 26 54  1  0
 29 55  1  0
 30 56  1  0
M  END
>  <smiles>  (33) 
O=C(NCC(=O)N1C[C@H](O)C[C@H]1COCc1ccccc1)c1ccc2cc(Cl)ccc2n1

>  <score_type>  (33) 
oracle

>  <origin>  (33) 
autodockgpu

>  <m_score__min__energy>  (33) 
-8.9399999999999995

>  <m_primary>  (33) 
energy

>  <rmsd>  (33) 
1.6917318285374603

>  <m_score__min__rmsd>  (33) 
1.6917318285374603

>  <meeko>  (33) 
{"free_energy": -8.56, "intermolecular_energy": -11.25, "internal_energy": -1.59, "cluster_size": 9, "cluster_id": 4, "rank_in_cluster": 1}

>  <energy>  (33) 
-7.82

>  <cluster_rmsd>  (33) 
1.15

>  <cluster>  (33) 
3

$$$$

     RDKit          3D

 56 59  0  0  0  0  0  0  0  0999 V2000
  139.8620   74.2970  221.9690 O   0  0  0  0  0  0  0  0  0  0  0  0
  140.1950   75.5100  221.8770 C   0  0  0  0  0  0  0  0  0  0  0  0
  141.4720   75.8550  221.3470 N   0  0  0  0  0  0  0  0  0  0  0  0
  142.3440   74.8060  220.9340 C   0  0  0  0  0  0  0  0  0  0  0  0
  142.1730   74.4210  219.5180 C   0  0  0  0  0  0  0  0  0  0  0  0
  141.2830   73.5740  219.2520 O   0  0  0  0  0  0  0  0  0  0  0  0
  143.0140   75.0220  218.5450 N   0  0  0  0  0  0  0  0  0  0  0  0
  144.1020   74.3750  217.7900 C   0  0  0  0  0  0  0  0  0  0  0  0
  143.9300   75.0240  216.4320 C   0  0  2  0  0  0  0  0  0  0  0  0
  145.0820   75.7840  216.1980 O   0  0  0  0  0  0  0  0  0  0  0  0
  142.7900   76.0330  216.5750 C   0  0  0  0  0  0  0  0  0  0  0  0
  143.0220   76.3930  218.0500 C   0  0  1  0  0  0  0  0  0  0  0  0
  141.9410   77.1830  218.6430 C   0  0  0  0  0  0  0  0  0  0  0  0
  142.1860   77.9320  219.7280 O   0  0  0  0  0  0  0  0  0  0  0  0
  141.5010   79.0570  219.9920 C   0  0  0  0  0  0  0  0  0  0  0  0
  141.8280   79.7480  221.2660 C   0  0  0  0  0  0  0  0  0  0  0  0
  142.4490   79.1280  222.3300 C   0  0  0  0  0  0  0  0  0  0  0  0
  142.7330   79.8060  223.4960 C   0  0  0  0  0  0  0  0  0  0  0  0
  142.4120   81.1400  223.6600 C   0  0  0  0  0  0  0  0  0  0  0  0
  141.7910   81.7680  222.6000 C   0  0  0  0  0  0  0  0  0  0  0  0
  141.5030   81.1000  221.4310 C   0  0  0  0  0  0  0  0  0  0  0  0
  139.2880   76.5880  222.3070 C   0  0  0  0  0  0  0  0  0  0  0  0
  137.9220   76.3980  222.1220 C   0  0  0  0  0  0  0  0  0  0  0  0
  137.0610   77.3870  222.5150 C   0  0  0  0  0  0  0  0  0  0  0  0
  137.5580   78.5410  223.0790 C   0  0  0  0  0  0  0  0  0  0  0  0
  136.6950   79.5250  223.4700 C   0  0  0  0  0  0  0  0  0  0  0  0
  137.2390   80.6730  224.0350 C   0  0  0  0  0  0  0  0  0  0  0  0
  136.1930   81.9700  224.5560 Cl  0  0  0  0  0  0  0  0  0  0  0  0
  138.5960   80.8330  224.2050 C   0  0  0  0  0  0  0  0  0  0  0  0
  139.4660   79.8330  223.8090 C   0  0  0  0  0  0  0  0  0  0  0  0
  138.9140   78.7000  223.2490 C   0  0  0  0  0  0  0  0  0  0  0  0
  139.7590   77.7260  222.8630 N   0  0  0  0  0  0  0  0  0  0  0  0
  141.7020   76.8760  221.2910 H   0  0  0  0  0  0  0  0  0  0  0  0
  143.3823   75.1378  221.0817 H   0  0  0  0  0  0  0  0  0  0  0  0
  142.0980   73.9226  221.5416 H   0  0  0  0  0  0  0  0  0  0  0  0
  145.0867   74.6011  218.2249 H   0  0  0  0  0  0  0  0  0  0  0  0
  144.0575   73.2760  217.7785 H   0  0  0  0  0  0  0  0  0  0  0  0
  143.7467   74.2806  215.6422 H   0  0  0  0  0  0  0  0  0  0  0  0
  145.5450   75.9880  217.0360 H   0  0  0  0  0  0  0  0  0  0  0  0
  142.9122   76.8996  215.9086 H   0  0  0  0  0  0  0  0  0  0  0  0
  141.7843   75.6714  216.3145 H   0  0  0  0  0  0  0  0  0  0  0  0
  143.9020   77.0180  218.2622 H   0  0  0  0  0  0  0  0  0  0  0  0
  141.5768   77.8644  217.8601 H   0  0  0  0  0  0  0  0  0  0  0  0
  141.2374   76.4213  219.0100 H   0  0  0  0  0  0  0  0  0  0  0  0
  141.6895   79.7637  219.1704 H   0  0  0  0  0  0  0  0  0  0  0  0
  140.4517   78.7425  220.0921 H   0  0  0  0  0  0  0  0  0  0  0  0
  142.7244   78.0664  222.2460 H   0  0  0  0  0  0  0  0  0  0  0  0
  143.2289   79.2703  224.3188 H   0  0  0  0  0  0  0  0  0  0  0  0
  142.6410   81.6765  224.5926 H   0  0  0  0  0  0  0  0  0  0  0  0
  141.5189   82.8299  222.6912 H   0  0  0  0  0  0  0  0  0  0  0  0
  141.0076   81.6393  220.6101 H   0  0  0  0  0  0  0  0  0  0  0  0
  137.5413   75.4709  221.6686 H   0  0  0  0  0  0  0  0  0  0  0  0
  135.9766   77.2605  222.3809 H   0  0  0  0  0  0  0  0  0  0  0  0
  135.6082   79.4131  223.3424 H   0  0  0  0  0  0  0  0  0  0  0  0
  138.9885   81.7564  224.6559 H   0  0  0  0  0  0  0  0  0  0  0  0
  140.5537   79.9373  223.9356 H   0  0  0  0  0  0  0  0  0  0  0  0
  1  2  2  0
  2  3  1  0
  3  4  1  0
  4  5  1  0
  5  6  2  0
  5  7  1  0
  7  8  1  0
  8  9  1  0
  9 10  1  0
  9 11  1  0
 11 12  1  0
 12 13  1  0
 13 14  1  0
 14 15  1  0
 15 16  1  0
 16 17  2  0
 17 18  1  0
 18 19  2  0
 19 20  1  0
 20 21  2  0
  2 22  1  0
 22 23  2  0
 23 24  1  0
 24 25  2  0
 25 26  1  0
 26 27  2  0
 27 28  1  0
 27 29  1  0
 29 30  2  0
 30 31  1  0
 31 32  2  0
 12  7  1  0
 21 16  1  0
 32 22  1  0
 31 25  1  0
  3 33  1  0
  4 34  1  0
  4 35  1  0
  8 36  1  0
  8 37  1  0
  9 38  1  6
 10 39  1  0
 11 40  1  0
 11 41  1  0
 12 42  1  6
 13 43  1  0
 13 44  1  0
 15 45  1  0
 15 46  1  0
 17 47  1  0
 18 48  1  0
 19 49  1  0
 20 50  1  0
 21 51  1  0
 23 52  1  0
 24 53  1  0
 26 54  1  0
 29 55  1  0
 30 56  1  0
M  END
>  <smiles>  (34) 
O=C(NCC(=O)N1C[C@H](O)C[C@H]1COCc1ccccc1)c1ccc2cc(Cl)ccc2n1

>  <score_type>  (34) 
oracle

>  <origin>  (34) 
autodockgpu

>  <m_score__min__energy>  (34) 
-8.9399999999999995

>  <m_primary>  (34) 
energy

>  <rmsd>  (34) 
7.043858078477854

>  <m_score__min__rmsd>  (34) 
7.043858078477854

>  <meeko>  (34) 
{"free_energy": -6.52, "intermolecular_energy": -9.21, "internal_energy": -3.39, "cluster_size": 2, "cluster_id": 9, "rank_in_cluster": 1}

>  <energy>  (34) 
-7.64

>  <cluster_rmsd>  (34) 
1.95

>  <cluster>  (34) 
3

$$$$

     RDKit          3D

 56 59  0  0  0  0  0  0  0  0999 V2000
  138.8240   71.5860  221.0560 O   0  0  0  0  0  0  0  0  0  0  0  0
  139.1870   72.0450  222.1730 C   0  0  0  0  0  0  0  0  0  0  0  0
  139.3540   73.4510  222.3420 N   0  0  0  0  0  0  0  0  0  0  0  0
  139.1020   74.3040  221.2280 C   0  0  0  0  0  0  0  0  0  0  0  0
  140.0990   74.1710  220.1470 C   0  0  0  0  0  0  0  0  0  0  0  0
  139.8650   73.3300  219.2440 O   0  0  0  0  0  0  0  0  0  0  0  0
  141.2570   74.9930  220.1860 N   0  0  0  0  0  0  0  0  0  0  0  0
  142.6610   74.5530  220.1040 C   0  0  0  0  0  0  0  0  0  0  0  0
  143.2570   75.6630  219.2620 C   0  0  2  0  0  0  0  0  0  0  0  0
  144.1820   76.3330  220.0700 O   0  0  0  0  0  0  0  0  0  0  0  0
  142.1300   76.6640  219.0050 C   0  0  0  0  0  0  0  0  0  0  0  0
  141.3590   76.4420  220.3140 C   0  0  1  0  0  0  0  0  0  0  0  0
  140.0370   77.0710  220.3360 C   0  0  0  0  0  0  0  0  0  0  0  0
  139.5120   77.4710  221.5040 O   0  0  0  0  0  0  0  0  0  0  0  0
  139.3700   78.7690  221.8190 C   0  0  0  0  0  0  0  0  0  0  0  0
  140.5360   79.4250  222.4650 C   0  0  0  0  0  0  0  0  0  0  0  0
  141.8330   78.9770  222.3300 C   0  0  0  0  0  0  0  0  0  0  0  0
  142.8870   79.6150  222.9480 C   0  0  0  0  0  0  0  0  0  0  0  0
  142.7000   80.7360  223.7340 C   0  0  0  0  0  0  0  0  0  0  0  0
  141.4060   81.1920  223.8750 C   0  0  0  0  0  0  0  0  0  0  0  0
  140.3460   80.5620  223.2610 C   0  0  0  0  0  0  0  0  0  0  0  0
  139.4450   71.1550  223.3190 C   0  0  0  0  0  0  0  0  0  0  0  0
  139.1240   69.8080  223.1780 C   0  0  0  0  0  0  0  0  0  0  0  0
  139.3560   68.9640  224.2310 C   0  0  0  0  0  0  0  0  0  0  0  0
  139.8960   69.4590  225.3980 C   0  0  0  0  0  0  0  0  0  0  0  0
  140.1250   68.6120  226.4450 C   0  0  0  0  0  0  0  0  0  0  0  0
  140.6710   69.1530  227.6030 C   0  0  0  0  0  0  0  0  0  0  0  0
  140.9900   68.1270  228.9800 Cl  0  0  0  0  0  0  0  0  0  0  0  0
  140.9780   70.4910  227.7130 C   0  0  0  0  0  0  0  0  0  0  0  0
  140.7450   71.3440  226.6500 C   0  0  0  0  0  0  0  0  0  0  0  0
  140.2020   70.7950  225.5070 C   0  0  0  0  0  0  0  0  0  0  0  0
  139.9740   71.6240  224.4710 N   0  0  0  0  0  0  0  0  0  0  0  0
  139.6570   73.7820  223.2890 H   0  0  0  0  0  0  0  0  0  0  0  0
  138.1105   74.0592  220.8193 H   0  0  0  0  0  0  0  0  0  0  0  0
  139.1581   75.3397  221.5943 H   0  0  0  0  0  0  0  0  0  0  0  0
  143.1286   74.5035  221.0985 H   0  0  0  0  0  0  0  0  0  0  0  0
  142.7986   73.5431  219.6902 H   0  0  0  0  0  0  0  0  0  0  0  0
  143.7075   75.2780  218.3353 H   0  0  0  0  0  0  0  0  0  0  0  0
  143.9790   77.2890  220.1180 H   0  0  0  0  0  0  0  0  0  0  0  0
  142.5005   77.6951  218.9074 H   0  0  0  0  0  0  0  0  0  0  0  0
  141.5594   76.5261  218.0747 H   0  0  0  0  0  0  0  0  0  0  0  0
  141.8214   76.8541  221.2230 H   0  0  0  0  0  0  0  0  0  0  0  0
  140.0957   77.9602  219.6911 H   0  0  0  0  0  0  0  0  0  0  0  0
  139.3629   76.2633  220.0146 H   0  0  0  0  0  0  0  0  0  0  0  0
  139.1505   79.3163  220.8904 H   0  0  0  0  0  0  0  0  0  0  0  0
  138.5655   78.8007  222.5686 H   0  0  0  0  0  0  0  0  0  0  0  0
  142.0316   78.0879  221.7135 H   0  0  0  0  0  0  0  0  0  0  0  0
  143.9049   79.2210  222.8118 H   0  0  0  0  0  0  0  0  0  0  0  0
  143.5446   81.2416  224.2248 H   0  0  0  0  0  0  0  0  0  0  0  0
  141.2156   82.0815  224.4935 H   0  0  0  0  0  0  0  0  0  0  0  0
  139.3297   80.9598  223.3985 H   0  0  0  0  0  0  0  0  0  0  0  0
  138.6927   69.4292  222.2397 H   0  0  0  0  0  0  0  0  0  0  0  0
  139.1122   67.8948  224.1456 H   0  0  0  0  0  0  0  0  0  0  0  0
  139.8859   67.5406  226.3742 H   0  0  0  0  0  0  0  0  0  0  0  0
  141.4087   70.8813  228.6469 H   0  0  0  0  0  0  0  0  0  0  0  0
  140.9828   72.4161  226.7132 H   0  0  0  0  0  0  0  0  0  0  0  0
  1  2  2  0
  2  3  1  0
  3  4  1  0
  4  5  1  0
  5  6  2  0
  5  7  1  0
  7  8  1  0
  8  9  1  0
  9 10  1  0
  9 11  1  0
 11 12  1  0
 12 13  1  0
 13 14  1  0
 14 15  1  0
 15 16  1  0
 16 17  2  0
 17 18  1  0
 18 19  2  0
 19 20  1  0
 20 21  2  0
  2 22  1  0
 22 23  2  0
 23 24  1  0
 24 25  2  0
 25 26  1  0
 26 27  2  0
 27 28  1  0
 27 29  1  0
 29 30  2  0
 30 31  1  0
 31 32  2  0
 12  7  1  0
 21 16  1  0
 32 22  1  0
 31 25  1  0
  3 33  1  0
  4 34  1  0
  4 35  1  0
  8 36  1  0
  8 37  1  0
  9 38  1  6
 10 39  1  0
 11 40  1  0
 11 41  1  0
 12 42  1  1
 13 43  1  0
 13 44  1  0
 15 45  1  0
 15 46  1  0
 17 47  1  0
 18 48  1  0
 19 49  1  0
 20 50  1  0
 21 51  1  0
 23 52  1  0
 24 53  1  0
 26 54  1  0
 29 55  1  0
 30 56  1  0
M  END
>  <smiles>  (35) 
O=C(NCC(=O)N1C[C@H](O)C[C@H]1COCc1ccccc1)c1ccc2cc(Cl)ccc2n1

>  <score_type>  (35) 
oracle

>  <origin>  (35) 
autodockgpu

>  <m_score__min__energy>  (35) 
-8.9399999999999995

>  <m_primary>  (35) 
energy

>  <rmsd>  (35) 
1.8845384373239473

>  <m_score__min__rmsd>  (35) 
1.8845384373239473

>  <meeko>  (35) 
{"free_energy": -8.46, "intermolecular_energy": -11.14, "internal_energy": -1.66, "cluster_size": 16, "cluster_id": 1, "rank_in_cluster": 4}

>  <energy>  (35) 
-8.56

>  <cluster_rmsd>  (35) 
0.0

>  <cluster>  (35) 
4

$$$$

     RDKit          3D

 56 59  0  0  0  0  0  0  0  0999 V2000
  135.0020   68.4280  224.3460 O   0  0  0  0  0  0  0  0  0  0  0  0
  135.1230   69.5920  223.8770 C   0  0  0  0  0  0  0  0  0  0  0  0
  135.7430   69.7840  222.6080 N   0  0  0  0  0  0  0  0  0  0  0  0
  136.2130   68.6390  221.9010 C   0  0  0  0  0  0  0  0  0  0  0  0
  137.6730   68.4430  222.0000 C   0  0  0  0  0  0  0  0  0  0  0  0
  138.1440   67.3630  221.5650 O   0  0  0  0  0  0  0  0  0  0  0  0
  138.4590   69.4770  222.5760 N   0  0  0  0  0  0  0  0  0  0  0  0
  138.9440   70.7000  221.9110 C   0  0  0  0  0  0  0  0  0  0  0  0
  138.7910   71.7100  223.0290 C   0  0  2  0  0  0  0  0  0  0  0  0
  140.0800   72.1460  223.3590 O   0  0  0  0  0  0  0  0  0  0  0  0
  138.2920   70.9340  224.2490 C   0  0  0  0  0  0  0  0  0  0  0  0
  138.9780   69.5970  223.9340 C   0  0  1  0  0  0  0  0  0  0  0  0
  138.5290   68.4890  224.7780 C   0  0  0  0  0  0  0  0  0  0  0  0
  139.3830   67.9320  225.6510 O   0  0  0  0  0  0  0  0  0  0  0  0
  139.5300   68.3930  226.9030 C   0  0  0  0  0  0  0  0  0  0  0  0
  140.1630   69.7290  227.0470 C   0  0  0  0  0  0  0  0  0  0  0  0
  141.0150   70.2720  226.1080 C   0  0  0  0  0  0  0  0  0  0  0  0
  141.5830   71.5160  226.2810 C   0  0  0  0  0  0  0  0  0  0  0  0
  141.3280   72.2840  227.4020 C   0  0  0  0  0  0  0  0  0  0  0  0
  140.4770   71.7480  228.3460 C   0  0  0  0  0  0  0  0  0  0  0  0
  139.9040   70.5070  228.1830 C   0  0  0  0  0  0  0  0  0  0  0  0
  134.6340   70.7700  224.6160 C   0  0  0  0  0  0  0  0  0  0  0  0
  133.6940   70.5610  225.6200 C   0  0  0  0  0  0  0  0  0  0  0  0
  133.2270   71.6410  226.3190 C   0  0  0  0  0  0  0  0  0  0  0  0
  133.6910   72.9030  226.0170 C   0  0  0  0  0  0  0  0  0  0  0  0
  133.2220   73.9780  226.7170 C   0  0  0  0  0  0  0  0  0  0  0  0
  133.7170   75.2320  226.3800 C   0  0  0  0  0  0  0  0  0  0  0  0
  133.1600   76.6490  227.2350 Cl  0  0  0  0  0  0  0  0  0  0  0  0
  134.6470   75.4080  225.3800 C   0  0  0  0  0  0  0  0  0  0  0  0
  135.1200   74.3170  224.6740 C   0  0  0  0  0  0  0  0  0  0  0  0
  134.6200   73.0780  225.0180 C   0  0  0  0  0  0  0  0  0  0  0  0
  135.0790   72.0140  224.3320 N   0  0  0  0  0  0  0  0  0  0  0  0
  135.8210   70.7700  222.2620 H   0  0  0  0  0  0  0  0  0  0  0  0
  135.7138   67.7483  222.3101 H   0  0  0  0  0  0  0  0  0  0  0  0
  135.9795   68.7974  220.8378 H   0  0  0  0  0  0  0  0  0  0  0  0
  139.9932   70.6006  221.5959 H   0  0  0  0  0  0  0  0  0  0  0  0
  138.4075   70.9591  220.9863 H   0  0  0  0  0  0  0  0  0  0  0  0
  138.1240   72.5377  222.7460 H   0  0  0  0  0  0  0  0  0  0  0  0
  140.4770   72.6550  222.6240 H   0  0  0  0  0  0  0  0  0  0  0  0
  138.6430   71.3715  225.1953 H   0  0  0  0  0  0  0  0  0  0  0  0
  137.2018   70.8998  224.3913 H   0  0  0  0  0  0  0  0  0  0  0  0
  140.0678   69.5662  224.0804 H   0  0  0  0  0  0  0  0  0  0  0  0
  137.6721   68.8582  225.3606 H   0  0  0  0  0  0  0  0  0  0  0  0
  138.3333   67.6805  224.0583 H   0  0  0  0  0  0  0  0  0  0  0  0
  138.5305   68.4458  227.3593 H   0  0  0  0  0  0  0  0  0  0  0  0
  140.2193   67.6898  227.3932 H   0  0  0  0  0  0  0  0  0  0  0  0
  141.2469   69.6982  225.1986 H   0  0  0  0  0  0  0  0  0  0  0  0
  142.2577   71.9085  225.5059 H   0  0  0  0  0  0  0  0  0  0  0  0
  141.7828   73.2767  227.5349 H   0  0  0  0  0  0  0  0  0  0  0  0
  140.2502   72.3275  229.2530 H   0  0  0  0  0  0  0  0  0  0  0  0
  139.2294   70.1185  228.9601 H   0  0  0  0  0  0  0  0  0  0  0  0
  133.3330   69.5472  225.8477 H   0  0  0  0  0  0  0  0  0  0  0  0
  132.4844   71.5023  227.1186 H   0  0  0  0  0  0  0  0  0  0  0  0
  132.4790   73.8555  227.5188 H   0  0  0  0  0  0  0  0  0  0  0  0
  135.0141   76.4174  225.1425 H   0  0  0  0  0  0  0  0  0  0  0  0
  135.8637   74.4322  223.8717 H   0  0  0  0  0  0  0  0  0  0  0  0
  1  2  2  0
  2  3  1  0
  3  4  1  0
  4  5  1  0
  5  6  2  0
  5  7  1  0
  7  8  1  0
  8  9  1  0
  9 10  1  0
  9 11  1  0
 11 12  1  0
 12 13  1  0
 13 14  1  0
 14 15  1  0
 15 16  1  0
 16 17  2  0
 17 18  1  0
 18 19  2  0
 19 20  1  0
 20 21  2  0
  2 22  1  0
 22 23  2  0
 23 24  1  0
 24 25  2  0
 25 26  1  0
 26 27  2  0
 27 28  1  0
 27 29  1  0
 29 30  2  0
 30 31  1  0
 31 32  2  0
 12  7  1  0
 21 16  1  0
 32 22  1  0
 31 25  1  0
  3 33  1  0
  4 34  1  0
  4 35  1  0
  8 36  1  0
  8 37  1  0
  9 38  1  6
 10 39  1  0
 11 40  1  0
 11 41  1  0
 12 42  1  6
 13 43  1  0
 13 44  1  0
 15 45  1  0
 15 46  1  0
 17 47  1  0
 18 48  1  0
 19 49  1  0
 20 50  1  0
 21 51  1  0
 23 52  1  0
 24 53  1  0
 26 54  1  0
 29 55  1  0
 30 56  1  0
M  END
>  <smiles>  (36) 
O=C(NCC(=O)N1C[C@H](O)C[C@H]1COCc1ccccc1)c1ccc2cc(Cl)ccc2n1

>  <score_type>  (36) 
oracle

>  <origin>  (36) 
autodockgpu

>  <m_score__min__energy>  (36) 
-8.9399999999999995

>  <m_primary>  (36) 
energy

>  <rmsd>  (36) 
7.1141140554229

>  <m_score__min__rmsd>  (36) 
7.1141140554229

>  <meeko>  (36) 
{"free_energy": -7.75, "intermolecular_energy": -10.43, "internal_energy": -2.57, "cluster_size": 6, "cluster_id": 2, "rank_in_cluster": 4}

>  <energy>  (36) 
-8.33

>  <cluster_rmsd>  (36) 
1.72

>  <cluster>  (36) 
4

$$$$

     RDKit          3D

 56 59  0  0  0  0  0  0  0  0999 V2000
  140.7070   72.2490  220.7920 O   0  0  0  0  0  0  0  0  0  0  0  0
  140.2560   72.6030  221.9150 C   0  0  0  0  0  0  0  0  0  0  0  0
  139.7950   73.9390  222.1040 N   0  0  0  0  0  0  0  0  0  0  0  0
  139.8600   74.8420  221.0030 C   0  0  0  0  0  0  0  0  0  0  0  0
  141.0290   75.7420  221.0480 C   0  0  0  0  0  0  0  0  0  0  0  0
  141.0360   76.6410  221.9260 O   0  0  0  0  0  0  0  0  0  0  0  0
  142.0740   75.5460  220.1060 N   0  0  0  0  0  0  0  0  0  0  0  0
  142.9850   74.3910  220.0180 C   0  0  0  0  0  0  0  0  0  0  0  0
  143.1020   74.2350  218.5160 C   0  0  2  0  0  0  0  0  0  0  0  0
  144.4360   74.5000  218.1850 O   0  0  0  0  0  0  0  0  0  0  0  0
  142.2880   75.3720  217.8980 C   0  0  0  0  0  0  0  0  0  0  0  0
  142.5060   76.4060  219.0110 C   0  0  1  0  0  0  0  0  0  0  0  0
  141.6540   77.5910  218.8930 C   0  0  0  0  0  0  0  0  0  0  0  0
  141.3690   78.3150  219.9860 O   0  0  0  0  0  0  0  0  0  0  0  0
  141.7100   79.6090  220.0970 C   0  0  0  0  0  0  0  0  0  0  0  0
  141.9270   80.1200  221.4750 C   0  0  0  0  0  0  0  0  0  0  0  0
  142.3890   79.3390  222.5130 C   0  0  0  0  0  0  0  0  0  0  0  0
  142.5760   79.8520  223.7780 C   0  0  0  0  0  0  0  0  0  0  0  0
  142.3110   81.1760  224.0730 C   0  0  0  0  0  0  0  0  0  0  0  0
  141.8490   81.9660  223.0410 C   0  0  0  0  0  0  0  0  0  0  0  0
  141.6590   81.4630  221.7730 C   0  0  0  0  0  0  0  0  0  0  0  0
  140.1930   71.6620  223.0460 C   0  0  0  0  0  0  0  0  0  0  0  0
  139.6070   70.4190  222.8250 C   0  0  0  0  0  0  0  0  0  0  0  0
  139.5390   69.5300  223.8630 C   0  0  0  0  0  0  0  0  0  0  0  0
  140.0450   69.8780  225.0950 C   0  0  0  0  0  0  0  0  0  0  0  0
  139.9750   68.9860  226.1280 C   0  0  0  0  0  0  0  0  0  0  0  0
  140.4980   69.3780  227.3550 C   0  0  0  0  0  0  0  0  0  0  0  0
  140.4410   68.2880  228.7170 Cl  0  0  0  0  0  0  0  0  0  0  0  0
  141.0720   70.6160  227.5450 C   0  0  0  0  0  0  0  0  0  0  0  0
  141.1420   71.5150  226.4960 C   0  0  0  0  0  0  0  0  0  0  0  0
  140.6190   71.1140  225.2840 C   0  0  0  0  0  0  0  0  0  0  0  0
  140.6860   71.9880  224.2620 N   0  0  0  0  0  0  0  0  0  0  0  0
  139.4300   74.1840  223.0540 H   0  0  0  0  0  0  0  0  0  0  0  0
  139.9079   74.2552  220.0738 H   0  0  0  0  0  0  0  0  0  0  0  0
  138.9619   75.4754  221.0506 H   0  0  0  0  0  0  0  0  0  0  0  0
  143.9596   74.6081  220.4795 H   0  0  0  0  0  0  0  0  0  0  0  0
  142.6315   73.4913  220.5430 H   0  0  0  0  0  0  0  0  0  0  0  0
  142.7726   73.2410  218.1793 H   0  0  0  0  0  0  0  0  0  0  0  0
  144.5480   75.4270  217.8940 H   0  0  0  0  0  0  0  0  0  0  0  0
  142.6983   75.7036  216.9327 H   0  0  0  0  0  0  0  0  0  0  0  0
  141.2424   75.1410  217.6465 H   0  0  0  0  0  0  0  0  0  0  0  0
  143.5097   76.8530  219.0648 H   0  0  0  0  0  0  0  0  0  0  0  0
  142.1469   78.2689  218.1806 H   0  0  0  0  0  0  0  0  0  0  0  0
  140.6785   77.1774  218.5975 H   0  0  0  0  0  0  0  0  0  0  0  0
  142.6431   79.7585  219.5340 H   0  0  0  0  0  0  0  0  0  0  0  0
  140.8483   80.1721  219.7093 H   0  0  0  0  0  0  0  0  0  0  0  0
  142.6142   78.2786  222.3263 H   0  0  0  0  0  0  0  0  0  0  0  0
  142.9462   79.1899  224.5746 H   0  0  0  0  0  0  0  0  0  0  0  0
  142.4616   81.5812  225.0845 H   0  0  0  0  0  0  0  0  0  0  0  0
  141.6265   83.0255  223.2358 H   0  0  0  0  0  0  0  0  0  0  0  0
  141.2897   82.1283  220.9787 H   0  0  0  0  0  0  0  0  0  0  0  0
  139.2062   70.1563  221.8349 H   0  0  0  0  0  0  0  0  0  0  0  0
  139.0816   68.5408  223.7135 H   0  0  0  0  0  0  0  0  0  0  0  0
  139.5210   67.9931  225.9934 H   0  0  0  0  0  0  0  0  0  0  0  0
  141.4748   70.8897  228.5313 H   0  0  0  0  0  0  0  0  0  0  0  0
  141.5960   72.5088  226.6230 H   0  0  0  0  0  0  0  0  0  0  0  0
  1  2  2  0
  2  3  1  0
  3  4  1  0
  4  5  1  0
  5  6  2  0
  5  7  1  0
  7  8  1  0
  8  9  1  0
  9 10  1  0
  9 11  1  0
 11 12  1  0
 12 13  1  0
 13 14  1  0
 14 15  1  0
 15 16  1  0
 16 17  2  0
 17 18  1  0
 18 19  2  0
 19 20  1  0
 20 21  2  0
  2 22  1  0
 22 23  2  0
 23 24  1  0
 24 25  2  0
 25 26  1  0
 26 27  2  0
 27 28  1  0
 27 29  1  0
 29 30  2  0
 30 31  1  0
 31 32  2  0
 12  7  1  0
 21 16  1  0
 32 22  1  0
 31 25  1  0
  3 33  1  0
  4 34  1  0
  4 35  1  0
  8 36  1  0
  8 37  1  0
  9 38  1  6
 10 39  1  0
 11 40  1  0
 11 41  1  0
 12 42  1  1
 13 43  1  0
 13 44  1  0
 15 45  1  0
 15 46  1  0
 17 47  1  0
 18 48  1  0
 19 49  1  0
 20 50  1  0
 21 51  1  0
 23 52  1  0
 24 53  1  0
 26 54  1  0
 29 55  1  0
 30 56  1  0
M  END
>  <smiles>  (37) 
O=C(NCC(=O)N1C[C@H](O)C[C@H]1COCc1ccccc1)c1ccc2cc(Cl)ccc2n1

>  <score_type>  (37) 
oracle

>  <origin>  (37) 
autodockgpu

>  <m_score__min__energy>  (37) 
-8.9399999999999995

>  <m_primary>  (37) 
energy

>  <rmsd>  (37) 
2.258511373977423

>  <m_score__min__rmsd>  (37) 
2.258511373977423

>  <meeko>  (37) 
{"free_energy": -8.6, "intermolecular_energy": -11.28, "internal_energy": -1.6, "cluster_size": 16, "cluster_id": 1, "rank_in_cluster": 3}

>  <energy>  (37) 
-8.21

>  <cluster_rmsd>  (37) 
1.72

>  <cluster>  (37) 
4

$$$$

     RDKit          3D

 56 59  0  0  0  0  0  0  0  0999 V2000
  139.1930   72.1140  221.1150 O   0  0  0  0  0  0  0  0  0  0  0  0
  138.7340   73.0580  221.8130 C   0  0  0  0  0  0  0  0  0  0  0  0
  137.5180   72.8800  222.5360 N   0  0  0  0  0  0  0  0  0  0  0  0
  136.8510   71.6240  222.4440 C   0  0  0  0  0  0  0  0  0  0  0  0
  137.4590   70.5710  223.2810 C   0  0  0  0  0  0  0  0  0  0  0  0
  137.9920   70.9260  224.3620 O   0  0  0  0  0  0  0  0  0  0  0  0
  137.4090   69.2270  222.8250 N   0  0  0  0  0  0  0  0  0  0  0  0
  136.5440   68.6800  221.7650 C   0  0  0  0  0  0  0  0  0  0  0  0
  137.4920   67.7040  221.1000 C   0  0  2  0  0  0  0  0  0  0  0  0
  136.9640   66.4240  221.3050 O   0  0  0  0  0  0  0  0  0  0  0  0
  138.7930   67.7490  221.9020 C   0  0  0  0  0  0  0  0  0  0  0  0
  138.1760   68.0690  223.2710 C   0  0  1  0  0  0  0  0  0  0  0  0
  139.1590   68.4400  224.2910 C   0  0  0  0  0  0  0  0  0  0  0  0
  139.1940   67.7690  225.4520 O   0  0  0  0  0  0  0  0  0  0  0  0
  140.1620   67.9630  226.3630 C   0  0  0  0  0  0  0  0  0  0  0  0
  140.4440   69.3720  226.7400 C   0  0  0  0  0  0  0  0  0  0  0  0
  141.1580   70.2440  225.9450 C   0  0  0  0  0  0  0  0  0  0  0  0
  141.3980   71.5450  226.3330 C   0  0  0  0  0  0  0  0  0  0  0  0
  140.9360   72.0430  227.5370 C   0  0  0  0  0  0  0  0  0  0  0  0
  140.2210   71.1780  228.3380 C   0  0  0  0  0  0  0  0  0  0  0  0
  139.9750   69.8770  227.9600 C   0  0  0  0  0  0  0  0  0  0  0  0
  139.4310   74.3540  221.9020 C   0  0  0  0  0  0  0  0  0  0  0  0
  140.7620   74.4020  221.4990 C   0  0  0  0  0  0  0  0  0  0  0  0
  141.4280   75.5960  221.5740 C   0  0  0  0  0  0  0  0  0  0  0  0
  140.7750   76.7150  222.0410 C   0  0  0  0  0  0  0  0  0  0  0  0
  141.4450   77.9040  222.1120 C   0  0  0  0  0  0  0  0  0  0  0  0
  140.7480   79.0080  222.5900 C   0  0  0  0  0  0  0  0  0  0  0  0
  141.5420   80.5580  222.7080 Cl  0  0  0  0  0  0  0  0  0  0  0  0
  139.4300   78.9290  222.9810 C   0  0  0  0  0  0  0  0  0  0  0  0
  138.7560   77.7240  222.9060 C   0  0  0  0  0  0  0  0  0  0  0  0
  139.4590   76.6360  222.4310 C   0  0  0  0  0  0  0  0  0  0  0  0
  138.8050   75.4610  222.3580 N   0  0  0  0  0  0  0  0  0  0  0  0
  137.1790   73.6940  223.1010 H   0  0  0  0  0  0  0  0  0  0  0  0
  135.8065   71.7606  222.7607 H   0  0  0  0  0  0  0  0  0  0  0  0
  136.9302   71.2917  221.3984 H   0  0  0  0  0  0  0  0  0  0  0  0
  135.6647   68.1686  222.1838 H   0  0  0  0  0  0  0  0  0  0  0  0
  136.1202   69.4362  221.0878 H   0  0  0  0  0  0  0  0  0  0  0  0
  137.6382   67.9349  220.0345 H   0  0  0  0  0  0  0  0  0  0  0  0
  136.0200   66.3890  221.0520 H   0  0  0  0  0  0  0  0  0  0  0  0
  139.3215   66.7843  221.8964 H   0  0  0  0  0  0  0  0  0  0  0  0
  139.5638   68.4456  221.5406 H   0  0  0  0  0  0  0  0  0  0  0  0
  137.6383   67.2451  223.7630 H   0  0  0  0  0  0  0  0  0  0  0  0
  140.1525   68.3343  223.8308 H   0  0  0  0  0  0  0  0  0  0  0  0
  138.8513   69.4533  224.5885 H   0  0  0  0  0  0  0  0  0  0  0  0
  139.8736   67.4236  227.2773 H   0  0  0  0  0  0  0  0  0  0  0  0
  141.0852   67.5978  225.8894 H   0  0  0  0  0  0  0  0  0  0  0  0
  141.5456   69.8927  224.9773 H   0  0  0  0  0  0  0  0  0  0  0  0
  141.9727   72.2047  225.6664 H   0  0  0  0  0  0  0  0  0  0  0  0
  141.1300   73.0819  227.8421 H   0  0  0  0  0  0  0  0  0  0  0  0
  139.8370   71.5367  229.3044 H   0  0  0  0  0  0  0  0  0  0  0  0
  139.3988   69.2210  228.6291 H   0  0  0  0  0  0  0  0  0  0  0  0
  141.2688   73.4991  221.1277 H   0  0  0  0  0  0  0  0  0  0  0  0
  142.4809   75.6612  221.2624 H   0  0  0  0  0  0  0  0  0  0  0  0
  142.4974   77.9846  221.8023 H   0  0  0  0  0  0  0  0  0  0  0  0
  138.9128   79.8255  223.3534 H   0  0  0  0  0  0  0  0  0  0  0  0
  137.7031   77.6365  223.2123 H   0  0  0  0  0  0  0  0  0  0  0  0
  1  2  2  0
  2  3  1  0
  3  4  1  0
  4  5  1  0
  5  6  2  0
  5  7  1  0
  7  8  1  0
  8  9  1  0
  9 10  1  0
  9 11  1  0
 11 12  1  0
 12 13  1  0
 13 14  1  0
 14 15  1  0
 15 16  1  0
 16 17  2  0
 17 18  1  0
 18 19  2  0
 19 20  1  0
 20 21  2  0
  2 22  1  0
 22 23  2  0
 23 24  1  0
 24 25  2  0
 25 26  1  0
 26 27  2  0
 27 28  1  0
 27 29  1  0
 29 30  2  0
 30 31  1  0
 31 32  2  0
 12  7  1  0
 21 16  1  0
 32 22  1  0
 31 25  1  0
  3 33  1  0
  4 34  1  0
  4 35  1  0
  8 36  1  0
  8 37  1  0
  9 38  1  6
 10 39  1  0
 11 40  1  0
 11 41  1  0
 12 42  1  1
 13 43  1  0
 13 44  1  0
 15 45  1  0
 15 46  1  0
 17 47  1  0
 18 48  1  0
 19 49  1  0
 20 50  1  0
 21 51  1  0
 23 52  1  0
 24 53  1  0
 26 54  1  0
 29 55  1  0
 30 56  1  0
M  END
>  <smiles>  (38) 
O=C(NCC(=O)N1C[C@H](O)C[C@H]1COCc1ccccc1)c1ccc2cc(Cl)ccc2n1

>  <score_type>  (38) 
oracle

>  <origin>  (38) 
autodockgpu

>  <m_score__min__energy>  (38) 
-8.9399999999999995

>  <m_primary>  (38) 
energy

>  <rmsd>  (38) 
7.781840589255024

>  <m_score__min__rmsd>  (38) 
7.781840589255024

>  <meeko>  (38) 
{"free_energy": -8.19, "intermolecular_energy": -10.87, "internal_energy": -1.91, "cluster_size": 12, "cluster_id": 3, "rank_in_cluster": 9}

>  <energy>  (38) 
-8.19

>  <cluster_rmsd>  (38) 
1.44

>  <cluster>  (38) 
4

$$$$

     RDKit          3D

 56 59  0  0  0  0  0  0  0  0999 V2000
  140.5600   71.9740  221.0780 O   0  0  0  0  0  0  0  0  0  0  0  0
  139.9360   72.9380  221.5990 C   0  0  0  0  0  0  0  0  0  0  0  0
  138.7220   72.6980  222.3060 N   0  0  0  0  0  0  0  0  0  0  0  0
  138.2450   71.3580  222.4020 C   0  0  0  0  0  0  0  0  0  0  0  0
  137.1920   71.1790  223.4220 C   0  0  0  0  0  0  0  0  0  0  0  0
  136.9400   72.1550  224.1720 O   0  0  0  0  0  0  0  0  0  0  0  0
  136.5270   69.9260  223.4990 N   0  0  0  0  0  0  0  0  0  0  0  0
  135.0750   69.6860  223.4310 C   0  0  0  0  0  0  0  0  0  0  0  0
  135.0360   68.4050  222.6230 C   0  0  2  0  0  0  0  0  0  0  0  0
  134.5150   67.4130  223.4620 O   0  0  0  0  0  0  0  0  0  0  0  0
  136.4910   68.0100  222.3680 C   0  0  0  0  0  0  0  0  0  0  0  0
  137.0880   68.5900  223.6590 C   0  0  1  0  0  0  0  0  0  0  0  0
  138.5510   68.6210  223.6710 C   0  0  0  0  0  0  0  0  0  0  0  0
  139.2150   68.1750  224.7480 O   0  0  0  0  0  0  0  0  0  0  0  0
  138.9940   68.6630  225.9800 C   0  0  0  0  0  0  0  0  0  0  0  0
  139.8050   69.8410  226.3810 C   0  0  0  0  0  0  0  0  0  0  0  0
  140.3510   70.7310  225.4800 C   0  0  0  0  0  0  0  0  0  0  0  0
  141.0990   71.8120  225.8950 C   0  0  0  0  0  0  0  0  0  0  0  0
  141.3390   72.0620  227.2330 C   0  0  0  0  0  0  0  0  0  0  0  0
  140.7950   71.1770  228.1410 C   0  0  0  0  0  0  0  0  0  0  0  0
  140.0470   70.0940  227.7370 C   0  0  0  0  0  0  0  0  0  0  0  0
  140.4370   74.3200  221.4930 C   0  0  0  0  0  0  0  0  0  0  0  0
  141.5370   74.5500  220.6740 C   0  0  0  0  0  0  0  0  0  0  0  0
  142.0190   75.8260  220.5620 C   0  0  0  0  0  0  0  0  0  0  0  0
  141.4110   76.8490  221.2560 C   0  0  0  0  0  0  0  0  0  0  0  0
  141.8950   78.1210  221.1400 C   0  0  0  0  0  0  0  0  0  0  0  0
  141.2510   79.1230  221.8570 C   0  0  0  0  0  0  0  0  0  0  0  0
  141.8180   80.7720  221.7560 Cl  0  0  0  0  0  0  0  0  0  0  0  0
  140.1630   78.8650  222.6610 C   0  0  0  0  0  0  0  0  0  0  0  0
  139.6760   77.5760  222.7740 C   0  0  0  0  0  0  0  0  0  0  0  0
  140.3240   76.5910  222.0580 C   0  0  0  0  0  0  0  0  0  0  0  0
  139.8520   75.3350  222.1670 N   0  0  0  0  0  0  0  0  0  0  0  0
  138.2410   73.5310  222.7200 H   0  0  0  0  0  0  0  0  0  0  0  0
  137.8363   71.0631  221.4242 H   0  0  0  0  0  0  0  0  0  0  0  0
  139.0976   70.7320  222.7039 H   0  0  0  0  0  0  0  0  0  0  0  0
  134.6405   69.5466  224.4319 H   0  0  0  0  0  0  0  0  0  0  0  0
  134.4963   70.5152  222.9979 H   0  0  0  0  0  0  0  0  0  0  0  0
  134.4553   68.5216  221.6961 H   0  0  0  0  0  0  0  0  0  0  0  0
  134.0030   67.8080  224.1970 H   0  0  0  0  0  0  0  0  0  0  0  0
  136.6227   66.9201  222.2990 H   0  0  0  0  0  0  0  0  0  0  0  0
  136.9334   68.3643  221.4252 H   0  0  0  0  0  0  0  0  0  0  0  0
  136.8656   68.0395  224.5850 H   0  0  0  0  0  0  0  0  0  0  0  0
  138.8902   68.0193  222.8149 H   0  0  0  0  0  0  0  0  0  0  0  0
  138.7854   69.6956  223.6515 H   0  0  0  0  0  0  0  0  0  0  0  0
  137.9340   68.9507  226.0404 H   0  0  0  0  0  0  0  0  0  0  0  0
  139.2887   67.8581  226.6694 H   0  0  0  0  0  0  0  0  0  0  0  0
  140.1856   70.5744  224.4038 H   0  0  0  0  0  0  0  0  0  0  0  0
  141.5165   72.4947  225.1403 H   0  0  0  0  0  0  0  0  0  0  0  0
  141.9361   72.9265  227.5588 H   0  0  0  0  0  0  0  0  0  0  0  0
  140.9633   71.3409  229.2156 H   0  0  0  0  0  0  0  0  0  0  0  0
  139.6310   69.4136  228.4947 H   0  0  0  0  0  0  0  0  0  0  0  0
  142.0108   73.7219  220.1265 H   0  0  0  0  0  0  0  0  0  0  0  0
  142.8881   76.0338  219.9206 H   0  0  0  0  0  0  0  0  0  0  0  0
  142.7630   78.3445  220.5023 H   0  0  0  0  0  0  0  0  0  0  0  0
  139.6811   79.6850  223.2136 H   0  0  0  0  0  0  0  0  0  0  0  0
  138.8076   77.3454  223.4087 H   0  0  0  0  0  0  0  0  0  0  0  0
  1  2  2  0
  2  3  1  0
  3  4  1  0
  4  5  1  0
  5  6  2  0
  5  7  1  0
  7  8  1  0
  8  9  1  0
  9 10  1  0
  9 11  1  0
 11 12  1  0
 12 13  1  0
 13 14  1  0
 14 15  1  0
 15 16  1  0
 16 17  2  0
 17 18  1  0
 18 19  2  0
 19 20  1  0
 20 21  2  0
  2 22  1  0
 22 23  2  0
 23 24  1  0
 24 25  2  0
 25 26  1  0
 26 27  2  0
 27 28  1  0
 27 29  1  0
 29 30  2  0
 30 31  1  0
 31 32  2  0
 12  7  1  0
 21 16  1  0
 32 22  1  0
 31 25  1  0
  3 33  1  0
  4 34  1  0
  4 35  1  0
  8 36  1  0
  8 37  1  0
  9 38  1  6
 10 39  1  0
 11 40  1  0
 11 41  1  0
 12 42  1  1
 13 43  1  0
 13 44  1  0
 15 45  1  0
 15 46  1  0
 17 47  1  0
 18 48  1  0
 19 49  1  0
 20 50  1  0
 21 51  1  0
 23 52  1  0
 24 53  1  0
 26 54  1  0
 29 55  1  0
 30 56  1  0
M  END
>  <smiles>  (39) 
O=C(NCC(=O)N1C[C@H](O)C[C@H]1COCc1ccccc1)c1ccc2cc(Cl)ccc2n1

>  <score_type>  (39) 
oracle

>  <origin>  (39) 
autodockgpu

>  <m_score__min__energy>  (39) 
-8.9399999999999995

>  <m_primary>  (39) 
energy

>  <rmsd>  (39) 
8.164848263127674

>  <m_score__min__rmsd>  (39) 
8.164848263127674

>  <meeko>  (39) 
{"free_energy": -7.82, "intermolecular_energy": -10.5, "internal_energy": -2.33, "cluster_size": 12, "cluster_id": 3, "rank_in_cluster": 11}

>  <energy>  (39) 
-7.82

>  <cluster_rmsd>  (39) 
1.46

>  <cluster>  (39) 
4

$$$$

     RDKit          3D

 56 59  0  0  0  0  0  0  0  0999 V2000
  140.5780   72.1350  220.7690 O   0  0  0  0  0  0  0  0  0  0  0  0
  140.2020   72.5100  221.9130 C   0  0  0  0  0  0  0  0  0  0  0  0
  139.8140   73.8660  222.1230 N   0  0  0  0  0  0  0  0  0  0  0  0
  139.8630   74.7660  221.0190 C   0  0  0  0  0  0  0  0  0  0  0  0
  141.0450   75.6500  221.0320 C   0  0  0  0  0  0  0  0  0  0  0  0
  141.1290   76.4910  221.9620 O   0  0  0  0  0  0  0  0  0  0  0  0
  142.0150   75.5040  220.0050 N   0  0  0  0  0  0  0  0  0  0  0  0
  142.5720   74.2440  219.4810 C   0  0  0  0  0  0  0  0  0  0  0  0
  142.6740   74.5700  218.0060 C   0  0  2  0  0  0  0  0  0  0  0  0
  144.0360   74.5610  217.6830 O   0  0  0  0  0  0  0  0  0  0  0  0
  142.2210   76.0220  217.8500 C   0  0  0  0  0  0  0  0  0  0  0  0
  142.6930   76.5290  219.2200 C   0  0  1  0  0  0  0  0  0  0  0  0
  142.2060   77.8690  219.5550 C   0  0  0  0  0  0  0  0  0  0  0  0
  140.8920   78.1290  219.5010 O   0  0  0  0  0  0  0  0  0  0  0  0
  140.3420   79.1800  220.1320 C   0  0  0  0  0  0  0  0  0  0  0  0
  140.9410   79.5540  221.4390 C   0  0  0  0  0  0  0  0  0  0  0  0
  140.4520   79.1200  222.6530 C   0  0  0  0  0  0  0  0  0  0  0  0
  141.0370   79.4930  223.8440 C   0  0  0  0  0  0  0  0  0  0  0  0
  142.1450   80.3190  223.8840 C   0  0  0  0  0  0  0  0  0  0  0  0
  142.6410   80.7570  222.6740 C   0  0  0  0  0  0  0  0  0  0  0  0
  142.0640   80.3910  221.4790 C   0  0  0  0  0  0  0  0  0  0  0  0
  140.1550   71.5720  223.0490 C   0  0  0  0  0  0  0  0  0  0  0  0
  139.5870   70.3200  222.8320 C   0  0  0  0  0  0  0  0  0  0  0  0
  139.5330   69.4340  223.8740 C   0  0  0  0  0  0  0  0  0  0  0  0
  140.0350   69.7940  225.1050 C   0  0  0  0  0  0  0  0  0  0  0  0
  139.9790   68.9060  226.1410 C   0  0  0  0  0  0  0  0  0  0  0  0
  140.4980   69.3100  227.3650 C   0  0  0  0  0  0  0  0  0  0  0  0
  140.4580   68.2250  228.7320 Cl  0  0  0  0  0  0  0  0  0  0  0  0
  141.0530   70.5570  227.5500 C   0  0  0  0  0  0  0  0  0  0  0  0
  141.1090   71.4530  226.4970 C   0  0  0  0  0  0  0  0  0  0  0  0
  140.5910   71.0390  225.2880 C   0  0  0  0  0  0  0  0  0  0  0  0
  140.6430   71.9100  224.2620 N   0  0  0  0  0  0  0  0  0  0  0  0
  139.5100   74.1270  223.0910 H   0  0  0  0  0  0  0  0  0  0  0  0
  139.8789   74.1770  220.0901 H   0  0  0  0  0  0  0  0  0  0  0  0
  138.9752   75.4118  221.0884 H   0  0  0  0  0  0  0  0  0  0  0  0
  143.5583   74.0255  219.9163 H   0  0  0  0  0  0  0  0  0  0  0  0
  141.9716   73.3511  219.7094 H   0  0  0  0  0  0  0  0  0  0  0  0
  142.0889   73.8711  217.3901 H   0  0  0  0  0  0  0  0  0  0  0  0
  144.5180   75.2570  218.1730 H   0  0  0  0  0  0  0  0  0  0  0  0
  142.7284   76.5316  217.0176 H   0  0  0  0  0  0  0  0  0  0  0  0
  141.1582   76.1778  217.6128 H   0  0  0  0  0  0  0  0  0  0  0  0
  143.7799   76.6453  219.3433 H   0  0  0  0  0  0  0  0  0  0  0  0
  142.5310   78.0788  220.5847 H   0  0  0  0  0  0  0  0  0  0  0  0
  142.6261   78.5016  218.7592 H   0  0  0  0  0  0  0  0  0  0  0  0
  140.4238   80.0509  219.4651 H   0  0  0  0  0  0  0  0  0  0  0  0
  139.3098   78.8759  220.3603 H   0  0  0  0  0  0  0  0  0  0  0  0
  139.5727   78.4593  222.6715 H   0  0  0  0  0  0  0  0  0  0  0  0
  140.6108   79.1234  224.7883 H   0  0  0  0  0  0  0  0  0  0  0  0
  142.6094   80.6132  224.8368 H   0  0  0  0  0  0  0  0  0  0  0  0
  143.5213   81.4165  222.6635 H   0  0  0  0  0  0  0  0  0  0  0  0
  142.4930   80.7630  220.5369 H   0  0  0  0  0  0  0  0  0  0  0  0
  139.1895   70.0480  221.8431 H   0  0  0  0  0  0  0  0  0  0  0  0
  139.0901   68.4377  223.7287 H   0  0  0  0  0  0  0  0  0  0  0  0
  139.5387   67.9064  226.0111 H   0  0  0  0  0  0  0  0  0  0  0  0
  141.4518   70.8407  228.5351 H   0  0  0  0  0  0  0  0  0  0  0  0
  141.5485   72.4540  226.6193 H   0  0  0  0  0  0  0  0  0  0  0  0
  1  2  2  0
  2  3  1  0
  3  4  1  0
  4  5  1  0
  5  6  2  0
  5  7  1  0
  7  8  1  0
  8  9  1  0
  9 10  1  0
  9 11  1  0
 11 12  1  0
 12 13  1  0
 13 14  1  0
 14 15  1  0
 15 16  1  0
 16 17  2  0
 17 18  1  0
 18 19  2  0
 19 20  1  0
 20 21  2  0
  2 22  1  0
 22 23  2  0
 23 24  1  0
 24 25  2  0
 25 26  1  0
 26 27  2  0
 27 28  1  0
 27 29  1  0
 29 30  2  0
 30 31  1  0
 31 32  2  0
 12  7  1  0
 21 16  1  0
 32 22  1  0
 31 25  1  0
  3 33  1  0
  4 34  1  0
  4 35  1  0
  8 36  1  0
  8 37  1  0
  9 38  1  6
 10 39  1  0
 11 40  1  0
 11 41  1  0
 12 42  1  6
 13 43  1  0
 13 44  1  0
 15 45  1  0
 15 46  1  0
 17 47  1  0
 18 48  1  0
 19 49  1  0
 20 50  1  0
 21 51  1  0
 23 52  1  0
 24 53  1  0
 26 54  1  0
 29 55  1  0
 30 56  1  0
M  END
>  <smiles>  (40) 
O=C(NCC(=O)N1C[C@H](O)C[C@H]1COCc1ccccc1)c1ccc2cc(Cl)ccc2n1

>  <score_type>  (40) 
oracle

>  <origin>  (40) 
autodockgpu

>  <m_score__min__energy>  (40) 
-8.9399999999999995

>  <m_primary>  (40) 
energy

>  <rmsd>  (40) 
1.9814269851424426

>  <m_score__min__rmsd>  (40) 
1.9814269851424426

>  <meeko>  (40) 
{"free_energy": -8.34, "intermolecular_energy": -11.03, "internal_energy": -1.79, "cluster_size": 16, "cluster_id": 1, "rank_in_cluster": 9}

>  <energy>  (40) 
-7.71

>  <cluster_rmsd>  (40) 
1.61

>  <cluster>  (40) 
4

$$$$

     RDKit          3D

 56 59  0  0  0  0  0  0  0  0999 V2000
  141.3110   72.9280  221.5950 O   0  0  0  0  0  0  0  0  0  0  0  0
  140.2980   72.7930  222.3330 C   0  0  0  0  0  0  0  0  0  0  0  0
  139.1570   73.6230  222.1280 N   0  0  0  0  0  0  0  0  0  0  0  0
  139.1980   74.5900  221.0820 C   0  0  0  0  0  0  0  0  0  0  0  0
  139.9660   75.8020  221.4310 C   0  0  0  0  0  0  0  0  0  0  0  0
  139.6400   76.4130  222.4790 O   0  0  0  0  0  0  0  0  0  0  0  0
  141.0210   76.2080  220.5720 N   0  0  0  0  0  0  0  0  0  0  0  0
  142.3630   75.6080  220.4670 C   0  0  0  0  0  0  0  0  0  0  0  0
  142.5980   75.6960  218.9740 C   0  0  2  0  0  0  0  0  0  0  0  0
  143.6750   76.5710  218.7850 O   0  0  0  0  0  0  0  0  0  0  0  0
  141.3790   76.4070  218.3840 C   0  0  0  0  0  0  0  0  0  0  0  0
  141.0550   77.2920  219.5960 C   0  0  1  0  0  0  0  0  0  0  0  0
  139.7600   77.9690  219.5040 C   0  0  0  0  0  0  0  0  0  0  0  0
  139.1010   78.2940  220.6260 O   0  0  0  0  0  0  0  0  0  0  0  0
  139.2660   79.4790  221.2380 C   0  0  0  0  0  0  0  0  0  0  0  0
  140.5150   79.6490  222.0250 C   0  0  0  0  0  0  0  0  0  0  0  0
  140.8420   78.8640  223.1100 C   0  0  0  0  0  0  0  0  0  0  0  0
  142.0110   79.0560  223.8150 C   0  0  0  0  0  0  0  0  0  0  0  0
  142.9160   80.0430  223.4710 C   0  0  0  0  0  0  0  0  0  0  0  0
  142.5960   80.8320  222.3850 C   0  0  0  0  0  0  0  0  0  0  0  0
  141.4310   80.6490  221.6750 C   0  0  0  0  0  0  0  0  0  0  0  0
  140.2650   71.7910  223.4120 C   0  0  0  0  0  0  0  0  0  0  0  0
  139.7640   70.5280  223.1090 C   0  0  0  0  0  0  0  0  0  0  0  0
  139.7240   69.5820  224.0970 C   0  0  0  0  0  0  0  0  0  0  0  0
  140.1750   69.8940  225.3610 C   0  0  0  0  0  0  0  0  0  0  0  0
  140.1340   68.9460  226.3430 C   0  0  0  0  0  0  0  0  0  0  0  0
  140.6000   69.3030  227.6040 C   0  0  0  0  0  0  0  0  0  0  0  0
  140.5750   68.1400  228.9060 Cl  0  0  0  0  0  0  0  0  0  0  0  0
  141.0900   70.5610  227.8740 C   0  0  0  0  0  0  0  0  0  0  0  0
  141.1310   71.5170  226.8760 C   0  0  0  0  0  0  0  0  0  0  0  0
  140.6660   71.1510  225.6300 C   0  0  0  0  0  0  0  0  0  0  0  0
  140.7040   72.0800  224.6570 N   0  0  0  0  0  0  0  0  0  0  0  0
  138.3410   73.4730  222.7680 H   0  0  0  0  0  0  0  0  0  0  0  0
  139.6605   74.1272  220.1977 H   0  0  0  0  0  0  0  0  0  0  0  0
  138.1617   74.9066  220.8928 H   0  0  0  0  0  0  0  0  0  0  0  0
  143.1104   76.1872  221.0291 H   0  0  0  0  0  0  0  0  0  0  0  0
  142.4408   74.5918  220.8808 H   0  0  0  0  0  0  0  0  0  0  0  0
  142.7737   74.7062  218.5274 H   0  0  0  0  0  0  0  0  0  0  0  0
  144.4460   76.1020  218.4080 H   0  0  0  0  0  0  0  0  0  0  0  0
  141.6306   76.9970  217.4903 H   0  0  0  0  0  0  0  0  0  0  0  0
  140.5661   75.7604  218.0220 H   0  0  0  0  0  0  0  0  0  0  0  0
  141.7395   78.1340  219.7761 H   0  0  0  0  0  0  0  0  0  0  0  0
  139.9271   78.9042  218.9495 H   0  0  0  0  0  0  0  0  0  0  0  0
  139.1098   77.2174  219.0325 H   0  0  0  0  0  0  0  0  0  0  0  0
  139.2494   80.2604  220.4640 H   0  0  0  0  0  0  0  0  0  0  0  0
  138.4482   79.5454  221.9707 H   0  0  0  0  0  0  0  0  0  0  0  0
  140.1532   78.0647  223.4209 H   0  0  0  0  0  0  0  0  0  0  0  0
  142.2298   78.4060  224.6750 H   0  0  0  0  0  0  0  0  0  0  0  0
  143.8476   80.1924  224.0365 H   0  0  0  0  0  0  0  0  0  0  0  0
  143.2903   81.6283  222.0786 H   0  0  0  0  0  0  0  0  0  0  0  0
  141.2152   81.3010  220.8158 H   0  0  0  0  0  0  0  0  0  0  0  0
  139.4072   70.2949  222.0949 H   0  0  0  0  0  0  0  0  0  0  0  0
  139.3332   68.5763  223.8829 H   0  0  0  0  0  0  0  0  0  0  0  0
  139.7463   67.9360  226.1439 H   0  0  0  0  0  0  0  0  0  0  0  0
  141.4491   70.8057  228.8845 H   0  0  0  0  0  0  0  0  0  0  0  0
  141.5187   72.5284  227.0679 H   0  0  0  0  0  0  0  0  0  0  0  0
  1  2  2  0
  2  3  1  0
  3  4  1  0
  4  5  1  0
  5  6  2  0
  5  7  1  0
  7  8  1  0
  8  9  1  0
  9 10  1  0
  9 11  1  0
 11 12  1  0
 12 13  1  0
 13 14  1  0
 14 15  1  0
 15 16  1  0
 16 17  2  0
 17 18  1  0
 18 19  2  0
 19 20  1  0
 20 21  2  0
  2 22  1  0
 22 23  2  0
 23 24  1  0
 24 25  2  0
 25 26  1  0
 26 27  2  0
 27 28  1  0
 27 29  1  0
 29 30  2  0
 30 31  1  0
 31 32  2  0
 12  7  1  0
 21 16  1  0
 32 22  1  0
 31 25  1  0
  3 33  1  0
  4 34  1  0
  4 35  1  0
  8 36  1  0
  8 37  1  0
  9 38  1  6
 10 39  1  0
 11 40  1  0
 11 41  1  0
 12 42  1  1
 13 43  1  0
 13 44  1  0
 15 45  1  0
 15 46  1  0
 17 47  1  0
 18 48  1  0
 19 49  1  0
 20 50  1  0
 21 51  1  0
 23 52  1  0
 24 53  1  0
 26 54  1  0
 29 55  1  0
 30 56  1  0
M  END
>  <smiles>  (41) 
O=C(NCC(=O)N1C[C@H](O)C[C@H]1COCc1ccccc1)c1ccc2cc(Cl)ccc2n1

>  <score_type>  (41) 
oracle

>  <origin>  (41) 
autodockgpu

>  <m_score__min__energy>  (41) 
-8.9399999999999995

>  <m_primary>  (41) 
energy

>  <rmsd>  (41) 
1.9821610027823608

>  <m_score__min__rmsd>  (41) 
1.9821610027823608

>  <meeko>  (41) 
{"free_energy": -8.23, "intermolecular_energy": -10.92, "internal_energy": -1.82, "cluster_size": 16, "cluster_id": 1, "rank_in_cluster": 11}

>  <energy>  (41) 
-7.58

>  <cluster_rmsd>  (41) 
1.59

>  <cluster>  (41) 
4

$$$$

     RDKit          3D

 56 59  0  0  0  0  0  0  0  0999 V2000
  140.0800   74.0310  222.3090 O   0  0  0  0  0  0  0  0  0  0  0  0
  140.0540   72.7910  222.0780 C   0  0  0  0  0  0  0  0  0  0  0  0
  140.0110   72.3230  220.7320 N   0  0  0  0  0  0  0  0  0  0  0  0
  139.9970   73.2830  219.6780 C   0  0  0  0  0  0  0  0  0  0  0  0
  141.3170   73.4850  219.0480 C   0  0  0  0  0  0  0  0  0  0  0  0
  141.3410   73.6990  217.8100 O   0  0  0  0  0  0  0  0  0  0  0  0
  142.4760   73.4280  219.8670 N   0  0  0  0  0  0  0  0  0  0  0  0
  143.1970   72.2180  220.3030 C   0  0  0  0  0  0  0  0  0  0  0  0
  144.6310   72.6980  220.2210 C   0  0  2  0  0  0  0  0  0  0  0  0
  145.1350   72.6930  221.5270 O   0  0  0  0  0  0  0  0  0  0  0  0
  144.5730   74.1680  219.8050 C   0  0  0  0  0  0  0  0  0  0  0  0
  143.2350   74.5150  220.4720 C   0  0  1  0  0  0  0  0  0  0  0  0
  142.7010   75.8220  220.0830 C   0  0  0  0  0  0  0  0  0  0  0  0
  141.5040   76.2130  220.5450 O   0  0  0  0  0  0  0  0  0  0  0  0
  141.0910   77.4890  220.4760 C   0  0  0  0  0  0  0  0  0  0  0  0
  141.4790   78.3730  221.6050 C   0  0  0  0  0  0  0  0  0  0  0  0
  141.9220   79.6690  221.4400 C   0  0  0  0  0  0  0  0  0  0  0  0
  142.2730   80.4560  222.5160 C   0  0  0  0  0  0  0  0  0  0  0  0
  142.1990   79.9890  223.8150 C   0  0  0  0  0  0  0  0  0  0  0  0
  141.7560   78.6940  223.9890 C   0  0  0  0  0  0  0  0  0  0  0  0
  141.4030   77.9000  222.9210 C   0  0  0  0  0  0  0  0  0  0  0  0
  140.0680   71.8070  223.1740 C   0  0  0  0  0  0  0  0  0  0  0  0
  139.5650   70.5370  222.9110 C   0  0  0  0  0  0  0  0  0  0  0  0
  139.5680   69.6070  223.9160 C   0  0  0  0  0  0  0  0  0  0  0  0
  140.0650   69.9430  225.1560 C   0  0  0  0  0  0  0  0  0  0  0  0
  140.0660   69.0110  226.1550 C   0  0  0  0  0  0  0  0  0  0  0  0
  140.5770   69.3930  227.3910 C   0  0  0  0  0  0  0  0  0  0  0  0
  140.6090   68.2520  228.7120 Cl  0  0  0  0  0  0  0  0  0  0  0  0
  141.0680   70.6580  227.6220 C   0  0  0  0  0  0  0  0  0  0  0  0
  141.0650   71.5980  226.6060 C   0  0  0  0  0  0  0  0  0  0  0  0
  140.5560   71.2070  225.3860 C   0  0  0  0  0  0  0  0  0  0  0  0
  140.5520   72.1210  224.3960 N   0  0  0  0  0  0  0  0  0  0  0  0
  139.9900   71.2850  220.5920 H   0  0  0  0  0  0  0  0  0  0  0  0
  139.2912   72.9423  218.9061 H   0  0  0  0  0  0  0  0  0  0  0  0
  139.6989   74.2450  220.1204 H   0  0  0  0  0  0  0  0  0  0  0  0
  142.9239   71.9316  221.3294 H   0  0  0  0  0  0  0  0  0  0  0  0
  142.9823   71.3196  219.7057 H   0  0  0  0  0  0  0  0  0  0  0  0
  145.2309   72.0825  219.5345 H   0  0  0  0  0  0  0  0  0  0  0  0
  145.6970   71.9080  221.6830 H   0  0  0  0  0  0  0  0  0  0  0  0
  145.4093   74.7524  220.2161 H   0  0  0  0  0  0  0  0  0  0  0  0
  144.6464   74.3718  218.7265 H   0  0  0  0  0  0  0  0  0  0  0  0
  143.2485   74.5932  221.5691 H   0  0  0  0  0  0  0  0  0  0  0  0
  143.4318   76.5760  220.4108 H   0  0  0  0  0  0  0  0  0  0  0  0
  142.5381   75.7212  218.9998 H   0  0  0  0  0  0  0  0  0  0  0  0
  141.5032   77.9243  219.5537 H   0  0  0  0  0  0  0  0  0  0  0  0
  139.9925   77.4416  220.5075 H   0  0  0  0  0  0  0  0  0  0  0  0
  141.9970   80.0848  220.4244 H   0  0  0  0  0  0  0  0  0  0  0  0
  142.6215   81.4837  222.3360 H   0  0  0  0  0  0  0  0  0  0  0  0
  142.4803   80.6207  224.6705 H   0  0  0  0  0  0  0  0  0  0  0  0
  141.6829   78.2852  225.0076 H   0  0  0  0  0  0  0  0  0  0  0  0
  141.0542   76.8732  223.1051 H   0  0  0  0  0  0  0  0  0  0  0  0
  139.1724   70.2847  221.9149 H   0  0  0  0  0  0  0  0  0  0  0  0
  139.1752   68.5958  223.7339 H   0  0  0  0  0  0  0  0  0  0  0  0
  139.6769   67.9957  225.9880 H   0  0  0  0  0  0  0  0  0  0  0  0
  141.4628   70.9219  228.6142 H   0  0  0  0  0  0  0  0  0  0  0  0
  141.4527   72.6150  226.7655 H   0  0  0  0  0  0  0  0  0  0  0  0
  1  2  2  0
  2  3  1  0
  3  4  1  0
  4  5  1  0
  5  6  2  0
  5  7  1  0
  7  8  1  0
  8  9  1  0
  9 10  1  0
  9 11  1  0
 11 12  1  0
 12 13  1  0
 13 14  1  0
 14 15  1  0
 15 16  1  0
 16 17  2  0
 17 18  1  0
 18 19  2  0
 19 20  1  0
 20 21  2  0
  2 22  1  0
 22 23  2  0
 23 24  1  0
 24 25  2  0
 25 26  1  0
 26 27  2  0
 27 28  1  0
 27 29  1  0
 29 30  2  0
 30 31  1  0
 31 32  2  0
 12  7  1  0
 21 16  1  0
 32 22  1  0
 31 25  1  0
  3 33  1  0
  4 34  1  0
  4 35  1  0
  8 36  1  0
  8 37  1  0
  9 38  1  6
 10 39  1  0
 11 40  1  0
 11 41  1  0
 12 42  1  1
 13 43  1  0
 13 44  1  0
 15 45  1  0
 15 46  1  0
 17 47  1  0
 18 48  1  0
 19 49  1  0
 20 50  1  0
 21 51  1  0
 23 52  1  0
 24 53  1  0
 26 54  1  0
 29 55  1  0
 30 56  1  0
M  END
>  <smiles>  (42) 
O=C(NCC(=O)N1C[C@H](O)C[C@H]1COCc1ccccc1)c1ccc2cc(Cl)ccc2n1

>  <score_type>  (42) 
oracle

>  <origin>  (42) 
autodockgpu

>  <m_score__min__energy>  (42) 
-8.9399999999999995

>  <m_primary>  (42) 
energy

>  <rmsd>  (42) 
3.281264830600443

>  <m_score__min__rmsd>  (42) 
3.281264830600443

>  <meeko>  (42) 
{"free_energy": -8.94, "intermolecular_energy": -11.62, "internal_energy": -1.81, "cluster_size": 16, "cluster_id": 1, "rank_in_cluster": 1}

>  <energy>  (42) 
-7.56

>  <cluster_rmsd>  (42) 
1.57

>  <cluster>  (42) 
4

$$$$

     RDKit          3D

 56 59  0  0  0  0  0  0  0  0999 V2000
  139.1050   70.2030  219.7960 O   0  0  0  0  0  0  0  0  0  0  0  0
  139.5650   70.9080  220.7350 C   0  0  0  0  0  0  0  0  0  0  0  0
  140.1260   72.1880  220.4500 N   0  0  0  0  0  0  0  0  0  0  0  0
  140.1480   72.6350  219.0970 C   0  0  0  0  0  0  0  0  0  0  0  0
  141.3650   73.3940  218.7470 C   0  0  0  0  0  0  0  0  0  0  0  0
  141.3270   74.1050  217.7120 O   0  0  0  0  0  0  0  0  0  0  0  0
  142.5020   73.2810  219.5910 N   0  0  0  0  0  0  0  0  0  0  0  0
  143.6430   72.3620  219.4270 C   0  0  0  0  0  0  0  0  0  0  0  0
  144.7890   73.2530  219.8600 C   0  0  2  0  0  0  0  0  0  0  0  0
  145.3240   72.6870  221.0230 O   0  0  0  0  0  0  0  0  0  0  0  0
  144.1660   74.5800  220.2940 C   0  0  0  0  0  0  0  0  0  0  0  0
  142.8310   74.0200  220.8040 C   0  0  1  0  0  0  0  0  0  0  0  0
  141.8290   75.0490  221.0920 C   0  0  0  0  0  0  0  0  0  0  0  0
  140.8050   74.7670  221.9110 O   0  0  0  0  0  0  0  0  0  0  0  0
  139.6740   75.4910  221.9200 C   0  0  0  0  0  0  0  0  0  0  0  0
  139.7830   76.8840  222.4240 C   0  0  0  0  0  0  0  0  0  0  0  0
  138.6940   77.7050  222.6310 C   0  0  0  0  0  0  0  0  0  0  0  0
  138.8390   78.9930  223.0990 C   0  0  0  0  0  0  0  0  0  0  0  0
  140.0810   79.5290  223.3860 C   0  0  0  0  0  0  0  0  0  0  0  0
  141.1750   78.7140  223.1820 C   0  0  0  0  0  0  0  0  0  0  0  0
  141.0410   77.4260  222.7150 C   0  0  0  0  0  0  0  0  0  0  0  0
  139.5380   70.4380  222.1310 C   0  0  0  0  0  0  0  0  0  0  0  0
  138.8820   69.2400  222.3980 C   0  0  0  0  0  0  0  0  0  0  0  0
  138.8450   68.7840  223.6880 C   0  0  0  0  0  0  0  0  0  0  0  0
  139.4500   69.5130  224.6880 C   0  0  0  0  0  0  0  0  0  0  0  0
  139.4100   69.0540  225.9740 C   0  0  0  0  0  0  0  0  0  0  0  0
  140.0350   69.8210  226.9520 C   0  0  0  0  0  0  0  0  0  0  0  0
  140.0220   69.2930  228.6160 Cl  0  0  0  0  0  0  0  0  0  0  0  0
  140.6760   71.0030  226.6570 C   0  0  0  0  0  0  0  0  0  0  0  0
  140.7140   71.4630  225.3530 C   0  0  0  0  0  0  0  0  0  0  0  0
  140.0910   70.6940  224.3930 C   0  0  0  0  0  0  0  0  0  0  0  0
  140.1270   71.1400  223.1230 N   0  0  0  0  0  0  0  0  0  0  0  0
  140.4950   72.7350  221.2640 H   0  0  0  0  0  0  0  0  0  0  0  0
  140.0847   71.7559  218.4389 H   0  0  0  0  0  0  0  0  0  0  0  0
  139.2938   73.3158  218.9674 H   0  0  0  0  0  0  0  0  0  0  0  0
  143.5486   71.4793  220.0766 H   0  0  0  0  0  0  0  0  0  0  0  0
  143.7488   71.9430  218.4155 H   0  0  0  0  0  0  0  0  0  0  0  0
  145.5393   73.3726  219.0645 H   0  0  0  0  0  0  0  0  0  0  0  0
  145.2380   71.7120  221.0110 H   0  0  0  0  0  0  0  0  0  0  0  0
  144.7440   75.0732  221.0894 H   0  0  0  0  0  0  0  0  0  0  0  0
  144.1030   75.3630  219.5240 H   0  0  0  0  0  0  0  0  0  0  0  0
  142.8702   73.4690  221.7553 H   0  0  0  0  0  0  0  0  0  0  0  0
  142.3652   75.9021  221.5333 H   0  0  0  0  0  0  0  0  0  0  0  0
  141.3422   75.2127  220.1193 H   0  0  0  0  0  0  0  0  0  0  0  0
  139.2988   75.5377  220.8870 H   0  0  0  0  0  0  0  0  0  0  0  0
  139.0050   74.9773  222.6262 H   0  0  0  0  0  0  0  0  0  0  0  0
  137.6852   77.3222  222.4173 H   0  0  0  0  0  0  0  0  0  0  0  0
  137.9420   79.6119  223.2484 H   0  0  0  0  0  0  0  0  0  0  0  0
  140.1914   80.5577  223.7597 H   0  0  0  0  0  0  0  0  0  0  0  0
  142.1808   79.1035  223.3982 H   0  0  0  0  0  0  0  0  0  0  0  0
  141.9403   76.8100  222.5674 H   0  0  0  0  0  0  0  0  0  0  0  0
  138.4026   68.6706  221.5881 H   0  0  0  0  0  0  0  0  0  0  0  0
  138.3342   67.8391  223.9252 H   0  0  0  0  0  0  0  0  0  0  0  0
  138.9019   68.1118  226.2271 H   0  0  0  0  0  0  0  0  0  0  0  0
  141.1581   71.5819  227.4585 H   0  0  0  0  0  0  0  0  0  0  0  0
  141.2206   72.4040  225.0925 H   0  0  0  0  0  0  0  0  0  0  0  0
  1  2  2  0
  2  3  1  0
  3  4  1  0
  4  5  1  0
  5  6  2  0
  5  7  1  0
  7  8  1  0
  8  9  1  0
  9 10  1  0
  9 11  1  0
 11 12  1  0
 12 13  1  0
 13 14  1  0
 14 15  1  0
 15 16  1  0
 16 17  2  0
 17 18  1  0
 18 19  2  0
 19 20  1  0
 20 21  2  0
  2 22  1  0
 22 23  2  0
 23 24  1  0
 24 25  2  0
 25 26  1  0
 26 27  2  0
 27 28  1  0
 27 29  1  0
 29 30  2  0
 30 31  1  0
 31 32  2  0
 12  7  1  0
 21 16  1  0
 32 22  1  0
 31 25  1  0
  3 33  1  0
  4 34  1  0
  4 35  1  0
  8 36  1  0
  8 37  1  0
  9 38  1  6
 10 39  1  0
 11 40  1  0
 11 41  1  0
 12 42  1  1
 13 43  1  0
 13 44  1  0
 15 45  1  0
 15 46  1  0
 17 47  1  0
 18 48  1  0
 19 49  1  0
 20 50  1  0
 21 51  1  0
 23 52  1  0
 24 53  1  0
 26 54  1  0
 29 55  1  0
 30 56  1  0
M  END
>  <smiles>  (43) 
O=C(NCC(=O)N1C[C@H](O)C[C@H]1COCc1ccccc1)c1ccc2cc(Cl)ccc2n1

>  <score_type>  (43) 
oracle

>  <origin>  (43) 
autodockgpu

>  <m_score__min__energy>  (43) 
-8.9399999999999995

>  <m_primary>  (43) 
energy

>  <rmsd>  (43) 
3.208197417788408

>  <m_score__min__rmsd>  (43) 
3.208197417788408

>  <meeko>  (43) 
{"free_energy": -7.02, "intermolecular_energy": -9.71, "internal_energy": -2.58, "cluster_size": 16, "cluster_id": 1, "rank_in_cluster": 15}

>  <energy>  (43) 
-6.41

>  <cluster_rmsd>  (43) 
1.94

>  <cluster>  (43) 
4

$$$$

     RDKit          3D

 56 59  0  0  0  0  0  0  0  0999 V2000
  136.4590   74.3770  221.3520 O   0  0  0  0  0  0  0  0  0  0  0  0
  137.5620   74.5080  221.9490 C   0  0  0  0  0  0  0  0  0  0  0  0
  138.2980   73.3520  222.3410 N   0  0  0  0  0  0  0  0  0  0  0  0
  137.7570   72.0680  222.0410 C   0  0  0  0  0  0  0  0  0  0  0  0
  138.3830   70.9720  222.8070 C   0  0  0  0  0  0  0  0  0  0  0  0
  139.2760   71.2800  223.6350 O   0  0  0  0  0  0  0  0  0  0  0  0
  137.9470   69.6410  222.5680 N   0  0  0  0  0  0  0  0  0  0  0  0
  137.3520   69.1100  221.3280 C   0  0  0  0  0  0  0  0  0  0  0  0
  137.9820   67.7340  221.2780 C   0  0  2  0  0  0  0  0  0  0  0  0
  136.9420   66.8070  221.4170 O   0  0  0  0  0  0  0  0  0  0  0  0
  138.8290   67.5990  222.5440 C   0  0  0  0  0  0  0  0  0  0  0  0
  137.9710   68.4860  223.4580 C   0  0  1  0  0  0  0  0  0  0  0  0
  138.6080   68.8090  224.7360 C   0  0  0  0  0  0  0  0  0  0  0  0
  139.2070   67.8380  225.4420 O   0  0  0  0  0  0  0  0  0  0  0  0
  139.9120   68.0940  226.5570 C   0  0  0  0  0  0  0  0  0  0  0  0
  140.3430   69.5010  226.7600 C   0  0  0  0  0  0  0  0  0  0  0  0
  141.1090   70.2010  225.8520 C   0  0  0  0  0  0  0  0  0  0  0  0
  141.4880   71.5060  226.0790 C   0  0  0  0  0  0  0  0  0  0  0  0
  141.1210   72.1810  227.2280 C   0  0  0  0  0  0  0  0  0  0  0  0
  140.3540   71.4890  228.1420 C   0  0  0  0  0  0  0  0  0  0  0  0
  139.9700   70.1850  227.9240 C   0  0  0  0  0  0  0  0  0  0  0  0
  138.1130   75.8400  222.2550 C   0  0  0  0  0  0  0  0  0  0  0  0
  137.2170   76.8970  222.3920 C   0  0  0  0  0  0  0  0  0  0  0  0
  137.7080   78.1420  222.6760 C   0  0  0  0  0  0  0  0  0  0  0  0
  139.0660   78.3260  222.8190 C   0  0  0  0  0  0  0  0  0  0  0  0
  139.5500   79.5710  223.1030 C   0  0  0  0  0  0  0  0  0  0  0  0
  140.9270   79.7110  223.2400 C   0  0  0  0  0  0  0  0  0  0  0  0
  141.6130   81.2750  223.6020 Cl  0  0  0  0  0  0  0  0  0  0  0  0
  141.7890   78.6470  223.0980 C   0  0  0  0  0  0  0  0  0  0  0  0
  141.2930   77.3880  222.8120 C   0  0  0  0  0  0  0  0  0  0  0  0
  139.9260   77.2620  222.6790 C   0  0  0  0  0  0  0  0  0  0  0  0
  139.4420   76.0370  222.3990 N   0  0  0  0  0  0  0  0  0  0  0  0
  139.2080   73.5140  222.8350 H   0  0  0  0  0  0  0  0  0  0  0  0
  136.6809   72.0816  222.2687 H   0  0  0  0  0  0  0  0  0  0  0  0
  137.9556   71.8737  220.9767 H   0  0  0  0  0  0  0  0  0  0  0  0
  136.2558   69.0511  221.3978 H   0  0  0  0  0  0  0  0  0  0  0  0
  137.5332   69.7267  220.4353 H   0  0  0  0  0  0  0  0  0  0  0  0
  138.5627   67.5820  220.3562 H   0  0  0  0  0  0  0  0  0  0  0  0
  136.3170   67.0830  222.1170 H   0  0  0  0  0  0  0  0  0  0  0  0
  138.8845   66.5602  222.9014 H   0  0  0  0  0  0  0  0  0  0  0  0
  139.8893   67.8770  222.4520 H   0  0  0  0  0  0  0  0  0  0  0  0
  137.0113   68.0589  223.7845 H   0  0  0  0  0  0  0  0  0  0  0  0
  139.3733   69.5712  224.5279 H   0  0  0  0  0  0  0  0  0  0  0  0
  137.7646   69.1089  225.3753 H   0  0  0  0  0  0  0  0  0  0  0  0
  139.2909   67.8071  227.4184 H   0  0  0  0  0  0  0  0  0  0  0  0
  140.8424   67.5167  226.4522 H   0  0  0  0  0  0  0  0  0  0  0  0
  141.4256   69.7049  224.9227 H   0  0  0  0  0  0  0  0  0  0  0  0
  142.0991   72.0246  225.3256 H   0  0  0  0  0  0  0  0  0  0  0  0
  141.4267   73.2227  227.4054 H   0  0  0  0  0  0  0  0  0  0  0  0
  140.0411   71.9919  229.0689 H   0  0  0  0  0  0  0  0  0  0  0  0
  139.3580   69.6700  228.6791 H   0  0  0  0  0  0  0  0  0  0  0  0
  136.1355   76.7342  222.2742 H   0  0  0  0  0  0  0  0  0  0  0  0
  137.0208   78.9934  222.7898 H   0  0  0  0  0  0  0  0  0  0  0  0
  138.8753   80.4319  223.2192 H   0  0  0  0  0  0  0  0  0  0  0  0
  142.8726   78.7982  223.2121 H   0  0  0  0  0  0  0  0  0  0  0  0
  141.9616   76.5223  222.6953 H   0  0  0  0  0  0  0  0  0  0  0  0
  1  2  2  0
  2  3  1  0
  3  4  1  0
  4  5  1  0
  5  6  2  0
  5  7  1  0
  7  8  1  0
  8  9  1  0
  9 10  1  0
  9 11  1  0
 11 12  1  0
 12 13  1  0
 13 14  1  0
 14 15  1  0
 15 16  1  0
 16 17  2  0
 17 18  1  0
 18 19  2  0
 19 20  1  0
 20 21  2  0
  2 22  1  0
 22 23  2  0
 23 24  1  0
 24 25  2  0
 25 26  1  0
 26 27  2  0
 27 28  1  0
 27 29  1  0
 29 30  2  0
 30 31  1  0
 31 32  2  0
 12  7  1  0
 21 16  1  0
 32 22  1  0
 31 25  1  0
  3 33  1  0
  4 34  1  0
  4 35  1  0
  8 36  1  0
  8 37  1  0
  9 38  1  6
 10 39  1  0
 11 40  1  0
 11 41  1  0
 12 42  1  1
 13 43  1  0
 13 44  1  0
 15 45  1  0
 15 46  1  0
 17 47  1  0
 18 48  1  0
 19 49  1  0
 20 50  1  0
 21 51  1  0
 23 52  1  0
 24 53  1  0
 26 54  1  0
 29 55  1  0
 30 56  1  0
M  END
>  <smiles>  (44) 
O=C(NCC(=O)N1C[C@H](O)C[C@H]1COCc1ccccc1)c1ccc2cc(Cl)ccc2n1

>  <score_type>  (44) 
oracle

>  <origin>  (44) 
autodockgpu

>  <m_score__min__energy>  (44) 
-8.9399999999999995

>  <m_primary>  (44) 
energy

>  <rmsd>  (44) 
8.108312513140994

>  <m_score__min__rmsd>  (44) 
8.108312513140994

>  <meeko>  (44) 
{"free_energy": -8.37, "intermolecular_energy": -11.06, "internal_energy": -2.01, "cluster_size": 12, "cluster_id": 3, "rank_in_cluster": 4}

>  <energy>  (44) 
-7.56

>  <cluster_rmsd>  (44) 
0.0

>  <cluster>  (44) 
5

$$$$

     RDKit          3D

 56 59  0  0  0  0  0  0  0  0999 V2000
  138.1780   71.3510  220.7480 O   0  0  0  0  0  0  0  0  0  0  0  0
  138.5890   71.9040  221.8040 C   0  0  0  0  0  0  0  0  0  0  0  0
  138.7180   73.3230  221.8570 N   0  0  0  0  0  0  0  0  0  0  0  0
  138.3740   74.0810  220.6990 C   0  0  0  0  0  0  0  0  0  0  0  0
  139.4950   74.2570  219.7550 C   0  0  0  0  0  0  0  0  0  0  0  0
  139.2840   74.9460  218.7270 O   0  0  0  0  0  0  0  0  0  0  0  0
  140.7400   73.6430  220.0580 N   0  0  0  0  0  0  0  0  0  0  0  0
  141.2750   72.3920  219.4910 C   0  0  0  0  0  0  0  0  0  0  0  0
  142.7420   72.7470  219.3570 C   0  0  2  0  0  0  0  0  0  0  0  0
  143.4430   71.9020  220.2250 O   0  0  0  0  0  0  0  0  0  0  0  0
  142.9020   74.1550  219.9300 C   0  0  0  0  0  0  0  0  0  0  0  0
  141.7840   74.0750  220.9790 C   0  0  1  0  0  0  0  0  0  0  0  0
  141.4560   75.3630  221.5940 C   0  0  0  0  0  0  0  0  0  0  0  0
  140.3010   75.5040  222.2620 O   0  0  0  0  0  0  0  0  0  0  0  0
  139.7980   76.7090  222.5760 C   0  0  0  0  0  0  0  0  0  0  0  0
  140.7290   77.8620  222.4770 C   0  0  0  0  0  0  0  0  0  0  0  0
  141.4620   78.3420  223.5420 C   0  0  0  0  0  0  0  0  0  0  0  0
  142.3140   79.4160  223.4090 C   0  0  0  0  0  0  0  0  0  0  0  0
  142.4800   80.0690  222.2010 C   0  0  0  0  0  0  0  0  0  0  0  0
  141.7510   79.5950  221.1300 C   0  0  0  0  0  0  0  0  0  0  0  0
  140.8970   78.5230  221.2530 C   0  0  0  0  0  0  0  0  0  0  0  0
  138.9430   71.1130  222.9950 C   0  0  0  0  0  0  0  0  0  0  0  0
  138.5000   69.7940  223.0520 C   0  0  0  0  0  0  0  0  0  0  0  0
  138.8180   69.0410  224.1500 C   0  0  0  0  0  0  0  0  0  0  0  0
  139.5610   69.5970  225.1680 C   0  0  0  0  0  0  0  0  0  0  0  0
  139.8760   68.8400  226.2610 C   0  0  0  0  0  0  0  0  0  0  0  0
  140.6280   69.4400  227.2650 C   0  0  0  0  0  0  0  0  0  0  0  0
  141.0650   68.5320  228.6900 Cl  0  0  0  0  0  0  0  0  0  0  0  0
  141.0510   70.7480  227.1810 C   0  0  0  0  0  0  0  0  0  0  0  0
  140.7320   71.5090  226.0710 C   0  0  0  0  0  0  0  0  0  0  0  0
  139.9850   70.9030  225.0830 C   0  0  0  0  0  0  0  0  0  0  0  0
  139.6720   71.6420  224.0020 N   0  0  0  0  0  0  0  0  0  0  0  0
  139.0640   73.7340  222.7560 H   0  0  0  0  0  0  0  0  0  0  0  0
  137.5559   73.5646  220.1754 H   0  0  0  0  0  0  0  0  0  0  0  0
  138.0817   75.0837  221.0442 H   0  0  0  0  0  0  0  0  0  0  0  0
  141.1247   71.5416  220.1724 H   0  0  0  0  0  0  0  0  0  0  0  0
  140.7952   72.0746  218.5534 H   0  0  0  0  0  0  0  0  0  0  0  0
  143.0902   72.6672  218.3166 H   0  0  0  0  0  0  0  0  0  0  0  0
  142.8330   71.3060  220.7050 H   0  0  0  0  0  0  0  0  0  0  0  0
  143.8915   74.3119  220.3842 H   0  0  0  0  0  0  0  0  0  0  0  0
  142.8355   74.9840  219.2100 H   0  0  0  0  0  0  0  0  0  0  0  0
  141.9925   73.4500  221.8598 H   0  0  0  0  0  0  0  0  0  0  0  0
  142.2650   75.5937  222.3027 H   0  0  0  0  0  0  0  0  0  0  0  0
  141.3384   76.0366  220.7324 H   0  0  0  0  0  0  0  0  0  0  0  0
  138.9516   76.9040  221.9011 H   0  0  0  0  0  0  0  0  0  0  0  0
  139.5280   76.6434  223.6403 H   0  0  0  0  0  0  0  0  0  0  0  0
  141.3637   77.8545  224.5232 H   0  0  0  0  0  0  0  0  0  0  0  0
  142.8777   79.7639  224.2872 H   0  0  0  0  0  0  0  0  0  0  0  0
  143.1616   80.9264  222.0991 H   0  0  0  0  0  0  0  0  0  0  0  0
  141.8552   80.0870  220.1517 H   0  0  0  0  0  0  0  0  0  0  0  0
  140.3349   78.1780  220.3727 H   0  0  0  0  0  0  0  0  0  0  0  0
  137.9063   69.3657  222.2310 H   0  0  0  0  0  0  0  0  0  0  0  0
  138.4815   67.9960  224.2192 H   0  0  0  0  0  0  0  0  0  0  0  0
  139.5466   67.7937  226.3437 H   0  0  0  0  0  0  0  0  0  0  0  0
  141.6429   71.1877  227.9972 H   0  0  0  0  0  0  0  0  0  0  0  0
  141.0607   72.5548  225.9801 H   0  0  0  0  0  0  0  0  0  0  0  0
  1  2  2  0
  2  3  1  0
  3  4  1  0
  4  5  1  0
  5  6  2  0
  5  7  1  0
  7  8  1  0
  8  9  1  0
  9 10  1  0
  9 11  1  0
 11 12  1  0
 12 13  1  0
 13 14  1  0
 14 15  1  0
 15 16  1  0
 16 17  2  0
 17 18  1  0
 18 19  2  0
 19 20  1  0
 20 21  2  0
  2 22  1  0
 22 23  2  0
 23 24  1  0
 24 25  2  0
 25 26  1  0
 26 27  2  0
 27 28  1  0
 27 29  1  0
 29 30  2  0
 30 31  1  0
 31 32  2  0
 12  7  1  0
 21 16  1  0
 32 22  1  0
 31 25  1  0
  3 33  1  0
  4 34  1  0
  4 35  1  0
  8 36  1  0
  8 37  1  0
  9 38  1  6
 10 39  1  0
 11 40  1  0
 11 41  1  0
 12 42  1  1
 13 43  1  0
 13 44  1  0
 15 45  1  0
 15 46  1  0
 17 47  1  0
 18 48  1  0
 19 49  1  0
 20 50  1  0
 21 51  1  0
 23 52  1  0
 24 53  1  0
 26 54  1  0
 29 55  1  0
 30 56  1  0
M  END
>  <smiles>  (45) 
O=C(NCC(=O)N1C[C@H](O)C[C@H]1COCc1ccccc1)c1ccc2cc(Cl)ccc2n1

>  <score_type>  (45) 
oracle

>  <origin>  (45) 
autodockgpu

>  <m_score__min__energy>  (45) 
-8.9399999999999995

>  <m_primary>  (45) 
energy

>  <rmsd>  (45) 
2.307725022800928

>  <m_score__min__rmsd>  (45) 
2.307725022800928

>  <meeko>  (45) 
{"free_energy": -7.39, "intermolecular_energy": -10.08, "internal_energy": -2.8, "cluster_size": 16, "cluster_id": 1, "rank_in_cluster": 14}

>  <energy>  (45) 
-7.21

>  <cluster_rmsd>  (45) 
0.0

>  <cluster>  (45) 
6

$$$$

     RDKit          3D

 56 59  0  0  0  0  0  0  0  0999 V2000
  134.8060   68.3530  225.4080 O   0  0  0  0  0  0  0  0  0  0  0  0
  134.5690   69.3710  224.7030 C   0  0  0  0  0  0  0  0  0  0  0  0
  134.7400   69.3090  223.2890 N   0  0  0  0  0  0  0  0  0  0  0  0
  135.1790   68.0820  222.7100 C   0  0  0  0  0  0  0  0  0  0  0  0
  136.5810   68.1170  222.2490 C   0  0  0  0  0  0  0  0  0  0  0  0
  137.0620   67.0570  221.7770 O   0  0  0  0  0  0  0  0  0  0  0  0
  137.3030   69.3350  222.3610 N   0  0  0  0  0  0  0  0  0  0  0  0
  136.9300   70.6440  221.7960 C   0  0  0  0  0  0  0  0  0  0  0  0
  137.3660   71.5700  222.9130 C   0  0  2  0  0  0  0  0  0  0  0  0
  138.4010   72.3610  222.4020 O   0  0  0  0  0  0  0  0  0  0  0  0
  138.0100   70.6860  223.9820 C   0  0  0  0  0  0  0  0  0  0  0  0
  138.5630   69.6040  223.0440 C   0  0  1  0  0  0  0  0  0  0  0  0
  139.0590   68.4150  223.7400 C   0  0  0  0  0  0  0  0  0  0  0  0
  138.7110   68.2010  225.0180 O   0  0  0  0  0  0  0  0  0  0  0  0
  139.6150   68.1630  226.0100 C   0  0  0  0  0  0  0  0  0  0  0  0
  140.1120   69.4730  226.5040 C   0  0  0  0  0  0  0  0  0  0  0  0
  140.9350   70.3010  225.7690 C   0  0  0  0  0  0  0  0  0  0  0  0
  141.3750   71.5080  226.2650 C   0  0  0  0  0  0  0  0  0  0  0  0
  141.0160   71.9540  227.5240 C   0  0  0  0  0  0  0  0  0  0  0  0
  140.1930   71.1320  228.2660 C   0  0  0  0  0  0  0  0  0  0  0  0
  139.7470   69.9240  227.7790 C   0  0  0  0  0  0  0  0  0  0  0  0
  134.1160   70.6350  225.3100 C   0  0  0  0  0  0  0  0  0  0  0  0
  133.2280   70.5590  226.3790 C   0  0  0  0  0  0  0  0  0  0  0  0
  132.7950   71.7210  226.9580 C   0  0  0  0  0  0  0  0  0  0  0  0
  133.2400   72.9320  226.4760 C   0  0  0  0  0  0  0  0  0  0  0  0
  132.8050   74.0890  227.0570 C   0  0  0  0  0  0  0  0  0  0  0  0
  133.2800   75.2890  226.5400 C   0  0  0  0  0  0  0  0  0  0  0  0
  132.7640   76.8050  227.2350 Cl  0  0  0  0  0  0  0  0  0  0  0  0
  134.1580   75.3330  225.4800 C   0  0  0  0  0  0  0  0  0  0  0  0
  134.5970   74.1590  224.8960 C   0  0  0  0  0  0  0  0  0  0  0  0
  134.1180   72.9750  225.4180 C   0  0  0  0  0  0  0  0  0  0  0  0
  134.5440   71.8310  224.8500 N   0  0  0  0  0  0  0  0  0  0  0  0
  134.5310   70.1810  222.7470 H   0  0  0  0  0  0  0  0  0  0  0  0
  135.0799   67.2864  223.4632 H   0  0  0  0  0  0  0  0  0  0  0  0
  134.5518   67.8991  221.8251 H   0  0  0  0  0  0  0  0  0  0  0  0
  137.4736   70.8517  220.8625 H   0  0  0  0  0  0  0  0  0  0  0  0
  135.8697   70.7343  221.5173 H   0  0  0  0  0  0  0  0  0  0  0  0
  136.5284   72.1687  223.3002 H   0  0  0  0  0  0  0  0  0  0  0  0
  138.2580   72.5590  221.4550 H   0  0  0  0  0  0  0  0  0  0  0  0
  138.8058   71.2084  224.5332 H   0  0  0  0  0  0  0  0  0  0  0  0
  137.3487   70.3386  224.7894 H   0  0  0  0  0  0  0  0  0  0  0  0
  139.4339   69.8908  222.4363 H   0  0  0  0  0  0  0  0  0  0  0  0
  138.7159   67.5421  223.1652 H   0  0  0  0  0  0  0  0  0  0  0  0
  140.1447   68.5832  223.7941 H   0  0  0  0  0  0  0  0  0  0  0  0
  139.1562   67.6373  226.8604 H   0  0  0  0  0  0  0  0  0  0  0  0
  140.4950   67.6598  225.5830 H   0  0  0  0  0  0  0  0  0  0  0  0
  141.2476   69.9893  224.7615 H   0  0  0  0  0  0  0  0  0  0  0  0
  142.0303   72.1349  225.6425 H   0  0  0  0  0  0  0  0  0  0  0  0
  141.3701   72.9191  227.9155 H   0  0  0  0  0  0  0  0  0  0  0  0
  139.8851   71.4502  229.2730 H   0  0  0  0  0  0  0  0  0  0  0  0
  139.0907   69.3003  228.4038 H   0  0  0  0  0  0  0  0  0  0  0  0
  132.8809   69.5838  226.7513 H   0  0  0  0  0  0  0  0  0  0  0  0
  132.0942   71.6879  227.8052 H   0  0  0  0  0  0  0  0  0  0  0  0
  132.1035   74.0720  227.9042 H   0  0  0  0  0  0  0  0  0  0  0  0
  134.5102   76.3024  225.0977 H   0  0  0  0  0  0  0  0  0  0  0  0
  135.2996   74.1686  224.0496 H   0  0  0  0  0  0  0  0  0  0  0  0
  1  2  2  0
  2  3  1  0
  3  4  1  0
  4  5  1  0
  5  6  2  0
  5  7  1  0
  7  8  1  0
  8  9  1  0
  9 10  1  0
  9 11  1  0
 11 12  1  0
 12 13  1  0
 13 14  1  0
 14 15  1  0
 15 16  1  0
 16 17  2  0
 17 18  1  0
 18 19  2  0
 19 20  1  0
 20 21  2  0
  2 22  1  0
 22 23  2  0
 23 24  1  0
 24 25  2  0
 25 26  1  0
 26 27  2  0
 27 28  1  0
 27 29  1  0
 29 30  2  0
 30 31  1  0
 31 32  2  0
 12  7  1  0
 21 16  1  0
 32 22  1  0
 31 25  1  0
  3 33  1  0
  4 34  1  0
  4 35  1  0
  8 36  1  0
  8 37  1  0
  9 38  1  1
 10 39  1  0
 11 40  1  0
 11 41  1  0
 12 42  1  6
 13 43  1  0
 13 44  1  0
 15 45  1  0
 15 46  1  0
 17 47  1  0
 18 48  1  0
 19 49  1  0
 20 50  1  0
 21 51  1  0
 23 52  1  0
 24 53  1  0
 26 54  1  0
 29 55  1  0
 30 56  1  0
M  END
>  <smiles>  (46) 
O=C(NCC(=O)N1C[C@H](O)C[C@H]1COCc1ccccc1)c1ccc2cc(Cl)ccc2n1

>  <score_type>  (46) 
oracle

>  <origin>  (46) 
autodockgpu

>  <m_score__min__energy>  (46) 
-8.9399999999999995

>  <m_primary>  (46) 
energy

>  <rmsd>  (46) 
7.5714309583240205

>  <m_score__min__rmsd>  (46) 
7.5714309583240205

>  <meeko>  (46) 
{"free_energy": -7.4, "intermolecular_energy": -10.09, "internal_energy": -2.43, "cluster_size": 6, "cluster_id": 2, "rank_in_cluster": 5}

>  <energy>  (46) 
-6.95

>  <cluster_rmsd>  (46) 
0.0

>  <cluster>  (46) 
7

$$$$

     RDKit          3D

 56 59  0  0  0  0  0  0  0  0999 V2000
  140.8820   72.1660  220.5130 O   0  0  0  0  0  0  0  0  0  0  0  0
  140.4890   73.0240  221.3490 C   0  0  0  0  0  0  0  0  0  0  0  0
  139.7060   72.6160  222.4680 N   0  0  0  0  0  0  0  0  0  0  0  0
  139.3880   71.2340  222.6070 C   0  0  0  0  0  0  0  0  0  0  0  0
  138.6360   70.9230  223.8400 C   0  0  0  0  0  0  0  0  0  0  0  0
  138.9670   71.5320  224.8880 O   0  0  0  0  0  0  0  0  0  0  0  0
  137.5910   69.9640  223.7750 N   0  0  0  0  0  0  0  0  0  0  0  0
  136.1710   70.2170  223.4680 C   0  0  0  0  0  0  0  0  0  0  0  0
  135.8410   68.9990  222.6300 C   0  0  2  0  0  0  0  0  0  0  0  0
  134.8930   68.2600  223.3460 O   0  0  0  0  0  0  0  0  0  0  0  0
  137.1040   68.1370  222.6010 C   0  0  0  0  0  0  0  0  0  0  0  0
  137.6430   68.5230  223.9860 C   0  0  1  0  0  0  0  0  0  0  0  0
  139.0130   68.0680  224.2350 C   0  0  0  0  0  0  0  0  0  0  0  0
  139.4350   67.8940  225.4960 O   0  0  0  0  0  0  0  0  0  0  0  0
  140.6290   68.3380  225.9200 C   0  0  0  0  0  0  0  0  0  0  0  0
  140.6380   69.6470  226.6230 C   0  0  0  0  0  0  0  0  0  0  0  0
  139.9190   69.8990  227.7720 C   0  0  0  0  0  0  0  0  0  0  0  0
  139.9530   71.1290  228.3920 C   0  0  0  0  0  0  0  0  0  0  0  0
  140.7100   72.1740  227.8960 C   0  0  0  0  0  0  0  0  0  0  0  0
  141.4340   71.9310  226.7470 C   0  0  0  0  0  0  0  0  0  0  0  0
  141.4060   70.7050  226.1200 C   0  0  0  0  0  0  0  0  0  0  0  0
  140.8230   74.4510  221.1960 C   0  0  0  0  0  0  0  0  0  0  0  0
  141.7430   74.8000  220.2120 C   0  0  0  0  0  0  0  0  0  0  0  0
  142.0670   76.1200  220.0530 C   0  0  0  0  0  0  0  0  0  0  0  0
  141.4830   77.0690  220.8630 C   0  0  0  0  0  0  0  0  0  0  0  0
  141.8100   78.3860  220.7000 C   0  0  0  0  0  0  0  0  0  0  0  0
  141.1970   79.3110  221.5380 C   0  0  0  0  0  0  0  0  0  0  0  0
  141.5690   81.0090  221.3840 Cl  0  0  0  0  0  0  0  0  0  0  0  0
  140.2900   78.9350  222.5030 C   0  0  0  0  0  0  0  0  0  0  0  0
  139.9610   77.6010  222.6640 C   0  0  0  0  0  0  0  0  0  0  0  0
  140.5770   76.6940  221.8270 C   0  0  0  0  0  0  0  0  0  0  0  0
  140.2580   75.3950  221.9820 N   0  0  0  0  0  0  0  0  0  0  0  0
  139.4030   73.3670  223.1340 H   0  0  0  0  0  0  0  0  0  0  0  0
  138.7808   70.9279  221.7424 H   0  0  0  0  0  0  0  0  0  0  0  0
  140.3407   70.6870  222.6627 H   0  0  0  0  0  0  0  0  0  0  0  0
  135.5601   70.2573  224.3819 H   0  0  0  0  0  0  0  0  0  0  0  0
  135.9767   71.1786  222.9705 H   0  0  0  0  0  0  0  0  0  0  0  0
  135.4893   69.2755  221.6251 H   0  0  0  0  0  0  0  0  0  0  0  0
  134.6900   67.4170  222.8930 H   0  0  0  0  0  0  0  0  0  0  0  0
  136.8765   67.0635  222.5246 H   0  0  0  0  0  0  0  0  0  0  0  0
  137.7841   68.2975  221.7514 H   0  0  0  0  0  0  0  0  0  0  0  0
  137.1037   68.1034  224.8480 H   0  0  0  0  0  0  0  0  0  0  0  0
  139.1259   67.1004  223.7241 H   0  0  0  0  0  0  0  0  0  0  0  0
  139.6309   68.9017  223.8701 H   0  0  0  0  0  0  0  0  0  0  0  0
  141.0398   67.5856  226.6093 H   0  0  0  0  0  0  0  0  0  0  0  0
  141.2226   68.4937  225.0071 H   0  0  0  0  0  0  0  0  0  0  0  0
  139.3024   69.0975  228.2049 H   0  0  0  0  0  0  0  0  0  0  0  0
  139.3617   71.2837  229.3066 H   0  0  0  0  0  0  0  0  0  0  0  0
  140.7340   73.1542  228.3945 H   0  0  0  0  0  0  0  0  0  0  0  0
  142.0494   72.7370  226.3207 H   0  0  0  0  0  0  0  0  0  0  0  0
  141.9987   70.5536  225.2058 H   0  0  0  0  0  0  0  0  0  0  0  0
  142.2010   74.0296  219.5742 H   0  0  0  0  0  0  0  0  0  0  0  0
  142.7907   76.4220  219.2816 H   0  0  0  0  0  0  0  0  0  0  0  0
  142.5323   78.7029  219.9333 H   0  0  0  0  0  0  0  0  0  0  0  0
  139.8261   79.6966  223.1471 H   0  0  0  0  0  0  0  0  0  0  0  0
  139.2384   77.2771  223.4275 H   0  0  0  0  0  0  0  0  0  0  0  0
  1  2  2  0
  2  3  1  0
  3  4  1  0
  4  5  1  0
  5  6  2  0
  5  7  1  0
  7  8  1  0
  8  9  1  0
  9 10  1  0
  9 11  1  0
 11 12  1  0
 12 13  1  0
 13 14  1  0
 14 15  1  0
 15 16  1  0
 16 17  2  0
 17 18  1  0
 18 19  2  0
 19 20  1  0
 20 21  2  0
  2 22  1  0
 22 23  2  0
 23 24  1  0
 24 25  2  0
 25 26  1  0
 26 27  2  0
 27 28  1  0
 27 29  1  0
 29 30  2  0
 30 31  1  0
 31 32  2  0
 12  7  1  0
 21 16  1  0
 32 22  1  0
 31 25  1  0
  3 33  1  0
  4 34  1  0
  4 35  1  0
  8 36  1  0
  8 37  1  0
  9 38  1  6
 10 39  1  0
 11 40  1  0
 11 41  1  0
 12 42  1  1
 13 43  1  0
 13 44  1  0
 15 45  1  0
 15 46  1  0
 17 47  1  0
 18 48  1  0
 19 49  1  0
 20 50  1  0
 21 51  1  0
 23 52  1  0
 24 53  1  0
 26 54  1  0
 29 55  1  0
 30 56  1  0
M  END
>  <smiles>  (47) 
O=C(NCC(=O)N1C[C@H](O)C[C@H]1COCc1ccccc1)c1ccc2cc(Cl)ccc2n1

>  <score_type>  (47) 
oracle

>  <origin>  (47) 
autodockgpu

>  <m_score__min__energy>  (47) 
-8.9399999999999995

>  <m_primary>  (47) 
energy

>  <rmsd>  (47) 
8.178377287041855

>  <m_score__min__rmsd>  (47) 
8.178377287041855

>  <meeko>  (47) 
{"free_energy": -8.34, "intermolecular_energy": -11.02, "internal_energy": -2.22, "cluster_size": 12, "cluster_id": 3, "rank_in_cluster": 5}

>  <energy>  (47) 
-6.6

>  <cluster_rmsd>  (47) 
0.0

>  <cluster>  (47) 
8

$$$$

     RDKit          3D

 56 59  0  0  0  0  0  0  0  0999 V2000
  138.4930   70.8070  221.3750 O   0  0  0  0  0  0  0  0  0  0  0  0
  138.7220   71.5980  222.3300 C   0  0  0  0  0  0  0  0  0  0  0  0
  138.3680   72.9740  222.2110 N   0  0  0  0  0  0  0  0  0  0  0  0
  137.7600   73.4180  221.0000 C   0  0  0  0  0  0  0  0  0  0  0  0
  138.7200   73.9820  220.0300 C   0  0  0  0  0  0  0  0  0  0  0  0
  138.3040   74.2060  218.8670 O   0  0  0  0  0  0  0  0  0  0  0  0
  140.0490   74.2380  220.4610 N   0  0  0  0  0  0  0  0  0  0  0  0
  141.2070   73.3320  220.3590 C   0  0  0  0  0  0  0  0  0  0  0  0
  142.3070   74.3160  220.0180 C   0  0  2  0  0  0  0  0  0  0  0  0
  143.2050   74.3060  221.0920 O   0  0  0  0  0  0  0  0  0  0  0  0
  141.6660   75.7040  220.0280 C   0  0  0  0  0  0  0  0  0  0  0  0
  140.6010   75.4280  221.0990 C   0  0  1  0  0  0  0  0  0  0  0  0
  139.5960   76.4850  221.2200 C   0  0  0  0  0  0  0  0  0  0  0  0
  139.2020   76.8900  222.4370 O   0  0  0  0  0  0  0  0  0  0  0  0
  138.9680   78.1810  222.7230 C   0  0  0  0  0  0  0  0  0  0  0  0
  140.1620   79.0330  222.9610 C   0  0  0  0  0  0  0  0  0  0  0  0
  140.0900   80.3820  223.2400 C   0  0  0  0  0  0  0  0  0  0  0  0
  141.2230   81.1370  223.4540 C   0  0  0  0  0  0  0  0  0  0  0  0
  142.4890   80.5840  223.4000 C   0  0  0  0  0  0  0  0  0  0  0  0
  142.5690   79.2350  223.1220 C   0  0  0  0  0  0  0  0  0  0  0  0
  141.4440   78.4720  222.9070 C   0  0  0  0  0  0  0  0  0  0  0  0
  139.3510   71.1310  223.5770 C   0  0  0  0  0  0  0  0  0  0  0  0
  140.3510   71.9220  224.1350 C   0  0  0  0  0  0  0  0  0  0  0  0
  140.9490   71.5050  225.2940 C   0  0  0  0  0  0  0  0  0  0  0  0
  140.5550   70.3230  225.8800 C   0  0  0  0  0  0  0  0  0  0  0  0
  141.1550   69.9120  227.0360 C   0  0  0  0  0  0  0  0  0  0  0  0
  140.7260   68.7130  227.5940 C   0  0  0  0  0  0  0  0  0  0  0  0
  141.4500   68.1290  229.0710 Cl  0  0  0  0  0  0  0  0  0  0  0  0
  139.7340   67.9510  227.0180 C   0  0  0  0  0  0  0  0  0  0  0  0
  139.1290   68.3710  225.8480 C   0  0  0  0  0  0  0  0  0  0  0  0
  139.5630   69.5620  225.3050 C   0  0  0  0  0  0  0  0  0  0  0  0
  138.9760   69.9730  224.1650 N   0  0  0  0  0  0  0  0  0  0  0  0
  138.5790   73.5910  223.0310 H   0  0  0  0  0  0  0  0  0  0  0  0
  137.2535   72.5618  220.5306 H   0  0  0  0  0  0  0  0  0  0  0  0
  137.0594   74.2230  221.2665 H   0  0  0  0  0  0  0  0  0  0  0  0
  141.4043   72.8181  221.3114 H   0  0  0  0  0  0  0  0  0  0  0  0
  141.0843   72.5156  219.6320 H   0  0  0  0  0  0  0  0  0  0  0  0
  142.7905   74.0751  219.0598 H   0  0  0  0  0  0  0  0  0  0  0  0
  143.1730   75.1500  221.5850 H   0  0  0  0  0  0  0  0  0  0  0  0
  142.3731   76.4892  220.3338 H   0  0  0  0  0  0  0  0  0  0  0  0
  141.2982   76.0771  219.0608 H   0  0  0  0  0  0  0  0  0  0  0  0
  140.9661   75.3433  222.1332 H   0  0  0  0  0  0  0  0  0  0  0  0
  139.9989   77.3691  220.7042 H   0  0  0  0  0  0  0  0  0  0  0  0
  138.6900   76.0276  220.7959 H   0  0  0  0  0  0  0  0  0  0  0  0
  138.4104   78.6146  221.8798 H   0  0  0  0  0  0  0  0  0  0  0  0
  138.4200   78.1738  223.6767 H   0  0  0  0  0  0  0  0  0  0  0  0
  139.1041   80.8670  223.2930 H   0  0  0  0  0  0  0  0  0  0  0  0
  141.1171   82.2096  223.6739 H   0  0  0  0  0  0  0  0  0  0  0  0
  143.3903   81.1911  223.5707 H   0  0  0  0  0  0  0  0  0  0  0  0
  143.5582   78.7566  223.0708 H   0  0  0  0  0  0  0  0  0  0  0  0
  141.5540   77.3996  222.6883 H   0  0  0  0  0  0  0  0  0  0  0  0
  140.6549   72.8636  223.6544 H   0  0  0  0  0  0  0  0  0  0  0  0
  141.7416   72.1123  225.7554 H   0  0  0  0  0  0  0  0  0  0  0  0
  141.9493   70.5083  227.5087 H   0  0  0  0  0  0  0  0  0  0  0  0
  139.4226   67.0071  227.4894 H   0  0  0  0  0  0  0  0  0  0  0  0
  138.3342   67.7796  225.3700 H   0  0  0  0  0  0  0  0  0  0  0  0
  1  2  2  0
  2  3  1  0
  3  4  1  0
  4  5  1  0
  5  6  2  0
  5  7  1  0
  7  8  1  0
  8  9  1  0
  9 10  1  0
  9 11  1  0
 11 12  1  0
 12 13  1  0
 13 14  1  0
 14 15  1  0
 15 16  1  0
 16 17  2  0
 17 18  1  0
 18 19  2  0
 19 20  1  0
 20 21  2  0
  2 22  1  0
 22 23  2  0
 23 24  1  0
 24 25  2  0
 25 26  1  0
 26 27  2  0
 27 28  1  0
 27 29  1  0
 29 30  2  0
 30 31  1  0
 31 32  2  0
 12  7  1  0
 21 16  1  0
 32 22  1  0
 31 25  1  0
  3 33  1  0
  4 34  1  0
  4 35  1  0
  8 36  1  0
  8 37  1  0
  9 38  1  6
 10 39  1  0
 11 40  1  0
 11 41  1  0
 12 42  1  1
 13 43  1  0
 13 44  1  0
 15 45  1  0
 15 46  1  0
 17 47  1  0
 18 48  1  0
 19 49  1  0
 20 50  1  0
 21 51  1  0
 23 52  1  0
 24 53  1  0
 26 54  1  0
 29 55  1  0
 30 56  1  0
M  END
>  <smiles>  (48) 
O=C(NCC(=O)N1C[C@H](O)C[C@H]1COCc1ccccc1)c1ccc2cc(Cl)ccc2n1

>  <score_type>  (48) 
oracle

>  <origin>  (48) 
autodockgpu

>  <m_score__min__energy>  (48) 
-8.9399999999999995

>  <m_primary>  (48) 
energy

>  <rmsd>  (48) 
2.8441963381444846

>  <m_score__min__rmsd>  (48) 
2.8441963381444846

>  <meeko>  (48) 
{"free_energy": -8.21, "intermolecular_energy": -10.9, "internal_energy": -1.7, "cluster_size": 9, "cluster_id": 4, "rank_in_cluster": 3}

>  <energy>  (48) 
-6.52

>  <cluster_rmsd>  (48) 
0.0

>  <cluster>  (48) 
9

$$$$

     RDKit          3D

 56 59  0  0  0  0  0  0  0  0999 V2000
  137.3400   73.1880  220.4310 O   0  0  0  0  0  0  0  0  0  0  0  0
  138.0900   72.9610  221.4190 C   0  0  0  0  0  0  0  0  0  0  0  0
  137.5230   72.8010  222.7170 N   0  0  0  0  0  0  0  0  0  0  0  0
  136.1080   72.9060  222.8590 C   0  0  0  0  0  0  0  0  0  0  0  0
  135.4170   71.6010  222.8480 C   0  0  0  0  0  0  0  0  0  0  0  0
  135.0940   71.1250  221.7310 O   0  0  0  0  0  0  0  0  0  0  0  0
  135.1590   70.9590  224.0890 N   0  0  0  0  0  0  0  0  0  0  0  0
  133.9410   71.0730  224.9110 C   0  0  0  0  0  0  0  0  0  0  0  0
  133.8010   69.6500  225.4100 C   0  0  2  0  0  0  0  0  0  0  0  0
  133.9720   69.6890  226.7990 O   0  0  0  0  0  0  0  0  0  0  0  0
  135.0060   68.8800  224.8670 C   0  0  0  0  0  0  0  0  0  0  0  0
  136.0030   70.0480  224.8520 C   0  0  1  0  0  0  0  0  0  0  0  0
  137.2490   69.7530  224.1440 C   0  0  0  0  0  0  0  0  0  0  0  0
  138.2510   70.6450  224.1630 O   0  0  0  0  0  0  0  0  0  0  0  0
  139.5190   70.2930  224.4320 C   0  0  0  0  0  0  0  0  0  0  0  0
  140.0650   70.7340  225.7420 C   0  0  0  0  0  0  0  0  0  0  0  0
  140.8600   71.8500  225.8980 C   0  0  0  0  0  0  0  0  0  0  0  0
  141.3470   72.2240  227.1320 C   0  0  0  0  0  0  0  0  0  0  0  0
  141.0650   71.5020  228.2760 C   0  0  0  0  0  0  0  0  0  0  0  0
  140.2690   70.3850  228.1290 C   0  0  0  0  0  0  0  0  0  0  0  0
  139.7780   70.0020  226.9010 C   0  0  0  0  0  0  0  0  0  0  0  0
  139.5510   72.8550  221.2620 C   0  0  0  0  0  0  0  0  0  0  0  0
  140.1290   71.5970  221.4030 C   0  0  0  0  0  0  0  0  0  0  0  0
  141.4850   71.4770  221.2620 C   0  0  0  0  0  0  0  0  0  0  0  0
  142.2450   72.5920  220.9870 C   0  0  0  0  0  0  0  0  0  0  0  0
  143.5980   72.4670  220.8460 C   0  0  0  0  0  0  0  0  0  0  0  0
  144.3270   73.6180  220.5680 C   0  0  0  0  0  0  0  0  0  0  0  0
  146.0600   73.5300  220.3770 Cl  0  0  0  0  0  0  0  0  0  0  0  0
  143.7270   74.8500  220.4360 C   0  0  0  0  0  0  0  0  0  0  0  0
  142.3560   74.9720  220.5770 C   0  0  0  0  0  0  0  0  0  0  0  0
  141.6450   73.8230  220.8530 C   0  0  0  0  0  0  0  0  0  0  0  0
  140.3110   73.9400  220.9920 N   0  0  0  0  0  0  0  0  0  0  0  0
  138.1870   72.6150  223.5050 H   0  0  0  0  0  0  0  0  0  0  0  0
  135.8900   73.4075  223.8135 H   0  0  0  0  0  0  0  0  0  0  0  0
  135.7372   73.4760  221.9943 H   0  0  0  0  0  0  0  0  0  0  0  0
  134.0778   71.7815  225.7412 H   0  0  0  0  0  0  0  0  0  0  0  0
  133.0617   71.4550  224.3716 H   0  0  0  0  0  0  0  0  0  0  0  0
  132.8394   69.2048  225.1149 H   0  0  0  0  0  0  0  0  0  0  0  0
  133.9520   70.6100  227.1290 H   0  0  0  0  0  0  0  0  0  0  0  0
  135.3219   68.0689  225.5396 H   0  0  0  0  0  0  0  0  0  0  0  0
  134.8577   68.3544  223.9121 H   0  0  0  0  0  0  0  0  0  0  0  0
  136.3735   70.3796  225.8332 H   0  0  0  0  0  0  0  0  0  0  0  0
  137.6448   68.8193  224.5702 H   0  0  0  0  0  0  0  0  0  0  0  0
  136.9445   69.7319  223.0872 H   0  0  0  0  0  0  0  0  0  0  0  0
  139.5754   69.1949  224.3988 H   0  0  0  0  0  0  0  0  0  0  0  0
  140.1306   70.8045  223.6742 H   0  0  0  0  0  0  0  0  0  0  0  0
  141.1117   72.4568  225.0157 H   0  0  0  0  0  0  0  0  0  0  0  0
  141.9776   73.1221  227.2083 H   0  0  0  0  0  0  0  0  0  0  0  0
  141.4571   71.8040  229.2584 H   0  0  0  0  0  0  0  0  0  0  0  0
  140.0199   69.7844  229.0163 H   0  0  0  0  0  0  0  0  0  0  0  0
  139.1478   69.1033  226.8288 H   0  0  0  0  0  0  0  0  0  0  0  0
  139.5081   70.7162  221.6235 H   0  0  0  0  0  0  0  0  0  0  0  0
  141.9661   70.4935  221.3679 H   0  0  0  0  0  0  0  0  0  0  0  0
  144.0933   71.4902  220.9488 H   0  0  0  0  0  0  0  0  0  0  0  0
  144.3382   75.7383  220.2182 H   0  0  0  0  0  0  0  0  0  0  0  0
  141.8539   75.9452  220.4732 H   0  0  0  0  0  0  0  0  0  0  0  0
  1  2  2  0
  2  3  1  0
  3  4  1  0
  4  5  1  0
  5  6  2  0
  5  7  1  0
  7  8  1  0
  8  9  1  0
  9 10  1  0
  9 11  1  0
 11 12  1  0
 12 13  1  0
 13 14  1  0
 14 15  1  0
 15 16  1  0
 16 17  2  0
 17 18  1  0
 18 19  2  0
 19 20  1  0
 20 21  2  0
  2 22  1  0
 22 23  2  0
 23 24  1  0
 24 25  2  0
 25 26  1  0
 26 27  2  0
 27 28  1  0
 27 29  1  0
 29 30  2  0
 30 31  1  0
 31 32  2  0
 12  7  1  0
 21 16  1  0
 32 22  1  0
 31 25  1  0
  3 33  1  0
  4 34  1  0
  4 35  1  0
  8 36  1  0
  8 37  1  0
  9 38  1  1
 10 39  1  0
 11 40  1  0
 11 41  1  0
 12 42  1  1
 13 43  1  0
 13 44  1  0
 15 45  1  0
 15 46  1  0
 17 47  1  0
 18 48  1  0
 19 49  1  0
 20 50  1  0
 21 51  1  0
 23 52  1  0
 24 53  1  0
 26 54  1  0
 29 55  1  0
 30 56  1  0
M  END
>  <smiles>  (49) 
O=C(NCC(=O)N1C[C@H](O)C[C@H]1COCc1ccccc1)c1ccc2cc(Cl)ccc2n1

>  <score_type>  (49) 
oracle

>  <origin>  (49) 
autodockgpu

>  <m_score__min__energy>  (49) 
-8.9399999999999995

>  <m_primary>  (49) 
energy

>  <rmsd>  (49) 
7.725150242942298

>  <m_score__min__rmsd>  (49) 
7.725150242942298

>  <meeko>  (49) 
{"free_energy": -6.95, "intermolecular_energy": -9.63, "internal_energy": -2.66, "cluster_size": 1, "cluster_id": 7, "rank_in_cluster": 1}

>  <energy>  (49) 
-6.31

>  <cluster_rmsd>  (49) 
0.95

>  <cluster>  (49) 
9

$$$$

     RDKit          3D

 56 59  0  0  0  0  0  0  0  0999 V2000
  139.4040   71.9900  220.7050 O   0  0  0  0  0  0  0  0  0  0  0  0
  139.5070   72.4360  221.8800 C   0  0  0  0  0  0  0  0  0  0  0  0
  139.4860   73.8430  222.1080 N   0  0  0  0  0  0  0  0  0  0  0  0
  139.3490   74.7120  220.9860 C   0  0  0  0  0  0  0  0  0  0  0  0
  140.3000   74.4200  219.8950 C   0  0  0  0  0  0  0  0  0  0  0  0
  139.8320   73.9440  218.8300 O   0  0  0  0  0  0  0  0  0  0  0  0
  141.6780   74.6900  220.1050 N   0  0  0  0  0  0  0  0  0  0  0  0
  142.7260   73.7230  220.4790 C   0  0  0  0  0  0  0  0  0  0  0  0
  143.8900   74.2330  219.6530 C   0  0  2  0  0  0  0  0  0  0  0  0
  144.8660   74.6690  220.5570 O   0  0  0  0  0  0  0  0  0  0  0  0
  143.3950   75.4910  218.9380 C   0  0  0  0  0  0  0  0  0  0  0  0
  142.3980   75.9540  220.0100 C   0  0  1  0  0  0  0  0  0  0  0  0
  141.5180   77.0390  219.5690 C   0  0  0  0  0  0  0  0  0  0  0  0
  140.6060   77.5380  220.4170 O   0  0  0  0  0  0  0  0  0  0  0  0
  140.8010   77.5660  221.7450 C   0  0  0  0  0  0  0  0  0  0  0  0
  141.2970   78.8450  222.3160 C   0  0  0  0  0  0  0  0  0  0  0  0
  142.0460   78.9230  223.4710 C   0  0  0  0  0  0  0  0  0  0  0  0
  142.4860   80.1300  223.9680 C   0  0  0  0  0  0  0  0  0  0  0  0
  142.1990   81.3260  223.3350 C   0  0  0  0  0  0  0  0  0  0  0  0
  141.4500   81.2570  222.1790 C   0  0  0  0  0  0  0  0  0  0  0  0
  141.0070   80.0550  221.6740 C   0  0  0  0  0  0  0  0  0  0  0  0
  139.6490   71.5300  223.0330 C   0  0  0  0  0  0  0  0  0  0  0  0
  139.1890   70.2240  222.8920 C   0  0  0  0  0  0  0  0  0  0  0  0
  139.3110   69.3660  223.9520 C   0  0  0  0  0  0  0  0  0  0  0  0
  139.8810   69.8070  225.1260 C   0  0  0  0  0  0  0  0  0  0  0  0
  140.0010   68.9460  226.1800 C   0  0  0  0  0  0  0  0  0  0  0  0
  140.5820   69.4320  227.3460 C   0  0  0  0  0  0  0  0  0  0  0  0
  140.7660   68.3860  228.7310 Cl  0  0  0  0  0  0  0  0  0  0  0  0
  141.0280   70.7300  227.4560 C   0  0  0  0  0  0  0  0  0  0  0  0
  140.9050   71.5980  226.3850 C   0  0  0  0  0  0  0  0  0  0  0  0
  140.3270   71.1030  225.2350 C   0  0  0  0  0  0  0  0  0  0  0  0
  140.2060   71.9460  224.1920 N   0  0  0  0  0  0  0  0  0  0  0  0
  139.5760   74.1640  223.1010 H   0  0  0  0  0  0  0  0  0  0  0  0
  138.3266   74.6136  220.5922 H   0  0  0  0  0  0  0  0  0  0  0  0
  139.5642   75.7316  221.3384 H   0  0  0  0  0  0  0  0  0  0  0  0
  142.9463   73.7611  221.5560 H   0  0  0  0  0  0  0  0  0  0  0  0
  142.4624   72.6712  220.2942 H   0  0  0  0  0  0  0  0  0  0  0  0
  144.2685   73.4679  218.9592 H   0  0  0  0  0  0  0  0  0  0  0  0
  145.7140   74.8440  220.1000 H   0  0  0  0  0  0  0  0  0  0  0  0
  144.2000   76.2219  218.7717 H   0  0  0  0  0  0  0  0  0  0  0  0
  142.9896   75.3478  217.9255 H   0  0  0  0  0  0  0  0  0  0  0  0
  142.8354   76.3744  220.9275 H   0  0  0  0  0  0  0  0  0  0  0  0
  142.1670   77.8751  219.2694 H   0  0  0  0  0  0  0  0  0  0  0  0
  140.9087   76.5722  218.7810 H   0  0  0  0  0  0  0  0  0  0  0  0
  139.8405   77.3344  222.2286 H   0  0  0  0  0  0  0  0  0  0  0  0
  141.5983   76.8330  221.9374 H   0  0  0  0  0  0  0  0  0  0  0  0
  142.2987   77.9976  224.0094 H   0  0  0  0  0  0  0  0  0  0  0  0
  143.0814   80.1431  224.8928 H   0  0  0  0  0  0  0  0  0  0  0  0
  142.5520   82.2879  223.7352 H   0  0  0  0  0  0  0  0  0  0  0  0
  141.2000   82.1865  221.6465 H   0  0  0  0  0  0  0  0  0  0  0  0
  140.4135   80.0452  220.7479 H   0  0  0  0  0  0  0  0  0  0  0  0
  138.7363   69.8878  221.9475 H   0  0  0  0  0  0  0  0  0  0  0  0
  138.9553   68.3286  223.8665 H   0  0  0  0  0  0  0  0  0  0  0  0
  139.6506   67.9057  226.1087 H   0  0  0  0  0  0  0  0  0  0  0  0
  141.4823   71.0773  228.3956 H   0  0  0  0  0  0  0  0  0  0  0  0
  141.2538   72.6393  226.4485 H   0  0  0  0  0  0  0  0  0  0  0  0
  1  2  2  0
  2  3  1  0
  3  4  1  0
  4  5  1  0
  5  6  2  0
  5  7  1  0
  7  8  1  0
  8  9  1  0
  9 10  1  0
  9 11  1  0
 11 12  1  0
 12 13  1  0
 13 14  1  0
 14 15  1  0
 15 16  1  0
 16 17  2  0
 17 18  1  0
 18 19  2  0
 19 20  1  0
 20 21  2  0
  2 22  1  0
 22 23  2  0
 23 24  1  0
 24 25  2  0
 25 26  1  0
 26 27  2  0
 27 28  1  0
 27 29  1  0
 29 30  2  0
 30 31  1  0
 31 32  2  0
 12  7  1  0
 21 16  1  0
 32 22  1  0
 31 25  1  0
  3 33  1  0
  4 34  1  0
  4 35  1  0
  8 36  1  0
  8 37  1  0
  9 38  1  6
 10 39  1  0
 11 40  1  0
 11 41  1  0
 12 42  1  1
 13 43  1  0
 13 44  1  0
 15 45  1  0
 15 46  1  0
 17 47  1  0
 18 48  1  0
 19 49  1  0
 20 50  1  0
 21 51  1  0
 23 52  1  0
 24 53  1  0
 26 54  1  0
 29 55  1  0
 30 56  1  0
M  END
>  <smiles>  (50) 
O=C(NCC(=O)N1C[C@H](O)C[C@H]1COCc1ccccc1)c1ccc2cc(Cl)ccc2n1

>  <score_type>  (50) 
oracle

>  <origin>  (50) 
autodockgpu

>  <m_score__min__energy>  (50) 
-8.9399999999999995

>  <m_primary>  (50) 
energy

>  <rmsd>  (50) 
2.38357498277591

>  <m_score__min__rmsd>  (50) 
2.38357498277591

>  <meeko>  (50) 
{"free_energy": -8.64, "intermolecular_energy": -11.32, "internal_energy": -1.77, "cluster_size": 16, "cluster_id": 1, "rank_in_cluster": 2}

>  <energy>  (50) 
-5.8

>  <cluster_rmsd>  (50) 
0.0

>  <cluster>  (50) 
10

$$$$
