
     RDKit          3D

 67 70  0  0  0  0  0  0  0  0999 V2000
  138.0440   80.2360  223.7300 C   0  0  0  0  0  0  0  0  0  0  0  0
  137.7020   79.4580  222.4900 C   0  0  0  0  0  0  0  0  0  0  0  0
  138.2500   78.0730  222.5000 C   0  0  0  0  0  0  0  0  0  0  0  0
  137.5360   77.2050  223.0730 O   0  0  0  0  0  0  0  0  0  0  0  0
  139.5100   77.7510  221.8930 N   0  0  0  0  0  0  0  0  0  0  0  0
  140.5930   78.6340  222.2470 C   0  0  0  0  0  0  0  0  0  0  0  0
  141.0470   79.4640  221.2290 C   0  0  0  0  0  0  0  0  0  0  0  0
  142.0780   80.3540  221.4510 C   0  0  0  0  0  0  0  0  0  0  0  0
  142.6370   80.3870  222.7140 C   0  0  0  0  0  0  0  0  0  0  0  0
  142.1780   79.5480  223.7380 C   0  0  0  0  0  0  0  0  0  0  0  0
  141.1460   78.6660  223.4960 C   0  0  0  0  0  0  0  0  0  0  0  0
  139.6910   76.6310  221.0010 C   0  0  0  0  0  0  0  0  0  0  0  0
  138.6080   75.6130  221.0850 C   0  0  0  0  0  0  0  0  0  0  0  0
  139.0340   74.2810  220.4450 C   0  0  0  0  0  0  0  0  0  0  0  0
  140.0750   73.7550  221.3160 N   0  0  0  0  0  0  0  0  0  0  0  0
  140.0540   72.4310  221.8360 C   0  0  0  0  0  0  0  0  0  0  0  0
  141.0110   72.0570  222.5980 O   0  0  0  0  0  0  0  0  0  0  0  0
  138.9890   71.4720  221.5430 C   0  0  0  0  0  0  0  0  0  0  0  0
  137.7980   71.5640  222.4890 C   0  0  2  0  0  0  0  0  0  0  0  0
  137.5470   73.0020  222.6660 N   0  0  0  0  0  0  0  0  0  0  0  0
  138.2220   70.9590  223.8100 C   0  0  0  0  0  0  0  0  0  0  0  0
  139.1930   69.7970  223.6310 C   0  0  0  0  0  0  0  0  0  0  0  0
  139.5590   69.2670  224.9550 C   0  0  0  0  0  0  0  0  0  0  0  0
  139.4800   67.9600  225.4360 C   0  0  0  0  0  0  0  0  0  0  0  0
  139.9230   67.9250  226.7020 N   0  0  0  0  0  0  0  0  0  0  0  0
  140.2850   69.1720  227.0450 C   0  0  0  0  0  0  0  0  0  0  0  0
  140.7970   69.6670  228.2230 C   0  0  0  0  0  0  0  0  0  0  0  0
  141.0990   71.0170  228.3430 C   0  0  0  0  0  0  0  0  0  0  0  0
  140.8830   71.8800  227.2740 C   0  0  0  0  0  0  0  0  0  0  0  0
  140.3630   71.3910  226.0710 C   0  0  0  0  0  0  0  0  0  0  0  0
  140.0700   70.0380  225.9750 C   0  0  0  0  0  0  0  0  0  0  0  0
  141.1600   74.6520  221.6460 C   0  0  0  0  0  0  0  0  0  0  0  0
  141.0250   75.9890  221.0240 C   0  0  0  0  0  0  0  0  0  0  0  0
  137.7832   79.6426  224.6187 H   0  0  0  0  0  0  0  0  0  0  0  0
  139.1218   80.4559  223.7393 H   0  0  0  0  0  0  0  0  0  0  0  0
  137.4774   81.1788  223.7393 H   0  0  0  0  0  0  0  0  0  0  0  0
  136.6069   79.4007  222.4035 H   0  0  0  0  0  0  0  0  0  0  0  0
  138.1553   79.9842  221.6370 H   0  0  0  0  0  0  0  0  0  0  0  0
  140.5792   79.4109  220.2349 H   0  0  0  0  0  0  0  0  0  0  0  0
  142.4421   81.0143  220.6501 H   0  0  0  0  0  0  0  0  0  0  0  0
  143.4601   81.0870  222.9201 H   0  0  0  0  0  0  0  0  0  0  0  0
  142.6408   79.5929  224.7349 H   0  0  0  0  0  0  0  0  0  0  0  0
  140.7759   78.0024  224.2914 H   0  0  0  0  0  0  0  0  0  0  0  0
  139.6224   77.1178  220.0170 H   0  0  0  0  0  0  0  0  0  0  0  0
  138.3629   75.4387  222.1431 H   0  0  0  0  0  0  0  0  0  0  0  0
  137.7334   75.9943  220.5375 H   0  0  0  0  0  0  0  0  0  0  0  0
  138.1827   73.5859  220.3980 H   0  0  0  0  0  0  0  0  0  0  0  0
  139.3905   74.4160  219.4132 H   0  0  0  0  0  0  0  0  0  0  0  0
  138.6322   71.6530  220.5183 H   0  0  0  0  0  0  0  0  0  0  0  0
  139.4200   70.4678  221.6689 H   0  0  0  0  0  0  0  0  0  0  0  0
  136.9035   71.0442  222.1152 H   0  0  0  0  0  0  0  0  0  0  0  0
  136.9360   73.1800  223.5060 H   0  0  0  0  0  0  0  0  0  0  0  0
  138.4880   73.4310  222.8590 H   0  0  0  0  0  0  0  0  0  0  0  0
  138.7100   71.7374  224.4148 H   0  0  0  0  0  0  0  0  0  0  0  0
  137.3205   70.5700  224.3060 H   0  0  0  0  0  0  0  0  0  0  0  0
  138.7141   69.0049  223.0367 H   0  0  0  0  0  0  0  0  0  0  0  0
  140.0961   70.1457  223.1087 H   0  0  0  0  0  0  0  0  0  0  0  0
  139.1121   67.0937  224.8666 H   0  0  0  0  0  0  0  0  0  0  0  0
  139.9510   67.0420  227.2570 H   0  0  0  0  0  0  0  0  0  0  0  0
  140.9677   68.9901  229.0731 H   0  0  0  0  0  0  0  0  0  0  0  0
  141.5104   71.4051  229.2865 H   0  0  0  0  0  0  0  0  0  0  0  0
  141.1215   72.9491  227.3747 H   0  0  0  0  0  0  0  0  0  0  0  0
  140.1900   72.0648  225.2189 H   0  0  0  0  0  0  0  0  0  0  0  0
  141.1898   74.7767  222.7385 H   0  0  0  0  0  0  0  0  0  0  0  0
  142.0845   74.2026  221.2545 H   0  0  0  0  0  0  0  0  0  0  0  0
  141.7015   76.6674  221.5645 H   0  0  0  0  0  0  0  0  0  0  0  0
  141.2557   75.8144  219.9627 H   0  0  0  0  0  0  0  0  0  0  0  0
  1  2  1  0
  2  3  1  0
  3  4  2  0
  3  5  1  0
  5  6  1  0
  6  7  2  0
  7  8  1  0
  8  9  2  0
  9 10  1  0
 10 11  2  0
  5 12  1  0
 12 13  1  0
 13 14  1  0
 14 15  1  0
 15 16  1  0
 16 17  2  0
 16 18  1  0
 18 19  1  0
 19 20  1  0
 19 21  1  0
 21 22  1  0
 22 23  1  0
 23 24  2  0
 24 25  1  0
 25 26  1  0
 26 27  2  0
 27 28  1  0
 28 29  2  0
 29 30  1  0
 30 31  2  0
 15 32  1  0
 32 33  1  0
 11  6  1  0
 33 12  1  0
 31 23  1  0
 31 26  1  0
  1 34  1  0
  1 35  1  0
  1 36  1  0
  2 37  1  0
  2 38  1  0
  7 39  1  0
  8 40  1  0
  9 41  1  0
 10 42  1  0
 11 43  1  0
 12 44  1  0
 13 45  1  0
 13 46  1  0
 14 47  1  0
 14 48  1  0
 18 49  1  0
 18 50  1  0
 19 51  1  6
 20 52  1  0
 20 53  1  0
 21 54  1  0
 21 55  1  0
 22 56  1  0
 22 57  1  0
 24 58  1  0
 25 59  1  0
 27 60  1  0
 28 61  1  0
 29 62  1  0
 30 63  1  0
 32 64  1  0
 32 65  1  0
 33 66  1  0
 33 67  1  0
M  END
>  <smiles>  (1) 
CCC(=O)N(c1ccccc1)C1CCN(C(=O)CC(N)CCc2c[nH]c3ccccc23)CC1

>  <score_type>  (1) 
oracle

>  <origin>  (1) 
autodockgpu

>  <m_score__min__energy>  (1) 
-9.5700000000000003

>  <m_primary>  (1) 
energy

>  <rmsd>  (1) 
11.288885578946205

>  <m_score__min__rmsd>  (1) 
11.288885578946205

>  <meeko>  (1) 
{"free_energy": -9.47, "intermolecular_energy": -12.46, "internal_energy": -1.68, "cluster_size": 26, "cluster_id": 2, "rank_in_cluster": 3}

>  <energy>  (1) 
-9.57

>  <cluster_rmsd>  (1) 
0.0

>  <cluster>  (1) 
1

$$$$

     RDKit          3D

 67 70  0  0  0  0  0  0  0  0999 V2000
  141.0650   68.1510  228.7250 C   0  0  0  0  0  0  0  0  0  0  0  0
  141.1340   67.7140  227.2880 C   0  0  0  0  0  0  0  0  0  0  0  0
  139.8480   67.8980  226.5590 C   0  0  0  0  0  0  0  0  0  0  0  0
  139.0670   66.9070  226.5630 O   0  0  0  0  0  0  0  0  0  0  0  0
  139.5220   69.1280  225.8950 N   0  0  0  0  0  0  0  0  0  0  0  0
  140.0120   70.3150  226.5480 C   0  0  0  0  0  0  0  0  0  0  0  0
  140.9300   71.0640  225.8200 C   0  0  0  0  0  0  0  0  0  0  0  0
  141.4660   72.2240  226.3420 C   0  0  0  0  0  0  0  0  0  0  0  0
  141.0590   72.6080  227.6050 C   0  0  0  0  0  0  0  0  0  0  0  0
  140.1350   71.8510  228.3360 C   0  0  0  0  0  0  0  0  0  0  0  0
  139.6100   70.6960  227.7970 C   0  0  0  0  0  0  0  0  0  0  0  0
  138.7660   69.1830  224.6660 C   0  0  0  0  0  0  0  0  0  0  0  0
  139.5090   69.7970  223.5300 C   0  0  0  0  0  0  0  0  0  0  0  0
  138.5610   70.2040  222.3910 C   0  0  0  0  0  0  0  0  0  0  0  0
  137.7710   71.3030  222.9250 N   0  0  0  0  0  0  0  0  0  0  0  0
  137.6160   72.5470  222.2510 C   0  0  0  0  0  0  0  0  0  0  0  0
  136.9060   73.4570  222.7990 O   0  0  0  0  0  0  0  0  0  0  0  0
  138.2320   72.8380  220.9560 C   0  0  0  0  0  0  0  0  0  0  0  0
  139.4640   73.7300  221.0450 C   0  0  2  0  0  0  0  0  0  0  0  0
  139.8060   73.7860  222.4740 N   0  0  0  0  0  0  0  0  0  0  0  0
  139.0580   75.1090  220.5680 C   0  0  0  0  0  0  0  0  0  0  0  0
  139.1240   76.1500  221.6790 C   0  0  0  0  0  0  0  0  0  0  0  0
  140.3030   77.0060  221.4680 C   0  0  0  0  0  0  0  0  0  0  0  0
  141.3250   76.8850  220.5270 C   0  0  0  0  0  0  0  0  0  0  0  0
  142.2000   77.8900  220.6910 N   0  0  0  0  0  0  0  0  0  0  0  0
  141.7660   78.6500  221.7080 C   0  0  0  0  0  0  0  0  0  0  0  0
  142.2990   79.7890  222.2690 C   0  0  0  0  0  0  0  0  0  0  0  0
  141.6600   80.4100  223.3340 C   0  0  0  0  0  0  0  0  0  0  0  0
  140.4760   79.8850  223.8430 C   0  0  0  0  0  0  0  0  0  0  0  0
  139.9240   78.7290  223.2830 C   0  0  0  0  0  0  0  0  0  0  0  0
  140.5810   78.1260  222.2190 C   0  0  0  0  0  0  0  0  0  0  0  0
  137.1330   71.0820  224.2040 C   0  0  0  0  0  0  0  0  0  0  0  0
  137.3980   69.7390  224.7660 C   0  0  0  0  0  0  0  0  0  0  0  0
  141.2028   67.2785  229.3806 H   0  0  0  0  0  0  0  0  0  0  0  0
  141.8580   68.8872  228.9229 H   0  0  0  0  0  0  0  0  0  0  0  0
  140.0837   68.6070  228.9229 H   0  0  0  0  0  0  0  0  0  0  0  0
  141.9118   68.3029  226.7799 H   0  0  0  0  0  0  0  0  0  0  0  0
  141.3629   66.6381  227.2829 H   0  0  0  0  0  0  0  0  0  0  0  0
  141.2324   70.7284  224.8171 H   0  0  0  0  0  0  0  0  0  0  0  0
  142.1922   72.8220  225.7719 H   0  0  0  0  0  0  0  0  0  0  0  0
  141.4696   73.5283  228.0461 H   0  0  0  0  0  0  0  0  0  0  0  0
  139.8281   72.1781  229.3404 H   0  0  0  0  0  0  0  0  0  0  0  0
  138.8825   70.0936  228.3608 H   0  0  0  0  0  0  0  0  0  0  0  0
  138.6264   68.1148  224.4435 H   0  0  0  0  0  0  0  0  0  0  0  0
  140.0386   70.6910  223.8909 H   0  0  0  0  0  0  0  0  0  0  0  0
  140.2183   69.0526  223.1391 H   0  0  0  0  0  0  0  0  0  0  0  0
  139.1340   70.5328  221.5115 H   0  0  0  0  0  0  0  0  0  0  0  0
  137.9291   69.3654  222.0632 H   0  0  0  0  0  0  0  0  0  0  0  0
  138.5267   71.8858  220.4908 H   0  0  0  0  0  0  0  0  0  0  0  0
  137.4843   73.3844  220.3623 H   0  0  0  0  0  0  0  0  0  0  0  0
  140.3107   73.3658  220.4447 H   0  0  0  0  0  0  0  0  0  0  0  0
  138.9850   74.1130  223.0480 H   0  0  0  0  0  0  0  0  0  0  0  0
  140.0150   72.7940  222.7520 H   0  0  0  0  0  0  0  0  0  0  0  0
  139.7340   75.4153  219.7561 H   0  0  0  0  0  0  0  0  0  0  0  0
  138.0149   75.0514  220.2234 H   0  0  0  0  0  0  0  0  0  0  0  0
  138.2132   76.7665  221.6606 H   0  0  0  0  0  0  0  0  0  0  0  0
  139.2013   75.6468  222.6541 H   0  0  0  0  0  0  0  0  0  0  0  0
  141.4021   76.0911  219.7695 H   0  0  0  0  0  0  0  0  0  0  0  0
  143.0470   77.9920  220.0890 H   0  0  0  0  0  0  0  0  0  0  0  0
  143.2350   80.2087  221.8718 H   0  0  0  0  0  0  0  0  0  0  0  0
  142.0912   81.3200  223.7768 H   0  0  0  0  0  0  0  0  0  0  0  0
  139.9737   80.3802  224.6871 H   0  0  0  0  0  0  0  0  0  0  0  0
  138.9883   78.3059  223.6774 H   0  0  0  0  0  0  0  0  0  0  0  0
  137.5029   71.8367  224.9137 H   0  0  0  0  0  0  0  0  0  0  0  0
  136.0474   71.1600  224.0444 H   0  0  0  0  0  0  0  0  0  0  0  0
  137.1425   69.7795  225.8352 H   0  0  0  0  0  0  0  0  0  0  0  0
  136.7902   69.0651  224.1444 H   0  0  0  0  0  0  0  0  0  0  0  0
  1  2  1  0
  2  3  1  0
  3  4  2  0
  3  5  1  0
  5  6  1  0
  6  7  2  0
  7  8  1  0
  8  9  2  0
  9 10  1  0
 10 11  2  0
  5 12  1  0
 12 13  1  0
 13 14  1  0
 14 15  1  0
 15 16  1  0
 16 17  2  0
 16 18  1  0
 18 19  1  0
 19 20  1  0
 19 21  1  0
 21 22  1  0
 22 23  1  0
 23 24  2  0
 24 25  1  0
 25 26  1  0
 26 27  2  0
 27 28  1  0
 28 29  2  0
 29 30  1  0
 30 31  2  0
 15 32  1  0
 32 33  1  0
 11  6  1  0
 33 12  1  0
 31 23  1  0
 31 26  1  0
  1 34  1  0
  1 35  1  0
  1 36  1  0
  2 37  1  0
  2 38  1  0
  7 39  1  0
  8 40  1  0
  9 41  1  0
 10 42  1  0
 11 43  1  0
 12 44  1  0
 13 45  1  0
 13 46  1  0
 14 47  1  0
 14 48  1  0
 18 49  1  0
 18 50  1  0
 19 51  1  6
 20 52  1  0
 20 53  1  0
 21 54  1  0
 21 55  1  0
 22 56  1  0
 22 57  1  0
 24 58  1  0
 25 59  1  0
 27 60  1  0
 28 61  1  0
 29 62  1  0
 30 63  1  0
 32 64  1  0
 32 65  1  0
 33 66  1  0
 33 67  1  0
M  END
>  <smiles>  (2) 
CCC(=O)N(c1ccccc1)C1CCN(C(=O)CC(N)CCc2c[nH]c3ccccc23)CC1

>  <score_type>  (2) 
oracle

>  <origin>  (2) 
autodockgpu

>  <m_score__min__energy>  (2) 
-9.5700000000000003

>  <m_primary>  (2) 
energy

>  <rmsd>  (2) 
6.510168537644034

>  <m_score__min__rmsd>  (2) 
6.510168537644034

>  <meeko>  (2) 
{"free_energy": -9.57, "intermolecular_energy": -12.55, "internal_energy": -2.1, "cluster_size": 2, "cluster_id": 1, "rank_in_cluster": 1}

>  <energy>  (2) 
-8.93

>  <cluster_rmsd>  (2) 
1.78

>  <cluster>  (2) 
1

$$$$

     RDKit          3D

 67 70  0  0  0  0  0  0  0  0999 V2000
  136.9180   80.6280  224.7090 C   0  0  0  0  0  0  0  0  0  0  0  0
  137.9390   81.1800  223.7540 C   0  0  0  0  0  0  0  0  0  0  0  0
  137.9140   80.5120  222.4230 C   0  0  0  0  0  0  0  0  0  0  0  0
  137.0060   80.8930  221.6340 O   0  0  0  0  0  0  0  0  0  0  0  0
  138.8660   79.5000  222.0650 N   0  0  0  0  0  0  0  0  0  0  0  0
  140.2160   79.7600  222.4970 C   0  0  0  0  0  0  0  0  0  0  0  0
  140.7440   78.8410  223.3970 C   0  0  0  0  0  0  0  0  0  0  0  0
  142.0290   78.9860  223.8790 C   0  0  0  0  0  0  0  0  0  0  0  0
  142.7640   80.0680  223.4360 C   0  0  0  0  0  0  0  0  0  0  0  0
  142.2290   80.9910  222.5290 C   0  0  0  0  0  0  0  0  0  0  0  0
  140.9430   80.8310  222.0590 C   0  0  0  0  0  0  0  0  0  0  0  0
  138.5100   78.3080  221.3320 C   0  0  0  0  0  0  0  0  0  0  0  0
  137.9460   77.2240  222.1840 C   0  0  0  0  0  0  0  0  0  0  0  0
  137.9670   75.8680  221.4600 C   0  0  0  0  0  0  0  0  0  0  0  0
  139.3750   75.5200  221.3400 N   0  0  0  0  0  0  0  0  0  0  0  0
  139.9000   74.2620  221.7460 C   0  0  0  0  0  0  0  0  0  0  0  0
  141.1530   74.0470  221.6070 O   0  0  0  0  0  0  0  0  0  0  0  0
  139.0770   73.1980  222.3200 C   0  0  0  0  0  0  0  0  0  0  0  0
  139.8650   72.1730  223.1250 C   0  0  2  0  0  0  0  0  0  0  0  0
  140.8810   71.6450  222.2020 N   0  0  0  0  0  0  0  0  0  0  0  0
  138.9070   71.0650  223.5080 C   0  0  0  0  0  0  0  0  0  0  0  0
  139.5950   69.7070  223.5980 C   0  0  0  0  0  0  0  0  0  0  0  0
  139.7290   69.3290  225.0150 C   0  0  0  0  0  0  0  0  0  0  0  0
  139.4190   68.1220  225.6400 C   0  0  0  0  0  0  0  0  0  0  0  0
  139.7040   68.2130  226.9480 N   0  0  0  0  0  0  0  0  0  0  0  0
  140.1890   69.4440  227.1770 C   0  0  0  0  0  0  0  0  0  0  0  0
  140.6240   70.0350  228.3420 C   0  0  0  0  0  0  0  0  0  0  0  0
  141.0890   71.3430  228.3320 C   0  0  0  0  0  0  0  0  0  0  0  0
  141.1190   72.0670  227.1440 C   0  0  0  0  0  0  0  0  0  0  0  0
  140.6790   71.4790  225.9540 C   0  0  0  0  0  0  0  0  0  0  0  0
  140.2180   70.1700  225.9890 C   0  0  0  0  0  0  0  0  0  0  0  0
  140.2470   76.5290  220.7790 C   0  0  0  0  0  0  0  0  0  0  0  0
  139.5400   77.7760  220.4120 C   0  0  0  0  0  0  0  0  0  0  0  0
  137.2486   80.8067  225.7428 H   0  0  0  0  0  0  0  0  0  0  0  0
  135.9520   81.1267  224.5415 H   0  0  0  0  0  0  0  0  0  0  0  0
  136.8063   79.5466  224.5415 H   0  0  0  0  0  0  0  0  0  0  0  0
  137.7413   82.2526  223.6113 H   0  0  0  0  0  0  0  0  0  0  0  0
  138.9311   80.9995  224.1935 H   0  0  0  0  0  0  0  0  0  0  0  0
  140.1312   77.9897  223.7282 H   0  0  0  0  0  0  0  0  0  0  0  0
  142.4535   78.2640  224.5921 H   0  0  0  0  0  0  0  0  0  0  0  0
  143.7914   80.2077  223.8034 H   0  0  0  0  0  0  0  0  0  0  0  0
  142.8354   81.8444  222.1913 H   0  0  0  0  0  0  0  0  0  0  0  0
  140.5114   81.5498  221.3469 H   0  0  0  0  0  0  0  0  0  0  0  0
  137.7066   78.6807  220.6796 H   0  0  0  0  0  0  0  0  0  0  0  0
  138.5426   77.1465  223.1049 H   0  0  0  0  0  0  0  0  0  0  0  0
  136.9002   77.4755  222.4142 H   0  0  0  0  0  0  0  0  0  0  0  0
  137.4309   75.1086  222.0482 H   0  0  0  0  0  0  0  0  0  0  0  0
  137.4714   75.9184  220.4793 H   0  0  0  0  0  0  0  0  0  0  0  0
  138.3294   73.6581  222.9828 H   0  0  0  0  0  0  0  0  0  0  0  0
  138.6201   72.6586  221.4772 H   0  0  0  0  0  0  0  0  0  0  0  0
  140.3260   72.5924  224.0314 H   0  0  0  0  0  0  0  0  0  0  0  0
  140.6660   71.9160  221.2060 H   0  0  0  0  0  0  0  0  0  0  0  0
  141.7810   72.1190  222.4730 H   0  0  0  0  0  0  0  0  0  0  0  0
  138.4651   71.3027  224.4869 H   0  0  0  0  0  0  0  0  0  0  0  0
  138.1383   71.0003  222.7238 H   0  0  0  0  0  0  0  0  0  0  0  0
  138.9923   68.9528  223.0708 H   0  0  0  0  0  0  0  0  0  0  0  0
  140.5904   69.7638  223.1333 H   0  0  0  0  0  0  0  0  0  0  0  0
  139.0055   67.2341  225.1393 H   0  0  0  0  0  0  0  0  0  0  0  0
  139.5470   67.4190  227.6070 H   0  0  0  0  0  0  0  0  0  0  0  0
  140.6030   69.4684  229.2846 H   0  0  0  0  0  0  0  0  0  0  0  0
  141.4350   71.8088  229.2665 H   0  0  0  0  0  0  0  0  0  0  0  0
  141.4892   73.1028  227.1410 H   0  0  0  0  0  0  0  0  0  0  0  0
  140.6978   72.0422  225.0093 H   0  0  0  0  0  0  0  0  0  0  0  0
  141.0217   76.7724  221.5210 H   0  0  0  0  0  0  0  0  0  0  0  0
  140.6741   76.1128  219.8547 H   0  0  0  0  0  0  0  0  0  0  0  0
  140.3041   78.5585  220.2947 H   0  0  0  0  0  0  0  0  0  0  0  0
  138.9752   77.5056  219.5076 H   0  0  0  0  0  0  0  0  0  0  0  0
  1  2  1  0
  2  3  1  0
  3  4  2  0
  3  5  1  0
  5  6  1  0
  6  7  2  0
  7  8  1  0
  8  9  2  0
  9 10  1  0
 10 11  2  0
  5 12  1  0
 12 13  1  0
 13 14  1  0
 14 15  1  0
 15 16  1  0
 16 17  2  0
 16 18  1  0
 18 19  1  0
 19 20  1  0
 19 21  1  0
 21 22  1  0
 22 23  1  0
 23 24  2  0
 24 25  1  0
 25 26  1  0
 26 27  2  0
 27 28  1  0
 28 29  2  0
 29 30  1  0
 30 31  2  0
 15 32  1  0
 32 33  1  0
 11  6  1  0
 33 12  1  0
 31 23  1  0
 31 26  1  0
  1 34  1  0
  1 35  1  0
  1 36  1  0
  2 37  1  0
  2 38  1  0
  7 39  1  0
  8 40  1  0
  9 41  1  0
 10 42  1  0
 11 43  1  0
 12 44  1  0
 13 45  1  0
 13 46  1  0
 14 47  1  0
 14 48  1  0
 18 49  1  0
 18 50  1  0
 19 51  1  1
 20 52  1  0
 20 53  1  0
 21 54  1  0
 21 55  1  0
 22 56  1  0
 22 57  1  0
 24 58  1  0
 25 59  1  0
 27 60  1  0
 28 61  1  0
 29 62  1  0
 30 63  1  0
 32 64  1  0
 32 65  1  0
 33 66  1  0
 33 67  1  0
M  END
>  <smiles>  (3) 
CCC(=O)N(c1ccccc1)C1CCN(C(=O)CC(N)CCc2c[nH]c3ccccc23)CC1

>  <score_type>  (3) 
oracle

>  <origin>  (3) 
autodockgpu

>  <m_score__min__energy>  (3) 
-9.5700000000000003

>  <m_primary>  (3) 
energy

>  <rmsd>  (3) 
10.982664519539822

>  <m_score__min__rmsd>  (3) 
10.982664519539822

>  <meeko>  (3) 
{"free_energy": -8.39, "intermolecular_energy": -11.38, "internal_energy": -2.45, "cluster_size": 26, "cluster_id": 2, "rank_in_cluster": 17}

>  <energy>  (3) 
-9.51

>  <cluster_rmsd>  (3) 
0.0

>  <cluster>  (3) 
2

$$$$

     RDKit          3D

 67 70  0  0  0  0  0  0  0  0999 V2000
  138.0930   80.2540  223.7390 C   0  0  0  0  0  0  0  0  0  0  0  0
  137.7760   79.4870  222.4850 C   0  0  0  0  0  0  0  0  0  0  0  0
  138.3040   78.0940  222.5040 C   0  0  0  0  0  0  0  0  0  0  0  0
  137.5740   77.2380  223.0730 O   0  0  0  0  0  0  0  0  0  0  0  0
  139.5650   77.7530  221.9090 N   0  0  0  0  0  0  0  0  0  0  0  0
  140.6570   78.6220  222.2690 C   0  0  0  0  0  0  0  0  0  0  0  0
  141.1300   79.4430  221.2520 C   0  0  0  0  0  0  0  0  0  0  0  0
  142.1720   80.3190  221.4810 C   0  0  0  0  0  0  0  0  0  0  0  0
  142.7210   80.3480  222.7480 C   0  0  0  0  0  0  0  0  0  0  0  0
  142.2420   79.5190  223.7700 C   0  0  0  0  0  0  0  0  0  0  0  0
  141.2010   78.6510  223.5230 C   0  0  0  0  0  0  0  0  0  0  0  0
  139.7390   76.6280  221.0220 C   0  0  0  0  0  0  0  0  0  0  0  0
  138.6540   75.6120  221.1190 C   0  0  0  0  0  0  0  0  0  0  0  0
  139.0730   74.2760  220.4850 C   0  0  0  0  0  0  0  0  0  0  0  0
  140.1190   73.7530  221.3520 N   0  0  0  0  0  0  0  0  0  0  0  0
  140.1000   72.4320  221.8800 C   0  0  0  0  0  0  0  0  0  0  0  0
  141.0610   72.0600  222.6370 O   0  0  0  0  0  0  0  0  0  0  0  0
  139.0310   71.4730  221.6000 C   0  0  0  0  0  0  0  0  0  0  0  0
  137.8610   71.5510  222.5720 C   0  0  2  0  0  0  0  0  0  0  0  0
  137.5250   72.9790  222.6690 N   0  0  0  0  0  0  0  0  0  0  0  0
  138.3550   71.0550  223.9150 C   0  0  0  0  0  0  0  0  0  0  0  0
  139.2320   69.8150  223.7880 C   0  0  0  0  0  0  0  0  0  0  0  0
  139.6240   69.3630  225.1340 C   0  0  0  0  0  0  0  0  0  0  0  0
  139.5030   68.0990  225.7110 C   0  0  0  0  0  0  0  0  0  0  0  0
  139.9930   68.1330  226.9600 N   0  0  0  0  0  0  0  0  0  0  0  0
  140.4260   69.3820  227.1970 C   0  0  0  0  0  0  0  0  0  0  0  0
  141.0070   69.9330  228.3170 C   0  0  0  0  0  0  0  0  0  0  0  0
  141.3760   71.2710  228.3270 C   0  0  0  0  0  0  0  0  0  0  0  0
  141.1610   72.0660  227.2060 C   0  0  0  0  0  0  0  0  0  0  0  0
  140.5710   71.5190  226.0620 C   0  0  0  0  0  0  0  0  0  0  0  0
  140.2100   70.1780  226.0760 C   0  0  0  0  0  0  0  0  0  0  0  0
  141.2080   74.6500  221.6690 C   0  0  0  0  0  0  0  0  0  0  0  0
  141.0710   75.9830  221.0400 C   0  0  0  0  0  0  0  0  0  0  0  0
  137.8400   79.6417  224.6171 H   0  0  0  0  0  0  0  0  0  0  0  0
  139.1655   80.4976  223.7586 H   0  0  0  0  0  0  0  0  0  0  0  0
  137.5054   81.1837  223.7586 H   0  0  0  0  0  0  0  0  0  0  0  0
  136.6832   79.4458  222.3664 H   0  0  0  0  0  0  0  0  0  0  0  0
  138.2611   80.0108  221.6481 H   0  0  0  0  0  0  0  0  0  0  0  0
  140.6692   79.3942  220.2543 H   0  0  0  0  0  0  0  0  0  0  0  0
  142.5522   80.9718  220.6815 H   0  0  0  0  0  0  0  0  0  0  0  0
  143.5522   81.0369  222.9588 H   0  0  0  0  0  0  0  0  0  0  0  0
  142.6972   79.5609  224.7705 H   0  0  0  0  0  0  0  0  0  0  0  0
  140.8157   77.9953  224.3177 H   0  0  0  0  0  0  0  0  0  0  0  0
  139.6663   77.1101  220.0360 H   0  0  0  0  0  0  0  0  0  0  0  0
  138.4152   75.4447  222.1796 H   0  0  0  0  0  0  0  0  0  0  0  0
  137.7769   75.9916  220.5745 H   0  0  0  0  0  0  0  0  0  0  0  0
  138.2201   73.5824  220.4480 H   0  0  0  0  0  0  0  0  0  0  0  0
  139.4229   74.4041  219.4500 H   0  0  0  0  0  0  0  0  0  0  0  0
  138.6515   71.6640  220.5854 H   0  0  0  0  0  0  0  0  0  0  0  0
  139.4674   70.4688  221.7059 H   0  0  0  0  0  0  0  0  0  0  0  0
  136.9915   70.9559  222.2561 H   0  0  0  0  0  0  0  0  0  0  0  0
  136.9420   73.1740  223.5250 H   0  0  0  0  0  0  0  0  0  0  0  0
  138.4440   73.4770  222.7900 H   0  0  0  0  0  0  0  0  0  0  0  0
  138.9399   71.8542  224.3937 H   0  0  0  0  0  0  0  0  0  0  0  0
  137.4754   70.7842  224.5175 H   0  0  0  0  0  0  0  0  0  0  0  0
  138.6705   69.0169  223.2803 H   0  0  0  0  0  0  0  0  0  0  0  0
  140.1307   70.0549  223.2009 H   0  0  0  0  0  0  0  0  0  0  0  0
  139.0735   67.2135  225.2196 H   0  0  0  0  0  0  0  0  0  0  0  0
  140.0010   67.2910  227.5760 H   0  0  0  0  0  0  0  0  0  0  0  0
  141.1794   69.3104  229.2073 H   0  0  0  0  0  0  0  0  0  0  0  0
  141.8404   71.7045  229.2250 H   0  0  0  0  0  0  0  0  0  0  0  0
  141.4553   73.1258  227.2193 H   0  0  0  0  0  0  0  0  0  0  0  0
  140.3965   72.1381  225.1696 H   0  0  0  0  0  0  0  0  0  0  0  0
  141.2457   74.7813  222.7605 H   0  0  0  0  0  0  0  0  0  0  0  0
  142.1290   74.1965  221.2739 H   0  0  0  0  0  0  0  0  0  0  0  0
  141.7527   76.6632  221.5716 H   0  0  0  0  0  0  0  0  0  0  0  0
  141.2934   75.8009  219.9782 H   0  0  0  0  0  0  0  0  0  0  0  0
  1  2  1  0
  2  3  1  0
  3  4  2  0
  3  5  1  0
  5  6  1  0
  6  7  2  0
  7  8  1  0
  8  9  2  0
  9 10  1  0
 10 11  2  0
  5 12  1  0
 12 13  1  0
 13 14  1  0
 14 15  1  0
 15 16  1  0
 16 17  2  0
 16 18  1  0
 18 19  1  0
 19 20  1  0
 19 21  1  0
 21 22  1  0
 22 23  1  0
 23 24  2  0
 24 25  1  0
 25 26  1  0
 26 27  2  0
 27 28  1  0
 28 29  2  0
 29 30  1  0
 30 31  2  0
 15 32  1  0
 32 33  1  0
 11  6  1  0
 33 12  1  0
 31 23  1  0
 31 26  1  0
  1 34  1  0
  1 35  1  0
  1 36  1  0
  2 37  1  0
  2 38  1  0
  7 39  1  0
  8 40  1  0
  9 41  1  0
 10 42  1  0
 11 43  1  0
 12 44  1  0
 13 45  1  0
 13 46  1  0
 14 47  1  0
 14 48  1  0
 18 49  1  0
 18 50  1  0
 19 51  1  6
 20 52  1  0
 20 53  1  0
 21 54  1  0
 21 55  1  0
 22 56  1  0
 22 57  1  0
 24 58  1  0
 25 59  1  0
 27 60  1  0
 28 61  1  0
 29 62  1  0
 30 63  1  0
 32 64  1  0
 32 65  1  0
 33 66  1  0
 33 67  1  0
M  END
>  <smiles>  (4) 
CCC(=O)N(c1ccccc1)C1CCN(C(=O)CC(N)CCc2c[nH]c3ccccc23)CC1

>  <score_type>  (4) 
oracle

>  <origin>  (4) 
autodockgpu

>  <m_score__min__energy>  (4) 
-9.5700000000000003

>  <m_primary>  (4) 
energy

>  <rmsd>  (4) 
11.226846229130707

>  <m_score__min__rmsd>  (4) 
11.226846229130707

>  <meeko>  (4) 
{"free_energy": -9.51, "intermolecular_energy": -12.49, "internal_energy": -1.7, "cluster_size": 26, "cluster_id": 2, "rank_in_cluster": 1}

>  <energy>  (4) 
-9.51

>  <cluster_rmsd>  (4) 
1.66

>  <cluster>  (4) 
2

$$$$

     RDKit          3D

 67 70  0  0  0  0  0  0  0  0999 V2000
  139.2860   81.0050  219.9470 C   0  0  0  0  0  0  0  0  0  0  0  0
  140.6150   81.6670  219.7160 C   0  0  0  0  0  0  0  0  0  0  0  0
  141.6940   80.7030  219.3630 C   0  0  0  0  0  0  0  0  0  0  0  0
  142.5690   81.1290  218.5600 O   0  0  0  0  0  0  0  0  0  0  0  0
  141.7330   79.3760  219.9050 N   0  0  0  0  0  0  0  0  0  0  0  0
  141.8300   79.3120  221.3420 C   0  0  0  0  0  0  0  0  0  0  0  0
  142.5020   80.3690  221.9450 C   0  0  0  0  0  0  0  0  0  0  0  0
  142.6540   80.4180  223.3160 C   0  0  0  0  0  0  0  0  0  0  0  0
  142.1180   79.3840  224.0590 C   0  0  0  0  0  0  0  0  0  0  0  0
  141.4420   78.3200  223.4480 C   0  0  0  0  0  0  0  0  0  0  0  0
  141.2990   78.2890  222.0770 C   0  0  0  0  0  0  0  0  0  0  0  0
  141.6740   78.1880  219.0860 C   0  0  0  0  0  0  0  0  0  0  0  0
  140.4580   77.3590  219.3140 C   0  0  0  0  0  0  0  0  0  0  0  0
  140.6280   75.9410  218.7460 C   0  0  0  0  0  0  0  0  0  0  0  0
  141.6390   75.3120  219.5830 N   0  0  0  0  0  0  0  0  0  0  0  0
  141.4580   74.0420  220.1980 C   0  0  0  0  0  0  0  0  0  0  0  0
  142.4010   73.5700  220.9210 O   0  0  0  0  0  0  0  0  0  0  0  0
  140.2400   73.2460  220.0450 C   0  0  0  0  0  0  0  0  0  0  0  0
  139.5020   72.9890  221.3530 C   0  0  2  0  0  0  0  0  0  0  0  0
  139.8280   74.1320  222.2190 N   0  0  0  0  0  0  0  0  0  0  0  0
  140.0740   71.7210  221.9530 C   0  0  0  0  0  0  0  0  0  0  0  0
  140.6730   71.9530  223.3350 C   0  0  0  0  0  0  0  0  0  0  0  0
  140.1420   70.9420  224.2660 C   0  0  0  0  0  0  0  0  0  0  0  0
  139.3740   69.8100  223.9970 C   0  0  0  0  0  0  0  0  0  0  0  0
  139.1130   69.1670  225.1450 N   0  0  0  0  0  0  0  0  0  0  0  0
  139.6940   69.8540  226.1410 C   0  0  0  0  0  0  0  0  0  0  0  0
  139.7240   69.6170  227.4970 C   0  0  0  0  0  0  0  0  0  0  0  0
  140.4010   70.4850  228.3450 C   0  0  0  0  0  0  0  0  0  0  0  0
  141.0520   71.6010  227.8300 C   0  0  0  0  0  0  0  0  0  0  0  0
  141.0290   71.8540  226.4540 C   0  0  0  0  0  0  0  0  0  0  0  0
  140.3470   70.9720  225.6270 C   0  0  0  0  0  0  0  0  0  0  0  0
  142.8700   76.0470  219.7750 C   0  0  0  0  0  0  0  0  0  0  0  0
  142.8930   77.3480  219.0690 C   0  0  0  0  0  0  0  0  0  0  0  0
  139.1044   80.9145  221.0281 H   0  0  0  0  0  0  0  0  0  0  0  0
  138.4899   81.6118  219.4910 H   0  0  0  0  0  0  0  0  0  0  0  0
  139.2908   80.0040  219.4910 H   0  0  0  0  0  0  0  0  0  0  0  0
  140.5081   82.3895  218.8934 H   0  0  0  0  0  0  0  0  0  0  0  0
  140.9064   82.1554  220.6576 H   0  0  0  0  0  0  0  0  0  0  0  0
  142.9172   81.1754  221.3226 H   0  0  0  0  0  0  0  0  0  0  0  0
  143.1837   81.2516  223.8003 H   0  0  0  0  0  0  0  0  0  0  0  0
  142.2243   79.3964  225.1538 H   0  0  0  0  0  0  0  0  0  0  0  0
  141.0249   77.5086  224.0625 H   0  0  0  0  0  0  0  0  0  0  0  0
  140.7694   77.4595  221.5856 H   0  0  0  0  0  0  0  0  0  0  0  0
  141.6060   78.6177  218.0757 H   0  0  0  0  0  0  0  0  0  0  0  0
  140.2698   77.2905  220.3956 H   0  0  0  0  0  0  0  0  0  0  0  0
  139.6123   77.8379  218.7987 H   0  0  0  0  0  0  0  0  0  0  0  0
  139.6799   75.3863  218.8040 H   0  0  0  0  0  0  0  0  0  0  0  0
  140.9232   75.9558  217.6865 H   0  0  0  0  0  0  0  0  0  0  0  0
  139.5611   73.7793  219.3633 H   0  0  0  0  0  0  0  0  0  0  0  0
  140.5469   72.2649  219.6535 H   0  0  0  0  0  0  0  0  0  0  0  0
  138.4148   72.8797  221.2261 H   0  0  0  0  0  0  0  0  0  0  0  0
  139.3600   74.0410  223.1590 H   0  0  0  0  0  0  0  0  0  0  0  0
  140.8670   74.0810  222.3740 H   0  0  0  0  0  0  0  0  0  0  0  0
  139.2696   70.9754  222.0369 H   0  0  0  0  0  0  0  0  0  0  0  0
  140.8801   71.3703  221.2919 H   0  0  0  0  0  0  0  0  0  0  0  0
  141.7682   71.8653  223.2813 H   0  0  0  0  0  0  0  0  0  0  0  0
  140.4075   72.9597  223.6900 H   0  0  0  0  0  0  0  0  0  0  0  0
  139.0351   69.4936  222.9995 H   0  0  0  0  0  0  0  0  0  0  0  0
  138.5490   68.2890  225.1740 H   0  0  0  0  0  0  0  0  0  0  0  0
  139.2099   68.7369  227.9107 H   0  0  0  0  0  0  0  0  0  0  0  0
  140.4221   70.2889  229.4272 H   0  0  0  0  0  0  0  0  0  0  0  0
  141.5857   72.2858  228.5054 H   0  0  0  0  0  0  0  0  0  0  0  0
  141.5408   72.7336  226.0363 H   0  0  0  0  0  0  0  0  0  0  0  0
  143.0017   76.2318  220.8513 H   0  0  0  0  0  0  0  0  0  0  0  0
  143.6827   75.4353  219.3562 H   0  0  0  0  0  0  0  0  0  0  0  0
  143.7030   77.9439  219.5148 H   0  0  0  0  0  0  0  0  0  0  0  0
  143.0145   77.0751  218.0103 H   0  0  0  0  0  0  0  0  0  0  0  0
  1  2  1  0
  2  3  1  0
  3  4  2  0
  3  5  1  0
  5  6  1  0
  6  7  2  0
  7  8  1  0
  8  9  2  0
  9 10  1  0
 10 11  2  0
  5 12  1  0
 12 13  1  0
 13 14  1  0
 14 15  1  0
 15 16  1  0
 16 17  2  0
 16 18  1  0
 18 19  1  0
 19 20  1  0
 19 21  1  0
 21 22  1  0
 22 23  1  0
 23 24  2  0
 24 25  1  0
 25 26  1  0
 26 27  2  0
 27 28  1  0
 28 29  2  0
 29 30  1  0
 30 31  2  0
 15 32  1  0
 32 33  1  0
 11  6  1  0
 33 12  1  0
 31 23  1  0
 31 26  1  0
  1 34  1  0
  1 35  1  0
  1 36  1  0
  2 37  1  0
  2 38  1  0
  7 39  1  0
  8 40  1  0
  9 41  1  0
 10 42  1  0
 11 43  1  0
 12 44  1  0
 13 45  1  0
 13 46  1  0
 14 47  1  0
 14 48  1  0
 18 49  1  0
 18 50  1  0
 19 51  1  6
 20 52  1  0
 20 53  1  0
 21 54  1  0
 21 55  1  0
 22 56  1  0
 22 57  1  0
 24 58  1  0
 25 59  1  0
 27 60  1  0
 28 61  1  0
 29 62  1  0
 30 63  1  0
 32 64  1  0
 32 65  1  0
 33 66  1  0
 33 67  1  0
M  END
>  <smiles>  (5) 
CCC(=O)N(c1ccccc1)C1CCN(C(=O)CC(N)CCc2c[nH]c3ccccc23)CC1

>  <score_type>  (5) 
oracle

>  <origin>  (5) 
autodockgpu

>  <m_score__min__energy>  (5) 
-9.5700000000000003

>  <m_primary>  (5) 
energy

>  <rmsd>  (5) 
10.376952905321268

>  <m_score__min__rmsd>  (5) 
10.376952905321268

>  <meeko>  (5) 
{"free_energy": -8.57, "intermolecular_energy": -11.55, "internal_energy": -2.13, "cluster_size": 7, "cluster_id": 3, "rank_in_cluster": 4}

>  <energy>  (5) 
-9.47

>  <cluster_rmsd>  (5) 
0.18

>  <cluster>  (5) 
2

$$$$

     RDKit          3D

 67 70  0  0  0  0  0  0  0  0999 V2000
  142.0350   81.1820  221.9310 C   0  0  0  0  0  0  0  0  0  0  0  0
  142.3150   80.4970  223.2390 C   0  0  0  0  0  0  0  0  0  0  0  0
  141.3690   79.3840  223.5300 C   0  0  0  0  0  0  0  0  0  0  0  0
  141.7540   78.5490  224.3940 O   0  0  0  0  0  0  0  0  0  0  0  0
  140.1020   79.2730  222.8670 N   0  0  0  0  0  0  0  0  0  0  0  0
  139.0980   80.2000  223.3240 C   0  0  0  0  0  0  0  0  0  0  0  0
  138.7090   81.1660  222.4020 C   0  0  0  0  0  0  0  0  0  0  0  0
  137.7520   82.1060  222.7270 C   0  0  0  0  0  0  0  0  0  0  0  0
  137.2000   82.0500  223.9920 C   0  0  0  0  0  0  0  0  0  0  0  0
  137.5940   81.0770  224.9180 C   0  0  0  0  0  0  0  0  0  0  0  0
  138.5510   80.1460  224.5760 C   0  0  0  0  0  0  0  0  0  0  0  0
  139.8420   78.3140  221.8190 C   0  0  0  0  0  0  0  0  0  0  0  0
  138.6460   77.4620  222.0670 C   0  0  0  0  0  0  0  0  0  0  0  0
  138.6430   76.2170  221.1640 C   0  0  0  0  0  0  0  0  0  0  0  0
  139.7540   75.4030  221.6320 N   0  0  0  0  0  0  0  0  0  0  0  0
  139.6220   74.0240  221.9580 C   0  0  0  0  0  0  0  0  0  0  0  0
  140.6540   73.3890  222.3660 O   0  0  0  0  0  0  0  0  0  0  0  0
  138.3590   73.2940  221.8500 C   0  0  0  0  0  0  0  0  0  0  0  0
  138.5290   71.7970  221.6210 C   0  0  2  0  0  0  0  0  0  0  0  0
  137.3460   71.3800  220.8540 N   0  0  0  0  0  0  0  0  0  0  0  0
  138.5130   71.1270  222.9790 C   0  0  0  0  0  0  0  0  0  0  0  0
  139.8750   70.5600  223.3620 C   0  0  0  0  0  0  0  0  0  0  0  0
  139.8060   70.0270  224.7330 C   0  0  0  0  0  0  0  0  0  0  0  0
  139.2480   68.8340  225.1900 C   0  0  0  0  0  0  0  0  0  0  0  0
  139.4120   68.7470  226.5190 N   0  0  0  0  0  0  0  0  0  0  0  0
  140.0610   69.8500  226.9250 C   0  0  0  0  0  0  0  0  0  0  0  0
  140.4670   70.2420  228.1810 C   0  0  0  0  0  0  0  0  0  0  0  0
  141.1330   71.4480  228.3570 C   0  0  0  0  0  0  0  0  0  0  0  0
  141.3940   72.2690  227.2650 C   0  0  0  0  0  0  0  0  0  0  0  0
  140.9870   71.8830  225.9840 C   0  0  0  0  0  0  0  0  0  0  0  0
  140.3240   70.6740  225.8330 C   0  0  0  0  0  0  0  0  0  0  0  0
  141.0340   76.0640  221.7620 C   0  0  0  0  0  0  0  0  0  0  0  0
  140.9950   77.4950  221.3850 C   0  0  0  0  0  0  0  0  0  0  0  0
  141.6252   82.1847  222.1226 H   0  0  0  0  0  0  0  0  0  0  0  0
  142.9688   81.2712  221.3565 H   0  0  0  0  0  0  0  0  0  0  0  0
  141.3061   80.5915  221.3565 H   0  0  0  0  0  0  0  0  0  0  0  0
  143.3363   80.0896  223.2092 H   0  0  0  0  0  0  0  0  0  0  0  0
  142.1937   81.2470  224.0345 H   0  0  0  0  0  0  0  0  0  0  0  0
  139.1690   81.1810  221.4029 H   0  0  0  0  0  0  0  0  0  0  0  0
  137.4396   82.8734  222.0035 H   0  0  0  0  0  0  0  0  0  0  0  0
  136.4341   82.7860  224.2779 H   0  0  0  0  0  0  0  0  0  0  0  0
  137.1394   81.0554  225.9195 H   0  0  0  0  0  0  0  0  0  0  0  0
  138.8679   79.3760  225.2948 H   0  0  0  0  0  0  0  0  0  0  0  0
  139.6193   78.9717  220.9659 H   0  0  0  0  0  0  0  0  0  0  0  0
  138.6483   77.1404  223.1189 H   0  0  0  0  0  0  0  0  0  0  0  0
  137.7474   78.0546  221.8403 H   0  0  0  0  0  0  0  0  0  0  0  0
  137.6943   75.6695  221.2652 H   0  0  0  0  0  0  0  0  0  0  0  0
  138.7457   76.4802  220.1009 H   0  0  0  0  0  0  0  0  0  0  0  0
  137.7938   73.4398  222.7824 H   0  0  0  0  0  0  0  0  0  0  0  0
  137.8331   73.6940  220.9706 H   0  0  0  0  0  0  0  0  0  0  0  0
  139.4594   71.5397  221.0936 H   0  0  0  0  0  0  0  0  0  0  0  0
  136.6110   70.9650  221.4850 H   0  0  0  0  0  0  0  0  0  0  0  0
  136.9510   72.2640  220.4420 H   0  0  0  0  0  0  0  0  0  0  0  0
  138.2132   71.8676  223.7350 H   0  0  0  0  0  0  0  0  0  0  0  0
  137.8016   70.2893  222.9319 H   0  0  0  0  0  0  0  0  0  0  0  0
  140.1470   69.7527  222.6661 H   0  0  0  0  0  0  0  0  0  0  0  0
  140.6350   71.3536  223.3104 H   0  0  0  0  0  0  0  0  0  0  0  0
  138.7511   68.0817  224.5598 H   0  0  0  0  0  0  0  0  0  0  0  0
  139.0670   67.9300  227.0690 H   0  0  0  0  0  0  0  0  0  0  0  0
  140.2630   69.5973  229.0486 H   0  0  0  0  0  0  0  0  0  0  0  0
  141.4550   71.7548  229.3631 H   0  0  0  0  0  0  0  0  0  0  0  0
  141.9214   73.2235  227.4093 H   0  0  0  0  0  0  0  0  0  0  0  0
  141.1885   72.5251  225.1138 H   0  0  0  0  0  0  0  0  0  0  0  0
  141.3616   75.9877  222.8093 H   0  0  0  0  0  0  0  0  0  0  0  0
  141.7303   75.5643  221.0724 H   0  0  0  0  0  0  0  0  0  0  0  0
  141.8994   77.9637  221.8002 H   0  0  0  0  0  0  0  0  0  0  0  0
  140.9131   77.4795  220.2882 H   0  0  0  0  0  0  0  0  0  0  0  0
  1  2  1  0
  2  3  1  0
  3  4  2  0
  3  5  1  0
  5  6  1  0
  6  7  2  0
  7  8  1  0
  8  9  2  0
  9 10  1  0
 10 11  2  0
  5 12  1  0
 12 13  1  0
 13 14  1  0
 14 15  1  0
 15 16  1  0
 16 17  2  0
 16 18  1  0
 18 19  1  0
 19 20  1  0
 19 21  1  0
 21 22  1  0
 22 23  1  0
 23 24  2  0
 24 25  1  0
 25 26  1  0
 26 27  2  0
 27 28  1  0
 28 29  2  0
 29 30  1  0
 30 31  2  0
 15 32  1  0
 32 33  1  0
 11  6  1  0
 33 12  1  0
 31 23  1  0
 31 26  1  0
  1 34  1  0
  1 35  1  0
  1 36  1  0
  2 37  1  0
  2 38  1  0
  7 39  1  0
  8 40  1  0
  9 41  1  0
 10 42  1  0
 11 43  1  0
 12 44  1  0
 13 45  1  0
 13 46  1  0
 14 47  1  0
 14 48  1  0
 18 49  1  0
 18 50  1  0
 19 51  1  6
 20 52  1  0
 20 53  1  0
 21 54  1  0
 21 55  1  0
 22 56  1  0
 22 57  1  0
 24 58  1  0
 25 59  1  0
 27 60  1  0
 28 61  1  0
 29 62  1  0
 30 63  1  0
 32 64  1  0
 32 65  1  0
 33 66  1  0
 33 67  1  0
M  END
>  <smiles>  (6) 
CCC(=O)N(c1ccccc1)C1CCN(C(=O)CC(N)CCc2c[nH]c3ccccc23)CC1

>  <score_type>  (6) 
oracle

>  <origin>  (6) 
autodockgpu

>  <m_score__min__energy>  (6) 
-9.5700000000000003

>  <m_primary>  (6) 
energy

>  <rmsd>  (6) 
10.652724341002411

>  <m_score__min__rmsd>  (6) 
10.652724341002411

>  <meeko>  (6) 
{"free_energy": -8.52, "intermolecular_energy": -11.5, "internal_energy": -1.63, "cluster_size": 3, "cluster_id": 4, "rank_in_cluster": 2}

>  <energy>  (6) 
-9.39

>  <cluster_rmsd>  (6) 
1.64

>  <cluster>  (6) 
2

$$$$

     RDKit          3D

 67 70  0  0  0  0  0  0  0  0999 V2000
  142.1660   78.9170  217.8620 C   0  0  0  0  0  0  0  0  0  0  0  0
  140.7210   78.6890  217.5190 C   0  0  0  0  0  0  0  0  0  0  0  0
  139.9160   78.2020  218.6750 C   0  0  0  0  0  0  0  0  0  0  0  0
  138.6910   78.5030  218.6560 O   0  0  0  0  0  0  0  0  0  0  0  0
  140.5020   77.4400  219.7390 N   0  0  0  0  0  0  0  0  0  0  0  0
  140.6020   78.1360  220.9970 C   0  0  0  0  0  0  0  0  0  0  0  0
  141.7940   78.8190  221.2110 C   0  0  0  0  0  0  0  0  0  0  0  0
  142.0030   79.5240  222.3790 C   0  0  0  0  0  0  0  0  0  0  0  0
  140.9900   79.5260  223.3180 C   0  0  0  0  0  0  0  0  0  0  0  0
  139.7900   78.8380  223.0990 C   0  0  0  0  0  0  0  0  0  0  0  0
  139.6000   78.1380  221.9270 C   0  0  0  0  0  0  0  0  0  0  0  0
  140.9550   76.0790  219.5770 C   0  0  0  0  0  0  0  0  0  0  0  0
  139.8530   75.0990  219.3640 C   0  0  0  0  0  0  0  0  0  0  0  0
  140.3260   73.6560  219.6030 C   0  0  0  0  0  0  0  0  0  0  0  0
  140.5950   73.5740  221.0310 N   0  0  0  0  0  0  0  0  0  0  0  0
  140.0600   72.5510  221.8630 C   0  0  0  0  0  0  0  0  0  0  0  0
  140.3470   72.5610  223.1090 O   0  0  0  0  0  0  0  0  0  0  0  0
  139.1940   71.4840  221.3620 C   0  0  0  0  0  0  0  0  0  0  0  0
  138.2850   70.8770  222.4240 C   0  0  2  0  0  0  0  0  0  0  0  0
  137.9410   71.9860  223.3270 N   0  0  0  0  0  0  0  0  0  0  0  0
  139.0960   69.8450  223.1780 C   0  0  0  0  0  0  0  0  0  0  0  0
  138.2640   69.0930  224.2100 C   0  0  0  0  0  0  0  0  0  0  0  0
  139.0950   68.8240  225.3960 C   0  0  0  0  0  0  0  0  0  0  0  0
  139.3640   67.6120  226.0300 C   0  0  0  0  0  0  0  0  0  0  0  0
  140.1760   67.8290  227.0760 N   0  0  0  0  0  0  0  0  0  0  0  0
  140.4350   69.1450  227.1290 C   0  0  0  0  0  0  0  0  0  0  0  0
  141.2060   69.8740  228.0060 C   0  0  0  0  0  0  0  0  0  0  0  0
  141.3250   71.2490  227.8570 C   0  0  0  0  0  0  0  0  0  0  0  0
  140.6650   71.9010  226.8200 C   0  0  0  0  0  0  0  0  0  0  0  0
  139.8770   71.1730  225.9230 C   0  0  0  0  0  0  0  0  0  0  0  0
  139.7740   69.7990  226.0920 C   0  0  0  0  0  0  0  0  0  0  0  0
  141.4460   74.6000  221.5920 C   0  0  0  0  0  0  0  0  0  0  0  0
  141.9130   75.5850  220.5910 C   0  0  0  0  0  0  0  0  0  0  0  0
  142.2848   78.9357  218.9554 H   0  0  0  0  0  0  0  0  0  0  0  0
  142.7755   78.1039  217.4408 H   0  0  0  0  0  0  0  0  0  0  0  0
  142.4956   79.8783  217.4408 H   0  0  0  0  0  0  0  0  0  0  0  0
  140.2905   79.6383  217.1676 H   0  0  0  0  0  0  0  0  0  0  0  0
  140.6867   77.9095  216.7436 H   0  0  0  0  0  0  0  0  0  0  0  0
  142.5792   78.7972  220.4409 H   0  0  0  0  0  0  0  0  0  0  0  0
  142.9439   80.0656  222.5560 H   0  0  0  0  0  0  0  0  0  0  0  0
  141.1288   80.0800  224.2581 H   0  0  0  0  0  0  0  0  0  0  0  0
  138.9986   78.8563  223.8628 H   0  0  0  0  0  0  0  0  0  0  0  0
  138.6624   77.5927  221.7439 H   0  0  0  0  0  0  0  0  0  0  0  0
  141.5338   76.1484  218.6441 H   0  0  0  0  0  0  0  0  0  0  0  0
  139.0332   75.3262  220.0614 H   0  0  0  0  0  0  0  0  0  0  0  0
  139.5150   75.1823  218.3205 H   0  0  0  0  0  0  0  0  0  0  0  0
  139.5412   72.9404  219.3166 H   0  0  0  0  0  0  0  0  0  0  0  0
  141.2142   73.4098  219.0026 H   0  0  0  0  0  0  0  0  0  0  0  0
  138.5632   71.8972  220.5611 H   0  0  0  0  0  0  0  0  0  0  0  0
  139.8530   70.6780  221.0070 H   0  0  0  0  0  0  0  0  0  0  0  0
  137.3832   70.4047  222.0072 H   0  0  0  0  0  0  0  0  0  0  0  0
  138.5360   71.9650  224.1960 H   0  0  0  0  0  0  0  0  0  0  0  0
  138.1790   72.8640  222.7980 H   0  0  0  0  0  0  0  0  0  0  0  0
  139.5038   69.1208  222.4574 H   0  0  0  0  0  0  0  0  0  0  0  0
  139.8971   70.3746  223.7144 H   0  0  0  0  0  0  0  0  0  0  0  0
  137.3961   69.7038  224.4993 H   0  0  0  0  0  0  0  0  0  0  0  0
  137.9119   68.1432  223.7812 H   0  0  0  0  0  0  0  0  0  0  0  0
  138.9721   66.6316  225.7213 H   0  0  0  0  0  0  0  0  0  0  0  0
  140.5040   67.0540  227.6940 H   0  0  0  0  0  0  0  0  0  0  0  0
  141.7300   69.3648  228.8283 H   0  0  0  0  0  0  0  0  0  0  0  0
  141.9432   71.8251  228.5612 H   0  0  0  0  0  0  0  0  0  0  0  0
  140.7632   72.9906  226.7056 H   0  0  0  0  0  0  0  0  0  0  0  0
  139.3497   71.6786  225.1006 H   0  0  0  0  0  0  0  0  0  0  0  0
  140.8819   75.1342  222.3708 H   0  0  0  0  0  0  0  0  0  0  0  0
  142.3377   74.0986  221.9964 H   0  0  0  0  0  0  0  0  0  0  0  0
  142.2775   76.4620  221.1459 H   0  0  0  0  0  0  0  0  0  0  0  0
  142.6616   75.0332  220.0035 H   0  0  0  0  0  0  0  0  0  0  0  0
  1  2  1  0
  2  3  1  0
  3  4  2  0
  3  5  1  0
  5  6  1  0
  6  7  2  0
  7  8  1  0
  8  9  2  0
  9 10  1  0
 10 11  2  0
  5 12  1  0
 12 13  1  0
 13 14  1  0
 14 15  1  0
 15 16  1  0
 16 17  2  0
 16 18  1  0
 18 19  1  0
 19 20  1  0
 19 21  1  0
 21 22  1  0
 22 23  1  0
 23 24  2  0
 24 25  1  0
 25 26  1  0
 26 27  2  0
 27 28  1  0
 28 29  2  0
 29 30  1  0
 30 31  2  0
 15 32  1  0
 32 33  1  0
 11  6  1  0
 33 12  1  0
 31 23  1  0
 31 26  1  0
  1 34  1  0
  1 35  1  0
  1 36  1  0
  2 37  1  0
  2 38  1  0
  7 39  1  0
  8 40  1  0
  9 41  1  0
 10 42  1  0
 11 43  1  0
 12 44  1  0
 13 45  1  0
 13 46  1  0
 14 47  1  0
 14 48  1  0
 18 49  1  0
 18 50  1  0
 19 51  1  6
 20 52  1  0
 20 53  1  0
 21 54  1  0
 21 55  1  0
 22 56  1  0
 22 57  1  0
 24 58  1  0
 25 59  1  0
 27 60  1  0
 28 61  1  0
 29 62  1  0
 30 63  1  0
 32 64  1  0
 32 65  1  0
 33 66  1  0
 33 67  1  0
M  END
>  <smiles>  (7) 
CCC(=O)N(c1ccccc1)C1CCN(C(=O)CC(N)CCc2c[nH]c3ccccc23)CC1

>  <score_type>  (7) 
oracle

>  <origin>  (7) 
autodockgpu

>  <m_score__min__energy>  (7) 
-9.5700000000000003

>  <m_primary>  (7) 
energy

>  <rmsd>  (7) 
11.447803604056388

>  <m_score__min__rmsd>  (7) 
11.447803604056388

>  <meeko>  (7) 
{"free_energy": -7.58, "intermolecular_energy": -10.56, "internal_energy": -2.64, "cluster_size": 26, "cluster_id": 2, "rank_in_cluster": 26}

>  <energy>  (7) 
-9.26

>  <cluster_rmsd>  (7) 
0.58

>  <cluster>  (7) 
2

$$$$

     RDKit          3D

 67 70  0  0  0  0  0  0  0  0999 V2000
  138.1580   80.3450  223.9110 C   0  0  0  0  0  0  0  0  0  0  0  0
  137.7870   79.6520  222.6300 C   0  0  0  0  0  0  0  0  0  0  0  0
  138.2990   78.2550  222.5510 C   0  0  0  0  0  0  0  0  0  0  0  0
  137.5740   77.3740  223.0890 O   0  0  0  0  0  0  0  0  0  0  0  0
  139.5390   77.9380  221.9040 N   0  0  0  0  0  0  0  0  0  0  0  0
  140.6320   78.8210  222.2250 C   0  0  0  0  0  0  0  0  0  0  0  0
  141.1440   78.7000  223.5120 C   0  0  0  0  0  0  0  0  0  0  0  0
  142.1930   79.4920  223.9310 C   0  0  0  0  0  0  0  0  0  0  0  0
  142.7110   80.4020  223.0300 C   0  0  0  0  0  0  0  0  0  0  0  0
  142.1930   80.5220  221.7350 C   0  0  0  0  0  0  0  0  0  0  0  0
  141.1440   79.7220  221.3340 C   0  0  0  0  0  0  0  0  0  0  0  0
  139.6950   76.8200  221.0040 C   0  0  0  0  0  0  0  0  0  0  0  0
  138.5610   75.8550  221.0400 C   0  0  0  0  0  0  0  0  0  0  0  0
  138.9410   74.5120  220.3980 C   0  0  0  0  0  0  0  0  0  0  0  0
  139.9260   73.9250  221.2940 N   0  0  0  0  0  0  0  0  0  0  0  0
  139.8250   72.5980  221.7970 C   0  0  0  0  0  0  0  0  0  0  0  0
  140.7360   72.1680  222.5830 O   0  0  0  0  0  0  0  0  0  0  0  0
  138.7240   71.6960  221.4580 C   0  0  0  0  0  0  0  0  0  0  0  0
  137.7700   71.4240  222.6150 C   0  0  2  0  0  0  0  0  0  0  0  0
  137.0220   72.6750  222.8100 N   0  0  0  0  0  0  0  0  0  0  0  0
  138.6150   71.1430  223.8400 C   0  0  0  0  0  0  0  0  0  0  0  0
  139.3050   69.7860  223.7700 C   0  0  0  0  0  0  0  0  0  0  0  0
  139.6530   69.3510  225.1340 C   0  0  0  0  0  0  0  0  0  0  0  0
  139.4980   68.1000  225.7290 C   0  0  0  0  0  0  0  0  0  0  0  0
  139.9540   68.1490  226.9900 N   0  0  0  0  0  0  0  0  0  0  0  0
  140.3960   69.3950  227.2190 C   0  0  0  0  0  0  0  0  0  0  0  0
  140.9530   69.9580  228.3450 C   0  0  0  0  0  0  0  0  0  0  0  0
  141.3390   71.2920  228.3430 C   0  0  0  0  0  0  0  0  0  0  0  0
  141.1660   72.0700  227.2030 C   0  0  0  0  0  0  0  0  0  0  0  0
  140.6010   71.5110  226.0520 C   0  0  0  0  0  0  0  0  0  0  0  0
  140.2230   70.1760  226.0780 C   0  0  0  0  0  0  0  0  0  0  0  0
  141.0430   74.7640  221.6690 C   0  0  0  0  0  0  0  0  0  0  0  0
  140.9940   76.1120  221.0610 C   0  0  0  0  0  0  0  0  0  0  0  0
  137.8313   79.7348  224.7659 H   0  0  0  0  0  0  0  0  0  0  0  0
  139.2489   80.4798  223.9523 H   0  0  0  0  0  0  0  0  0  0  0  0
  137.6653   81.3276  223.9523 H   0  0  0  0  0  0  0  0  0  0  0  0
  136.6902   79.6278  222.5502 H   0  0  0  0  0  0  0  0  0  0  0  0
  138.2479   80.2170  221.8064 H   0  0  0  0  0  0  0  0  0  0  0  0
  140.7077   77.9645  224.2039 H   0  0  0  0  0  0  0  0  0  0  0  0
  142.6029   79.4019  224.9478 H   0  0  0  0  0  0  0  0  0  0  0  0
  143.5484   81.0461  223.3366 H   0  0  0  0  0  0  0  0  0  0  0  0
  142.6232   81.2551  221.0368 H   0  0  0  0  0  0  0  0  0  0  0  0
  140.7283   79.8071  220.3191 H   0  0  0  0  0  0  0  0  0  0  0  0
  139.6836   77.3218  220.0252 H   0  0  0  0  0  0  0  0  0  0  0  0
  138.2731   75.6813  222.0874 H   0  0  0  0  0  0  0  0  0  0  0  0
  137.7249   76.2851  220.4691 H   0  0  0  0  0  0  0  0  0  0  0  0
  138.0584   73.8607  220.3153 H   0  0  0  0  0  0  0  0  0  0  0  0
  139.3370   74.6408  219.3799 H   0  0  0  0  0  0  0  0  0  0  0  0
  138.1499   72.1446  220.6339 H   0  0  0  0  0  0  0  0  0  0  0  0
  139.1749   70.7313  221.1824 H   0  0  0  0  0  0  0  0  0  0  0  0
  137.0922   70.5772  222.4320 H   0  0  0  0  0  0  0  0  0  0  0  0
  135.9830   72.5040  222.7780 H   0  0  0  0  0  0  0  0  0  0  0  0
  137.2620   72.9970  223.7830 H   0  0  0  0  0  0  0  0  0  0  0  0
  139.3829   71.9258  223.9268 H   0  0  0  0  0  0  0  0  0  0  0  0
  137.9471   71.1354  224.7140 H   0  0  0  0  0  0  0  0  0  0  0  0
  138.6271   69.0514  223.3108 H   0  0  0  0  0  0  0  0  0  0  0  0
  140.2183   69.8657  223.1622 H   0  0  0  0  0  0  0  0  0  0  0  0
  139.0692   67.2121  225.2414 H   0  0  0  0  0  0  0  0  0  0  0  0
  139.9320   67.3170  227.6200 H   0  0  0  0  0  0  0  0  0  0  0  0
  141.0929   69.3487  229.2501 H   0  0  0  0  0  0  0  0  0  0  0  0
  141.7833   71.7351  229.2465 H   0  0  0  0  0  0  0  0  0  0  0  0
  141.4739   73.1260  227.2066 H   0  0  0  0  0  0  0  0  0  0  0  0
  140.4592   72.1170  225.1450 H   0  0  0  0  0  0  0  0  0  0  0  0
  141.0443   74.8747  222.7634 H   0  0  0  0  0  0  0  0  0  0  0  0
  141.9561   74.2739  221.3003 H   0  0  0  0  0  0  0  0  0  0  0  0
  141.6854   76.7497  221.6314 H   0  0  0  0  0  0  0  0  0  0  0  0
  141.2496   75.9380  220.0054 H   0  0  0  0  0  0  0  0  0  0  0  0
  1  2  1  0
  2  3  1  0
  3  4  2  0
  3  5  1  0
  5  6  1  0
  6  7  2  0
  7  8  1  0
  8  9  2  0
  9 10  1  0
 10 11  2  0
  5 12  1  0
 12 13  1  0
 13 14  1  0
 14 15  1  0
 15 16  1  0
 16 17  2  0
 16 18  1  0
 18 19  1  0
 19 20  1  0
 19 21  1  0
 21 22  1  0
 22 23  1  0
 23 24  2  0
 24 25  1  0
 25 26  1  0
 26 27  2  0
 27 28  1  0
 28 29  2  0
 29 30  1  0
 30 31  2  0
 15 32  1  0
 32 33  1  0
 11  6  1  0
 33 12  1  0
 31 23  1  0
 31 26  1  0
  1 34  1  0
  1 35  1  0
  1 36  1  0
  2 37  1  0
  2 38  1  0
  7 39  1  0
  8 40  1  0
  9 41  1  0
 10 42  1  0
 11 43  1  0
 12 44  1  0
 13 45  1  0
 13 46  1  0
 14 47  1  0
 14 48  1  0
 18 49  1  0
 18 50  1  0
 19 51  1  6
 20 52  1  0
 20 53  1  0
 21 54  1  0
 21 55  1  0
 22 56  1  0
 22 57  1  0
 24 58  1  0
 25 59  1  0
 27 60  1  0
 28 61  1  0
 29 62  1  0
 30 63  1  0
 32 64  1  0
 32 65  1  0
 33 66  1  0
 33 67  1  0
M  END
>  <smiles>  (8) 
CCC(=O)N(c1ccccc1)C1CCN(C(=O)CC(N)CCc2c[nH]c3ccccc23)CC1

>  <score_type>  (8) 
oracle

>  <origin>  (8) 
autodockgpu

>  <m_score__min__energy>  (8) 
-9.5700000000000003

>  <m_primary>  (8) 
energy

>  <rmsd>  (8) 
11.173652452716144

>  <m_score__min__rmsd>  (8) 
11.173652452716144

>  <meeko>  (8) 
{"free_energy": -9.22, "intermolecular_energy": -12.2, "internal_energy": -1.43, "cluster_size": 26, "cluster_id": 2, "rank_in_cluster": 7}

>  <energy>  (8) 
-9.26

>  <cluster_rmsd>  (8) 
0.44

>  <cluster>  (8) 
2

$$$$

     RDKit          3D

 67 70  0  0  0  0  0  0  0  0999 V2000
  137.0030   76.9470  222.7540 C   0  0  0  0  0  0  0  0  0  0  0  0
  137.5720   78.3250  222.5660 C   0  0  0  0  0  0  0  0  0  0  0  0
  138.3710   78.4620  221.3170 C   0  0  0  0  0  0  0  0  0  0  0  0
  137.8020   79.0640  220.3650 O   0  0  0  0  0  0  0  0  0  0  0  0
  139.7030   77.9420  221.2080 N   0  0  0  0  0  0  0  0  0  0  0  0
  140.7140   78.7230  221.8750 C   0  0  0  0  0  0  0  0  0  0  0  0
  140.9640   78.3760  223.1980 C   0  0  0  0  0  0  0  0  0  0  0  0
  141.9130   79.0520  223.9370 C   0  0  0  0  0  0  0  0  0  0  0  0
  142.5990   80.0780  223.3170 C   0  0  0  0  0  0  0  0  0  0  0  0
  142.3450   80.4250  221.9850 C   0  0  0  0  0  0  0  0  0  0  0  0
  141.3930   79.7380  221.2620 C   0  0  0  0  0  0  0  0  0  0  0  0
  140.0190   76.7280  220.4920 C   0  0  0  0  0  0  0  0  0  0  0  0
  138.9270   75.7160  220.5130 C   0  0  0  0  0  0  0  0  0  0  0  0
  139.4390   74.3240  220.1100 C   0  0  0  0  0  0  0  0  0  0  0  0
  140.3180   73.9110  221.1950 N   0  0  0  0  0  0  0  0  0  0  0  0
  140.1990   72.6560  221.8530 C   0  0  0  0  0  0  0  0  0  0  0  0
  141.0140   72.3810  222.8000 O   0  0  0  0  0  0  0  0  0  0  0  0
  139.1880   71.6590  221.5010 C   0  0  0  0  0  0  0  0  0  0  0  0
  138.0160   71.5980  222.4730 C   0  0  2  0  0  0  0  0  0  0  0  0
  137.5740   72.9910  222.6440 N   0  0  0  0  0  0  0  0  0  0  0  0
  138.5480   71.0720  223.7900 C   0  0  0  0  0  0  0  0  0  0  0  0
  139.3320   69.7760  223.6220 C   0  0  0  0  0  0  0  0  0  0  0  0
  139.6660   69.2390  224.9520 C   0  0  0  0  0  0  0  0  0  0  0  0
  139.5320   67.9390  225.4390 C   0  0  0  0  0  0  0  0  0  0  0  0
  139.9630   67.8940  226.7090 N   0  0  0  0  0  0  0  0  0  0  0  0
  140.3700   69.1280  227.0480 C   0  0  0  0  0  0  0  0  0  0  0  0
  140.8910   69.6090  228.2280 C   0  0  0  0  0  0  0  0  0  0  0  0
  141.2440   70.9470  228.3440 C   0  0  0  0  0  0  0  0  0  0  0  0
  141.0720   71.8120  227.2680 C   0  0  0  0  0  0  0  0  0  0  0  0
  140.5430   71.3370  226.0640 C   0  0  0  0  0  0  0  0  0  0  0  0
  140.1980   69.9950  225.9720 C   0  0  0  0  0  0  0  0  0  0  0  0
  141.3430   74.8510  221.5930 C   0  0  0  0  0  0  0  0  0  0  0  0
  141.3240   76.1060  220.8080 C   0  0  0  0  0  0  0  0  0  0  0  0
  136.9137   76.7307  223.8288 H   0  0  0  0  0  0  0  0  0  0  0  0
  136.0092   76.8936  222.2854 H   0  0  0  0  0  0  0  0  0  0  0  0
  137.6696   76.2080  222.2854 H   0  0  0  0  0  0  0  0  0  0  0  0
  136.7411   79.0450  222.5307 H   0  0  0  0  0  0  0  0  0  0  0  0
  138.2490   78.5182  223.4111 H   0  0  0  0  0  0  0  0  0  0  0  0
  140.3989   77.5534  223.6606 H   0  0  0  0  0  0  0  0  0  0  0  0
  142.1163   78.7830  224.9841 H   0  0  0  0  0  0  0  0  0  0  0  0
  143.3613   80.6344  223.8821 H   0  0  0  0  0  0  0  0  0  0  0  0
  142.9053   81.2465  221.5147 H   0  0  0  0  0  0  0  0  0  0  0  0
  141.1846   80.0013  220.2145 H   0  0  0  0  0  0  0  0  0  0  0  0
  140.1192   77.0979  219.4609 H   0  0  0  0  0  0  0  0  0  0  0  0
  138.5092   75.6625  221.5292 H   0  0  0  0  0  0  0  0  0  0  0  0
  138.1586   76.0234  219.7884 H   0  0  0  0  0  0  0  0  0  0  0  0
  138.6002   73.6203  220.0042 H   0  0  0  0  0  0  0  0  0  0  0  0
  139.9616   74.3427  219.1423 H   0  0  0  0  0  0  0  0  0  0  0  0
  138.7969   71.9003  220.5016 H   0  0  0  0  0  0  0  0  0  0  0  0
  139.6826   70.6770  221.5353 H   0  0  0  0  0  0  0  0  0  0  0  0
  137.1934   70.9565  222.1240 H   0  0  0  0  0  0  0  0  0  0  0  0
  136.9810   73.0970  223.5080 H   0  0  0  0  0  0  0  0  0  0  0  0
  138.4540   73.5490  222.7910 H   0  0  0  0  0  0  0  0  0  0  0  0
  139.2101   71.8309  224.2323 H   0  0  0  0  0  0  0  0  0  0  0  0
  137.6863   70.8616  224.4406 H   0  0  0  0  0  0  0  0  0  0  0  0
  138.7213   69.0447  223.0722 H   0  0  0  0  0  0  0  0  0  0  0  0
  140.2563   69.9724  223.0588 H   0  0  0  0  0  0  0  0  0  0  0  0
  139.1352   67.0846  224.8711 H   0  0  0  0  0  0  0  0  0  0  0  0
  139.9510   67.0130  227.2690 H   0  0  0  0  0  0  0  0  0  0  0  0
  141.0283   68.9304  229.0828 H   0  0  0  0  0  0  0  0  0  0  0  0
  141.6609   71.3241  229.2895 H   0  0  0  0  0  0  0  0  0  0  0  0
  141.3526   72.8712  227.3646 H   0  0  0  0  0  0  0  0  0  0  0  0
  140.4030   72.0125  225.2072 H   0  0  0  0  0  0  0  0  0  0  0  0
  141.1947   75.1007  222.6540 H   0  0  0  0  0  0  0  0  0  0  0  0
  142.3150   74.3687  221.4123 H   0  0  0  0  0  0  0  0  0  0  0  0
  141.9085   76.8486  221.3709 H   0  0  0  0  0  0  0  0  0  0  0  0
  141.7241   75.8125  219.8263 H   0  0  0  0  0  0  0  0  0  0  0  0
  1  2  1  0
  2  3  1  0
  3  4  2  0
  3  5  1  0
  5  6  1  0
  6  7  2  0
  7  8  1  0
  8  9  2  0
  9 10  1  0
 10 11  2  0
  5 12  1  0
 12 13  1  0
 13 14  1  0
 14 15  1  0
 15 16  1  0
 16 17  2  0
 16 18  1  0
 18 19  1  0
 19 20  1  0
 19 21  1  0
 21 22  1  0
 22 23  1  0
 23 24  2  0
 24 25  1  0
 25 26  1  0
 26 27  2  0
 27 28  1  0
 28 29  2  0
 29 30  1  0
 30 31  2  0
 15 32  1  0
 32 33  1  0
 11  6  1  0
 33 12  1  0
 31 23  1  0
 31 26  1  0
  1 34  1  0
  1 35  1  0
  1 36  1  0
  2 37  1  0
  2 38  1  0
  7 39  1  0
  8 40  1  0
  9 41  1  0
 10 42  1  0
 11 43  1  0
 12 44  1  0
 13 45  1  0
 13 46  1  0
 14 47  1  0
 14 48  1  0
 18 49  1  0
 18 50  1  0
 19 51  1  6
 20 52  1  0
 20 53  1  0
 21 54  1  0
 21 55  1  0
 22 56  1  0
 22 57  1  0
 24 58  1  0
 25 59  1  0
 27 60  1  0
 28 61  1  0
 29 62  1  0
 30 63  1  0
 32 64  1  0
 32 65  1  0
 33 66  1  0
 33 67  1  0
M  END
>  <smiles>  (9) 
CCC(=O)N(c1ccccc1)C1CCN(C(=O)CC(N)CCc2c[nH]c3ccccc23)CC1

>  <score_type>  (9) 
oracle

>  <origin>  (9) 
autodockgpu

>  <m_score__min__energy>  (9) 
-9.5700000000000003

>  <m_primary>  (9) 
energy

>  <rmsd>  (9) 
11.261230464328749

>  <m_score__min__rmsd>  (9) 
11.261230464328749

>  <meeko>  (9) 
{"free_energy": -9.13, "intermolecular_energy": -12.12, "internal_energy": -1.82, "cluster_size": 26, "cluster_id": 2, "rank_in_cluster": 9}

>  <energy>  (9) 
-9.22

>  <cluster_rmsd>  (9) 
0.33

>  <cluster>  (9) 
2

$$$$

     RDKit          3D

 67 70  0  0  0  0  0  0  0  0999 V2000
  142.9570   76.9830  217.4030 C   0  0  0  0  0  0  0  0  0  0  0  0
  142.5690   77.8640  218.5570 C   0  0  0  0  0  0  0  0  0  0  0  0
  142.5190   77.1360  219.8560 C   0  0  0  0  0  0  0  0  0  0  0  0
  143.4670   76.3320  220.0720 O   0  0  0  0  0  0  0  0  0  0  0  0
  141.4570   77.3400  220.7990 N   0  0  0  0  0  0  0  0  0  0  0  0
  141.6500   78.4510  221.6960 C   0  0  0  0  0  0  0  0  0  0  0  0
  141.7990   79.6930  221.0880 C   0  0  0  0  0  0  0  0  0  0  0  0
  141.9870   80.8310  221.8470 C   0  0  0  0  0  0  0  0  0  0  0  0
  142.0210   80.6890  223.2210 C   0  0  0  0  0  0  0  0  0  0  0  0
  141.8720   79.4370  223.8290 C   0  0  0  0  0  0  0  0  0  0  0  0
  141.6850   78.3110  223.0550 C   0  0  0  0  0  0  0  0  0  0  0  0
  140.2790   76.5060  220.8510 C   0  0  0  0  0  0  0  0  0  0  0  0
  140.0250   75.9090  222.1910 C   0  0  0  0  0  0  0  0  0  0  0  0
  139.0340   74.7360  222.1070 C   0  0  0  0  0  0  0  0  0  0  0  0
  139.7420   73.6880  221.3870 N   0  0  0  0  0  0  0  0  0  0  0  0
  139.8470   72.3530  221.8660 C   0  0  0  0  0  0  0  0  0  0  0  0
  140.4930   71.4990  221.1680 O   0  0  0  0  0  0  0  0  0  0  0  0
  139.2500   71.9050  223.1250 C   0  0  0  0  0  0  0  0  0  0  0  0
  137.8710   71.2780  222.9660 C   0  0  2  0  0  0  0  0  0  0  0  0
  136.9820   72.0570  223.8410 N   0  0  0  0  0  0  0  0  0  0  0  0
  137.9600   69.8550  223.4750 C   0  0  0  0  0  0  0  0  0  0  0  0
  139.4020   69.3890  223.6470 C   0  0  0  0  0  0  0  0  0  0  0  0
  139.6190   69.0050  225.0520 C   0  0  0  0  0  0  0  0  0  0  0  0
  139.3910   67.7800  225.6780 C   0  0  0  0  0  0  0  0  0  0  0  0
  139.7340   67.8720  226.9730 N   0  0  0  0  0  0  0  0  0  0  0  0
  140.1750   69.1210  227.1920 C   0  0  0  0  0  0  0  0  0  0  0  0
  140.6390   69.7200  228.3410 C   0  0  0  0  0  0  0  0  0  0  0  0
  141.0460   71.0480  228.3230 C   0  0  0  0  0  0  0  0  0  0  0  0
  140.9880   71.7820  227.1430 C   0  0  0  0  0  0  0  0  0  0  0  0
  140.5190   71.1860  225.9690 C   0  0  0  0  0  0  0  0  0  0  0  0
  140.1170   69.8580  226.0120 C   0  0  0  0  0  0  0  0  0  0  0  0
  140.3560   74.0640  220.1330 C   0  0  0  0  0  0  0  0  0  0  0  0
  140.1530   75.4880  219.7840 C   0  0  0  0  0  0  0  0  0  0  0  0
  143.3727   76.0392  217.7858 H   0  0  0  0  0  0  0  0  0  0  0  0
  142.0692   76.7705  216.7893 H   0  0  0  0  0  0  0  0  0  0  0  0
  143.7131   77.4945  216.7893 H   0  0  0  0  0  0  0  0  0  0  0  0
  143.3048   78.6775  218.6395 H   0  0  0  0  0  0  0  0  0  0  0  0
  141.5568   78.2439  218.3543 H   0  0  0  0  0  0  0  0  0  0  0  0
  141.7667   79.7695  219.9911 H   0  0  0  0  0  0  0  0  0  0  0  0
  142.1057   81.8170  221.3740 H   0  0  0  0  0  0  0  0  0  0  0  0
  142.1683   81.5789  223.8505 H   0  0  0  0  0  0  0  0  0  0  0  0
  141.9041   79.3512  224.9252 H   0  0  0  0  0  0  0  0  0  0  0  0
  141.5666   77.3218  223.5213 H   0  0  0  0  0  0  0  0  0  0  0  0
  139.4809   77.2349  220.6469 H   0  0  0  0  0  0  0  0  0  0  0  0
  140.9762   75.5442  222.6059 H   0  0  0  0  0  0  0  0  0  0  0  0
  139.5877   76.6845  222.8370 H   0  0  0  0  0  0  0  0  0  0  0  0
  138.7572   74.3922  223.1146 H   0  0  0  0  0  0  0  0  0  0  0  0
  138.1000   75.0227  221.6015 H   0  0  0  0  0  0  0  0  0  0  0  0
  139.9190   71.1595  223.5795 H   0  0  0  0  0  0  0  0  0  0  0  0
  139.1237   72.7985  223.7540 H   0  0  0  0  0  0  0  0  0  0  0  0
  137.5101   71.2766  221.9269 H   0  0  0  0  0  0  0  0  0  0  0  0
  137.3640   72.1080  224.8210 H   0  0  0  0  0  0  0  0  0  0  0  0
  136.9830   73.0320  223.4460 H   0  0  0  0  0  0  0  0  0  0  0  0
  137.4508   69.7953  224.4482 H   0  0  0  0  0  0  0  0  0  0  0  0
  137.4826   69.2015  222.7300 H   0  0  0  0  0  0  0  0  0  0  0  0
  139.5897   68.5231  222.9951 H   0  0  0  0  0  0  0  0  0  0  0  0
  140.0899   70.2029  223.3744 H   0  0  0  0  0  0  0  0  0  0  0  0
  138.9926   66.8794  225.1878 H   0  0  0  0  0  0  0  0  0  0  0  0
  139.6420   67.0670  227.6300 H   0  0  0  0  0  0  0  0  0  0  0  0
  140.6877   69.1448  229.2774 H   0  0  0  0  0  0  0  0  0  0  0  0
  141.4154   71.5207  229.2450 H   0  0  0  0  0  0  0  0  0  0  0  0
  141.3118   72.8332  227.1337 H   0  0  0  0  0  0  0  0  0  0  0  0
  140.4694   71.7574  225.0304 H   0  0  0  0  0  0  0  0  0  0  0  0
  141.4370   73.8725  220.2026 H   0  0  0  0  0  0  0  0  0  0  0  0
  139.8781   73.4645  219.3442 H   0  0  0  0  0  0  0  0  0  0  0  0
  140.8907   75.7395  219.0077 H   0  0  0  0  0  0  0  0  0  0  0  0
  139.0953   75.5421  219.4867 H   0  0  0  0  0  0  0  0  0  0  0  0
  1  2  1  0
  2  3  1  0
  3  4  2  0
  3  5  1  0
  5  6  1  0
  6  7  2  0
  7  8  1  0
  8  9  2  0
  9 10  1  0
 10 11  2  0
  5 12  1  0
 12 13  1  0
 13 14  1  0
 14 15  1  0
 15 16  1  0
 16 17  2  0
 16 18  1  0
 18 19  1  0
 19 20  1  0
 19 21  1  0
 21 22  1  0
 22 23  1  0
 23 24  2  0
 24 25  1  0
 25 26  1  0
 26 27  2  0
 27 28  1  0
 28 29  2  0
 29 30  1  0
 30 31  2  0
 15 32  1  0
 32 33  1  0
 11  6  1  0
 33 12  1  0
 31 23  1  0
 31 26  1  0
  1 34  1  0
  1 35  1  0
  1 36  1  0
  2 37  1  0
  2 38  1  0
  7 39  1  0
  8 40  1  0
  9 41  1  0
 10 42  1  0
 11 43  1  0
 12 44  1  0
 13 45  1  0
 13 46  1  0
 14 47  1  0
 14 48  1  0
 18 49  1  0
 18 50  1  0
 19 51  1  6
 20 52  1  0
 20 53  1  0
 21 54  1  0
 21 55  1  0
 22 56  1  0
 22 57  1  0
 24 58  1  0
 25 59  1  0
 27 60  1  0
 28 61  1  0
 29 62  1  0
 30 63  1  0
 32 64  1  0
 32 65  1  0
 33 66  1  0
 33 67  1  0
M  END
>  <smiles>  (10) 
CCC(=O)N(c1ccccc1)C1CCN(C(=O)CC(N)CCc2c[nH]c3ccccc23)CC1

>  <score_type>  (10) 
oracle

>  <origin>  (10) 
autodockgpu

>  <m_score__min__energy>  (10) 
-9.5700000000000003

>  <m_primary>  (10) 
energy

>  <rmsd>  (10) 
11.563064736448002

>  <m_score__min__rmsd>  (10) 
11.563064736448002

>  <meeko>  (10) 
{"free_energy": -9.39, "intermolecular_energy": -12.38, "internal_energy": -1.61, "cluster_size": 26, "cluster_id": 2, "rank_in_cluster": 4}

>  <energy>  (10) 
-9.2

>  <cluster_rmsd>  (10) 
1.9

>  <cluster>  (10) 
2

$$$$

     RDKit          3D

 67 70  0  0  0  0  0  0  0  0999 V2000
  135.3570   79.3280  223.9060 C   0  0  0  0  0  0  0  0  0  0  0  0
  136.3570   80.2650  223.2890 C   0  0  0  0  0  0  0  0  0  0  0  0
  137.7520   80.0160  223.7470 C   0  0  0  0  0  0  0  0  0  0  0  0
  138.0510   80.4860  224.8790 O   0  0  0  0  0  0  0  0  0  0  0  0
  138.6940   79.2860  222.9480 N   0  0  0  0  0  0  0  0  0  0  0  0
  140.0630   79.7130  223.0860 C   0  0  0  0  0  0  0  0  0  0  0  0
  140.9470   78.7510  223.5600 C   0  0  0  0  0  0  0  0  0  0  0  0
  142.2850   79.0450  223.7300 C   0  0  0  0  0  0  0  0  0  0  0  0
  142.7080   80.3210  223.4120 C   0  0  0  0  0  0  0  0  0  0  0  0
  141.8150   81.2880  222.9350 C   0  0  0  0  0  0  0  0  0  0  0  0
  140.4820   80.9760  222.7720 C   0  0  0  0  0  0  0  0  0  0  0  0
  138.3120   78.2020  222.0740 C   0  0  0  0  0  0  0  0  0  0  0  0
  137.7970   77.0030  222.7910 C   0  0  0  0  0  0  0  0  0  0  0  0
  137.7920   75.7610  221.8850 C   0  0  0  0  0  0  0  0  0  0  0  0
  139.1950   75.4520  221.6520 N   0  0  0  0  0  0  0  0  0  0  0  0
  139.7480   74.1570  221.8550 C   0  0  0  0  0  0  0  0  0  0  0  0
  140.9940   73.9800  221.6300 O   0  0  0  0  0  0  0  0  0  0  0  0
  138.9600   73.0130  222.3120 C   0  0  0  0  0  0  0  0  0  0  0  0
  139.7160   72.0740  223.2440 C   0  0  2  0  0  0  0  0  0  0  0  0
  140.8860   71.6190  222.4780 N   0  0  0  0  0  0  0  0  0  0  0  0
  138.8100   70.8960  223.5310 C   0  0  0  0  0  0  0  0  0  0  0  0
  139.5620   69.5700  223.5240 C   0  0  0  0  0  0  0  0  0  0  0  0
  139.7180   69.0970  224.9100 C   0  0  0  0  0  0  0  0  0  0  0  0
  139.4390   67.8430  225.4520 C   0  0  0  0  0  0  0  0  0  0  0  0
  139.7350   67.8490  226.7610 N   0  0  0  0  0  0  0  0  0  0  0  0
  140.1970   69.0710  227.0710 C   0  0  0  0  0  0  0  0  0  0  0  0
  140.6320   69.5890  228.2700 C   0  0  0  0  0  0  0  0  0  0  0  0
  141.0700   70.9040  228.3470 C   0  0  0  0  0  0  0  0  0  0  0  0
  141.0730   71.7090  227.2130 C   0  0  0  0  0  0  0  0  0  0  0  0
  140.6330   71.1960  225.9880 C   0  0  0  0  0  0  0  0  0  0  0  0
  140.2000   69.8780  225.9360 C   0  0  0  0  0  0  0  0  0  0  0  0
  140.0330   76.5410  221.1980 C   0  0  0  0  0  0  0  0  0  0  0  0
  139.3000   77.8180  221.0420 C   0  0  0  0  0  0  0  0  0  0  0  0
  135.4237   79.3905  225.0022 H   0  0  0  0  0  0  0  0  0  0  0  0
  134.3436   79.6092  223.5837 H   0  0  0  0  0  0  0  0  0  0  0  0
  135.5718   78.2984  223.5837 H   0  0  0  0  0  0  0  0  0  0  0  0
  136.3208   80.1452  222.1961 H   0  0  0  0  0  0  0  0  0  0  0  0
  136.0867   81.2846  223.6012 H   0  0  0  0  0  0  0  0  0  0  0  0
  140.5763   77.7441  223.8024 H   0  0  0  0  0  0  0  0  0  0  0  0
  142.9902   78.2891  224.1058 H   0  0  0  0  0  0  0  0  0  0  0  0
  143.7691   80.5829  223.5362 H   0  0  0  0  0  0  0  0  0  0  0  0
  142.1772   82.2974  222.6901 H   0  0  0  0  0  0  0  0  0  0  0  0
  139.7709   81.7270  222.3974 H   0  0  0  0  0  0  0  0  0  0  0  0
  137.4750   78.6502  221.5185 H   0  0  0  0  0  0  0  0  0  0  0  0
  138.4376   76.8061  223.6633 H   0  0  0  0  0  0  0  0  0  0  0  0
  136.7617   77.2063  223.1021 H   0  0  0  0  0  0  0  0  0  0  0  0
  137.2901   74.9202  222.3861 H   0  0  0  0  0  0  0  0  0  0  0  0
  137.2493   75.9403  220.9452 H   0  0  0  0  0  0  0  0  0  0  0  0
  138.0760   73.3925  222.8455 H   0  0  0  0  0  0  0  0  0  0  0  0
  138.6960   72.4299  221.4174 H   0  0  0  0  0  0  0  0  0  0  0  0
  140.0163   72.5472  224.1905 H   0  0  0  0  0  0  0  0  0  0  0  0
  140.7470   71.7750  221.4450 H   0  0  0  0  0  0  0  0  0  0  0  0
  141.6820   72.2320  222.7890 H   0  0  0  0  0  0  0  0  0  0  0  0
  138.3505   71.0364  224.5205 H   0  0  0  0  0  0  0  0  0  0  0  0
  138.0505   70.8553  222.7364 H   0  0  0  0  0  0  0  0  0  0  0  0
  138.9946   68.8279  222.9432 H   0  0  0  0  0  0  0  0  0  0  0  0
  140.5525   69.7082  223.0659 H   0  0  0  0  0  0  0  0  0  0  0  0
  139.0390   66.9835  224.8941 H   0  0  0  0  0  0  0  0  0  0  0  0
  139.6010   67.0080  227.3640 H   0  0  0  0  0  0  0  0  0  0  0  0
  140.6325   68.9581  229.1711 H   0  0  0  0  0  0  0  0  0  0  0  0
  141.4160   71.3108  229.3086 H   0  0  0  0  0  0  0  0  0  0  0  0
  141.4217   72.7502  227.2792 H   0  0  0  0  0  0  0  0  0  0  0  0
  140.6302   71.8239  225.0848 H   0  0  0  0  0  0  0  0  0  0  0  0
  140.8404   76.6890  221.9303 H   0  0  0  0  0  0  0  0  0  0  0  0
  140.4190   76.2635  220.2060 H   0  0  0  0  0  0  0  0  0  0  0  0
  140.0521   78.6197  220.9999 H   0  0  0  0  0  0  0  0  0  0  0  0
  138.6946   77.6688  220.1358 H   0  0  0  0  0  0  0  0  0  0  0  0
  1  2  1  0
  2  3  1  0
  3  4  2  0
  3  5  1  0
  5  6  1  0
  6  7  2  0
  7  8  1  0
  8  9  2  0
  9 10  1  0
 10 11  2  0
  5 12  1  0
 12 13  1  0
 13 14  1  0
 14 15  1  0
 15 16  1  0
 16 17  2  0
 16 18  1  0
 18 19  1  0
 19 20  1  0
 19 21  1  0
 21 22  1  0
 22 23  1  0
 23 24  2  0
 24 25  1  0
 25 26  1  0
 26 27  2  0
 27 28  1  0
 28 29  2  0
 29 30  1  0
 30 31  2  0
 15 32  1  0
 32 33  1  0
 11  6  1  0
 33 12  1  0
 31 23  1  0
 31 26  1  0
  1 34  1  0
  1 35  1  0
  1 36  1  0
  2 37  1  0
  2 38  1  0
  7 39  1  0
  8 40  1  0
  9 41  1  0
 10 42  1  0
 11 43  1  0
 12 44  1  0
 13 45  1  0
 13 46  1  0
 14 47  1  0
 14 48  1  0
 18 49  1  0
 18 50  1  0
 19 51  1  1
 20 52  1  0
 20 53  1  0
 21 54  1  0
 21 55  1  0
 22 56  1  0
 22 57  1  0
 24 58  1  0
 25 59  1  0
 27 60  1  0
 28 61  1  0
 29 62  1  0
 30 63  1  0
 32 64  1  0
 32 65  1  0
 33 66  1  0
 33 67  1  0
M  END
>  <smiles>  (11) 
CCC(=O)N(c1ccccc1)C1CCN(C(=O)CC(N)CCc2c[nH]c3ccccc23)CC1

>  <score_type>  (11) 
oracle

>  <origin>  (11) 
autodockgpu

>  <m_score__min__energy>  (11) 
-9.5700000000000003

>  <m_primary>  (11) 
energy

>  <rmsd>  (11) 
11.174802409290589

>  <m_score__min__rmsd>  (11) 
11.174802409290589

>  <meeko>  (11) 
{"free_energy": -8.8, "intermolecular_energy": -11.78, "internal_energy": -2.35, "cluster_size": 26, "cluster_id": 2, "rank_in_cluster": 12}

>  <energy>  (11) 
-9.13

>  <cluster_rmsd>  (11) 
0.76

>  <cluster>  (11) 
2

$$$$

     RDKit          3D

 67 70  0  0  0  0  0  0  0  0999 V2000
  144.9080   74.0850  220.5280 C   0  0  0  0  0  0  0  0  0  0  0  0
  145.3840   72.6590  220.5160 C   0  0  0  0  0  0  0  0  0  0  0  0
  145.2050   71.9940  219.1950 C   0  0  0  0  0  0  0  0  0  0  0  0
  145.9370   72.4220  218.2620 O   0  0  0  0  0  0  0  0  0  0  0  0
  144.2570   70.9350  219.0020 N   0  0  0  0  0  0  0  0  0  0  0  0
  144.8330   69.6170  218.9140 C   0  0  0  0  0  0  0  0  0  0  0  0
  145.6940   69.4100  217.8420 C   0  0  0  0  0  0  0  0  0  0  0  0
  146.3080   68.1870  217.6560 C   0  0  0  0  0  0  0  0  0  0  0  0
  146.0360   67.1870  218.5690 C   0  0  0  0  0  0  0  0  0  0  0  0
  145.1690   67.3990  219.6480 C   0  0  0  0  0  0  0  0  0  0  0  0
  144.5650   68.6270  219.8170 C   0  0  0  0  0  0  0  0  0  0  0  0
  142.8330   71.1580  218.9070 C   0  0  0  0  0  0  0  0  0  0  0  0
  142.4660   72.5580  218.5560 C   0  0  0  0  0  0  0  0  0  0  0  0
  140.9880   72.8480  218.8630 C   0  0  0  0  0  0  0  0  0  0  0  0
  140.8850   72.8140  220.3140 N   0  0  0  0  0  0  0  0  0  0  0  0
  140.2850   73.8560  221.0730 C   0  0  0  0  0  0  0  0  0  0  0  0
  140.2420   73.7420  222.3460 O   0  0  0  0  0  0  0  0  0  0  0  0
  139.7120   75.0590  220.4690 C   0  0  0  0  0  0  0  0  0  0  0  0
  140.5230   76.3240  220.7220 C   0  0  2  0  0  0  0  0  0  0  0  0
  141.2420   76.0840  221.9820 N   0  0  0  0  0  0  0  0  0  0  0  0
  139.5400   77.4610  220.9090 C   0  0  0  0  0  0  0  0  0  0  0  0
  138.9960   77.5290  222.3320 C   0  0  0  0  0  0  0  0  0  0  0  0
  139.3030   78.8520  222.9020 C   0  0  0  0  0  0  0  0  0  0  0  0
  138.4340   79.8230  223.3980 C   0  0  0  0  0  0  0  0  0  0  0  0
  139.1440   80.8790  223.8230 N   0  0  0  0  0  0  0  0  0  0  0  0
  140.4430   80.6110  223.6140 C   0  0  0  0  0  0  0  0  0  0  0  0
  141.5670   81.3620  223.8730 C   0  0  0  0  0  0  0  0  0  0  0  0
  142.8270   80.8660  223.5630 C   0  0  0  0  0  0  0  0  0  0  0  0
  142.9610   79.6070  222.9880 C   0  0  0  0  0  0  0  0  0  0  0  0
  141.8270   78.8340  222.7190 C   0  0  0  0  0  0  0  0  0  0  0  0
  140.5790   79.3510  223.0380 C   0  0  0  0  0  0  0  0  0  0  0  0
  141.4320   71.6500  220.9760 C   0  0  0  0  0  0  0  0  0  0  0  0
  142.0190   70.6650  220.0400 C   0  0  0  0  0  0  0  0  0  0  0  0
  144.7945   74.4249  221.5680 H   0  0  0  0  0  0  0  0  0  0  0  0
  145.6425   74.7211  220.0124 H   0  0  0  0  0  0  0  0  0  0  0  0
  143.9387   74.1523  220.0124 H   0  0  0  0  0  0  0  0  0  0  0  0
  146.4535   72.6448  220.7730 H   0  0  0  0  0  0  0  0  0  0  0  0
  144.7772   72.1046  221.2471 H   0  0  0  0  0  0  0  0  0  0  0  0
  145.8882   70.2294  217.1343 H   0  0  0  0  0  0  0  0  0  0  0  0
  146.9899   68.0153  216.8102 H   0  0  0  0  0  0  0  0  0  0  0  0
  146.5108   66.2024  218.4459 H   0  0  0  0  0  0  0  0  0  0  0  0
  144.9697   66.5855  220.3611 H   0  0  0  0  0  0  0  0  0  0  0  0
  143.8821   68.8059  220.6606 H   0  0  0  0  0  0  0  0  0  0  0  0
  142.5632   70.5130  218.0577 H   0  0  0  0  0  0  0  0  0  0  0  0
  143.0939   73.2485  219.1381 H   0  0  0  0  0  0  0  0  0  0  0  0
  142.6274   72.6963  217.4767 H   0  0  0  0  0  0  0  0  0  0  0  0
  140.7016   73.8383  218.4792 H   0  0  0  0  0  0  0  0  0  0  0  0
  140.3184   72.1169  218.3865 H   0  0  0  0  0  0  0  0  0  0  0  0
  139.6448   74.9024  219.3823 H   0  0  0  0  0  0  0  0  0  0  0  0
  138.7278   75.2124  220.9356 H   0  0  0  0  0  0  0  0  0  0  0  0
  141.2178   76.5676  219.9047 H   0  0  0  0  0  0  0  0  0  0  0  0
  140.5740   75.8360  222.7590 H   0  0  0  0  0  0  0  0  0  0  0  0
  141.8500   75.2440  221.8040 H   0  0  0  0  0  0  0  0  0  0  0  0
  140.0482   78.4091  220.6791 H   0  0  0  0  0  0  0  0  0  0  0  0
  138.6905   77.2855  220.2325 H   0  0  0  0  0  0  0  0  0  0  0  0
  137.9065   77.3778  222.3176 H   0  0  0  0  0  0  0  0  0  0  0  0
  139.4623   76.7438  222.9452 H   0  0  0  0  0  0  0  0  0  0  0  0
  137.3380   79.7367  223.4350 H   0  0  0  0  0  0  0  0  0  0  0  0
  138.6900   81.7240  224.2340 H   0  0  0  0  0  0  0  0  0  0  0  0
  141.4672   82.3588  224.3272 H   0  0  0  0  0  0  0  0  0  0  0  0
  143.7214   81.4710  223.7730 H   0  0  0  0  0  0  0  0  0  0  0  0
  143.9608   79.2184  222.7443 H   0  0  0  0  0  0  0  0  0  0  0  0
  141.9221   77.8370  222.2641 H   0  0  0  0  0  0  0  0  0  0  0  0
  142.2170   71.9810  221.6719 H   0  0  0  0  0  0  0  0  0  0  0  0
  140.6009   71.1503  221.4953 H   0  0  0  0  0  0  0  0  0  0  0  0
  142.6610   69.9974  220.6334 H   0  0  0  0  0  0  0  0  0  0  0  0
  141.1455   70.2008  219.5588 H   0  0  0  0  0  0  0  0  0  0  0  0
  1  2  1  0
  2  3  1  0
  3  4  2  0
  3  5  1  0
  5  6  1  0
  6  7  2  0
  7  8  1  0
  8  9  2  0
  9 10  1  0
 10 11  2  0
  5 12  1  0
 12 13  1  0
 13 14  1  0
 14 15  1  0
 15 16  1  0
 16 17  2  0
 16 18  1  0
 18 19  1  0
 19 20  1  0
 19 21  1  0
 21 22  1  0
 22 23  1  0
 23 24  2  0
 24 25  1  0
 25 26  1  0
 26 27  2  0
 27 28  1  0
 28 29  2  0
 29 30  1  0
 30 31  2  0
 15 32  1  0
 32 33  1  0
 11  6  1  0
 33 12  1  0
 31 23  1  0
 31 26  1  0
  1 34  1  0
  1 35  1  0
  1 36  1  0
  2 37  1  0
  2 38  1  0
  7 39  1  0
  8 40  1  0
  9 41  1  0
 10 42  1  0
 11 43  1  0
 12 44  1  0
 13 45  1  0
 13 46  1  0
 14 47  1  0
 14 48  1  0
 18 49  1  0
 18 50  1  0
 19 51  1  6
 20 52  1  0
 20 53  1  0
 21 54  1  0
 21 55  1  0
 22 56  1  0
 22 57  1  0
 24 58  1  0
 25 59  1  0
 27 60  1  0
 28 61  1  0
 29 62  1  0
 30 63  1  0
 32 64  1  0
 32 65  1  0
 33 66  1  0
 33 67  1  0
M  END
>  <smiles>  (12) 
CCC(=O)N(c1ccccc1)C1CCN(C(=O)CC(N)CCc2c[nH]c3ccccc23)CC1

>  <score_type>  (12) 
oracle

>  <origin>  (12) 
autodockgpu

>  <m_score__min__energy>  (12) 
-9.5700000000000003

>  <m_primary>  (12) 
energy

>  <rmsd>  (12) 
6.056102226098774

>  <m_score__min__rmsd>  (12) 
6.056102226098774

>  <meeko>  (12) 
{"free_energy": -7.78, "intermolecular_energy": -10.76, "internal_energy": -2.61, "cluster_size": 1, "cluster_id": 10, "rank_in_cluster": 1}

>  <energy>  (12) 
-8.93

>  <cluster_rmsd>  (12) 
1.61

>  <cluster>  (12) 
2

$$$$

     RDKit          3D

 67 70  0  0  0  0  0  0  0  0999 V2000
  146.0180   73.7120  221.1160 C   0  0  0  0  0  0  0  0  0  0  0  0
  145.3360   72.8290  220.1090 C   0  0  0  0  0  0  0  0  0  0  0  0
  144.4380   73.5790  219.1870 C   0  0  0  0  0  0  0  0  0  0  0  0
  144.7480   73.5370  217.9640 O   0  0  0  0  0  0  0  0  0  0  0  0
  143.2940   74.3030  219.6630 N   0  0  0  0  0  0  0  0  0  0  0  0
  142.9180   75.4370  218.8580 C   0  0  0  0  0  0  0  0  0  0  0  0
  142.1000   75.1550  217.7700 C   0  0  0  0  0  0  0  0  0  0  0  0
  141.6720   76.1620  216.9290 C   0  0  0  0  0  0  0  0  0  0  0  0
  142.0860   77.4500  217.2070 C   0  0  0  0  0  0  0  0  0  0  0  0
  142.9100   77.7310  218.3040 C   0  0  0  0  0  0  0  0  0  0  0  0
  143.3270   76.7120  219.1330 C   0  0  0  0  0  0  0  0  0  0  0  0
  142.5660   73.9300  220.8530 C   0  0  0  0  0  0  0  0  0  0  0  0
  141.9860   72.5600  220.7990 C   0  0  0  0  0  0  0  0  0  0  0  0
  140.9050   72.3620  221.8740 C   0  0  0  0  0  0  0  0  0  0  0  0
  139.8030   73.2220  221.4710 N   0  0  0  0  0  0  0  0  0  0  0  0
  138.4610   72.7630  221.3590 C   0  0  0  0  0  0  0  0  0  0  0  0
  137.5580   73.5910  220.9920 O   0  0  0  0  0  0  0  0  0  0  0  0
  138.0600   71.3850  221.6420 C   0  0  0  0  0  0  0  0  0  0  0  0
  137.2170   71.2340  222.9020 C   0  0  2  0  0  0  0  0  0  0  0  0
  136.5580   72.5340  223.0930 N   0  0  0  0  0  0  0  0  0  0  0  0
  138.1670   70.9740  224.0530 C   0  0  0  0  0  0  0  0  0  0  0  0
  139.0810   69.7820  223.7930 C   0  0  0  0  0  0  0  0  0  0  0  0
  139.5470   69.2440  225.0820 C   0  0  0  0  0  0  0  0  0  0  0  0
  139.4940   67.9370  225.5650 C   0  0  0  0  0  0  0  0  0  0  0  0
  140.0380   67.8930  226.7910 N   0  0  0  0  0  0  0  0  0  0  0  0
  140.4400   69.1350  227.1050 C   0  0  0  0  0  0  0  0  0  0  0  0
  141.0530   69.6200  228.2380 C   0  0  0  0  0  0  0  0  0  0  0  0
  141.3770   70.9670  228.3370 C   0  0  0  0  0  0  0  0  0  0  0  0
  141.0850   71.8360  227.2900 C   0  0  0  0  0  0  0  0  0  0  0  0
  140.4630   71.3560  226.1330 C   0  0  0  0  0  0  0  0  0  0  0  0
  140.1480   70.0060  226.0590 C   0  0  0  0  0  0  0  0  0  0  0  0
  140.1300   74.6000  221.1760 C   0  0  0  0  0  0  0  0  0  0  0  0
  141.5690   74.9090  221.3400 C   0  0  0  0  0  0  0  0  0  0  0  0
  145.7596   73.3775  222.1315 H   0  0  0  0  0  0  0  0  0  0  0  0
  147.1076   73.6534  220.9767 H   0  0  0  0  0  0  0  0  0  0  0  0
  145.6860   74.7514  220.9767 H   0  0  0  0  0  0  0  0  0  0  0  0
  146.1064   72.3206  219.5106 H   0  0  0  0  0  0  0  0  0  0  0  0
  144.7113   72.1164  220.6675 H   0  0  0  0  0  0  0  0  0  0  0  0
  141.7903   74.1173  217.5772 H   0  0  0  0  0  0  0  0  0  0  0  0
  141.0235   75.9463  216.0670 H   0  0  0  0  0  0  0  0  0  0  0  0
  141.7616   78.2727  216.5528 H   0  0  0  0  0  0  0  0  0  0  0  0
  143.2247   78.7659  218.5041 H   0  0  0  0  0  0  0  0  0  0  0  0
  143.9749   76.9202  219.9972 H   0  0  0  0  0  0  0  0  0  0  0  0
  143.3635   73.9305  221.6106 H   0  0  0  0  0  0  0  0  0  0  0  0
  141.5371   72.4009  219.8074 H   0  0  0  0  0  0  0  0  0  0  0  0
  142.7933   71.8363  220.9846 H   0  0  0  0  0  0  0  0  0  0  0  0
  140.5818   71.3111  221.9069 H   0  0  0  0  0  0  0  0  0  0  0  0
  141.2748   72.6121  222.8793 H   0  0  0  0  0  0  0  0  0  0  0  0
  137.4760   71.0118  220.7878 H   0  0  0  0  0  0  0  0  0  0  0  0
  138.9838   70.8106  221.8051 H   0  0  0  0  0  0  0  0  0  0  0  0
  136.4815   70.4184  222.8390 H   0  0  0  0  0  0  0  0  0  0  0  0
  137.2670   73.3110  223.1660 H   0  0  0  0  0  0  0  0  0  0  0  0
  135.9970   72.6970  222.2180 H   0  0  0  0  0  0  0  0  0  0  0  0
  138.7882   71.8686  224.2075 H   0  0  0  0  0  0  0  0  0  0  0  0
  137.5619   70.7454  224.9427 H   0  0  0  0  0  0  0  0  0  0  0  0
  138.5263   69.0042  223.2478 H   0  0  0  0  0  0  0  0  0  0  0  0
  139.9440   70.1005  223.1898 H   0  0  0  0  0  0  0  0  0  0  0  0
  139.0721   67.0763  225.0253 H   0  0  0  0  0  0  0  0  0  0  0  0
  140.1010   67.0080  227.3390 H   0  0  0  0  0  0  0  0  0  0  0  0
  141.2873   68.9379  229.0686 H   0  0  0  0  0  0  0  0  0  0  0  0
  141.8659   71.3480  229.2457 H   0  0  0  0  0  0  0  0  0  0  0  0
  141.3438   72.9019  227.3725 H   0  0  0  0  0  0  0  0  0  0  0  0
  140.2283   72.0339  225.2991 H   0  0  0  0  0  0  0  0  0  0  0  0
  139.8440   74.8115  220.1351 H   0  0  0  0  0  0  0  0  0  0  0  0
  139.5787   75.2262  221.8930 H   0  0  0  0  0  0  0  0  0  0  0  0
  141.7593   75.8549  220.8118 H   0  0  0  0  0  0  0  0  0  0  0  0
  141.7170   74.9212  222.4299 H   0  0  0  0  0  0  0  0  0  0  0  0
  1  2  1  0
  2  3  1  0
  3  4  2  0
  3  5  1  0
  5  6  1  0
  6  7  2  0
  7  8  1  0
  8  9  2  0
  9 10  1  0
 10 11  2  0
  5 12  1  0
 12 13  1  0
 13 14  1  0
 14 15  1  0
 15 16  1  0
 16 17  2  0
 16 18  1  0
 18 19  1  0
 19 20  1  0
 19 21  1  0
 21 22  1  0
 22 23  1  0
 23 24  2  0
 24 25  1  0
 25 26  1  0
 26 27  2  0
 27 28  1  0
 28 29  2  0
 29 30  1  0
 30 31  2  0
 15 32  1  0
 32 33  1  0
 11  6  1  0
 33 12  1  0
 31 23  1  0
 31 26  1  0
  1 34  1  0
  1 35  1  0
  1 36  1  0
  2 37  1  0
  2 38  1  0
  7 39  1  0
  8 40  1  0
  9 41  1  0
 10 42  1  0
 11 43  1  0
 12 44  1  0
 13 45  1  0
 13 46  1  0
 14 47  1  0
 14 48  1  0
 18 49  1  0
 18 50  1  0
 19 51  1  6
 20 52  1  0
 20 53  1  0
 21 54  1  0
 21 55  1  0
 22 56  1  0
 22 57  1  0
 24 58  1  0
 25 59  1  0
 27 60  1  0
 28 61  1  0
 29 62  1  0
 30 63  1  0
 32 64  1  0
 32 65  1  0
 33 66  1  0
 33 67  1  0
M  END
>  <smiles>  (13) 
CCC(=O)N(c1ccccc1)C1CCN(C(=O)CC(N)CCc2c[nH]c3ccccc23)CC1

>  <score_type>  (13) 
oracle

>  <origin>  (13) 
autodockgpu

>  <m_score__min__energy>  (13) 
-9.5700000000000003

>  <m_primary>  (13) 
energy

>  <rmsd>  (13) 
11.361024992069243

>  <m_score__min__rmsd>  (13) 
11.361024992069243

>  <meeko>  (13) 
{"free_energy": -7.91, "intermolecular_energy": -10.89, "internal_energy": -2.79, "cluster_size": 2, "cluster_id": 7, "rank_in_cluster": 2}

>  <energy>  (13) 
-8.87

>  <cluster_rmsd>  (13) 
0.86

>  <cluster>  (13) 
2

$$$$

     RDKit          3D

 67 70  0  0  0  0  0  0  0  0999 V2000
  142.5560   79.2050  218.1380 C   0  0  0  0  0  0  0  0  0  0  0  0
  142.0090   77.8200  218.3420 C   0  0  0  0  0  0  0  0  0  0  0  0
  142.2240   77.3040  219.7230 C   0  0  0  0  0  0  0  0  0  0  0  0
  143.3280   76.7280  219.9270 O   0  0  0  0  0  0  0  0  0  0  0  0
  141.2360   77.4550  220.7510 N   0  0  0  0  0  0  0  0  0  0  0  0
  141.4890   78.5270  221.6810 C   0  0  0  0  0  0  0  0  0  0  0  0
  141.6250   79.7900  221.1160 C   0  0  0  0  0  0  0  0  0  0  0  0
  141.8660   80.8940  221.9080 C   0  0  0  0  0  0  0  0  0  0  0  0
  141.9670   80.6970  223.2720 C   0  0  0  0  0  0  0  0  0  0  0  0
  141.8310   79.4230  223.8370 C   0  0  0  0  0  0  0  0  0  0  0  0
  141.5900   78.3320  223.0290 C   0  0  0  0  0  0  0  0  0  0  0  0
  140.0710   76.6080  220.8550 C   0  0  0  0  0  0  0  0  0  0  0  0
  139.9280   75.9400  222.1790 C   0  0  0  0  0  0  0  0  0  0  0  0
  138.9410   74.7640  222.1140 C   0  0  0  0  0  0  0  0  0  0  0  0
  139.5960   73.7610  221.2880 N   0  0  0  0  0  0  0  0  0  0  0  0
  139.7470   72.4040  221.6880 C   0  0  0  0  0  0  0  0  0  0  0  0
  140.3400   71.5930  220.8970 O   0  0  0  0  0  0  0  0  0  0  0  0
  139.2560   71.8870  222.9660 C   0  0  0  0  0  0  0  0  0  0  0  0
  137.8630   71.2750  222.8900 C   0  0  2  0  0  0  0  0  0  0  0  0
  136.9610   72.2770  223.4790 N   0  0  0  0  0  0  0  0  0  0  0  0
  137.8680   70.0310  223.7530 C   0  0  0  0  0  0  0  0  0  0  0  0
  139.2270   69.3410  223.7680 C   0  0  0  0  0  0  0  0  0  0  0  0
  139.5780   68.9960  225.1560 C   0  0  0  0  0  0  0  0  0  0  0  0
  139.5020   67.7660  225.8070 C   0  0  0  0  0  0  0  0  0  0  0  0
  139.9270   67.9060  227.0720 N   0  0  0  0  0  0  0  0  0  0  0  0
  140.2750   69.1910  227.2480 C   0  0  0  0  0  0  0  0  0  0  0  0
  140.7670   69.8440  228.3550 C   0  0  0  0  0  0  0  0  0  0  0  0
  141.0570   71.2000  228.2970 C   0  0  0  0  0  0  0  0  0  0  0  0
  140.8510   71.9100  227.1180 C   0  0  0  0  0  0  0  0  0  0  0  0
  140.3510   71.2590  225.9860 C   0  0  0  0  0  0  0  0  0  0  0  0
  140.0690   69.9030  226.0690 C   0  0  0  0  0  0  0  0  0  0  0  0
  140.1050   74.2050  220.0090 C   0  0  0  0  0  0  0  0  0  0  0  0
  139.8660   75.6430  219.7510 C   0  0  0  0  0  0  0  0  0  0  0  0
  142.7411   79.6738  219.1157 H   0  0  0  0  0  0  0  0  0  0  0  0
  143.4989   79.1475  217.5745 H   0  0  0  0  0  0  0  0  0  0  0  0
  141.8282   79.8073  217.5745 H   0  0  0  0  0  0  0  0  0  0  0  0
  140.9280   77.8372  218.1391 H   0  0  0  0  0  0  0  0  0  0  0  0
  142.5467   77.1506  217.6544 H   0  0  0  0  0  0  0  0  0  0  0  0
  141.5396   79.9105  220.0260 H   0  0  0  0  0  0  0  0  0  0  0  0
  141.9740   81.8966  221.4686 H   0  0  0  0  0  0  0  0  0  0  0  0
  142.1583   81.5592  223.9278 H   0  0  0  0  0  0  0  0  0  0  0  0
  141.9165   79.2925  224.9259 H   0  0  0  0  0  0  0  0  0  0  0  0
  141.4814   77.3262  223.4608 H   0  0  0  0  0  0  0  0  0  0  0  0
  139.2558   77.3396  220.7538 H   0  0  0  0  0  0  0  0  0  0  0  0
  140.9114   75.5638  222.4974 H   0  0  0  0  0  0  0  0  0  0  0  0
  139.5390   76.6772  222.8968 H   0  0  0  0  0  0  0  0  0  0  0  0
  138.7470   74.3672  223.1214 H   0  0  0  0  0  0  0  0  0  0  0  0
  137.9681   75.0664  221.6993 H   0  0  0  0  0  0  0  0  0  0  0  0
  139.9550   71.1143  223.3186 H   0  0  0  0  0  0  0  0  0  0  0  0
  139.1915   72.7434  223.6533 H   0  0  0  0  0  0  0  0  0  0  0  0
  137.5574   71.0130  221.8663 H   0  0  0  0  0  0  0  0  0  0  0  0
  137.0420   72.2890  224.5300 H   0  0  0  0  0  0  0  0  0  0  0  0
  137.3020   73.2060  223.1230 H   0  0  0  0  0  0  0  0  0  0  0  0
  137.6039   70.3140  224.7826 H   0  0  0  0  0  0  0  0  0  0  0  0
  137.1378   69.3256  223.3296 H   0  0  0  0  0  0  0  0  0  0  0  0
  139.1814   68.4247  223.1611 H   0  0  0  0  0  0  0  0  0  0  0  0
  139.9891   70.0152  223.3501 H   0  0  0  0  0  0  0  0  0  0  0  0
  139.1489   66.8275  225.3547 H   0  0  0  0  0  0  0  0  0  0  0  0
  139.9530   67.1050  227.7400 H   0  0  0  0  0  0  0  0  0  0  0  0
  140.9312   69.2886  229.2902 H   0  0  0  0  0  0  0  0  0  0  0  0
  141.4509   71.7150  229.1856 H   0  0  0  0  0  0  0  0  0  0  0  0
  141.0818   72.9847  227.0765 H   0  0  0  0  0  0  0  0  0  0  0  0
  140.1846   71.8106  225.0489 H   0  0  0  0  0  0  0  0  0  0  0  0
  141.1891   74.0208  219.9817 H   0  0  0  0  0  0  0  0  0  0  0  0
  139.5691   73.6410  219.2314 H   0  0  0  0  0  0  0  0  0  0  0  0
  140.5374   75.9408  218.9321 H   0  0  0  0  0  0  0  0  0  0  0  0
  138.7874   75.7009  219.5431 H   0  0  0  0  0  0  0  0  0  0  0  0
  1  2  1  0
  2  3  1  0
  3  4  2  0
  3  5  1  0
  5  6  1  0
  6  7  2  0
  7  8  1  0
  8  9  2  0
  9 10  1  0
 10 11  2  0
  5 12  1  0
 12 13  1  0
 13 14  1  0
 14 15  1  0
 15 16  1  0
 16 17  2  0
 16 18  1  0
 18 19  1  0
 19 20  1  0
 19 21  1  0
 21 22  1  0
 22 23  1  0
 23 24  2  0
 24 25  1  0
 25 26  1  0
 26 27  2  0
 27 28  1  0
 28 29  2  0
 29 30  1  0
 30 31  2  0
 15 32  1  0
 32 33  1  0
 11  6  1  0
 33 12  1  0
 31 23  1  0
 31 26  1  0
  1 34  1  0
  1 35  1  0
  1 36  1  0
  2 37  1  0
  2 38  1  0
  7 39  1  0
  8 40  1  0
  9 41  1  0
 10 42  1  0
 11 43  1  0
 12 44  1  0
 13 45  1  0
 13 46  1  0
 14 47  1  0
 14 48  1  0
 18 49  1  0
 18 50  1  0
 19 51  1  6
 20 52  1  0
 20 53  1  0
 21 54  1  0
 21 55  1  0
 22 56  1  0
 22 57  1  0
 24 58  1  0
 25 59  1  0
 27 60  1  0
 28 61  1  0
 29 62  1  0
 30 63  1  0
 32 64  1  0
 32 65  1  0
 33 66  1  0
 33 67  1  0
M  END
>  <smiles>  (14) 
CCC(=O)N(c1ccccc1)C1CCN(C(=O)CC(N)CCc2c[nH]c3ccccc23)CC1

>  <score_type>  (14) 
oracle

>  <origin>  (14) 
autodockgpu

>  <m_score__min__energy>  (14) 
-9.5700000000000003

>  <m_primary>  (14) 
energy

>  <rmsd>  (14) 
11.526123473315035

>  <m_score__min__rmsd>  (14) 
11.526123473315035

>  <meeko>  (14) 
{"free_energy": -9.51, "intermolecular_energy": -12.49, "internal_energy": -1.54, "cluster_size": 26, "cluster_id": 2, "rank_in_cluster": 2}

>  <energy>  (14) 
-8.8

>  <cluster_rmsd>  (14) 
1.64

>  <cluster>  (14) 
2

$$$$

     RDKit          3D

 67 70  0  0  0  0  0  0  0  0999 V2000
  140.7860   82.5050  220.2700 C   0  0  0  0  0  0  0  0  0  0  0  0
  140.4890   81.2750  219.4600 C   0  0  0  0  0  0  0  0  0  0  0  0
  141.6690   80.3800  219.3000 C   0  0  0  0  0  0  0  0  0  0  0  0
  142.6030   80.8270  218.5790 O   0  0  0  0  0  0  0  0  0  0  0  0
  141.7350   79.0930  219.9290 N   0  0  0  0  0  0  0  0  0  0  0  0
  141.8480   79.1270  221.3660 C   0  0  0  0  0  0  0  0  0  0  0  0
  142.5540   80.2060  221.8860 C   0  0  0  0  0  0  0  0  0  0  0  0
  142.7240   80.3460  223.2480 C   0  0  0  0  0  0  0  0  0  0  0  0
  142.1720   79.3810  224.0680 C   0  0  0  0  0  0  0  0  0  0  0  0
  141.4620   78.2950  223.5400 C   0  0  0  0  0  0  0  0  0  0  0  0
  141.3020   78.1730  222.1770 C   0  0  0  0  0  0  0  0  0  0  0  0
  141.6880   77.8520  219.1920 C   0  0  0  0  0  0  0  0  0  0  0  0
  140.5650   76.9590  219.5880 C   0  0  0  0  0  0  0  0  0  0  0  0
  140.7850   75.5210  219.0920 C   0  0  0  0  0  0  0  0  0  0  0  0
  141.9150   75.0200  219.8600 N   0  0  0  0  0  0  0  0  0  0  0  0
  141.8880   73.7850  220.5640 C   0  0  0  0  0  0  0  0  0  0  0  0
  142.9280   73.4270  221.2170 O   0  0  0  0  0  0  0  0  0  0  0  0
  140.7240   72.8980  220.5810 C   0  0  0  0  0  0  0  0  0  0  0  0
  139.9010   72.9840  221.8600 C   0  0  2  0  0  0  0  0  0  0  0  0
  139.7870   74.4200  222.1580 N   0  0  0  0  0  0  0  0  0  0  0  0
  140.6930   72.3020  222.9550 C   0  0  0  0  0  0  0  0  0  0  0  0
  139.9210   71.1580  223.6040 C   0  0  0  0  0  0  0  0  0  0  0  0
  140.3930   70.9820  224.9870 C   0  0  0  0  0  0  0  0  0  0  0  0
  141.0690   71.8810  225.8120 C   0  0  0  0  0  0  0  0  0  0  0  0
  141.3030   71.3040  227.0000 N   0  0  0  0  0  0  0  0  0  0  0  0
  140.7950   70.0620  226.9610 C   0  0  0  0  0  0  0  0  0  0  0  0
  140.7740   69.0700  227.9140 C   0  0  0  0  0  0  0  0  0  0  0  0
  140.1820   67.8450  227.6370 C   0  0  0  0  0  0  0  0  0  0  0  0
  139.6060   67.6110  226.3930 C   0  0  0  0  0  0  0  0  0  0  0  0
  139.6200   68.6100  225.4150 C   0  0  0  0  0  0  0  0  0  0  0  0
  140.2180   69.8260  225.7150 C   0  0  0  0  0  0  0  0  0  0  0  0
  143.1010   75.8490  219.8850 C   0  0  0  0  0  0  0  0  0  0  0  0
  142.9590   77.0980  219.1040 C   0  0  0  0  0  0  0  0  0  0  0  0
  140.7272   82.2617  221.3411 H   0  0  0  0  0  0  0  0  0  0  0  0
  141.7972   82.8661  220.0310 H   0  0  0  0  0  0  0  0  0  0  0  0
  140.0510   83.2878  220.0310 H   0  0  0  0  0  0  0  0  0  0  0  0
  139.6879   80.7115  219.9606 H   0  0  0  0  0  0  0  0  0  0  0  0
  140.1925   81.6088  218.4547 H   0  0  0  0  0  0  0  0  0  0  0  0
  142.9815   80.9560  221.2043 H   0  0  0  0  0  0  0  0  0  0  0  0
  143.2804   81.1974  223.6669 H   0  0  0  0  0  0  0  0  0  0  0  0
  142.2925   79.4671  225.1580 H   0  0  0  0  0  0  0  0  0  0  0  0
  141.0321   77.5393  224.2138 H   0  0  0  0  0  0  0  0  0  0  0  0
  140.7461   77.3249  221.7507 H   0  0  0  0  0  0  0  0  0  0  0  0
  141.4933   78.2084  218.1697 H   0  0  0  0  0  0  0  0  0  0  0  0
  140.4855   76.9502  220.6851 H   0  0  0  0  0  0  0  0  0  0  0  0
  139.6414   77.3436  219.1308 H   0  0  0  0  0  0  0  0  0  0  0  0
  139.8906   74.9081  219.2776 H   0  0  0  0  0  0  0  0  0  0  0  0
  140.9759   75.4847  218.0093 H   0  0  0  0  0  0  0  0  0  0  0  0
  140.0749   73.1621  219.7331 H   0  0  0  0  0  0  0  0  0  0  0  0
  141.1061   71.8686  220.5158 H   0  0  0  0  0  0  0  0  0  0  0  0
  138.9108   72.5128  221.7733 H   0  0  0  0  0  0  0  0  0  0  0  0
  139.2730   74.5790  223.0650 H   0  0  0  0  0  0  0  0  0  0  0  0
  140.7740   74.7600  222.2870 H   0  0  0  0  0  0  0  0  0  0  0  0
  141.6214   71.9010  222.5222 H   0  0  0  0  0  0  0  0  0  0  0  0
  140.9019   73.0502  223.7338 H   0  0  0  0  0  0  0  0  0  0  0  0
  138.8468   71.3945  223.6087 H   0  0  0  0  0  0  0  0  0  0  0  0
  140.0852   70.2307  223.0356 H   0  0  0  0  0  0  0  0  0  0  0  0
  141.3640   72.9031  225.5321 H   0  0  0  0  0  0  0  0  0  0  0  0
  141.8000   71.8030  227.7710 H   0  0  0  0  0  0  0  0  0  0  0  0
  141.2283   69.2481  228.8999 H   0  0  0  0  0  0  0  0  0  0  0  0
  140.1686   67.0568  228.4042 H   0  0  0  0  0  0  0  0  0  0  0  0
  139.1388   66.6386  226.1782 H   0  0  0  0  0  0  0  0  0  0  0  0
  139.1664   68.4358  224.4281 H   0  0  0  0  0  0  0  0  0  0  0  0
  143.3200   76.1137  220.9300 H   0  0  0  0  0  0  0  0  0  0  0  0
  143.9142   75.2681  219.4253 H   0  0  0  0  0  0  0  0  0  0  0  0
  143.7610   77.7765  219.4302 H   0  0  0  0  0  0  0  0  0  0  0  0
  142.9987   76.7636  218.0568 H   0  0  0  0  0  0  0  0  0  0  0  0
  1  2  1  0
  2  3  1  0
  3  4  2  0
  3  5  1  0
  5  6  1  0
  6  7  2  0
  7  8  1  0
  8  9  2  0
  9 10  1  0
 10 11  2  0
  5 12  1  0
 12 13  1  0
 13 14  1  0
 14 15  1  0
 15 16  1  0
 16 17  2  0
 16 18  1  0
 18 19  1  0
 19 20  1  0
 19 21  1  0
 21 22  1  0
 22 23  1  0
 23 24  2  0
 24 25  1  0
 25 26  1  0
 26 27  2  0
 27 28  1  0
 28 29  2  0
 29 30  1  0
 30 31  2  0
 15 32  1  0
 32 33  1  0
 11  6  1  0
 33 12  1  0
 31 23  1  0
 31 26  1  0
  1 34  1  0
  1 35  1  0
  1 36  1  0
  2 37  1  0
  2 38  1  0
  7 39  1  0
  8 40  1  0
  9 41  1  0
 10 42  1  0
 11 43  1  0
 12 44  1  0
 13 45  1  0
 13 46  1  0
 14 47  1  0
 14 48  1  0
 18 49  1  0
 18 50  1  0
 19 51  1  6
 20 52  1  0
 20 53  1  0
 21 54  1  0
 21 55  1  0
 22 56  1  0
 22 57  1  0
 24 58  1  0
 25 59  1  0
 27 60  1  0
 28 61  1  0
 29 62  1  0
 30 63  1  0
 32 64  1  0
 32 65  1  0
 33 66  1  0
 33 67  1  0
M  END
>  <smiles>  (15) 
CCC(=O)N(c1ccccc1)C1CCN(C(=O)CC(N)CCc2c[nH]c3ccccc23)CC1

>  <score_type>  (15) 
oracle

>  <origin>  (15) 
autodockgpu

>  <m_score__min__energy>  (15) 
-9.5700000000000003

>  <m_primary>  (15) 
energy

>  <rmsd>  (15) 
10.469362530406315

>  <m_score__min__rmsd>  (15) 
10.469362530406315

>  <meeko>  (15) 
{"free_energy": -8.88, "intermolecular_energy": -11.86, "internal_energy": -1.58, "cluster_size": 7, "cluster_id": 3, "rank_in_cluster": 1}

>  <energy>  (15) 
-8.77

>  <cluster_rmsd>  (15) 
1.63

>  <cluster>  (15) 
2

$$$$

     RDKit          3D

 67 70  0  0  0  0  0  0  0  0999 V2000
  142.5570   80.3950  218.2300 C   0  0  0  0  0  0  0  0  0  0  0  0
  142.3790   78.9320  218.5240 C   0  0  0  0  0  0  0  0  0  0  0  0
  141.2260   78.6520  219.4250 C   0  0  0  0  0  0  0  0  0  0  0  0
  140.0840   78.7280  218.8940 O   0  0  0  0  0  0  0  0  0  0  0  0
  141.4080   78.3190  220.8080 N   0  0  0  0  0  0  0  0  0  0  0  0
  141.6400   79.4460  221.6760 C   0  0  0  0  0  0  0  0  0  0  0  0
  140.8370   80.5570  221.4430 C   0  0  0  0  0  0  0  0  0  0  0  0
  140.9670   81.6940  222.2140 C   0  0  0  0  0  0  0  0  0  0  0  0
  141.9160   81.6860  223.2170 C   0  0  0  0  0  0  0  0  0  0  0  0
  142.7230   80.5650  223.4490 C   0  0  0  0  0  0  0  0  0  0  0  0
  142.5790   79.4380  222.6690 C   0  0  0  0  0  0  0  0  0  0  0  0
  141.3620   76.9640  221.3040 C   0  0  0  0  0  0  0  0  0  0  0  0
  140.8370   75.9790  220.3180 C   0  0  0  0  0  0  0  0  0  0  0  0
  140.4250   74.6630  220.9980 C   0  0  0  0  0  0  0  0  0  0  0  0
  139.2630   74.9990  221.8070 N   0  0  0  0  0  0  0  0  0  0  0  0
  138.0420   74.2710  221.7490 C   0  0  0  0  0  0  0  0  0  0  0  0
  137.0710   74.6410  222.4940 O   0  0  0  0  0  0  0  0  0  0  0  0
  137.8390   73.1150  220.8760 C   0  0  0  0  0  0  0  0  0  0  0  0
  137.7020   71.7930  221.6220 C   0  0  2  0  0  0  0  0  0  0  0  0
  137.0730   72.1310  222.9070 N   0  0  0  0  0  0  0  0  0  0  0  0
  139.1000   71.2660  221.8660 C   0  0  0  0  0  0  0  0  0  0  0  0
  139.6870   71.7660  223.1820 C   0  0  0  0  0  0  0  0  0  0  0  0
  139.5650   70.7070  224.1970 C   0  0  0  0  0  0  0  0  0  0  0  0
  138.9970   69.4380  224.0870 C   0  0  0  0  0  0  0  0  0  0  0  0
  139.1060   68.7990  225.2620 N   0  0  0  0  0  0  0  0  0  0  0  0
  139.7290   69.6220  226.1200 C   0  0  0  0  0  0  0  0  0  0  0  0
  140.0790   69.4450  227.4400 C   0  0  0  0  0  0  0  0  0  0  0  0
  140.7280   70.4580  228.1340 C   0  0  0  0  0  0  0  0  0  0  0  0
  141.0290   71.6590  227.5000 C   0  0  0  0  0  0  0  0  0  0  0  0
  140.6790   71.8520  226.1600 C   0  0  0  0  0  0  0  0  0  0  0  0
  140.0310   70.8250  225.4880 C   0  0  0  0  0  0  0  0  0  0  0  0
  139.3950   76.1330  222.6950 C   0  0  0  0  0  0  0  0  0  0  0  0
  140.7270   76.7760  222.6280 C   0  0  0  0  0  0  0  0  0  0  0  0
  142.6249   80.9533  219.1753 H   0  0  0  0  0  0  0  0  0  0  0  0
  143.4798   80.5428  217.6497 H   0  0  0  0  0  0  0  0  0  0  0  0
  141.6966   80.7597  217.6497 H   0  0  0  0  0  0  0  0  0  0  0  0
  142.2177   78.4013  217.5741 H   0  0  0  0  0  0  0  0  0  0  0  0
  143.2882   78.5884  219.0391 H   0  0  0  0  0  0  0  0  0  0  0  0
  140.0904   80.5293  220.6357 H   0  0  0  0  0  0  0  0  0  0  0  0
  140.3358   82.5771  222.0356 H   0  0  0  0  0  0  0  0  0  0  0  0
  142.0408   82.5789  223.8471 H   0  0  0  0  0  0  0  0  0  0  0  0
  143.4722   80.5842  224.2542 H   0  0  0  0  0  0  0  0  0  0  0  0
  143.2063   78.5511  222.8419 H   0  0  0  0  0  0  0  0  0  0  0  0
  142.4293   76.7501  221.4624 H   0  0  0  0  0  0  0  0  0  0  0  0
  139.9595   76.4108  219.8145 H   0  0  0  0  0  0  0  0  0  0  0  0
  141.6352   75.7574  219.5943 H   0  0  0  0  0  0  0  0  0  0  0  0
  140.1645   73.9048  220.2449 H   0  0  0  0  0  0  0  0  0  0  0  0
  141.2399   74.2409  221.6044 H   0  0  0  0  0  0  0  0  0  0  0  0
  136.9217   73.2794  220.2916 H   0  0  0  0  0  0  0  0  0  0  0  0
  138.7347   73.0325  220.2428 H   0  0  0  0  0  0  0  0  0  0  0  0
  137.1145   71.0413  221.0744 H   0  0  0  0  0  0  0  0  0  0  0  0
  137.6810   72.7860  223.4670 H   0  0  0  0  0  0  0  0  0  0  0  0
  136.1900   72.6480  222.6620 H   0  0  0  0  0  0  0  0  0  0  0  0
  139.0643   70.1668  221.8898 H   0  0  0  0  0  0  0  0  0  0  0  0
  139.7433   71.6301  221.0514 H   0  0  0  0  0  0  0  0  0  0  0  0
  140.7479   72.0192  223.0395 H   0  0  0  0  0  0  0  0  0  0  0  0
  139.1422   72.6621  223.5140 H   0  0  0  0  0  0  0  0  0  0  0  0
  138.5324   69.0255  223.1793 H   0  0  0  0  0  0  0  0  0  0  0  0
  138.7430   67.8310  225.4020 H   0  0  0  0  0  0  0  0  0  0  0  0
  139.8436   68.4975  227.9468 H   0  0  0  0  0  0  0  0  0  0  0  0
  141.0048   70.3101  229.1883 H   0  0  0  0  0  0  0  0  0  0  0  0
  141.5433   72.4583  228.0537 H   0  0  0  0  0  0  0  0  0  0  0  0
  140.9123   72.7979  225.6493 H   0  0  0  0  0  0  0  0  0  0  0  0
  138.6330   76.8789  222.4248 H   0  0  0  0  0  0  0  0  0  0  0  0
  139.2638   75.7605  223.7217 H   0  0  0  0  0  0  0  0  0  0  0  0
  140.6284   77.7723  223.0837 H   0  0  0  0  0  0  0  0  0  0  0  0
  141.3912   76.0666  223.1434 H   0  0  0  0  0  0  0  0  0  0  0  0
  1  2  1  0
  2  3  1  0
  3  4  2  0
  3  5  1  0
  5  6  1  0
  6  7  2  0
  7  8  1  0
  8  9  2  0
  9 10  1  0
 10 11  2  0
  5 12  1  0
 12 13  1  0
 13 14  1  0
 14 15  1  0
 15 16  1  0
 16 17  2  0
 16 18  1  0
 18 19  1  0
 19 20  1  0
 19 21  1  0
 21 22  1  0
 22 23  1  0
 23 24  2  0
 24 25  1  0
 25 26  1  0
 26 27  2  0
 27 28  1  0
 28 29  2  0
 29 30  1  0
 30 31  2  0
 15 32  1  0
 32 33  1  0
 11  6  1  0
 33 12  1  0
 31 23  1  0
 31 26  1  0
  1 34  1  0
  1 35  1  0
  1 36  1  0
  2 37  1  0
  2 38  1  0
  7 39  1  0
  8 40  1  0
  9 41  1  0
 10 42  1  0
 11 43  1  0
 12 44  1  0
 13 45  1  0
 13 46  1  0
 14 47  1  0
 14 48  1  0
 18 49  1  0
 18 50  1  0
 19 51  1  6
 20 52  1  0
 20 53  1  0
 21 54  1  0
 21 55  1  0
 22 56  1  0
 22 57  1  0
 24 58  1  0
 25 59  1  0
 27 60  1  0
 28 61  1  0
 29 62  1  0
 30 63  1  0
 32 64  1  0
 32 65  1  0
 33 66  1  0
 33 67  1  0
M  END
>  <smiles>  (16) 
CCC(=O)N(c1ccccc1)C1CCN(C(=O)CC(N)CCc2c[nH]c3ccccc23)CC1

>  <score_type>  (16) 
oracle

>  <origin>  (16) 
autodockgpu

>  <m_score__min__energy>  (16) 
-9.5700000000000003

>  <m_primary>  (16) 
energy

>  <rmsd>  (16) 
10.491327379627204

>  <m_score__min__rmsd>  (16) 
10.491327379627204

>  <meeko>  (16) 
{"free_energy": -7.74, "intermolecular_energy": -10.72, "internal_energy": -2.76, "cluster_size": 3, "cluster_id": 6, "rank_in_cluster": 3}

>  <energy>  (16) 
-8.59

>  <cluster_rmsd>  (16) 
0.79

>  <cluster>  (16) 
2

$$$$

     RDKit          3D

 67 70  0  0  0  0  0  0  0  0999 V2000
  137.9350   79.8110  223.1250 C   0  0  0  0  0  0  0  0  0  0  0  0
  137.6950   78.3970  222.6750 C   0  0  0  0  0  0  0  0  0  0  0  0
  138.3010   78.0960  221.3480 C   0  0  0  0  0  0  0  0  0  0  0  0
  137.5750   78.3380  220.3460 O   0  0  0  0  0  0  0  0  0  0  0  0
  139.6260   77.5620  221.2240 N   0  0  0  0  0  0  0  0  0  0  0  0
  140.6630   78.3790  221.8030 C   0  0  0  0  0  0  0  0  0  0  0  0
  141.1950   79.3550  220.9670 C   0  0  0  0  0  0  0  0  0  0  0  0
  142.1920   80.1980  221.4140 C   0  0  0  0  0  0  0  0  0  0  0  0
  142.6360   80.0380  222.7120 C   0  0  0  0  0  0  0  0  0  0  0  0
  142.0980   79.0540  223.5510 C   0  0  0  0  0  0  0  0  0  0  0  0
  141.1030   78.2200  223.0870 C   0  0  0  0  0  0  0  0  0  0  0  0
  139.9120   76.3040  220.5750 C   0  0  0  0  0  0  0  0  0  0  0  0
  138.7460   75.3800  220.5140 C   0  0  0  0  0  0  0  0  0  0  0  0
  139.1820   73.9400  220.2010 C   0  0  0  0  0  0  0  0  0  0  0  0
  139.9150   73.4980  221.3780 N   0  0  0  0  0  0  0  0  0  0  0  0
  139.6330   72.2790  222.0550 C   0  0  0  0  0  0  0  0  0  0  0  0
  140.3270   71.9740  223.0850 O   0  0  0  0  0  0  0  0  0  0  0  0
  138.5840   71.3520  221.6300 C   0  0  0  0  0  0  0  0  0  0  0  0
  137.6310   70.9440  222.7470 C   0  0  2  0  0  0  0  0  0  0  0  0
  137.8910   71.8850  223.8470 N   0  0  0  0  0  0  0  0  0  0  0  0
  138.0130   69.5440  223.1780 C   0  0  0  0  0  0  0  0  0  0  0  0
  139.4980   69.4200  223.4990 C   0  0  0  0  0  0  0  0  0  0  0  0
  139.6550   69.0050  224.9030 C   0  0  0  0  0  0  0  0  0  0  0  0
  139.3950   67.7690  225.4930 C   0  0  0  0  0  0  0  0  0  0  0  0
  139.6830   67.8330  226.8030 N   0  0  0  0  0  0  0  0  0  0  0  0
  140.1210   69.0740  227.0660 C   0  0  0  0  0  0  0  0  0  0  0  0
  140.5390   69.6470  228.2460 C   0  0  0  0  0  0  0  0  0  0  0  0
  140.9540   70.9720  228.2730 C   0  0  0  0  0  0  0  0  0  0  0  0
  140.9480   71.7310  227.1070 C   0  0  0  0  0  0  0  0  0  0  0  0
  140.5250   71.1620  225.9020 C   0  0  0  0  0  0  0  0  0  0  0  0
  140.1160   69.8350  225.9000 C   0  0  0  0  0  0  0  0  0  0  0  0
  140.9680   74.3690  221.8520 C   0  0  0  0  0  0  0  0  0  0  0  0
  141.1260   75.5940  221.0360 C   0  0  0  0  0  0  0  0  0  0  0  0
  137.9416   79.8498  224.2243 H   0  0  0  0  0  0  0  0  0  0  0  0
  138.9050   80.1587  222.7400 H   0  0  0  0  0  0  0  0  0  0  0  0
  137.1340   80.4593  222.7400 H   0  0  0  0  0  0  0  0  0  0  0  0
  138.1278   77.7139  223.4207 H   0  0  0  0  0  0  0  0  0  0  0  0
  136.6075   78.2637  222.5771 H   0  0  0  0  0  0  0  0  0  0  0  0
  140.8172   79.4560  219.9389 H   0  0  0  0  0  0  0  0  0  0  0  0
  142.6188   80.9714  220.7585 H   0  0  0  0  0  0  0  0  0  0  0  0
  143.4289   80.6973  223.0949 H   0  0  0  0  0  0  0  0  0  0  0  0
  142.4696   78.9465  224.5808 H   0  0  0  0  0  0  0  0  0  0  0  0
  140.6726   77.4434  223.7363 H   0  0  0  0  0  0  0  0  0  0  0  0
  140.1411   76.6304  219.5498 H   0  0  0  0  0  0  0  0  0  0  0  0
  138.2285   75.3935  221.4846 H   0  0  0  0  0  0  0  0  0  0  0  0
  138.0786   75.7205  219.7086 H   0  0  0  0  0  0  0  0  0  0  0  0
  138.3040   73.2997  220.0306 H   0  0  0  0  0  0  0  0  0  0  0  0
  139.7963   73.8856  219.2901 H   0  0  0  0  0  0  0  0  0  0  0  0
  137.9980   71.8337  220.8334 H   0  0  0  0  0  0  0  0  0  0  0  0
  139.0870   70.4353  221.2887 H   0  0  0  0  0  0  0  0  0  0  0  0
  136.5730   70.9613  222.4463 H   0  0  0  0  0  0  0  0  0  0  0  0
  138.6990   71.5600  224.4410 H   0  0  0  0  0  0  0  0  0  0  0  0
  138.1750   72.7860  223.3860 H   0  0  0  0  0  0  0  0  0  0  0  0
  137.4343   69.2804  224.0755 H   0  0  0  0  0  0  0  0  0  0  0  0
  137.7925   68.8637  222.3422 H   0  0  0  0  0  0  0  0  0  0  0  0
  139.9558   68.6681  222.8394 H   0  0  0  0  0  0  0  0  0  0  0  0
  139.9931   70.3896  223.3418 H   0  0  0  0  0  0  0  0  0  0  0  0
  139.0138   66.8808  224.9679 H   0  0  0  0  0  0  0  0  0  0  0  0
  139.5610   67.0140  227.4380 H   0  0  0  0  0  0  0  0  0  0  0  0
  140.5443   69.0526  229.1716 H   0  0  0  0  0  0  0  0  0  0  0  0
  141.2884   71.4227  229.2190 H   0  0  0  0  0  0  0  0  0  0  0  0
  141.2766   72.7804  227.1332 H   0  0  0  0  0  0  0  0  0  0  0  0
  140.5164   71.7534  224.9745 H   0  0  0  0  0  0  0  0  0  0  0  0
  140.7371   74.6655  222.8858 H   0  0  0  0  0  0  0  0  0  0  0  0
  141.9113   73.8074  221.7829 H   0  0  0  0  0  0  0  0  0  0  0  0
  141.7108   76.3081  221.6344 H   0  0  0  0  0  0  0  0  0  0  0  0
  141.5946   75.2368  220.1071 H   0  0  0  0  0  0  0  0  0  0  0  0
  1  2  1  0
  2  3  1  0
  3  4  2  0
  3  5  1  0
  5  6  1  0
  6  7  2  0
  7  8  1  0
  8  9  2  0
  9 10  1  0
 10 11  2  0
  5 12  1  0
 12 13  1  0
 13 14  1  0
 14 15  1  0
 15 16  1  0
 16 17  2  0
 16 18  1  0
 18 19  1  0
 19 20  1  0
 19 21  1  0
 21 22  1  0
 22 23  1  0
 23 24  2  0
 24 25  1  0
 25 26  1  0
 26 27  2  0
 27 28  1  0
 28 29  2  0
 29 30  1  0
 30 31  2  0
 15 32  1  0
 32 33  1  0
 11  6  1  0
 33 12  1  0
 31 23  1  0
 31 26  1  0
  1 34  1  0
  1 35  1  0
  1 36  1  0
  2 37  1  0
  2 38  1  0
  7 39  1  0
  8 40  1  0
  9 41  1  0
 10 42  1  0
 11 43  1  0
 12 44  1  0
 13 45  1  0
 13 46  1  0
 14 47  1  0
 14 48  1  0
 18 49  1  0
 18 50  1  0
 19 51  1  6
 20 52  1  0
 20 53  1  0
 21 54  1  0
 21 55  1  0
 22 56  1  0
 22 57  1  0
 24 58  1  0
 25 59  1  0
 27 60  1  0
 28 61  1  0
 29 62  1  0
 30 63  1  0
 32 64  1  0
 32 65  1  0
 33 66  1  0
 33 67  1  0
M  END
>  <smiles>  (17) 
CCC(=O)N(c1ccccc1)C1CCN(C(=O)CC(N)CCc2c[nH]c3ccccc23)CC1

>  <score_type>  (17) 
oracle

>  <origin>  (17) 
autodockgpu

>  <m_score__min__energy>  (17) 
-9.5700000000000003

>  <m_primary>  (17) 
energy

>  <rmsd>  (17) 
11.557920917777695

>  <m_score__min__rmsd>  (17) 
11.557920917777695

>  <meeko>  (17) 
{"free_energy": -7.97, "intermolecular_energy": -10.96, "internal_energy": -2.51, "cluster_size": 26, "cluster_id": 2, "rank_in_cluster": 22}

>  <energy>  (17) 
-8.52

>  <cluster_rmsd>  (17) 
1.66

>  <cluster>  (17) 
2

$$$$

     RDKit          3D

 67 70  0  0  0  0  0  0  0  0999 V2000
  143.6620   76.3010  219.3520 C   0  0  0  0  0  0  0  0  0  0  0  0
  142.6710   77.0870  218.5390 C   0  0  0  0  0  0  0  0  0  0  0  0
  141.3810   77.3130  219.2490 C   0  0  0  0  0  0  0  0  0  0  0  0
  140.3480   77.3070  218.5240 O   0  0  0  0  0  0  0  0  0  0  0  0
  141.3220   77.5220  220.6670 N   0  0  0  0  0  0  0  0  0  0  0  0
  141.4980   78.8910  221.0830 C   0  0  0  0  0  0  0  0  0  0  0  0
  142.1150   79.0670  222.3170 C   0  0  0  0  0  0  0  0  0  0  0  0
  142.3400   80.3330  222.8170 C   0  0  0  0  0  0  0  0  0  0  0  0
  141.9330   81.4090  222.0520 C   0  0  0  0  0  0  0  0  0  0  0  0
  141.3120   81.2280  220.8100 C   0  0  0  0  0  0  0  0  0  0  0  0
  141.0950   79.9550  220.3270 C   0  0  0  0  0  0  0  0  0  0  0  0
  141.0980   76.4540  221.6120 C   0  0  0  0  0  0  0  0  0  0  0  0
  141.0170   75.1050  220.9880 C   0  0  0  0  0  0  0  0  0  0  0  0
  140.3860   74.0780  221.9420 C   0  0  0  0  0  0  0  0  0  0  0  0
  138.9940   74.4850  222.0750 N   0  0  0  0  0  0  0  0  0  0  0  0
  137.9040   73.5920  221.8820 C   0  0  0  0  0  0  0  0  0  0  0  0
  136.7130   74.0400  222.0150 O   0  0  0  0  0  0  0  0  0  0  0  0
  138.0760   72.1810  221.5370 C   0  0  0  0  0  0  0  0  0  0  0  0
  137.7350   71.2220  222.6700 C   0  0  2  0  0  0  0  0  0  0  0  0
  136.6390   71.8630  223.4120 N   0  0  0  0  0  0  0  0  0  0  0  0
  138.9560   71.1220  223.5600 C   0  0  0  0  0  0  0  0  0  0  0  0
  139.5140   69.7050  223.6220 C   0  0  0  0  0  0  0  0  0  0  0  0
  139.6920   69.3190  225.0320 C   0  0  0  0  0  0  0  0  0  0  0  0
  139.4250   68.1000  225.6550 C   0  0  0  0  0  0  0  0  0  0  0  0
  139.7390   68.1880  226.9570 N   0  0  0  0  0  0  0  0  0  0  0  0
  140.2020   69.4280  227.1840 C   0  0  0  0  0  0  0  0  0  0  0  0
  140.6520   70.0200  228.3430 C   0  0  0  0  0  0  0  0  0  0  0  0
  141.0870   71.3390  228.3320 C   0  0  0  0  0  0  0  0  0  0  0  0
  141.0700   72.0720  227.1490 C   0  0  0  0  0  0  0  0  0  0  0  0
  140.6150   71.4830  225.9650 C   0  0  0  0  0  0  0  0  0  0  0  0
  140.1860   70.1630  226.0010 C   0  0  0  0  0  0  0  0  0  0  0  0
  138.7530   75.8700  222.4160 C   0  0  0  0  0  0  0  0  0  0  0  0
  139.9950   76.6590  222.5780 C   0  0  0  0  0  0  0  0  0  0  0  0
  143.4643   76.4578  220.4227 H   0  0  0  0  0  0  0  0  0  0  0  0
  143.5652   75.2314  219.1141 H   0  0  0  0  0  0  0  0  0  0  0  0
  144.6815   76.6388  219.1141 H   0  0  0  0  0  0  0  0  0  0  0  0
  143.1135   78.0646  218.2973 H   0  0  0  0  0  0  0  0  0  0  0  0
  142.4495   76.5003  217.6352 H   0  0  0  0  0  0  0  0  0  0  0  0
  142.4267   78.1879  222.9002 H   0  0  0  0  0  0  0  0  0  0  0  0
  142.8271   80.4807  223.7921 H   0  0  0  0  0  0  0  0  0  0  0  0
  142.1003   82.4297  222.4265 H   0  0  0  0  0  0  0  0  0  0  0  0
  140.9974   82.1013  220.2198 H   0  0  0  0  0  0  0  0  0  0  0  0
  140.6076   79.7994  219.3532 H   0  0  0  0  0  0  0  0  0  0  0  0
  142.0180   76.4939  222.2137 H   0  0  0  0  0  0  0  0  0  0  0  0
  140.4044   75.1693  220.0766 H   0  0  0  0  0  0  0  0  0  0  0  0
  142.0387   74.7730  220.7516 H   0  0  0  0  0  0  0  0  0  0  0  0
  140.4529   73.0654  221.5176 H   0  0  0  0  0  0  0  0  0  0  0  0
  140.9005   74.0493  222.9138 H   0  0  0  0  0  0  0  0  0  0  0  0
  137.4239   71.9518  220.6813 H   0  0  0  0  0  0  0  0  0  0  0  0
  139.1419   72.0365  221.3067 H   0  0  0  0  0  0  0  0  0  0  0  0
  137.4490   70.2190  222.3204 H   0  0  0  0  0  0  0  0  0  0  0  0
  136.9580   72.7650  223.8550 H   0  0  0  0  0  0  0  0  0  0  0  0
  135.9120   72.1020  222.6900 H   0  0  0  0  0  0  0  0  0  0  0  0
  139.7353   71.7919  223.1676 H   0  0  0  0  0  0  0  0  0  0  0  0
  138.6539   71.4088  224.5781 H   0  0  0  0  0  0  0  0  0  0  0  0
  138.8125   69.0112  223.1358 H   0  0  0  0  0  0  0  0  0  0  0  0
  140.4822   69.6647  223.1014 H   0  0  0  0  0  0  0  0  0  0  0  0
  139.0204   67.2064  225.1572 H   0  0  0  0  0  0  0  0  0  0  0  0
  139.6170   67.3860  227.6130 H   0  0  0  0  0  0  0  0  0  0  0  0
  140.6670   69.4460  229.2812 H   0  0  0  0  0  0  0  0  0  0  0  0
  141.4461   71.8057  229.2611 H   0  0  0  0  0  0  0  0  0  0  0  0
  141.4151   73.1165  227.1453 H   0  0  0  0  0  0  0  0  0  0  0  0
  140.5974   72.0536  225.0247 H   0  0  0  0  0  0  0  0  0  0  0  0
  138.1514   76.3266  221.6163 H   0  0  0  0  0  0  0  0  0  0  0  0
  138.2322   75.8806  223.3849 H   0  0  0  0  0  0  0  0  0  0  0  0
  139.7130   77.7210  222.5270 H   0  0  0  0  0  0  0  0  0  0  0  0
  140.4099   76.3108  223.5354 H   0  0  0  0  0  0  0  0  0  0  0  0
  1  2  1  0
  2  3  1  0
  3  4  2  0
  3  5  1  0
  5  6  1  0
  6  7  2  0
  7  8  1  0
  8  9  2  0
  9 10  1  0
 10 11  2  0
  5 12  1  0
 12 13  1  0
 13 14  1  0
 14 15  1  0
 15 16  1  0
 16 17  2  0
 16 18  1  0
 18 19  1  0
 19 20  1  0
 19 21  1  0
 21 22  1  0
 22 23  1  0
 23 24  2  0
 24 25  1  0
 25 26  1  0
 26 27  2  0
 27 28  1  0
 28 29  2  0
 29 30  1  0
 30 31  2  0
 15 32  1  0
 32 33  1  0
 11  6  1  0
 33 12  1  0
 31 23  1  0
 31 26  1  0
  1 34  1  0
  1 35  1  0
  1 36  1  0
  2 37  1  0
  2 38  1  0
  7 39  1  0
  8 40  1  0
  9 41  1  0
 10 42  1  0
 11 43  1  0
 12 44  1  0
 13 45  1  0
 13 46  1  0
 14 47  1  0
 14 48  1  0
 18 49  1  0
 18 50  1  0
 19 51  1  6
 20 52  1  0
 20 53  1  0
 21 54  1  0
 21 55  1  0
 22 56  1  0
 22 57  1  0
 24 58  1  0
 25 59  1  0
 27 60  1  0
 28 61  1  0
 29 62  1  0
 30 63  1  0
 32 64  1  0
 32 65  1  0
 33 66  1  0
 33 67  1  0
M  END
>  <smiles>  (18) 
CCC(=O)N(c1ccccc1)C1CCN(C(=O)CC(N)CCc2c[nH]c3ccccc23)CC1

>  <score_type>  (18) 
oracle

>  <origin>  (18) 
autodockgpu

>  <m_score__min__energy>  (18) 
-9.5700000000000003

>  <m_primary>  (18) 
energy

>  <rmsd>  (18) 
11.10391654879765

>  <m_score__min__rmsd>  (18) 
11.10391654879765

>  <meeko>  (18) 
{"free_energy": -8.52, "intermolecular_energy": -11.5, "internal_energy": -2.49, "cluster_size": 26, "cluster_id": 2, "rank_in_cluster": 15}

>  <energy>  (18) 
-8.44

>  <cluster_rmsd>  (18) 
1.47

>  <cluster>  (18) 
2

$$$$

     RDKit          3D

 67 70  0  0  0  0  0  0  0  0999 V2000
  141.1730   82.4060  220.7970 C   0  0  0  0  0  0  0  0  0  0  0  0
  140.7310   81.5730  219.6270 C   0  0  0  0  0  0  0  0  0  0  0  0
  141.6990   80.4960  219.2770 C   0  0  0  0  0  0  0  0  0  0  0  0
  142.5730   80.8020  218.4200 O   0  0  0  0  0  0  0  0  0  0  0  0
  141.6380   79.1960  219.8790 N   0  0  0  0  0  0  0  0  0  0  0  0
  141.5350   79.2000  221.3170 C   0  0  0  0  0  0  0  0  0  0  0  0
  140.2970   78.8310  221.8310 C   0  0  0  0  0  0  0  0  0  0  0  0
  140.0820   78.7950  223.1940 C   0  0  0  0  0  0  0  0  0  0  0  0
  141.1340   79.1380  224.0200 C   0  0  0  0  0  0  0  0  0  0  0  0
  142.3800   79.5100  223.4990 C   0  0  0  0  0  0  0  0  0  0  0  0
  142.5760   79.5390  222.1350 C   0  0  0  0  0  0  0  0  0  0  0  0
  141.6700   77.9710  219.1160 C   0  0  0  0  0  0  0  0  0  0  0  0
  140.4760   77.1050  219.3170 C   0  0  0  0  0  0  0  0  0  0  0  0
  140.7310   75.6700  218.8270 C   0  0  0  0  0  0  0  0  0  0  0  0
  141.7170   75.1220  219.7460 N   0  0  0  0  0  0  0  0  0  0  0  0
  141.5500   73.8750  220.4090 C   0  0  0  0  0  0  0  0  0  0  0  0
  142.4690   73.4750  221.2040 O   0  0  0  0  0  0  0  0  0  0  0  0
  140.3750   73.0230  220.2290 C   0  0  0  0  0  0  0  0  0  0  0  0
  139.3680   73.1100  221.3700 C   0  0  2  0  0  0  0  0  0  0  0  0
  139.8460   74.2010  222.2330 N   0  0  0  0  0  0  0  0  0  0  0  0
  139.4310   71.8020  222.1290 C   0  0  0  0  0  0  0  0  0  0  0  0
  140.4120   71.8520  223.2940 C   0  0  0  0  0  0  0  0  0  0  0  0
  140.0300   70.8370  224.2900 C   0  0  0  0  0  0  0  0  0  0  0  0
  139.3300   69.6450  224.1130 C   0  0  0  0  0  0  0  0  0  0  0  0
  139.2070   69.0220  225.2950 N   0  0  0  0  0  0  0  0  0  0  0  0
  139.8090   69.7820  226.2240 C   0  0  0  0  0  0  0  0  0  0  0  0
  139.9600   69.5920  227.5790 C   0  0  0  0  0  0  0  0  0  0  0  0
  140.6320   70.5340  228.3470 C   0  0  0  0  0  0  0  0  0  0  0  0
  141.1580   71.6770  227.7520 C   0  0  0  0  0  0  0  0  0  0  0  0
  141.0110   71.8820  226.3770 C   0  0  0  0  0  0  0  0  0  0  0  0
  140.3350   70.9260  225.6300 C   0  0  0  0  0  0  0  0  0  0  0  0
  142.9070   75.9140  219.9690 C   0  0  0  0  0  0  0  0  0  0  0  0
  142.9190   77.1810  219.2040 C   0  0  0  0  0  0  0  0  0  0  0  0
  140.9024   81.8960  221.7333 H   0  0  0  0  0  0  0  0  0  0  0  0
  142.2635   82.5449  220.7571 H   0  0  0  0  0  0  0  0  0  0  0  0
  140.6767   83.3869  220.7571 H   0  0  0  0  0  0  0  0  0  0  0  0
  139.7647   81.1086  219.8731 H   0  0  0  0  0  0  0  0  0  0  0  0
  140.6569   82.2425  218.7573 H   0  0  0  0  0  0  0  0  0  0  0  0
  139.4801   78.5649  221.1441 H   0  0  0  0  0  0  0  0  0  0  0  0
  139.1057   78.5030  223.6081 H   0  0  0  0  0  0  0  0  0  0  0  0
  140.9906   79.1187  225.1104 H   0  0  0  0  0  0  0  0  0  0  0  0
  143.2021   79.7790  224.1785 H   0  0  0  0  0  0  0  0  0  0  0  0
  143.5499   79.8289  221.7137 H   0  0  0  0  0  0  0  0  0  0  0  0
  141.6423   78.3516  218.0843 H   0  0  0  0  0  0  0  0  0  0  0  0
  140.2304   77.0782  220.3889 H   0  0  0  0  0  0  0  0  0  0  0  0
  139.6430   77.5254  218.7345 H   0  0  0  0  0  0  0  0  0  0  0  0
  139.8030   75.0804  218.8606 H   0  0  0  0  0  0  0  0  0  0  0  0
  141.0835   75.6481  217.7852 H   0  0  0  0  0  0  0  0  0  0  0  0
  139.8703   73.3212  219.2982 H   0  0  0  0  0  0  0  0  0  0  0  0
  140.7355   71.9841  220.2000 H   0  0  0  0  0  0  0  0  0  0  0  0
  138.3377   73.2901  221.0293 H   0  0  0  0  0  0  0  0  0  0  0  0
  139.2650   74.2730  223.1090 H   0  0  0  0  0  0  0  0  0  0  0  0
  140.8210   73.9290  222.5180 H   0  0  0  0  0  0  0  0  0  0  0  0
  138.4291   71.5725  222.5207 H   0  0  0  0  0  0  0  0  0  0  0  0
  139.7790   71.0262  221.4311 H   0  0  0  0  0  0  0  0  0  0  0  0
  141.4286   71.6450  222.9285 H   0  0  0  0  0  0  0  0  0  0  0  0
  140.3889   72.8504  223.7551 H   0  0  0  0  0  0  0  0  0  0  0  0
  138.9394   69.2731  223.1543 H   0  0  0  0  0  0  0  0  0  0  0  0
  138.7130   68.1080  225.3920 H   0  0  0  0  0  0  0  0  0  0  0  0
  139.5468   68.6906  228.0553 H   0  0  0  0  0  0  0  0  0  0  0  0
  140.7490   70.3762  229.4293 H   0  0  0  0  0  0  0  0  0  0  0  0
  141.6900   72.4199  228.3644 H   0  0  0  0  0  0  0  0  0  0  0  0
  141.4223   72.7820  225.8966 H   0  0  0  0  0  0  0  0  0  0  0  0
  142.9717   76.1527  221.0408 H   0  0  0  0  0  0  0  0  0  0  0  0
  143.7646   75.3174  219.6246 H   0  0  0  0  0  0  0  0  0  0  0  0
  143.6801   77.8290  219.6631 H   0  0  0  0  0  0  0  0  0  0  0  0
  143.1084   76.8650  218.1675 H   0  0  0  0  0  0  0  0  0  0  0  0
  1  2  1  0
  2  3  1  0
  3  4  2  0
  3  5  1  0
  5  6  1  0
  6  7  2  0
  7  8  1  0
  8  9  2  0
  9 10  1  0
 10 11  2  0
  5 12  1  0
 12 13  1  0
 13 14  1  0
 14 15  1  0
 15 16  1  0
 16 17  2  0
 16 18  1  0
 18 19  1  0
 19 20  1  0
 19 21  1  0
 21 22  1  0
 22 23  1  0
 23 24  2  0
 24 25  1  0
 25 26  1  0
 26 27  2  0
 27 28  1  0
 28 29  2  0
 29 30  1  0
 30 31  2  0
 15 32  1  0
 32 33  1  0
 11  6  1  0
 33 12  1  0
 31 23  1  0
 31 26  1  0
  1 34  1  0
  1 35  1  0
  1 36  1  0
  2 37  1  0
  2 38  1  0
  7 39  1  0
  8 40  1  0
  9 41  1  0
 10 42  1  0
 11 43  1  0
 12 44  1  0
 13 45  1  0
 13 46  1  0
 14 47  1  0
 14 48  1  0
 18 49  1  0
 18 50  1  0
 19 51  1  6
 20 52  1  0
 20 53  1  0
 21 54  1  0
 21 55  1  0
 22 56  1  0
 22 57  1  0
 24 58  1  0
 25 59  1  0
 27 60  1  0
 28 61  1  0
 29 62  1  0
 30 63  1  0
 32 64  1  0
 32 65  1  0
 33 66  1  0
 33 67  1  0
M  END
>  <smiles>  (19) 
CCC(=O)N(c1ccccc1)C1CCN(C(=O)CC(N)CCc2c[nH]c3ccccc23)CC1

>  <score_type>  (19) 
oracle

>  <origin>  (19) 
autodockgpu

>  <m_score__min__energy>  (19) 
-9.5700000000000003

>  <m_primary>  (19) 
energy

>  <rmsd>  (19) 
10.420603741633917

>  <m_score__min__rmsd>  (19) 
10.420603741633917

>  <meeko>  (19) 
{"free_energy": -8.46, "intermolecular_energy": -11.45, "internal_energy": -2.16, "cluster_size": 7, "cluster_id": 3, "rank_in_cluster": 5}

>  <energy>  (19) 
-8.39

>  <cluster_rmsd>  (19) 
1.55

>  <cluster>  (19) 
2

$$$$

     RDKit          3D

 67 70  0  0  0  0  0  0  0  0999 V2000
  138.4560   66.6910  221.7410 C   0  0  0  0  0  0  0  0  0  0  0  0
  137.9580   67.9750  222.3440 C   0  0  0  0  0  0  0  0  0  0  0  0
  138.8570   68.5110  223.4030 C   0  0  0  0  0  0  0  0  0  0  0  0
  139.1720   67.7010  224.3180 O   0  0  0  0  0  0  0  0  0  0  0  0
  139.3340   69.8640  223.3790 N   0  0  0  0  0  0  0  0  0  0  0  0
  139.9010   70.3270  224.6210 C   0  0  0  0  0  0  0  0  0  0  0  0
  139.2620   69.8850  225.7740 C   0  0  0  0  0  0  0  0  0  0  0  0
  139.7180   70.2610  227.0210 C   0  0  0  0  0  0  0  0  0  0  0  0
  140.8250   71.0850  227.0790 C   0  0  0  0  0  0  0  0  0  0  0  0
  141.4660   71.5280  225.9150 C   0  0  0  0  0  0  0  0  0  0  0  0
  140.9960   71.1420  224.6780 C   0  0  0  0  0  0  0  0  0  0  0  0
  139.2600   70.7050  222.2080 C   0  0  0  0  0  0  0  0  0  0  0  0
  140.5410   70.8030  221.4560 C   0  0  0  0  0  0  0  0  0  0  0  0
  140.5370   71.9950  220.4860 C   0  0  0  0  0  0  0  0  0  0  0  0
  140.5400   73.1780  221.3330 N   0  0  0  0  0  0  0  0  0  0  0  0
  141.4680   74.2440  221.1740 C   0  0  0  0  0  0  0  0  0  0  0  0
  141.3980   75.2430  221.9690 O   0  0  0  0  0  0  0  0  0  0  0  0
  142.5050   74.2550  220.1420 C   0  0  0  0  0  0  0  0  0  0  0  0
  142.5160   75.5190  219.2910 C   0  0  2  0  0  0  0  0  0  0  0  0
  143.2750   76.5100  220.0700 N   0  0  0  0  0  0  0  0  0  0  0  0
  141.0810   75.9810  219.1490 C   0  0  0  0  0  0  0  0  0  0  0  0
  140.9300   77.4820  219.3650 C   0  0  0  0  0  0  0  0  0  0  0  0
  140.4480   77.7250  220.7360 C   0  0  0  0  0  0  0  0  0  0  0  0
  139.3420   77.1850  221.3920 C   0  0  0  0  0  0  0  0  0  0  0  0
  139.2780   77.6820  222.6370 N   0  0  0  0  0  0  0  0  0  0  0  0
  140.3130   78.5220  222.7970 C   0  0  0  0  0  0  0  0  0  0  0  0
  140.6950   79.2800  223.8800 C   0  0  0  0  0  0  0  0  0  0  0  0
  141.8210   80.0890  223.8070 C   0  0  0  0  0  0  0  0  0  0  0  0
  142.5730   80.1390  222.6370 C   0  0  0  0  0  0  0  0  0  0  0  0
  142.1960   79.3740  221.5290 C   0  0  0  0  0  0  0  0  0  0  0  0
  141.0660   78.5740  221.6260 C   0  0  0  0  0  0  0  0  0  0  0  0
  139.5380   73.2320  222.3760 C   0  0  0  0  0  0  0  0  0  0  0  0
  138.6570   72.0430  222.4030 C   0  0  0  0  0  0  0  0  0  0  0  0
  138.7279   65.9900  222.5440 H   0  0  0  0  0  0  0  0  0  0  0  0
  137.6649   66.2470  221.1189 H   0  0  0  0  0  0  0  0  0  0  0  0
  139.3396   66.8965  221.1189 H   0  0  0  0  0  0  0  0  0  0  0  0
  137.8714   68.7263  221.5452 H   0  0  0  0  0  0  0  0  0  0  0  0
  136.9875   67.7609  222.8155 H   0  0  0  0  0  0  0  0  0  0  0  0
  138.3833   69.2284  225.6913 H   0  0  0  0  0  0  0  0  0  0  0  0
  139.2170   69.9162  227.9376 H   0  0  0  0  0  0  0  0  0  0  0  0
  141.2112   71.3999  228.0596 H   0  0  0  0  0  0  0  0  0  0  0  0
  142.3455   72.1847  225.9881 H   0  0  0  0  0  0  0  0  0  0  0  0
  141.4917   71.4827  223.7570 H   0  0  0  0  0  0  0  0  0  0  0  0
  138.5411   70.1535  221.5842 H   0  0  0  0  0  0  0  0  0  0  0  0
  141.3667   70.9280  222.1719 H   0  0  0  0  0  0  0  0  0  0  0  0
  140.6669   69.8815  220.8686 H   0  0  0  0  0  0  0  0  0  0  0  0
  141.4327   71.9756  219.8478 H   0  0  0  0  0  0  0  0  0  0  0  0
  139.6669   71.9739  219.8133 H   0  0  0  0  0  0  0  0  0  0  0  0
  143.4843   74.1602  220.6340 H   0  0  0  0  0  0  0  0  0  0  0  0
  142.2898   73.4157  219.4643 H   0  0  0  0  0  0  0  0  0  0  0  0
  142.9563   75.3695  218.2941 H   0  0  0  0  0  0  0  0  0  0  0  0
  143.2970   77.4420  219.5780 H   0  0  0  0  0  0  0  0  0  0  0  0
  142.7390   76.6350  220.9660 H   0  0  0  0  0  0  0  0  0  0  0  0
  140.7283   75.7324  218.1372 H   0  0  0  0  0  0  0  0  0  0  0  0
  140.4861   75.4696  219.9201 H   0  0  0  0  0  0  0  0  0  0  0  0
  141.9035   77.9743  219.2240 H   0  0  0  0  0  0  0  0  0  0  0  0
  140.2097   77.8903  218.6408 H   0  0  0  0  0  0  0  0  0  0  0  0
  138.6333   76.4648  220.9572 H   0  0  0  0  0  0  0  0  0  0  0  0
  138.5240   77.4100  223.3050 H   0  0  0  0  0  0  0  0  0  0  0  0
  140.1055   79.2448  224.8080 H   0  0  0  0  0  0  0  0  0  0  0  0
  142.1197   80.6924  224.6768 H   0  0  0  0  0  0  0  0  0  0  0  0
  143.4647   80.7809  222.5839 H   0  0  0  0  0  0  0  0  0  0  0  0
  142.7831   79.4056  220.5993 H   0  0  0  0  0  0  0  0  0  0  0  0
  140.0487   73.3104  223.3471 H   0  0  0  0  0  0  0  0  0  0  0  0
  138.9010   74.1051  222.1712 H   0  0  0  0  0  0  0  0  0  0  0  0
  138.1573   72.0329  223.3829 H   0  0  0  0  0  0  0  0  0  0  0  0
  138.0072   72.1729  221.5250 H   0  0  0  0  0  0  0  0  0  0  0  0
  1  2  1  0
  2  3  1  0
  3  4  2  0
  3  5  1  0
  5  6  1  0
  6  7  2  0
  7  8  1  0
  8  9  2  0
  9 10  1  0
 10 11  2  0
  5 12  1  0
 12 13  1  0
 13 14  1  0
 14 15  1  0
 15 16  1  0
 16 17  2  0
 16 18  1  0
 18 19  1  0
 19 20  1  0
 19 21  1  0
 21 22  1  0
 22 23  1  0
 23 24  2  0
 24 25  1  0
 25 26  1  0
 26 27  2  0
 27 28  1  0
 28 29  2  0
 29 30  1  0
 30 31  2  0
 15 32  1  0
 32 33  1  0
 11  6  1  0
 33 12  1  0
 31 23  1  0
 31 26  1  0
  1 34  1  0
  1 35  1  0
  1 36  1  0
  2 37  1  0
  2 38  1  0
  7 39  1  0
  8 40  1  0
  9 41  1  0
 10 42  1  0
 11 43  1  0
 12 44  1  0
 13 45  1  0
 13 46  1  0
 14 47  1  0
 14 48  1  0
 18 49  1  0
 18 50  1  0
 19 51  1  6
 20 52  1  0
 20 53  1  0
 21 54  1  0
 21 55  1  0
 22 56  1  0
 22 57  1  0
 24 58  1  0
 25 59  1  0
 27 60  1  0
 28 61  1  0
 29 62  1  0
 30 63  1  0
 32 64  1  0
 32 65  1  0
 33 66  1  0
 33 67  1  0
M  END
>  <smiles>  (20) 
CCC(=O)N(c1ccccc1)C1CCN(C(=O)CC(N)CCc2c[nH]c3ccccc23)CC1

>  <score_type>  (20) 
oracle

>  <origin>  (20) 
autodockgpu

>  <m_score__min__energy>  (20) 
-9.5700000000000003

>  <m_primary>  (20) 
energy

>  <rmsd>  (20) 
6.196690092578949

>  <m_score__min__rmsd>  (20) 
6.196690092578949

>  <meeko>  (20) 
{"free_energy": -7.75, "intermolecular_energy": -10.73, "internal_energy": -2.45, "cluster_size": 1, "cluster_id": 11, "rank_in_cluster": 1}

>  <energy>  (20) 
-8.35

>  <cluster_rmsd>  (20) 
1.91

>  <cluster>  (20) 
2

$$$$

     RDKit          3D

 67 70  0  0  0  0  0  0  0  0999 V2000
  143.2650   76.4480  218.7700 C   0  0  0  0  0  0  0  0  0  0  0  0
  142.4990   76.6200  220.0520 C   0  0  0  0  0  0  0  0  0  0  0  0
  141.8580   77.9590  220.1750 C   0  0  0  0  0  0  0  0  0  0  0  0
  142.2000   78.8120  219.3100 O   0  0  0  0  0  0  0  0  0  0  0  0
  140.9130   78.2550  221.2130 N   0  0  0  0  0  0  0  0  0  0  0  0
  141.3440   79.2570  222.1540 C   0  0  0  0  0  0  0  0  0  0  0  0
  140.3400   80.0760  222.6600 C   0  0  0  0  0  0  0  0  0  0  0  0
  140.6330   81.0700  223.5720 C   0  0  0  0  0  0  0  0  0  0  0  0
  141.9510   81.2180  223.9590 C   0  0  0  0  0  0  0  0  0  0  0  0
  142.9590   80.3920  223.4480 C   0  0  0  0  0  0  0  0  0  0  0  0
  142.6470   79.4040  222.5380 C   0  0  0  0  0  0  0  0  0  0  0  0
  139.6260   77.6090  221.3130 C   0  0  0  0  0  0  0  0  0  0  0  0
  139.5320   76.6250  222.4270 C   0  0  0  0  0  0  0  0  0  0  0  0
  138.3270   75.6870  222.2510 C   0  0  0  0  0  0  0  0  0  0  0  0
  138.6440   74.8700  221.0890 N   0  0  0  0  0  0  0  0  0  0  0  0
  138.5690   73.4490  221.0960 C   0  0  0  0  0  0  0  0  0  0  0  0
  138.8720   72.8130  220.0290 O   0  0  0  0  0  0  0  0  0  0  0  0
  138.1630   72.6750  222.2690 C   0  0  0  0  0  0  0  0  0  0  0  0
  139.2640   71.7880  222.8360 C   0  0  2  0  0  0  0  0  0  0  0  0
  139.8970   71.1530  221.6700 N   0  0  0  0  0  0  0  0  0  0  0  0
  138.5980   70.7290  223.6890 C   0  0  0  0  0  0  0  0  0  0  0  0
  139.3700   69.4140  223.6900 C   0  0  0  0  0  0  0  0  0  0  0  0
  139.6470   69.0200  225.0810 C   0  0  0  0  0  0  0  0  0  0  0  0
  139.4890   67.7780  225.6960 C   0  0  0  0  0  0  0  0  0  0  0  0
  139.8670   67.8670  226.9800 N   0  0  0  0  0  0  0  0  0  0  0  0
  140.2650   69.1290  227.2040 C   0  0  0  0  0  0  0  0  0  0  0  0
  140.7410   69.7310  228.3480 C   0  0  0  0  0  0  0  0  0  0  0  0
  141.0940   71.0740  228.3370 C   0  0  0  0  0  0  0  0  0  0  0  0
  140.9690   71.8210  227.1700 C   0  0  0  0  0  0  0  0  0  0  0  0
  140.4870   71.2230  226.0020 C   0  0  0  0  0  0  0  0  0  0  0  0
  140.1410   69.8790  226.0380 C   0  0  0  0  0  0  0  0  0  0  0  0
  139.0540   75.5730  219.8940 C   0  0  0  0  0  0  0  0  0  0  0  0
  139.0800   77.0440  220.0590 C   0  0  0  0  0  0  0  0  0  0  0  0
  144.3148   76.2123  218.9989 H   0  0  0  0  0  0  0  0  0  0  0  0
  142.8236   75.6266  218.1865 H   0  0  0  0  0  0  0  0  0  0  0  0
  143.2171   77.3793  218.1865 H   0  0  0  0  0  0  0  0  0  0  0  0
  141.7140   75.8507  220.0966 H   0  0  0  0  0  0  0  0  0  0  0  0
  143.2179   76.5235  220.8789 H   0  0  0  0  0  0  0  0  0  0  0  0
  139.3010   79.9300  222.3297 H   0  0  0  0  0  0  0  0  0  0  0  0
  139.8445   81.7216  223.9766 H   0  0  0  0  0  0  0  0  0  0  0  0
  142.2140   82.0020  224.6844 H   0  0  0  0  0  0  0  0  0  0  0  0
  144.0008   80.5311  223.7726 H   0  0  0  0  0  0  0  0  0  0  0  0
  143.4303   78.7483  222.1300 H   0  0  0  0  0  0  0  0  0  0  0  0
  138.9700   78.4585  221.5539 H   0  0  0  0  0  0  0  0  0  0  0  0
  140.4526   76.0234  222.4509 H   0  0  0  0  0  0  0  0  0  0  0  0
  139.4021   77.1804  223.3676 H   0  0  0  0  0  0  0  0  0  0  0  0
  138.1967   75.0555  223.1422 H   0  0  0  0  0  0  0  0  0  0  0  0
  137.3886   76.2450  222.1168 H   0  0  0  0  0  0  0  0  0  0  0  0
  137.8455   73.3771  223.0540 H   0  0  0  0  0  0  0  0  0  0  0  0
  137.3510   72.0074  221.9450 H   0  0  0  0  0  0  0  0  0  0  0  0
  139.9995   72.3393  223.4403 H   0  0  0  0  0  0  0  0  0  0  0  0
  139.1750   70.8490  220.9660 H   0  0  0  0  0  0  0  0  0  0  0  0
  140.4810   71.9050  221.2230 H   0  0  0  0  0  0  0  0  0  0  0  0
  138.5295   71.0993  224.7225 H   0  0  0  0  0  0  0  0  0  0  0  0
  137.6023   70.5333  223.2644 H   0  0  0  0  0  0  0  0  0  0  0  0
  138.7698   68.6340  223.1986 H   0  0  0  0  0  0  0  0  0  0  0  0
  140.3169   69.5394  223.1444 H   0  0  0  0  0  0  0  0  0  0  0  0
  139.1133   66.8682  225.2050 H   0  0  0  0  0  0  0  0  0  0  0  0
  139.8290   67.0490  227.6270 H   0  0  0  0  0  0  0  0  0  0  0  0
  140.8419   69.1456  229.2738 H   0  0  0  0  0  0  0  0  0  0  0  0
  141.4736   71.5487  229.2538 H   0  0  0  0  0  0  0  0  0  0  0  0
  141.2500   72.8845  227.1664 H   0  0  0  0  0  0  0  0  0  0  0  0
  140.3841   71.8049  225.0742 H   0  0  0  0  0  0  0  0  0  0  0  0
  140.0640   75.2347  219.6193 H   0  0  0  0  0  0  0  0  0  0  0  0
  138.3137   75.3461  219.1127 H   0  0  0  0  0  0  0  0  0  0  0  0
  139.6797   77.4520  219.2320 H   0  0  0  0  0  0  0  0  0  0  0  0
  138.0178   77.3294  220.0778 H   0  0  0  0  0  0  0  0  0  0  0  0
  1  2  1  0
  2  3  1  0
  3  4  2  0
  3  5  1  0
  5  6  1  0
  6  7  2  0
  7  8  1  0
  8  9  2  0
  9 10  1  0
 10 11  2  0
  5 12  1  0
 12 13  1  0
 13 14  1  0
 14 15  1  0
 15 16  1  0
 16 17  2  0
 16 18  1  0
 18 19  1  0
 19 20  1  0
 19 21  1  0
 21 22  1  0
 22 23  1  0
 23 24  2  0
 24 25  1  0
 25 26  1  0
 26 27  2  0
 27 28  1  0
 28 29  2  0
 29 30  1  0
 30 31  2  0
 15 32  1  0
 32 33  1  0
 11  6  1  0
 33 12  1  0
 31 23  1  0
 31 26  1  0
  1 34  1  0
  1 35  1  0
  1 36  1  0
  2 37  1  0
  2 38  1  0
  7 39  1  0
  8 40  1  0
  9 41  1  0
 10 42  1  0
 11 43  1  0
 12 44  1  0
 13 45  1  0
 13 46  1  0
 14 47  1  0
 14 48  1  0
 18 49  1  0
 18 50  1  0
 19 51  1  1
 20 52  1  0
 20 53  1  0
 21 54  1  0
 21 55  1  0
 22 56  1  0
 22 57  1  0
 24 58  1  0
 25 59  1  0
 27 60  1  0
 28 61  1  0
 29 62  1  0
 30 63  1  0
 32 64  1  0
 32 65  1  0
 33 66  1  0
 33 67  1  0
M  END
>  <smiles>  (21) 
CCC(=O)N(c1ccccc1)C1CCN(C(=O)CC(N)CCc2c[nH]c3ccccc23)CC1

>  <score_type>  (21) 
oracle

>  <origin>  (21) 
autodockgpu

>  <m_score__min__energy>  (21) 
-9.5700000000000003

>  <m_primary>  (21) 
energy

>  <rmsd>  (21) 
11.253522680460778

>  <m_score__min__rmsd>  (21) 
11.253522680460778

>  <meeko>  (21) 
{"free_energy": -8.35, "intermolecular_energy": -11.33, "internal_energy": -2.46, "cluster_size": 26, "cluster_id": 2, "rank_in_cluster": 18}

>  <energy>  (21) 
-8.33

>  <cluster_rmsd>  (21) 
1.81

>  <cluster>  (21) 
2

$$$$

     RDKit          3D

 67 70  0  0  0  0  0  0  0  0999 V2000
  141.8810   80.2030  223.5860 C   0  0  0  0  0  0  0  0  0  0  0  0
  142.5740   79.3800  222.5360 C   0  0  0  0  0  0  0  0  0  0  0  0
  141.6280   78.6280  221.6650 C   0  0  0  0  0  0  0  0  0  0  0  0
  140.7430   77.9590  222.2650 O   0  0  0  0  0  0  0  0  0  0  0  0
  141.7220   78.6650  220.2340 N   0  0  0  0  0  0  0  0  0  0  0  0
  141.8090   79.9880  219.6680 C   0  0  0  0  0  0  0  0  0  0  0  0
  142.5330   80.0880  218.4850 C   0  0  0  0  0  0  0  0  0  0  0  0
  142.6810   81.3050  217.8500 C   0  0  0  0  0  0  0  0  0  0  0  0
  142.0880   82.4090  218.4300 C   0  0  0  0  0  0  0  0  0  0  0  0
  141.3590   82.3040  219.6220 C   0  0  0  0  0  0  0  0  0  0  0  0
  141.2220   81.0810  220.2410 C   0  0  0  0  0  0  0  0  0  0  0  0
  141.7350   77.4770  219.4140 C   0  0  0  0  0  0  0  0  0  0  0  0
  140.5880   76.5610  219.6630 C   0  0  0  0  0  0  0  0  0  0  0  0
  140.8490   75.1590  219.0900 C   0  0  0  0  0  0  0  0  0  0  0  0
  141.9200   74.6060  219.9060 N   0  0  0  0  0  0  0  0  0  0  0  0
  141.8440   73.3260  220.5220 C   0  0  0  0  0  0  0  0  0  0  0  0
  142.8330   72.9240  221.2260 O   0  0  0  0  0  0  0  0  0  0  0  0
  140.6850   72.4430  220.3920 C   0  0  0  0  0  0  0  0  0  0  0  0
  139.6960   72.5470  221.5460 C   0  0  2  0  0  0  0  0  0  0  0  0
  140.1020   73.7390  222.3050 N   0  0  0  0  0  0  0  0  0  0  0  0
  139.8760   71.3140  222.4070 C   0  0  0  0  0  0  0  0  0  0  0  0
  139.3280   71.5060  223.8170 C   0  0  0  0  0  0  0  0  0  0  0  0
  139.5240   70.2630  224.5830 C   0  0  0  0  0  0  0  0  0  0  0  0
  139.2360   68.9480  224.2200 C   0  0  0  0  0  0  0  0  0  0  0  0
  139.5790   68.1260  225.2250 N   0  0  0  0  0  0  0  0  0  0  0  0
  140.0780   68.8780  226.2180 C   0  0  0  0  0  0  0  0  0  0  0  0
  140.5670   68.5220  227.4550 C   0  0  0  0  0  0  0  0  0  0  0  0
  141.0360   69.4950  228.3280 C   0  0  0  0  0  0  0  0  0  0  0  0
  141.0160   70.8360  227.9600 C   0  0  0  0  0  0  0  0  0  0  0  0
  140.5220   71.2110  226.7060 C   0  0  0  0  0  0  0  0  0  0  0  0
  140.0580   70.2210  225.8510 C   0  0  0  0  0  0  0  0  0  0  0  0
  143.0980   75.4290  220.0760 C   0  0  0  0  0  0  0  0  0  0  0  0
  143.0110   76.7280  219.3710 C   0  0  0  0  0  0  0  0  0  0  0  0
  142.1785   79.8497  224.5843 H   0  0  0  0  0  0  0  0  0  0  0  0
  142.1657   81.2593  223.4710 H   0  0  0  0  0  0  0  0  0  0  0  0
  140.7917   80.1023  223.4710 H   0  0  0  0  0  0  0  0  0  0  0  0
  143.1735   80.0516  221.9039 H   0  0  0  0  0  0  0  0  0  0  0  0
  143.1983   78.6400  223.0582 H   0  0  0  0  0  0  0  0  0  0  0  0
  142.9926   79.1880  218.0505 H   0  0  0  0  0  0  0  0  0  0  0  0
  143.2519   81.3922  216.9138 H   0  0  0  0  0  0  0  0  0  0  0  0
  142.1901   83.3915  217.9460 H   0  0  0  0  0  0  0  0  0  0  0  0
  140.8958   83.1986  220.0637 H   0  0  0  0  0  0  0  0  0  0  0  0
  140.6520   80.9862  221.1770 H   0  0  0  0  0  0  0  0  0  0  0  0
  141.6171   77.9025  218.4065 H   0  0  0  0  0  0  0  0  0  0  0  0
  140.4258   76.4788  220.7479 H   0  0  0  0  0  0  0  0  0  0  0  0
  139.7006   76.9771  219.1636 H   0  0  0  0  0  0  0  0  0  0  0  0
  139.9452   74.5367  219.1666 H   0  0  0  0  0  0  0  0  0  0  0  0
  141.1206   75.1945  218.0246 H   0  0  0  0  0  0  0  0  0  0  0  0
  140.1582   72.6981  219.4606 H   0  0  0  0  0  0  0  0  0  0  0  0
  141.0681   71.4119  220.3923 H   0  0  0  0  0  0  0  0  0  0  0  0
  138.6486   72.6188  221.2178 H   0  0  0  0  0  0  0  0  0  0  0  0
  139.5630   73.8150  223.2080 H   0  0  0  0  0  0  0  0  0  0  0  0
  141.1140   73.5860  222.5500 H   0  0  0  0  0  0  0  0  0  0  0  0
  139.3483   70.4726  221.9342 H   0  0  0  0  0  0  0  0  0  0  0  0
  140.9550   71.1168  222.4899 H   0  0  0  0  0  0  0  0  0  0  0  0
  139.8621   72.3312  224.3107 H   0  0  0  0  0  0  0  0  0  0  0  0
  138.2557   71.7467  223.7686 H   0  0  0  0  0  0  0  0  0  0  0  0
  138.7971   68.6335  223.2617 H   0  0  0  0  0  0  0  0  0  0  0  0
  139.4480   67.0920  225.1650 H   0  0  0  0  0  0  0  0  0  0  0  0
  140.5862   67.4633  227.7528 H   0  0  0  0  0  0  0  0  0  0  0  0
  141.4250   69.2037  229.3148 H   0  0  0  0  0  0  0  0  0  0  0  0
  141.3889   71.6024  228.6554 H   0  0  0  0  0  0  0  0  0  0  0  0
  140.5017   72.2685  226.4039 H   0  0  0  0  0  0  0  0  0  0  0  0
  143.2365   75.6230  221.1499 H   0  0  0  0  0  0  0  0  0  0  0  0
  143.9457   74.8786  219.6419 H   0  0  0  0  0  0  0  0  0  0  0  0
  143.7845   77.3817  219.8004 H   0  0  0  0  0  0  0  0  0  0  0  0
  143.1296   76.4639  218.3098 H   0  0  0  0  0  0  0  0  0  0  0  0
  1  2  1  0
  2  3  1  0
  3  4  2  0
  3  5  1  0
  5  6  1  0
  6  7  2  0
  7  8  1  0
  8  9  2  0
  9 10  1  0
 10 11  2  0
  5 12  1  0
 12 13  1  0
 13 14  1  0
 14 15  1  0
 15 16  1  0
 16 17  2  0
 16 18  1  0
 18 19  1  0
 19 20  1  0
 19 21  1  0
 21 22  1  0
 22 23  1  0
 23 24  2  0
 24 25  1  0
 25 26  1  0
 26 27  2  0
 27 28  1  0
 28 29  2  0
 29 30  1  0
 30 31  2  0
 15 32  1  0
 32 33  1  0
 11  6  1  0
 33 12  1  0
 31 23  1  0
 31 26  1  0
  1 34  1  0
  1 35  1  0
  1 36  1  0
  2 37  1  0
  2 38  1  0
  7 39  1  0
  8 40  1  0
  9 41  1  0
 10 42  1  0
 11 43  1  0
 12 44  1  0
 13 45  1  0
 13 46  1  0
 14 47  1  0
 14 48  1  0
 18 49  1  0
 18 50  1  0
 19 51  1  6
 20 52  1  0
 20 53  1  0
 21 54  1  0
 21 55  1  0
 22 56  1  0
 22 57  1  0
 24 58  1  0
 25 59  1  0
 27 60  1  0
 28 61  1  0
 29 62  1  0
 30 63  1  0
 32 64  1  0
 32 65  1  0
 33 66  1  0
 33 67  1  0
M  END
>  <smiles>  (22) 
CCC(=O)N(c1ccccc1)C1CCN(C(=O)CC(N)CCc2c[nH]c3ccccc23)CC1

>  <score_type>  (22) 
oracle

>  <origin>  (22) 
autodockgpu

>  <m_score__min__energy>  (22) 
-9.5700000000000003

>  <m_primary>  (22) 
energy

>  <rmsd>  (22) 
10.99807452590298

>  <m_score__min__rmsd>  (22) 
10.99807452590298

>  <meeko>  (22) 
{"free_energy": -8.5, "intermolecular_energy": -11.48, "internal_energy": -1.86, "cluster_size": 2, "cluster_id": 5, "rank_in_cluster": 1}

>  <energy>  (22) 
-8.32

>  <cluster_rmsd>  (22) 
1.94

>  <cluster>  (22) 
2

$$$$

     RDKit          3D

 67 70  0  0  0  0  0  0  0  0999 V2000
  138.0910   80.5100  223.5260 C   0  0  0  0  0  0  0  0  0  0  0  0
  137.9400   79.6630  222.2930 C   0  0  0  0  0  0  0  0  0  0  0  0
  138.6090   78.3380  222.4090 C   0  0  0  0  0  0  0  0  0  0  0  0
  137.9670   77.4510  223.0350 O   0  0  0  0  0  0  0  0  0  0  0  0
  139.9030   78.0900  221.8410 N   0  0  0  0  0  0  0  0  0  0  0  0
  140.9420   78.9820  222.2920 C   0  0  0  0  0  0  0  0  0  0  0  0
  141.2580   78.9000  223.6440 C   0  0  0  0  0  0  0  0  0  0  0  0
  142.2390   79.7040  224.1880 C   0  0  0  0  0  0  0  0  0  0  0  0
  142.8890   80.5850  223.3460 C   0  0  0  0  0  0  0  0  0  0  0  0
  142.5680   80.6650  221.9850 C   0  0  0  0  0  0  0  0  0  0  0  0
  141.5850   79.8540  221.4590 C   0  0  0  0  0  0  0  0  0  0  0  0
  140.1590   77.0300  220.8950 C   0  0  0  0  0  0  0  0  0  0  0  0
  139.0180   76.0890  220.7230 C   0  0  0  0  0  0  0  0  0  0  0  0
  139.4620   74.7820  220.0460 C   0  0  0  0  0  0  0  0  0  0  0  0
  140.3180   74.1190  221.0180 N   0  0  0  0  0  0  0  0  0  0  0  0
  140.1370   72.7640  221.4140 C   0  0  0  0  0  0  0  0  0  0  0  0
  140.9360   72.2660  222.2790 O   0  0  0  0  0  0  0  0  0  0  0  0
  139.0770   71.9080  220.8790 C   0  0  0  0  0  0  0  0  0  0  0  0
  137.9750   71.5900  221.8820 C   0  0  2  0  0  0  0  0  0  0  0  0
  137.7930   72.8200  222.6680 N   0  0  0  0  0  0  0  0  0  0  0  0
  138.4890   70.4860  222.7820 C   0  0  0  0  0  0  0  0  0  0  0  0
  138.5480   70.9110  224.2450 C   0  0  0  0  0  0  0  0  0  0  0  0
  139.0550   69.7880  225.0520 C   0  0  0  0  0  0  0  0  0  0  0  0
  138.8860   68.4170  224.8630 C   0  0  0  0  0  0  0  0  0  0  0  0
  139.5250   67.7520  225.8390 N   0  0  0  0  0  0  0  0  0  0  0  0
  140.0990   68.6590  226.6450 C   0  0  0  0  0  0  0  0  0  0  0  0
  140.8610   68.4970  227.7800 C   0  0  0  0  0  0  0  0  0  0  0  0
  141.3530   69.6050  228.4580 C   0  0  0  0  0  0  0  0  0  0  0  0
  141.0790   70.8880  227.9950 C   0  0  0  0  0  0  0  0  0  0  0  0
  140.3060   71.0670  226.8430 C   0  0  0  0  0  0  0  0  0  0  0  0
  139.8250   69.9440  226.1830 C   0  0  0  0  0  0  0  0  0  0  0  0
  141.3870   74.9090  221.5870 C   0  0  0  0  0  0  0  0  0  0  0  0
  141.4320   76.2950  221.0680 C   0  0  0  0  0  0  0  0  0  0  0  0
  137.9786   79.8793  224.4202 H   0  0  0  0  0  0  0  0  0  0  0  0
  139.0867   80.9776  223.5300 H   0  0  0  0  0  0  0  0  0  0  0  0
  137.3183   81.2929  223.5300 H   0  0  0  0  0  0  0  0  0  0  0  0
  136.8678   79.4990  222.1101 H   0  0  0  0  0  0  0  0  0  0  0  0
  138.4216   80.2021  221.4638 H   0  0  0  0  0  0  0  0  0  0  0  0
  140.7204   78.1869  224.2863 H   0  0  0  0  0  0  0  0  0  0  0  0
  142.4946   79.6452  225.2563 H   0  0  0  0  0  0  0  0  0  0  0  0
  143.6755   81.2376  223.7529 H   0  0  0  0  0  0  0  0  0  0  0  0
  143.1005   81.3753  221.3355 H   0  0  0  0  0  0  0  0  0  0  0  0
  141.3239   79.9076  220.3918 H   0  0  0  0  0  0  0  0  0  0  0  0
  140.2783   77.5930  219.9575 H   0  0  0  0  0  0  0  0  0  0  0  0
  138.5964   75.8541  221.7115 H   0  0  0  0  0  0  0  0  0  0  0  0
  138.2664   76.5719  220.0811 H   0  0  0  0  0  0  0  0  0  0  0  0
  138.5898   74.1549  219.8093 H   0  0  0  0  0  0  0  0  0  0  0  0
  139.9862   74.9686  219.0971 H   0  0  0  0  0  0  0  0  0  0  0  0
  138.6233   72.4170  220.0158 H   0  0  0  0  0  0  0  0  0  0  0  0
  139.5463   70.9513  220.6063 H   0  0  0  0  0  0  0  0  0  0  0  0
  137.0332   71.2732  221.4102 H   0  0  0  0  0  0  0  0  0  0  0  0
  137.2370   72.6310  223.5440 H   0  0  0  0  0  0  0  0  0  0  0  0
  138.7600   73.1130  222.9610 H   0  0  0  0  0  0  0  0  0  0  0  0
  137.8203   69.6171  222.6929 H   0  0  0  0  0  0  0  0  0  0  0  0
  139.5123   70.2405  222.4618 H   0  0  0  0  0  0  0  0  0  0  0  0
  139.2212   71.7745  224.3511 H   0  0  0  0  0  0  0  0  0  0  0  0
  137.5422   71.1919  224.5906 H   0  0  0  0  0  0  0  0  0  0  0  0
  138.3183   67.9529  224.0430 H   0  0  0  0  0  0  0  0  0  0  0  0
  139.5280   66.7100  225.8900 H   0  0  0  0  0  0  0  0  0  0  0  0
  141.0813   67.4854  228.1517 H   0  0  0  0  0  0  0  0  0  0  0  0
  141.9614   69.4676  229.3641 H   0  0  0  0  0  0  0  0  0  0  0  0
  141.4706   71.7625  228.5353 H   0  0  0  0  0  0  0  0  0  0  0  0
  140.0837   72.0768  226.4676 H   0  0  0  0  0  0  0  0  0  0  0  0
  141.2490   74.9490  222.6776 H   0  0  0  0  0  0  0  0  0  0  0  0
  142.3342   74.4253  221.3062 H   0  0  0  0  0  0  0  0  0  0  0  0
  142.0526   76.8808  221.7621 H   0  0  0  0  0  0  0  0  0  0  0  0
  141.8185   76.1848  220.0440 H   0  0  0  0  0  0  0  0  0  0  0  0
  1  2  1  0
  2  3  1  0
  3  4  2  0
  3  5  1  0
  5  6  1  0
  6  7  2  0
  7  8  1  0
  8  9  2  0
  9 10  1  0
 10 11  2  0
  5 12  1  0
 12 13  1  0
 13 14  1  0
 14 15  1  0
 15 16  1  0
 16 17  2  0
 16 18  1  0
 18 19  1  0
 19 20  1  0
 19 21  1  0
 21 22  1  0
 22 23  1  0
 23 24  2  0
 24 25  1  0
 25 26  1  0
 26 27  2  0
 27 28  1  0
 28 29  2  0
 29 30  1  0
 30 31  2  0
 15 32  1  0
 32 33  1  0
 11  6  1  0
 33 12  1  0
 31 23  1  0
 31 26  1  0
  1 34  1  0
  1 35  1  0
  1 36  1  0
  2 37  1  0
  2 38  1  0
  7 39  1  0
  8 40  1  0
  9 41  1  0
 10 42  1  0
 11 43  1  0
 12 44  1  0
 13 45  1  0
 13 46  1  0
 14 47  1  0
 14 48  1  0
 18 49  1  0
 18 50  1  0
 19 51  1  6
 20 52  1  0
 20 53  1  0
 21 54  1  0
 21 55  1  0
 22 56  1  0
 22 57  1  0
 24 58  1  0
 25 59  1  0
 27 60  1  0
 28 61  1  0
 29 62  1  0
 30 63  1  0
 32 64  1  0
 32 65  1  0
 33 66  1  0
 33 67  1  0
M  END
>  <smiles>  (23) 
CCC(=O)N(c1ccccc1)C1CCN(C(=O)CC(N)CCc2c[nH]c3ccccc23)CC1

>  <score_type>  (23) 
oracle

>  <origin>  (23) 
autodockgpu

>  <m_score__min__energy>  (23) 
-9.5700000000000003

>  <m_primary>  (23) 
energy

>  <rmsd>  (23) 
11.416403361370111

>  <m_score__min__rmsd>  (23) 
11.416403361370111

>  <meeko>  (23) 
{"free_energy": -8.31, "intermolecular_energy": -11.29, "internal_energy": -1.83, "cluster_size": 26, "cluster_id": 2, "rank_in_cluster": 21}

>  <energy>  (23) 
-8.31

>  <cluster_rmsd>  (23) 
0.74

>  <cluster>  (23) 
2

$$$$

     RDKit          3D

 67 70  0  0  0  0  0  0  0  0999 V2000
  137.0140   78.0620  221.5660 C   0  0  0  0  0  0  0  0  0  0  0  0
  138.0790   77.9120  222.6160 C   0  0  0  0  0  0  0  0  0  0  0  0
  139.0240   76.7960  222.3340 C   0  0  0  0  0  0  0  0  0  0  0  0
  138.6530   75.6520  222.7140 O   0  0  0  0  0  0  0  0  0  0  0  0
  140.2780   77.0140  221.6710 N   0  0  0  0  0  0  0  0  0  0  0  0
  140.9670   78.2180  222.0620 C   0  0  0  0  0  0  0  0  0  0  0  0
  141.5440   78.1950  223.3270 C   0  0  0  0  0  0  0  0  0  0  0  0
  142.2320   79.2910  223.8070 C   0  0  0  0  0  0  0  0  0  0  0  0
  142.3250   80.4010  222.9900 C   0  0  0  0  0  0  0  0  0  0  0  0
  141.7430   80.4200  221.7170 C   0  0  0  0  0  0  0  0  0  0  0  0
  141.0590   79.3160  221.2540 C   0  0  0  0  0  0  0  0  0  0  0  0
  140.8200   76.1030  220.6910 C   0  0  0  0  0  0  0  0  0  0  0  0
  141.2010   74.7760  221.2490 C   0  0  0  0  0  0  0  0  0  0  0  0
  142.1280   74.0060  220.2930 C   0  0  0  0  0  0  0  0  0  0  0  0
  143.3760   74.7540  220.2870 N   0  0  0  0  0  0  0  0  0  0  0  0
  144.6430   74.1480  220.5150 C   0  0  0  0  0  0  0  0  0  0  0  0
  145.6880   74.8860  220.4950 O   0  0  0  0  0  0  0  0  0  0  0  0
  144.8130   72.7180  220.7730 C   0  0  0  0  0  0  0  0  0  0  0  0
  145.6290   71.9920  219.7110 C   0  0  2  0  0  0  0  0  0  0  0  0
  146.3270   73.0470  218.9620 N   0  0  0  0  0  0  0  0  0  0  0  0
  144.6530   71.2830  218.7970 C   0  0  0  0  0  0  0  0  0  0  0  0
  144.0620   70.0320  219.4360 C   0  0  0  0  0  0  0  0  0  0  0  0
  144.9350   68.8830  219.1420 C   0  0  0  0  0  0  0  0  0  0  0  0
  145.4990   67.9560  220.0180 C   0  0  0  0  0  0  0  0  0  0  0  0
  146.2270   67.0710  219.3190 N   0  0  0  0  0  0  0  0  0  0  0  0
  146.1430   67.4050  218.0210 C   0  0  0  0  0  0  0  0  0  0  0  0
  146.7030   66.8220  216.9070 C   0  0  0  0  0  0  0  0  0  0  0  0
  146.4700   67.3570  215.6460 C   0  0  0  0  0  0  0  0  0  0  0  0
  145.6700   68.4860  215.5010 C   0  0  0  0  0  0  0  0  0  0  0  0
  145.0960   69.0870  216.6250 C   0  0  0  0  0  0  0  0  0  0  0  0
  145.3430   68.5350  217.8740 C   0  0  0  0  0  0  0  0  0  0  0  0
  143.2810   76.1750  220.0370 C   0  0  0  0  0  0  0  0  0  0  0  0
  141.8920   76.6400  219.8230 C   0  0  0  0  0  0  0  0  0  0  0  0
  136.0368   78.1996  222.0519 H   0  0  0  0  0  0  0  0  0  0  0  0
  137.2382   78.9374  220.9388 H   0  0  0  0  0  0  0  0  0  0  0  0
  136.9877   77.1587  220.9388 H   0  0  0  0  0  0  0  0  0  0  0  0
  138.6512   78.8499  222.6709 H   0  0  0  0  0  0  0  0  0  0  0  0
  137.5735   77.6819  223.5655 H   0  0  0  0  0  0  0  0  0  0  0  0
  141.4512   77.2942  223.9514 H   0  0  0  0  0  0  0  0  0  0  0  0
  142.6909   79.2809  224.8067 H   0  0  0  0  0  0  0  0  0  0  0  0
  142.8678   81.2886  223.3472 H   0  0  0  0  0  0  0  0  0  0  0  0
  141.8314   81.3164  221.0856 H   0  0  0  0  0  0  0  0  0  0  0  0
  140.5973   79.3191  220.2556 H   0  0  0  0  0  0  0  0  0  0  0  0
  139.9573   75.9565  220.0245 H   0  0  0  0  0  0  0  0  0  0  0  0
  141.7212   74.9271  222.2064 H   0  0  0  0  0  0  0  0  0  0  0  0
  140.2838   74.1853  221.3898 H   0  0  0  0  0  0  0  0  0  0  0  0
  142.2939   72.9817  220.6582 H   0  0  0  0  0  0  0  0  0  0  0  0
  141.6970   73.9173  219.2849 H   0  0  0  0  0  0  0  0  0  0  0  0
  145.3207   72.5987  221.7415 H   0  0  0  0  0  0  0  0  0  0  0  0
  143.8082   72.2704  220.7650 H   0  0  0  0  0  0  0  0  0  0  0  0
  146.3382   71.2626  220.1293 H   0  0  0  0  0  0  0  0  0  0  0  0
  145.6510   73.7810  218.6220 H   0  0  0  0  0  0  0  0  0  0  0  0
  146.9730   73.5050  219.6550 H   0  0  0  0  0  0  0  0  0  0  0  0
  143.8337   71.9745  218.5506 H   0  0  0  0  0  0  0  0  0  0  0  0
  145.2026   70.9718  217.8964 H   0  0  0  0  0  0  0  0  0  0  0  0
  143.9919   70.1724  220.5248 H   0  0  0  0  0  0  0  0  0  0  0  0
  143.0567   69.8475  219.0294 H   0  0  0  0  0  0  0  0  0  0  0  0
  145.3679   67.9508  221.1102 H   0  0  0  0  0  0  0  0  0  0  0  0
  146.7390   66.2870  219.7790 H   0  0  0  0  0  0  0  0  0  0  0  0
  147.3370   65.9297  217.0153 H   0  0  0  0  0  0  0  0  0  0  0  0
  146.9196   66.8863  214.7593 H   0  0  0  0  0  0  0  0  0  0  0  0
  145.4890   68.9062  214.5007 H   0  0  0  0  0  0  0  0  0  0  0  0
  144.4613   69.9795  216.5215 H   0  0  0  0  0  0  0  0  0  0  0  0
  143.6991   76.7105  220.9021 H   0  0  0  0  0  0  0  0  0  0  0  0
  143.8399   76.3813  219.1123 H   0  0  0  0  0  0  0  0  0  0  0  0
  141.8935   77.7327  219.9491 H   0  0  0  0  0  0  0  0  0  0  0  0
  141.6367   76.2650  218.8209 H   0  0  0  0  0  0  0  0  0  0  0  0
  1  2  1  0
  2  3  1  0
  3  4  2  0
  3  5  1  0
  5  6  1  0
  6  7  2  0
  7  8  1  0
  8  9  2  0
  9 10  1  0
 10 11  2  0
  5 12  1  0
 12 13  1  0
 13 14  1  0
 14 15  1  0
 15 16  1  0
 16 17  2  0
 16 18  1  0
 18 19  1  0
 19 20  1  0
 19 21  1  0
 21 22  1  0
 22 23  1  0
 23 24  2  0
 24 25  1  0
 25 26  1  0
 26 27  2  0
 27 28  1  0
 28 29  2  0
 29 30  1  0
 30 31  2  0
 15 32  1  0
 32 33  1  0
 11  6  1  0
 33 12  1  0
 31 23  1  0
 31 26  1  0
  1 34  1  0
  1 35  1  0
  1 36  1  0
  2 37  1  0
  2 38  1  0
  7 39  1  0
  8 40  1  0
  9 41  1  0
 10 42  1  0
 11 43  1  0
 12 44  1  0
 13 45  1  0
 13 46  1  0
 14 47  1  0
 14 48  1  0
 18 49  1  0
 18 50  1  0
 19 51  1  1
 20 52  1  0
 20 53  1  0
 21 54  1  0
 21 55  1  0
 22 56  1  0
 22 57  1  0
 24 58  1  0
 25 59  1  0
 27 60  1  0
 28 61  1  0
 29 62  1  0
 30 63  1  0
 32 64  1  0
 32 65  1  0
 33 66  1  0
 33 67  1  0
M  END
>  <smiles>  (24) 
CCC(=O)N(c1ccccc1)C1CCN(C(=O)CC(N)CCc2c[nH]c3ccccc23)CC1

>  <score_type>  (24) 
oracle

>  <origin>  (24) 
autodockgpu

>  <m_score__min__energy>  (24) 
-9.5700000000000003

>  <m_primary>  (24) 
energy

>  <rmsd>  (24) 
11.449260647626327

>  <m_score__min__rmsd>  (24) 
11.449260647626327

>  <meeko>  (24) 
{"free_energy": -7.82, "intermolecular_energy": -10.81, "internal_energy": -2.5, "cluster_size": 1, "cluster_id": 8, "rank_in_cluster": 1}

>  <energy>  (24) 
-7.97

>  <cluster_rmsd>  (24) 
0.92

>  <cluster>  (24) 
2

$$$$

     RDKit          3D

 67 70  0  0  0  0  0  0  0  0999 V2000
  136.8360   70.4830  224.2390 C   0  0  0  0  0  0  0  0  0  0  0  0
  137.3030   69.1850  224.8350 C   0  0  0  0  0  0  0  0  0  0  0  0
  138.7810   69.0100  224.7690 C   0  0  0  0  0  0  0  0  0  0  0  0
  139.1970   67.8220  224.8450 O   0  0  0  0  0  0  0  0  0  0  0  0
  139.6710   70.1270  224.6290 N   0  0  0  0  0  0  0  0  0  0  0  0
  140.1840   70.6500  225.8700 C   0  0  0  0  0  0  0  0  0  0  0  0
  139.8000   69.9610  227.0160 C   0  0  0  0  0  0  0  0  0  0  0  0
  140.2330   70.3690  228.2610 C   0  0  0  0  0  0  0  0  0  0  0  0
  141.0550   71.4770  228.3250 C   0  0  0  0  0  0  0  0  0  0  0  0
  141.4390   72.1680  227.1700 C   0  0  0  0  0  0  0  0  0  0  0  0
  140.9970   71.7460  225.9340 C   0  0  0  0  0  0  0  0  0  0  0  0
  140.0350   70.6880  223.3500 C   0  0  0  0  0  0  0  0  0  0  0  0
  139.7550   72.1460  223.2310 C   0  0  0  0  0  0  0  0  0  0  0  0
  139.7680   72.6050  221.7640 C   0  0  0  0  0  0  0  0  0  0  0  0
  138.6060   71.9760  221.1550 N   0  0  0  0  0  0  0  0  0  0  0  0
  137.6380   72.6980  220.4030 C   0  0  0  0  0  0  0  0  0  0  0  0
  136.6450   72.0610  219.9090 O   0  0  0  0  0  0  0  0  0  0  0  0
  137.7200   74.1390  220.1660 C   0  0  0  0  0  0  0  0  0  0  0  0
  136.6860   74.9510  220.9360 C   0  0  2  0  0  0  0  0  0  0  0  0
  135.4190   74.7600  220.2140 N   0  0  0  0  0  0  0  0  0  0  0  0
  137.1000   76.4050  220.8530 C   0  0  0  0  0  0  0  0  0  0  0  0
  137.4520   76.9880  222.2170 C   0  0  0  0  0  0  0  0  0  0  0  0
  138.9170   77.0730  222.3410 C   0  0  0  0  0  0  0  0  0  0  0  0
  139.8830   76.0990  222.0910 C   0  0  0  0  0  0  0  0  0  0  0  0
  141.1000   76.6090  222.3320 N   0  0  0  0  0  0  0  0  0  0  0  0
  140.9410   77.8810  222.7290 C   0  0  0  0  0  0  0  0  0  0  0  0
  141.8680   78.8310  223.0940 C   0  0  0  0  0  0  0  0  0  0  0  0
  141.4570   80.1010  223.4750 C   0  0  0  0  0  0  0  0  0  0  0  0
  140.1040   80.4230  223.4920 C   0  0  0  0  0  0  0  0  0  0  0  0
  139.1510   79.4680  223.1240 C   0  0  0  0  0  0  0  0  0  0  0  0
  139.5870   78.2050  222.7470 C   0  0  0  0  0  0  0  0  0  0  0  0
  138.4630   70.5500  221.3500 C   0  0  0  0  0  0  0  0  0  0  0  0
  139.5540   69.9570  222.1560 C   0  0  0  0  0  0  0  0  0  0  0  0
  136.5828   71.1868  225.0456 H   0  0  0  0  0  0  0  0  0  0  0  0
  137.6368   70.9103  223.6176 H   0  0  0  0  0  0  0  0  0  0  0  0
  135.9466   70.3021  223.6176 H   0  0  0  0  0  0  0  0  0  0  0  0
  136.9934   69.1527  225.8900 H   0  0  0  0  0  0  0  0  0  0  0  0
  136.8499   68.3726  224.2479 H   0  0  0  0  0  0  0  0  0  0  0  0
  139.1445   69.0820  226.9287 H   0  0  0  0  0  0  0  0  0  0  0  0
  139.9336   69.8299  229.1719 H   0  0  0  0  0  0  0  0  0  0  0  0
  141.4156   71.8238  229.3046 H   0  0  0  0  0  0  0  0  0  0  0  0
  142.0939   73.0483  227.2484 H   0  0  0  0  0  0  0  0  0  0  0  0
  141.2927   72.2804  225.0191 H   0  0  0  0  0  0  0  0  0  0  0  0
  141.1264   70.5505  223.3504 H   0  0  0  0  0  0  0  0  0  0  0  0
  138.7652   72.3561  223.6624 H   0  0  0  0  0  0  0  0  0  0  0  0
  140.5419   72.6934  223.7706 H   0  0  0  0  0  0  0  0  0  0  0  0
  139.6899   73.7005  221.7023 H   0  0  0  0  0  0  0  0  0  0  0  0
  140.7012   72.3234  221.2543 H   0  0  0  0  0  0  0  0  0  0  0  0
  138.7217   74.4825  220.4636 H   0  0  0  0  0  0  0  0  0  0  0  0
  137.5193   74.2986  219.0963 H   0  0  0  0  0  0  0  0  0  0  0  0
  136.5951   74.6524  221.9908 H   0  0  0  0  0  0  0  0  0  0  0  0
  135.4770   75.1490  219.2360 H   0  0  0  0  0  0  0  0  0  0  0  0
  135.2950   73.7180  220.1350 H   0  0  0  0  0  0  0  0  0  0  0  0
  137.9794   76.4850  220.1971 H   0  0  0  0  0  0  0  0  0  0  0  0
  136.2471   76.9743  220.4550 H   0  0  0  0  0  0  0  0  0  0  0  0
  137.0153   77.9932  222.3118 H   0  0  0  0  0  0  0  0  0  0  0  0
  137.0496   76.3420  223.0112 H   0  0  0  0  0  0  0  0  0  0  0  0
  139.6790   75.0734  221.7497 H   0  0  0  0  0  0  0  0  0  0  0  0
  141.9710   76.0470  222.2090 H   0  0  0  0  0  0  0  0  0  0  0  0
  142.9395   78.5826  223.0837 H   0  0  0  0  0  0  0  0  0  0  0  0
  142.2037   80.8551  223.7644 H   0  0  0  0  0  0  0  0  0  0  0  0
  139.7831   81.4304  223.7954 H   0  0  0  0  0  0  0  0  0  0  0  0
  138.0785   79.7124  223.1330 H   0  0  0  0  0  0  0  0  0  0  0  0
  137.5081   70.3617  221.8627 H   0  0  0  0  0  0  0  0  0  0  0  0
  138.4996   70.0799  220.3562 H   0  0  0  0  0  0  0  0  0  0  0  0
  139.2045   68.9719  222.4987 H   0  0  0  0  0  0  0  0  0  0  0  0
  140.4188   69.9583  221.4762 H   0  0  0  0  0  0  0  0  0  0  0  0
  1  2  1  0
  2  3  1  0
  3  4  2  0
  3  5  1  0
  5  6  1  0
  6  7  2  0
  7  8  1  0
  8  9  2  0
  9 10  1  0
 10 11  2  0
  5 12  1  0
 12 13  1  0
 13 14  1  0
 14 15  1  0
 15 16  1  0
 16 17  2  0
 16 18  1  0
 18 19  1  0
 19 20  1  0
 19 21  1  0
 21 22  1  0
 22 23  1  0
 23 24  2  0
 24 25  1  0
 25 26  1  0
 26 27  2  0
 27 28  1  0
 28 29  2  0
 29 30  1  0
 30 31  2  0
 15 32  1  0
 32 33  1  0
 11  6  1  0
 33 12  1  0
 31 23  1  0
 31 26  1  0
  1 34  1  0
  1 35  1  0
  1 36  1  0
  2 37  1  0
  2 38  1  0
  7 39  1  0
  8 40  1  0
  9 41  1  0
 10 42  1  0
 11 43  1  0
 12 44  1  0
 13 45  1  0
 13 46  1  0
 14 47  1  0
 14 48  1  0
 18 49  1  0
 18 50  1  0
 19 51  1  1
 20 52  1  0
 20 53  1  0
 21 54  1  0
 21 55  1  0
 22 56  1  0
 22 57  1  0
 24 58  1  0
 25 59  1  0
 27 60  1  0
 28 61  1  0
 29 62  1  0
 30 63  1  0
 32 64  1  0
 32 65  1  0
 33 66  1  0
 33 67  1  0
M  END
>  <smiles>  (25) 
CCC(=O)N(c1ccccc1)C1CCN(C(=O)CC(N)CCc2c[nH]c3ccccc23)CC1

>  <score_type>  (25) 
oracle

>  <origin>  (25) 
autodockgpu

>  <m_score__min__energy>  (25) 
-9.5700000000000003

>  <m_primary>  (25) 
energy

>  <rmsd>  (25) 
6.2160363837623045

>  <m_score__min__rmsd>  (25) 
6.2160363837623045

>  <meeko>  (25) 
{"free_energy": -7.81, "intermolecular_energy": -10.79, "internal_energy": -2.3, "cluster_size": 1, "cluster_id": 9, "rank_in_cluster": 1}

>  <energy>  (25) 
-7.94

>  <cluster_rmsd>  (25) 
1.87

>  <cluster>  (25) 
2

$$$$

     RDKit          3D

 67 70  0  0  0  0  0  0  0  0999 V2000
  146.0430   73.7030  221.1420 C   0  0  0  0  0  0  0  0  0  0  0  0
  145.3600   72.7880  220.1650 C   0  0  0  0  0  0  0  0  0  0  0  0
  144.4580   73.5060  219.2220 C   0  0  0  0  0  0  0  0  0  0  0  0
  144.7580   73.4160  218.0000 O   0  0  0  0  0  0  0  0  0  0  0  0
  143.3210   74.2520  219.6790 N   0  0  0  0  0  0  0  0  0  0  0  0
  142.9700   75.3830  218.8570 C   0  0  0  0  0  0  0  0  0  0  0  0
  142.2300   75.0880  217.7180 C   0  0  0  0  0  0  0  0  0  0  0  0
  141.8340   76.0910  216.8560 C   0  0  0  0  0  0  0  0  0  0  0  0
  142.1970   77.3870  217.1680 C   0  0  0  0  0  0  0  0  0  0  0  0
  142.9420   77.6800  218.3170 C   0  0  0  0  0  0  0  0  0  0  0  0
  143.3290   76.6650  219.1650 C   0  0  0  0  0  0  0  0  0  0  0  0
  142.5760   73.9040  220.8660 C   0  0  0  0  0  0  0  0  0  0  0  0
  142.0060   72.5290  220.8380 C   0  0  0  0  0  0  0  0  0  0  0  0
  140.9090   72.3500  221.8990 C   0  0  0  0  0  0  0  0  0  0  0  0
  139.8080   73.1930  221.4570 N   0  0  0  0  0  0  0  0  0  0  0  0
  138.4710   72.7220  221.3350 C   0  0  0  0  0  0  0  0  0  0  0  0
  137.5690   73.5340  220.9330 O   0  0  0  0  0  0  0  0  0  0  0  0
  138.0750   71.3480  221.6460 C   0  0  0  0  0  0  0  0  0  0  0  0
  137.1940   71.2250  222.8830 C   0  0  2  0  0  0  0  0  0  0  0  0
  136.5690   72.5450  223.0530 N   0  0  0  0  0  0  0  0  0  0  0  0
  138.1040   70.9410  224.0590 C   0  0  0  0  0  0  0  0  0  0  0  0
  139.0410   69.7670  223.7980 C   0  0  0  0  0  0  0  0  0  0  0  0
  139.5070   69.2270  225.0870 C   0  0  0  0  0  0  0  0  0  0  0  0
  139.4520   67.9200  225.5690 C   0  0  0  0  0  0  0  0  0  0  0  0
  139.9970   67.8750  226.7940 N   0  0  0  0  0  0  0  0  0  0  0  0
  140.4010   69.1160  227.1090 C   0  0  0  0  0  0  0  0  0  0  0  0
  141.0150   69.6000  228.2420 C   0  0  0  0  0  0  0  0  0  0  0  0
  141.3420   70.9460  228.3410 C   0  0  0  0  0  0  0  0  0  0  0  0
  141.0510   71.8160  227.2950 C   0  0  0  0  0  0  0  0  0  0  0  0
  140.4270   71.3380  226.1380 C   0  0  0  0  0  0  0  0  0  0  0  0
  140.1100   69.9880  226.0630 C   0  0  0  0  0  0  0  0  0  0  0  0
  140.1310   74.5650  221.1330 C   0  0  0  0  0  0  0  0  0  0  0  0
  141.5640   74.8880  221.3120 C   0  0  0  0  0  0  0  0  0  0  0  0
  145.8063   73.3859  222.1684 H   0  0  0  0  0  0  0  0  0  0  0  0
  147.1311   73.6592  220.9864 H   0  0  0  0  0  0  0  0  0  0  0  0
  145.6916   74.7337  220.9864 H   0  0  0  0  0  0  0  0  0  0  0  0
  146.1299   72.2625  219.5809 H   0  0  0  0  0  0  0  0  0  0  0  0
  144.7378   72.0928  220.7477 H   0  0  0  0  0  0  0  0  0  0  0  0
  141.9571   74.0447  217.5012 H   0  0  0  0  0  0  0  0  0  0  0  0
  141.2495   75.8660  215.9517 H   0  0  0  0  0  0  0  0  0  0  0  0
  141.8943   78.2064  216.4994 H   0  0  0  0  0  0  0  0  0  0  0  0
  143.2183   78.7205  218.5427 H   0  0  0  0  0  0  0  0  0  0  0  0
  143.9144   76.8822  220.0706 H   0  0  0  0  0  0  0  0  0  0  0  0
  143.3614   73.9295  221.6357 H   0  0  0  0  0  0  0  0  0  0  0  0
  141.5749   72.3414  219.8435 H   0  0  0  0  0  0  0  0  0  0  0  0
  142.8152   71.8165  221.0560 H   0  0  0  0  0  0  0  0  0  0  0  0
  140.5919   71.2980  221.9521 H   0  0  0  0  0  0  0  0  0  0  0  0
  141.2605   72.6269  222.9039 H   0  0  0  0  0  0  0  0  0  0  0  0
  137.5222   70.9435  220.7853 H   0  0  0  0  0  0  0  0  0  0  0  0
  138.9989   70.7887  221.8548 H   0  0  0  0  0  0  0  0  0  0  0  0
  136.4369   70.4311  222.8021 H   0  0  0  0  0  0  0  0  0  0  0  0
  137.2970   73.3050  223.1120 H   0  0  0  0  0  0  0  0  0  0  0  0
  136.0090   72.7070  222.1780 H   0  0  0  0  0  0  0  0  0  0  0  0
  138.7086   71.8372  224.2624 H   0  0  0  0  0  0  0  0  0  0  0  0
  137.4696   70.6794  224.9187 H   0  0  0  0  0  0  0  0  0  0  0  0
  138.5043   68.9836  223.2428 H   0  0  0  0  0  0  0  0  0  0  0  0
  139.9030   70.1054  223.2044 H   0  0  0  0  0  0  0  0  0  0  0  0
  139.0281   67.0603  225.0294 H   0  0  0  0  0  0  0  0  0  0  0  0
  140.0590   66.9890  227.3420 H   0  0  0  0  0  0  0  0  0  0  0  0
  141.2477   68.9175  229.0727 H   0  0  0  0  0  0  0  0  0  0  0  0
  141.8327   71.3256  229.2494 H   0  0  0  0  0  0  0  0  0  0  0  0
  141.3120   72.8814  227.3780 H   0  0  0  0  0  0  0  0  0  0  0  0
  140.1923   72.0171  225.3051 H   0  0  0  0  0  0  0  0  0  0  0  0
  139.8605   74.7485  220.0827 H   0  0  0  0  0  0  0  0  0  0  0  0
  139.5643   75.2049  221.8254 H   0  0  0  0  0  0  0  0  0  0  0  0
  141.7564   75.8216  220.7630 H   0  0  0  0  0  0  0  0  0  0  0  0
  141.6941   74.9286  222.4035 H   0  0  0  0  0  0  0  0  0  0  0  0
  1  2  1  0
  2  3  1  0
  3  4  2  0
  3  5  1  0
  5  6  1  0
  6  7  2  0
  7  8  1  0
  8  9  2  0
  9 10  1  0
 10 11  2  0
  5 12  1  0
 12 13  1  0
 13 14  1  0
 14 15  1  0
 15 16  1  0
 16 17  2  0
 16 18  1  0
 18 19  1  0
 19 20  1  0
 19 21  1  0
 21 22  1  0
 22 23  1  0
 23 24  2  0
 24 25  1  0
 25 26  1  0
 26 27  2  0
 27 28  1  0
 28 29  2  0
 29 30  1  0
 30 31  2  0
 15 32  1  0
 32 33  1  0
 11  6  1  0
 33 12  1  0
 31 23  1  0
 31 26  1  0
  1 34  1  0
  1 35  1  0
  1 36  1  0
  2 37  1  0
  2 38  1  0
  7 39  1  0
  8 40  1  0
  9 41  1  0
 10 42  1  0
 11 43  1  0
 12 44  1  0
 13 45  1  0
 13 46  1  0
 14 47  1  0
 14 48  1  0
 18 49  1  0
 18 50  1  0
 19 51  1  6
 20 52  1  0
 20 53  1  0
 21 54  1  0
 21 55  1  0
 22 56  1  0
 22 57  1  0
 24 58  1  0
 25 59  1  0
 27 60  1  0
 28 61  1  0
 29 62  1  0
 30 63  1  0
 32 64  1  0
 32 65  1  0
 33 66  1  0
 33 67  1  0
M  END
>  <smiles>  (26) 
CCC(=O)N(c1ccccc1)C1CCN(C(=O)CC(N)CCc2c[nH]c3ccccc23)CC1

>  <score_type>  (26) 
oracle

>  <origin>  (26) 
autodockgpu

>  <m_score__min__energy>  (26) 
-9.5700000000000003

>  <m_primary>  (26) 
energy

>  <rmsd>  (26) 
11.385046878510922

>  <m_score__min__rmsd>  (26) 
11.385046878510922

>  <meeko>  (26) 
{"free_energy": -7.94, "intermolecular_energy": -10.92, "internal_energy": -2.77, "cluster_size": 2, "cluster_id": 7, "rank_in_cluster": 1}

>  <energy>  (26) 
-7.94

>  <cluster_rmsd>  (26) 
1.81

>  <cluster>  (26) 
2

$$$$

     RDKit          3D

 67 70  0  0  0  0  0  0  0  0999 V2000
  137.4430   77.1670  222.7120 C   0  0  0  0  0  0  0  0  0  0  0  0
  137.4620   78.4330  221.9020 C   0  0  0  0  0  0  0  0  0  0  0  0
  138.4420   78.3950  220.7810 C   0  0  0  0  0  0  0  0  0  0  0  0
  138.0650   78.9340  219.7040 O   0  0  0  0  0  0  0  0  0  0  0  0
  139.7320   77.7830  220.9220 N   0  0  0  0  0  0  0  0  0  0  0  0
  140.6640   78.5200  221.7380 C   0  0  0  0  0  0  0  0  0  0  0  0
  141.3110   79.5750  221.1050 C   0  0  0  0  0  0  0  0  0  0  0  0
  142.2240   80.3530  221.7880 C   0  0  0  0  0  0  0  0  0  0  0  0
  142.4670   80.0460  223.1130 C   0  0  0  0  0  0  0  0  0  0  0  0
  141.8130   78.9820  223.7470 C   0  0  0  0  0  0  0  0  0  0  0  0
  140.9040   78.2160  223.0480 C   0  0  0  0  0  0  0  0  0  0  0  0
  140.0790   76.5260  220.3030 C   0  0  0  0  0  0  0  0  0  0  0  0
  138.9780   75.5240  220.3160 C   0  0  0  0  0  0  0  0  0  0  0  0
  139.5010   74.1070  220.0320 C   0  0  0  0  0  0  0  0  0  0  0  0
  140.3050   73.7560  221.1940 N   0  0  0  0  0  0  0  0  0  0  0  0
  140.1320   72.5440  221.9190 C   0  0  0  0  0  0  0  0  0  0  0  0
  140.8830   72.3230  222.9300 O   0  0  0  0  0  0  0  0  0  0  0  0
  139.1350   71.5340  221.5650 C   0  0  0  0  0  0  0  0  0  0  0  0
  137.8780   71.5800  222.4250 C   0  0  2  0  0  0  0  0  0  0  0  0
  137.6060   73.0080  222.6470 N   0  0  0  0  0  0  0  0  0  0  0  0
  138.2080   70.9170  223.7450 C   0  0  0  0  0  0  0  0  0  0  0  0
  139.1910   69.7620  223.5840 C   0  0  0  0  0  0  0  0  0  0  0  0
  139.5470   69.2430  224.9150 C   0  0  0  0  0  0  0  0  0  0  0  0
  139.4460   67.9440  225.4130 C   0  0  0  0  0  0  0  0  0  0  0  0
  139.8870   67.9190  226.6800 N   0  0  0  0  0  0  0  0  0  0  0  0
  140.2690   69.1640  227.0070 C   0  0  0  0  0  0  0  0  0  0  0  0
  140.7880   69.6650  228.1790 C   0  0  0  0  0  0  0  0  0  0  0  0
  141.1110   71.0120  228.2820 C   0  0  0  0  0  0  0  0  0  0  0  0
  140.9110   71.8650  227.2010 C   0  0  0  0  0  0  0  0  0  0  0  0
  140.3840   71.3690  226.0050 C   0  0  0  0  0  0  0  0  0  0  0  0
  140.0690   70.0190  225.9260 C   0  0  0  0  0  0  0  0  0  0  0  0
  141.3120   74.7120  221.5980 C   0  0  0  0  0  0  0  0  0  0  0  0
  141.3560   75.9160  220.7380 C   0  0  0  0  0  0  0  0  0  0  0  0
  137.4467   77.4170  223.7832 H   0  0  0  0  0  0  0  0  0  0  0  0
  136.5361   76.5922  222.4728 H   0  0  0  0  0  0  0  0  0  0  0  0
  138.3322   76.5653  222.4728 H   0  0  0  0  0  0  0  0  0  0  0  0
  136.4578   78.5960  221.4837 H   0  0  0  0  0  0  0  0  0  0  0  0
  137.7652   79.2484  222.5751 H   0  0  0  0  0  0  0  0  0  0  0  0
  141.0932   79.7921  220.0489 H   0  0  0  0  0  0  0  0  0  0  0  0
  142.7406   81.1891  221.2941 H   0  0  0  0  0  0  0  0  0  0  0  0
  143.1892   80.6499  223.6819 H   0  0  0  0  0  0  0  0  0  0  0  0
  142.0245   78.7573  224.8028 H   0  0  0  0  0  0  0  0  0  0  0  0
  140.3834   77.3782  223.5348 H   0  0  0  0  0  0  0  0  0  0  0  0
  140.2465   76.8316  219.2597 H   0  0  0  0  0  0  0  0  0  0  0  0
  138.4962   75.5354  221.3048 H   0  0  0  0  0  0  0  0  0  0  0  0
  138.2598   75.7909  219.5267 H   0  0  0  0  0  0  0  0  0  0  0  0
  138.6638   73.4031  219.9155 H   0  0  0  0  0  0  0  0  0  0  0  0
  140.0844   74.0635  219.1005 H   0  0  0  0  0  0  0  0  0  0  0  0
  138.8428   71.6885  220.5158 H   0  0  0  0  0  0  0  0  0  0  0  0
  139.6013   70.5520  221.7330 H   0  0  0  0  0  0  0  0  0  0  0  0
  137.0162   71.0749  221.9643 H   0  0  0  0  0  0  0  0  0  0  0  0
  136.9500   73.1470  223.4600 H   0  0  0  0  0  0  0  0  0  0  0  0
  138.5320   73.4340  222.9090 H   0  0  0  0  0  0  0  0  0  0  0  0
  138.6509   71.6673  224.4165 H   0  0  0  0  0  0  0  0  0  0  0  0
  137.2742   70.5084  224.1586 H   0  0  0  0  0  0  0  0  0  0  0  0
  138.7254   68.9623  222.9893 H   0  0  0  0  0  0  0  0  0  0  0  0
  140.0969   70.1154  223.0697 H   0  0  0  0  0  0  0  0  0  0  0  0
  139.0647   67.0763  224.8547 H   0  0  0  0  0  0  0  0  0  0  0  0
  139.9000   67.0420  227.2450 H   0  0  0  0  0  0  0  0  0  0  0  0
  140.9477   68.9961  229.0375 H   0  0  0  0  0  0  0  0  0  0  0  0
  141.5263   71.4058  229.2214 H   0  0  0  0  0  0  0  0  0  0  0  0
  141.1679   72.9311  227.2877 H   0  0  0  0  0  0  0  0  0  0  0  0
  140.2222   72.0345  225.1442 H   0  0  0  0  0  0  0  0  0  0  0  0
  141.0993   75.0278  222.6300 H   0  0  0  0  0  0  0  0  0  0  0  0
  142.2884   74.2131  221.5097 H   0  0  0  0  0  0  0  0  0  0  0  0
  141.9121   76.6880  221.2900 H   0  0  0  0  0  0  0  0  0  0  0  0
  141.8140   75.5601  219.8034 H   0  0  0  0  0  0  0  0  0  0  0  0
  1  2  1  0
  2  3  1  0
  3  4  2  0
  3  5  1  0
  5  6  1  0
  6  7  2  0
  7  8  1  0
  8  9  2  0
  9 10  1  0
 10 11  2  0
  5 12  1  0
 12 13  1  0
 13 14  1  0
 14 15  1  0
 15 16  1  0
 16 17  2  0
 16 18  1  0
 18 19  1  0
 19 20  1  0
 19 21  1  0
 21 22  1  0
 22 23  1  0
 23 24  2  0
 24 25  1  0
 25 26  1  0
 26 27  2  0
 27 28  1  0
 28 29  2  0
 29 30  1  0
 30 31  2  0
 15 32  1  0
 32 33  1  0
 11  6  1  0
 33 12  1  0
 31 23  1  0
 31 26  1  0
  1 34  1  0
  1 35  1  0
  1 36  1  0
  2 37  1  0
  2 38  1  0
  7 39  1  0
  8 40  1  0
  9 41  1  0
 10 42  1  0
 11 43  1  0
 12 44  1  0
 13 45  1  0
 13 46  1  0
 14 47  1  0
 14 48  1  0
 18 49  1  0
 18 50  1  0
 19 51  1  6
 20 52  1  0
 20 53  1  0
 21 54  1  0
 21 55  1  0
 22 56  1  0
 22 57  1  0
 24 58  1  0
 25 59  1  0
 27 60  1  0
 28 61  1  0
 29 62  1  0
 30 63  1  0
 32 64  1  0
 32 65  1  0
 33 66  1  0
 33 67  1  0
M  END
>  <smiles>  (27) 
CCC(=O)N(c1ccccc1)C1CCN(C(=O)CC(N)CCc2c[nH]c3ccccc23)CC1

>  <score_type>  (27) 
oracle

>  <origin>  (27) 
autodockgpu

>  <m_score__min__energy>  (27) 
-9.5700000000000003

>  <m_primary>  (27) 
energy

>  <rmsd>  (27) 
11.272522452833005

>  <m_score__min__rmsd>  (27) 
11.272522452833005

>  <meeko>  (27) 
{"free_energy": -8.87, "intermolecular_energy": -11.86, "internal_energy": -2.02, "cluster_size": 26, "cluster_id": 2, "rank_in_cluster": 11}

>  <energy>  (27) 
-7.75

>  <cluster_rmsd>  (27) 
1.7

>  <cluster>  (27) 
2

$$$$

     RDKit          3D

 67 70  0  0  0  0  0  0  0  0999 V2000
  142.8360   77.4020  217.7800 C   0  0  0  0  0  0  0  0  0  0  0  0
  142.2680   78.2230  218.9040 C   0  0  0  0  0  0  0  0  0  0  0  0
  141.9500   77.4160  220.1150 C   0  0  0  0  0  0  0  0  0  0  0  0
  142.5840   76.3320  220.2340 O   0  0  0  0  0  0  0  0  0  0  0  0
  140.9830   77.8490  221.0820 N   0  0  0  0  0  0  0  0  0  0  0  0
  141.4320   78.9060  221.9530 C   0  0  0  0  0  0  0  0  0  0  0  0
  141.4390   80.1800  221.3960 C   0  0  0  0  0  0  0  0  0  0  0  0
  141.8450   81.2710  222.1360 C   0  0  0  0  0  0  0  0  0  0  0  0
  142.2420   81.0510  223.4410 C   0  0  0  0  0  0  0  0  0  0  0  0
  142.2340   79.7670  223.9990 C   0  0  0  0  0  0  0  0  0  0  0  0
  141.8240   78.6890  223.2440 C   0  0  0  0  0  0  0  0  0  0  0  0
  139.6600   77.2810  221.1820 C   0  0  0  0  0  0  0  0  0  0  0  0
  139.4890   76.3510  222.3320 C   0  0  0  0  0  0  0  0  0  0  0  0
  138.2360   75.4760  222.1700 C   0  0  0  0  0  0  0  0  0  0  0  0
  138.5280   74.5940  221.0490 N   0  0  0  0  0  0  0  0  0  0  0  0
  138.3730   73.1820  221.1130 C   0  0  0  0  0  0  0  0  0  0  0  0
  138.6590   72.4860  220.0790 O   0  0  0  0  0  0  0  0  0  0  0  0
  137.9000   72.4810  222.3080 C   0  0  0  0  0  0  0  0  0  0  0  0
  139.0060   71.7930  223.0980 C   0  0  2  0  0  0  0  0  0  0  0  0
  140.0160   71.4020  222.1020 N   0  0  0  0  0  0  0  0  0  0  0  0
  138.4080   70.5510  223.7250 C   0  0  0  0  0  0  0  0  0  0  0  0
  139.3810   69.3780  223.7330 C   0  0  0  0  0  0  0  0  0  0  0  0
  139.6750   69.0050  225.1270 C   0  0  0  0  0  0  0  0  0  0  0  0
  139.5330   67.7710  225.7590 C   0  0  0  0  0  0  0  0  0  0  0  0
  139.9230   67.8800  227.0390 N   0  0  0  0  0  0  0  0  0  0  0  0
  140.3120   69.1490  227.2420 C   0  0  0  0  0  0  0  0  0  0  0  0
  140.7920   69.7700  228.3730 C   0  0  0  0  0  0  0  0  0  0  0  0
  141.1330   71.1160  228.3400 C   0  0  0  0  0  0  0  0  0  0  0  0
  140.9910   71.8460  227.1650 C   0  0  0  0  0  0  0  0  0  0  0  0
  140.5030   71.2280  226.0100 C   0  0  0  0  0  0  0  0  0  0  0  0
  140.1690   69.8820  226.0670 C   0  0  0  0  0  0  0  0  0  0  0  0
  139.0000   75.2220  219.8350 C   0  0  0  0  0  0  0  0  0  0  0  0
  139.1070   76.6950  219.9400 C   0  0  0  0  0  0  0  0  0  0  0  0
  143.4157   76.5641  218.1946 H   0  0  0  0  0  0  0  0  0  0  0  0
  142.0153   77.0096  217.1615 H   0  0  0  0  0  0  0  0  0  0  0  0
  143.4926   78.0316  217.1615 H   0  0  0  0  0  0  0  0  0  0  0  0
  143.0024   78.9939  219.1801 H   0  0  0  0  0  0  0  0  0  0  0  0
  141.3251   78.6616  218.5455 H   0  0  0  0  0  0  0  0  0  0  0  0
  141.1171   80.3194  220.3534 H   0  0  0  0  0  0  0  0  0  0  0  0
  141.8524   82.2817  221.7020 H   0  0  0  0  0  0  0  0  0  0  0  0
  142.5713   81.9026  224.0544 H   0  0  0  0  0  0  0  0  0  0  0  0
  142.5551   79.6183  225.0405 H   0  0  0  0  0  0  0  0  0  0  0  0
  141.8126   77.6756  223.6717 H   0  0  0  0  0  0  0  0  0  0  0  0
  139.0492   78.1751  221.3757 H   0  0  0  0  0  0  0  0  0  0  0  0
  140.3730   75.6998  222.3991 H   0  0  0  0  0  0  0  0  0  0  0  0
  139.3735   76.9517  223.2462 H   0  0  0  0  0  0  0  0  0  0  0  0
  138.0533   74.8911  223.0835 H   0  0  0  0  0  0  0  0  0  0  0  0
  137.3334   76.0795  221.9937 H   0  0  0  0  0  0  0  0  0  0  0  0
  137.4074   73.2119  222.9661 H   0  0  0  0  0  0  0  0  0  0  0  0
  137.2142   71.6922  221.9652 H   0  0  0  0  0  0  0  0  0  0  0  0
  139.4420   72.4294  223.8822 H   0  0  0  0  0  0  0  0  0  0  0  0
  139.5770   70.8660  221.3080 H   0  0  0  0  0  0  0  0  0  0  0  0
  140.3890   72.3040  221.7110 H   0  0  0  0  0  0  0  0  0  0  0  0
  138.1235   70.7810  224.7624 H   0  0  0  0  0  0  0  0  0  0  0  0
  137.5351   70.2585  223.1230 H   0  0  0  0  0  0  0  0  0  0  0  0
  138.9300   68.5218  223.2099 H   0  0  0  0  0  0  0  0  0  0  0  0
  140.3119   69.6653  223.2221 H   0  0  0  0  0  0  0  0  0  0  0  0
  139.1599   66.8519  225.2836 H   0  0  0  0  0  0  0  0  0  0  0  0
  139.8980   67.0710  227.6970 H   0  0  0  0  0  0  0  0  0  0  0  0
  140.9059   69.1983  229.3059 H   0  0  0  0  0  0  0  0  0  0  0  0
  141.5168   71.6064  229.2467 H   0  0  0  0  0  0  0  0  0  0  0  0
  141.2631   72.9116  227.1444 H   0  0  0  0  0  0  0  0  0  0  0  0
  140.3862   71.7965  225.0756 H   0  0  0  0  0  0  0  0  0  0  0  0
  139.9940   74.8161  219.5958 H   0  0  0  0  0  0  0  0  0  0  0  0
  138.2626   75.0045  219.0482 H   0  0  0  0  0  0  0  0  0  0  0  0
  139.7452   77.0332  219.1104 H   0  0  0  0  0  0  0  0  0  0  0  0
  138.0628   77.0404  219.9237 H   0  0  0  0  0  0  0  0  0  0  0  0
  1  2  1  0
  2  3  1  0
  3  4  2  0
  3  5  1  0
  5  6  1  0
  6  7  2  0
  7  8  1  0
  8  9  2  0
  9 10  1  0
 10 11  2  0
  5 12  1  0
 12 13  1  0
 13 14  1  0
 14 15  1  0
 15 16  1  0
 16 17  2  0
 16 18  1  0
 18 19  1  0
 19 20  1  0
 19 21  1  0
 21 22  1  0
 22 23  1  0
 23 24  2  0
 24 25  1  0
 25 26  1  0
 26 27  2  0
 27 28  1  0
 28 29  2  0
 29 30  1  0
 30 31  2  0
 15 32  1  0
 32 33  1  0
 11  6  1  0
 33 12  1  0
 31 23  1  0
 31 26  1  0
  1 34  1  0
  1 35  1  0
  1 36  1  0
  2 37  1  0
  2 38  1  0
  7 39  1  0
  8 40  1  0
  9 41  1  0
 10 42  1  0
 11 43  1  0
 12 44  1  0
 13 45  1  0
 13 46  1  0
 14 47  1  0
 14 48  1  0
 18 49  1  0
 18 50  1  0
 19 51  1  1
 20 52  1  0
 20 53  1  0
 21 54  1  0
 21 55  1  0
 22 56  1  0
 22 57  1  0
 24 58  1  0
 25 59  1  0
 27 60  1  0
 28 61  1  0
 29 62  1  0
 30 63  1  0
 32 64  1  0
 32 65  1  0
 33 66  1  0
 33 67  1  0
M  END
>  <smiles>  (28) 
CCC(=O)N(c1ccccc1)C1CCN(C(=O)CC(N)CCc2c[nH]c3ccccc23)CC1

>  <score_type>  (28) 
oracle

>  <origin>  (28) 
autodockgpu

>  <m_score__min__energy>  (28) 
-9.5700000000000003

>  <m_primary>  (28) 
energy

>  <rmsd>  (28) 
11.314427793701364

>  <m_score__min__rmsd>  (28) 
11.314427793701364

>  <meeko>  (28) 
{"free_energy": -8.33, "intermolecular_energy": -11.31, "internal_energy": -2.34, "cluster_size": 26, "cluster_id": 2, "rank_in_cluster": 19}

>  <energy>  (28) 
-7.58

>  <cluster_rmsd>  (28) 
1.7

>  <cluster>  (28) 
2

$$$$

     RDKit          3D

 67 70  0  0  0  0  0  0  0  0999 V2000
  142.8630   80.4890  223.7870 C   0  0  0  0  0  0  0  0  0  0  0  0
  142.4730   79.5910  222.6470 C   0  0  0  0  0  0  0  0  0  0  0  0
  141.4580   78.5690  223.0280 C   0  0  0  0  0  0  0  0  0  0  0  0
  141.8250   77.7280  223.8940 O   0  0  0  0  0  0  0  0  0  0  0  0
  140.1480   78.5470  222.4440 N   0  0  0  0  0  0  0  0  0  0  0  0
  139.2930   79.6400  222.8350 C   0  0  0  0  0  0  0  0  0  0  0  0
  138.9740   79.6980  224.1870 C   0  0  0  0  0  0  0  0  0  0  0  0
  138.1660   80.7020  224.6780 C   0  0  0  0  0  0  0  0  0  0  0  0
  137.6900   81.6400  223.7820 C   0  0  0  0  0  0  0  0  0  0  0  0
  138.0140   81.5790  222.4210 C   0  0  0  0  0  0  0  0  0  0  0  0
  138.8230   80.5680  221.9490 C   0  0  0  0  0  0  0  0  0  0  0  0
  139.7090   77.5180  221.5310 C   0  0  0  0  0  0  0  0  0  0  0  0
  138.9070   76.4420  222.1780 C   0  0  0  0  0  0  0  0  0  0  0  0
  138.8150   75.1930  221.2860 C   0  0  0  0  0  0  0  0  0  0  0  0
  140.1640   74.6480  221.2500 N   0  0  0  0  0  0  0  0  0  0  0  0
  140.4580   73.2860  221.5330 C   0  0  0  0  0  0  0  0  0  0  0  0
  141.6750   72.8970  221.4820 O   0  0  0  0  0  0  0  0  0  0  0  0
  139.4330   72.3020  221.8840 C   0  0  0  0  0  0  0  0  0  0  0  0
  139.5780   71.7330  223.2900 C   0  0  2  0  0  0  0  0  0  0  0  0
  140.9530   72.0510  223.7030 N   0  0  0  0  0  0  0  0  0  0  0  0
  139.4150   70.2310  223.1890 C   0  0  0  0  0  0  0  0  0  0  0  0
  138.3920   69.6900  224.1810 C   0  0  0  0  0  0  0  0  0  0  0  0
  139.1010   69.1060  225.3330 C   0  0  0  0  0  0  0  0  0  0  0  0
  139.2100   67.7710  225.7180 C   0  0  0  0  0  0  0  0  0  0  0  0
  139.9540   67.6900  226.8320 N   0  0  0  0  0  0  0  0  0  0  0  0
  140.3240   68.9350  227.1700 C   0  0  0  0  0  0  0  0  0  0  0  0
  141.0860   69.3910  228.2220 C   0  0  0  0  0  0  0  0  0  0  0  0
  141.3380   70.7490  228.3670 C   0  0  0  0  0  0  0  0  0  0  0  0
  140.8210   71.6590  227.4510 C   0  0  0  0  0  0  0  0  0  0  0  0
  140.0450   71.2090  226.3780 C   0  0  0  0  0  0  0  0  0  0  0  0
  139.8070   69.8470  226.2540 C   0  0  0  0  0  0  0  0  0  0  0  0
  141.2270   75.5690  220.9090 C   0  0  0  0  0  0  0  0  0  0  0  0
  140.7480   76.9450  220.6470 C   0  0  0  0  0  0  0  0  0  0  0  0
  142.6448   79.9865  224.7408 H   0  0  0  0  0  0  0  0  0  0  0  0
  143.9387   80.7112  223.7273 H   0  0  0  0  0  0  0  0  0  0  0  0
  142.2911   81.4267  223.7273 H   0  0  0  0  0  0  0  0  0  0  0  0
  142.0586   80.2115  221.8387 H   0  0  0  0  0  0  0  0  0  0  0  0
  143.3780   79.0519  222.3302 H   0  0  0  0  0  0  0  0  0  0  0  0
  139.3705   78.9346  224.8726 H   0  0  0  0  0  0  0  0  0  0  0  0
  137.9093   80.7543  225.7463 H   0  0  0  0  0  0  0  0  0  0  0  0
  137.0429   82.4518  224.1455 H   0  0  0  0  0  0  0  0  0  0  0  0
  137.6226   82.3385  221.7282 H   0  0  0  0  0  0  0  0  0  0  0  0
  139.0847   80.5094  220.8822 H   0  0  0  0  0  0  0  0  0  0  0  0
  139.0426   78.0833  220.8629 H   0  0  0  0  0  0  0  0  0  0  0  0
  139.3821   76.1662  223.1310 H   0  0  0  0  0  0  0  0  0  0  0  0
  137.8885   76.8232  222.3436 H   0  0  0  0  0  0  0  0  0  0  0  0
  138.1153   74.4620  221.7173 H   0  0  0  0  0  0  0  0  0  0  0  0
  138.4425   75.4339  220.2794 H   0  0  0  0  0  0  0  0  0  0  0  0
  138.4480   72.7853  221.8060 H   0  0  0  0  0  0  0  0  0  0  0  0
  139.5471   71.4597  221.1857 H   0  0  0  0  0  0  0  0  0  0  0  0
  138.8427   72.1369  224.0015 H   0  0  0  0  0  0  0  0  0  0  0  0
  141.6560   71.5620  223.0890 H   0  0  0  0  0  0  0  0  0  0  0  0
  141.0610   73.0860  223.5480 H   0  0  0  0  0  0  0  0  0  0  0  0
  139.0865   69.9790  222.1699 H   0  0  0  0  0  0  0  0  0  0  0  0
  140.3863   69.7715  223.4244 H   0  0  0  0  0  0  0  0  0  0  0  0
  137.7428   70.5089  224.5244 H   0  0  0  0  0  0  0  0  0  0  0  0
  137.7757   68.9193  223.6951 H   0  0  0  0  0  0  0  0  0  0  0  0
  138.7574   66.9178  225.1915 H   0  0  0  0  0  0  0  0  0  0  0  0
  140.1620   66.7780  227.2950 H   0  0  0  0  0  0  0  0  0  0  0  0
  141.4969   68.6768  228.9507 H   0  0  0  0  0  0  0  0  0  0  0  0
  141.9487   71.1062  229.2093 H   0  0  0  0  0  0  0  0  0  0  0  0
  141.0227   72.7337  227.5706 H   0  0  0  0  0  0  0  0  0  0  0  0
  139.6317   71.9198  225.6473 H   0  0  0  0  0  0  0  0  0  0  0  0
  141.9422   75.6014  221.7441 H   0  0  0  0  0  0  0  0  0  0  0  0
  141.6900   75.2029  219.9807 H   0  0  0  0  0  0  0  0  0  0  0  0
  141.6234   77.6086  220.7045 H   0  0  0  0  0  0  0  0  0  0  0  0
  140.2535   76.8727  219.6671 H   0  0  0  0  0  0  0  0  0  0  0  0
  1  2  1  0
  2  3  1  0
  3  4  2  0
  3  5  1  0
  5  6  1  0
  6  7  2  0
  7  8  1  0
  8  9  2  0
  9 10  1  0
 10 11  2  0
  5 12  1  0
 12 13  1  0
 13 14  1  0
 14 15  1  0
 15 16  1  0
 16 17  2  0
 16 18  1  0
 18 19  1  0
 19 20  1  0
 19 21  1  0
 21 22  1  0
 22 23  1  0
 23 24  2  0
 24 25  1  0
 25 26  1  0
 26 27  2  0
 27 28  1  0
 28 29  2  0
 29 30  1  0
 30 31  2  0
 15 32  1  0
 32 33  1  0
 11  6  1  0
 33 12  1  0
 31 23  1  0
 31 26  1  0
  1 34  1  0
  1 35  1  0
  1 36  1  0
  2 37  1  0
  2 38  1  0
  7 39  1  0
  8 40  1  0
  9 41  1  0
 10 42  1  0
 11 43  1  0
 12 44  1  0
 13 45  1  0
 13 46  1  0
 14 47  1  0
 14 48  1  0
 18 49  1  0
 18 50  1  0
 19 51  1  1
 20 52  1  0
 20 53  1  0
 21 54  1  0
 21 55  1  0
 22 56  1  0
 22 57  1  0
 24 58  1  0
 25 59  1  0
 27 60  1  0
 28 61  1  0
 29 62  1  0
 30 63  1  0
 32 64  1  0
 32 65  1  0
 33 66  1  0
 33 67  1  0
M  END
>  <smiles>  (29) 
CCC(=O)N(c1ccccc1)C1CCN(C(=O)CC(N)CCc2c[nH]c3ccccc23)CC1

>  <score_type>  (29) 
oracle

>  <origin>  (29) 
autodockgpu

>  <m_score__min__energy>  (29) 
-9.5700000000000003

>  <m_primary>  (29) 
energy

>  <rmsd>  (29) 
11.372890779458752

>  <m_score__min__rmsd>  (29) 
11.372890779458752

>  <meeko>  (29) 
{"free_energy": -8.42, "intermolecular_energy": -11.41, "internal_energy": -2.46, "cluster_size": 3, "cluster_id": 4, "rank_in_cluster": 3}

>  <energy>  (29) 
-8.88

>  <cluster_rmsd>  (29) 
0.0

>  <cluster>  (29) 
3

$$$$

     RDKit          3D

 67 70  0  0  0  0  0  0  0  0999 V2000
  142.7730   81.2540  217.8580 C   0  0  0  0  0  0  0  0  0  0  0  0
  142.0870   79.9330  217.6490 C   0  0  0  0  0  0  0  0  0  0  0  0
  141.1500   79.5800  218.7520 C   0  0  0  0  0  0  0  0  0  0  0  0
  140.1150   80.2960  218.8430 O   0  0  0  0  0  0  0  0  0  0  0  0
  141.4120   78.4940  219.6510 N   0  0  0  0  0  0  0  0  0  0  0  0
  141.5610   78.8750  221.0330 C   0  0  0  0  0  0  0  0  0  0  0  0
  141.0020   78.0020  221.9590 C   0  0  0  0  0  0  0  0  0  0  0  0
  141.0850   78.2620  223.3120 C   0  0  0  0  0  0  0  0  0  0  0  0
  141.7390   79.4130  223.7070 C   0  0  0  0  0  0  0  0  0  0  0  0
  142.3000   80.2900  222.7710 C   0  0  0  0  0  0  0  0  0  0  0  0
  142.2080   80.0140  221.4230 C   0  0  0  0  0  0  0  0  0  0  0  0
  141.5170   77.1200  219.2180 C   0  0  0  0  0  0  0  0  0  0  0  0
  140.2170   76.3930  219.2030 C   0  0  0  0  0  0  0  0  0  0  0  0
  140.4230   74.8710  219.1390 C   0  0  0  0  0  0  0  0  0  0  0  0
  141.0090   74.5100  220.4210 N   0  0  0  0  0  0  0  0  0  0  0  0
  140.4920   73.4720  221.2450 C   0  0  0  0  0  0  0  0  0  0  0  0
  141.0710   73.2280  222.3590 O   0  0  0  0  0  0  0  0  0  0  0  0
  139.3270   72.6660  220.8810 C   0  0  0  0  0  0  0  0  0  0  0  0
  138.0890   72.9550  221.7220 C   0  0  2  0  0  0  0  0  0  0  0  0
  138.3270   74.2730  222.3310 N   0  0  0  0  0  0  0  0  0  0  0  0
  138.0250   71.9010  222.8080 C   0  0  0  0  0  0  0  0  0  0  0  0
  139.3160   71.0990  222.9150 C   0  0  0  0  0  0  0  0  0  0  0  0
  139.3020   70.3280  224.1700 C   0  0  0  0  0  0  0  0  0  0  0  0
  138.6740   69.1170  224.4550 C   0  0  0  0  0  0  0  0  0  0  0  0
  138.9280   68.7740  225.7280 N   0  0  0  0  0  0  0  0  0  0  0  0
  139.7020   69.7310  226.2640 C   0  0  0  0  0  0  0  0  0  0  0  0
  140.2340   69.8530  227.5280 C   0  0  0  0  0  0  0  0  0  0  0  0
  141.0170   70.9520  227.8550 C   0  0  0  0  0  0  0  0  0  0  0  0
  141.2700   71.9390  226.9080 C   0  0  0  0  0  0  0  0  0  0  0  0
  140.7350   71.8280  225.6200 C   0  0  0  0  0  0  0  0  0  0  0  0
  139.9560   70.7200  225.3170 C   0  0  0  0  0  0  0  0  0  0  0  0
  142.1670   75.2680  220.8420 C   0  0  0  0  0  0  0  0  0  0  0  0
  142.5700   76.3100  219.8700 C   0  0  0  0  0  0  0  0  0  0  0  0
  142.8739   81.4483  218.9360 H   0  0  0  0  0  0  0  0  0  0  0  0
  143.7706   81.2263  217.3955 H   0  0  0  0  0  0  0  0  0  0  0  0
  142.1765   82.0542  217.3955 H   0  0  0  0  0  0  0  0  0  0  0  0
  141.5189   79.9786  216.7082 H   0  0  0  0  0  0  0  0  0  0  0  0
  142.8678   79.1587  217.6216 H   0  0  0  0  0  0  0  0  0  0  0  0
  140.4880   77.0943  221.6098 H   0  0  0  0  0  0  0  0  0  0  0  0
  140.6453   77.5759  224.0508 H   0  0  0  0  0  0  0  0  0  0  0  0
  141.8206   79.6452  224.7791 H   0  0  0  0  0  0  0  0  0  0  0  0
  142.8149   81.2005  223.1113 H   0  0  0  0  0  0  0  0  0  0  0  0
  142.6455   80.6952  220.6784 H   0  0  0  0  0  0  0  0  0  0  0  0
  141.8505   77.2400  218.1767 H   0  0  0  0  0  0  0  0  0  0  0  0
  139.6589   76.6399  220.1182 H   0  0  0  0  0  0  0  0  0  0  0  0
  139.6584   76.7035  218.3077 H   0  0  0  0  0  0  0  0  0  0  0  0
  139.4608   74.3574  218.9966 H   0  0  0  0  0  0  0  0  0  0  0  0
  141.0668   74.5788  218.2963 H   0  0  0  0  0  0  0  0  0  0  0  0
  139.0838   72.8650  219.8268 H   0  0  0  0  0  0  0  0  0  0  0  0
  139.5970   71.6149  221.0609 H   0  0  0  0  0  0  0  0  0  0  0  0
  137.1548   72.9446  221.1413 H   0  0  0  0  0  0  0  0  0  0  0  0
  137.5460   74.5310  222.9900 H   0  0  0  0  0  0  0  0  0  0  0  0
  139.2040   74.1660  222.9010 H   0  0  0  0  0  0  0  0  0  0  0  0
  137.8364   72.3973  223.7714 H   0  0  0  0  0  0  0  0  0  0  0  0
  137.2159   71.2018  222.5499 H   0  0  0  0  0  0  0  0  0  0  0  0
  139.3938   70.4105  222.0606 H   0  0  0  0  0  0  0  0  0  0  0  0
  140.1781   71.7822  222.9094 H   0  0  0  0  0  0  0  0  0  0  0  0
  138.0657   68.5337  223.7480 H   0  0  0  0  0  0  0  0  0  0  0  0
  138.5520   67.8980  226.1520 H   0  0  0  0  0  0  0  0  0  0  0  0
  140.0379   69.0765  228.2820 H   0  0  0  0  0  0  0  0  0  0  0  0
  141.4389   71.0425  228.8668 H   0  0  0  0  0  0  0  0  0  0  0  0
  141.8912   72.8075  227.1720 H   0  0  0  0  0  0  0  0  0  0  0  0
  140.9278   72.6027  224.8633 H   0  0  0  0  0  0  0  0  0  0  0  0
  141.9356   75.7555  221.8006 H   0  0  0  0  0  0  0  0  0  0  0  0
  143.0054   74.5611  220.9282 H   0  0  0  0  0  0  0  0  0  0  0  0
  143.2335   77.0086  220.4009 H   0  0  0  0  0  0  0  0  0  0  0  0
  143.0209   75.7427  219.0424 H   0  0  0  0  0  0  0  0  0  0  0  0
  1  2  1  0
  2  3  1  0
  3  4  2  0
  3  5  1  0
  5  6  1  0
  6  7  2  0
  7  8  1  0
  8  9  2  0
  9 10  1  0
 10 11  2  0
  5 12  1  0
 12 13  1  0
 13 14  1  0
 14 15  1  0
 15 16  1  0
 16 17  2  0
 16 18  1  0
 18 19  1  0
 19 20  1  0
 19 21  1  0
 21 22  1  0
 22 23  1  0
 23 24  2  0
 24 25  1  0
 25 26  1  0
 26 27  2  0
 27 28  1  0
 28 29  2  0
 29 30  1  0
 30 31  2  0
 15 32  1  0
 32 33  1  0
 11  6  1  0
 33 12  1  0
 31 23  1  0
 31 26  1  0
  1 34  1  0
  1 35  1  0
  1 36  1  0
  2 37  1  0
  2 38  1  0
  7 39  1  0
  8 40  1  0
  9 41  1  0
 10 42  1  0
 11 43  1  0
 12 44  1  0
 13 45  1  0
 13 46  1  0
 14 47  1  0
 14 48  1  0
 18 49  1  0
 18 50  1  0
 19 51  1  6
 20 52  1  0
 20 53  1  0
 21 54  1  0
 21 55  1  0
 22 56  1  0
 22 57  1  0
 24 58  1  0
 25 59  1  0
 27 60  1  0
 28 61  1  0
 29 62  1  0
 30 63  1  0
 32 64  1  0
 32 65  1  0
 33 66  1  0
 33 67  1  0
M  END
>  <smiles>  (30) 
CCC(=O)N(c1ccccc1)C1CCN(C(=O)CC(N)CCc2c[nH]c3ccccc23)CC1

>  <score_type>  (30) 
oracle

>  <origin>  (30) 
autodockgpu

>  <m_score__min__energy>  (30) 
-9.5700000000000003

>  <m_primary>  (30) 
energy

>  <rmsd>  (30) 
10.422835119515305

>  <m_score__min__rmsd>  (30) 
10.422835119515305

>  <meeko>  (30) 
{"free_energy": -8.35, "intermolecular_energy": -11.33, "internal_energy": -2.18, "cluster_size": 7, "cluster_id": 3, "rank_in_cluster": 6}

>  <energy>  (30) 
-8.73

>  <cluster_rmsd>  (30) 
1.47

>  <cluster>  (30) 
3

$$$$

     RDKit          3D

 67 70  0  0  0  0  0  0  0  0999 V2000
  142.6440   80.0180  218.1620 C   0  0  0  0  0  0  0  0  0  0  0  0
  142.2760   78.5990  218.4950 C   0  0  0  0  0  0  0  0  0  0  0  0
  141.1340   78.4990  219.4470 C   0  0  0  0  0  0  0  0  0  0  0  0
  139.9840   78.5570  218.9320 O   0  0  0  0  0  0  0  0  0  0  0  0
  141.3360   78.3470  220.8590 N   0  0  0  0  0  0  0  0  0  0  0  0
  141.5430   79.5800  221.5760 C   0  0  0  0  0  0  0  0  0  0  0  0
  140.8660   80.6870  221.0740 C   0  0  0  0  0  0  0  0  0  0  0  0
  140.9860   81.9200  221.6810 C   0  0  0  0  0  0  0  0  0  0  0  0
  141.7960   82.0130  222.7960 C   0  0  0  0  0  0  0  0  0  0  0  0
  142.4760   80.8960  223.2990 C   0  0  0  0  0  0  0  0  0  0  0  0
  142.3440   79.6720  222.6790 C   0  0  0  0  0  0  0  0  0  0  0  0
  141.3290   77.0650  221.5220 C   0  0  0  0  0  0  0  0  0  0  0  0
  141.1410   75.9110  220.5990 C   0  0  0  0  0  0  0  0  0  0  0  0
  140.7360   74.6390  221.3610 C   0  0  0  0  0  0  0  0  0  0  0  0
  139.3960   74.9040  221.8640 N   0  0  0  0  0  0  0  0  0  0  0  0
  138.3030   74.0160  221.6640 C   0  0  0  0  0  0  0  0  0  0  0  0
  137.1590   74.3350  222.1390 O   0  0  0  0  0  0  0  0  0  0  0  0
  138.4220   72.7500  220.9400 C   0  0  0  0  0  0  0  0  0  0  0  0
  138.0490   71.5270  221.7690 C   0  0  2  0  0  0  0  0  0  0  0  0
  137.1420   72.0230  222.8150 N   0  0  0  0  0  0  0  0  0  0  0  0
  139.3200   71.0080  222.4060 C   0  0  0  0  0  0  0  0  0  0  0  0
  139.0440   70.1130  223.6080 C   0  0  0  0  0  0  0  0  0  0  0  0
  139.8010   70.6140  224.7670 C   0  0  0  0  0  0  0  0  0  0  0  0
  140.4390   71.8420  224.9420 C   0  0  0  0  0  0  0  0  0  0  0  0
  141.0060   71.8790  226.1570 N   0  0  0  0  0  0  0  0  0  0  0  0
  140.7480   70.7100  226.7660 C   0  0  0  0  0  0  0  0  0  0  0  0
  141.1040   70.2510  228.0140 C   0  0  0  0  0  0  0  0  0  0  0  0
  140.7150   68.9840  228.4300 C   0  0  0  0  0  0  0  0  0  0  0  0
  139.9630   68.1700  227.5890 C   0  0  0  0  0  0  0  0  0  0  0  0
  139.5960   68.6250  226.3180 C   0  0  0  0  0  0  0  0  0  0  0  0
  139.9960   69.8940  225.9250 C   0  0  0  0  0  0  0  0  0  0  0  0
  139.2090   76.1410  222.5910 C   0  0  0  0  0  0  0  0  0  0  0  0
  140.4460   76.9470  222.7040 C   0  0  0  0  0  0  0  0  0  0  0  0
  142.7914   80.5865  219.0921 H   0  0  0  0  0  0  0  0  0  0  0  0
  143.5743   80.0275  217.5751 H   0  0  0  0  0  0  0  0  0  0  0  0
  141.8355   80.4784  217.5751 H   0  0  0  0  0  0  0  0  0  0  0  0
  142.0021   78.0808  217.5642 H   0  0  0  0  0  0  0  0  0  0  0  0
  143.1492   78.1392  218.9810 H   0  0  0  0  0  0  0  0  0  0  0  0
  140.2286   80.5779  220.1841 H   0  0  0  0  0  0  0  0  0  0  0  0
  140.4542   82.8000  221.2900 H   0  0  0  0  0  0  0  0  0  0  0  0
  141.9096   82.9843  223.2996 H   0  0  0  0  0  0  0  0  0  0  0  0
  143.1152   80.9958  224.1886 H   0  0  0  0  0  0  0  0  0  0  0  0
  142.8726   78.7876  223.0643 H   0  0  0  0  0  0  0  0  0  0  0  0
  142.3526   77.0168  221.9218 H   0  0  0  0  0  0  0  0  0  0  0  0
  140.3526   76.1589  219.8731 H   0  0  0  0  0  0  0  0  0  0  0  0
  142.0966   75.7180  220.0894 H   0  0  0  0  0  0  0  0  0  0  0  0
  140.7295   73.7707  220.6857 H   0  0  0  0  0  0  0  0  0  0  0  0
  141.4404   74.4050  222.1728 H   0  0  0  0  0  0  0  0  0  0  0  0
  137.7593   72.7891  220.0629 H   0  0  0  0  0  0  0  0  0  0  0  0
  139.4811   72.6381  220.6646 H   0  0  0  0  0  0  0  0  0  0  0  0
  137.5792   70.7267  221.1784 H   0  0  0  0  0  0  0  0  0  0  0  0
  137.6380   72.6940  223.4590 H   0  0  0  0  0  0  0  0  0  0  0  0
  136.3940   72.5610  222.3080 H   0  0  0  0  0  0  0  0  0  0  0  0
  139.8803   70.4299  221.6564 H   0  0  0  0  0  0  0  0  0  0  0  0
  139.8965   71.8756  222.7593 H   0  0  0  0  0  0  0  0  0  0  0  0
  137.9683   70.1260  223.8374 H   0  0  0  0  0  0  0  0  0  0  0  0
  139.3541   69.0823  223.3809 H   0  0  0  0  0  0  0  0  0  0  0  0
  140.4720   72.6531  224.1997 H   0  0  0  0  0  0  0  0  0  0  0  0
  141.5380   72.7100  226.4960 H   0  0  0  0  0  0  0  0  0  0  0  0
  141.6984   70.8896  228.6840 H   0  0  0  0  0  0  0  0  0  0  0  0
  141.0027   68.6229  229.4284 H   0  0  0  0  0  0  0  0  0  0  0  0
  139.6567   67.1679  227.9236 H   0  0  0  0  0  0  0  0  0  0  0  0
  139.0025   67.9897  225.6441 H   0  0  0  0  0  0  0  0  0  0  0  0
  138.4481   76.7406  222.0699 H   0  0  0  0  0  0  0  0  0  0  0  0
  138.8993   75.8749  223.6124 H   0  0  0  0  0  0  0  0  0  0  0  0
  140.1433   77.9666  222.9849 H   0  0  0  0  0  0  0  0  0  0  0  0
  141.0550   76.3992  223.4382 H   0  0  0  0  0  0  0  0  0  0  0  0
  1  2  1  0
  2  3  1  0
  3  4  2  0
  3  5  1  0
  5  6  1  0
  6  7  2  0
  7  8  1  0
  8  9  2  0
  9 10  1  0
 10 11  2  0
  5 12  1  0
 12 13  1  0
 13 14  1  0
 14 15  1  0
 15 16  1  0
 16 17  2  0
 16 18  1  0
 18 19  1  0
 19 20  1  0
 19 21  1  0
 21 22  1  0
 22 23  1  0
 23 24  2  0
 24 25  1  0
 25 26  1  0
 26 27  2  0
 27 28  1  0
 28 29  2  0
 29 30  1  0
 30 31  2  0
 15 32  1  0
 32 33  1  0
 11  6  1  0
 33 12  1  0
 31 23  1  0
 31 26  1  0
  1 34  1  0
  1 35  1  0
  1 36  1  0
  2 37  1  0
  2 38  1  0
  7 39  1  0
  8 40  1  0
  9 41  1  0
 10 42  1  0
 11 43  1  0
 12 44  1  0
 13 45  1  0
 13 46  1  0
 14 47  1  0
 14 48  1  0
 18 49  1  0
 18 50  1  0
 19 51  1  6
 20 52  1  0
 20 53  1  0
 21 54  1  0
 21 55  1  0
 22 56  1  0
 22 57  1  0
 24 58  1  0
 25 59  1  0
 27 60  1  0
 28 61  1  0
 29 62  1  0
 30 63  1  0
 32 64  1  0
 32 65  1  0
 33 66  1  0
 33 67  1  0
M  END
>  <smiles>  (31) 
CCC(=O)N(c1ccccc1)C1CCN(C(=O)CC(N)CCc2c[nH]c3ccccc23)CC1

>  <score_type>  (31) 
oracle

>  <origin>  (31) 
autodockgpu

>  <m_score__min__energy>  (31) 
-9.5700000000000003

>  <m_primary>  (31) 
energy

>  <rmsd>  (31) 
10.671773025993948

>  <m_score__min__rmsd>  (31) 
10.671773025993948

>  <meeko>  (31) 
{"free_energy": -7.82, "intermolecular_energy": -10.8, "internal_energy": -2.55, "cluster_size": 3, "cluster_id": 6, "rank_in_cluster": 2}

>  <energy>  (31) 
-8.71

>  <cluster_rmsd>  (31) 
1.26

>  <cluster>  (31) 
3

$$$$

     RDKit          3D

 67 70  0  0  0  0  0  0  0  0999 V2000
  138.1260   80.3500  223.4370 C   0  0  0  0  0  0  0  0  0  0  0  0
  137.8230   78.9220  223.0800 C   0  0  0  0  0  0  0  0  0  0  0  0
  138.3020   78.5460  221.7200 C   0  0  0  0  0  0  0  0  0  0  0  0
  137.4850   78.7350  220.7780 O   0  0  0  0  0  0  0  0  0  0  0  0
  139.6120   78.0020  221.5020 N   0  0  0  0  0  0  0  0  0  0  0  0
  140.6800   78.7210  222.1490 C   0  0  0  0  0  0  0  0  0  0  0  0
  141.1970   79.7970  221.4350 C   0  0  0  0  0  0  0  0  0  0  0  0
  142.2210   80.5610  221.9570 C   0  0  0  0  0  0  0  0  0  0  0  0
  142.7080   80.2200  223.2030 C   0  0  0  0  0  0  0  0  0  0  0  0
  142.1850   79.1350  223.9190 C   0  0  0  0  0  0  0  0  0  0  0  0
  141.1620   78.3830  223.3820 C   0  0  0  0  0  0  0  0  0  0  0  0
  139.8530   76.8250  220.7020 C   0  0  0  0  0  0  0  0  0  0  0  0
  138.7490   75.8270  220.7520 C   0  0  0  0  0  0  0  0  0  0  0  0
  139.2060   74.4520  220.2390 C   0  0  0  0  0  0  0  0  0  0  0  0
  140.1560   73.9710  221.2310 N   0  0  0  0  0  0  0  0  0  0  0  0
  140.0660   72.6830  221.8300 C   0  0  0  0  0  0  0  0  0  0  0  0
  140.9430   72.3470  222.6970 O   0  0  0  0  0  0  0  0  0  0  0  0
  139.0140   71.7200  221.5040 C   0  0  0  0  0  0  0  0  0  0  0  0
  137.8950   71.6540  222.5350 C   0  0  2  0  0  0  0  0  0  0  0  0
  137.4390   73.0410  222.7100 N   0  0  0  0  0  0  0  0  0  0  0  0
  138.5030   71.1550  223.8300 C   0  0  0  0  0  0  0  0  0  0  0  0
  139.2940   69.8660  223.6400 C   0  0  0  0  0  0  0  0  0  0  0  0
  139.6370   69.3130  224.9610 C   0  0  0  0  0  0  0  0  0  0  0  0
  139.4990   68.0090  225.4350 C   0  0  0  0  0  0  0  0  0  0  0  0
  139.9420   67.9480  226.7010 N   0  0  0  0  0  0  0  0  0  0  0  0
  140.3610   69.1750  227.0490 C   0  0  0  0  0  0  0  0  0  0  0  0
  140.8980   69.6390  228.2280 C   0  0  0  0  0  0  0  0  0  0  0  0
  141.2610   70.9740  228.3540 C   0  0  0  0  0  0  0  0  0  0  0  0
  141.0840   71.8520  227.2900 C   0  0  0  0  0  0  0  0  0  0  0  0
  140.5390   71.3930  226.0860 C   0  0  0  0  0  0  0  0  0  0  0  0
  140.1840   70.0550  225.9840 C   0  0  0  0  0  0  0  0  0  0  0  0
  141.2230   74.8740  221.6000 C   0  0  0  0  0  0  0  0  0  0  0  0
  141.1670   76.1700  220.8860 C   0  0  0  0  0  0  0  0  0  0  0  0
  138.1488   80.4574  224.5315 H   0  0  0  0  0  0  0  0  0  0  0  0
  139.1041   80.6325  223.0204 H   0  0  0  0  0  0  0  0  0  0  0  0
  137.3469   81.0053  223.0204 H   0  0  0  0  0  0  0  0  0  0  0  0
  138.3099   78.2660  223.8166 H   0  0  0  0  0  0  0  0  0  0  0  0
  136.7290   78.8070  223.0862 H   0  0  0  0  0  0  0  0  0  0  0  0
  140.7856   80.0414  220.4445 H   0  0  0  0  0  0  0  0  0  0  0  0
  142.6354   81.4134  221.3987 H   0  0  0  0  0  0  0  0  0  0  0  0
  143.5237   80.8125  223.6429 H   0  0  0  0  0  0  0  0  0  0  0  0
  142.5909   78.8832  224.9099 H   0  0  0  0  0  0  0  0  0  0  0  0
  140.7427   77.5291  223.9343 H   0  0  0  0  0  0  0  0  0  0  0  0
  139.8820   77.2488  219.6873 H   0  0  0  0  0  0  0  0  0  0  0  0
  138.4073   75.7244  221.7925 H   0  0  0  0  0  0  0  0  0  0  0  0
  137.9340   76.1825  220.1044 H   0  0  0  0  0  0  0  0  0  0  0  0
  138.3500   73.7657  220.1602 H   0  0  0  0  0  0  0  0  0  0  0  0
  139.6549   74.5156  219.2368 H   0  0  0  0  0  0  0  0  0  0  0  0
  138.5757   72.0010  220.5350 H   0  0  0  0  0  0  0  0  0  0  0  0
  139.4865   70.7269  221.4824 H   0  0  0  0  0  0  0  0  0  0  0  0
  137.0664   70.9946  222.2373 H   0  0  0  0  0  0  0  0  0  0  0  0
  136.9260   73.1600  223.6230 H   0  0  0  0  0  0  0  0  0  0  0  0
  138.3140   73.6220  222.7580 H   0  0  0  0  0  0  0  0  0  0  0  0
  139.1776   71.9288  224.2251 H   0  0  0  0  0  0  0  0  0  0  0  0
  137.6798   70.9442  224.5285 H   0  0  0  0  0  0  0  0  0  0  0  0
  138.6852   69.1387  223.0828 H   0  0  0  0  0  0  0  0  0  0  0  0
  140.2144   70.0754  223.0752 H   0  0  0  0  0  0  0  0  0  0  0  0
  139.0913   67.1632  224.8619 H   0  0  0  0  0  0  0  0  0  0  0  0
  139.9300   67.0610  227.2510 H   0  0  0  0  0  0  0  0  0  0  0  0
  141.0403   68.9503  229.0738 H   0  0  0  0  0  0  0  0  0  0  0  0
  141.6902   71.3381  229.2991 H   0  0  0  0  0  0  0  0  0  0  0  0
  141.3728   72.9082  227.3952 H   0  0  0  0  0  0  0  0  0  0  0  0
  140.3948   72.0783  225.2377 H   0  0  0  0  0  0  0  0  0  0  0  0
  141.1582   75.0678  222.6809 H   0  0  0  0  0  0  0  0  0  0  0  0
  142.1706   74.3895  221.3217 H   0  0  0  0  0  0  0  0  0  0  0  0
  141.8041   76.8735  221.4420 H   0  0  0  0  0  0  0  0  0  0  0  0
  141.4882   75.9247  219.8629 H   0  0  0  0  0  0  0  0  0  0  0  0
  1  2  1  0
  2  3  1  0
  3  4  2  0
  3  5  1  0
  5  6  1  0
  6  7  2  0
  7  8  1  0
  8  9  2  0
  9 10  1  0
 10 11  2  0
  5 12  1  0
 12 13  1  0
 13 14  1  0
 14 15  1  0
 15 16  1  0
 16 17  2  0
 16 18  1  0
 18 19  1  0
 19 20  1  0
 19 21  1  0
 21 22  1  0
 22 23  1  0
 23 24  2  0
 24 25  1  0
 25 26  1  0
 26 27  2  0
 27 28  1  0
 28 29  2  0
 29 30  1  0
 30 31  2  0
 15 32  1  0
 32 33  1  0
 11  6  1  0
 33 12  1  0
 31 23  1  0
 31 26  1  0
  1 34  1  0
  1 35  1  0
  1 36  1  0
  2 37  1  0
  2 38  1  0
  7 39  1  0
  8 40  1  0
  9 41  1  0
 10 42  1  0
 11 43  1  0
 12 44  1  0
 13 45  1  0
 13 46  1  0
 14 47  1  0
 14 48  1  0
 18 49  1  0
 18 50  1  0
 19 51  1  6
 20 52  1  0
 20 53  1  0
 21 54  1  0
 21 55  1  0
 22 56  1  0
 22 57  1  0
 24 58  1  0
 25 59  1  0
 27 60  1  0
 28 61  1  0
 29 62  1  0
 30 63  1  0
 32 64  1  0
 32 65  1  0
 33 66  1  0
 33 67  1  0
M  END
>  <smiles>  (32) 
CCC(=O)N(c1ccccc1)C1CCN(C(=O)CC(N)CCc2c[nH]c3ccccc23)CC1

>  <score_type>  (32) 
oracle

>  <origin>  (32) 
autodockgpu

>  <m_score__min__energy>  (32) 
-9.5700000000000003

>  <m_primary>  (32) 
energy

>  <rmsd>  (32) 
11.21848723557549

>  <m_score__min__rmsd>  (32) 
11.21848723557549

>  <meeko>  (32) 
{"free_energy": -9.26, "intermolecular_energy": -12.25, "internal_energy": -1.72, "cluster_size": 26, "cluster_id": 2, "rank_in_cluster": 5}

>  <energy>  (32) 
-8.57

>  <cluster_rmsd>  (32) 
1.32

>  <cluster>  (32) 
3

$$$$

     RDKit          3D

 67 70  0  0  0  0  0  0  0  0999 V2000
  135.6420   80.8500  224.7390 C   0  0  0  0  0  0  0  0  0  0  0  0
  136.4340   80.2450  223.6140 C   0  0  0  0  0  0  0  0  0  0  0  0
  137.8920   80.1530  223.9080 C   0  0  0  0  0  0  0  0  0  0  0  0
  138.2720   80.7050  224.9770 O   0  0  0  0  0  0  0  0  0  0  0  0
  138.8020   79.4780  223.0280 N   0  0  0  0  0  0  0  0  0  0  0  0
  140.1760   79.8980  223.1420 C   0  0  0  0  0  0  0  0  0  0  0  0
  141.0910   78.8870  223.4150 C   0  0  0  0  0  0  0  0  0  0  0  0
  142.4350   79.1690  223.5430 C   0  0  0  0  0  0  0  0  0  0  0  0
  142.8340   80.4830  223.3910 C   0  0  0  0  0  0  0  0  0  0  0  0
  141.9100   81.4990  223.1170 C   0  0  0  0  0  0  0  0  0  0  0  0
  140.5700   81.1970  222.9920 C   0  0  0  0  0  0  0  0  0  0  0  0
  138.3860   78.4540  222.0990 C   0  0  0  0  0  0  0  0  0  0  0  0
  138.1180   77.1350  222.7380 C   0  0  0  0  0  0  0  0  0  0  0  0
  138.0830   76.0020  221.7000 C   0  0  0  0  0  0  0  0  0  0  0  0
  139.4510   75.8830  221.2170 N   0  0  0  0  0  0  0  0  0  0  0  0
  140.1530   74.6470  221.1730 C   0  0  0  0  0  0  0  0  0  0  0  0
  141.3550   74.6400  220.7370 O   0  0  0  0  0  0  0  0  0  0  0  0
  139.5680   73.3780  221.6060 C   0  0  0  0  0  0  0  0  0  0  0  0
  140.5030   72.5250  222.4540 C   0  0  2  0  0  0  0  0  0  0  0  0
  141.7200   72.3520  221.6470 N   0  0  0  0  0  0  0  0  0  0  0  0
  139.8330   71.1810  222.6520 C   0  0  0  0  0  0  0  0  0  0  0  0
  138.8590   71.1850  223.8250 C   0  0  0  0  0  0  0  0  0  0  0  0
  139.2350   70.1180  224.7670 C   0  0  0  0  0  0  0  0  0  0  0  0
  139.0050   68.7460  224.6850 C   0  0  0  0  0  0  0  0  0  0  0  0
  139.5240   68.1430  225.7660 N   0  0  0  0  0  0  0  0  0  0  0  0
  140.0810   69.0910  226.5370 C   0  0  0  0  0  0  0  0  0  0  0  0
  140.7370   68.9970  227.7430 C   0  0  0  0  0  0  0  0  0  0  0  0
  141.2340   70.1370  228.3610 C   0  0  0  0  0  0  0  0  0  0  0  0
  141.0710   71.3840  227.7660 C   0  0  0  0  0  0  0  0  0  0  0  0
  140.4050   71.4940  226.5400 C   0  0  0  0  0  0  0  0  0  0  0  0
  139.9180   70.3400  225.9420 C   0  0  0  0  0  0  0  0  0  0  0  0
  140.0900   77.1020  220.7730 C   0  0  0  0  0  0  0  0  0  0  0  0
  139.2210   78.2950  220.8870 C   0  0  0  0  0  0  0  0  0  0  0  0
  136.0657   80.5264  225.7012 H   0  0  0  0  0  0  0  0  0  0  0  0
  135.6855   81.9469  224.6696 H   0  0  0  0  0  0  0  0  0  0  0  0
  134.5951   80.5195  224.6696 H   0  0  0  0  0  0  0  0  0  0  0  0
  136.0512   79.2318  223.4218 H   0  0  0  0  0  0  0  0  0  0  0  0
  136.3168   80.9027  222.7401 H   0  0  0  0  0  0  0  0  0  0  0  0
  140.7391   77.8512  223.5301 H   0  0  0  0  0  0  0  0  0  0  0  0
  143.1646   78.3746  223.7588 H   0  0  0  0  0  0  0  0  0  0  0  0
  143.9001   80.7365  223.4873 H   0  0  0  0  0  0  0  0  0  0  0  0
  142.2528   82.5378  223.0015 H   0  0  0  0  0  0  0  0  0  0  0  0
  139.8343   81.9857  222.7761 H   0  0  0  0  0  0  0  0  0  0  0  0
  137.4286   78.8577  221.7379 H   0  0  0  0  0  0  0  0  0  0  0  0
  138.9118   76.9247  223.4698 H   0  0  0  0  0  0  0  0  0  0  0  0
  137.1349   77.1832  223.2291 H   0  0  0  0  0  0  0  0  0  0  0  0
  137.7558   75.0613  222.1669 H   0  0  0  0  0  0  0  0  0  0  0  0
  137.3764   76.2142  220.8841 H   0  0  0  0  0  0  0  0  0  0  0  0
  138.6664   73.5960  222.1972 H   0  0  0  0  0  0  0  0  0  0  0  0
  139.3468   72.8012  220.6959 H   0  0  0  0  0  0  0  0  0  0  0  0
  140.7324   72.9718  223.4326 H   0  0  0  0  0  0  0  0  0  0  0  0
  141.5130   72.4680  220.6200 H   0  0  0  0  0  0  0  0  0  0  0  0
  142.3610   73.1360  221.9330 H   0  0  0  0  0  0  0  0  0  0  0  0
  139.2817   70.9226  221.7358 H   0  0  0  0  0  0  0  0  0  0  0  0
  140.6189   70.4431  222.8708 H   0  0  0  0  0  0  0  0  0  0  0  0
  138.9010   72.1585  224.3353 H   0  0  0  0  0  0  0  0  0  0  0  0
  137.8365   71.0121  223.4582 H   0  0  0  0  0  0  0  0  0  0  0  0
  138.4803   68.2369  223.8631 H   0  0  0  0  0  0  0  0  0  0  0  0
  139.4640   67.1110  225.9090 H   0  0  0  0  0  0  0  0  0  0  0  0
  140.8683   68.0144  228.2197 H   0  0  0  0  0  0  0  0  0  0  0  0
  141.7584   70.0538  229.3244 H   0  0  0  0  0  0  0  0  0  0  0  0
  141.4659   72.2842  228.2596 H   0  0  0  0  0  0  0  0  0  0  0  0
  140.2703   72.4747  226.0603 H   0  0  0  0  0  0  0  0  0  0  0  0
  140.9902   77.2664  221.3834 H   0  0  0  0  0  0  0  0  0  0  0  0
  140.3290   76.9743  219.7069 H   0  0  0  0  0  0  0  0  0  0  0  0
  139.8740   79.1781  220.8258 H   0  0  0  0  0  0  0  0  0  0  0  0
  138.4903   78.1714  220.0741 H   0  0  0  0  0  0  0  0  0  0  0  0
  1  2  1  0
  2  3  1  0
  3  4  2  0
  3  5  1  0
  5  6  1  0
  6  7  2  0
  7  8  1  0
  8  9  2  0
  9 10  1  0
 10 11  2  0
  5 12  1  0
 12 13  1  0
 13 14  1  0
 14 15  1  0
 15 16  1  0
 16 17  2  0
 16 18  1  0
 18 19  1  0
 19 20  1  0
 19 21  1  0
 21 22  1  0
 22 23  1  0
 23 24  2  0
 24 25  1  0
 25 26  1  0
 26 27  2  0
 27 28  1  0
 28 29  2  0
 29 30  1  0
 30 31  2  0
 15 32  1  0
 32 33  1  0
 11  6  1  0
 33 12  1  0
 31 23  1  0
 31 26  1  0
  1 34  1  0
  1 35  1  0
  1 36  1  0
  2 37  1  0
  2 38  1  0
  7 39  1  0
  8 40  1  0
  9 41  1  0
 10 42  1  0
 11 43  1  0
 12 44  1  0
 13 45  1  0
 13 46  1  0
 14 47  1  0
 14 48  1  0
 18 49  1  0
 18 50  1  0
 19 51  1  1
 20 52  1  0
 20 53  1  0
 21 54  1  0
 21 55  1  0
 22 56  1  0
 22 57  1  0
 24 58  1  0
 25 59  1  0
 27 60  1  0
 28 61  1  0
 29 62  1  0
 30 63  1  0
 32 64  1  0
 32 65  1  0
 33 66  1  0
 33 67  1  0
M  END
>  <smiles>  (33) 
CCC(=O)N(c1ccccc1)C1CCN(C(=O)CC(N)CCc2c[nH]c3ccccc23)CC1

>  <score_type>  (33) 
oracle

>  <origin>  (33) 
autodockgpu

>  <m_score__min__energy>  (33) 
-9.5700000000000003

>  <m_primary>  (33) 
energy

>  <rmsd>  (33) 
10.797652432045824

>  <m_score__min__rmsd>  (33) 
10.797652432045824

>  <meeko>  (33) 
{"free_energy": -7.94, "intermolecular_energy": -10.92, "internal_energy": -2.49, "cluster_size": 26, "cluster_id": 2, "rank_in_cluster": 23}

>  <energy>  (33) 
-8.46

>  <cluster_rmsd>  (33) 
1.33

>  <cluster>  (33) 
3

$$$$

     RDKit          3D

 67 70  0  0  0  0  0  0  0  0999 V2000
  142.9680   76.9220  218.0610 C   0  0  0  0  0  0  0  0  0  0  0  0
  142.5450   78.2810  218.5450 C   0  0  0  0  0  0  0  0  0  0  0  0
  141.3230   78.2430  219.3970 C   0  0  0  0  0  0  0  0  0  0  0  0
  140.2230   78.2470  218.7800 O   0  0  0  0  0  0  0  0  0  0  0  0
  141.3990   78.2050  220.8290 N   0  0  0  0  0  0  0  0  0  0  0  0
  141.5780   79.4890  221.4590 C   0  0  0  0  0  0  0  0  0  0  0  0
  141.0550   80.5750  220.7660 C   0  0  0  0  0  0  0  0  0  0  0  0
  141.1640   81.8540  221.2740 C   0  0  0  0  0  0  0  0  0  0  0  0
  141.8070   82.0110  222.4860 C   0  0  0  0  0  0  0  0  0  0  0  0
  142.3330   80.9150  223.1810 C   0  0  0  0  0  0  0  0  0  0  0  0
  142.2150   79.6450  222.6580 C   0  0  0  0  0  0  0  0  0  0  0  0
  141.3000   76.9830  221.5910 C   0  0  0  0  0  0  0  0  0  0  0  0
  141.2180   75.7550  220.7520 C   0  0  0  0  0  0  0  0  0  0  0  0
  140.7120   74.5510  221.5610 C   0  0  0  0  0  0  0  0  0  0  0  0
  139.3230   74.8540  221.8710 N   0  0  0  0  0  0  0  0  0  0  0  0
  138.2560   73.9500  221.6130 C   0  0  0  0  0  0  0  0  0  0  0  0
  137.0640   74.3050  221.9140 O   0  0  0  0  0  0  0  0  0  0  0  0
  138.4520   72.6280  221.0170 C   0  0  0  0  0  0  0  0  0  0  0  0
  138.2300   71.4740  221.9870 C   0  0  2  0  0  0  0  0  0  0  0  0
  137.3070   71.9910  223.0080 N   0  0  0  0  0  0  0  0  0  0  0  0
  139.5660   71.1590  222.6270 C   0  0  0  0  0  0  0  0  0  0  0  0
  139.4520   70.0980  223.7160 C   0  0  0  0  0  0  0  0  0  0  0  0
  140.0770   70.6050  224.9490 C   0  0  0  0  0  0  0  0  0  0  0  0
  140.6620   71.8460  225.1980 C   0  0  0  0  0  0  0  0  0  0  0  0
  141.1040   71.8830  226.4640 N   0  0  0  0  0  0  0  0  0  0  0  0
  140.8180   70.7010  227.0330 C   0  0  0  0  0  0  0  0  0  0  0  0
  141.0610   70.2350  228.3060 C   0  0  0  0  0  0  0  0  0  0  0  0
  140.6660   68.9540  228.6690 C   0  0  0  0  0  0  0  0  0  0  0  0
  140.0240   68.1320  227.7490 C   0  0  0  0  0  0  0  0  0  0  0  0
  139.7720   68.5920  226.4530 C   0  0  0  0  0  0  0  0  0  0  0  0
  140.1750   69.8760  226.1130 C   0  0  0  0  0  0  0  0  0  0  0  0
  139.0570   76.1470  222.4630 C   0  0  0  0  0  0  0  0  0  0  0  0
  140.2770   76.9620  222.6610 C   0  0  0  0  0  0  0  0  0  0  0  0
  143.1704   76.2717  218.9248 H   0  0  0  0  0  0  0  0  0  0  0  0
  142.1640   76.4830  217.4520 H   0  0  0  0  0  0  0  0  0  0  0  0
  143.8791   77.0169  217.4520 H   0  0  0  0  0  0  0  0  0  0  0  0
  143.3677   78.7155  219.1318 H   0  0  0  0  0  0  0  0  0  0  0  0
  142.3079   78.8864  217.6577 H   0  0  0  0  0  0  0  0  0  0  0  0
  140.5490   80.4133  219.8028 H   0  0  0  0  0  0  0  0  0  0  0  0
  140.7528   82.7184  220.7320 H   0  0  0  0  0  0  0  0  0  0  0  0
  141.9082   83.0189  222.9148 H   0  0  0  0  0  0  0  0  0  0  0  0
  142.8406   81.0675  224.1449 H   0  0  0  0  0  0  0  0  0  0  0  0
  142.6246   78.7761  223.1940 H   0  0  0  0  0  0  0  0  0  0  0  0
  142.2663   76.9717  222.1165 H   0  0  0  0  0  0  0  0  0  0  0  0
  140.5273   75.9392  219.9159 H   0  0  0  0  0  0  0  0  0  0  0  0
  142.2277   75.5221  220.3829 H   0  0  0  0  0  0  0  0  0  0  0  0
  140.7816   73.6293  220.9647 H   0  0  0  0  0  0  0  0  0  0  0  0
  141.3091   74.3873  222.4702 H   0  0  0  0  0  0  0  0  0  0  0  0
  137.7468   72.5174  220.1801 H   0  0  0  0  0  0  0  0  0  0  0  0
  139.5023   72.5760  220.6941 H   0  0  0  0  0  0  0  0  0  0  0  0
  137.8287   70.5703  221.5051 H   0  0  0  0  0  0  0  0  0  0  0  0
  137.6980   72.8540  223.4710 H   0  0  0  0  0  0  0  0  0  0  0  0
  136.4390   72.2750  222.4860 H   0  0  0  0  0  0  0  0  0  0  0  0
  140.2533   70.7948  221.8493 H   0  0  0  0  0  0  0  0  0  0  0  0
  139.9400   72.0816  223.0949 H   0  0  0  0  0  0  0  0  0  0  0  0
  138.3912   69.8763  223.9048 H   0  0  0  0  0  0  0  0  0  0  0  0
  139.9619   69.1785  223.3928 H   0  0  0  0  0  0  0  0  0  0  0  0
  140.7477   72.6663  224.4702 H   0  0  0  0  0  0  0  0  0  0  0  0
  141.5780   72.7230  226.8620 H   0  0  0  0  0  0  0  0  0  0  0  0
  141.5698   70.8797  229.0378 H   0  0  0  0  0  0  0  0  0  0  0  0
  140.8616   68.5882  229.6878 H   0  0  0  0  0  0  0  0  0  0  0  0
  139.7139   67.1180  228.0416 H   0  0  0  0  0  0  0  0  0  0  0  0
  139.2649   67.9497  225.7180 H   0  0  0  0  0  0  0  0  0  0  0  0
  138.3716   76.6989  221.8030 H   0  0  0  0  0  0  0  0  0  0  0  0
  138.6203   75.9671  223.4564 H   0  0  0  0  0  0  0  0  0  0  0  0
  139.9505   78.0008  222.8170 H   0  0  0  0  0  0  0  0  0  0  0  0
  140.7863   76.4786  223.5077 H   0  0  0  0  0  0  0  0  0  0  0  0
  1  2  1  0
  2  3  1  0
  3  4  2  0
  3  5  1  0
  5  6  1  0
  6  7  2  0
  7  8  1  0
  8  9  2  0
  9 10  1  0
 10 11  2  0
  5 12  1  0
 12 13  1  0
 13 14  1  0
 14 15  1  0
 15 16  1  0
 16 17  2  0
 16 18  1  0
 18 19  1  0
 19 20  1  0
 19 21  1  0
 21 22  1  0
 22 23  1  0
 23 24  2  0
 24 25  1  0
 25 26  1  0
 26 27  2  0
 27 28  1  0
 28 29  2  0
 29 30  1  0
 30 31  2  0
 15 32  1  0
 32 33  1  0
 11  6  1  0
 33 12  1  0
 31 23  1  0
 31 26  1  0
  1 34  1  0
  1 35  1  0
  1 36  1  0
  2 37  1  0
  2 38  1  0
  7 39  1  0
  8 40  1  0
  9 41  1  0
 10 42  1  0
 11 43  1  0
 12 44  1  0
 13 45  1  0
 13 46  1  0
 14 47  1  0
 14 48  1  0
 18 49  1  0
 18 50  1  0
 19 51  1  6
 20 52  1  0
 20 53  1  0
 21 54  1  0
 21 55  1  0
 22 56  1  0
 22 57  1  0
 24 58  1  0
 25 59  1  0
 27 60  1  0
 28 61  1  0
 29 62  1  0
 30 63  1  0
 32 64  1  0
 32 65  1  0
 33 66  1  0
 33 67  1  0
M  END
>  <smiles>  (34) 
CCC(=O)N(c1ccccc1)C1CCN(C(=O)CC(N)CCc2c[nH]c3ccccc23)CC1

>  <score_type>  (34) 
oracle

>  <origin>  (34) 
autodockgpu

>  <m_score__min__energy>  (34) 
-9.5700000000000003

>  <m_primary>  (34) 
energy

>  <rmsd>  (34) 
10.774351307149065

>  <m_score__min__rmsd>  (34) 
10.774351307149065

>  <meeko>  (34) 
{"free_energy": -8.0, "intermolecular_energy": -10.98, "internal_energy": -2.59, "cluster_size": 3, "cluster_id": 6, "rank_in_cluster": 1}

>  <energy>  (34) 
-8.35

>  <cluster_rmsd>  (34) 
1.63

>  <cluster>  (34) 
3

$$$$

     RDKit          3D

 67 70  0  0  0  0  0  0  0  0999 V2000
  142.6630   81.6100  217.5090 C   0  0  0  0  0  0  0  0  0  0  0  0
  142.5540   80.1810  217.9630 C   0  0  0  0  0  0  0  0  0  0  0  0
  141.5670   79.9900  219.0620 C   0  0  0  0  0  0  0  0  0  0  0  0
  140.7150   80.9090  219.2010 O   0  0  0  0  0  0  0  0  0  0  0  0
  141.5880   78.8300  219.9060 N   0  0  0  0  0  0  0  0  0  0  0  0
  141.6830   79.1110  221.3170 C   0  0  0  0  0  0  0  0  0  0  0  0
  142.5100   80.1750  221.6620 C   0  0  0  0  0  0  0  0  0  0  0  0
  142.6750   80.5380  222.9830 C   0  0  0  0  0  0  0  0  0  0  0  0
  141.9940   79.8120  223.9400 C   0  0  0  0  0  0  0  0  0  0  0  0
  141.1620   78.7420  223.5890 C   0  0  0  0  0  0  0  0  0  0  0  0
  141.0090   78.3930  222.2640 C   0  0  0  0  0  0  0  0  0  0  0  0
  141.5160   77.4820  219.3950 C   0  0  0  0  0  0  0  0  0  0  0  0
  140.1280   76.9550  219.2810 C   0  0  0  0  0  0  0  0  0  0  0  0
  140.1160   75.4240  219.1340 C   0  0  0  0  0  0  0  0  0  0  0  0
  140.5780   74.9130  220.4150 N   0  0  0  0  0  0  0  0  0  0  0  0
  139.8770   73.9180  221.1520 C   0  0  0  0  0  0  0  0  0  0  0  0
  140.3570   73.5330  222.2720 O   0  0  0  0  0  0  0  0  0  0  0  0
  138.6270   73.3130  220.6910 C   0  0  0  0  0  0  0  0  0  0  0  0
  137.5210   73.3070  221.7390 C   0  0  2  0  0  0  0  0  0  0  0  0
  137.6150   74.6080  222.4170 N   0  0  0  0  0  0  0  0  0  0  0  0
  137.8360   72.2000  222.7230 C   0  0  0  0  0  0  0  0  0  0  0  0
  138.7860   71.1600  222.1410 C   0  0  0  0  0  0  0  0  0  0  0  0
  139.0720   70.1420  223.1660 C   0  0  0  0  0  0  0  0  0  0  0  0
  138.7380   68.7880  223.1850 C   0  0  0  0  0  0  0  0  0  0  0  0
  139.2010   68.2320  224.3150 N   0  0  0  0  0  0  0  0  0  0  0  0
  139.8240   69.1910  225.0190 C   0  0  0  0  0  0  0  0  0  0  0  0
  140.4630   69.1390  226.2370 C   0  0  0  0  0  0  0  0  0  0  0  0
  141.0420   70.2810  226.7730 C   0  0  0  0  0  0  0  0  0  0  0  0
  140.9800   71.4880  226.0830 C   0  0  0  0  0  0  0  0  0  0  0  0
  140.3330   71.5550  224.8450 C   0  0  0  0  0  0  0  0  0  0  0  0
  139.7630   70.3990  224.3300 C   0  0  0  0  0  0  0  0  0  0  0  0
  141.8100   75.4690  220.9300 C   0  0  0  0  0  0  0  0  0  0  0  0
  142.4070   76.4910  220.0410 C   0  0  0  0  0  0  0  0  0  0  0  0
  142.7134   82.2708  218.3869 H   0  0  0  0  0  0  0  0  0  0  0  0
  143.5732   81.7341  216.9039 H   0  0  0  0  0  0  0  0  0  0  0  0
  141.7821   81.8707  216.9039 H   0  0  0  0  0  0  0  0  0  0  0  0
  142.2469   79.5639  217.1057 H   0  0  0  0  0  0  0  0  0  0  0  0
  143.5393   79.8848  218.3523 H   0  0  0  0  0  0  0  0  0  0  0  0
  143.0376   80.7325  220.8740 H   0  0  0  0  0  0  0  0  0  0  0  0
  143.3274   81.3778  223.2644 H   0  0  0  0  0  0  0  0  0  0  0  0
  142.1076   80.0800  225.0008 H   0  0  0  0  0  0  0  0  0  0  0  0
  140.6302   78.1796  224.3706 H   0  0  0  0  0  0  0  0  0  0  0  0
  140.3582   77.5544  221.9755 H   0  0  0  0  0  0  0  0  0  0  0  0
  141.9159   77.6091  218.3782 H   0  0  0  0  0  0  0  0  0  0  0  0
  139.5654   77.2316  220.1849 H   0  0  0  0  0  0  0  0  0  0  0  0
  139.6661   77.3913  218.3831 H   0  0  0  0  0  0  0  0  0  0  0  0
  139.0984   75.0652  218.9202 H   0  0  0  0  0  0  0  0  0  0  0  0
  140.7531   75.0863  218.3033 H   0  0  0  0  0  0  0  0  0  0  0  0
  138.2717   73.8764  219.8156 H   0  0  0  0  0  0  0  0  0  0  0  0
  138.8490   72.2618  220.4548 H   0  0  0  0  0  0  0  0  0  0  0  0
  136.5189   73.1485  221.3140 H   0  0  0  0  0  0  0  0  0  0  0  0
  136.9200   74.6750  223.2070 H   0  0  0  0  0  0  0  0  0  0  0  0
  138.5790   74.6390  222.8360 H   0  0  0  0  0  0  0  0  0  0  0  0
  138.3008   72.6427  223.6163 H   0  0  0  0  0  0  0  0  0  0  0  0
  136.8923   71.6918  222.9704 H   0  0  0  0  0  0  0  0  0  0  0  0
  138.3186   70.6821  221.2674 H   0  0  0  0  0  0  0  0  0  0  0  0
  139.7224   71.6462  221.8299 H   0  0  0  0  0  0  0  0  0  0  0  0
  138.1821   68.2588  222.3970 H   0  0  0  0  0  0  0  0  0  0  0  0
  139.0610   67.2220  224.5340 H   0  0  0  0  0  0  0  0  0  0  0  0
  140.5150   68.1884  226.7880 H   0  0  0  0  0  0  0  0  0  0  0  0
  141.5517   70.2318  227.7466 H   0  0  0  0  0  0  0  0  0  0  0  0
  141.4404   72.3903  226.5118 H   0  0  0  0  0  0  0  0  0  0  0  0
  140.2770   72.5037  224.2911 H   0  0  0  0  0  0  0  0  0  0  0  0
  141.6029   75.9328  221.9057 H   0  0  0  0  0  0  0  0  0  0  0  0
  142.5325   74.6433  221.0090 H   0  0  0  0  0  0  0  0  0  0  0  0
  143.1368   77.0547  220.6406 H   0  0  0  0  0  0  0  0  0  0  0  0
  142.8117   75.9088  219.2001 H   0  0  0  0  0  0  0  0  0  0  0  0
  1  2  1  0
  2  3  1  0
  3  4  2  0
  3  5  1  0
  5  6  1  0
  6  7  2  0
  7  8  1  0
  8  9  2  0
  9 10  1  0
 10 11  2  0
  5 12  1  0
 12 13  1  0
 13 14  1  0
 14 15  1  0
 15 16  1  0
 16 17  2  0
 16 18  1  0
 18 19  1  0
 19 20  1  0
 19 21  1  0
 21 22  1  0
 22 23  1  0
 23 24  2  0
 24 25  1  0
 25 26  1  0
 26 27  2  0
 27 28  1  0
 28 29  2  0
 29 30  1  0
 30 31  2  0
 15 32  1  0
 32 33  1  0
 11  6  1  0
 33 12  1  0
 31 23  1  0
 31 26  1  0
  1 34  1  0
  1 35  1  0
  1 36  1  0
  2 37  1  0
  2 38  1  0
  7 39  1  0
  8 40  1  0
  9 41  1  0
 10 42  1  0
 11 43  1  0
 12 44  1  0
 13 45  1  0
 13 46  1  0
 14 47  1  0
 14 48  1  0
 18 49  1  0
 18 50  1  0
 19 51  1  6
 20 52  1  0
 20 53  1  0
 21 54  1  0
 21 55  1  0
 22 56  1  0
 22 57  1  0
 24 58  1  0
 25 59  1  0
 27 60  1  0
 28 61  1  0
 29 62  1  0
 30 63  1  0
 32 64  1  0
 32 65  1  0
 33 66  1  0
 33 67  1  0
M  END
>  <smiles>  (35) 
CCC(=O)N(c1ccccc1)C1CCN(C(=O)CC(N)CCc2c[nH]c3ccccc23)CC1

>  <score_type>  (35) 
oracle

>  <origin>  (35) 
autodockgpu

>  <m_score__min__energy>  (35) 
-9.5700000000000003

>  <m_primary>  (35) 
energy

>  <rmsd>  (35) 
10.104849629139615

>  <m_score__min__rmsd>  (35) 
10.104849629139615

>  <meeko>  (35) 
{"free_energy": -7.75, "intermolecular_energy": -10.73, "internal_energy": -2.2, "cluster_size": 7, "cluster_id": 3, "rank_in_cluster": 7}

>  <energy>  (35) 
-7.75

>  <cluster_rmsd>  (35) 
1.92

>  <cluster>  (35) 
3

$$$$

     RDKit          3D

 67 70  0  0  0  0  0  0  0  0999 V2000
  137.6030   80.1530  220.8160 C   0  0  0  0  0  0  0  0  0  0  0  0
  137.6020   79.6860  222.2450 C   0  0  0  0  0  0  0  0  0  0  0  0
  138.2300   78.3460  222.4220 C   0  0  0  0  0  0  0  0  0  0  0  0
  137.5530   77.5050  223.0750 O   0  0  0  0  0  0  0  0  0  0  0  0
  139.5220   78.0370  221.8830 N   0  0  0  0  0  0  0  0  0  0  0  0
  140.5800   78.9220  222.3040 C   0  0  0  0  0  0  0  0  0  0  0  0
  141.1290   78.6490  223.5520 C   0  0  0  0  0  0  0  0  0  0  0  0
  142.1500   79.4270  224.0580 C   0  0  0  0  0  0  0  0  0  0  0  0
  142.6020   80.4770  223.2840 C   0  0  0  0  0  0  0  0  0  0  0  0
  142.0470   80.7490  222.0270 C   0  0  0  0  0  0  0  0  0  0  0  0
  141.0270   79.9610  221.5380 C   0  0  0  0  0  0  0  0  0  0  0  0
  139.7590   76.9270  220.9910 C   0  0  0  0  0  0  0  0  0  0  0  0
  138.6760   75.9050  221.0020 C   0  0  0  0  0  0  0  0  0  0  0  0
  139.1420   74.5810  220.3740 C   0  0  0  0  0  0  0  0  0  0  0  0
  140.1330   74.0490  221.2980 N   0  0  0  0  0  0  0  0  0  0  0  0
  140.0870   72.7190  221.8030 C   0  0  0  0  0  0  0  0  0  0  0  0
  140.9990   72.3400  222.6150 O   0  0  0  0  0  0  0  0  0  0  0  0
  139.0430   71.7610  221.4390 C   0  0  0  0  0  0  0  0  0  0  0  0
  137.9580   71.5980  222.4960 C   0  0  2  0  0  0  0  0  0  0  0  0
  137.3970   72.9430  222.6940 N   0  0  0  0  0  0  0  0  0  0  0  0
  138.6350   71.1410  223.7710 C   0  0  0  0  0  0  0  0  0  0  0  0
  139.3060   69.7810  223.6170 C   0  0  0  0  0  0  0  0  0  0  0  0
  139.6280   69.2470  224.9510 C   0  0  0  0  0  0  0  0  0  0  0  0
  139.4820   67.9510  225.4420 C   0  0  0  0  0  0  0  0  0  0  0  0
  139.9040   67.9080  226.7160 N   0  0  0  0  0  0  0  0  0  0  0  0
  140.3170   69.1410  227.0520 C   0  0  0  0  0  0  0  0  0  0  0  0
  140.8340   69.6230  228.2330 C   0  0  0  0  0  0  0  0  0  0  0  0
  141.1950   70.9590  228.3460 C   0  0  0  0  0  0  0  0  0  0  0  0
  141.0360   71.8210  227.2650 C   0  0  0  0  0  0  0  0  0  0  0  0
  140.5110   71.3440  226.0600 C   0  0  0  0  0  0  0  0  0  0  0  0
  140.1580   70.0050  225.9720 C   0  0  0  0  0  0  0  0  0  0  0  0
  141.1950   74.9450  221.7000 C   0  0  0  0  0  0  0  0  0  0  0  0
  141.0910   76.2880  221.0850 C   0  0  0  0  0  0  0  0  0  0  0  0
  137.6053   81.2527  220.7896 H   0  0  0  0  0  0  0  0  0  0  0  0
  138.5003   79.7721  220.3064 H   0  0  0  0  0  0  0  0  0  0  0  0
  136.7040   79.7759  220.3064 H   0  0  0  0  0  0  0  0  0  0  0  0
  138.1573   80.4159  222.8523 H   0  0  0  0  0  0  0  0  0  0  0  0
  136.5521   79.6009  222.5618 H   0  0  0  0  0  0  0  0  0  0  0  0
  140.7452   77.8038  224.1422 H   0  0  0  0  0  0  0  0  0  0  0  0
  142.5889   79.2177  225.0447 H   0  0  0  0  0  0  0  0  0  0  0  0
  143.4153   81.1136  223.6625 H   0  0  0  0  0  0  0  0  0  0  0  0
  142.4252   81.5918  221.4298 H   0  0  0  0  0  0  0  0  0  0  0  0
  140.5827   80.1644  220.5525 H   0  0  0  0  0  0  0  0  0  0  0  0
  139.7471   77.4242  220.0098 H   0  0  0  0  0  0  0  0  0  0  0  0
  138.3710   75.7190  222.0424 H   0  0  0  0  0  0  0  0  0  0  0  0
  137.8333   76.2898  220.4089 H   0  0  0  0  0  0  0  0  0  0  0  0
  138.2970   73.8842  220.2712 H   0  0  0  0  0  0  0  0  0  0  0  0
  139.5565   74.7274  219.3656 H   0  0  0  0  0  0  0  0  0  0  0  0
  138.5696   72.1025  220.5067 H   0  0  0  0  0  0  0  0  0  0  0  0
  139.5323   70.7818  221.3306 H   0  0  0  0  0  0  0  0  0  0  0  0
  137.1779   70.8762  222.2123 H   0  0  0  0  0  0  0  0  0  0  0  0
  136.9060   73.0160  223.6240 H   0  0  0  0  0  0  0  0  0  0  0  0
  138.2240   73.5930  222.7170 H   0  0  0  0  0  0  0  0  0  0  0  0
  139.3983   71.8819  224.0508 H   0  0  0  0  0  0  0  0  0  0  0  0
  137.8609   71.0473  224.5469 H   0  0  0  0  0  0  0  0  0  0  0  0
  138.6240   69.0907  223.0990 H   0  0  0  0  0  0  0  0  0  0  0  0
  140.2293   69.8886  223.0289 H   0  0  0  0  0  0  0  0  0  0  0  0
  139.0834   67.0970  224.8747 H   0  0  0  0  0  0  0  0  0  0  0  0
  139.8830   67.0300  227.2780 H   0  0  0  0  0  0  0  0  0  0  0  0
  140.9618   68.9468  229.0912 H   0  0  0  0  0  0  0  0  0  0  0  0
  141.6079   71.3372  229.2928 H   0  0  0  0  0  0  0  0  0  0  0  0
  141.3236   72.8786  227.3586 H   0  0  0  0  0  0  0  0  0  0  0  0
  140.3805   72.0165  225.1994 H   0  0  0  0  0  0  0  0  0  0  0  0
  141.1615   75.0580  222.7937 H   0  0  0  0  0  0  0  0  0  0  0  0
  142.1423   74.5022  221.3585 H   0  0  0  0  0  0  0  0  0  0  0  0
  141.7328   76.9626  221.6707 H   0  0  0  0  0  0  0  0  0  0  0  0
  141.3827   76.1245  220.0371 H   0  0  0  0  0  0  0  0  0  0  0  0
  1  2  1  0
  2  3  1  0
  3  4  2  0
  3  5  1  0
  5  6  1  0
  6  7  2  0
  7  8  1  0
  8  9  2  0
  9 10  1  0
 10 11  2  0
  5 12  1  0
 12 13  1  0
 13 14  1  0
 14 15  1  0
 15 16  1  0
 16 17  2  0
 16 18  1  0
 18 19  1  0
 19 20  1  0
 19 21  1  0
 21 22  1  0
 22 23  1  0
 23 24  2  0
 24 25  1  0
 25 26  1  0
 26 27  2  0
 27 28  1  0
 28 29  2  0
 29 30  1  0
 30 31  2  0
 15 32  1  0
 32 33  1  0
 11  6  1  0
 33 12  1  0
 31 23  1  0
 31 26  1  0
  1 34  1  0
  1 35  1  0
  1 36  1  0
  2 37  1  0
  2 38  1  0
  7 39  1  0
  8 40  1  0
  9 41  1  0
 10 42  1  0
 11 43  1  0
 12 44  1  0
 13 45  1  0
 13 46  1  0
 14 47  1  0
 14 48  1  0
 18 49  1  0
 18 50  1  0
 19 51  1  6
 20 52  1  0
 20 53  1  0
 21 54  1  0
 21 55  1  0
 22 56  1  0
 22 57  1  0
 24 58  1  0
 25 59  1  0
 27 60  1  0
 28 61  1  0
 29 62  1  0
 30 63  1  0
 32 64  1  0
 32 65  1  0
 33 66  1  0
 33 67  1  0
M  END
>  <smiles>  (36) 
CCC(=O)N(c1ccccc1)C1CCN(C(=O)CC(N)CCc2c[nH]c3ccccc23)CC1

>  <score_type>  (36) 
oracle

>  <origin>  (36) 
autodockgpu

>  <m_score__min__energy>  (36) 
-9.5700000000000003

>  <m_primary>  (36) 
energy

>  <rmsd>  (36) 
11.229419306085223

>  <m_score__min__rmsd>  (36) 
11.229419306085223

>  <meeko>  (36) 
{"free_energy": -9.26, "intermolecular_energy": -12.24, "internal_energy": -1.64, "cluster_size": 26, "cluster_id": 2, "rank_in_cluster": 6}

>  <energy>  (36) 
-8.59

>  <cluster_rmsd>  (36) 
0.0

>  <cluster>  (36) 
4

$$$$

     RDKit          3D

 67 70  0  0  0  0  0  0  0  0999 V2000
  135.6390   80.5430  224.5990 C   0  0  0  0  0  0  0  0  0  0  0  0
  136.4900   80.0950  223.4440 C   0  0  0  0  0  0  0  0  0  0  0  0
  137.9240   79.9210  223.8080 C   0  0  0  0  0  0  0  0  0  0  0  0
  138.2870   80.4680  224.8850 O   0  0  0  0  0  0  0  0  0  0  0  0
  138.8310   79.1790  222.9810 N   0  0  0  0  0  0  0  0  0  0  0  0
  140.2120   79.5760  223.0910 C   0  0  0  0  0  0  0  0  0  0  0  0
  140.4760   80.9130  222.8110 C   0  0  0  0  0  0  0  0  0  0  0  0
  141.7610   81.4080  222.8870 C   0  0  0  0  0  0  0  0  0  0  0  0
  142.7670   80.5340  223.2480 C   0  0  0  0  0  0  0  0  0  0  0  0
  142.4990   79.1880  223.5290 C   0  0  0  0  0  0  0  0  0  0  0  0
  141.2080   78.7110  223.4480 C   0  0  0  0  0  0  0  0  0  0  0  0
  138.4070   78.1110  222.1060 C   0  0  0  0  0  0  0  0  0  0  0  0
  137.8800   76.9180  222.8250 C   0  0  0  0  0  0  0  0  0  0  0  0
  137.8290   75.6850  221.9090 C   0  0  0  0  0  0  0  0  0  0  0  0
  139.2190   75.3460  221.6450 N   0  0  0  0  0  0  0  0  0  0  0  0
  139.7470   74.0380  221.8260 C   0  0  0  0  0  0  0  0  0  0  0  0
  140.9840   73.8340  221.5730 O   0  0  0  0  0  0  0  0  0  0  0  0
  138.9430   72.9070  222.2900 C   0  0  0  0  0  0  0  0  0  0  0  0
  139.6650   72.0000  223.2780 C   0  0  2  0  0  0  0  0  0  0  0  0
  140.8700   71.5340  222.5750 N   0  0  0  0  0  0  0  0  0  0  0  0
  138.7560   70.8220  223.5580 C   0  0  0  0  0  0  0  0  0  0  0  0
  139.5090   69.4970  223.5660 C   0  0  0  0  0  0  0  0  0  0  0  0
  139.6810   69.0480  224.9580 C   0  0  0  0  0  0  0  0  0  0  0  0
  139.3970   67.8080  225.5290 C   0  0  0  0  0  0  0  0  0  0  0  0
  139.7120   67.8360  226.8330 N   0  0  0  0  0  0  0  0  0  0  0  0
  140.1900   69.0590  227.1130 C   0  0  0  0  0  0  0  0  0  0  0  0
  140.6470   69.5950  228.2960 C   0  0  0  0  0  0  0  0  0  0  0  0
  141.0990   70.9070  228.3410 C   0  0  0  0  0  0  0  0  0  0  0  0
  141.0930   71.6900  227.1920 C   0  0  0  0  0  0  0  0  0  0  0  0
  140.6310   71.1580  225.9830 C   0  0  0  0  0  0  0  0  0  0  0  0
  140.1840   69.8440  225.9630 C   0  0  0  0  0  0  0  0  0  0  0  0
  140.0720   76.4190  221.1820 C   0  0  0  0  0  0  0  0  0  0  0  0
  139.3650   77.7140  221.0510 C   0  0  0  0  0  0  0  0  0  0  0  0
  136.1366   80.2810  225.5444 H   0  0  0  0  0  0  0  0  0  0  0  0
  135.4972   81.6327  224.5490 H   0  0  0  0  0  0  0  0  0  0  0  0
  134.6604   80.0432  224.5490 H   0  0  0  0  0  0  0  0  0  0  0  0
  136.1029   79.1333  223.0762 H   0  0  0  0  0  0  0  0  0  0  0  0
  136.4395   80.8802  222.6753 H   0  0  0  0  0  0  0  0  0  0  0  0
  139.6510   81.5824  222.5260 H   0  0  0  0  0  0  0  0  0  0  0  0
  141.9772   82.4639  222.6673 H   0  0  0  0  0  0  0  0  0  0  0  0
  143.8012   80.9025  223.3164 H   0  0  0  0  0  0  0  0  0  0  0  0
  143.3184   78.5118  223.8142 H   0  0  0  0  0  0  0  0  0  0  0  0
  140.9843   77.6563  223.6661 H   0  0  0  0  0  0  0  0  0  0  0  0
  137.5693   78.5817  221.5705 H   0  0  0  0  0  0  0  0  0  0  0  0
  138.5339   76.6996  223.6822 H   0  0  0  0  0  0  0  0  0  0  0  0
  136.8564   77.1414  223.1601 H   0  0  0  0  0  0  0  0  0  0  0  0
  137.3180   74.8514  222.4129 H   0  0  0  0  0  0  0  0  0  0  0  0
  137.2722   75.8854  220.9817 H   0  0  0  0  0  0  0  0  0  0  0  0
  138.0398   73.3015  222.7784 H   0  0  0  0  0  0  0  0  0  0  0  0
  138.7121   72.2954  221.4053 H   0  0  0  0  0  0  0  0  0  0  0  0
  139.9210   72.5012  224.2231 H   0  0  0  0  0  0  0  0  0  0  0  0
  140.7590   71.6260  221.5310 H   0  0  0  0  0  0  0  0  0  0  0  0
  141.6400   72.1860  222.8730 H   0  0  0  0  0  0  0  0  0  0  0  0
  138.2836   70.9659  224.5409 H   0  0  0  0  0  0  0  0  0  0  0  0
  138.0068   70.7775  222.7538 H   0  0  0  0  0  0  0  0  0  0  0  0
  138.9360   68.7444  223.0045 H   0  0  0  0  0  0  0  0  0  0  0  0
  140.4943   69.6282  223.0949 H   0  0  0  0  0  0  0  0  0  0  0  0
  138.9799   66.9421  224.9940 H   0  0  0  0  0  0  0  0  0  0  0  0
  139.5780   67.0080  227.4540 H   0  0  0  0  0  0  0  0  0  0  0  0
  140.6540   68.9814  229.2090 H   0  0  0  0  0  0  0  0  0  0  0  0
  141.4633   71.3287  229.2894 H   0  0  0  0  0  0  0  0  0  0  0  0
  141.4519   72.7290  227.2334 H   0  0  0  0  0  0  0  0  0  0  0  0
  140.6222   71.7682  225.0678 H   0  0  0  0  0  0  0  0  0  0  0  0
  140.8975   76.5427  221.8984 H   0  0  0  0  0  0  0  0  0  0  0  0
  140.4311   76.1408  220.1802 H   0  0  0  0  0  0  0  0  0  0  0  0
  140.1340   78.4989  221.0002 H   0  0  0  0  0  0  0  0  0  0  0  0
  138.7384   77.5865  220.1559 H   0  0  0  0  0  0  0  0  0  0  0  0
  1  2  1  0
  2  3  1  0
  3  4  2  0
  3  5  1  0
  5  6  1  0
  6  7  2  0
  7  8  1  0
  8  9  2  0
  9 10  1  0
 10 11  2  0
  5 12  1  0
 12 13  1  0
 13 14  1  0
 14 15  1  0
 15 16  1  0
 16 17  2  0
 16 18  1  0
 18 19  1  0
 19 20  1  0
 19 21  1  0
 21 22  1  0
 22 23  1  0
 23 24  2  0
 24 25  1  0
 25 26  1  0
 26 27  2  0
 27 28  1  0
 28 29  2  0
 29 30  1  0
 30 31  2  0
 15 32  1  0
 32 33  1  0
 11  6  1  0
 33 12  1  0
 31 23  1  0
 31 26  1  0
  1 34  1  0
  1 35  1  0
  1 36  1  0
  2 37  1  0
  2 38  1  0
  7 39  1  0
  8 40  1  0
  9 41  1  0
 10 42  1  0
 11 43  1  0
 12 44  1  0
 13 45  1  0
 13 46  1  0
 14 47  1  0
 14 48  1  0
 18 49  1  0
 18 50  1  0
 19 51  1  1
 20 52  1  0
 20 53  1  0
 21 54  1  0
 21 55  1  0
 22 56  1  0
 22 57  1  0
 24 58  1  0
 25 59  1  0
 27 60  1  0
 28 61  1  0
 29 62  1  0
 30 63  1  0
 32 64  1  0
 32 65  1  0
 33 66  1  0
 33 67  1  0
M  END
>  <smiles>  (37) 
CCC(=O)N(c1ccccc1)C1CCN(C(=O)CC(N)CCc2c[nH]c3ccccc23)CC1

>  <score_type>  (37) 
oracle

>  <origin>  (37) 
autodockgpu

>  <m_score__min__energy>  (37) 
-9.5700000000000003

>  <m_primary>  (37) 
energy

>  <rmsd>  (37) 
11.221064247897246

>  <m_score__min__rmsd>  (37) 
11.221064247897246

>  <meeko>  (37) 
{"free_energy": -8.93, "intermolecular_energy": -11.91, "internal_energy": -2.31, "cluster_size": 26, "cluster_id": 2, "rank_in_cluster": 10}

>  <energy>  (37) 
-8.52

>  <cluster_rmsd>  (37) 
0.74

>  <cluster>  (37) 
4

$$$$

     RDKit          3D

 67 70  0  0  0  0  0  0  0  0999 V2000
  141.0700   67.7730  227.7120 C   0  0  0  0  0  0  0  0  0  0  0  0
  139.6390   67.7270  227.2570 C   0  0  0  0  0  0  0  0  0  0  0  0
  139.4770   68.0150  225.8040 C   0  0  0  0  0  0  0  0  0  0  0  0
  139.4870   67.0110  225.0410 O   0  0  0  0  0  0  0  0  0  0  0  0
  139.3210   69.3530  225.3100 N   0  0  0  0  0  0  0  0  0  0  0  0
  140.0450   70.3580  226.0460 C   0  0  0  0  0  0  0  0  0  0  0  0
  139.5880   70.6020  227.3360 C   0  0  0  0  0  0  0  0  0  0  0  0
  140.2060   71.5410  228.1370 C   0  0  0  0  0  0  0  0  0  0  0  0
  141.2860   72.2230  227.6120 C   0  0  0  0  0  0  0  0  0  0  0  0
  141.7440   71.9750  226.3120 C   0  0  0  0  0  0  0  0  0  0  0  0
  141.1140   71.0330  225.5270 C   0  0  0  0  0  0  0  0  0  0  0  0
  138.5080   69.6790  224.1620 C   0  0  0  0  0  0  0  0  0  0  0  0
  138.8830   70.9600  223.5030 C   0  0  0  0  0  0  0  0  0  0  0  0
  137.7690   71.4630  222.5710 C   0  0  0  0  0  0  0  0  0  0  0  0
  136.6710   71.8330  223.4510 N   0  0  0  0  0  0  0  0  0  0  0  0
  136.0170   73.0950  223.3880 C   0  0  0  0  0  0  0  0  0  0  0  0
  135.0640   73.3330  224.2070 O   0  0  0  0  0  0  0  0  0  0  0  0
  136.3830   74.1390  222.4310 C   0  0  0  0  0  0  0  0  0  0  0  0
  137.0360   75.3590  223.0670 C   0  0  2  0  0  0  0  0  0  0  0  0
  136.2370   75.6520  224.2670 N   0  0  0  0  0  0  0  0  0  0  0  0
  136.9080   76.5040  222.0840 C   0  0  0  0  0  0  0  0  0  0  0  0
  137.5070   77.7990  222.6200 C   0  0  0  0  0  0  0  0  0  0  0  0
  138.9750   77.6800  222.6380 C   0  0  0  0  0  0  0  0  0  0  0  0
  139.7780   76.6000  222.2740 C   0  0  0  0  0  0  0  0  0  0  0  0
  141.0680   76.9280  222.4450 N   0  0  0  0  0  0  0  0  0  0  0  0
  141.1130   78.1880  222.9070 C   0  0  0  0  0  0  0  0  0  0  0  0
  142.1850   78.9840  223.2400 C   0  0  0  0  0  0  0  0  0  0  0  0
  141.9800   80.2770  223.7050 C   0  0  0  0  0  0  0  0  0  0  0  0
  140.6890   80.7760  223.8370 C   0  0  0  0  0  0  0  0  0  0  0  0
  139.5900   79.9780  223.5020 C   0  0  0  0  0  0  0  0  0  0  0  0
  139.8210   78.6900  223.0400 C   0  0  0  0  0  0  0  0  0  0  0  0
  136.2580   70.8450  224.4240 C   0  0  0  0  0  0  0  0  0  0  0  0
  137.0430   69.5910  224.3550 C   0  0  0  0  0  0  0  0  0  0  0  0
  141.1053   67.7741  228.8114 H   0  0  0  0  0  0  0  0  0  0  0  0
  141.6051   66.8916  227.3289 H   0  0  0  0  0  0  0  0  0  0  0  0
  141.5474   68.6870  227.3289 H   0  0  0  0  0  0  0  0  0  0  0  0
  139.2390   66.7229  227.4614 H   0  0  0  0  0  0  0  0  0  0  0  0
  139.0947   68.5079  227.8084 H   0  0  0  0  0  0  0  0  0  0  0  0
  138.7246   70.0407  227.7226 H   0  0  0  0  0  0  0  0  0  0  0  0
  139.8503   71.7394  229.1588 H   0  0  0  0  0  0  0  0  0  0  0  0
  141.7975   72.9772  228.2281 H   0  0  0  0  0  0  0  0  0  0  0  0
  142.6066   72.5319  225.9172 H   0  0  0  0  0  0  0  0  0  0  0  0
  141.4643   70.8290  224.5044 H   0  0  0  0  0  0  0  0  0  0  0  0
  138.7573   68.8582  223.4734 H   0  0  0  0  0  0  0  0  0  0  0  0
  139.0705   71.7185  224.2773 H   0  0  0  0  0  0  0  0  0  0  0  0
  139.7852   70.7852  222.8984 H   0  0  0  0  0  0  0  0  0  0  0  0
  138.1125   72.3353  221.9956 H   0  0  0  0  0  0  0  0  0  0  0  0
  137.4690   70.6979  221.8399 H   0  0  0  0  0  0  0  0  0  0  0  0
  137.0869   73.7097  221.7028 H   0  0  0  0  0  0  0  0  0  0  0  0
  135.4492   74.4845  221.9634 H   0  0  0  0  0  0  0  0  0  0  0  0
  138.0956   75.2044  223.3187 H   0  0  0  0  0  0  0  0  0  0  0  0
  135.2050   75.5680  224.0650 H   0  0  0  0  0  0  0  0  0  0  0  0
  136.4870   74.9030  224.9620 H   0  0  0  0  0  0  0  0  0  0  0  0
  137.4294   76.2317  221.1545 H   0  0  0  0  0  0  0  0  0  0  0  0
  135.8360   76.6775  221.9086 H   0  0  0  0  0  0  0  0  0  0  0  0
  137.2134   78.6370  221.9708 H   0  0  0  0  0  0  0  0  0  0  0  0
  137.1377   77.9839  223.6395 H   0  0  0  0  0  0  0  0  0  0  0  0
  139.4116   75.6309  221.9045 H   0  0  0  0  0  0  0  0  0  0  0  0
  141.8430   76.2620  222.2330 H   0  0  0  0  0  0  0  0  0  0  0  0
  143.2087   78.5948  223.1376 H   0  0  0  0  0  0  0  0  0  0  0  0
  142.8415   80.9078  223.9695 H   0  0  0  0  0  0  0  0  0  0  0  0
  140.5315   81.8004  224.2056 H   0  0  0  0  0  0  0  0  0  0  0  0
  138.5646   80.3632  223.6026 H   0  0  0  0  0  0  0  0  0  0  0  0
  136.3749   71.2752  225.4296 H   0  0  0  0  0  0  0  0  0  0  0  0
  135.2118   70.5871  224.2025 H   0  0  0  0  0  0  0  0  0  0  0  0
  136.8725   69.0501  225.2975 H   0  0  0  0  0  0  0  0  0  0  0  0
  136.6820   69.1001  223.4392 H   0  0  0  0  0  0  0  0  0  0  0  0
  1  2  1  0
  2  3  1  0
  3  4  2  0
  3  5  1  0
  5  6  1  0
  6  7  2  0
  7  8  1  0
  8  9  2  0
  9 10  1  0
 10 11  2  0
  5 12  1  0
 12 13  1  0
 13 14  1  0
 14 15  1  0
 15 16  1  0
 16 17  2  0
 16 18  1  0
 18 19  1  0
 19 20  1  0
 19 21  1  0
 21 22  1  0
 22 23  1  0
 23 24  2  0
 24 25  1  0
 25 26  1  0
 26 27  2  0
 27 28  1  0
 28 29  2  0
 29 30  1  0
 30 31  2  0
 15 32  1  0
 32 33  1  0
 11  6  1  0
 33 12  1  0
 31 23  1  0
 31 26  1  0
  1 34  1  0
  1 35  1  0
  1 36  1  0
  2 37  1  0
  2 38  1  0
  7 39  1  0
  8 40  1  0
  9 41  1  0
 10 42  1  0
 11 43  1  0
 12 44  1  0
 13 45  1  0
 13 46  1  0
 14 47  1  0
 14 48  1  0
 18 49  1  0
 18 50  1  0
 19 51  1  1
 20 52  1  0
 20 53  1  0
 21 54  1  0
 21 55  1  0
 22 56  1  0
 22 57  1  0
 24 58  1  0
 25 59  1  0
 27 60  1  0
 28 61  1  0
 29 62  1  0
 30 63  1  0
 32 64  1  0
 32 65  1  0
 33 66  1  0
 33 67  1  0
M  END
>  <smiles>  (38) 
CCC(=O)N(c1ccccc1)C1CCN(C(=O)CC(N)CCc2c[nH]c3ccccc23)CC1

>  <score_type>  (38) 
oracle

>  <origin>  (38) 
autodockgpu

>  <m_score__min__energy>  (38) 
-9.5700000000000003

>  <m_primary>  (38) 
energy

>  <rmsd>  (38) 
6.400802230502654

>  <m_score__min__rmsd>  (38) 
6.400802230502654

>  <meeko>  (38) 
{"free_energy": -8.93, "intermolecular_energy": -11.92, "internal_energy": -2.07, "cluster_size": 2, "cluster_id": 1, "rank_in_cluster": 2}

>  <energy>  (38) 
-8.42

>  <cluster_rmsd>  (38) 
1.66

>  <cluster>  (38) 
4

$$$$

     RDKit          3D

 67 70  0  0  0  0  0  0  0  0999 V2000
  143.7100   75.1400  219.7930 C   0  0  0  0  0  0  0  0  0  0  0  0
  142.9610   76.3440  219.2970 C   0  0  0  0  0  0  0  0  0  0  0  0
  141.5400   76.3740  219.7430 C   0  0  0  0  0  0  0  0  0  0  0  0
  140.6800   76.1370  218.8510 O   0  0  0  0  0  0  0  0  0  0  0  0
  141.1780   76.6540  221.1020 N   0  0  0  0  0  0  0  0  0  0  0  0
  141.4310   78.0070  221.5290 C   0  0  0  0  0  0  0  0  0  0  0  0
  141.4670   78.2060  222.9040 C   0  0  0  0  0  0  0  0  0  0  0  0
  141.7050   79.4600  223.4290 C   0  0  0  0  0  0  0  0  0  0  0  0
  141.9050   80.5000  222.5430 C   0  0  0  0  0  0  0  0  0  0  0  0
  141.8690   80.2970  221.1580 C   0  0  0  0  0  0  0  0  0  0  0  0
  141.6290   79.0370  220.6520 C   0  0  0  0  0  0  0  0  0  0  0  0
  140.5990   75.6670  221.9830 C   0  0  0  0  0  0  0  0  0  0  0  0
  140.9350   74.2630  221.6170 C   0  0  0  0  0  0  0  0  0  0  0  0
  139.9950   73.2600  222.3050 C   0  0  0  0  0  0  0  0  0  0  0  0
  138.6920   73.4760  221.6940 N   0  0  0  0  0  0  0  0  0  0  0  0
  137.9060   72.4230  221.1490 C   0  0  0  0  0  0  0  0  0  0  0  0
  136.7740   72.7090  220.6270 O   0  0  0  0  0  0  0  0  0  0  0  0
  138.3300   71.0230  221.1550 C   0  0  0  0  0  0  0  0  0  0  0  0
  137.4680   70.1200  222.0290 C   0  0  2  0  0  0  0  0  0  0  0  0
  136.1230   70.7150  222.0010 N   0  0  0  0  0  0  0  0  0  0  0  0
  138.0220   70.1890  223.4360 C   0  0  0  0  0  0  0  0  0  0  0  0
  139.4460   69.6510  223.5250 C   0  0  0  0  0  0  0  0  0  0  0  0
  139.6980   69.1810  224.8970 C   0  0  0  0  0  0  0  0  0  0  0  0
  139.5260   67.9080  225.4400 C   0  0  0  0  0  0  0  0  0  0  0  0
  139.8830   67.9250  226.7340 N   0  0  0  0  0  0  0  0  0  0  0  0
  140.2790   69.1720  227.0340 C   0  0  0  0  0  0  0  0  0  0  0  0
  140.7360   69.7100  228.2160 C   0  0  0  0  0  0  0  0  0  0  0  0
  141.0920   71.0500  228.2850 C   0  0  0  0  0  0  0  0  0  0  0  0
  140.9890   71.8610  227.1590 C   0  0  0  0  0  0  0  0  0  0  0  0
  140.5260   71.3280  225.9510 C   0  0  0  0  0  0  0  0  0  0  0  0
  140.1760   69.9850  225.9080 C   0  0  0  0  0  0  0  0  0  0  0  0
  138.2120   74.8400  221.6550 C   0  0  0  0  0  0  0  0  0  0  0  0
  139.1520   75.8100  222.2610 C   0  0  0  0  0  0  0  0  0  0  0  0
  143.7119   75.1369  220.8930 H   0  0  0  0  0  0  0  0  0  0  0  0
  143.2206   74.2263  219.4246 H   0  0  0  0  0  0  0  0  0  0  0  0
  144.7459   75.1752  219.4246 H   0  0  0  0  0  0  0  0  0  0  0  0
  143.4643   77.2478  219.6711 H   0  0  0  0  0  0  0  0  0  0  0  0
  142.9585   76.2984  218.1979 H   0  0  0  0  0  0  0  0  0  0  0  0
  141.3040   77.3547  223.5813 H   0  0  0  0  0  0  0  0  0  0  0  0
  141.7344   79.6253  224.5161 H   0  0  0  0  0  0  0  0  0  0  0  0
  142.0968   81.5102  222.9338 H   0  0  0  0  0  0  0  0  0  0  0  0
  142.0322   81.1426  220.4737 H   0  0  0  0  0  0  0  0  0  0  0  0
  141.5975   78.8642  219.5661 H   0  0  0  0  0  0  0  0  0  0  0  0
  141.0991   75.8988  222.9349 H   0  0  0  0  0  0  0  0  0  0  0  0
  140.8453   74.1468  220.5268 H   0  0  0  0  0  0  0  0  0  0  0  0
  141.9628   74.0565  221.9501 H   0  0  0  0  0  0  0  0  0  0  0  0
  140.3366   72.2291  222.1304 H   0  0  0  0  0  0  0  0  0  0  0  0
  139.9666   73.4048  223.3951 H   0  0  0  0  0  0  0  0  0  0  0  0
  138.2913   70.6451  220.1227 H   0  0  0  0  0  0  0  0  0  0  0  0
  139.3460   70.9991  221.5760 H   0  0  0  0  0  0  0  0  0  0  0  0
  137.4507   69.0734  221.6908 H   0  0  0  0  0  0  0  0  0  0  0  0
  136.1300   71.6860  222.4110 H   0  0  0  0  0  0  0  0  0  0  0  0
  135.8730   70.8000  220.9830 H   0  0  0  0  0  0  0  0  0  0  0  0
  138.0192   71.2383  223.7661 H   0  0  0  0  0  0  0  0  0  0  0  0
  137.3854   69.5635  224.0791 H   0  0  0  0  0  0  0  0  0  0  0  0
  139.5686   68.8149  222.8208 H   0  0  0  0  0  0  0  0  0  0  0  0
  140.1600   70.4476  223.2690 H   0  0  0  0  0  0  0  0  0  0  0  0
  139.1558   67.0280  224.8936 H   0  0  0  0  0  0  0  0  0  0  0  0
  139.8320   67.0740  227.3350 H   0  0  0  0  0  0  0  0  0  0  0  0
  140.8194   69.0749  229.1102 H   0  0  0  0  0  0  0  0  0  0  0  0
  141.4567   71.4721  229.2330 H   0  0  0  0  0  0  0  0  0  0  0  0
  141.2719   72.9223  227.2186 H   0  0  0  0  0  0  0  0  0  0  0  0
  140.4411   71.9595  225.0544 H   0  0  0  0  0  0  0  0  0  0  0  0
  138.0482   75.1224  220.6046 H   0  0  0  0  0  0  0  0  0  0  0  0
  137.2835   74.8752  222.2438 H   0  0  0  0  0  0  0  0  0  0  0  0
  138.8531   76.8102  221.9144 H   0  0  0  0  0  0  0  0  0  0  0  0
  139.0681   75.6234  223.3418 H   0  0  0  0  0  0  0  0  0  0  0  0
  1  2  1  0
  2  3  1  0
  3  4  2  0
  3  5  1  0
  5  6  1  0
  6  7  2  0
  7  8  1  0
  8  9  2  0
  9 10  1  0
 10 11  2  0
  5 12  1  0
 12 13  1  0
 13 14  1  0
 14 15  1  0
 15 16  1  0
 16 17  2  0
 16 18  1  0
 18 19  1  0
 19 20  1  0
 19 21  1  0
 21 22  1  0
 22 23  1  0
 23 24  2  0
 24 25  1  0
 25 26  1  0
 26 27  2  0
 27 28  1  0
 28 29  2  0
 29 30  1  0
 30 31  2  0
 15 32  1  0
 32 33  1  0
 11  6  1  0
 33 12  1  0
 31 23  1  0
 31 26  1  0
  1 34  1  0
  1 35  1  0
  1 36  1  0
  2 37  1  0
  2 38  1  0
  7 39  1  0
  8 40  1  0
  9 41  1  0
 10 42  1  0
 11 43  1  0
 12 44  1  0
 13 45  1  0
 13 46  1  0
 14 47  1  0
 14 48  1  0
 18 49  1  0
 18 50  1  0
 19 51  1  6
 20 52  1  0
 20 53  1  0
 21 54  1  0
 21 55  1  0
 22 56  1  0
 22 57  1  0
 24 58  1  0
 25 59  1  0
 27 60  1  0
 28 61  1  0
 29 62  1  0
 30 63  1  0
 32 64  1  0
 32 65  1  0
 33 66  1  0
 33 67  1  0
M  END
>  <smiles>  (39) 
CCC(=O)N(c1ccccc1)C1CCN(C(=O)CC(N)CCc2c[nH]c3ccccc23)CC1

>  <score_type>  (39) 
oracle

>  <origin>  (39) 
autodockgpu

>  <m_score__min__energy>  (39) 
-9.5700000000000003

>  <m_primary>  (39) 
energy

>  <rmsd>  (39) 
11.465441793643707

>  <m_score__min__rmsd>  (39) 
11.465441793643707

>  <meeko>  (39) 
{"free_energy": -7.94, "intermolecular_energy": -10.92, "internal_energy": -2.78, "cluster_size": 26, "cluster_id": 2, "rank_in_cluster": 24}

>  <energy>  (39) 
-8.5

>  <cluster_rmsd>  (39) 
0.0

>  <cluster>  (39) 
5

$$$$

     RDKit          3D

 67 70  0  0  0  0  0  0  0  0999 V2000
  140.8450   82.7020  220.4170 C   0  0  0  0  0  0  0  0  0  0  0  0
  140.4950   81.5060  219.5760 C   0  0  0  0  0  0  0  0  0  0  0  0
  141.6600   80.6160  219.3130 C   0  0  0  0  0  0  0  0  0  0  0  0
  142.5540   81.0900  218.5590 O   0  0  0  0  0  0  0  0  0  0  0  0
  141.7540   79.3020  219.8820 N   0  0  0  0  0  0  0  0  0  0  0  0
  141.8550   79.2730  221.3200 C   0  0  0  0  0  0  0  0  0  0  0  0
  142.5860   80.3090  221.8910 C   0  0  0  0  0  0  0  0  0  0  0  0
  142.7480   80.3860  223.2590 C   0  0  0  0  0  0  0  0  0  0  0  0
  142.1600   79.4040  224.0330 C   0  0  0  0  0  0  0  0  0  0  0  0
  141.4240   78.3620  223.4540 C   0  0  0  0  0  0  0  0  0  0  0  0
  141.2740   78.3010  222.0850 C   0  0  0  0  0  0  0  0  0  0  0  0
  141.7450   78.0970  219.0880 C   0  0  0  0  0  0  0  0  0  0  0  0
  140.5400   77.2470  219.2980 C   0  0  0  0  0  0  0  0  0  0  0  0
  140.7560   75.8200  218.7680 C   0  0  0  0  0  0  0  0  0  0  0  0
  141.7540   75.2320  219.6470 N   0  0  0  0  0  0  0  0  0  0  0  0
  141.5800   73.9720  220.2850 C   0  0  0  0  0  0  0  0  0  0  0  0
  142.5110   73.5360  221.0460 O   0  0  0  0  0  0  0  0  0  0  0  0
  140.3850   73.1470  220.1140 C   0  0  0  0  0  0  0  0  0  0  0  0
  139.4790   73.1100  221.3390 C   0  0  2  0  0  0  0  0  0  0  0  0
  139.9620   74.1860  222.2170 N   0  0  0  0  0  0  0  0  0  0  0  0
  139.6900   71.7720  222.0160 C   0  0  0  0  0  0  0  0  0  0  0  0
  140.5720   71.8820  223.2550 C   0  0  0  0  0  0  0  0  0  0  0  0
  140.1230   70.8980  224.2550 C   0  0  0  0  0  0  0  0  0  0  0  0
  139.3820   69.7310  224.0740 C   0  0  0  0  0  0  0  0  0  0  0  0
  139.2020   69.1310  225.2610 N   0  0  0  0  0  0  0  0  0  0  0  0
  139.8080   69.8810  226.1960 C   0  0  0  0  0  0  0  0  0  0  0  0
  139.9140   69.7060  227.5570 C   0  0  0  0  0  0  0  0  0  0  0  0
  140.6010   70.6320  228.3300 C   0  0  0  0  0  0  0  0  0  0  0  0
  141.1880   71.7440  227.7350 C   0  0  0  0  0  0  0  0  0  0  0  0
  141.0870   71.9350  226.3530 C   0  0  0  0  0  0  0  0  0  0  0  0
  140.3950   70.9950  225.6010 C   0  0  0  0  0  0  0  0  0  0  0  0
  142.9630   75.9970  219.8600 C   0  0  0  0  0  0  0  0  0  0  0  0
  142.9800   77.2820  219.1260 C   0  0  0  0  0  0  0  0  0  0  0  0
  140.7674   82.4369  221.4818 H   0  0  0  0  0  0  0  0  0  0  0  0
  141.8738   83.0198  220.1923 H   0  0  0  0  0  0  0  0  0  0  0  0
  140.1498   83.5244  220.1923 H   0  0  0  0  0  0  0  0  0  0  0  0
  139.7212   80.9247  220.0988 H   0  0  0  0  0  0  0  0  0  0  0  0
  140.1420   81.8804  218.6038 H   0  0  0  0  0  0  0  0  0  0  0  0
  143.0399   81.0752  221.2452 H   0  0  0  0  0  0  0  0  0  0  0  0
  143.3258   81.2017  223.7180 H   0  0  0  0  0  0  0  0  0  0  0  0
  142.2721   79.4411  225.1266 H   0  0  0  0  0  0  0  0  0  0  0  0
  140.9656   77.5921  224.0921 H   0  0  0  0  0  0  0  0  0  0  0  0
  140.6991   77.4875  221.6185 H   0  0  0  0  0  0  0  0  0  0  0  0
  141.7000   78.5046  218.0673 H   0  0  0  0  0  0  0  0  0  0  0  0
  140.3202   77.1987  220.3747 H   0  0  0  0  0  0  0  0  0  0  0  0
  139.7011   77.6962  218.7462 H   0  0  0  0  0  0  0  0  0  0  0  0
  139.8183   75.2466  218.8115 H   0  0  0  0  0  0  0  0  0  0  0  0
  141.0818   75.8173  217.7174 H   0  0  0  0  0  0  0  0  0  0  0  0
  139.8068   73.5463  219.2677 H   0  0  0  0  0  0  0  0  0  0  0  0
  140.7304   72.1170  219.9414 H   0  0  0  0  0  0  0  0  0  0  0  0
  138.4134   73.2379  221.0978 H   0  0  0  0  0  0  0  0  0  0  0  0
  139.4050   74.2250  223.1110 H   0  0  0  0  0  0  0  0  0  0  0  0
  140.9490   73.9240  222.4670 H   0  0  0  0  0  0  0  0  0  0  0  0
  138.7111   71.3680  222.3136 H   0  0  0  0  0  0  0  0  0  0  0  0
  140.1977   71.1093  221.2998 H   0  0  0  0  0  0  0  0  0  0  0  0
  141.6180   71.6786  222.9818 H   0  0  0  0  0  0  0  0  0  0  0  0
  140.4978   72.8964  223.6739 H   0  0  0  0  0  0  0  0  0  0  0  0
  139.0042   69.3602  223.1098 H   0  0  0  0  0  0  0  0  0  0  0  0
  138.6700   68.2380  225.3570 H   0  0  0  0  0  0  0  0  0  0  0  0
  139.4525   68.8289  228.0341 H   0  0  0  0  0  0  0  0  0  0  0  0
  140.6815   70.4859  229.4173 H   0  0  0  0  0  0  0  0  0  0  0  0
  141.7323   72.4740  228.3521 H   0  0  0  0  0  0  0  0  0  0  0  0
  141.5461   72.8113  225.8721 H   0  0  0  0  0  0  0  0  0  0  0  0
  143.0577   76.2080  220.9354 H   0  0  0  0  0  0  0  0  0  0  0  0
  143.8010   75.3940  219.4804 H   0  0  0  0  0  0  0  0  0  0  0  0
  143.7643   77.9043  219.5815 H   0  0  0  0  0  0  0  0  0  0  0  0
  143.1374   76.9879  218.0778 H   0  0  0  0  0  0  0  0  0  0  0  0
  1  2  1  0
  2  3  1  0
  3  4  2  0
  3  5  1  0
  5  6  1  0
  6  7  2  0
  7  8  1  0
  8  9  2  0
  9 10  1  0
 10 11  2  0
  5 12  1  0
 12 13  1  0
 13 14  1  0
 14 15  1  0
 15 16  1  0
 16 17  2  0
 16 18  1  0
 18 19  1  0
 19 20  1  0
 19 21  1  0
 21 22  1  0
 22 23  1  0
 23 24  2  0
 24 25  1  0
 25 26  1  0
 26 27  2  0
 27 28  1  0
 28 29  2  0
 29 30  1  0
 30 31  2  0
 15 32  1  0
 32 33  1  0
 11  6  1  0
 33 12  1  0
 31 23  1  0
 31 26  1  0
  1 34  1  0
  1 35  1  0
  1 36  1  0
  2 37  1  0
  2 38  1  0
  7 39  1  0
  8 40  1  0
  9 41  1  0
 10 42  1  0
 11 43  1  0
 12 44  1  0
 13 45  1  0
 13 46  1  0
 14 47  1  0
 14 48  1  0
 18 49  1  0
 18 50  1  0
 19 51  1  6
 20 52  1  0
 20 53  1  0
 21 54  1  0
 21 55  1  0
 22 56  1  0
 22 57  1  0
 24 58  1  0
 25 59  1  0
 27 60  1  0
 28 61  1  0
 29 62  1  0
 30 63  1  0
 32 64  1  0
 32 65  1  0
 33 66  1  0
 33 67  1  0
M  END
>  <smiles>  (40) 
CCC(=O)N(c1ccccc1)C1CCN(C(=O)CC(N)CCc2c[nH]c3ccccc23)CC1

>  <score_type>  (40) 
oracle

>  <origin>  (40) 
autodockgpu

>  <m_score__min__energy>  (40) 
-9.5700000000000003

>  <m_primary>  (40) 
energy

>  <rmsd>  (40) 
10.360786691210306

>  <m_score__min__rmsd>  (40) 
10.360786691210306

>  <meeko>  (40) 
{"free_energy": -8.71, "intermolecular_energy": -11.7, "internal_energy": -2.12, "cluster_size": 7, "cluster_id": 3, "rank_in_cluster": 3}

>  <energy>  (40) 
-7.51

>  <cluster_rmsd>  (40) 
1.83

>  <cluster>  (40) 
5

$$$$

     RDKit          3D

 67 70  0  0  0  0  0  0  0  0999 V2000
  143.1360   76.1960  219.7350 C   0  0  0  0  0  0  0  0  0  0  0  0
  141.8770   76.4040  218.9410 C   0  0  0  0  0  0  0  0  0  0  0  0
  140.7310   76.8650  219.7720 C   0  0  0  0  0  0  0  0  0  0  0  0
  139.6880   77.1870  219.1390 O   0  0  0  0  0  0  0  0  0  0  0  0
  140.8120   76.9380  221.2030 N   0  0  0  0  0  0  0  0  0  0  0  0
  141.3310   78.1810  221.7160 C   0  0  0  0  0  0  0  0  0  0  0  0
  141.6160   79.1510  220.7620 C   0  0  0  0  0  0  0  0  0  0  0  0
  142.1150   80.3820  221.1370 C   0  0  0  0  0  0  0  0  0  0  0  0
  142.3170   80.6110  222.4840 C   0  0  0  0  0  0  0  0  0  0  0  0
  142.0290   79.6310  223.4420 C   0  0  0  0  0  0  0  0  0  0  0  0
  141.5310   78.4070  223.0490 C   0  0  0  0  0  0  0  0  0  0  0  0
  140.4050   75.8580  222.0710 C   0  0  0  0  0  0  0  0  0  0  0  0
  140.7800   74.5080  221.5670 C   0  0  0  0  0  0  0  0  0  0  0  0
  139.9920   73.3990  222.2840 C   0  0  0  0  0  0  0  0  0  0  0  0
  138.6140   73.5650  221.8460 N   0  0  0  0  0  0  0  0  0  0  0  0
  137.8340   72.4970  221.3220 C   0  0  0  0  0  0  0  0  0  0  0  0
  136.6320   72.7370  220.9570 O   0  0  0  0  0  0  0  0  0  0  0  0
  138.3390   71.1320  221.1770 C   0  0  0  0  0  0  0  0  0  0  0  0
  137.6330   70.1140  222.0640 C   0  0  2  0  0  0  0  0  0  0  0  0
  136.2140   70.5000  222.0530 N   0  0  0  0  0  0  0  0  0  0  0  0
  138.1890   70.2720  223.4630 C   0  0  0  0  0  0  0  0  0  0  0  0
  139.5620   69.6270  223.6190 C   0  0  0  0  0  0  0  0  0  0  0  0
  139.7670   69.2660  225.0320 C   0  0  0  0  0  0  0  0  0  0  0  0
  139.5480   68.0480  225.6730 C   0  0  0  0  0  0  0  0  0  0  0  0
  139.8730   68.1640  226.9700 N   0  0  0  0  0  0  0  0  0  0  0  0
  140.2940   69.4220  227.1760 C   0  0  0  0  0  0  0  0  0  0  0  0
  140.7350   70.0440  228.3220 C   0  0  0  0  0  0  0  0  0  0  0  0
  141.1250   71.3770  228.2890 C   0  0  0  0  0  0  0  0  0  0  0  0
  141.0710   72.0930  227.0980 C   0  0  0  0  0  0  0  0  0  0  0  0
  140.6240   71.4730  225.9270 C   0  0  0  0  0  0  0  0  0  0  0  0
  140.2410   70.1400  225.9850 C   0  0  0  0  0  0  0  0  0  0  0  0
  138.0510   74.8920  221.9630 C   0  0  0  0  0  0  0  0  0  0  0  0
  138.9970   75.8820  222.5250 C   0  0  0  0  0  0  0  0  0  0  0  0
  142.9026   76.2346  220.8093 H   0  0  0  0  0  0  0  0  0  0  0  0
  143.5670   75.2145  219.4884 H   0  0  0  0  0  0  0  0  0  0  0  0
  143.8598   76.9867  219.4884 H   0  0  0  0  0  0  0  0  0  0  0  0
  142.0731   77.1591  218.1656 H   0  0  0  0  0  0  0  0  0  0  0  0
  141.5980   75.4318  218.5085 H   0  0  0  0  0  0  0  0  0  0  0  0
  141.4421   78.9353  219.6975 H   0  0  0  0  0  0  0  0  0  0  0  0
  142.3441   81.1547  220.3883 H   0  0  0  0  0  0  0  0  0  0  0  0
  142.7125   81.5839  222.8112 H   0  0  0  0  0  0  0  0  0  0  0  0
  142.2002   79.8380  224.5087 H   0  0  0  0  0  0  0  0  0  0  0  0
  141.2997   77.6294  223.7919 H   0  0  0  0  0  0  0  0  0  0  0  0
  141.0009   76.0612  222.9730 H   0  0  0  0  0  0  0  0  0  0  0  0
  140.5676   74.4574  220.4889 H   0  0  0  0  0  0  0  0  0  0  0  0
  141.8511   74.3520  221.7632 H   0  0  0  0  0  0  0  0  0  0  0  0
  140.3717   72.4078  221.9953 H   0  0  0  0  0  0  0  0  0  0  0  0
  140.0868   73.4690  223.3777 H   0  0  0  0  0  0  0  0  0  0  0  0
  138.2111   70.8252  220.1284 H   0  0  0  0  0  0  0  0  0  0  0  0
  139.3942   71.1478  221.4873 H   0  0  0  0  0  0  0  0  0  0  0  0
  137.7677   69.0752  221.7282 H   0  0  0  0  0  0  0  0  0  0  0  0
  136.0630   71.4030  222.5750 H   0  0  0  0  0  0  0  0  0  0  0  0
  135.9770   70.6730  221.0430 H   0  0  0  0  0  0  0  0  0  0  0  0
  138.2748   71.3449  223.6900 H   0  0  0  0  0  0  0  0  0  0  0  0
  137.5005   69.7672  224.1566 H   0  0  0  0  0  0  0  0  0  0  0  0
  139.6168   68.7221  222.9959 H   0  0  0  0  0  0  0  0  0  0  0  0
  140.3420   70.3341  223.3002 H   0  0  0  0  0  0  0  0  0  0  0  0
  139.1683   67.1348  225.1914 H   0  0  0  0  0  0  0  0  0  0  0  0
  139.7840   67.3670  227.6380 H   0  0  0  0  0  0  0  0  0  0  0  0
  140.7788   69.4835  229.2675 H   0  0  0  0  0  0  0  0  0  0  0  0
  141.4777   71.8678  229.2081 H   0  0  0  0  0  0  0  0  0  0  0  0
  141.3803   73.1484  227.0771 H   0  0  0  0  0  0  0  0  0  0  0  0
  140.5768   72.0300  224.9796 H   0  0  0  0  0  0  0  0  0  0  0  0
  137.7447   75.2308  220.9623 H   0  0  0  0  0  0  0  0  0  0  0  0
  137.1998   74.8247  222.6564 H   0  0  0  0  0  0  0  0  0  0  0  0
  138.5983   76.8800  222.2903 H   0  0  0  0  0  0  0  0  0  0  0  0
  139.0562   75.6187  223.5914 H   0  0  0  0  0  0  0  0  0  0  0  0
  1  2  1  0
  2  3  1  0
  3  4  2  0
  3  5  1  0
  5  6  1  0
  6  7  2  0
  7  8  1  0
  8  9  2  0
  9 10  1  0
 10 11  2  0
  5 12  1  0
 12 13  1  0
 13 14  1  0
 14 15  1  0
 15 16  1  0
 16 17  2  0
 16 18  1  0
 18 19  1  0
 19 20  1  0
 19 21  1  0
 21 22  1  0
 22 23  1  0
 23 24  2  0
 24 25  1  0
 25 26  1  0
 26 27  2  0
 27 28  1  0
 28 29  2  0
 29 30  1  0
 30 31  2  0
 15 32  1  0
 32 33  1  0
 11  6  1  0
 33 12  1  0
 31 23  1  0
 31 26  1  0
  1 34  1  0
  1 35  1  0
  1 36  1  0
  2 37  1  0
  2 38  1  0
  7 39  1  0
  8 40  1  0
  9 41  1  0
 10 42  1  0
 11 43  1  0
 12 44  1  0
 13 45  1  0
 13 46  1  0
 14 47  1  0
 14 48  1  0
 18 49  1  0
 18 50  1  0
 19 51  1  6
 20 52  1  0
 20 53  1  0
 21 54  1  0
 21 55  1  0
 22 56  1  0
 22 57  1  0
 24 58  1  0
 25 59  1  0
 27 60  1  0
 28 61  1  0
 29 62  1  0
 30 63  1  0
 32 64  1  0
 32 65  1  0
 33 66  1  0
 33 67  1  0
M  END
>  <smiles>  (41) 
CCC(=O)N(c1ccccc1)C1CCN(C(=O)CC(N)CCc2c[nH]c3ccccc23)CC1

>  <score_type>  (41) 
oracle

>  <origin>  (41) 
autodockgpu

>  <m_score__min__energy>  (41) 
-9.5700000000000003

>  <m_primary>  (41) 
energy

>  <rmsd>  (41) 
11.372894299624653

>  <m_score__min__rmsd>  (41) 
11.372894299624653

>  <meeko>  (41) 
{"free_energy": -7.75, "intermolecular_energy": -10.73, "internal_energy": -2.81, "cluster_size": 26, "cluster_id": 2, "rank_in_cluster": 25}

>  <energy>  (41) 
-8.0

>  <cluster_rmsd>  (41) 
0.0

>  <cluster>  (41) 
6

$$$$

     RDKit          3D

 67 70  0  0  0  0  0  0  0  0999 V2000
  137.4040   81.2710  225.2730 C   0  0  0  0  0  0  0  0  0  0  0  0
  137.0880   80.2530  224.2120 C   0  0  0  0  0  0  0  0  0  0  0  0
  137.8340   80.4810  222.9430 C   0  0  0  0  0  0  0  0  0  0  0  0
  137.5610   81.5490  222.3300 O   0  0  0  0  0  0  0  0  0  0  0  0
  138.8020   79.5420  222.4540 N   0  0  0  0  0  0  0  0  0  0  0  0
  140.1660   79.8350  222.8170 C   0  0  0  0  0  0  0  0  0  0  0  0
  140.8470   78.8100  223.4640 C   0  0  0  0  0  0  0  0  0  0  0  0
  142.1600   78.9750  223.8570 C   0  0  0  0  0  0  0  0  0  0  0  0
  142.7650   80.1860  223.5840 C   0  0  0  0  0  0  0  0  0  0  0  0
  142.0760   81.2160  222.9330 C   0  0  0  0  0  0  0  0  0  0  0  0
  140.7650   81.0330  222.5480 C   0  0  0  0  0  0  0  0  0  0  0  0
  138.4490   78.3870  221.6620 C   0  0  0  0  0  0  0  0  0  0  0  0
  137.9200   77.2480  222.4620 C   0  0  0  0  0  0  0  0  0  0  0  0
  137.9460   75.9360  221.6620 C   0  0  0  0  0  0  0  0  0  0  0  0
  139.3560   75.6180  221.4940 N   0  0  0  0  0  0  0  0  0  0  0  0
  139.9090   74.3480  221.8180 C   0  0  0  0  0  0  0  0  0  0  0  0
  141.1620   74.1610  221.6420 O   0  0  0  0  0  0  0  0  0  0  0  0
  139.1140   73.2400  222.3470 C   0  0  0  0  0  0  0  0  0  0  0  0
  139.9470   72.0690  222.8530 C   0  0  2  0  0  0  0  0  0  0  0  0
  140.5040   71.4330  221.6500 N   0  0  0  0  0  0  0  0  0  0  0  0
  139.0010   71.1070  223.5420 C   0  0  0  0  0  0  0  0  0  0  0  0
  139.5690   69.6940  223.6240 C   0  0  0  0  0  0  0  0  0  0  0  0
  139.7090   69.3130  225.0400 C   0  0  0  0  0  0  0  0  0  0  0  0
  139.4000   68.1060  225.6640 C   0  0  0  0  0  0  0  0  0  0  0  0
  139.6910   68.1950  226.9720 N   0  0  0  0  0  0  0  0  0  0  0  0
  140.1780   69.4250  227.2010 C   0  0  0  0  0  0  0  0  0  0  0  0
  140.6190   70.0130  228.3640 C   0  0  0  0  0  0  0  0  0  0  0  0
  141.0870   71.3210  228.3540 C   0  0  0  0  0  0  0  0  0  0  0  0
  141.1120   72.0460  227.1670 C   0  0  0  0  0  0  0  0  0  0  0  0
  140.6660   71.4610  225.9780 C   0  0  0  0  0  0  0  0  0  0  0  0
  140.2040   70.1520  226.0140 C   0  0  0  0  0  0  0  0  0  0  0  0
  140.2010   76.6710  220.9740 C   0  0  0  0  0  0  0  0  0  0  0  0
  139.4680   77.9250  220.6920 C   0  0  0  0  0  0  0  0  0  0  0  0
  137.2641   80.8205  226.2667 H   0  0  0  0  0  0  0  0  0  0  0  0
  138.4473   81.6023  225.1641 H   0  0  0  0  0  0  0  0  0  0  0  0
  136.7317   82.1348  225.1641 H   0  0  0  0  0  0  0  0  0  0  0  0
  137.3469   79.2552  224.5959 H   0  0  0  0  0  0  0  0  0  0  0  0
  136.0158   80.3404  223.9825 H   0  0  0  0  0  0  0  0  0  0  0  0
  140.3343   77.8578  223.6648 H   0  0  0  0  0  0  0  0  0  0  0  0
  142.7057   78.1694  224.3701 H   0  0  0  0  0  0  0  0  0  0  0  0
  143.8111   80.3447  223.8847 H   0  0  0  0  0  0  0  0  0  0  0  0
  142.5808   82.1717  222.7286 H   0  0  0  0  0  0  0  0  0  0  0  0
  140.2130   81.8344  222.0352 H   0  0  0  0  0  0  0  0  0  0  0  0
  137.6261   78.7822  221.0482 H   0  0  0  0  0  0  0  0  0  0  0  0
  138.5373   77.1283  223.3646 H   0  0  0  0  0  0  0  0  0  0  0  0
  136.8757   77.4691  222.7275 H   0  0  0  0  0  0  0  0  0  0  0  0
  137.4338   75.1360  222.2167 H   0  0  0  0  0  0  0  0  0  0  0  0
  137.4292   76.0339  220.6959 H   0  0  0  0  0  0  0  0  0  0  0  0
  138.5051   73.6181  223.1815 H   0  0  0  0  0  0  0  0  0  0  0  0
  138.5019   72.8607  221.5155 H   0  0  0  0  0  0  0  0  0  0  0  0
  140.7424   72.3691  223.5511 H   0  0  0  0  0  0  0  0  0  0  0  0
  140.7780   72.1550  220.9320 H   0  0  0  0  0  0  0  0  0  0  0  0
  141.3830   70.9500  221.9680 H   0  0  0  0  0  0  0  0  0  0  0  0
  138.8084   71.4704  224.5622 H   0  0  0  0  0  0  0  0  0  0  0  0
  138.0755   71.0633  222.9491 H   0  0  0  0  0  0  0  0  0  0  0  0
  138.8877   68.9931  223.1195 H   0  0  0  0  0  0  0  0  0  0  0  0
  140.5522   69.6603  223.1319 H   0  0  0  0  0  0  0  0  0  0  0  0
  138.9831   67.2195  225.1637 H   0  0  0  0  0  0  0  0  0  0  0  0
  139.5350   67.4000  227.6300 H   0  0  0  0  0  0  0  0  0  0  0  0
  140.6010   69.4450  229.3058 H   0  0  0  0  0  0  0  0  0  0  0  0
  141.4388   71.7847  229.2874 H   0  0  0  0  0  0  0  0  0  0  0  0
  141.4833   73.0814  227.1639 H   0  0  0  0  0  0  0  0  0  0  0  0
  140.6808   72.0257  225.0341 H   0  0  0  0  0  0  0  0  0  0  0  0
  140.9870   76.8849  221.7132 H   0  0  0  0  0  0  0  0  0  0  0  0
  140.6153   76.3144  220.0194 H   0  0  0  0  0  0  0  0  0  0  0  0
  140.2175   78.7253  220.6041 H   0  0  0  0  0  0  0  0  0  0  0  0
  138.8891   77.6975  219.7848 H   0  0  0  0  0  0  0  0  0  0  0  0
  1  2  1  0
  2  3  1  0
  3  4  2  0
  3  5  1  0
  5  6  1  0
  6  7  2  0
  7  8  1  0
  8  9  2  0
  9 10  1  0
 10 11  2  0
  5 12  1  0
 12 13  1  0
 13 14  1  0
 14 15  1  0
 15 16  1  0
 16 17  2  0
 16 18  1  0
 18 19  1  0
 19 20  1  0
 19 21  1  0
 21 22  1  0
 22 23  1  0
 23 24  2  0
 24 25  1  0
 25 26  1  0
 26 27  2  0
 27 28  1  0
 28 29  2  0
 29 30  1  0
 30 31  2  0
 15 32  1  0
 32 33  1  0
 11  6  1  0
 33 12  1  0
 31 23  1  0
 31 26  1  0
  1 34  1  0
  1 35  1  0
  1 36  1  0
  2 37  1  0
  2 38  1  0
  7 39  1  0
  8 40  1  0
  9 41  1  0
 10 42  1  0
 11 43  1  0
 12 44  1  0
 13 45  1  0
 13 46  1  0
 14 47  1  0
 14 48  1  0
 18 49  1  0
 18 50  1  0
 19 51  1  1
 20 52  1  0
 20 53  1  0
 21 54  1  0
 21 55  1  0
 22 56  1  0
 22 57  1  0
 24 58  1  0
 25 59  1  0
 27 60  1  0
 28 61  1  0
 29 62  1  0
 30 63  1  0
 32 64  1  0
 32 65  1  0
 33 66  1  0
 33 67  1  0
M  END
>  <smiles>  (42) 
CCC(=O)N(c1ccccc1)C1CCN(C(=O)CC(N)CCc2c[nH]c3ccccc23)CC1

>  <score_type>  (42) 
oracle

>  <origin>  (42) 
autodockgpu

>  <m_score__min__energy>  (42) 
-9.5700000000000003

>  <m_primary>  (42) 
energy

>  <rmsd>  (42) 
10.99129036788517

>  <m_score__min__rmsd>  (42) 
10.99129036788517

>  <meeko>  (42) 
{"free_energy": -8.77, "intermolecular_energy": -11.76, "internal_energy": -2.02, "cluster_size": 26, "cluster_id": 2, "rank_in_cluster": 13}

>  <energy>  (42) 
-7.82

>  <cluster_rmsd>  (42) 
0.4

>  <cluster>  (42) 
6

$$$$

     RDKit          3D

 67 70  0  0  0  0  0  0  0  0999 V2000
  141.8230   80.9120  223.4950 C   0  0  0  0  0  0  0  0  0  0  0  0
  142.5880   80.1700  222.4350 C   0  0  0  0  0  0  0  0  0  0  0  0
  141.8030   79.9580  221.1870 C   0  0  0  0  0  0  0  0  0  0  0  0
  141.3910   81.0030  220.6140 O   0  0  0  0  0  0  0  0  0  0  0  0
  141.5350   78.6460  220.6740 N   0  0  0  0  0  0  0  0  0  0  0  0
  141.4010   78.5730  219.2400 C   0  0  0  0  0  0  0  0  0  0  0  0
  142.5810   78.3610  218.5370 C   0  0  0  0  0  0  0  0  0  0  0  0
  142.5750   78.2710  217.1600 C   0  0  0  0  0  0  0  0  0  0  0  0
  141.3610   78.3990  216.5130 C   0  0  0  0  0  0  0  0  0  0  0  0
  140.1740   78.6130  217.2240 C   0  0  0  0  0  0  0  0  0  0  0  0
  140.2000   78.7000  218.6000 C   0  0  0  0  0  0  0  0  0  0  0  0
  141.4120   77.4800  221.5160 C   0  0  0  0  0  0  0  0  0  0  0  0
  141.3620   76.1960  220.7630 C   0  0  0  0  0  0  0  0  0  0  0  0
  140.8300   75.0490  221.6380 C   0  0  0  0  0  0  0  0  0  0  0  0
  139.4300   75.3680  221.8770 N   0  0  0  0  0  0  0  0  0  0  0  0
  138.3740   74.4430  221.6470 C   0  0  0  0  0  0  0  0  0  0  0  0
  137.1730   74.8130  221.8810 O   0  0  0  0  0  0  0  0  0  0  0  0
  138.5940   73.0830  221.1530 C   0  0  0  0  0  0  0  0  0  0  0  0
  138.2530   71.9960  222.1650 C   0  0  2  0  0  0  0  0  0  0  0  0
  137.0560   72.4770  222.8710 N   0  0  0  0  0  0  0  0  0  0  0  0
  139.4110   71.9040  223.1360 C   0  0  0  0  0  0  0  0  0  0  0  0
  139.9580   70.4860  223.2550 C   0  0  0  0  0  0  0  0  0  0  0  0
  139.7910   70.0190  224.6410 C   0  0  0  0  0  0  0  0  0  0  0  0
  139.1340   68.8850  225.1180 C   0  0  0  0  0  0  0  0  0  0  0  0
  139.2310   68.8460  226.4560 N   0  0  0  0  0  0  0  0  0  0  0  0
  139.9310   69.9230  226.8490 C   0  0  0  0  0  0  0  0  0  0  0  0
  140.3030   70.3420  228.1060 C   0  0  0  0  0  0  0  0  0  0  0  0
  141.0380   71.5100  228.2650 C   0  0  0  0  0  0  0  0  0  0  0  0
  141.4040   72.2640  227.1550 C   0  0  0  0  0  0  0  0  0  0  0  0
  141.0320   71.8500  225.8720 C   0  0  0  0  0  0  0  0  0  0  0  0
  140.2980   70.6790  225.7380 C   0  0  0  0  0  0  0  0  0  0  0  0
  139.1420   76.6970  222.3670 C   0  0  0  0  0  0  0  0  0  0  0  0
  140.3530   77.5300  222.5490 C   0  0  0  0  0  0  0  0  0  0  0  0
  142.1614   80.5838  224.4889 H   0  0  0  0  0  0  0  0  0  0  0  0
  141.9992   81.9923  223.3859 H   0  0  0  0  0  0  0  0  0  0  0  0
  140.7486   80.7029  223.3859 H   0  0  0  0  0  0  0  0  0  0  0  0
  143.4910   80.7470  222.1866 H   0  0  0  0  0  0  0  0  0  0  0  0
  142.8317   79.1773  222.8413 H   0  0  0  0  0  0  0  0  0  0  0  0
  143.5302   78.2639  219.0843 H   0  0  0  0  0  0  0  0  0  0  0  0
  143.5049   78.1031  216.5968 H   0  0  0  0  0  0  0  0  0  0  0  0
  141.3263   78.3313  215.4156 H   0  0  0  0  0  0  0  0  0  0  0  0
  139.2203   78.7118  216.6848 H   0  0  0  0  0  0  0  0  0  0  0  0
  139.2744   78.8679  219.1701 H   0  0  0  0  0  0  0  0  0  0  0  0
  142.3594   77.5094  222.0741 H   0  0  0  0  0  0  0  0  0  0  0  0
  140.7005   76.3178  219.8926 H   0  0  0  0  0  0  0  0  0  0  0  0
  142.3843   75.9422  220.4460 H   0  0  0  0  0  0  0  0  0  0  0  0
  140.9220   74.0877  221.1113 H   0  0  0  0  0  0  0  0  0  0  0  0
  141.3953   74.9522  222.5766 H   0  0  0  0  0  0  0  0  0  0  0  0
  137.9690   72.9334  220.2602 H   0  0  0  0  0  0  0  0  0  0  0  0
  139.6686   72.9919  220.9363 H   0  0  0  0  0  0  0  0  0  0  0  0
  138.0776   71.0120  221.7057 H   0  0  0  0  0  0  0  0  0  0  0  0
  137.2800   73.3160  223.4690 H   0  0  0  0  0  0  0  0  0  0  0  0
  136.3920   72.7910  222.1180 H   0  0  0  0  0  0  0  0  0  0  0  0
  140.2176   72.5658  222.7876 H   0  0  0  0  0  0  0  0  0  0  0  0
  139.0423   72.2057  224.1275 H   0  0  0  0  0  0  0  0  0  0  0  0
  139.4076   69.8207  222.5735 H   0  0  0  0  0  0  0  0  0  0  0  0
  141.0249   70.4771  222.9874 H   0  0  0  0  0  0  0  0  0  0  0  0
  138.6175   68.1397  224.4954 H   0  0  0  0  0  0  0  0  0  0  0  0
  138.8070   68.0780  227.0210 H   0  0  0  0  0  0  0  0  0  0  0  0
  140.0173   69.7499  228.9879 H   0  0  0  0  0  0  0  0  0  0  0  0
  141.3316   71.8398  229.2725 H   0  0  0  0  0  0  0  0  0  0  0  0
  141.9870   73.1875  227.2865 H   0  0  0  0  0  0  0  0  0  0  0  0
  141.3149   72.4397  224.9876 H   0  0  0  0  0  0  0  0  0  0  0  0
  138.4785   77.1983  221.6470 H   0  0  0  0  0  0  0  0  0  0  0  0
  138.6724   76.5849  223.3554 H   0  0  0  0  0  0  0  0  0  0  0  0
  140.0190   78.5757  222.6199 H   0  0  0  0  0  0  0  0  0  0  0  0
  140.8338   77.1102  223.4449 H   0  0  0  0  0  0  0  0  0  0  0  0
  1  2  1  0
  2  3  1  0
  3  4  2  0
  3  5  1  0
  5  6  1  0
  6  7  2  0
  7  8  1  0
  8  9  2  0
  9 10  1  0
 10 11  2  0
  5 12  1  0
 12 13  1  0
 13 14  1  0
 14 15  1  0
 15 16  1  0
 16 17  2  0
 16 18  1  0
 18 19  1  0
 19 20  1  0
 19 21  1  0
 21 22  1  0
 22 23  1  0
 23 24  2  0
 24 25  1  0
 25 26  1  0
 26 27  2  0
 27 28  1  0
 28 29  2  0
 29 30  1  0
 30 31  2  0
 15 32  1  0
 32 33  1  0
 11  6  1  0
 33 12  1  0
 31 23  1  0
 31 26  1  0
  1 34  1  0
  1 35  1  0
  1 36  1  0
  2 37  1  0
  2 38  1  0
  7 39  1  0
  8 40  1  0
  9 41  1  0
 10 42  1  0
 11 43  1  0
 12 44  1  0
 13 45  1  0
 13 46  1  0
 14 47  1  0
 14 48  1  0
 18 49  1  0
 18 50  1  0
 19 51  1  6
 20 52  1  0
 20 53  1  0
 21 54  1  0
 21 55  1  0
 22 56  1  0
 22 57  1  0
 24 58  1  0
 25 59  1  0
 27 60  1  0
 28 61  1  0
 29 62  1  0
 30 63  1  0
 32 64  1  0
 32 65  1  0
 33 66  1  0
 33 67  1  0
M  END
>  <smiles>  (43) 
CCC(=O)N(c1ccccc1)C1CCN(C(=O)CC(N)CCc2c[nH]c3ccccc23)CC1

>  <score_type>  (43) 
oracle

>  <origin>  (43) 
autodockgpu

>  <m_score__min__energy>  (43) 
-9.5700000000000003

>  <m_primary>  (43) 
energy

>  <rmsd>  (43) 
10.523770464490157

>  <m_score__min__rmsd>  (43) 
10.523770464490157

>  <meeko>  (43) 
{"free_energy": -7.6, "intermolecular_energy": -10.59, "internal_energy": -2.67, "cluster_size": 1, "cluster_id": 12, "rank_in_cluster": 1}

>  <energy>  (43) 
-7.74

>  <cluster_rmsd>  (43) 
1.36

>  <cluster>  (43) 
6

$$$$

     RDKit          3D

 67 70  0  0  0  0  0  0  0  0999 V2000
  137.2140   76.8760  222.8330 C   0  0  0  0  0  0  0  0  0  0  0  0
  137.5780   78.3010  222.5250 C   0  0  0  0  0  0  0  0  0  0  0  0
  138.4170   78.4390  221.3020 C   0  0  0  0  0  0  0  0  0  0  0  0
  137.8830   79.0480  220.3350 O   0  0  0  0  0  0  0  0  0  0  0  0
  139.7490   77.9100  221.2330 N   0  0  0  0  0  0  0  0  0  0  0  0
  140.7390   78.6690  221.9550 C   0  0  0  0  0  0  0  0  0  0  0  0
  141.3060   79.7310  221.2590 C   0  0  0  0  0  0  0  0  0  0  0  0
  142.2630   80.5300  221.8500 C   0  0  0  0  0  0  0  0  0  0  0  0
  142.6310   80.2390  223.1490 C   0  0  0  0  0  0  0  0  0  0  0  0
  142.0580   79.1690  223.8470 C   0  0  0  0  0  0  0  0  0  0  0  0
  141.1040   78.3810  223.2400 C   0  0  0  0  0  0  0  0  0  0  0  0
  140.0840   76.7090  220.5040 C   0  0  0  0  0  0  0  0  0  0  0  0
  138.9980   75.6900  220.4940 C   0  0  0  0  0  0  0  0  0  0  0  0
  139.5270   74.3070  220.0780 C   0  0  0  0  0  0  0  0  0  0  0  0
  140.3910   73.8840  221.1690 N   0  0  0  0  0  0  0  0  0  0  0  0
  140.2720   72.6180  221.8070 C   0  0  0  0  0  0  0  0  0  0  0  0
  141.0740   72.3350  222.7620 O   0  0  0  0  0  0  0  0  0  0  0  0
  139.2720   71.6210  221.4260 C   0  0  0  0  0  0  0  0  0  0  0  0
  138.1010   71.5170  222.3940 C   0  0  2  0  0  0  0  0  0  0  0  0
  137.5290   72.8700  222.4660 N   0  0  0  0  0  0  0  0  0  0  0  0
  138.6660   71.1350  223.7460 C   0  0  0  0  0  0  0  0  0  0  0  0
  139.4390   69.8220  223.7020 C   0  0  0  0  0  0  0  0  0  0  0  0
  139.7370   69.3920  225.0790 C   0  0  0  0  0  0  0  0  0  0  0  0
  139.5650   68.1410  225.6700 C   0  0  0  0  0  0  0  0  0  0  0  0
  139.9720   68.1930  226.9470 N   0  0  0  0  0  0  0  0  0  0  0  0
  140.4000   69.4420  227.1900 C   0  0  0  0  0  0  0  0  0  0  0  0
  140.9120   70.0090  228.3360 C   0  0  0  0  0  0  0  0  0  0  0  0
  141.2920   71.3450  228.3460 C   0  0  0  0  0  0  0  0  0  0  0  0
  141.1590   72.1200  227.1990 C   0  0  0  0  0  0  0  0  0  0  0  0
  140.6400   71.5570  226.0290 C   0  0  0  0  0  0  0  0  0  0  0  0
  140.2670   70.2200  226.0430 C   0  0  0  0  0  0  0  0  0  0  0  0
  141.4040   74.8250  221.5970 C   0  0  0  0  0  0  0  0  0  0  0  0
  141.3880   76.0910  220.8310 C   0  0  0  0  0  0  0  0  0  0  0  0
  137.1778   76.7342  223.9232 H   0  0  0  0  0  0  0  0  0  0  0  0
  136.2287   76.6476  222.4006 H   0  0  0  0  0  0  0  0  0  0  0  0
  137.9691   76.2030  222.4006 H   0  0  0  0  0  0  0  0  0  0  0  0
  136.6512   78.8755  222.3803 H   0  0  0  0  0  0  0  0  0  0  0  0
  138.1690   78.6788  223.3723 H   0  0  0  0  0  0  0  0  0  0  0  0
  140.9881   79.9363  220.2261 H   0  0  0  0  0  0  0  0  0  0  0  0
  142.7176   81.3704  221.3050 H   0  0  0  0  0  0  0  0  0  0  0  0
  143.3903   80.8610  223.6457 H   0  0  0  0  0  0  0  0  0  0  0  0
  142.3694   78.9572  224.8805 H   0  0  0  0  0  0  0  0  0  0  0  0
  140.6461   77.5381  223.7785 H   0  0  0  0  0  0  0  0  0  0  0  0
  140.1977   77.0941  219.4799 H   0  0  0  0  0  0  0  0  0  0  0  0
  138.5654   75.6187  221.5029 H   0  0  0  0  0  0  0  0  0  0  0  0
  138.2376   76.0029  219.7633 H   0  0  0  0  0  0  0  0  0  0  0  0
  138.6951   73.5991  219.9483 H   0  0  0  0  0  0  0  0  0  0  0  0
  140.0647   74.3444  219.1191 H   0  0  0  0  0  0  0  0  0  0  0  0
  138.8782   71.8876  220.4341 H   0  0  0  0  0  0  0  0  0  0  0  0
  139.7779   70.6443  221.4324 H   0  0  0  0  0  0  0  0  0  0  0  0
  137.3456   70.7788  222.0869 H   0  0  0  0  0  0  0  0  0  0  0  0
  138.1850   73.5330  222.9570 H   0  0  0  0  0  0  0  0  0  0  0  0
  137.4410   73.1910  221.4680 H   0  0  0  0  0  0  0  0  0  0  0  0
  139.3436   71.9329  224.0841 H   0  0  0  0  0  0  0  0  0  0  0  0
  137.8211   71.0041  224.4381 H   0  0  0  0  0  0  0  0  0  0  0  0
  138.8325   69.0541  223.1994 H   0  0  0  0  0  0  0  0  0  0  0  0
  140.3778   69.9630  223.1463 H   0  0  0  0  0  0  0  0  0  0  0  0
  139.1590   67.2506  225.1676 H   0  0  0  0  0  0  0  0  0  0  0  0
  139.9310   67.3630  227.5780 H   0  0  0  0  0  0  0  0  0  0  0  0
  141.0204   69.4016  229.2467 H   0  0  0  0  0  0  0  0  0  0  0  0
  141.6998   71.7917  229.2648 H   0  0  0  0  0  0  0  0  0  0  0  0
  141.4624   73.1772  227.2122 H   0  0  0  0  0  0  0  0  0  0  0  0
  140.5296   72.1611  225.1164 H   0  0  0  0  0  0  0  0  0  0  0  0
  141.2380   75.0575  222.6593 H   0  0  0  0  0  0  0  0  0  0  0  0
  142.3819   74.3520  221.4241 H   0  0  0  0  0  0  0  0  0  0  0  0
  141.9586   76.8290  221.4139 H   0  0  0  0  0  0  0  0  0  0  0  0
  141.8050   75.8148  219.8513 H   0  0  0  0  0  0  0  0  0  0  0  0
  1  2  1  0
  2  3  1  0
  3  4  2  0
  3  5  1  0
  5  6  1  0
  6  7  2  0
  7  8  1  0
  8  9  2  0
  9 10  1  0
 10 11  2  0
  5 12  1  0
 12 13  1  0
 13 14  1  0
 14 15  1  0
 15 16  1  0
 16 17  2  0
 16 18  1  0
 18 19  1  0
 19 20  1  0
 19 21  1  0
 21 22  1  0
 22 23  1  0
 23 24  2  0
 24 25  1  0
 25 26  1  0
 26 27  2  0
 27 28  1  0
 28 29  2  0
 29 30  1  0
 30 31  2  0
 15 32  1  0
 32 33  1  0
 11  6  1  0
 33 12  1  0
 31 23  1  0
 31 26  1  0
  1 34  1  0
  1 35  1  0
  1 36  1  0
  2 37  1  0
  2 38  1  0
  7 39  1  0
  8 40  1  0
  9 41  1  0
 10 42  1  0
 11 43  1  0
 12 44  1  0
 13 45  1  0
 13 46  1  0
 14 47  1  0
 14 48  1  0
 18 49  1  0
 18 50  1  0
 19 51  1  6
 20 52  1  0
 20 53  1  0
 21 54  1  0
 21 55  1  0
 22 56  1  0
 22 57  1  0
 24 58  1  0
 25 59  1  0
 27 60  1  0
 28 61  1  0
 29 62  1  0
 30 63  1  0
 32 64  1  0
 32 65  1  0
 33 66  1  0
 33 67  1  0
M  END
>  <smiles>  (44) 
CCC(=O)N(c1ccccc1)C1CCN(C(=O)CC(N)CCc2c[nH]c3ccccc23)CC1

>  <score_type>  (44) 
oracle

>  <origin>  (44) 
autodockgpu

>  <m_score__min__energy>  (44) 
-9.5700000000000003

>  <m_primary>  (44) 
energy

>  <rmsd>  (44) 
11.154450621082365

>  <m_score__min__rmsd>  (44) 
11.154450621082365

>  <meeko>  (44) 
{"free_energy": -8.59, "intermolecular_energy": -11.58, "internal_energy": -1.83, "cluster_size": 26, "cluster_id": 2, "rank_in_cluster": 14}

>  <energy>  (44) 
-7.94

>  <cluster_rmsd>  (44) 
0.0

>  <cluster>  (44) 
7

$$$$

     RDKit          3D

 67 70  0  0  0  0  0  0  0  0999 V2000
  142.1900   81.2620  223.8450 C   0  0  0  0  0  0  0  0  0  0  0  0
  142.7730   80.4580  222.7170 C   0  0  0  0  0  0  0  0  0  0  0  0
  141.9090   80.4390  221.5040 C   0  0  0  0  0  0  0  0  0  0  0  0
  141.4530   81.5570  221.1370 O   0  0  0  0  0  0  0  0  0  0  0  0
  141.6150   79.2240  220.8010 N   0  0  0  0  0  0  0  0  0  0  0  0
  141.2860   79.3960  219.4080 C   0  0  0  0  0  0  0  0  0  0  0  0
  142.3600   79.6680  218.5680 C   0  0  0  0  0  0  0  0  0  0  0  0
  142.1660   79.8480  217.2130 C   0  0  0  0  0  0  0  0  0  0  0  0
  140.8760   79.7490  216.7290 C   0  0  0  0  0  0  0  0  0  0  0  0
  139.7970   79.4760  217.5790 C   0  0  0  0  0  0  0  0  0  0  0  0
  140.0100   79.2980  218.9290 C   0  0  0  0  0  0  0  0  0  0  0  0
  141.6480   77.9230  221.4270 C   0  0  0  0  0  0  0  0  0  0  0  0
  141.5850   76.7900  220.4640 C   0  0  0  0  0  0  0  0  0  0  0  0
  141.2150   75.4730  221.1650 C   0  0  0  0  0  0  0  0  0  0  0  0
  139.8350   75.6430  221.5930 N   0  0  0  0  0  0  0  0  0  0  0  0
  138.8110   74.6980  221.3050 C   0  0  0  0  0  0  0  0  0  0  0  0
  137.6240   74.9330  221.7190 O   0  0  0  0  0  0  0  0  0  0  0  0
  139.0490   73.4640  220.5550 C   0  0  0  0  0  0  0  0  0  0  0  0
  138.8930   72.1960  221.3860 C   0  0  2  0  0  0  0  0  0  0  0  0
  137.9460   72.5420  222.4570 N   0  0  0  0  0  0  0  0  0  0  0  0
  140.2450   71.8820  221.9890 C   0  0  0  0  0  0  0  0  0  0  0  0
  140.3240   72.2570  223.4650 C   0  0  0  0  0  0  0  0  0  0  0  0
  140.0800   71.0560  224.2810 C   0  0  0  0  0  0  0  0  0  0  0  0
  139.5590   69.8200  223.9000 C   0  0  0  0  0  0  0  0  0  0  0  0
  139.5140   69.0090  224.9690 N   0  0  0  0  0  0  0  0  0  0  0  0
  139.9920   69.6910  226.0220 C   0  0  0  0  0  0  0  0  0  0  0  0
  140.1550   69.3150  227.3360 C   0  0  0  0  0  0  0  0  0  0  0  0
  140.6790   70.2090  228.2600 C   0  0  0  0  0  0  0  0  0  0  0  0
  141.0430   71.4920  227.8650 C   0  0  0  0  0  0  0  0  0  0  0  0
  140.8820   71.8880  226.5330 C   0  0  0  0  0  0  0  0  0  0  0  0
  140.3570   70.9760  225.6280 C   0  0  0  0  0  0  0  0  0  0  0  0
  139.5300   76.8430  222.3410 C   0  0  0  0  0  0  0  0  0  0  0  0
  140.7070   77.7170  222.5500 C   0  0  0  0  0  0  0  0  0  0  0  0
  142.5047   80.8280  224.8055 H   0  0  0  0  0  0  0  0  0  0  0  0
  142.5464   82.3005  223.7775 H   0  0  0  0  0  0  0  0  0  0  0  0
  141.0922   81.2460  223.7775 H   0  0  0  0  0  0  0  0  0  0  0  0
  143.7472   80.8909  222.4459 H   0  0  0  0  0  0  0  0  0  0  0  0
  142.8664   79.4200  223.0688 H   0  0  0  0  0  0  0  0  0  0  0  0
  143.3744   79.7405  218.9872 H   0  0  0  0  0  0  0  0  0  0  0  0
  143.0103   80.0630  216.5414 H   0  0  0  0  0  0  0  0  0  0  0  0
  140.6924   79.8875  215.6533 H   0  0  0  0  0  0  0  0  0  0  0  0
  138.7789   79.4036  217.1689 H   0  0  0  0  0  0  0  0  0  0  0  0
  139.1707   79.0817  219.6064 H   0  0  0  0  0  0  0  0  0  0  0  0
  142.6479   77.9225  221.8855 H   0  0  0  0  0  0  0  0  0  0  0  0
  140.8264   77.0130  219.6993 H   0  0  0  0  0  0  0  0  0  0  0  0
  142.5787   76.6701  220.0076 H   0  0  0  0  0  0  0  0  0  0  0  0
  141.3009   74.6272  220.4670 H   0  0  0  0  0  0  0  0  0  0  0  0
  141.8838   75.2556  222.0108 H   0  0  0  0  0  0  0  0  0  0  0  0
  138.3327   73.4219  219.7213 H   0  0  0  0  0  0  0  0  0  0  0  0
  140.0940   73.4949  220.2130 H   0  0  0  0  0  0  0  0  0  0  0  0
  138.5397   71.3330  220.8025 H   0  0  0  0  0  0  0  0  0  0  0  0
  138.3010   73.3520  223.0300 H   0  0  0  0  0  0  0  0  0  0  0  0
  137.0700   72.8590  221.9670 H   0  0  0  0  0  0  0  0  0  0  0  0
  140.4351   70.8033  221.8878 H   0  0  0  0  0  0  0  0  0  0  0  0
  140.9985   72.4760  221.4511 H   0  0  0  0  0  0  0  0  0  0  0  0
  141.3231   72.6585  223.6901 H   0  0  0  0  0  0  0  0  0  0  0  0
  139.5665   73.0210  223.6943 H   0  0  0  0  0  0  0  0  0  0  0  0
  139.2357   69.5516  222.8834 H   0  0  0  0  0  0  0  0  0  0  0  0
  139.1540   68.0310  224.9080 H   0  0  0  0  0  0  0  0  0  0  0  0
  139.8689   68.3020  227.6554 H   0  0  0  0  0  0  0  0  0  0  0  0
  140.8068   69.9015  229.3084 H   0  0  0  0  0  0  0  0  0  0  0  0
  141.4580   72.1963  228.6010 H   0  0  0  0  0  0  0  0  0  0  0  0
  141.1654   72.9005  226.2098 H   0  0  0  0  0  0  0  0  0  0  0  0
  138.7655   77.4121  221.7918 H   0  0  0  0  0  0  0  0  0  0  0  0
  139.1775   76.5276  223.3341 H   0  0  0  0  0  0  0  0  0  0  0  0
  140.3270   78.7078  222.8398 H   0  0  0  0  0  0  0  0  0  0  0  0
  141.3044   77.1841  223.3044 H   0  0  0  0  0  0  0  0  0  0  0  0
  1  2  1  0
  2  3  1  0
  3  4  2  0
  3  5  1  0
  5  6  1  0
  6  7  2  0
  7  8  1  0
  8  9  2  0
  9 10  1  0
 10 11  2  0
  5 12  1  0
 12 13  1  0
 13 14  1  0
 14 15  1  0
 15 16  1  0
 16 17  2  0
 16 18  1  0
 18 19  1  0
 19 20  1  0
 19 21  1  0
 21 22  1  0
 22 23  1  0
 23 24  2  0
 24 25  1  0
 25 26  1  0
 26 27  2  0
 27 28  1  0
 28 29  2  0
 29 30  1  0
 30 31  2  0
 15 32  1  0
 32 33  1  0
 11  6  1  0
 33 12  1  0
 31 23  1  0
 31 26  1  0
  1 34  1  0
  1 35  1  0
  1 36  1  0
  2 37  1  0
  2 38  1  0
  7 39  1  0
  8 40  1  0
  9 41  1  0
 10 42  1  0
 11 43  1  0
 12 44  1  0
 13 45  1  0
 13 46  1  0
 14 47  1  0
 14 48  1  0
 18 49  1  0
 18 50  1  0
 19 51  1  6
 20 52  1  0
 20 53  1  0
 21 54  1  0
 21 55  1  0
 22 56  1  0
 22 57  1  0
 24 58  1  0
 25 59  1  0
 27 60  1  0
 28 61  1  0
 29 62  1  0
 30 63  1  0
 32 64  1  0
 32 65  1  0
 33 66  1  0
 33 67  1  0
M  END
>  <smiles>  (45) 
CCC(=O)N(c1ccccc1)C1CCN(C(=O)CC(N)CCc2c[nH]c3ccccc23)CC1

>  <score_type>  (45) 
oracle

>  <origin>  (45) 
autodockgpu

>  <m_score__min__energy>  (45) 
-9.5700000000000003

>  <m_primary>  (45) 
energy

>  <rmsd>  (45) 
10.337517095165436

>  <m_score__min__rmsd>  (45) 
10.337517095165436

>  <meeko>  (45) 
{"free_energy": -7.51, "intermolecular_energy": -10.49, "internal_energy": -2.71, "cluster_size": 2, "cluster_id": 5, "rank_in_cluster": 2}

>  <energy>  (45) 
-7.91

>  <cluster_rmsd>  (45) 
0.07

>  <cluster>  (45) 
7

$$$$

     RDKit          3D

 67 70  0  0  0  0  0  0  0  0999 V2000
  143.6880   75.7710  219.1780 C   0  0  0  0  0  0  0  0  0  0  0  0
  142.4740   76.6030  219.4830 C   0  0  0  0  0  0  0  0  0  0  0  0
  141.7190   76.1210  220.6730 C   0  0  0  0  0  0  0  0  0  0  0  0
  142.0400   74.9790  221.1010 O   0  0  0  0  0  0  0  0  0  0  0  0
  140.6930   76.9110  221.2910 N   0  0  0  0  0  0  0  0  0  0  0  0
  141.1480   78.1540  221.8610 C   0  0  0  0  0  0  0  0  0  0  0  0
  141.3900   78.1340  223.2290 C   0  0  0  0  0  0  0  0  0  0  0  0
  141.8320   79.2650  223.8840 C   0  0  0  0  0  0  0  0  0  0  0  0
  142.0230   80.4090  223.1330 C   0  0  0  0  0  0  0  0  0  0  0  0
  141.7780   80.4260  221.7550 C   0  0  0  0  0  0  0  0  0  0  0  0
  141.3370   79.2860  221.1180 C   0  0  0  0  0  0  0  0  0  0  0  0
  139.3090   76.5050  221.3400 C   0  0  0  0  0  0  0  0  0  0  0  0
  138.9710   75.6580  222.5180 C   0  0  0  0  0  0  0  0  0  0  0  0
  137.6340   74.9260  222.3230 C   0  0  0  0  0  0  0  0  0  0  0  0
  137.8780   73.9620  221.2600 N   0  0  0  0  0  0  0  0  0  0  0  0
  137.5540   72.5820  221.3760 C   0  0  0  0  0  0  0  0  0  0  0  0
  137.8090   71.8070  220.3910 O   0  0  0  0  0  0  0  0  0  0  0  0
  136.9420   72.0000  222.5710 C   0  0  0  0  0  0  0  0  0  0  0  0
  137.9490   71.5200  223.6090 C   0  0  2  0  0  0  0  0  0  0  0  0
  139.2700   71.8750  223.0690 N   0  0  0  0  0  0  0  0  0  0  0  0
  137.8270   70.0130  223.6930 C   0  0  0  0  0  0  0  0  0  0  0  0
  139.1850   69.3200  223.7080 C   0  0  0  0  0  0  0  0  0  0  0  0
  139.5250   68.9570  225.0940 C   0  0  0  0  0  0  0  0  0  0  0  0
  139.4170   67.7240  225.7360 C   0  0  0  0  0  0  0  0  0  0  0  0
  139.8450   67.8440  227.0020 N   0  0  0  0  0  0  0  0  0  0  0  0
  140.2260   69.1180  227.1880 C   0  0  0  0  0  0  0  0  0  0  0  0
  140.7340   69.7510  228.3000 C   0  0  0  0  0  0  0  0  0  0  0  0
  141.0590   71.1000  228.2510 C   0  0  0  0  0  0  0  0  0  0  0  0
  140.8720   71.8230  227.0770 C   0  0  0  0  0  0  0  0  0  0  0  0
  140.3560   71.1930  225.9400 C   0  0  0  0  0  0  0  0  0  0  0  0
  140.0390   69.8440  226.0140 C   0  0  0  0  0  0  0  0  0  0  0  0
  138.4810   74.4710  220.0480 C   0  0  0  0  0  0  0  0  0  0  0  0
  138.7550   75.9250  220.0960 C   0  0  0  0  0  0  0  0  0  0  0  0
  144.1578   75.4491  220.1191 H   0  0  0  0  0  0  0  0  0  0  0  0
  143.3896   74.8867  218.5958 H   0  0  0  0  0  0  0  0  0  0  0  0
  144.4051   76.3684  218.5958 H   0  0  0  0  0  0  0  0  0  0  0  0
  142.7967   77.6381  219.6688 H   0  0  0  0  0  0  0  0  0  0  0  0
  141.8007   76.5307  218.6161 H   0  0  0  0  0  0  0  0  0  0  0  0
  141.2273   77.2058  223.7964 H   0  0  0  0  0  0  0  0  0  0  0  0
  142.0257   79.2563  224.9668 H   0  0  0  0  0  0  0  0  0  0  0  0
  142.3750   81.3258  223.6286 H   0  0  0  0  0  0  0  0  0  0  0  0
  141.9375   81.3500  221.1799 H   0  0  0  0  0  0  0  0  0  0  0  0
  141.1414   79.2870  220.0355 H   0  0  0  0  0  0  0  0  0  0  0  0
  138.7992   77.4724  221.4592 H   0  0  0  0  0  0  0  0  0  0  0  0
  139.7678   74.9136  222.6629 H   0  0  0  0  0  0  0  0  0  0  0  0
  138.8801   76.3122  223.3976 H   0  0  0  0  0  0  0  0  0  0  0  0
  137.3370   74.4120  223.2491 H   0  0  0  0  0  0  0  0  0  0  0  0
  136.8187   75.6197  222.0697 H   0  0  0  0  0  0  0  0  0  0  0  0
  136.3002   72.7619  223.0375 H   0  0  0  0  0  0  0  0  0  0  0  0
  136.3767   71.1157  222.2418 H   0  0  0  0  0  0  0  0  0  0  0  0
  137.7917   71.9601  224.6048 H   0  0  0  0  0  0  0  0  0  0  0  0
  139.3330   71.6490  222.0410 H   0  0  0  0  0  0  0  0  0  0  0  0
  139.3440   72.9200  223.1700 H   0  0  0  0  0  0  0  0  0  0  0  0
  137.2875   69.7531  224.6157 H   0  0  0  0  0  0  0  0  0  0  0  0
  137.2852   69.6700  222.7992 H   0  0  0  0  0  0  0  0  0  0  0  0
  139.1419   68.4116  223.0892 H   0  0  0  0  0  0  0  0  0  0  0  0
  139.9514   69.9975  223.3035 H   0  0  0  0  0  0  0  0  0  0  0  0
  139.0401   66.7982  225.2767 H   0  0  0  0  0  0  0  0  0  0  0  0
  139.8500   67.0380  227.6650 H   0  0  0  0  0  0  0  0  0  0  0  0
  140.8831   69.1854  229.2316 H   0  0  0  0  0  0  0  0  0  0  0  0
  141.4656   71.5987  229.1432 H   0  0  0  0  0  0  0  0  0  0  0  0
  141.1304   72.8917  227.0431 H   0  0  0  0  0  0  0  0  0  0  0  0
  140.2046   71.7550  225.0066 H   0  0  0  0  0  0  0  0  0  0  0  0
  139.4311   73.9420  219.8819 H   0  0  0  0  0  0  0  0  0  0  0  0
  137.7638   74.3015  219.2313 H   0  0  0  0  0  0  0  0  0  0  0  0
  139.4699   76.1462  219.2897 H   0  0  0  0  0  0  0  0  0  0  0  0
  137.7604   76.3864  220.0070 H   0  0  0  0  0  0  0  0  0  0  0  0
  1  2  1  0
  2  3  1  0
  3  4  2  0
  3  5  1  0
  5  6  1  0
  6  7  2  0
  7  8  1  0
  8  9  2  0
  9 10  1  0
 10 11  2  0
  5 12  1  0
 12 13  1  0
 13 14  1  0
 14 15  1  0
 15 16  1  0
 16 17  2  0
 16 18  1  0
 18 19  1  0
 19 20  1  0
 19 21  1  0
 21 22  1  0
 22 23  1  0
 23 24  2  0
 24 25  1  0
 25 26  1  0
 26 27  2  0
 27 28  1  0
 28 29  2  0
 29 30  1  0
 30 31  2  0
 15 32  1  0
 32 33  1  0
 11  6  1  0
 33 12  1  0
 31 23  1  0
 31 26  1  0
  1 34  1  0
  1 35  1  0
  1 36  1  0
  2 37  1  0
  2 38  1  0
  7 39  1  0
  8 40  1  0
  9 41  1  0
 10 42  1  0
 11 43  1  0
 12 44  1  0
 13 45  1  0
 13 46  1  0
 14 47  1  0
 14 48  1  0
 18 49  1  0
 18 50  1  0
 19 51  1  1
 20 52  1  0
 20 53  1  0
 21 54  1  0
 21 55  1  0
 22 56  1  0
 22 57  1  0
 24 58  1  0
 25 59  1  0
 27 60  1  0
 28 61  1  0
 29 62  1  0
 30 63  1  0
 32 64  1  0
 32 65  1  0
 33 66  1  0
 33 67  1  0
M  END
>  <smiles>  (46) 
CCC(=O)N(c1ccccc1)C1CCN(C(=O)CC(N)CCc2c[nH]c3ccccc23)CC1

>  <score_type>  (46) 
oracle

>  <origin>  (46) 
autodockgpu

>  <m_score__min__energy>  (46) 
-9.5700000000000003

>  <m_primary>  (46) 
energy

>  <rmsd>  (46) 
11.481287404792479

>  <m_score__min__rmsd>  (46) 
11.481287404792479

>  <meeko>  (46) 
{"free_energy": -8.44, "intermolecular_energy": -11.43, "internal_energy": -2.18, "cluster_size": 26, "cluster_id": 2, "rank_in_cluster": 16}

>  <energy>  (46) 
-7.82

>  <cluster_rmsd>  (46) 
0.0

>  <cluster>  (46) 
8

$$$$

     RDKit          3D

 67 70  0  0  0  0  0  0  0  0999 V2000
  142.6120   80.8690  223.8260 C   0  0  0  0  0  0  0  0  0  0  0  0
  142.5510   79.7310  222.8470 C   0  0  0  0  0  0  0  0  0  0  0  0
  141.5510   78.6920  223.2200 C   0  0  0  0  0  0  0  0  0  0  0  0
  141.9120   77.8780  224.1130 O   0  0  0  0  0  0  0  0  0  0  0  0
  140.2590   78.6250  222.5990 N   0  0  0  0  0  0  0  0  0  0  0  0
  139.3590   79.6910  222.9610 C   0  0  0  0  0  0  0  0  0  0  0  0
  139.0650   80.5970  221.9480 C   0  0  0  0  0  0  0  0  0  0  0  0
  138.2120   81.6580  222.1770 C   0  0  0  0  0  0  0  0  0  0  0  0
  137.6670   81.7830  223.4400 C   0  0  0  0  0  0  0  0  0  0  0  0
  137.9650   80.8680  224.4580 C   0  0  0  0  0  0  0  0  0  0  0  0
  138.8190   79.8150  224.2100 C   0  0  0  0  0  0  0  0  0  0  0  0
  139.8800   77.5790  221.6780 C   0  0  0  0  0  0  0  0  0  0  0  0
  138.6860   76.8020  222.1090 C   0  0  0  0  0  0  0  0  0  0  0  0
  138.5670   75.4760  221.3400 C   0  0  0  0  0  0  0  0  0  0  0  0
  139.6900   74.6690  221.7930 N   0  0  0  0  0  0  0  0  0  0  0  0
  139.5450   73.3350  222.2650 C   0  0  0  0  0  0  0  0  0  0  0  0
  140.5890   72.7030  222.6480 O   0  0  0  0  0  0  0  0  0  0  0  0
  138.2560   72.6470  222.3370 C   0  0  0  0  0  0  0  0  0  0  0  0
  138.3110   71.1860  221.9070 C   0  0  2  0  0  0  0  0  0  0  0  0
  137.0330   70.9280  221.2270 N   0  0  0  0  0  0  0  0  0  0  0  0
  138.3930   70.3470  223.1650 C   0  0  0  0  0  0  0  0  0  0  0  0
  139.8240   69.9420  223.5010 C   0  0  0  0  0  0  0  0  0  0  0  0
  139.8850   69.5110  224.9080 C   0  0  0  0  0  0  0  0  0  0  0  0
  139.5510   68.2800  225.4700 C   0  0  0  0  0  0  0  0  0  0  0  0
  139.7640   68.3240  226.7940 N   0  0  0  0  0  0  0  0  0  0  0  0
  140.2270   69.5480  227.0950 C   0  0  0  0  0  0  0  0  0  0  0  0
  140.5940   70.0970  228.3020 C   0  0  0  0  0  0  0  0  0  0  0  0
  141.0500   71.4070  228.3660 C   0  0  0  0  0  0  0  0  0  0  0  0
  141.1370   72.1750  227.2090 C   0  0  0  0  0  0  0  0  0  0  0  0
  140.7660   71.6300  225.9760 C   0  0  0  0  0  0  0  0  0  0  0  0
  140.3140   70.3180  225.9380 C   0  0  0  0  0  0  0  0  0  0  0  0
  140.9950   75.2900  221.7480 C   0  0  0  0  0  0  0  0  0  0  0  0
  140.9670   76.6780  221.2330 C   0  0  0  0  0  0  0  0  0  0  0  0
  142.5907   80.4719  224.8516 H   0  0  0  0  0  0  0  0  0  0  0  0
  143.5418   81.4361  223.6716 H   0  0  0  0  0  0  0  0  0  0  0  0
  141.7481   81.5322  223.6716 H   0  0  0  0  0  0  0  0  0  0  0  0
  142.2853   80.1336  221.8584 H   0  0  0  0  0  0  0  0  0  0  0  0
  143.5395   79.2484  222.8432 H   0  0  0  0  0  0  0  0  0  0  0  0
  139.5169   80.4669  220.9536 H   0  0  0  0  0  0  0  0  0  0  0  0
  137.9745   82.3791  221.3810 H   0  0  0  0  0  0  0  0  0  0  0  0
  136.9842   82.6192  223.6510 H   0  0  0  0  0  0  0  0  0  0  0  0
  137.5174   80.9899  225.4554 H   0  0  0  0  0  0  0  0  0  0  0  0
  139.0608   79.0897  225.0009 H   0  0  0  0  0  0  0  0  0  0  0  0
  139.6029   78.1583  220.7849 H   0  0  0  0  0  0  0  0  0  0  0  0
  138.7701   76.5851  223.1841 H   0  0  0  0  0  0  0  0  0  0  0  0
  137.7894   77.4036  221.8990 H   0  0  0  0  0  0  0  0  0  0  0  0
  137.6147   74.9781  221.5751 H   0  0  0  0  0  0  0  0  0  0  0  0
  138.5846   75.6298  220.2509 H   0  0  0  0  0  0  0  0  0  0  0  0
  137.8986   72.6889  223.3765 H   0  0  0  0  0  0  0  0  0  0  0  0
  137.5804   73.1606  221.6372 H   0  0  0  0  0  0  0  0  0  0  0  0
  139.1656   70.9558  221.2538 H   0  0  0  0  0  0  0  0  0  0  0  0
  136.3850   71.7540  221.3130 H   0  0  0  0  0  0  0  0  0  0  0  0
  137.2740   70.8160  220.2090 H   0  0  0  0  0  0  0  0  0  0  0  0
  137.9839   70.9282  224.0046 H   0  0  0  0  0  0  0  0  0  0  0  0
  137.8156   69.4267  222.9927 H   0  0  0  0  0  0  0  0  0  0  0  0
  140.1353   69.1133  222.8481 H   0  0  0  0  0  0  0  0  0  0  0  0
  140.4975   70.7978  223.3460 H   0  0  0  0  0  0  0  0  0  0  0  0
  139.1722   67.4090  224.9151 H   0  0  0  0  0  0  0  0  0  0  0  0
  139.5780   67.5050  227.4130 H   0  0  0  0  0  0  0  0  0  0  0  0
  140.5259   69.4955  229.2204 H   0  0  0  0  0  0  0  0  0  0  0  0
  141.3433   71.8389  229.3342 H   0  0  0  0  0  0  0  0  0  0  0  0
  141.4982   73.2125  227.2644 H   0  0  0  0  0  0  0  0  0  0  0  0
  140.8310   72.2284  225.0553 H   0  0  0  0  0  0  0  0  0  0  0  0
  141.4100   75.3041  222.7666 H   0  0  0  0  0  0  0  0  0  0  0  0
  141.6129   74.6988  221.0561 H   0  0  0  0  0  0  0  0  0  0  0  0
  141.9176   77.1500  221.5221 H   0  0  0  0  0  0  0  0  0  0  0  0
  140.7907   76.5592  220.1537 H   0  0  0  0  0  0  0  0  0  0  0  0
  1  2  1  0
  2  3  1  0
  3  4  2  0
  3  5  1  0
  5  6  1  0
  6  7  2  0
  7  8  1  0
  8  9  2  0
  9 10  1  0
 10 11  2  0
  5 12  1  0
 12 13  1  0
 13 14  1  0
 14 15  1  0
 15 16  1  0
 16 17  2  0
 16 18  1  0
 18 19  1  0
 19 20  1  0
 19 21  1  0
 21 22  1  0
 22 23  1  0
 23 24  2  0
 24 25  1  0
 25 26  1  0
 26 27  2  0
 27 28  1  0
 28 29  2  0
 29 30  1  0
 30 31  2  0
 15 32  1  0
 32 33  1  0
 11  6  1  0
 33 12  1  0
 31 23  1  0
 31 26  1  0
  1 34  1  0
  1 35  1  0
  1 36  1  0
  2 37  1  0
  2 38  1  0
  7 39  1  0
  8 40  1  0
  9 41  1  0
 10 42  1  0
 11 43  1  0
 12 44  1  0
 13 45  1  0
 13 46  1  0
 14 47  1  0
 14 48  1  0
 18 49  1  0
 18 50  1  0
 19 51  1  6
 20 52  1  0
 20 53  1  0
 21 54  1  0
 21 55  1  0
 22 56  1  0
 22 57  1  0
 24 58  1  0
 25 59  1  0
 27 60  1  0
 28 61  1  0
 29 62  1  0
 30 63  1  0
 32 64  1  0
 32 65  1  0
 33 66  1  0
 33 67  1  0
M  END
>  <smiles>  (47) 
CCC(=O)N(c1ccccc1)C1CCN(C(=O)CC(N)CCc2c[nH]c3ccccc23)CC1

>  <score_type>  (47) 
oracle

>  <origin>  (47) 
autodockgpu

>  <m_score__min__energy>  (47) 
-9.5700000000000003

>  <m_primary>  (47) 
energy

>  <rmsd>  (47) 
11.060229640775532

>  <m_score__min__rmsd>  (47) 
11.060229640775532

>  <meeko>  (47) 
{"free_energy": -8.59, "intermolecular_energy": -11.57, "internal_energy": -1.71, "cluster_size": 3, "cluster_id": 4, "rank_in_cluster": 1}

>  <energy>  (47) 
-7.81

>  <cluster_rmsd>  (47) 
0.0

>  <cluster>  (47) 
9

$$$$

     RDKit          3D

 67 70  0  0  0  0  0  0  0  0999 V2000
  142.5840   80.0240  218.1190 C   0  0  0  0  0  0  0  0  0  0  0  0
  141.1030   80.2770  218.1180 C   0  0  0  0  0  0  0  0  0  0  0  0
  140.4010   79.6420  219.2680 C   0  0  0  0  0  0  0  0  0  0  0  0
  139.2570   80.1020  219.5340 O   0  0  0  0  0  0  0  0  0  0  0  0
  140.9920   78.5750  220.0220 N   0  0  0  0  0  0  0  0  0  0  0  0
  141.3740   78.9240  221.3670 C   0  0  0  0  0  0  0  0  0  0  0  0
  142.1410   80.0770  221.4920 C   0  0  0  0  0  0  0  0  0  0  0  0
  142.5630   80.5120  222.7320 C   0  0  0  0  0  0  0  0  0  0  0  0
  142.1960   79.7650  223.8350 C   0  0  0  0  0  0  0  0  0  0  0  0
  141.4240   78.6040  223.7050 C   0  0  0  0  0  0  0  0  0  0  0  0
  141.0120   78.1850  222.4580 C   0  0  0  0  0  0  0  0  0  0  0  0
  141.1910   77.2480  219.4880 C   0  0  0  0  0  0  0  0  0  0  0  0
  139.9470   76.4310  219.4270 C   0  0  0  0  0  0  0  0  0  0  0  0
  140.2610   74.9370  219.2490 C   0  0  0  0  0  0  0  0  0  0  0  0
  140.8870   74.5270  220.4970 N   0  0  0  0  0  0  0  0  0  0  0  0
  140.4570   73.3960  221.2450 C   0  0  0  0  0  0  0  0  0  0  0  0
  141.0640   73.1130  222.3340 O   0  0  0  0  0  0  0  0  0  0  0  0
  139.3480   72.5360  220.8300 C   0  0  0  0  0  0  0  0  0  0  0  0
  138.0750   72.7340  221.6430 C   0  0  2  0  0  0  0  0  0  0  0  0
  138.2490   74.0170  222.3400 N   0  0  0  0  0  0  0  0  0  0  0  0
  138.0090   71.6130  222.6590 C   0  0  0  0  0  0  0  0  0  0  0  0
  139.3810   71.0230  222.9620 C   0  0  0  0  0  0  0  0  0  0  0  0
  139.3210   70.2960  224.2420 C   0  0  0  0  0  0  0  0  0  0  0  0
  138.6680   69.1030  224.5500 C   0  0  0  0  0  0  0  0  0  0  0  0
  138.8810   68.8010  225.8400 N   0  0  0  0  0  0  0  0  0  0  0  0
  139.6530   69.7650  226.3650 C   0  0  0  0  0  0  0  0  0  0  0  0
  140.1500   69.9230  227.6390 C   0  0  0  0  0  0  0  0  0  0  0  0
  140.9390   71.0220  227.9510 C   0  0  0  0  0  0  0  0  0  0  0  0
  141.2320   71.9730  226.9790 C   0  0  0  0  0  0  0  0  0  0  0  0
  140.7330   71.8250  225.6810 C   0  0  0  0  0  0  0  0  0  0  0  0
  139.9470   70.7180  225.3930 C   0  0  0  0  0  0  0  0  0  0  0  0
  141.9920   75.3340  220.9660 C   0  0  0  0  0  0  0  0  0  0  0  0
  142.3070   76.4710  220.0710 C   0  0  0  0  0  0  0  0  0  0  0  0
  142.9447   79.9624  219.1563 H   0  0  0  0  0  0  0  0  0  0  0  0
  142.7945   79.0769  217.6007 H   0  0  0  0  0  0  0  0  0  0  0  0
  143.0970   80.8475  217.6007 H   0  0  0  0  0  0  0  0  0  0  0  0
  140.9333   81.3630  218.1607 H   0  0  0  0  0  0  0  0  0  0  0  0
  140.6949   79.8322  217.1984 H   0  0  0  0  0  0  0  0  0  0  0  0
  142.4144   80.6487  220.5929 H   0  0  0  0  0  0  0  0  0  0  0  0
  143.1709   81.4225  222.8386 H   0  0  0  0  0  0  0  0  0  0  0  0
  142.5169   80.0891  224.8360 H   0  0  0  0  0  0  0  0  0  0  0  0
  141.1461   78.0259  224.5986 H   0  0  0  0  0  0  0  0  0  0  0  0
  140.4047   77.2750  222.3436 H   0  0  0  0  0  0  0  0  0  0  0  0
  141.5030   77.4689  218.4566 H   0  0  0  0  0  0  0  0  0  0  0  0
  139.3831   76.5686  220.3614 H   0  0  0  0  0  0  0  0  0  0  0  0
  139.3576   76.7649  218.5603 H   0  0  0  0  0  0  0  0  0  0  0  0
  139.3366   74.3666  219.0756 H   0  0  0  0  0  0  0  0  0  0  0  0
  140.9136   74.7546  218.3825 H   0  0  0  0  0  0  0  0  0  0  0  0
  139.1214   72.7482  219.7747 H   0  0  0  0  0  0  0  0  0  0  0  0
  139.6718   71.4973  220.9921 H   0  0  0  0  0  0  0  0  0  0  0  0
  137.1617   72.7317  221.0298 H   0  0  0  0  0  0  0  0  0  0  0  0
  137.4650   74.1870  223.0230 H   0  0  0  0  0  0  0  0  0  0  0  0
  139.1380   73.9190  222.8930 H   0  0  0  0  0  0  0  0  0  0  0  0
  137.5797   72.0066  223.5921 H   0  0  0  0  0  0  0  0  0  0  0  0
  137.3854   70.8121  222.2352 H   0  0  0  0  0  0  0  0  0  0  0  0
  139.6697   70.3301  222.1580 H   0  0  0  0  0  0  0  0  0  0  0  0
  140.1251   71.8304  223.0289 H   0  0  0  0  0  0  0  0  0  0  0  0
  138.0719   68.5036  223.8461 H   0  0  0  0  0  0  0  0  0  0  0  0
  138.4810   67.9440  226.2830 H   0  0  0  0  0  0  0  0  0  0  0  0
  139.9211   69.1756  228.4129 H   0  0  0  0  0  0  0  0  0  0  0  0
  141.3339   71.1412  228.9707 H   0  0  0  0  0  0  0  0  0  0  0  0
  141.8568   72.8423  227.2316 H   0  0  0  0  0  0  0  0  0  0  0  0
  140.9588   72.5705  224.9044 H   0  0  0  0  0  0  0  0  0  0  0  0
  141.7372   75.7316  221.9595 H   0  0  0  0  0  0  0  0  0  0  0  0
  142.8802   74.6857  220.9949 H   0  0  0  0  0  0  0  0  0  0  0  0
  142.9250   77.1751  220.6476 H   0  0  0  0  0  0  0  0  0  0  0  0
  142.7872   76.0000  219.2006 H   0  0  0  0  0  0  0  0  0  0  0  0
  1  2  1  0
  2  3  1  0
  3  4  2  0
  3  5  1  0
  5  6  1  0
  6  7  2  0
  7  8  1  0
  8  9  2  0
  9 10  1  0
 10 11  2  0
  5 12  1  0
 12 13  1  0
 13 14  1  0
 14 15  1  0
 15 16  1  0
 16 17  2  0
 16 18  1  0
 18 19  1  0
 19 20  1  0
 19 21  1  0
 21 22  1  0
 22 23  1  0
 23 24  2  0
 24 25  1  0
 25 26  1  0
 26 27  2  0
 27 28  1  0
 28 29  2  0
 29 30  1  0
 30 31  2  0
 15 32  1  0
 32 33  1  0
 11  6  1  0
 33 12  1  0
 31 23  1  0
 31 26  1  0
  1 34  1  0
  1 35  1  0
  1 36  1  0
  2 37  1  0
  2 38  1  0
  7 39  1  0
  8 40  1  0
  9 41  1  0
 10 42  1  0
 11 43  1  0
 12 44  1  0
 13 45  1  0
 13 46  1  0
 14 47  1  0
 14 48  1  0
 18 49  1  0
 18 50  1  0
 19 51  1  6
 20 52  1  0
 20 53  1  0
 21 54  1  0
 21 55  1  0
 22 56  1  0
 22 57  1  0
 24 58  1  0
 25 59  1  0
 27 60  1  0
 28 61  1  0
 29 62  1  0
 30 63  1  0
 32 64  1  0
 32 65  1  0
 33 66  1  0
 33 67  1  0
M  END
>  <smiles>  (48) 
CCC(=O)N(c1ccccc1)C1CCN(C(=O)CC(N)CCc2c[nH]c3ccccc23)CC1

>  <score_type>  (48) 
oracle

>  <origin>  (48) 
autodockgpu

>  <m_score__min__energy>  (48) 
-9.5700000000000003

>  <m_primary>  (48) 
energy

>  <rmsd>  (48) 
10.505948519336178

>  <m_score__min__rmsd>  (48) 
10.505948519336178

>  <meeko>  (48) 
{"free_energy": -8.32, "intermolecular_energy": -11.3, "internal_energy": -2.2, "cluster_size": 26, "cluster_id": 2, "rank_in_cluster": 20}

>  <energy>  (48) 
-7.78

>  <cluster_rmsd>  (48) 
0.0

>  <cluster>  (48) 
10

$$$$

     RDKit          3D

 67 70  0  0  0  0  0  0  0  0999 V2000
  142.9170   80.5340  223.8400 C   0  0  0  0  0  0  0  0  0  0  0  0
  142.8180   79.4400  222.8140 C   0  0  0  0  0  0  0  0  0  0  0  0
  141.4260   78.9530  222.6110 C   0  0  0  0  0  0  0  0  0  0  0  0
  140.6910   78.9480  223.6370 O   0  0  0  0  0  0  0  0  0  0  0  0
  140.9540   78.5170  221.3280 N   0  0  0  0  0  0  0  0  0  0  0  0
  141.3960   79.3200  220.2170 C   0  0  0  0  0  0  0  0  0  0  0  0
  140.9670   80.6430  220.2250 C   0  0  0  0  0  0  0  0  0  0  0  0
  141.3300   81.5080  219.2130 C   0  0  0  0  0  0  0  0  0  0  0  0
  142.1300   81.0140  218.2010 C   0  0  0  0  0  0  0  0  0  0  0  0
  142.5610   79.6810  218.1960 C   0  0  0  0  0  0  0  0  0  0  0  0
  142.1870   78.8320  219.2160 C   0  0  0  0  0  0  0  0  0  0  0  0
  140.1060   77.3620  221.1520 C   0  0  0  0  0  0  0  0  0  0  0  0
  139.8960   76.5730  222.3980 C   0  0  0  0  0  0  0  0  0  0  0  0
  139.3480   75.1700  222.0920 C   0  0  0  0  0  0  0  0  0  0  0  0
  140.4340   74.4740  221.4180 N   0  0  0  0  0  0  0  0  0  0  0  0
  140.9010   73.1910  221.8200 C   0  0  0  0  0  0  0  0  0  0  0  0
  141.8650   72.6580  221.1700 O   0  0  0  0  0  0  0  0  0  0  0  0
  140.3320   72.4480  222.9440 C   0  0  0  0  0  0  0  0  0  0  0  0
  139.2380   71.4650  222.5450 C   0  0  2  0  0  0  0  0  0  0  0  0
  138.0120   71.9580  223.1890 N   0  0  0  0  0  0  0  0  0  0  0  0
  139.6080   70.1170  223.1270 C   0  0  0  0  0  0  0  0  0  0  0  0
  138.5330   69.5730  224.0600 C   0  0  0  0  0  0  0  0  0  0  0  0
  139.1690   69.0840  225.2950 C   0  0  0  0  0  0  0  0  0  0  0  0
  139.2500   67.7830  225.7910 C   0  0  0  0  0  0  0  0  0  0  0  0
  139.9250   67.7920  226.9510 N   0  0  0  0  0  0  0  0  0  0  0  0
  140.2790   69.0610  227.2100 C   0  0  0  0  0  0  0  0  0  0  0  0
  140.9780   69.6000  228.2660 C   0  0  0  0  0  0  0  0  0  0  0  0
  141.2260   70.9650  228.3170 C   0  0  0  0  0  0  0  0  0  0  0  0
  140.7680   71.7990  227.3020 C   0  0  0  0  0  0  0  0  0  0  0  0
  140.0560   71.2640  226.2230 C   0  0  0  0  0  0  0  0  0  0  0  0
  139.8220   69.8960  226.1940 C   0  0  0  0  0  0  0  0  0  0  0  0
  141.0430   75.1530  220.2950 C   0  0  0  0  0  0  0  0  0  0  0  0
  140.4400   76.4760  220.0140 C   0  0  0  0  0  0  0  0  0  0  0  0
  142.8774   80.0958  224.8482 H   0  0  0  0  0  0  0  0  0  0  0  0
  143.8676   81.0724  223.7113 H   0  0  0  0  0  0  0  0  0  0  0  0
  142.0786   81.2343  223.7113 H   0  0  0  0  0  0  0  0  0  0  0  0
  143.1978   79.8237  221.8556 H   0  0  0  0  0  0  0  0  0  0  0  0
  143.4119   78.5905  223.1824 H   0  0  0  0  0  0  0  0  0  0  0  0
  140.3314   81.0038  221.0471 H   0  0  0  0  0  0  0  0  0  0  0  0
  140.9937   82.5553  219.2122 H   0  0  0  0  0  0  0  0  0  0  0  0
  142.4351   81.6815  217.3816 H   0  0  0  0  0  0  0  0  0  0  0  0
  143.1977   79.3118  217.3785 H   0  0  0  0  0  0  0  0  0  0  0  0
  142.5188   77.7833  219.2235 H   0  0  0  0  0  0  0  0  0  0  0  0
  139.1478   77.8298  220.8816 H   0  0  0  0  0  0  0  0  0  0  0  0
  140.8568   76.4743  222.9245 H   0  0  0  0  0  0  0  0  0  0  0  0
  139.1599   77.1022  223.0211 H   0  0  0  0  0  0  0  0  0  0  0  0
  139.0762   74.6507  223.0228 H   0  0  0  0  0  0  0  0  0  0  0  0
  138.4392   75.2098  221.4736 H   0  0  0  0  0  0  0  0  0  0  0  0
  141.1414   71.8856  223.4324 H   0  0  0  0  0  0  0  0  0  0  0  0
  139.8677   73.1876  223.6129 H   0  0  0  0  0  0  0  0  0  0  0  0
  139.1093   71.3745  221.4563 H   0  0  0  0  0  0  0  0  0  0  0  0
  138.0800   71.8860  224.2390 H   0  0  0  0  0  0  0  0  0  0  0  0
  137.9550   72.9790  222.9430 H   0  0  0  0  0  0  0  0  0  0  0  0
  139.7539   69.4040  222.3022 H   0  0  0  0  0  0  0  0  0  0  0  0
  140.5286   70.2465  223.7150 H   0  0  0  0  0  0  0  0  0  0  0  0
  137.8190   70.3730  224.3053 H   0  0  0  0  0  0  0  0  0  0  0  0
  137.9976   68.7480  223.5673 H   0  0  0  0  0  0  0  0  0  0  0  0
  138.8272   66.8900  225.3075 H   0  0  0  0  0  0  0  0  0  0  0  0
  140.1030   66.9200  227.4960 H   0  0  0  0  0  0  0  0  0  0  0  0
  141.3416   68.9466  229.0728 H   0  0  0  0  0  0  0  0  0  0  0  0
  141.7868   71.3887  229.1632 H   0  0  0  0  0  0  0  0  0  0  0  0
  140.9659   72.8801  227.3479 H   0  0  0  0  0  0  0  0  0  0  0  0
  139.6893   71.9137  225.4147 H   0  0  0  0  0  0  0  0  0  0  0  0
  142.1122   75.2953  220.5109 H   0  0  0  0  0  0  0  0  0  0  0  0
  140.8798   74.5250  219.4067 H   0  0  0  0  0  0  0  0  0  0  0  0
  141.1466   77.0242  219.3736 H   0  0  0  0  0  0  0  0  0  0  0  0
  139.4637   76.2349  219.5682 H   0  0  0  0  0  0  0  0  0  0  0  0
  1  2  1  0
  2  3  1  0
  3  4  2  0
  3  5  1  0
  5  6  1  0
  6  7  2  0
  7  8  1  0
  8  9  2  0
  9 10  1  0
 10 11  2  0
  5 12  1  0
 12 13  1  0
 13 14  1  0
 14 15  1  0
 15 16  1  0
 16 17  2  0
 16 18  1  0
 18 19  1  0
 19 20  1  0
 19 21  1  0
 21 22  1  0
 22 23  1  0
 23 24  2  0
 24 25  1  0
 25 26  1  0
 26 27  2  0
 27 28  1  0
 28 29  2  0
 29 30  1  0
 30 31  2  0
 15 32  1  0
 32 33  1  0
 11  6  1  0
 33 12  1  0
 31 23  1  0
 31 26  1  0
  1 34  1  0
  1 35  1  0
  1 36  1  0
  2 37  1  0
  2 38  1  0
  7 39  1  0
  8 40  1  0
  9 41  1  0
 10 42  1  0
 11 43  1  0
 12 44  1  0
 13 45  1  0
 13 46  1  0
 14 47  1  0
 14 48  1  0
 18 49  1  0
 18 50  1  0
 19 51  1  6
 20 52  1  0
 20 53  1  0
 21 54  1  0
 21 55  1  0
 22 56  1  0
 22 57  1  0
 24 58  1  0
 25 59  1  0
 27 60  1  0
 28 61  1  0
 29 62  1  0
 30 63  1  0
 32 64  1  0
 32 65  1  0
 33 66  1  0
 33 67  1  0
M  END
>  <smiles>  (49) 
CCC(=O)N(c1ccccc1)C1CCN(C(=O)CC(N)CCc2c[nH]c3ccccc23)CC1

>  <score_type>  (49) 
oracle

>  <origin>  (49) 
autodockgpu

>  <m_score__min__energy>  (49) 
-9.5700000000000003

>  <m_primary>  (49) 
energy

>  <rmsd>  (49) 
11.421764422375151

>  <m_score__min__rmsd>  (49) 
11.421764422375151

>  <meeko>  (49) 
{"free_energy": -9.2, "intermolecular_energy": -12.18, "internal_energy": -1.45, "cluster_size": 26, "cluster_id": 2, "rank_in_cluster": 8}

>  <energy>  (49) 
-7.75

>  <cluster_rmsd>  (49) 
0.0

>  <cluster>  (49) 
11

$$$$

     RDKit          3D

 67 70  0  0  0  0  0  0  0  0999 V2000
  142.8960   81.9180  217.4230 C   0  0  0  0  0  0  0  0  0  0  0  0
  142.5340   80.5090  217.7980 C   0  0  0  0  0  0  0  0  0  0  0  0
  141.9790   80.3950  219.1760 C   0  0  0  0  0  0  0  0  0  0  0  0
  141.7330   81.4850  219.7600 O   0  0  0  0  0  0  0  0  0  0  0  0
  141.7420   79.1230  219.7940 N   0  0  0  0  0  0  0  0  0  0  0  0
  141.5280   79.1740  221.2190 C   0  0  0  0  0  0  0  0  0  0  0  0
  140.2130   78.9970  221.6340 C   0  0  0  0  0  0  0  0  0  0  0  0
  139.8880   79.0240  222.9750 C   0  0  0  0  0  0  0  0  0  0  0  0
  140.9110   79.2290  223.8810 C   0  0  0  0  0  0  0  0  0  0  0  0
  142.2350   79.4070  223.4580 C   0  0  0  0  0  0  0  0  0  0  0  0
  142.5400   79.3780  222.1140 C   0  0  0  0  0  0  0  0  0  0  0  0
  141.7120   77.8810  219.0570 C   0  0  0  0  0  0  0  0  0  0  0  0
  140.5180   77.0390  219.3460 C   0  0  0  0  0  0  0  0  0  0  0  0
  140.7230   75.5900  218.8750 C   0  0  0  0  0  0  0  0  0  0  0  0
  141.7530   75.0460  219.7470 N   0  0  0  0  0  0  0  0  0  0  0  0
  141.6060   73.8160  220.4470 C   0  0  0  0  0  0  0  0  0  0  0  0
  142.5640   73.4180  221.1950 O   0  0  0  0  0  0  0  0  0  0  0  0
  140.4100   72.9800  220.3540 C   0  0  0  0  0  0  0  0  0  0  0  0
  139.3740   73.2610  221.4360 C   0  0  2  0  0  0  0  0  0  0  0  0
  139.9340   74.3580  222.2390 N   0  0  0  0  0  0  0  0  0  0  0  0
  139.2620   72.0150  222.2890 C   0  0  0  0  0  0  0  0  0  0  0  0
  140.3570   71.9370  223.3470 C   0  0  0  0  0  0  0  0  0  0  0  0
  140.0290   70.8630  224.3010 C   0  0  0  0  0  0  0  0  0  0  0  0
  139.3950   69.6420  224.0730 C   0  0  0  0  0  0  0  0  0  0  0  0
  139.3030   68.9670  225.2290 N   0  0  0  0  0  0  0  0  0  0  0  0
  139.8620   69.7200  226.1890 C   0  0  0  0  0  0  0  0  0  0  0  0
  140.0210   69.4850  227.5360 C   0  0  0  0  0  0  0  0  0  0  0  0
  140.6400   70.4300  228.3440 C   0  0  0  0  0  0  0  0  0  0  0  0
  141.1040   71.6220  227.7980 C   0  0  0  0  0  0  0  0  0  0  0  0
  140.9480   71.8740  226.4310 C   0  0  0  0  0  0  0  0  0  0  0  0
  140.3270   70.9140  225.6440 C   0  0  0  0  0  0  0  0  0  0  0  0
  142.9650   75.8230  219.8830 C   0  0  0  0  0  0  0  0  0  0  0  0
  142.9520   77.0730  219.0910 C   0  0  0  0  0  0  0  0  0  0  0  0
  143.0488   82.5126  218.3357 H   0  0  0  0  0  0  0  0  0  0  0  0
  143.8220   81.9130  216.8293 H   0  0  0  0  0  0  0  0  0  0  0  0
  142.0822   82.3600  216.8293 H   0  0  0  0  0  0  0  0  0  0  0  0
  141.7814   80.1396  217.0859 H   0  0  0  0  0  0  0  0  0  0  0  0
  143.4583   79.9135  217.7664 H   0  0  0  0  0  0  0  0  0  0  0  0
  139.4234   78.8337  220.8858 H   0  0  0  0  0  0  0  0  0  0  0  0
  138.8497   78.8870  223.3113 H   0  0  0  0  0  0  0  0  0  0  0  0
  140.6813   79.2529  224.9565 H   0  0  0  0  0  0  0  0  0  0  0  0
  143.0315   79.5700  224.1989 H   0  0  0  0  0  0  0  0  0  0  0  0
  143.5755   79.5161  221.7696 H   0  0  0  0  0  0  0  0  0  0  0  0
  141.6312   78.2394  218.0202 H   0  0  0  0  0  0  0  0  0  0  0  0
  140.3342   77.0397  220.4305 H   0  0  0  0  0  0  0  0  0  0  0  0
  139.6591   77.4602  218.8029 H   0  0  0  0  0  0  0  0  0  0  0  0
  139.7900   75.0162  218.9759 H   0  0  0  0  0  0  0  0  0  0  0  0
  141.0138   75.5400  217.8153 H   0  0  0  0  0  0  0  0  0  0  0  0
  139.9422   73.1527  219.3735 H   0  0  0  0  0  0  0  0  0  0  0  0
  140.7374   71.9385  220.4884 H   0  0  0  0  0  0  0  0  0  0  0  0
  138.3838   73.5231  221.0350 H   0  0  0  0  0  0  0  0  0  0  0  0
  139.4080   74.4700  223.1460 H   0  0  0  0  0  0  0  0  0  0  0  0
  140.9160   74.0630  222.4740 H   0  0  0  0  0  0  0  0  0  0  0  0
  138.2838   72.0176  222.7920 H   0  0  0  0  0  0  0  0  0  0  0  0
  139.3714   71.1433  221.6270 H   0  0  0  0  0  0  0  0  0  0  0  0
  141.3211   71.7192  222.8642 H   0  0  0  0  0  0  0  0  0  0  0  0
  140.4276   72.8971  223.8792 H   0  0  0  0  0  0  0  0  0  0  0  0
  139.0279   69.2878  223.0984 H   0  0  0  0  0  0  0  0  0  0  0  0
  138.8600   68.0240  225.2870 H   0  0  0  0  0  0  0  0  0  0  0  0
  139.6561   68.5445  227.9745 H   0  0  0  0  0  0  0  0  0  0  0  0
  140.7637   70.2350  229.4195 H   0  0  0  0  0  0  0  0  0  0  0  0
  141.5941   72.3673  228.4417 H   0  0  0  0  0  0  0  0  0  0  0  0
  141.3101   72.8138  225.9887 H   0  0  0  0  0  0  0  0  0  0  0  0
  143.0954   76.0833  220.9438 H   0  0  0  0  0  0  0  0  0  0  0  0
  143.7919   75.2053  219.5026 H   0  0  0  0  0  0  0  0  0  0  0  0
  143.7478   77.7182  219.4916 H   0  0  0  0  0  0  0  0  0  0  0  0
  143.0768   76.7322  218.0526 H   0  0  0  0  0  0  0  0  0  0  0  0
  1  2  1  0
  2  3  1  0
  3  4  2  0
  3  5  1  0
  5  6  1  0
  6  7  2  0
  7  8  1  0
  8  9  2  0
  9 10  1  0
 10 11  2  0
  5 12  1  0
 12 13  1  0
 13 14  1  0
 14 15  1  0
 15 16  1  0
 16 17  2  0
 16 18  1  0
 18 19  1  0
 19 20  1  0
 19 21  1  0
 21 22  1  0
 22 23  1  0
 23 24  2  0
 24 25  1  0
 25 26  1  0
 26 27  2  0
 27 28  1  0
 28 29  2  0
 29 30  1  0
 30 31  2  0
 15 32  1  0
 32 33  1  0
 11  6  1  0
 33 12  1  0
 31 23  1  0
 31 26  1  0
  1 34  1  0
  1 35  1  0
  1 36  1  0
  2 37  1  0
  2 38  1  0
  7 39  1  0
  8 40  1  0
  9 41  1  0
 10 42  1  0
 11 43  1  0
 12 44  1  0
 13 45  1  0
 13 46  1  0
 14 47  1  0
 14 48  1  0
 18 49  1  0
 18 50  1  0
 19 51  1  6
 20 52  1  0
 20 53  1  0
 21 54  1  0
 21 55  1  0
 22 56  1  0
 22 57  1  0
 24 58  1  0
 25 59  1  0
 27 60  1  0
 28 61  1  0
 29 62  1  0
 30 63  1  0
 32 64  1  0
 32 65  1  0
 33 66  1  0
 33 67  1  0
M  END
>  <smiles>  (50) 
CCC(=O)N(c1ccccc1)C1CCN(C(=O)CC(N)CCc2c[nH]c3ccccc23)CC1

>  <score_type>  (50) 
oracle

>  <origin>  (50) 
autodockgpu

>  <m_score__min__energy>  (50) 
-9.5700000000000003

>  <m_primary>  (50) 
energy

>  <rmsd>  (50) 
10.413097016588317

>  <m_score__min__rmsd>  (50) 
10.413097016588317

>  <meeko>  (50) 
{"free_energy": -8.73, "intermolecular_energy": -11.71, "internal_energy": -2.08, "cluster_size": 7, "cluster_id": 3, "rank_in_cluster": 2}

>  <energy>  (50) 
-7.6

>  <cluster_rmsd>  (50) 
0.0

>  <cluster>  (50) 
12

$$$$

     RDKit          3D

 67 70  0  0  0  0  0  0  0  0999 V2000
  137.7980   79.7400  218.9080 C   0  0  0  0  0  0  0  0  0  0  0  0
  138.6240   80.7190  219.7140 C   0  0  0  0  0  0  0  0  0  0  0  0
  138.5290   80.3550  221.1570 C   0  0  0  0  0  0  0  0  0  0  0  0
  137.7090   80.9880  221.8490 O   0  0  0  0  0  0  0  0  0  0  0  0
  139.3680   79.3170  221.6620 N   0  0  0  0  0  0  0  0  0  0  0  0
  140.5840   79.6420  222.3670 C   0  0  0  0  0  0  0  0  0  0  0  0
  140.8600   79.1350  223.6180 C   0  0  0  0  0  0  0  0  0  0  0  0
  142.0650   79.5180  224.2030 C   0  0  0  0  0  0  0  0  0  0  0  0
  142.9480   80.3720  223.5550 C   0  0  0  0  0  0  0  0  0  0  0  0
  142.6530   80.8680  222.3050 C   0  0  0  0  0  0  0  0  0  0  0  0
  141.4600   80.4930  221.7190 C   0  0  0  0  0  0  0  0  0  0  0  0
  139.0440   77.9240  221.4950 C   0  0  0  0  0  0  0  0  0  0  0  0
  138.3400   77.3350  222.7220 C   0  0  0  0  0  0  0  0  0  0  0  0
  137.9590   75.8980  222.3140 C   0  0  0  0  0  0  0  0  0  0  0  0
  139.1790   75.1390  222.2710 N   0  0  0  0  0  0  0  0  0  0  0  0
  139.3450   73.7510  222.2970 C   0  0  0  0  0  0  0  0  0  0  0  0
  140.5940   73.3620  222.2550 O   0  0  0  0  0  0  0  0  0  0  0  0
  138.4120   72.6460  222.3600 C   0  0  0  0  0  0  0  0  0  0  0  0
  138.8410   71.2560  222.1350 C   0  0  1  0  0  0  0  0  0  0  0  0
  140.2350   71.0880  221.7880 N   0  0  0  0  0  0  0  0  0  0  0  0
  138.6450   70.4550  223.4270 C   0  0  0  0  0  0  0  0  0  0  0  0
  139.5350   69.2560  223.5390 C   0  0  0  0  0  0  0  0  0  0  0  0
  139.6990   68.9950  225.0300 C   0  0  0  0  0  0  0  0  0  0  0  0
  139.3950   67.8360  225.7030 C   0  0  0  0  0  0  0  0  0  0  0  0
  139.7030   68.0680  226.9920 N   0  0  0  0  0  0  0  0  0  0  0  0
  140.1820   69.3180  227.1480 C   0  0  0  0  0  0  0  0  0  0  0  0
  140.6340   70.0470  228.2340 C   0  0  0  0  0  0  0  0  0  0  0  0
  141.0870   71.3490  228.1200 C   0  0  0  0  0  0  0  0  0  0  0  0
  141.0940   71.9660  226.8690 C   0  0  0  0  0  0  0  0  0  0  0  0
  140.6420   71.2460  225.7650 C   0  0  0  0  0  0  0  0  0  0  0  0
  140.1950   69.9420  225.9160 C   0  0  0  0  0  0  0  0  0  0  0  0
  140.4160   75.9560  222.1820 C   0  0  0  0  0  0  0  0  0  0  0  0
  140.2600   77.0700  221.1740 C   0  0  0  0  0  0  0  0  0  0  0  0
  137.2417   79.0807  219.5905 H   0  0  0  0  0  0  0  0  0  0  0  0
  137.0895   80.2930  218.2738 H   0  0  0  0  0  0  0  0  0  0  0  0
  138.4624   79.1347  218.2738 H   0  0  0  0  0  0  0  0  0  0  0  0
  139.6739   80.6718  219.3893 H   0  0  0  0  0  0  0  0  0  0  0  0
  138.2465   81.7408  219.5610 H   0  0  0  0  0  0  0  0  0  0  0  0
  140.1608   78.4586  224.1315 H   0  0  0  0  0  0  0  0  0  0  0  0
  142.3231   79.1351  225.2014 H   0  0  0  0  0  0  0  0  0  0  0  0
  143.8915   80.6546  224.0448 H   0  0  0  0  0  0  0  0  0  0  0  0
  143.3487   81.5446  221.7871 H   0  0  0  0  0  0  0  0  0  0  0  0
  141.2027   80.8774  220.7210 H   0  0  0  0  0  0  0  0  0  0  0  0
  138.3563   77.8981  220.6369 H   0  0  0  0  0  0  0  0  0  0  0  0
  139.0180   77.3238  223.5881 H   0  0  0  0  0  0  0  0  0  0  0  0
  137.4610   77.9269  223.0169 H   0  0  0  0  0  0  0  0  0  0  0  0
  137.2698   75.4648  223.0539 H   0  0  0  0  0  0  0  0  0  0  0  0
  137.4536   75.8869  221.3370 H   0  0  0  0  0  0  0  0  0  0  0  0
  137.9679   72.6734  223.3660 H   0  0  0  0  0  0  0  0  0  0  0  0
  137.7668   72.8352  221.4894 H   0  0  0  0  0  0  0  0  0  0  0  0
  138.2301   70.9132  221.2869 H   0  0  0  0  0  0  0  0  0  0  0  0
  140.4980   71.6130  220.9580 H   0  0  0  0  0  0  0  0  0  0  0  0
  140.8070   71.2380  222.6340 H   0  0  0  0  0  0  0  0  0  0  0  0
  138.8491   71.1186  224.2802 H   0  0  0  0  0  0  0  0  0  0  0  0
  137.6095   70.0841  223.4185 H   0  0  0  0  0  0  0  0  0  0  0  0
  139.0711   68.3881  223.0475 H   0  0  0  0  0  0  0  0  0  0  0  0
  140.5055   69.4266  223.0500 H   0  0  0  0  0  0  0  0  0  0  0  0
  138.9843   66.9093  225.2757 H   0  0  0  0  0  0  0  0  0  0  0  0
  139.5950   67.3910  227.7880 H   0  0  0  0  0  0  0  0  0  0  0  0
  140.6330   69.5726  229.2265 H   0  0  0  0  0  0  0  0  0  0  0  0
  141.4389   71.8934  229.0087 H   0  0  0  0  0  0  0  0  0  0  0  0
  141.4494   73.0009  226.7562 H   0  0  0  0  0  0  0  0  0  0  0  0
  140.6397   71.7139  224.7695 H   0  0  0  0  0  0  0  0  0  0  0  0
  140.6306   76.3918  223.1689 H   0  0  0  0  0  0  0  0  0  0  0  0
  141.2421   75.3055  221.8590 H   0  0  0  0  0  0  0  0  0  0  0  0
  141.1598   77.7024  221.1936 H   0  0  0  0  0  0  0  0  0  0  0  0
  140.1249   76.6259  220.1767 H   0  0  0  0  0  0  0  0  0  0  0  0
  1  2  1  0
  2  3  1  0
  3  4  2  0
  3  5  1  0
  5  6  1  0
  6  7  2  0
  7  8  1  0
  8  9  2  0
  9 10  1  0
 10 11  2  0
  5 12  1  0
 12 13  1  0
 13 14  1  0
 14 15  1  0
 15 16  1  0
 16 17  2  0
 16 18  1  0
 18 19  1  0
 19 20  1  0
 19 21  1  0
 21 22  1  0
 22 23  1  0
 23 24  2  0
 24 25  1  0
 25 26  1  0
 26 27  2  0
 27 28  1  0
 28 29  2  0
 29 30  1  0
 30 31  2  0
 15 32  1  0
 32 33  1  0
 11  6  1  0
 33 12  1  0
 31 23  1  0
 31 26  1  0
  1 34  1  0
  1 35  1  0
  1 36  1  0
  2 37  1  0
  2 38  1  0
  7 39  1  0
  8 40  1  0
  9 41  1  0
 10 42  1  0
 11 43  1  0
 12 44  1  0
 13 45  1  0
 13 46  1  0
 14 47  1  0
 14 48  1  0
 18 49  1  0
 18 50  1  0
 19 51  1  6
 20 52  1  0
 20 53  1  0
 21 54  1  0
 21 55  1  0
 22 56  1  0
 22 57  1  0
 24 58  1  0
 25 59  1  0
 27 60  1  0
 28 61  1  0
 29 62  1  0
 30 63  1  0
 32 64  1  0
 32 65  1  0
 33 66  1  0
 33 67  1  0
M  END
>  <smiles>  (51) 
CCC(=O)N(c1ccccc1)C1CCN(C(=O)CC(N)CCc2c[nH]c3ccccc23)CC1

>  <score_type>  (51) 
oracle

>  <origin>  (51) 
autodockgpu

>  <m_score__min__energy>  (51) 
-9.5899999999999999

>  <m_primary>  (51) 
energy

>  <rmsd>  (51) 
11.168390485052322

>  <m_score__min__rmsd>  (51) 
11.168390485052322

>  <meeko>  (51) 
{"free_energy": -8.14, "intermolecular_energy": -11.13, "internal_energy": -2.39, "cluster_size": 27, "cluster_id": 1, "rank_in_cluster": 26}

>  <energy>  (51) 
-9.59

>  <cluster_rmsd>  (51) 
0.0

>  <cluster>  (51) 
1

$$$$

     RDKit          3D

 67 70  0  0  0  0  0  0  0  0999 V2000
  142.8710   76.6620  217.5270 C   0  0  0  0  0  0  0  0  0  0  0  0
  143.0670   77.1430  218.9500 C   0  0  0  0  0  0  0  0  0  0  0  0
  141.7800   77.7060  219.4480 C   0  0  0  0  0  0  0  0  0  0  0  0
  140.9910   78.1590  218.5970 O   0  0  0  0  0  0  0  0  0  0  0  0
  141.5220   77.6980  220.8530 N   0  0  0  0  0  0  0  0  0  0  0  0
  141.7510   78.8830  221.6420 C   0  0  0  0  0  0  0  0  0  0  0  0
  141.8530   80.1320  221.0680 C   0  0  0  0  0  0  0  0  0  0  0  0
  142.0750   81.2050  221.9280 C   0  0  0  0  0  0  0  0  0  0  0  0
  142.1890   81.0260  223.3000 C   0  0  0  0  0  0  0  0  0  0  0  0
  142.0840   79.7680  223.8530 C   0  0  0  0  0  0  0  0  0  0  0  0
  141.8640   78.7000  223.0070 C   0  0  0  0  0  0  0  0  0  0  0  0
  141.0300   76.5270  221.5300 C   0  0  0  0  0  0  0  0  0  0  0  0
  141.4500   75.2270  220.8360 C   0  0  0  0  0  0  0  0  0  0  0  0
  140.9530   74.1000  221.7620 C   0  0  0  0  0  0  0  0  0  0  0  0
  139.5220   74.0590  221.6380 N   0  0  0  0  0  0  0  0  0  0  0  0
  138.6430   73.0270  221.9840 C   0  0  0  0  0  0  0  0  0  0  0  0
  137.3860   73.2910  221.7370 O   0  0  0  0  0  0  0  0  0  0  0  0
  138.8420   71.7160  222.5640 C   0  0  0  0  0  0  0  0  0  0  0  0
  138.1050   71.2800  223.7620 C   0  0  1  0  0  0  0  0  0  0  0  0
  136.7640   71.8070  223.8880 N   0  0  0  0  0  0  0  0  0  0  0  0
  137.9410   69.7560  223.7230 C   0  0  0  0  0  0  0  0  0  0  0  0
  139.2380   69.0070  223.7330 C   0  0  0  0  0  0  0  0  0  0  0  0
  139.5860   68.7930  225.2000 C   0  0  0  0  0  0  0  0  0  0  0  0
  139.4440   67.6320  225.9200 C   0  0  0  0  0  0  0  0  0  0  0  0
  139.8770   67.9140  227.1620 N   0  0  0  0  0  0  0  0  0  0  0  0
  140.2790   69.1980  227.2430 C   0  0  0  0  0  0  0  0  0  0  0  0
  140.7960   69.9820  228.2600 C   0  0  0  0  0  0  0  0  0  0  0  0
  141.1370   71.3100  228.0760 C   0  0  0  0  0  0  0  0  0  0  0  0
  140.9590   71.8960  226.8230 C   0  0  0  0  0  0  0  0  0  0  0  0
  140.4390   71.1210  225.7880 C   0  0  0  0  0  0  0  0  0  0  0  0
  140.1080   69.7920  226.0080 C   0  0  0  0  0  0  0  0  0  0  0  0
  138.9120   75.2890  221.0710 C   0  0  0  0  0  0  0  0  0  0  0  0
  139.5180   76.5280  221.6860 C   0  0  0  0  0  0  0  0  0  0  0  0
  142.4559   75.6434  217.5381 H   0  0  0  0  0  0  0  0  0  0  0  0
  142.1756   77.3356  217.0048 H   0  0  0  0  0  0  0  0  0  0  0  0
  143.8391   76.6578  217.0048 H   0  0  0  0  0  0  0  0  0  0  0  0
  143.3726   76.2996  219.5866 H   0  0  0  0  0  0  0  0  0  0  0  0
  143.8492   77.9158  218.9790 H   0  0  0  0  0  0  0  0  0  0  0  0
  141.7632   80.2748  219.9810 H   0  0  0  0  0  0  0  0  0  0  0  0
  142.1621   82.2187  221.5100 H   0  0  0  0  0  0  0  0  0  0  0  0
  142.3645   81.8952  223.9509 H   0  0  0  0  0  0  0  0  0  0  0  0
  142.1731   79.6192  224.9392 H   0  0  0  0  0  0  0  0  0  0  0  0
  141.7772   77.6867  223.4261 H   0  0  0  0  0  0  0  0  0  0  0  0
  141.4907   76.5685  222.5280 H   0  0  0  0  0  0  0  0  0  0  0  0
  140.9792   75.1486  219.8450 H   0  0  0  0  0  0  0  0  0  0  0  0
  142.5369   75.1785  220.6738 H   0  0  0  0  0  0  0  0  0  0  0  0
  141.3872   73.1376  221.4534 H   0  0  0  0  0  0  0  0  0  0  0  0
  141.2529   74.2853  222.8040 H   0  0  0  0  0  0  0  0  0  0  0  0
  138.6052   70.9888  221.7734 H   0  0  0  0  0  0  0  0  0  0  0  0
  139.8758   71.7783  222.9347 H   0  0  0  0  0  0  0  0  0  0  0  0
  138.7037   71.6541  224.6055 H   0  0  0  0  0  0  0  0  0  0  0  0
  136.7310   72.6670  224.4290 H   0  0  0  0  0  0  0  0  0  0  0  0
  136.3260   71.8260  222.9530 H   0  0  0  0  0  0  0  0  0  0  0  0
  137.3559   69.4477  224.6020 H   0  0  0  0  0  0  0  0  0  0  0  0
  137.4382   69.5125  222.7754 H   0  0  0  0  0  0  0  0  0  0  0  0
  139.1250   68.0397  223.2217 H   0  0  0  0  0  0  0  0  0  0  0  0
  140.0288   69.5624  223.2075 H   0  0  0  0  0  0  0  0  0  0  0  0
  139.0559   66.6693  225.5558 H   0  0  0  0  0  0  0  0  0  0  0  0
  139.9090   67.2500  227.9750 H   0  0  0  0  0  0  0  0  0  0  0  0
  140.9413   69.5316  229.2530 H   0  0  0  0  0  0  0  0  0  0  0  0
  141.5450   71.8987  228.9108 H   0  0  0  0  0  0  0  0  0  0  0  0
  141.2241   72.9502  226.6548 H   0  0  0  0  0  0  0  0  0  0  0  0
  140.2904   71.5650  224.7926 H   0  0  0  0  0  0  0  0  0  0  0  0
  139.0824   75.3068  219.9844 H   0  0  0  0  0  0  0  0  0  0  0  0
  137.8346   75.2794  221.2926 H   0  0  0  0  0  0  0  0  0  0  0  0
  139.1050   77.4168  221.1866 H   0  0  0  0  0  0  0  0  0  0  0  0
  139.2754   76.5425  222.7588 H   0  0  0  0  0  0  0  0  0  0  0  0
  1  2  1  0
  2  3  1  0
  3  4  2  0
  3  5  1  0
  5  6  1  0
  6  7  2  0
  7  8  1  0
  8  9  2  0
  9 10  1  0
 10 11  2  0
  5 12  1  0
 12 13  1  0
 13 14  1  0
 14 15  1  0
 15 16  1  0
 16 17  2  0
 16 18  1  0
 18 19  1  0
 19 20  1  0
 19 21  1  0
 21 22  1  0
 22 23  1  0
 23 24  2  0
 24 25  1  0
 25 26  1  0
 26 27  2  0
 27 28  1  0
 28 29  2  0
 29 30  1  0
 30 31  2  0
 15 32  1  0
 32 33  1  0
 11  6  1  0
 33 12  1  0
 31 23  1  0
 31 26  1  0
  1 34  1  0
  1 35  1  0
  1 36  1  0
  2 37  1  0
  2 38  1  0
  7 39  1  0
  8 40  1  0
  9 41  1  0
 10 42  1  0
 11 43  1  0
 12 44  1  0
 13 45  1  0
 13 46  1  0
 14 47  1  0
 14 48  1  0
 18 49  1  0
 18 50  1  0
 19 51  1  1
 20 52  1  0
 20 53  1  0
 21 54  1  0
 21 55  1  0
 22 56  1  0
 22 57  1  0
 24 58  1  0
 25 59  1  0
 27 60  1  0
 28 61  1  0
 29 62  1  0
 30 63  1  0
 32 64  1  0
 32 65  1  0
 33 66  1  0
 33 67  1  0
M  END
>  <smiles>  (52) 
CCC(=O)N(c1ccccc1)C1CCN(C(=O)CC(N)CCc2c[nH]c3ccccc23)CC1

>  <score_type>  (52) 
oracle

>  <origin>  (52) 
autodockgpu

>  <m_score__min__energy>  (52) 
-9.5899999999999999

>  <m_primary>  (52) 
energy

>  <rmsd>  (52) 
11.558980808262504

>  <m_score__min__rmsd>  (52) 
11.558980808262504

>  <meeko>  (52) 
{"free_energy": -9.15, "intermolecular_energy": -12.13, "internal_energy": -2.12, "cluster_size": 27, "cluster_id": 1, "rank_in_cluster": 4}

>  <energy>  (52) 
-9.32

>  <cluster_rmsd>  (52) 
1.08

>  <cluster>  (52) 
1

$$$$

     RDKit          3D

 67 70  0  0  0  0  0  0  0  0999 V2000
  142.5490   78.9770  218.3070 C   0  0  0  0  0  0  0  0  0  0  0  0
  141.7640   79.9230  219.1910 C   0  0  0  0  0  0  0  0  0  0  0  0
  140.7690   79.1350  219.9730 C   0  0  0  0  0  0  0  0  0  0  0  0
  139.6530   78.9530  219.4510 O   0  0  0  0  0  0  0  0  0  0  0  0
  141.1410   78.6380  221.2590 N   0  0  0  0  0  0  0  0  0  0  0  0
  141.6340   79.5390  222.2730 C   0  0  0  0  0  0  0  0  0  0  0  0
  142.9610   79.5650  222.6410 C   0  0  0  0  0  0  0  0  0  0  0  0
  143.3230   80.4770  223.6310 C   0  0  0  0  0  0  0  0  0  0  0  0
  142.3900   81.3190  224.2200 C   0  0  0  0  0  0  0  0  0  0  0  0
  141.0670   81.2770  223.8360 C   0  0  0  0  0  0  0  0  0  0  0  0
  140.7020   80.3760  222.8560 C   0  0  0  0  0  0  0  0  0  0  0  0
  141.0410   77.2420  221.5960 C   0  0  0  0  0  0  0  0  0  0  0  0
  141.2200   76.3310  220.3770 C   0  0  0  0  0  0  0  0  0  0  0  0
  141.2140   74.8980  220.9430 C   0  0  0  0  0  0  0  0  0  0  0  0
  139.8620   74.6110  221.3380 N   0  0  0  0  0  0  0  0  0  0  0  0
  139.2670   73.3680  221.5790 C   0  0  0  0  0  0  0  0  0  0  0  0
  138.0040   73.4380  221.9160 O   0  0  0  0  0  0  0  0  0  0  0  0
  139.7650   72.0100  221.5310 C   0  0  0  0  0  0  0  0  0  0  0  0
  140.3640   71.3640  222.7110 C   0  0  1  0  0  0  0  0  0  0  0  0
  140.3670   72.1610  223.9170 N   0  0  0  0  0  0  0  0  0  0  0  0
  139.5580   70.1060  223.0560 C   0  0  0  0  0  0  0  0  0  0  0  0
  138.6080   70.2900  224.1990 C   0  0  0  0  0  0  0  0  0  0  0  0
  139.2020   69.5110  225.3660 C   0  0  0  0  0  0  0  0  0  0  0  0
  139.1040   68.1590  225.5890 C   0  0  0  0  0  0  0  0  0  0  0  0
  139.7780   67.9250  226.7300 N   0  0  0  0  0  0  0  0  0  0  0  0
  140.2880   69.0720  227.2220 C   0  0  0  0  0  0  0  0  0  0  0  0
  141.0440   69.3870  228.3380 C   0  0  0  0  0  0  0  0  0  0  0  0
  141.4490   70.6790  228.6210 C   0  0  0  0  0  0  0  0  0  0  0  0
  141.0900   71.7150  227.7590 C   0  0  0  0  0  0  0  0  0  0  0  0
  140.3300   71.4150  226.6310 C   0  0  0  0  0  0  0  0  0  0  0  0
  139.9410   70.1070  226.3770 C   0  0  0  0  0  0  0  0  0  0  0  0
  139.0000   75.8070  221.5170 C   0  0  0  0  0  0  0  0  0  0  0  0
  139.7270   76.8920  222.2750 C   0  0  0  0  0  0  0  0  0  0  0  0
  143.1257   78.2820  218.9349 H   0  0  0  0  0  0  0  0  0  0  0  0
  141.8546   78.4074  217.6719 H   0  0  0  0  0  0  0  0  0  0  0  0
  143.2369   79.5544  217.6719 H   0  0  0  0  0  0  0  0  0  0  0  0
  142.4489   80.4404  219.8789 H   0  0  0  0  0  0  0  0  0  0  0  0
  141.2459   80.6701  218.5718 H   0  0  0  0  0  0  0  0  0  0  0  0
  143.7007   78.8971  222.1753 H   0  0  0  0  0  0  0  0  0  0  0  0
  144.3734   80.5307  223.9532 H   0  0  0  0  0  0  0  0  0  0  0  0
  142.7092   82.0259  225.0000 H   0  0  0  0  0  0  0  0  0  0  0  0
  140.3229   81.9428  224.2975 H   0  0  0  0  0  0  0  0  0  0  0  0
  139.6516   80.3235  222.5338 H   0  0  0  0  0  0  0  0  0  0  0  0
  141.8645   77.0660  222.3037 H   0  0  0  0  0  0  0  0  0  0  0  0
  140.3916   76.4692  219.6666 H   0  0  0  0  0  0  0  0  0  0  0  0
  142.1471   76.5537  219.8284 H   0  0  0  0  0  0  0  0  0  0  0  0
  141.5423   74.1854  220.1720 H   0  0  0  0  0  0  0  0  0  0  0  0
  141.9012   74.8091  221.7973 H   0  0  0  0  0  0  0  0  0  0  0  0
  138.9153   71.3792  221.2307 H   0  0  0  0  0  0  0  0  0  0  0  0
  140.6248   72.0994  220.8508 H   0  0  0  0  0  0  0  0  0  0  0  0
  141.4080   71.1737  222.4215 H   0  0  0  0  0  0  0  0  0  0  0  0
  141.3040   72.4380  224.2000 H   0  0  0  0  0  0  0  0  0  0  0  0
  139.6680   72.9130  223.8190 H   0  0  0  0  0  0  0  0  0  0  0  0
  138.9792   69.8109  222.1683 H   0  0  0  0  0  0  0  0  0  0  0  0
  140.2818   69.3364  223.3624 H   0  0  0  0  0  0  0  0  0  0  0  0
  138.5204   71.3560  224.4558 H   0  0  0  0  0  0  0  0  0  0  0  0
  137.5989   69.9321  223.9468 H   0  0  0  0  0  0  0  0  0  0  0  0
  138.5820   67.4198  224.9636 H   0  0  0  0  0  0  0  0  0  0  0  0
  139.9070   66.9930  227.1960 H   0  0  0  0  0  0  0  0  0  0  0  0
  141.3337   68.5791  229.0260 H   0  0  0  0  0  0  0  0  0  0  0  0
  142.0494   70.8877  229.5187 H   0  0  0  0  0  0  0  0  0  0  0  0
  141.4012   72.7495  227.9661 H   0  0  0  0  0  0  0  0  0  0  0  0
  140.0369   72.2179  225.9386 H   0  0  0  0  0  0  0  0  0  0  0  0
  138.7098   76.1920  220.5283 H   0  0  0  0  0  0  0  0  0  0  0  0
  138.1104   75.5136  222.0937 H   0  0  0  0  0  0  0  0  0  0  0  0
  139.0926   77.7897  222.3157 H   0  0  0  0  0  0  0  0  0  0  0  0
  139.9427   76.5270  223.2900 H   0  0  0  0  0  0  0  0  0  0  0  0
  1  2  1  0
  2  3  1  0
  3  4  2  0
  3  5  1  0
  5  6  1  0
  6  7  2  0
  7  8  1  0
  8  9  2  0
  9 10  1  0
 10 11  2  0
  5 12  1  0
 12 13  1  0
 13 14  1  0
 14 15  1  0
 15 16  1  0
 16 17  2  0
 16 18  1  0
 18 19  1  0
 19 20  1  0
 19 21  1  0
 21 22  1  0
 22 23  1  0
 23 24  2  0
 24 25  1  0
 25 26  1  0
 26 27  2  0
 27 28  1  0
 28 29  2  0
 29 30  1  0
 30 31  2  0
 15 32  1  0
 32 33  1  0
 11  6  1  0
 33 12  1  0
 31 23  1  0
 31 26  1  0
  1 34  1  0
  1 35  1  0
  1 36  1  0
  2 37  1  0
  2 38  1  0
  7 39  1  0
  8 40  1  0
  9 41  1  0
 10 42  1  0
 11 43  1  0
 12 44  1  0
 13 45  1  0
 13 46  1  0
 14 47  1  0
 14 48  1  0
 18 49  1  0
 18 50  1  0
 19 51  1  6
 20 52  1  0
 20 53  1  0
 21 54  1  0
 21 55  1  0
 22 56  1  0
 22 57  1  0
 24 58  1  0
 25 59  1  0
 27 60  1  0
 28 61  1  0
 29 62  1  0
 30 63  1  0
 32 64  1  0
 32 65  1  0
 33 66  1  0
 33 67  1  0
M  END
>  <smiles>  (53) 
CCC(=O)N(c1ccccc1)C1CCN(C(=O)CC(N)CCc2c[nH]c3ccccc23)CC1

>  <score_type>  (53) 
oracle

>  <origin>  (53) 
autodockgpu

>  <m_score__min__energy>  (53) 
-9.5899999999999999

>  <m_primary>  (53) 
energy

>  <rmsd>  (53) 
11.396860140257422

>  <m_score__min__rmsd>  (53) 
11.396860140257422

>  <meeko>  (53) 
{"free_energy": -9.03, "intermolecular_energy": -12.01, "internal_energy": -1.72, "cluster_size": 27, "cluster_id": 1, "rank_in_cluster": 7}

>  <energy>  (53) 
-9.24

>  <cluster_rmsd>  (53) 
1.08

>  <cluster>  (53) 
1

$$$$

     RDKit          3D

 67 70  0  0  0  0  0  0  0  0999 V2000
  137.6860   80.7460  223.5910 C   0  0  0  0  0  0  0  0  0  0  0  0
  138.0150   81.3200  222.2300 C   0  0  0  0  0  0  0  0  0  0  0  0
  138.3100   80.1980  221.2930 C   0  0  0  0  0  0  0  0  0  0  0  0
  137.6790   80.1740  220.2200 O   0  0  0  0  0  0  0  0  0  0  0  0
  139.2860   79.2260  221.6690 N   0  0  0  0  0  0  0  0  0  0  0  0
  140.5360   79.6400  222.2600 C   0  0  0  0  0  0  0  0  0  0  0  0
  140.8970   79.2660  223.5360 C   0  0  0  0  0  0  0  0  0  0  0  0
  142.1270   79.7250  224.0030 C   0  0  0  0  0  0  0  0  0  0  0  0
  142.9510   80.5220  223.2190 C   0  0  0  0  0  0  0  0  0  0  0  0
  142.5700   80.8840  221.9450 C   0  0  0  0  0  0  0  0  0  0  0  0
  141.3520   80.4320  221.4760 C   0  0  0  0  0  0  0  0  0  0  0  0
  139.0700   77.8150  221.4800 C   0  0  0  0  0  0  0  0  0  0  0  0
  138.5500   77.1270  222.7460 C   0  0  0  0  0  0  0  0  0  0  0  0
  138.2570   75.6750  222.3210 C   0  0  0  0  0  0  0  0  0  0  0  0
  139.5270   75.0320  222.1280 N   0  0  0  0  0  0  0  0  0  0  0  0
  139.8170   73.6640  222.0820 C   0  0  0  0  0  0  0  0  0  0  0  0
  141.0840   73.3930  221.9010 O   0  0  0  0  0  0  0  0  0  0  0  0
  138.9950   72.4780  222.1930 C   0  0  0  0  0  0  0  0  0  0  0  0
  139.5170   71.1410  221.8630 C   0  0  1  0  0  0  0  0  0  0  0  0
  140.7180   71.1280  221.0570 N   0  0  0  0  0  0  0  0  0  0  0  0
  139.8900   70.4140  223.1590 C   0  0  0  0  0  0  0  0  0  0  0  0
  138.7120   69.8860  223.9190 C   0  0  0  0  0  0  0  0  0  0  0  0
  139.2650   69.3710  225.2410 C   0  0  0  0  0  0  0  0  0  0  0  0
  139.1780   68.0880  225.7270 C   0  0  0  0  0  0  0  0  0  0  0  0
  139.8040   68.1040  226.9190 N   0  0  0  0  0  0  0  0  0  0  0  0
  140.2720   69.3380  227.1920 C   0  0  0  0  0  0  0  0  0  0  0  0
  140.9700   69.8880  228.2530 C   0  0  0  0  0  0  0  0  0  0  0  0
  141.3410   71.2210  228.2870 C   0  0  0  0  0  0  0  0  0  0  0  0
  141.0050   72.0540  227.2210 C   0  0  0  0  0  0  0  0  0  0  0  0
  140.3030   71.5160  226.1450 C   0  0  0  0  0  0  0  0  0  0  0  0
  139.9470   70.1750  226.1430 C   0  0  0  0  0  0  0  0  0  0  0  0
  140.6730   75.9610  221.9490 C   0  0  0  0  0  0  0  0  0  0  0  0
  140.3170   77.0860  221.0070 C   0  0  0  0  0  0  0  0  0  0  0  0
  138.0701   81.4162  224.3742 H   0  0  0  0  0  0  0  0  0  0  0  0
  136.5952   80.6489  223.6941 H   0  0  0  0  0  0  0  0  0  0  0  0
  138.1536   79.7557  223.6941 H   0  0  0  0  0  0  0  0  0  0  0  0
  137.1574   81.8983  221.8557 H   0  0  0  0  0  0  0  0  0  0  0  0
  138.8895   81.9830  222.3058 H   0  0  0  0  0  0  0  0  0  0  0  0
  140.2447   78.6345  224.1571 H   0  0  0  0  0  0  0  0  0  0  0  0
  142.4531   79.4495  225.0168 H   0  0  0  0  0  0  0  0  0  0  0  0
  143.9160   80.8673  223.6183 H   0  0  0  0  0  0  0  0  0  0  0  0
  143.2178   81.5153  221.3191 H   0  0  0  0  0  0  0  0  0  0  0  0
  141.0267   80.7072  220.4619 H   0  0  0  0  0  0  0  0  0  0  0  0
  138.3030   77.7528  220.6940 H   0  0  0  0  0  0  0  0  0  0  0  0
  139.3115   77.1511  223.5394 H   0  0  0  0  0  0  0  0  0  0  0  0
  137.6573   77.6267  223.1501 H   0  0  0  0  0  0  0  0  0  0  0  0
  137.6872   75.1584  223.1074 H   0  0  0  0  0  0  0  0  0  0  0  0
  137.6580   75.6481  221.3988 H   0  0  0  0  0  0  0  0  0  0  0  0
  138.6610   72.4300  223.2400 H   0  0  0  0  0  0  0  0  0  0  0  0
  138.2452   72.6380  221.4042 H   0  0  0  0  0  0  0  0  0  0  0  0
  138.7096   70.6647  221.2875 H   0  0  0  0  0  0  0  0  0  0  0  0
  140.6790   71.7890  220.2860 H   0  0  0  0  0  0  0  0  0  0  0  0
  141.5370   71.1900  221.6820 H   0  0  0  0  0  0  0  0  0  0  0  0
  140.5459   69.5682  222.9053 H   0  0  0  0  0  0  0  0  0  0  0  0
  140.3844   71.1517  223.8081 H   0  0  0  0  0  0  0  0  0  0  0  0
  137.9806   70.6881  224.0967 H   0  0  0  0  0  0  0  0  0  0  0  0
  138.1944   69.0918  223.3610 H   0  0  0  0  0  0  0  0  0  0  0  0
  138.6963   67.2261  225.2421 H   0  0  0  0  0  0  0  0  0  0  0  0
  139.9250   67.2870  227.5670 H   0  0  0  0  0  0  0  0  0  0  0  0
  141.2400   69.2415  229.1010 H   0  0  0  0  0  0  0  0  0  0  0  0
  141.8966   71.6199  229.1485 H   0  0  0  0  0  0  0  0  0  0  0  0
  141.2891   73.1167  227.2294 H   0  0  0  0  0  0  0  0  0  0  0  0
  140.0298   72.1567  225.2936 H   0  0  0  0  0  0  0  0  0  0  0  0
  140.9489   76.3840  222.9262 H   0  0  0  0  0  0  0  0  0  0  0  0
  141.5156   75.3988  221.5201 H   0  0  0  0  0  0  0  0  0  0  0  0
  141.1549   77.7973  220.9624 H   0  0  0  0  0  0  0  0  0  0  0  0
  140.1199   76.6618  220.0114 H   0  0  0  0  0  0  0  0  0  0  0  0
  1  2  1  0
  2  3  1  0
  3  4  2  0
  3  5  1  0
  5  6  1  0
  6  7  2  0
  7  8  1  0
  8  9  2  0
  9 10  1  0
 10 11  2  0
  5 12  1  0
 12 13  1  0
 13 14  1  0
 14 15  1  0
 15 16  1  0
 16 17  2  0
 16 18  1  0
 18 19  1  0
 19 20  1  0
 19 21  1  0
 21 22  1  0
 22 23  1  0
 23 24  2  0
 24 25  1  0
 25 26  1  0
 26 27  2  0
 27 28  1  0
 28 29  2  0
 29 30  1  0
 30 31  2  0
 15 32  1  0
 32 33  1  0
 11  6  1  0
 33 12  1  0
 31 23  1  0
 31 26  1  0
  1 34  1  0
  1 35  1  0
  1 36  1  0
  2 37  1  0
  2 38  1  0
  7 39  1  0
  8 40  1  0
  9 41  1  0
 10 42  1  0
 11 43  1  0
 12 44  1  0
 13 45  1  0
 13 46  1  0
 14 47  1  0
 14 48  1  0
 18 49  1  0
 18 50  1  0
 19 51  1  6
 20 52  1  0
 20 53  1  0
 21 54  1  0
 21 55  1  0
 22 56  1  0
 22 57  1  0
 24 58  1  0
 25 59  1  0
 27 60  1  0
 28 61  1  0
 29 62  1  0
 30 63  1  0
 32 64  1  0
 32 65  1  0
 33 66  1  0
 33 67  1  0
M  END
>  <smiles>  (54) 
CCC(=O)N(c1ccccc1)C1CCN(C(=O)CC(N)CCc2c[nH]c3ccccc23)CC1

>  <score_type>  (54) 
oracle

>  <origin>  (54) 
autodockgpu

>  <m_score__min__energy>  (54) 
-9.5899999999999999

>  <m_primary>  (54) 
energy

>  <rmsd>  (54) 
11.171059134863075

>  <m_score__min__rmsd>  (54) 
11.171059134863075

>  <meeko>  (54) 
{"free_energy": -8.51, "intermolecular_energy": -11.49, "internal_energy": -2.37, "cluster_size": 27, "cluster_id": 1, "rank_in_cluster": 23}

>  <energy>  (54) 
-9.15

>  <cluster_rmsd>  (54) 
1.47

>  <cluster>  (54) 
1

$$$$

     RDKit          3D

 67 70  0  0  0  0  0  0  0  0999 V2000
  139.2370   80.0100  218.6190 C   0  0  0  0  0  0  0  0  0  0  0  0
  140.4710   79.2390  218.1990 C   0  0  0  0  0  0  0  0  0  0  0  0
  141.5230   79.4100  219.2420 C   0  0  0  0  0  0  0  0  0  0  0  0
  142.5750   79.9810  218.8990 O   0  0  0  0  0  0  0  0  0  0  0  0
  141.2730   78.9180  220.5590 N   0  0  0  0  0  0  0  0  0  0  0  0
  141.6220   79.7140  221.7110 C   0  0  0  0  0  0  0  0  0  0  0  0
  142.7400   79.4450  222.4710 C   0  0  0  0  0  0  0  0  0  0  0  0
  142.9780   80.2800  223.5600 C   0  0  0  0  0  0  0  0  0  0  0  0
  142.1290   81.3350  223.8670 C   0  0  0  0  0  0  0  0  0  0  0  0
  141.0170   81.5870  223.0940 C   0  0  0  0  0  0  0  0  0  0  0  0
  140.7750   80.7630  222.0120 C   0  0  0  0  0  0  0  0  0  0  0  0
  140.6700   77.6320  220.7920 C   0  0  0  0  0  0  0  0  0  0  0  0
  140.6820   77.2380  222.2730 C   0  0  0  0  0  0  0  0  0  0  0  0
  139.8920   75.9170  222.3430 C   0  0  0  0  0  0  0  0  0  0  0  0
  140.7220   74.9030  221.7540 N   0  0  0  0  0  0  0  0  0  0  0  0
  140.6270   73.5130  221.8810 C   0  0  0  0  0  0  0  0  0  0  0  0
  141.5470   72.8530  221.2260 O   0  0  0  0  0  0  0  0  0  0  0  0
  139.7100   72.6480  222.5940 C   0  0  0  0  0  0  0  0  0  0  0  0
  139.4420   71.2700  222.1490 C   0  0  1  0  0  0  0  0  0  0  0  0
  140.1490   70.8570  220.9560 N   0  0  0  0  0  0  0  0  0  0  0  0
  139.8880   70.2940  223.2430 C   0  0  0  0  0  0  0  0  0  0  0  0
  138.7540   69.6070  223.9410 C   0  0  0  0  0  0  0  0  0  0  0  0
  139.3180   69.1140  225.2670 C   0  0  0  0  0  0  0  0  0  0  0  0
  139.2860   67.8270  225.7490 C   0  0  0  0  0  0  0  0  0  0  0  0
  139.8990   67.8670  226.9460 N   0  0  0  0  0  0  0  0  0  0  0  0
  140.3090   69.1210  227.2260 C   0  0  0  0  0  0  0  0  0  0  0  0
  140.9720   69.6990  228.2950 C   0  0  0  0  0  0  0  0  0  0  0  0
  141.2810   71.0460  228.3360 C   0  0  0  0  0  0  0  0  0  0  0  0
  140.9180   71.8670  227.2690 C   0  0  0  0  0  0  0  0  0  0  0  0
  140.2500   71.3010  226.1850 C   0  0  0  0  0  0  0  0  0  0  0  0
  139.9550   69.9450  226.1770 C   0  0  0  0  0  0  0  0  0  0  0  0
  141.8190   75.4190  220.8960 C   0  0  0  0  0  0  0  0  0  0  0  0
  141.3260   76.5200  219.9880 C   0  0  0  0  0  0  0  0  0  0  0  0
  139.1822   80.0443  219.7171 H   0  0  0  0  0  0  0  0  0  0  0  0
  139.2922   81.0346  218.2225 H   0  0  0  0  0  0  0  0  0  0  0  0
  138.3404   79.5112  218.2225 H   0  0  0  0  0  0  0  0  0  0  0  0
  140.2230   78.1723  218.0955 H   0  0  0  0  0  0  0  0  0  0  0  0
  140.8373   79.6175  217.2333 H   0  0  0  0  0  0  0  0  0  0  0  0
  143.4132   78.6095  222.2286 H   0  0  0  0  0  0  0  0  0  0  0  0
  143.8599   80.0993  224.1922 H   0  0  0  0  0  0  0  0  0  0  0  0
  142.3462   81.9750  224.7349 H   0  0  0  0  0  0  0  0  0  0  0  0
  140.3405   82.4212  223.3317 H   0  0  0  0  0  0  0  0  0  0  0  0
  139.8935   80.9451  221.3798 H   0  0  0  0  0  0  0  0  0  0  0  0
  139.6285   77.7470  220.4572 H   0  0  0  0  0  0  0  0  0  0  0  0
  141.7136   77.0902  222.6250 H   0  0  0  0  0  0  0  0  0  0  0  0
  140.2393   78.0174  222.9106 H   0  0  0  0  0  0  0  0  0  0  0  0
  139.6707   75.6636  223.3903 H   0  0  0  0  0  0  0  0  0  0  0  0
  138.9345   76.0019  221.8082 H   0  0  0  0  0  0  0  0  0  0  0  0
  140.0927   72.5721  223.6225 H   0  0  0  0  0  0  0  0  0  0  0  0
  138.7419   73.1417  222.4237 H   0  0  0  0  0  0  0  0  0  0  0  0
  138.3633   71.2550  221.9341 H   0  0  0  0  0  0  0  0  0  0  0  0
  140.0190   71.5030  220.1810 H   0  0  0  0  0  0  0  0  0  0  0  0
  141.1210   70.6250  221.2110 H   0  0  0  0  0  0  0  0  0  0  0  0
  140.5278   69.5265  222.7830 H   0  0  0  0  0  0  0  0  0  0  0  0
  140.4195   70.8860  224.0026 H   0  0  0  0  0  0  0  0  0  0  0  0
  137.9281   70.3124  224.1150 H   0  0  0  0  0  0  0  0  0  0  0  0
  138.3521   68.7782  223.3397 H   0  0  0  0  0  0  0  0  0  0  0  0
  138.8490   66.9455  225.2571 H   0  0  0  0  0  0  0  0  0  0  0  0
  140.0520   67.0540  227.5930 H   0  0  0  0  0  0  0  0  0  0  0  0
  141.2639   69.0628  229.1436 H   0  0  0  0  0  0  0  0  0  0  0  0
  141.8094   71.4670  229.2041 H   0  0  0  0  0  0  0  0  0  0  0  0
  141.1545   72.9412  227.2827 H   0  0  0  0  0  0  0  0  0  0  0  0
  139.9555   71.9311  225.3328 H   0  0  0  0  0  0  0  0  0  0  0  0
  142.6211   75.8139  221.5369 H   0  0  0  0  0  0  0  0  0  0  0  0
  142.1935   74.5934  220.2730 H   0  0  0  0  0  0  0  0  0  0  0  0
  142.1777   76.9341  219.4285 H   0  0  0  0  0  0  0  0  0  0  0  0
  140.5811   76.0990  219.2967 H   0  0  0  0  0  0  0  0  0  0  0  0
  1  2  1  0
  2  3  1  0
  3  4  2  0
  3  5  1  0
  5  6  1  0
  6  7  2  0
  7  8  1  0
  8  9  2  0
  9 10  1  0
 10 11  2  0
  5 12  1  0
 12 13  1  0
 13 14  1  0
 14 15  1  0
 15 16  1  0
 16 17  2  0
 16 18  1  0
 18 19  1  0
 19 20  1  0
 19 21  1  0
 21 22  1  0
 22 23  1  0
 23 24  2  0
 24 25  1  0
 25 26  1  0
 26 27  2  0
 27 28  1  0
 28 29  2  0
 29 30  1  0
 30 31  2  0
 15 32  1  0
 32 33  1  0
 11  6  1  0
 33 12  1  0
 31 23  1  0
 31 26  1  0
  1 34  1  0
  1 35  1  0
  1 36  1  0
  2 37  1  0
  2 38  1  0
  7 39  1  0
  8 40  1  0
  9 41  1  0
 10 42  1  0
 11 43  1  0
 12 44  1  0
 13 45  1  0
 13 46  1  0
 14 47  1  0
 14 48  1  0
 18 49  1  0
 18 50  1  0
 19 51  1  6
 20 52  1  0
 20 53  1  0
 21 54  1  0
 21 55  1  0
 22 56  1  0
 22 57  1  0
 24 58  1  0
 25 59  1  0
 27 60  1  0
 28 61  1  0
 29 62  1  0
 30 63  1  0
 32 64  1  0
 32 65  1  0
 33 66  1  0
 33 67  1  0
M  END
>  <smiles>  (55) 
CCC(=O)N(c1ccccc1)C1CCN(C(=O)CC(N)CCc2c[nH]c3ccccc23)CC1

>  <score_type>  (55) 
oracle

>  <origin>  (55) 
autodockgpu

>  <m_score__min__energy>  (55) 
-9.5899999999999999

>  <m_primary>  (55) 
energy

>  <rmsd>  (55) 
11.319036834258121

>  <m_score__min__rmsd>  (55) 
11.319036834258121

>  <meeko>  (55) 
{"free_energy": -8.49, "intermolecular_energy": -11.47, "internal_energy": -2.15, "cluster_size": 27, "cluster_id": 1, "rank_in_cluster": 24}

>  <energy>  (55) 
-9.08

>  <cluster_rmsd>  (55) 
1.22

>  <cluster>  (55) 
1

$$$$

     RDKit          3D

 67 70  0  0  0  0  0  0  0  0999 V2000
  142.8990   80.6050  218.1580 C   0  0  0  0  0  0  0  0  0  0  0  0
  141.8480   79.5160  218.1280 C   0  0  0  0  0  0  0  0  0  0  0  0
  140.7820   79.8510  219.1150 C   0  0  0  0  0  0  0  0  0  0  0  0
  139.9930   80.7650  218.8100 O   0  0  0  0  0  0  0  0  0  0  0  0
  140.7210   79.1180  220.3390 N   0  0  0  0  0  0  0  0  0  0  0  0
  141.2550   79.6850  221.5530 C   0  0  0  0  0  0  0  0  0  0  0  0
  142.1420   78.9950  222.3510 C   0  0  0  0  0  0  0  0  0  0  0  0
  142.5910   79.6420  223.5000 C   0  0  0  0  0  0  0  0  0  0  0  0
  142.1640   80.9230  223.8280 C   0  0  0  0  0  0  0  0  0  0  0  0
  141.2760   81.5940  223.0170 C   0  0  0  0  0  0  0  0  0  0  0  0
  140.8270   80.9590  221.8760 C   0  0  0  0  0  0  0  0  0  0  0  0
  140.1340   77.8050  220.4140 C   0  0  0  0  0  0  0  0  0  0  0  0
  139.2180   77.6420  221.6310 C   0  0  0  0  0  0  0  0  0  0  0  0
  138.5880   76.2440  221.4740 C   0  0  0  0  0  0  0  0  0  0  0  0
  139.6250   75.2870  221.7450 N   0  0  0  0  0  0  0  0  0  0  0  0
  139.5010   73.9320  222.0710 C   0  0  0  0  0  0  0  0  0  0  0  0
  140.6420   73.3240  222.2740 O   0  0  0  0  0  0  0  0  0  0  0  0
  138.3580   73.0570  222.2320 C   0  0  0  0  0  0  0  0  0  0  0  0
  138.4990   71.5910  222.2240 C   0  0  1  0  0  0  0  0  0  0  0  0
  139.3920   71.0610  221.2170 N   0  0  0  0  0  0  0  0  0  0  0  0
  139.0850   71.1370  223.5660 C   0  0  0  0  0  0  0  0  0  0  0  0
  139.5870   69.7260  223.5610 C   0  0  0  0  0  0  0  0  0  0  0  0
  139.7240   69.3270  225.0250 C   0  0  0  0  0  0  0  0  0  0  0  0
  139.3940   68.1160  225.5830 C   0  0  0  0  0  0  0  0  0  0  0  0
  139.6850   68.2230  226.8930 N   0  0  0  0  0  0  0  0  0  0  0  0
  140.1800   69.4470  227.1690 C   0  0  0  0  0  0  0  0  0  0  0  0
  140.6250   70.0650  228.3240 C   0  0  0  0  0  0  0  0  0  0  0  0
  141.0970   71.3650  228.3360 C   0  0  0  0  0  0  0  0  0  0  0  0
  141.1320   72.0940  227.1480 C   0  0  0  0  0  0  0  0  0  0  0  0
  140.6870   71.4860  225.9760 C   0  0  0  0  0  0  0  0  0  0  0  0
  140.2200   70.1800  226.0000 C   0  0  0  0  0  0  0  0  0  0  0  0
  141.0070   75.8250  221.6570 C   0  0  0  0  0  0  0  0  0  0  0  0
  141.1730   76.6960  220.4350 C   0  0  0  0  0  0  0  0  0  0  0  0
  143.1393   80.8540  219.2022 H   0  0  0  0  0  0  0  0  0  0  0  0
  143.8070   80.2525  217.6468 H   0  0  0  0  0  0  0  0  0  0  0  0
  142.5145   81.4999  217.6468 H   0  0  0  0  0  0  0  0  0  0  0  0
  141.4118   79.4507  217.1203 H   0  0  0  0  0  0  0  0  0  0  0  0
  142.3044   78.5485  218.3842 H   0  0  0  0  0  0  0  0  0  0  0  0
  142.4797   77.9805  222.0925 H   0  0  0  0  0  0  0  0  0  0  0  0
  143.3007   79.1264  224.1637 H   0  0  0  0  0  0  0  0  0  0  0  0
  142.5384   81.4051  224.7431 H   0  0  0  0  0  0  0  0  0  0  0  0
  140.9338   82.6080  223.2712 H   0  0  0  0  0  0  0  0  0  0  0  0
  140.1171   81.4755  221.2133 H   0  0  0  0  0  0  0  0  0  0  0  0
  139.5351   77.7132  219.4959 H   0  0  0  0  0  0  0  0  0  0  0  0
  139.7995   77.7012  222.5629 H   0  0  0  0  0  0  0  0  0  0  0  0
  138.4565   78.4341  221.6831 H   0  0  0  0  0  0  0  0  0  0  0  0
  137.7614   76.1190  222.1889 H   0  0  0  0  0  0  0  0  0  0  0  0
  138.1800   76.1070  220.4617 H   0  0  0  0  0  0  0  0  0  0  0  0
  137.9016   73.3187  223.1980 H   0  0  0  0  0  0  0  0  0  0  0  0
  137.7887   73.2428  221.3093 H   0  0  0  0  0  0  0  0  0  0  0  0
  137.4852   71.2177  222.0169 H   0  0  0  0  0  0  0  0  0  0  0  0
  140.3370   71.4270  221.3000 H   0  0  0  0  0  0  0  0  0  0  0  0
  139.2900   70.0350  221.1920 H   0  0  0  0  0  0  0  0  0  0  0  0
  139.9231   71.8022  223.8210 H   0  0  0  0  0  0  0  0  0  0  0  0
  138.2701   71.1841  224.3033 H   0  0  0  0  0  0  0  0  0  0  0  0
  138.8701   69.0665  223.0501 H   0  0  0  0  0  0  0  0  0  0  0  0
  140.5450   69.6398  223.0273 H   0  0  0  0  0  0  0  0  0  0  0  0
  138.9776   67.2391  225.0657 H   0  0  0  0  0  0  0  0  0  0  0  0
  139.5560   67.4780  227.6210 H   0  0  0  0  0  0  0  0  0  0  0  0
  140.6026   69.5013  229.2683 H   0  0  0  0  0  0  0  0  0  0  0  0
  141.4422   71.8204  229.2759 H   0  0  0  0  0  0  0  0  0  0  0  0
  141.5038   73.1292  227.1362 H   0  0  0  0  0  0  0  0  0  0  0  0
  140.7061   72.0437  225.0281 H   0  0  0  0  0  0  0  0  0  0  0  0
  141.2180   76.4228  222.5559 H   0  0  0  0  0  0  0  0  0  0  0  0
  141.7074   74.9801  221.5823 H   0  0  0  0  0  0  0  0  0  0  0  0
  142.1776   77.1439  220.4458 H   0  0  0  0  0  0  0  0  0  0  0  0
  141.0398   76.0727  219.5385 H   0  0  0  0  0  0  0  0  0  0  0  0
  1  2  1  0
  2  3  1  0
  3  4  2  0
  3  5  1  0
  5  6  1  0
  6  7  2  0
  7  8  1  0
  8  9  2  0
  9 10  1  0
 10 11  2  0
  5 12  1  0
 12 13  1  0
 13 14  1  0
 14 15  1  0
 15 16  1  0
 16 17  2  0
 16 18  1  0
 18 19  1  0
 19 20  1  0
 19 21  1  0
 21 22  1  0
 22 23  1  0
 23 24  2  0
 24 25  1  0
 25 26  1  0
 26 27  2  0
 27 28  1  0
 28 29  2  0
 29 30  1  0
 30 31  2  0
 15 32  1  0
 32 33  1  0
 11  6  1  0
 33 12  1  0
 31 23  1  0
 31 26  1  0
  1 34  1  0
  1 35  1  0
  1 36  1  0
  2 37  1  0
  2 38  1  0
  7 39  1  0
  8 40  1  0
  9 41  1  0
 10 42  1  0
 11 43  1  0
 12 44  1  0
 13 45  1  0
 13 46  1  0
 14 47  1  0
 14 48  1  0
 18 49  1  0
 18 50  1  0
 19 51  1  6
 20 52  1  0
 20 53  1  0
 21 54  1  0
 21 55  1  0
 22 56  1  0
 22 57  1  0
 24 58  1  0
 25 59  1  0
 27 60  1  0
 28 61  1  0
 29 62  1  0
 30 63  1  0
 32 64  1  0
 32 65  1  0
 33 66  1  0
 33 67  1  0
M  END
>  <smiles>  (56) 
CCC(=O)N(c1ccccc1)C1CCN(C(=O)CC(N)CCc2c[nH]c3ccccc23)CC1

>  <score_type>  (56) 
oracle

>  <origin>  (56) 
autodockgpu

>  <m_score__min__energy>  (56) 
-9.5899999999999999

>  <m_primary>  (56) 
energy

>  <rmsd>  (56) 
10.9633055749395

>  <m_score__min__rmsd>  (56) 
10.9633055749395

>  <meeko>  (56) 
{"free_energy": -8.68, "intermolecular_energy": -11.66, "internal_energy": -1.89, "cluster_size": 27, "cluster_id": 1, "rank_in_cluster": 18}

>  <energy>  (56) 
-9.05

>  <cluster_rmsd>  (56) 
1.26

>  <cluster>  (56) 
1

$$$$

     RDKit          3D

 67 70  0  0  0  0  0  0  0  0999 V2000
  144.0360   74.0230  218.1300 C   0  0  0  0  0  0  0  0  0  0  0  0
  144.5900   72.6950  217.6590 C   0  0  0  0  0  0  0  0  0  0  0  0
  145.1760   71.9780  218.8270 C   0  0  0  0  0  0  0  0  0  0  0  0
  146.1940   72.4740  219.3460 O   0  0  0  0  0  0  0  0  0  0  0  0
  144.5510   70.7770  219.2830 N   0  0  0  0  0  0  0  0  0  0  0  0
  145.0970   69.4910  218.9250 C   0  0  0  0  0  0  0  0  0  0  0  0
  145.8440   69.3090  217.7810 C   0  0  0  0  0  0  0  0  0  0  0  0
  146.3210   68.0230  217.5370 C   0  0  0  0  0  0  0  0  0  0  0  0
  146.0560   66.9720  218.4060 C   0  0  0  0  0  0  0  0  0  0  0  0
  145.3080   67.1770  219.5450 C   0  0  0  0  0  0  0  0  0  0  0  0
  144.8320   68.4490  219.7930 C   0  0  0  0  0  0  0  0  0  0  0  0
  143.3700   70.7980  220.1050 C   0  0  0  0  0  0  0  0  0  0  0  0
  142.0800   70.8600  219.2790 C   0  0  0  0  0  0  0  0  0  0  0  0
  140.9390   70.7420  220.3080 C   0  0  0  0  0  0  0  0  0  0  0  0
  140.8970   71.9850  221.0280 N   0  0  0  0  0  0  0  0  0  0  0  0
  139.8570   72.5110  221.8020 C   0  0  0  0  0  0  0  0  0  0  0  0
  140.1210   73.6810  222.3260 O   0  0  0  0  0  0  0  0  0  0  0  0
  138.5390   72.0220  222.1460 C   0  0  0  0  0  0  0  0  0  0  0  0
  138.2290   71.5150  223.4930 C   0  0  1  0  0  0  0  0  0  0  0  0
  136.9440   71.9160  224.0240 N   0  0  0  0  0  0  0  0  0  0  0  0
  138.1940   69.9830  223.4570 C   0  0  0  0  0  0  0  0  0  0  0  0
  139.5430   69.3430  223.5700 C   0  0  0  0  0  0  0  0  0  0  0  0
  139.7280   69.0170  225.0460 C   0  0  0  0  0  0  0  0  0  0  0  0
  139.4640   67.8190  225.6650 C   0  0  0  0  0  0  0  0  0  0  0  0
  139.7770   67.9980  226.9620 N   0  0  0  0  0  0  0  0  0  0  0  0
  140.2220   69.2530  227.1730 C   0  0  0  0  0  0  0  0  0  0  0  0
  140.6630   69.9420  228.2890 C   0  0  0  0  0  0  0  0  0  0  0  0
  141.0770   71.2610  228.2330 C   0  0  0  0  0  0  0  0  0  0  0  0
  141.0540   71.9360  227.0130 C   0  0  0  0  0  0  0  0  0  0  0  0
  140.6130   71.2570  225.8800 C   0  0  0  0  0  0  0  0  0  0  0  0
  140.2050   69.9340  225.9720 C   0  0  0  0  0  0  0  0  0  0  0  0
  142.1330   72.8020  220.9300 C   0  0  0  0  0  0  0  0  0  0  0  0
  143.3650   71.9460  221.1010 C   0  0  0  0  0  0  0  0  0  0  0  0
  144.0260   74.0468  219.2297 H   0  0  0  0  0  0  0  0  0  0  0  0
  144.6686   74.8393  217.7513 H   0  0  0  0  0  0  0  0  0  0  0  0
  143.0108   74.1477  217.7513 H   0  0  0  0  0  0  0  0  0  0  0  0
  143.7811   72.0909  217.2221 H   0  0  0  0  0  0  0  0  0  0  0  0
  145.3645   72.8624  216.8960 H   0  0  0  0  0  0  0  0  0  0  0  0
  146.0538   70.1408  217.0925 H   0  0  0  0  0  0  0  0  0  0  0  0
  146.9217   67.8353  216.6348 H   0  0  0  0  0  0  0  0  0  0  0  0
  146.4464   65.9681  218.1831 H   0  0  0  0  0  0  0  0  0  0  0  0
  145.0959   66.3495  220.2380 H   0  0  0  0  0  0  0  0  0  0  0  0
  144.2322   68.6360  220.6960 H   0  0  0  0  0  0  0  0  0  0  0  0
  143.3993   69.8476  220.6581 H   0  0  0  0  0  0  0  0  0  0  0  0
  142.0140   71.8148  218.7369 H   0  0  0  0  0  0  0  0  0  0  0  0
  142.0365   70.0632  218.5219 H   0  0  0  0  0  0  0  0  0  0  0  0
  139.9819   70.5701  219.7937 H   0  0  0  0  0  0  0  0  0  0  0  0
  141.1100   69.8967  220.9908 H   0  0  0  0  0  0  0  0  0  0  0  0
  137.8426   72.8530  221.9604 H   0  0  0  0  0  0  0  0  0  0  0  0
  138.4578   71.1144  221.5298 H   0  0  0  0  0  0  0  0  0  0  0  0
  139.0153   71.9394  224.1346 H   0  0  0  0  0  0  0  0  0  0  0  0
  136.6290   71.3140  224.7810 H   0  0  0  0  0  0  0  0  0  0  0  0
  136.9660   72.9300  224.2140 H   0  0  0  0  0  0  0  0  0  0  0  0
  137.5723   69.6309  224.2934 H   0  0  0  0  0  0  0  0  0  0  0  0
  137.7851   69.6957  222.4771 H   0  0  0  0  0  0  0  0  0  0  0  0
  139.5820   68.4236  222.9673 H   0  0  0  0  0  0  0  0  0  0  0  0
  140.3377   70.0079  223.2006 H   0  0  0  0  0  0  0  0  0  0  0  0
  139.0765   66.9021  225.1969 H   0  0  0  0  0  0  0  0  0  0  0  0
  139.6960   67.2810  227.7250 H   0  0  0  0  0  0  0  0  0  0  0  0
  140.6853   69.4212  229.2577 H   0  0  0  0  0  0  0  0  0  0  0  0
  141.4215   71.7731  229.1435 H   0  0  0  0  0  0  0  0  0  0  0  0
  141.3781   72.9851  226.9468 H   0  0  0  0  0  0  0  0  0  0  0  0
  140.5880   71.7716  224.9081 H   0  0  0  0  0  0  0  0  0  0  0  0
  142.1662   73.2864  219.9430 H   0  0  0  0  0  0  0  0  0  0  0  0
  142.1177   73.5564  221.7304 H   0  0  0  0  0  0  0  0  0  0  0  0
  144.2594   72.5659  220.9406 H   0  0  0  0  0  0  0  0  0  0  0  0
  143.3645   71.5285  222.1187 H   0  0  0  0  0  0  0  0  0  0  0  0
  1  2  1  0
  2  3  1  0
  3  4  2  0
  3  5  1  0
  5  6  1  0
  6  7  2  0
  7  8  1  0
  8  9  2  0
  9 10  1  0
 10 11  2  0
  5 12  1  0
 12 13  1  0
 13 14  1  0
 14 15  1  0
 15 16  1  0
 16 17  2  0
 16 18  1  0
 18 19  1  0
 19 20  1  0
 19 21  1  0
 21 22  1  0
 22 23  1  0
 23 24  2  0
 24 25  1  0
 25 26  1  0
 26 27  2  0
 27 28  1  0
 28 29  2  0
 29 30  1  0
 30 31  2  0
 15 32  1  0
 32 33  1  0
 11  6  1  0
 33 12  1  0
 31 23  1  0
 31 26  1  0
  1 34  1  0
  1 35  1  0
  1 36  1  0
  2 37  1  0
  2 38  1  0
  7 39  1  0
  8 40  1  0
  9 41  1  0
 10 42  1  0
 11 43  1  0
 12 44  1  0
 13 45  1  0
 13 46  1  0
 14 47  1  0
 14 48  1  0
 18 49  1  0
 18 50  1  0
 19 51  1  1
 20 52  1  0
 20 53  1  0
 21 54  1  0
 21 55  1  0
 22 56  1  0
 22 57  1  0
 24 58  1  0
 25 59  1  0
 27 60  1  0
 28 61  1  0
 29 62  1  0
 30 63  1  0
 32 64  1  0
 32 65  1  0
 33 66  1  0
 33 67  1  0
M  END
>  <smiles>  (57) 
CCC(=O)N(c1ccccc1)C1CCN(C(=O)CC(N)CCc2c[nH]c3ccccc23)CC1

>  <score_type>  (57) 
oracle

>  <origin>  (57) 
autodockgpu

>  <m_score__min__energy>  (57) 
-9.5899999999999999

>  <m_primary>  (57) 
energy

>  <rmsd>  (57) 
11.376355859839352

>  <m_score__min__rmsd>  (57) 
11.376355859839352

>  <meeko>  (57) 
{"free_energy": -9.1, "intermolecular_energy": -12.08, "internal_energy": -1.98, "cluster_size": 4, "cluster_id": 3, "rank_in_cluster": 3}

>  <energy>  (57) 
-9.03

>  <cluster_rmsd>  (57) 
1.02

>  <cluster>  (57) 
1

$$$$

     RDKit          3D

 67 70  0  0  0  0  0  0  0  0999 V2000
  139.1540   81.6840  220.9930 C   0  0  0  0  0  0  0  0  0  0  0  0
  138.2800   80.4620  221.1790 C   0  0  0  0  0  0  0  0  0  0  0  0
  138.5370   79.8880  222.5300 C   0  0  0  0  0  0  0  0  0  0  0  0
  137.7250   80.1720  223.4310 O   0  0  0  0  0  0  0  0  0  0  0  0
  139.6810   79.0550  222.7200 N   0  0  0  0  0  0  0  0  0  0  0  0
  140.9680   79.6420  223.0030 C   0  0  0  0  0  0  0  0  0  0  0  0
  142.1380   79.1080  222.5070 C   0  0  0  0  0  0  0  0  0  0  0  0
  143.3220   79.7590  222.8460 C   0  0  0  0  0  0  0  0  0  0  0  0
  143.3250   80.8920  223.6490 C   0  0  0  0  0  0  0  0  0  0  0  0
  142.1440   81.4090  224.1340 C   0  0  0  0  0  0  0  0  0  0  0  0
  140.9670   80.7700  223.8020 C   0  0  0  0  0  0  0  0  0  0  0  0
  139.6020   77.6200  222.6380 C   0  0  0  0  0  0  0  0  0  0  0  0
  140.0890   77.0820  221.2890 C   0  0  0  0  0  0  0  0  0  0  0  0
  140.0560   75.5480  221.4340 C   0  0  0  0  0  0  0  0  0  0  0  0
  138.6730   75.1580  221.4340 N   0  0  0  0  0  0  0  0  0  0  0  0
  138.1210   73.8950  221.1950 C   0  0  0  0  0  0  0  0  0  0  0  0
  136.8140   73.8640  221.2550 O   0  0  0  0  0  0  0  0  0  0  0  0
  138.7040   72.6050  220.8940 C   0  0  0  0  0  0  0  0  0  0  0  0
  139.7570   72.0160  221.7370 C   0  0  1  0  0  0  0  0  0  0  0  0
  140.3240   72.9040  222.7290 N   0  0  0  0  0  0  0  0  0  0  0  0
  139.1690   70.8440  222.5300 C   0  0  0  0  0  0  0  0  0  0  0  0
  138.9020   71.1580  223.9700 C   0  0  0  0  0  0  0  0  0  0  0  0
  139.2910   69.9080  224.7480 C   0  0  0  0  0  0  0  0  0  0  0  0
  139.0710   68.6030  224.3770 C   0  0  0  0  0  0  0  0  0  0  0  0
  139.5810   67.8480  225.3670 N   0  0  0  0  0  0  0  0  0  0  0  0
  140.1060   68.6270  226.3340 C   0  0  0  0  0  0  0  0  0  0  0  0
  140.7380   68.3690  227.5380 C   0  0  0  0  0  0  0  0  0  0  0  0
  141.1950   69.3770  228.3680 C   0  0  0  0  0  0  0  0  0  0  0  0
  141.0200   70.7080  227.9920 C   0  0  0  0  0  0  0  0  0  0  0  0
  140.3860   70.9850  226.7820 C   0  0  0  0  0  0  0  0  0  0  0  0
  139.9400   69.9490  225.9740 C   0  0  0  0  0  0  0  0  0  0  0  0
  137.7190   76.2560  221.7340 C   0  0  0  0  0  0  0  0  0  0  0  0
  138.2010   77.0920  222.8960 C   0  0  0  0  0  0  0  0  0  0  0  0
  139.4398   82.0836  221.9772 H   0  0  0  0  0  0  0  0  0  0  0  0
  140.0592   81.4057  220.4333 H   0  0  0  0  0  0  0  0  0  0  0  0
  138.5981   82.4506  220.4333 H   0  0  0  0  0  0  0  0  0  0  0  0
  137.2213   80.7485  221.0945 H   0  0  0  0  0  0  0  0  0  0  0  0
  138.5127   79.7152  220.4056 H   0  0  0  0  0  0  0  0  0  0  0  0
  142.1368   78.2093  221.8728 H   0  0  0  0  0  0  0  0  0  0  0  0
  144.2776   79.3661  222.4685 H   0  0  0  0  0  0  0  0  0  0  0  0
  144.2781   81.3805  223.8998 H   0  0  0  0  0  0  0  0  0  0  0  0
  142.1393   82.3072  224.7690 H   0  0  0  0  0  0  0  0  0  0  0  0
  140.0121   81.1647  224.1794 H   0  0  0  0  0  0  0  0  0  0  0  0
  140.2701   77.2575  223.4332 H   0  0  0  0  0  0  0  0  0  0  0  0
  139.4201   77.4080  220.4789 H   0  0  0  0  0  0  0  0  0  0  0  0
  141.0940   77.4509  221.0363 H   0  0  0  0  0  0  0  0  0  0  0  0
  140.5818   75.0770  220.5904 H   0  0  0  0  0  0  0  0  0  0  0  0
  140.5547   75.2295  222.3613 H   0  0  0  0  0  0  0  0  0  0  0  0
  137.8733   71.8840  220.8880 H   0  0  0  0  0  0  0  0  0  0  0  0
  139.2404   72.8041  219.9545 H   0  0  0  0  0  0  0  0  0  0  0  0
  140.5513   71.7364  221.0292 H   0  0  0  0  0  0  0  0  0  0  0  0
  141.1690   73.3650  222.4040 H   0  0  0  0  0  0  0  0  0  0  0  0
  139.5740   73.5090  223.0980 H   0  0  0  0  0  0  0  0  0  0  0  0
  138.2202   70.5482  222.0584 H   0  0  0  0  0  0  0  0  0  0  0  0
  139.9186   70.0391  222.5127 H   0  0  0  0  0  0  0  0  0  0  0  0
  139.5103   72.0153  224.2940 H   0  0  0  0  0  0  0  0  0  0  0  0
  137.8483   71.4261  224.1366 H   0  0  0  0  0  0  0  0  0  0  0  0
  138.5790   68.2486  223.4592 H   0  0  0  0  0  0  0  0  0  0  0  0
  139.5840   66.7990  225.4090 H   0  0  0  0  0  0  0  0  0  0  0  0
  140.8824   67.3231  227.8465 H   0  0  0  0  0  0  0  0  0  0  0  0
  141.6927   69.1302  229.3174 H   0  0  0  0  0  0  0  0  0  0  0  0
  141.3756   71.5242  228.6381 H   0  0  0  0  0  0  0  0  0  0  0  0
  140.2388   72.0285  226.4666 H   0  0  0  0  0  0  0  0  0  0  0  0
  137.6193   76.8980  220.8463 H   0  0  0  0  0  0  0  0  0  0  0  0
  136.7484   75.8126  222.0011 H   0  0  0  0  0  0  0  0  0  0  0  0
  137.5162   77.9412  223.0376 H   0  0  0  0  0  0  0  0  0  0  0  0
  138.2227   76.4623  223.7976 H   0  0  0  0  0  0  0  0  0  0  0  0
  1  2  1  0
  2  3  1  0
  3  4  2  0
  3  5  1  0
  5  6  1  0
  6  7  2  0
  7  8  1  0
  8  9  2  0
  9 10  1  0
 10 11  2  0
  5 12  1  0
 12 13  1  0
 13 14  1  0
 14 15  1  0
 15 16  1  0
 16 17  2  0
 16 18  1  0
 18 19  1  0
 19 20  1  0
 19 21  1  0
 21 22  1  0
 22 23  1  0
 23 24  2  0
 24 25  1  0
 25 26  1  0
 26 27  2  0
 27 28  1  0
 28 29  2  0
 29 30  1  0
 30 31  2  0
 15 32  1  0
 32 33  1  0
 11  6  1  0
 33 12  1  0
 31 23  1  0
 31 26  1  0
  1 34  1  0
  1 35  1  0
  1 36  1  0
  2 37  1  0
  2 38  1  0
  7 39  1  0
  8 40  1  0
  9 41  1  0
 10 42  1  0
 11 43  1  0
 12 44  1  0
 13 45  1  0
 13 46  1  0
 14 47  1  0
 14 48  1  0
 18 49  1  0
 18 50  1  0
 19 51  1  6
 20 52  1  0
 20 53  1  0
 21 54  1  0
 21 55  1  0
 22 56  1  0
 22 57  1  0
 24 58  1  0
 25 59  1  0
 27 60  1  0
 28 61  1  0
 29 62  1  0
 30 63  1  0
 32 64  1  0
 32 65  1  0
 33 66  1  0
 33 67  1  0
M  END
>  <smiles>  (58) 
CCC(=O)N(c1ccccc1)C1CCN(C(=O)CC(N)CCc2c[nH]c3ccccc23)CC1

>  <score_type>  (58) 
oracle

>  <origin>  (58) 
autodockgpu

>  <m_score__min__energy>  (58) 
-9.5899999999999999

>  <m_primary>  (58) 
energy

>  <rmsd>  (58) 
11.177286703305606

>  <m_score__min__rmsd>  (58) 
11.177286703305606

>  <meeko>  (58) 
{"free_energy": -8.41, "intermolecular_energy": -11.39, "internal_energy": -1.47, "cluster_size": 27, "cluster_id": 1, "rank_in_cluster": 25}

>  <energy>  (58) 
-9.01

>  <cluster_rmsd>  (58) 
1.65

>  <cluster>  (58) 
1

$$$$

     RDKit          3D

 67 70  0  0  0  0  0  0  0  0999 V2000
  140.7740   80.8440  218.5830 C   0  0  0  0  0  0  0  0  0  0  0  0
  142.1600   80.3320  218.9150 C   0  0  0  0  0  0  0  0  0  0  0  0
  142.0650   78.8900  219.2810 C   0  0  0  0  0  0  0  0  0  0  0  0
  142.6030   78.0730  218.5110 O   0  0  0  0  0  0  0  0  0  0  0  0
  141.3720   78.5270  220.4760 N   0  0  0  0  0  0  0  0  0  0  0  0
  141.4020   79.3960  221.6270 C   0  0  0  0  0  0  0  0  0  0  0  0
  140.3080   80.1460  222.0020 C   0  0  0  0  0  0  0  0  0  0  0  0
  140.4520   80.9500  223.1310 C   0  0  0  0  0  0  0  0  0  0  0  0
  141.6420   80.9940  223.8450 C   0  0  0  0  0  0  0  0  0  0  0  0
  142.7230   80.2360  223.4530 C   0  0  0  0  0  0  0  0  0  0  0  0
  142.5880   79.4370  222.3350 C   0  0  0  0  0  0  0  0  0  0  0  0
  140.6270   77.3000  220.5820 C   0  0  0  0  0  0  0  0  0  0  0  0
  140.0330   77.0940  221.9800 C   0  0  0  0  0  0  0  0  0  0  0  0
  139.1750   75.8190  221.8670 C   0  0  0  0  0  0  0  0  0  0  0  0
  140.0850   74.7120  221.7600 N   0  0  0  0  0  0  0  0  0  0  0  0
  139.8380   73.3530  221.9790 C   0  0  0  0  0  0  0  0  0  0  0  0
  140.8850   72.5860  221.8100 O   0  0  0  0  0  0  0  0  0  0  0  0
  138.6520   72.6140  222.3570 C   0  0  0  0  0  0  0  0  0  0  0  0
  138.5770   71.1500  222.2240 C   0  0  1  0  0  0  0  0  0  0  0  0
  139.7070   70.5300  221.5680 N   0  0  0  0  0  0  0  0  0  0  0  0
  138.5230   70.5210  223.6210 C   0  0  0  0  0  0  0  0  0  0  0  0
  139.2070   69.1930  223.7150 C   0  0  0  0  0  0  0  0  0  0  0  0
  139.4660   68.9610  225.1980 C   0  0  0  0  0  0  0  0  0  0  0  0
  139.2000   67.8180  225.9130 C   0  0  0  0  0  0  0  0  0  0  0  0
  139.5920   68.0730  227.1750 N   0  0  0  0  0  0  0  0  0  0  0  0
  140.0890   69.3230  227.2720 C   0  0  0  0  0  0  0  0  0  0  0  0
  140.6150   70.0690  228.3120 C   0  0  0  0  0  0  0  0  0  0  0  0
  141.0680   71.3650  228.1420 C   0  0  0  0  0  0  0  0  0  0  0  0
  140.9970   71.9570  226.8810 C   0  0  0  0  0  0  0  0  0  0  0  0
  140.4700   71.2190  225.8230 C   0  0  0  0  0  0  0  0  0  0  0  0
  140.0250   69.9210  226.0300 C   0  0  0  0  0  0  0  0  0  0  0  0
  141.4660   75.0800  221.3550 C   0  0  0  0  0  0  0  0  0  0  0  0
  141.4520   76.0760  220.2200 C   0  0  0  0  0  0  0  0  0  0  0  0
  140.2251   81.0468  219.5145 H   0  0  0  0  0  0  0  0  0  0  0  0
  140.8563   81.7711  217.9967 H   0  0  0  0  0  0  0  0  0  0  0  0
  140.2338   80.0861  217.9967 H   0  0  0  0  0  0  0  0  0  0  0  0
  142.8166   80.4488  218.0402 H   0  0  0  0  0  0  0  0  0  0  0  0
  142.5780   80.9042  219.7563 H   0  0  0  0  0  0  0  0  0  0  0  0
  139.3652   80.1115  221.4364 H   0  0  0  0  0  0  0  0  0  0  0  0
  139.6027   81.5644  223.4645 H   0  0  0  0  0  0  0  0  0  0  0  0
  141.7221   81.6401  224.7317 H   0  0  0  0  0  0  0  0  0  0  0  0
  143.6680   80.2663  224.0151 H   0  0  0  0  0  0  0  0  0  0  0  0
  143.4382   78.8232  222.0026 H   0  0  0  0  0  0  0  0  0  0  0  0
  139.8099   77.4060  219.8532 H   0  0  0  0  0  0  0  0  0  0  0  0
  140.8325   76.9570  222.7230 H   0  0  0  0  0  0  0  0  0  0  0  0
  139.4416   77.9613  222.3087 H   0  0  0  0  0  0  0  0  0  0  0  0
  138.5455   75.7061  222.7619 H   0  0  0  0  0  0  0  0  0  0  0  0
  138.5099   75.8681  220.9922 H   0  0  0  0  0  0  0  0  0  0  0  0
  138.4738   72.8375  223.4192 H   0  0  0  0  0  0  0  0  0  0  0  0
  137.9171   72.9544  221.6126 H   0  0  0  0  0  0  0  0  0  0  0  0
  137.6821   70.9753  221.6087 H   0  0  0  0  0  0  0  0  0  0  0  0
  139.9130   70.9490  220.6650 H   0  0  0  0  0  0  0  0  0  0  0  0
  140.4870   70.4660  222.2420 H   0  0  0  0  0  0  0  0  0  0  0  0
  139.0054   71.2100  224.3299 H   0  0  0  0  0  0  0  0  0  0  0  0
  137.4615   70.3506  223.8536 H   0  0  0  0  0  0  0  0  0  0  0  0
  138.5605   68.4001  223.3109 H   0  0  0  0  0  0  0  0  0  0  0  0
  140.1413   69.1779  223.1346 H   0  0  0  0  0  0  0  0  0  0  0  0
  138.7574   66.8858  225.5320 H   0  0  0  0  0  0  0  0  0  0  0  0
  139.5320   67.4130  227.9890 H   0  0  0  0  0  0  0  0  0  0  0  0
  140.6752   69.6143  229.3118 H   0  0  0  0  0  0  0  0  0  0  0  0
  141.4809   71.9242  228.9945 H   0  0  0  0  0  0  0  0  0  0  0  0
  141.3503   72.9869  226.7247 H   0  0  0  0  0  0  0  0  0  0  0  0
  140.4065   71.6669  224.8203 H   0  0  0  0  0  0  0  0  0  0  0  0
  141.9868   75.5239  222.2162 H   0  0  0  0  0  0  0  0  0  0  0  0
  141.9849   74.1712  221.0162 H   0  0  0  0  0  0  0  0  0  0  0  0
  142.4840   76.3888  220.0027 H   0  0  0  0  0  0  0  0  0  0  0  0
  141.0016   75.5971  219.3381 H   0  0  0  0  0  0  0  0  0  0  0  0
  1  2  1  0
  2  3  1  0
  3  4  2  0
  3  5  1  0
  5  6  1  0
  6  7  2  0
  7  8  1  0
  8  9  2  0
  9 10  1  0
 10 11  2  0
  5 12  1  0
 12 13  1  0
 13 14  1  0
 14 15  1  0
 15 16  1  0
 16 17  2  0
 16 18  1  0
 18 19  1  0
 19 20  1  0
 19 21  1  0
 21 22  1  0
 22 23  1  0
 23 24  2  0
 24 25  1  0
 25 26  1  0
 26 27  2  0
 27 28  1  0
 28 29  2  0
 29 30  1  0
 30 31  2  0
 15 32  1  0
 32 33  1  0
 11  6  1  0
 33 12  1  0
 31 23  1  0
 31 26  1  0
  1 34  1  0
  1 35  1  0
  1 36  1  0
  2 37  1  0
  2 38  1  0
  7 39  1  0
  8 40  1  0
  9 41  1  0
 10 42  1  0
 11 43  1  0
 12 44  1  0
 13 45  1  0
 13 46  1  0
 14 47  1  0
 14 48  1  0
 18 49  1  0
 18 50  1  0
 19 51  1  6
 20 52  1  0
 20 53  1  0
 21 54  1  0
 21 55  1  0
 22 56  1  0
 22 57  1  0
 24 58  1  0
 25 59  1  0
 27 60  1  0
 28 61  1  0
 29 62  1  0
 30 63  1  0
 32 64  1  0
 32 65  1  0
 33 66  1  0
 33 67  1  0
M  END
>  <smiles>  (59) 
CCC(=O)N(c1ccccc1)C1CCN(C(=O)CC(N)CCc2c[nH]c3ccccc23)CC1

>  <score_type>  (59) 
oracle

>  <origin>  (59) 
autodockgpu

>  <m_score__min__energy>  (59) 
-9.5899999999999999

>  <m_primary>  (59) 
energy

>  <rmsd>  (59) 
11.228143328505388

>  <m_score__min__rmsd>  (59) 
11.228143328505388

>  <meeko>  (59) 
{"free_energy": -8.74, "intermolecular_energy": -11.72, "internal_energy": -2.21, "cluster_size": 27, "cluster_id": 1, "rank_in_cluster": 16}

>  <energy>  (59) 
-8.99

>  <cluster_rmsd>  (59) 
1.59

>  <cluster>  (59) 
1

$$$$

     RDKit          3D

 67 70  0  0  0  0  0  0  0  0999 V2000
  142.5660   76.6510  217.9970 C   0  0  0  0  0  0  0  0  0  0  0  0
  142.5350   77.8320  218.9440 C   0  0  0  0  0  0  0  0  0  0  0  0
  141.2230   77.8470  219.6510 C   0  0  0  0  0  0  0  0  0  0  0  0
  140.2160   78.1250  218.9720 O   0  0  0  0  0  0  0  0  0  0  0  0
  141.1890   77.5480  221.0470 N   0  0  0  0  0  0  0  0  0  0  0  0
  141.5250   78.5610  222.0170 C   0  0  0  0  0  0  0  0  0  0  0  0
  141.5200   78.3040  223.3710 C   0  0  0  0  0  0  0  0  0  0  0  0
  141.8620   79.3590  224.2140 C   0  0  0  0  0  0  0  0  0  0  0  0
  142.1910   80.6120  223.7140 C   0  0  0  0  0  0  0  0  0  0  0  0
  142.1900   80.8480  222.3570 C   0  0  0  0  0  0  0  0  0  0  0  0
  141.8520   79.8060  221.5150 C   0  0  0  0  0  0  0  0  0  0  0  0
  140.8230   76.2450  221.5390 C   0  0  0  0  0  0  0  0  0  0  0  0
  141.6070   75.1190  220.8560 C   0  0  0  0  0  0  0  0  0  0  0  0
  141.1830   73.8330  221.5920 C   0  0  0  0  0  0  0  0  0  0  0  0
  139.8330   73.5480  221.1900 N   0  0  0  0  0  0  0  0  0  0  0  0
  139.1270   72.3450  221.2910 C   0  0  0  0  0  0  0  0  0  0  0  0
  137.9060   72.4010  220.8220 O   0  0  0  0  0  0  0  0  0  0  0  0
  139.4720   71.0390  221.8120 C   0  0  0  0  0  0  0  0  0  0  0  0
  138.7780   70.4620  222.9760 C   0  0  1  0  0  0  0  0  0  0  0  0
  139.1390   69.0990  223.2970 N   0  0  0  0  0  0  0  0  0  0  0  0
  139.1260   71.2800  224.2240 C   0  0  0  0  0  0  0  0  0  0  0  0
  140.5970   71.4540  224.4450 C   0  0  0  0  0  0  0  0  0  0  0  0
  140.8240   71.2400  225.9350 C   0  0  0  0  0  0  0  0  0  0  0  0
  141.0270   72.2110  226.8860 C   0  0  0  0  0  0  0  0  0  0  0  0
  141.1780   71.5570  228.0530 N   0  0  0  0  0  0  0  0  0  0  0  0
  141.0780   70.2260  227.8660 C   0  0  0  0  0  0  0  0  0  0  0  0
  141.1540   69.1290  228.7070 C   0  0  0  0  0  0  0  0  0  0  0  0
  141.0120   67.8320  228.2500 C   0  0  0  0  0  0  0  0  0  0  0  0
  140.7840   67.6030  226.8930 C   0  0  0  0  0  0  0  0  0  0  0  0
  140.7040   68.6960  226.0330 C   0  0  0  0  0  0  0  0  0  0  0  0
  140.8520   69.9850  226.5260 C   0  0  0  0  0  0  0  0  0  0  0  0
  139.1050   74.6990  220.5970 C   0  0  0  0  0  0  0  0  0  0  0  0
  139.3360   75.9580  221.3970 C   0  0  0  0  0  0  0  0  0  0  0  0
  142.5905   75.7166  218.5769 H   0  0  0  0  0  0  0  0  0  0  0  0
  141.6672   76.6657  217.3631 H   0  0  0  0  0  0  0  0  0  0  0  0
  143.4628   76.7128  217.3631 H   0  0  0  0  0  0  0  0  0  0  0  0
  143.3492   77.7389  219.6777 H   0  0  0  0  0  0  0  0  0  0  0  0
  142.6659   78.7670  218.3795 H   0  0  0  0  0  0  0  0  0  0  0  0
  141.2582   77.3120  223.7676 H   0  0  0  0  0  0  0  0  0  0  0  0
  141.8717   79.1956  225.3018 H   0  0  0  0  0  0  0  0  0  0  0  0
  142.4548   81.4236  224.4081 H   0  0  0  0  0  0  0  0  0  0  0  0
  142.4509   81.8381  221.9550 H   0  0  0  0  0  0  0  0  0  0  0  0
  141.8431   79.9703  220.4274 H   0  0  0  0  0  0  0  0  0  0  0  0
  141.0803   76.2675  222.6082 H   0  0  0  0  0  0  0  0  0  0  0  0
  141.3454   75.0579  219.7893 H   0  0  0  0  0  0  0  0  0  0  0  0
  142.6935   75.2837  220.9054 H   0  0  0  0  0  0  0  0  0  0  0  0
  141.8451   73.0006  221.3112 H   0  0  0  0  0  0  0  0  0  0  0  0
  141.2502   73.9628  222.6822 H   0  0  0  0  0  0  0  0  0  0  0  0
  139.3308   70.3285  220.9842 H   0  0  0  0  0  0  0  0  0  0  0  0
  140.4872   71.2033  222.2023 H   0  0  0  0  0  0  0  0  0  0  0  0
  137.7135   70.4810  222.6995 H   0  0  0  0  0  0  0  0  0  0  0  0
  138.7710   68.4280  222.6270 H   0  0  0  0  0  0  0  0  0  0  0  0
  140.1530   69.0610  223.4870 H   0  0  0  0  0  0  0  0  0  0  0  0
  138.6707   72.2763  224.1231 H   0  0  0  0  0  0  0  0  0  0  0  0
  138.7368   70.7234  225.0893 H   0  0  0  0  0  0  0  0  0  0  0  0
  141.1618   70.7120  223.8616 H   0  0  0  0  0  0  0  0  0  0  0  0
  140.9385   72.4490  224.1236 H   0  0  0  0  0  0  0  0  0  0  0  0
  141.0594   73.2989  226.7265 H   0  0  0  0  0  0  0  0  0  0  0  0
  141.3510   71.9950  228.9920 H   0  0  0  0  0  0  0  0  0  0  0  0
  141.3342   69.2956  229.7793 H   0  0  0  0  0  0  0  0  0  0  0  0
  141.0783   66.9870  228.9511 H   0  0  0  0  0  0  0  0  0  0  0  0
  140.6695   66.5785  226.5092 H   0  0  0  0  0  0  0  0  0  0  0  0
  140.5229   68.5370  224.9597 H   0  0  0  0  0  0  0  0  0  0  0  0
  139.4599   74.8570  219.5679 H   0  0  0  0  0  0  0  0  0  0  0  0
  138.0285   74.4729  220.6041 H   0  0  0  0  0  0  0  0  0  0  0  0
  138.8531   76.8036  220.8854 H   0  0  0  0  0  0  0  0  0  0  0  0
  138.9069   75.8207  222.4005 H   0  0  0  0  0  0  0  0  0  0  0  0
  1  2  1  0
  2  3  1  0
  3  4  2  0
  3  5  1  0
  5  6  1  0
  6  7  2  0
  7  8  1  0
  8  9  2  0
  9 10  1  0
 10 11  2  0
  5 12  1  0
 12 13  1  0
 13 14  1  0
 14 15  1  0
 15 16  1  0
 16 17  2  0
 16 18  1  0
 18 19  1  0
 19 20  1  0
 19 21  1  0
 21 22  1  0
 22 23  1  0
 23 24  2  0
 24 25  1  0
 25 26  1  0
 26 27  2  0
 27 28  1  0
 28 29  2  0
 29 30  1  0
 30 31  2  0
 15 32  1  0
 32 33  1  0
 11  6  1  0
 33 12  1  0
 31 23  1  0
 31 26  1  0
  1 34  1  0
  1 35  1  0
  1 36  1  0
  2 37  1  0
  2 38  1  0
  7 39  1  0
  8 40  1  0
  9 41  1  0
 10 42  1  0
 11 43  1  0
 12 44  1  0
 13 45  1  0
 13 46  1  0
 14 47  1  0
 14 48  1  0
 18 49  1  0
 18 50  1  0
 19 51  1  6
 20 52  1  0
 20 53  1  0
 21 54  1  0
 21 55  1  0
 22 56  1  0
 22 57  1  0
 24 58  1  0
 25 59  1  0
 27 60  1  0
 28 61  1  0
 29 62  1  0
 30 63  1  0
 32 64  1  0
 32 65  1  0
 33 66  1  0
 33 67  1  0
M  END
>  <smiles>  (60) 
CCC(=O)N(c1ccccc1)C1CCN(C(=O)CC(N)CCc2c[nH]c3ccccc23)CC1

>  <score_type>  (60) 
oracle

>  <origin>  (60) 
autodockgpu

>  <m_score__min__energy>  (60) 
-9.5899999999999999

>  <m_primary>  (60) 
energy

>  <rmsd>  (60) 
11.175854012333291

>  <m_score__min__rmsd>  (60) 
11.175854012333291

>  <meeko>  (60) 
{"free_energy": -8.26, "intermolecular_energy": -11.25, "internal_energy": -1.71, "cluster_size": 1, "cluster_id": 5, "rank_in_cluster": 1}

>  <energy>  (60) 
-8.89

>  <cluster_rmsd>  (60) 
1.25

>  <cluster>  (60) 
1

$$$$

     RDKit          3D

 67 70  0  0  0  0  0  0  0  0999 V2000
  142.1020   78.7060  216.7450 C   0  0  0  0  0  0  0  0  0  0  0  0
  142.5390   78.2710  218.1280 C   0  0  0  0  0  0  0  0  0  0  0  0
  142.0250   79.2520  219.1250 C   0  0  0  0  0  0  0  0  0  0  0  0
  142.1220   80.4600  218.8350 O   0  0  0  0  0  0  0  0  0  0  0  0
  141.4570   78.7660  220.3410 N   0  0  0  0  0  0  0  0  0  0  0  0
  141.6020   79.5170  221.5640 C   0  0  0  0  0  0  0  0  0  0  0  0
  142.3410   79.0440  222.6270 C   0  0  0  0  0  0  0  0  0  0  0  0
  142.4120   79.8560  223.7570 C   0  0  0  0  0  0  0  0  0  0  0  0
  141.7670   81.0850  223.8110 C   0  0  0  0  0  0  0  0  0  0  0  0
  141.0340   81.5390  222.7370 C   0  0  0  0  0  0  0  0  0  0  0  0
  140.9590   80.7400  221.6140 C   0  0  0  0  0  0  0  0  0  0  0  0
  140.7250   77.5270  220.4000 C   0  0  0  0  0  0  0  0  0  0  0  0
  139.7320   77.4870  221.5660 C   0  0  0  0  0  0  0  0  0  0  0  0
  138.9620   76.1640  221.3910 C   0  0  0  0  0  0  0  0  0  0  0  0
  139.8700   75.1040  221.7320 N   0  0  0  0  0  0  0  0  0  0  0  0
  139.5800   73.7780  222.0680 C   0  0  0  0  0  0  0  0  0  0  0  0
  140.6350   73.0530  222.3410 O   0  0  0  0  0  0  0  0  0  0  0  0
  138.3410   73.0360  222.1750 C   0  0  0  0  0  0  0  0  0  0  0  0
  138.3200   71.5640  222.1940 C   0  0  1  0  0  0  0  0  0  0  0  0
  139.2220   70.9210  221.2640 N   0  0  0  0  0  0  0  0  0  0  0  0
  138.7490   71.0740  223.5810 C   0  0  0  0  0  0  0  0  0  0  0  0
  139.5510   69.8090  223.5570 C   0  0  0  0  0  0  0  0  0  0  0  0
  139.7060   69.3850  225.0110 C   0  0  0  0  0  0  0  0  0  0  0  0
  139.3920   68.1610  225.5510 C   0  0  0  0  0  0  0  0  0  0  0  0
  139.6950   68.2470  226.8590 N   0  0  0  0  0  0  0  0  0  0  0  0
  140.1810   69.4700  227.1530 C   0  0  0  0  0  0  0  0  0  0  0  0
  140.6320   70.0710  228.3150 C   0  0  0  0  0  0  0  0  0  0  0  0
  141.0930   71.3750  228.3470 C   0  0  0  0  0  0  0  0  0  0  0  0
  141.1100   72.1260  227.1720 C   0  0  0  0  0  0  0  0  0  0  0  0
  140.6590   71.5350  225.9930 C   0  0  0  0  0  0  0  0  0  0  0  0
  140.2030   70.2250  225.9970 C   0  0  0  0  0  0  0  0  0  0  0  0
  141.3060   75.4870  221.7150 C   0  0  0  0  0  0  0  0  0  0  0  0
  141.6330   76.3110  220.4920 C   0  0  0  0  0  0  0  0  0  0  0  0
  141.3249   79.4796  216.8324 H   0  0  0  0  0  0  0  0  0  0  0  0
  142.9655   79.1138  216.1990 H   0  0  0  0  0  0  0  0  0  0  0  0
  141.6982   77.8407  216.1990 H   0  0  0  0  0  0  0  0  0  0  0  0
  142.1318   77.2730  218.3475 H   0  0  0  0  0  0  0  0  0  0  0  0
  143.6371   78.2291  218.1769 H   0  0  0  0  0  0  0  0  0  0  0  0
  142.8512   78.0704  222.5851 H   0  0  0  0  0  0  0  0  0  0  0  0
  142.9927   79.5157  224.6271 H   0  0  0  0  0  0  0  0  0  0  0  0
  141.8423   81.7009  224.7193 H   0  0  0  0  0  0  0  0  0  0  0  0
  140.5222   82.5120  222.7732 H   0  0  0  0  0  0  0  0  0  0  0  0
  140.3782   81.0818  220.7446 H   0  0  0  0  0  0  0  0  0  0  0  0
  140.1694   77.4853  219.4515 H   0  0  0  0  0  0  0  0  0  0  0  0
  140.2651   77.4994  222.5281 H   0  0  0  0  0  0  0  0  0  0  0  0
  139.0605   78.3582  221.5660 H   0  0  0  0  0  0  0  0  0  0  0  0
  138.0886   76.1435  222.0594 H   0  0  0  0  0  0  0  0  0  0  0  0
  138.5983   76.0539  220.3587 H   0  0  0  0  0  0  0  0  0  0  0  0
  137.8636   73.3643  223.1100 H   0  0  0  0  0  0  0  0  0  0  0  0
  137.8475   73.2650  221.2190 H   0  0  0  0  0  0  0  0  0  0  0  0
  137.2896   71.2997  221.9141 H   0  0  0  0  0  0  0  0  0  0  0  0
  138.8080   70.7900  220.3450 H   0  0  0  0  0  0  0  0  0  0  0  0
  140.1340   71.4020  221.3000 H   0  0  0  0  0  0  0  0  0  0  0  0
  139.3563   71.8601  224.0534 H   0  0  0  0  0  0  0  0  0  0  0  0
  137.8279   70.8573  224.1419 H   0  0  0  0  0  0  0  0  0  0  0  0
  139.0222   69.0316  222.9861 H   0  0  0  0  0  0  0  0  0  0  0  0
  140.5278   69.9594  223.0741 H   0  0  0  0  0  0  0  0  0  0  0  0
  138.9779   67.2898  225.0223 H   0  0  0  0  0  0  0  0  0  0  0  0
  139.5790   67.4870  227.5750 H   0  0  0  0  0  0  0  0  0  0  0  0
  140.6237   69.4898  229.2489 H   0  0  0  0  0  0  0  0  0  0  0  0
  141.4434   71.8160  229.2918 H   0  0  0  0  0  0  0  0  0  0  0  0
  141.4723   73.1646  227.1756 H   0  0  0  0  0  0  0  0  0  0  0  0
  140.6647   72.1100  225.0552 H   0  0  0  0  0  0  0  0  0  0  0  0
  141.5317   76.0759  222.6162 H   0  0  0  0  0  0  0  0  0  0  0  0
  141.9127   74.5697  221.6915 H   0  0  0  0  0  0  0  0  0  0  0  0
  142.6790   76.6460  220.5523 H   0  0  0  0  0  0  0  0  0  0  0  0
  141.4803   75.6892  219.5975 H   0  0  0  0  0  0  0  0  0  0  0  0
  1  2  1  0
  2  3  1  0
  3  4  2  0
  3  5  1  0
  5  6  1  0
  6  7  2  0
  7  8  1  0
  8  9  2  0
  9 10  1  0
 10 11  2  0
  5 12  1  0
 12 13  1  0
 13 14  1  0
 14 15  1  0
 15 16  1  0
 16 17  2  0
 16 18  1  0
 18 19  1  0
 19 20  1  0
 19 21  1  0
 21 22  1  0
 22 23  1  0
 23 24  2  0
 24 25  1  0
 25 26  1  0
 26 27  2  0
 27 28  1  0
 28 29  2  0
 29 30  1  0
 30 31  2  0
 15 32  1  0
 32 33  1  0
 11  6  1  0
 33 12  1  0
 31 23  1  0
 31 26  1  0
  1 34  1  0
  1 35  1  0
  1 36  1  0
  2 37  1  0
  2 38  1  0
  7 39  1  0
  8 40  1  0
  9 41  1  0
 10 42  1  0
 11 43  1  0
 12 44  1  0
 13 45  1  0
 13 46  1  0
 14 47  1  0
 14 48  1  0
 18 49  1  0
 18 50  1  0
 19 51  1  6
 20 52  1  0
 20 53  1  0
 21 54  1  0
 21 55  1  0
 22 56  1  0
 22 57  1  0
 24 58  1  0
 25 59  1  0
 27 60  1  0
 28 61  1  0
 29 62  1  0
 30 63  1  0
 32 64  1  0
 32 65  1  0
 33 66  1  0
 33 67  1  0
M  END
>  <smiles>  (61) 
CCC(=O)N(c1ccccc1)C1CCN(C(=O)CC(N)CCc2c[nH]c3ccccc23)CC1

>  <score_type>  (61) 
oracle

>  <origin>  (61) 
autodockgpu

>  <m_score__min__energy>  (61) 
-9.5899999999999999

>  <m_primary>  (61) 
energy

>  <rmsd>  (61) 
10.96085467356397

>  <m_score__min__rmsd>  (61) 
10.96085467356397

>  <meeko>  (61) 
{"free_energy": -8.88, "intermolecular_energy": -11.87, "internal_energy": -2.03, "cluster_size": 27, "cluster_id": 1, "rank_in_cluster": 11}

>  <energy>  (61) 
-8.88

>  <cluster_rmsd>  (61) 
1.45

>  <cluster>  (61) 
1

$$$$

     RDKit          3D

 67 70  0  0  0  0  0  0  0  0999 V2000
  137.6990   80.8110  223.7170 C   0  0  0  0  0  0  0  0  0  0  0  0
  137.9680   81.4510  222.3710 C   0  0  0  0  0  0  0  0  0  0  0  0
  138.2600   80.3780  221.3790 C   0  0  0  0  0  0  0  0  0  0  0  0
  137.6520   80.4280  220.2920 O   0  0  0  0  0  0  0  0  0  0  0  0
  139.2060   79.3630  221.7190 N   0  0  0  0  0  0  0  0  0  0  0  0
  140.4940   79.7230  222.2590 C   0  0  0  0  0  0  0  0  0  0  0  0
  141.3680   80.5420  221.5770 C   0  0  0  0  0  0  0  0  0  0  0  0
  142.5840   80.8210  222.1960 C   0  0  0  0  0  0  0  0  0  0  0  0
  142.9030   80.2980  223.4420 C   0  0  0  0  0  0  0  0  0  0  0  0
  142.0150   79.4810  224.1070 C   0  0  0  0  0  0  0  0  0  0  0  0
  140.8080   79.2000  223.4990 C   0  0  0  0  0  0  0  0  0  0  0  0
  138.9200   77.9640  221.5420 C   0  0  0  0  0  0  0  0  0  0  0  0
  138.3140   77.3260  222.7970 C   0  0  0  0  0  0  0  0  0  0  0  0
  137.9590   75.8850  222.3820 C   0  0  0  0  0  0  0  0  0  0  0  0
  139.2000   75.1710  222.2490 N   0  0  0  0  0  0  0  0  0  0  0  0
  139.4160   73.7890  222.2360 C   0  0  0  0  0  0  0  0  0  0  0  0
  140.6730   73.4470  222.1100 O   0  0  0  0  0  0  0  0  0  0  0  0
  138.5270   72.6510  222.3320 C   0  0  0  0  0  0  0  0  0  0  0  0
  139.0150   71.2720  222.1640 C   0  0  1  0  0  0  0  0  0  0  0  0
  140.4390   71.1420  221.9460 N   0  0  0  0  0  0  0  0  0  0  0  0
  138.7250   70.4780  223.4430 C   0  0  0  0  0  0  0  0  0  0  0  0
  139.5070   69.2060  223.5570 C   0  0  0  0  0  0  0  0  0  0  0  0
  139.6950   68.9640  225.0480 C   0  0  0  0  0  0  0  0  0  0  0  0
  139.4110   67.8110  225.7390 C   0  0  0  0  0  0  0  0  0  0  0  0
  139.7370   68.0600  227.0210 N   0  0  0  0  0  0  0  0  0  0  0  0
  140.2090   69.3150  227.1540 C   0  0  0  0  0  0  0  0  0  0  0  0
  140.6720   70.0600  228.2250 C   0  0  0  0  0  0  0  0  0  0  0  0
  141.1120   71.3640  228.0880 C   0  0  0  0  0  0  0  0  0  0  0  0
  141.0950   71.9660  226.8310 C   0  0  0  0  0  0  0  0  0  0  0  0
  140.6320   71.2300  225.7420 C   0  0  0  0  0  0  0  0  0  0  0  0
  140.1980   69.9240  225.9150 C   0  0  0  0  0  0  0  0  0  0  0  0
  140.4000   76.0340  222.1030 C   0  0  0  0  0  0  0  0  0  0  0  0
  140.1440   77.1600  221.1300 C   0  0  0  0  0  0  0  0  0  0  0  0
  137.9910   81.5058  224.5183 H   0  0  0  0  0  0  0  0  0  0  0  0
  136.6273   80.5792  223.8052 H   0  0  0  0  0  0  0  0  0  0  0  0
  138.2833   79.8832  223.8052 H   0  0  0  0  0  0  0  0  0  0  0  0
  137.0840   82.0212  222.0494 H   0  0  0  0  0  0  0  0  0  0  0  0
  138.8270   82.1339  222.4468 H   0  0  0  0  0  0  0  0  0  0  0  0
  141.1167   80.9561  220.5894 H   0  0  0  0  0  0  0  0  0  0  0  0
  143.3093   81.4715  221.6854 H   0  0  0  0  0  0  0  0  0  0  0  0
  143.8729   80.5380  223.9021 H   0  0  0  0  0  0  0  0  0  0  0  0
  142.2610   79.0643  225.0948 H   0  0  0  0  0  0  0  0  0  0  0  0
  140.0838   78.5487  224.0102 H   0  0  0  0  0  0  0  0  0  0  0  0
  138.1817   77.9305  220.7272 H   0  0  0  0  0  0  0  0  0  0  0  0
  139.0442   77.3224  223.6196 H   0  0  0  0  0  0  0  0  0  0  0  0
  137.4348   77.8799  223.1579 H   0  0  0  0  0  0  0  0  0  0  0  0
  137.3318   75.4131  223.1526 H   0  0  0  0  0  0  0  0  0  0  0  0
  137.3956   75.8748  221.4373 H   0  0  0  0  0  0  0  0  0  0  0  0
  138.0709   72.6982  223.3319 H   0  0  0  0  0  0  0  0  0  0  0  0
  137.8836   72.7811  221.4493 H   0  0  0  0  0  0  0  0  0  0  0  0
  138.4941   70.9028  221.2683 H   0  0  0  0  0  0  0  0  0  0  0  0
  140.7410   71.5650  221.0720 H   0  0  0  0  0  0  0  0  0  0  0  0
  140.9330   71.4380  222.8020 H   0  0  0  0  0  0  0  0  0  0  0  0
  138.9682   71.1130  224.3077 H   0  0  0  0  0  0  0  0  0  0  0  0
  137.6618   70.1978  223.4111 H   0  0  0  0  0  0  0  0  0  0  0  0
  138.9514   68.3732  223.1013 H   0  0  0  0  0  0  0  0  0  0  0  0
  140.4724   69.2773  223.0346 H   0  0  0  0  0  0  0  0  0  0  0  0
  139.0013   66.8762  225.3288 H   0  0  0  0  0  0  0  0  0  0  0  0
  139.6470   67.3910  227.8260 H   0  0  0  0  0  0  0  0  0  0  0  0
  140.6906   69.5973  229.2228 H   0  0  0  0  0  0  0  0  0  0  0  0
  141.4727   71.9220  228.9647 H   0  0  0  0  0  0  0  0  0  0  0  0
  141.4404   73.0022  226.7011 H   0  0  0  0  0  0  0  0  0  0  0  0
  140.6106   71.6865  224.7414 H   0  0  0  0  0  0  0  0  0  0  0  0
  140.6587   76.4587  223.0842 H   0  0  0  0  0  0  0  0  0  0  0  0
  141.2273   75.4201  221.7175 H   0  0  0  0  0  0  0  0  0  0  0  0
  141.0208   77.8239  221.1084 H   0  0  0  0  0  0  0  0  0  0  0  0
  139.9638   76.7301  220.1337 H   0  0  0  0  0  0  0  0  0  0  0  0
  1  2  1  0
  2  3  1  0
  3  4  2  0
  3  5  1  0
  5  6  1  0
  6  7  2  0
  7  8  1  0
  8  9  2  0
  9 10  1  0
 10 11  2  0
  5 12  1  0
 12 13  1  0
 13 14  1  0
 14 15  1  0
 15 16  1  0
 16 17  2  0
 16 18  1  0
 18 19  1  0
 19 20  1  0
 19 21  1  0
 21 22  1  0
 22 23  1  0
 23 24  2  0
 24 25  1  0
 25 26  1  0
 26 27  2  0
 27 28  1  0
 28 29  2  0
 29 30  1  0
 30 31  2  0
 15 32  1  0
 32 33  1  0
 11  6  1  0
 33 12  1  0
 31 23  1  0
 31 26  1  0
  1 34  1  0
  1 35  1  0
  1 36  1  0
  2 37  1  0
  2 38  1  0
  7 39  1  0
  8 40  1  0
  9 41  1  0
 10 42  1  0
 11 43  1  0
 12 44  1  0
 13 45  1  0
 13 46  1  0
 14 47  1  0
 14 48  1  0
 18 49  1  0
 18 50  1  0
 19 51  1  6
 20 52  1  0
 20 53  1  0
 21 54  1  0
 21 55  1  0
 22 56  1  0
 22 57  1  0
 24 58  1  0
 25 59  1  0
 27 60  1  0
 28 61  1  0
 29 62  1  0
 30 63  1  0
 32 64  1  0
 32 65  1  0
 33 66  1  0
 33 67  1  0
M  END
>  <smiles>  (62) 
CCC(=O)N(c1ccccc1)C1CCN(C(=O)CC(N)CCc2c[nH]c3ccccc23)CC1

>  <score_type>  (62) 
oracle

>  <origin>  (62) 
autodockgpu

>  <m_score__min__energy>  (62) 
-9.5899999999999999

>  <m_primary>  (62) 
energy

>  <rmsd>  (62) 
11.165774004218372

>  <m_score__min__rmsd>  (62) 
11.165774004218372

>  <meeko>  (62) 
{"free_energy": -8.57, "intermolecular_energy": -11.55, "internal_energy": -2.32, "cluster_size": 27, "cluster_id": 1, "rank_in_cluster": 22}

>  <energy>  (62) 
-8.86

>  <cluster_rmsd>  (62) 
1.67

>  <cluster>  (62) 
1

$$$$

     RDKit          3D

 67 70  0  0  0  0  0  0  0  0999 V2000
  137.9100   80.9060  224.5440 C   0  0  0  0  0  0  0  0  0  0  0  0
  137.1590   80.3890  223.3350 C   0  0  0  0  0  0  0  0  0  0  0  0
  138.0980   80.3260  222.1780 C   0  0  0  0  0  0  0  0  0  0  0  0
  137.9140   81.1390  221.2520 O   0  0  0  0  0  0  0  0  0  0  0  0
  139.1430   79.3530  222.1910 N   0  0  0  0  0  0  0  0  0  0  0  0
  140.4750   79.7210  222.6040 C   0  0  0  0  0  0  0  0  0  0  0  0
  140.9870   79.3500  223.8290 C   0  0  0  0  0  0  0  0  0  0  0  0
  142.2850   79.7630  224.1210 C   0  0  0  0  0  0  0  0  0  0  0  0
  143.0290   80.5130  223.2200 C   0  0  0  0  0  0  0  0  0  0  0  0
  142.4980   80.8730  222.0010 C   0  0  0  0  0  0  0  0  0  0  0  0
  141.2120   80.4670  221.7050 C   0  0  0  0  0  0  0  0  0  0  0  0
  138.9170   77.9860  221.8010 C   0  0  0  0  0  0  0  0  0  0  0  0
  138.2010   77.1760  222.8870 C   0  0  0  0  0  0  0  0  0  0  0  0
  137.9320   75.7990  222.2500 C   0  0  0  0  0  0  0  0  0  0  0  0
  139.1990   75.1270  222.1580 N   0  0  0  0  0  0  0  0  0  0  0  0
  139.4540   73.7630  221.9840 C   0  0  0  0  0  0  0  0  0  0  0  0
  140.7260   73.4580  221.9500 O   0  0  0  0  0  0  0  0  0  0  0  0
  138.5920   72.6100  221.8320 C   0  0  0  0  0  0  0  0  0  0  0  0
  138.9360   71.3040  222.4190 C   0  0  1  0  0  0  0  0  0  0  0  0
  140.1120   70.6690  221.8670 N   0  0  0  0  0  0  0  0  0  0  0  0
  139.2360   71.4880  223.9110 C   0  0  0  0  0  0  0  0  0  0  0  0
  140.6920   71.6410  224.2230 C   0  0  0  0  0  0  0  0  0  0  0  0
  140.8350   71.3440  225.7100 C   0  0  0  0  0  0  0  0  0  0  0  0
  141.0860   72.2510  226.7120 C   0  0  0  0  0  0  0  0  0  0  0  0
  141.1260   71.5370  227.8510 N   0  0  0  0  0  0  0  0  0  0  0  0
  140.9120   70.2300  227.6000 C   0  0  0  0  0  0  0  0  0  0  0  0
  140.8520   69.0960  228.3910 C   0  0  0  0  0  0  0  0  0  0  0  0
  140.6110   67.8380  227.8700 C   0  0  0  0  0  0  0  0  0  0  0  0
  140.4200   67.6890  226.4960 C   0  0  0  0  0  0  0  0  0  0  0  0
  140.4780   68.8210  225.6860 C   0  0  0  0  0  0  0  0  0  0  0  0
  140.7220   70.0680  226.2420 C   0  0  0  0  0  0  0  0  0  0  0  0
  140.3830   76.0180  222.2560 C   0  0  0  0  0  0  0  0  0  0  0  0
  140.1980   77.2620  221.4200 C   0  0  0  0  0  0  0  0  0  0  0  0
  137.4098   80.5617  225.4612 H   0  0  0  0  0  0  0  0  0  0  0  0
  138.9422   80.5262  224.5245 H   0  0  0  0  0  0  0  0  0  0  0  0
  137.9236   82.0057  224.5245 H   0  0  0  0  0  0  0  0  0  0  0  0
  136.7646   79.3841  223.5464 H   0  0  0  0  0  0  0  0  0  0  0  0
  136.3203   81.0608  223.1001 H   0  0  0  0  0  0  0  0  0  0  0  0
  140.3979   78.7554  224.5428 H   0  0  0  0  0  0  0  0  0  0  0  0
  142.7311   79.4884  225.0883 H   0  0  0  0  0  0  0  0  0  0  0  0
  144.0516   80.8225  223.4819 H   0  0  0  0  0  0  0  0  0  0  0  0
  143.0824   81.4675  221.2833 H   0  0  0  0  0  0  0  0  0  0  0  0
  140.7671   80.7421  220.7374 H   0  0  0  0  0  0  0  0  0  0  0  0
  138.2693   78.0532  220.9144 H   0  0  0  0  0  0  0  0  0  0  0  0
  138.8407   77.0719  223.7758 H   0  0  0  0  0  0  0  0  0  0  0  0
  137.2732   77.6639  223.2204 H   0  0  0  0  0  0  0  0  0  0  0  0
  137.2412   75.2193  222.8798 H   0  0  0  0  0  0  0  0  0  0  0  0
  137.4709   75.9077  221.2572 H   0  0  0  0  0  0  0  0  0  0  0  0
  137.6181   72.8936  222.2576 H   0  0  0  0  0  0  0  0  0  0  0  0
  138.6602   72.4071  220.7530 H   0  0  0  0  0  0  0  0  0  0  0  0
  138.0659   70.6668  222.2025 H   0  0  0  0  0  0  0  0  0  0  0  0
  140.8730   71.3240  221.7090 H   0  0  0  0  0  0  0  0  0  0  0  0
  140.3290   69.8290  222.4270 H   0  0  0  0  0  0  0  0  0  0  0  0
  138.7103   72.3885  224.2614 H   0  0  0  0  0  0  0  0  0  0  0  0
  138.8948   70.5745  224.4201 H   0  0  0  0  0  0  0  0  0  0  0  0
  141.2866   70.9289  223.6319 H   0  0  0  0  0  0  0  0  0  0  0  0
  141.0534   72.6503  223.9767 H   0  0  0  0  0  0  0  0  0  0  0  0
  141.2254   73.3368  226.6044 H   0  0  0  0  0  0  0  0  0  0  0  0
  141.2980   71.9160  228.8160 H   0  0  0  0  0  0  0  0  0  0  0  0
  141.0018   69.1993  229.4758 H   0  0  0  0  0  0  0  0  0  0  0  0
  140.5702   66.9617  228.5336 H   0  0  0  0  0  0  0  0  0  0  0  0
  140.2274   66.6973  226.0608 H   0  0  0  0  0  0  0  0  0  0  0  0
  140.3296   68.7253  224.6003 H   0  0  0  0  0  0  0  0  0  0  0  0
  140.5272   76.3095  223.3068 H   0  0  0  0  0  0  0  0  0  0  0  0
  141.2622   75.4731  221.8817 H   0  0  0  0  0  0  0  0  0  0  0  0
  141.0534   77.9346  221.5810 H   0  0  0  0  0  0  0  0  0  0  0  0
  140.1342   76.9681  220.3619 H   0  0  0  0  0  0  0  0  0  0  0  0
  1  2  1  0
  2  3  1  0
  3  4  2  0
  3  5  1  0
  5  6  1  0
  6  7  2  0
  7  8  1  0
  8  9  2  0
  9 10  1  0
 10 11  2  0
  5 12  1  0
 12 13  1  0
 13 14  1  0
 14 15  1  0
 15 16  1  0
 16 17  2  0
 16 18  1  0
 18 19  1  0
 19 20  1  0
 19 21  1  0
 21 22  1  0
 22 23  1  0
 23 24  2  0
 24 25  1  0
 25 26  1  0
 26 27  2  0
 27 28  1  0
 28 29  2  0
 29 30  1  0
 30 31  2  0
 15 32  1  0
 32 33  1  0
 11  6  1  0
 33 12  1  0
 31 23  1  0
 31 26  1  0
  1 34  1  0
  1 35  1  0
  1 36  1  0
  2 37  1  0
  2 38  1  0
  7 39  1  0
  8 40  1  0
  9 41  1  0
 10 42  1  0
 11 43  1  0
 12 44  1  0
 13 45  1  0
 13 46  1  0
 14 47  1  0
 14 48  1  0
 18 49  1  0
 18 50  1  0
 19 51  1  1
 20 52  1  0
 20 53  1  0
 21 54  1  0
 21 55  1  0
 22 56  1  0
 22 57  1  0
 24 58  1  0
 25 59  1  0
 27 60  1  0
 28 61  1  0
 29 62  1  0
 30 63  1  0
 32 64  1  0
 32 65  1  0
 33 66  1  0
 33 67  1  0
M  END
>  <smiles>  (63) 
CCC(=O)N(c1ccccc1)C1CCN(C(=O)CC(N)CCc2c[nH]c3ccccc23)CC1

>  <score_type>  (63) 
oracle

>  <origin>  (63) 
autodockgpu

>  <m_score__min__energy>  (63) 
-9.5899999999999999

>  <m_primary>  (63) 
energy

>  <rmsd>  (63) 
10.686044330491175

>  <m_score__min__rmsd>  (63) 
10.686044330491175

>  <meeko>  (63) 
{"free_energy": -8.66, "intermolecular_energy": -11.64, "internal_energy": -2.23, "cluster_size": 15, "cluster_id": 2, "rank_in_cluster": 10}

>  <energy>  (63) 
-8.82

>  <cluster_rmsd>  (63) 
1.97

>  <cluster>  (63) 
1

$$$$

     RDKit          3D

 67 70  0  0  0  0  0  0  0  0999 V2000
  143.1760   80.5090  223.4670 C   0  0  0  0  0  0  0  0  0  0  0  0
  141.8670   81.2180  223.7450 C   0  0  0  0  0  0  0  0  0  0  0  0
  141.0070   81.1340  222.5310 C   0  0  0  0  0  0  0  0  0  0  0  0
  141.4600   81.6260  221.4790 O   0  0  0  0  0  0  0  0  0  0  0  0
  139.7300   80.5040  222.6330 N   0  0  0  0  0  0  0  0  0  0  0  0
  138.6440   81.1670  223.3130 C   0  0  0  0  0  0  0  0  0  0  0  0
  138.3480   80.9110  224.6350 C   0  0  0  0  0  0  0  0  0  0  0  0
  137.2770   81.6110  225.1880 C   0  0  0  0  0  0  0  0  0  0  0  0
  136.5420   82.5230  224.4420 C   0  0  0  0  0  0  0  0  0  0  0  0
  136.8550   82.7630  223.1220 C   0  0  0  0  0  0  0  0  0  0  0  0
  137.9150   82.0740  222.5680 C   0  0  0  0  0  0  0  0  0  0  0  0
  139.4730   79.2040  222.0700 C   0  0  0  0  0  0  0  0  0  0  0  0
  138.5670   78.3480  222.9610 C   0  0  0  0  0  0  0  0  0  0  0  0
  138.3010   77.0660  222.1490 C   0  0  0  0  0  0  0  0  0  0  0  0
  139.5240   76.3110  222.1480 N   0  0  0  0  0  0  0  0  0  0  0  0
  139.7140   74.9550  221.8610 C   0  0  0  0  0  0  0  0  0  0  0  0
  140.9570   74.5580  221.9580 O   0  0  0  0  0  0  0  0  0  0  0  0
  138.8090   73.8930  221.4750 C   0  0  0  0  0  0  0  0  0  0  0  0
  139.3020   72.5620  221.0820 C   0  0  1  0  0  0  0  0  0  0  0  0
  140.7040   72.5010  220.7310 N   0  0  0  0  0  0  0  0  0  0  0  0
  139.1360   71.5970  222.2610 C   0  0  0  0  0  0  0  0  0  0  0  0
  140.0300   71.9010  223.4240 C   0  0  0  0  0  0  0  0  0  0  0  0
  139.9120   70.7080  224.3640 C   0  0  0  0  0  0  0  0  0  0  0  0
  139.4470   69.4540  224.0500 C   0  0  0  0  0  0  0  0  0  0  0  0
  139.5250   68.7380  225.1870 N   0  0  0  0  0  0  0  0  0  0  0  0
  140.0170   69.4930  226.1900 C   0  0  0  0  0  0  0  0  0  0  0  0
  140.2930   69.2560  227.5250 C   0  0  0  0  0  0  0  0  0  0  0  0
  140.8080   70.2300  228.3610 C   0  0  0  0  0  0  0  0  0  0  0  0
  141.0650   71.5040  227.8550 C   0  0  0  0  0  0  0  0  0  0  0  0
  140.7920   71.7590  226.5130 C   0  0  0  0  0  0  0  0  0  0  0  0
  140.2760   70.7580  225.7020 C   0  0  0  0  0  0  0  0  0  0  0  0
  140.7370   77.0940  222.4940 C   0  0  0  0  0  0  0  0  0  0  0  0
  140.7470   78.4250  221.7810 C   0  0  0  0  0  0  0  0  0  0  0  0
  143.6603   80.2467  224.4192 H   0  0  0  0  0  0  0  0  0  0  0  0
  142.9815   79.5929  222.8900 H   0  0  0  0  0  0  0  0  0  0  0  0
  143.8370   81.1724  222.8900 H   0  0  0  0  0  0  0  0  0  0  0  0
  141.3581   80.7355  224.5925 H   0  0  0  0  0  0  0  0  0  0  0  0
  142.0589   82.2720  223.9943 H   0  0  0  0  0  0  0  0  0  0  0  0
  138.9298   80.1881  225.2257 H   0  0  0  0  0  0  0  0  0  0  0  0
  137.0076   81.4369  226.2402 H   0  0  0  0  0  0  0  0  0  0  0  0
  135.7024   83.0586  224.9092 H   0  0  0  0  0  0  0  0  0  0  0  0
  136.2761   83.4839  222.5260 H   0  0  0  0  0  0  0  0  0  0  0  0
  138.1838   82.2499  221.5160 H   0  0  0  0  0  0  0  0  0  0  0  0
  138.9573   79.4079  221.1200 H   0  0  0  0  0  0  0  0  0  0  0  0
  139.0724   78.1075  223.9079 H   0  0  0  0  0  0  0  0  0  0  0  0
  137.6352   78.8702  223.2239 H   0  0  0  0  0  0  0  0  0  0  0  0
  137.4959   76.4814  222.6181 H   0  0  0  0  0  0  0  0  0  0  0  0
  137.9869   77.3080  221.1230 H   0  0  0  0  0  0  0  0  0  0  0  0
  138.1360   73.7337  222.3304 H   0  0  0  0  0  0  0  0  0  0  0  0
  138.3874   74.2746  220.5334 H   0  0  0  0  0  0  0  0  0  0  0  0
  138.7114   72.3017  220.1913 H   0  0  0  0  0  0  0  0  0  0  0  0
  140.9860   73.2590  220.1140 H   0  0  0  0  0  0  0  0  0  0  0  0
  141.2560   72.3720  221.5930 H   0  0  0  0  0  0  0  0  0  0  0  0
  138.0921   71.6459  222.6044 H   0  0  0  0  0  0  0  0  0  0  0  0
  139.4141   70.5969  221.8970 H   0  0  0  0  0  0  0  0  0  0  0  0
  141.0700   72.0206  223.0862 H   0  0  0  0  0  0  0  0  0  0  0  0
  139.7403   72.8380  223.9221 H   0  0  0  0  0  0  0  0  0  0  0  0
  139.0854   69.1066  223.0709 H   0  0  0  0  0  0  0  0  0  0  0  0
  139.2500   67.7310  225.3070 H   0  0  0  0  0  0  0  0  0  0  0  0
  140.0954   68.2553  227.9369 H   0  0  0  0  0  0  0  0  0  0  0  0
  141.0134   70.0015  229.4172 H   0  0  0  0  0  0  0  0  0  0  0  0
  141.4754   72.2923  228.5032 H   0  0  0  0  0  0  0  0  0  0  0  0
  140.9862   72.7576  226.0945 H   0  0  0  0  0  0  0  0  0  0  0  0
  140.7544   77.2681  223.5800 H   0  0  0  0  0  0  0  0  0  0  0  0
  141.6229   76.5227  222.1796 H   0  0  0  0  0  0  0  0  0  0  0  0
  141.6129   79.0106  222.1233 H   0  0  0  0  0  0  0  0  0  0  0  0
  140.8104   78.2435  220.6979 H   0  0  0  0  0  0  0  0  0  0  0  0
  1  2  1  0
  2  3  1  0
  3  4  2  0
  3  5  1  0
  5  6  1  0
  6  7  2  0
  7  8  1  0
  8  9  2  0
  9 10  1  0
 10 11  2  0
  5 12  1  0
 12 13  1  0
 13 14  1  0
 14 15  1  0
 15 16  1  0
 16 17  2  0
 16 18  1  0
 18 19  1  0
 19 20  1  0
 19 21  1  0
 21 22  1  0
 22 23  1  0
 23 24  2  0
 24 25  1  0
 25 26  1  0
 26 27  2  0
 27 28  1  0
 28 29  2  0
 29 30  1  0
 30 31  2  0
 15 32  1  0
 32 33  1  0
 11  6  1  0
 33 12  1  0
 31 23  1  0
 31 26  1  0
  1 34  1  0
  1 35  1  0
  1 36  1  0
  2 37  1  0
  2 38  1  0
  7 39  1  0
  8 40  1  0
  9 41  1  0
 10 42  1  0
 11 43  1  0
 12 44  1  0
 13 45  1  0
 13 46  1  0
 14 47  1  0
 14 48  1  0
 18 49  1  0
 18 50  1  0
 19 51  1  6
 20 52  1  0
 20 53  1  0
 21 54  1  0
 21 55  1  0
 22 56  1  0
 22 57  1  0
 24 58  1  0
 25 59  1  0
 27 60  1  0
 28 61  1  0
 29 62  1  0
 30 63  1  0
 32 64  1  0
 32 65  1  0
 33 66  1  0
 33 67  1  0
M  END
>  <smiles>  (64) 
CCC(=O)N(c1ccccc1)C1CCN(C(=O)CC(N)CCc2c[nH]c3ccccc23)CC1

>  <score_type>  (64) 
oracle

>  <origin>  (64) 
autodockgpu

>  <m_score__min__energy>  (64) 
-9.5899999999999999

>  <m_primary>  (64) 
energy

>  <rmsd>  (64) 
10.406462989261293

>  <m_score__min__rmsd>  (64) 
10.406462989261293

>  <meeko>  (64) 
{"free_energy": -8.16, "intermolecular_energy": -11.14, "internal_energy": -2.14, "cluster_size": 1, "cluster_id": 6, "rank_in_cluster": 1}

>  <energy>  (64) 
-8.77

>  <cluster_rmsd>  (64) 
1.33

>  <cluster>  (64) 
1

$$$$

     RDKit          3D

 67 70  0  0  0  0  0  0  0  0999 V2000
  138.4560   81.9790  222.3440 C   0  0  0  0  0  0  0  0  0  0  0  0
  137.7160   80.6580  222.3440 C   0  0  0  0  0  0  0  0  0  0  0  0
  138.3090   79.7760  221.2990 C   0  0  0  0  0  0  0  0  0  0  0  0
  137.8830   79.9070  220.1360 O   0  0  0  0  0  0  0  0  0  0  0  0
  139.3190   78.8400  221.6790 N   0  0  0  0  0  0  0  0  0  0  0  0
  140.5410   79.2980  222.2930 C   0  0  0  0  0  0  0  0  0  0  0  0
  140.8530   79.0060  223.6030 C   0  0  0  0  0  0  0  0  0  0  0  0
  142.0610   79.5020  224.0890 C   0  0  0  0  0  0  0  0  0  0  0  0
  142.9120   80.2560  223.2910 C   0  0  0  0  0  0  0  0  0  0  0  0
  142.5800   80.5360  221.9840 C   0  0  0  0  0  0  0  0  0  0  0  0
  141.3850   80.0480  221.4950 C   0  0  0  0  0  0  0  0  0  0  0  0
  139.1630   77.4240  221.4720 C   0  0  0  0  0  0  0  0  0  0  0  0
  138.6440   76.7020  222.7200 C   0  0  0  0  0  0  0  0  0  0  0  0
  138.4190   75.2440  222.2750 C   0  0  0  0  0  0  0  0  0  0  0  0
  139.7180   74.6550  222.1040 N   0  0  0  0  0  0  0  0  0  0  0  0
  140.0630   73.3000  222.0520 C   0  0  0  0  0  0  0  0  0  0  0  0
  141.3440   73.0820  221.8980 O   0  0  0  0  0  0  0  0  0  0  0  0
  139.2880   72.0810  222.1340 C   0  0  0  0  0  0  0  0  0  0  0  0
  138.3790   71.8160  223.2620 C   0  0  1  0  0  0  0  0  0  0  0  0
  137.0210   72.2820  223.0850 N   0  0  0  0  0  0  0  0  0  0  0  0
  138.2660   70.3020  223.4710 C   0  0  0  0  0  0  0  0  0  0  0  0
  139.5860   69.6020  223.5640 C   0  0  0  0  0  0  0  0  0  0  0  0
  139.7550   69.2210  225.0290 C   0  0  0  0  0  0  0  0  0  0  0  0
  139.4900   67.9980  225.5980 C   0  0  0  0  0  0  0  0  0  0  0  0
  139.7850   68.1300  226.9040 N   0  0  0  0  0  0  0  0  0  0  0  0
  140.2200   69.3780  227.1680 C   0  0  0  0  0  0  0  0  0  0  0  0
  140.6430   70.0260  228.3160 C   0  0  0  0  0  0  0  0  0  0  0  0
  141.0500   71.3480  228.3160 C   0  0  0  0  0  0  0  0  0  0  0  0
  141.0380   72.0700  227.1220 C   0  0  0  0  0  0  0  0  0  0  0  0
  140.6160   71.4320  225.9580 C   0  0  0  0  0  0  0  0  0  0  0  0
  140.2140   70.1050  225.9940 C   0  0  0  0  0  0  0  0  0  0  0  0
  140.8290   75.6300  221.9600 C   0  0  0  0  0  0  0  0  0  0  0  0
  140.4490   76.7500  221.0200 C   0  0  0  0  0  0  0  0  0  0  0  0
  138.6352   82.2989  223.3811 H   0  0  0  0  0  0  0  0  0  0  0  0
  139.4188   81.8600  221.8254 H   0  0  0  0  0  0  0  0  0  0  0  0
  137.8516   82.7378  221.8254 H   0  0  0  0  0  0  0  0  0  0  0  0
  137.8128   80.1799  223.3299 H   0  0  0  0  0  0  0  0  0  0  0  0
  136.6501   80.8264  222.1305 H   0  0  0  0  0  0  0  0  0  0  0  0
  140.1797   78.4091  224.2357 H   0  0  0  0  0  0  0  0  0  0  0  0
  142.3477   79.2914  225.1299 H   0  0  0  0  0  0  0  0  0  0  0  0
  143.8585   80.6324  223.7062 H   0  0  0  0  0  0  0  0  0  0  0  0
  143.2493   81.1326  221.3468 H   0  0  0  0  0  0  0  0  0  0  0  0
  141.0996   80.2592  220.4539 H   0  0  0  0  0  0  0  0  0  0  0  0
  138.4156   77.3399  220.6693 H   0  0  0  0  0  0  0  0  0  0  0  0
  139.3868   76.7484  223.5300 H   0  0  0  0  0  0  0  0  0  0  0  0
  137.7233   77.1612  223.1091 H   0  0  0  0  0  0  0  0  0  0  0  0
  137.8537   74.6968  223.0437 H   0  0  0  0  0  0  0  0  0  0  0  0
  137.8415   75.2024  221.3397 H   0  0  0  0  0  0  0  0  0  0  0  0
  138.6706   72.0452  221.2243 H   0  0  0  0  0  0  0  0  0  0  0  0
  140.0669   71.3175  222.2767 H   0  0  0  0  0  0  0  0  0  0  0  0
  138.8233   72.3621  224.1072 H   0  0  0  0  0  0  0  0  0  0  0  0
  136.3310   71.5680  223.3030 H   0  0  0  0  0  0  0  0  0  0  0  0
  136.9180   73.1910  223.5620 H   0  0  0  0  0  0  0  0  0  0  0  0
  137.7119   70.1216  224.4040 H   0  0  0  0  0  0  0  0  0  0  0  0
  137.7507   69.8955  222.5882 H   0  0  0  0  0  0  0  0  0  0  0  0
  139.5868   68.7016  222.9321 H   0  0  0  0  0  0  0  0  0  0  0  0
  140.4087   70.2442  223.2165 H   0  0  0  0  0  0  0  0  0  0  0  0
  139.1143   67.0974  225.0903 H   0  0  0  0  0  0  0  0  0  0  0  0
  139.7000   67.3840  227.6390 H   0  0  0  0  0  0  0  0  0  0  0  0
  140.6559   69.4684  229.2641 H   0  0  0  0  0  0  0  0  0  0  0  0
  141.3805   71.8263  229.2498 H   0  0  0  0  0  0  0  0  0  0  0  0
  141.3557   73.1229  227.1004 H   0  0  0  0  0  0  0  0  0  0  0  0
  140.6015   71.9829  225.0060 H   0  0  0  0  0  0  0  0  0  0  0  0
  141.0657   76.0538  222.9471 H   0  0  0  0  0  0  0  0  0  0  0  0
  141.7029   75.1062  221.5454 H   0  0  0  0  0  0  0  0  0  0  0  0
  141.2585   77.4945  221.0008 H   0  0  0  0  0  0  0  0  0  0  0  0
  140.2913   76.3286  220.0163 H   0  0  0  0  0  0  0  0  0  0  0  0
  1  2  1  0
  2  3  1  0
  3  4  2  0
  3  5  1  0
  5  6  1  0
  6  7  2  0
  7  8  1  0
  8  9  2  0
  9 10  1  0
 10 11  2  0
  5 12  1  0
 12 13  1  0
 13 14  1  0
 14 15  1  0
 15 16  1  0
 16 17  2  0
 16 18  1  0
 18 19  1  0
 19 20  1  0
 19 21  1  0
 21 22  1  0
 22 23  1  0
 23 24  2  0
 24 25  1  0
 25 26  1  0
 26 27  2  0
 27 28  1  0
 28 29  2  0
 29 30  1  0
 30 31  2  0
 15 32  1  0
 32 33  1  0
 11  6  1  0
 33 12  1  0
 31 23  1  0
 31 26  1  0
  1 34  1  0
  1 35  1  0
  1 36  1  0
  2 37  1  0
  2 38  1  0
  7 39  1  0
  8 40  1  0
  9 41  1  0
 10 42  1  0
 11 43  1  0
 12 44  1  0
 13 45  1  0
 13 46  1  0
 14 47  1  0
 14 48  1  0
 18 49  1  0
 18 50  1  0
 19 51  1  1
 20 52  1  0
 20 53  1  0
 21 54  1  0
 21 55  1  0
 22 56  1  0
 22 57  1  0
 24 58  1  0
 25 59  1  0
 27 60  1  0
 28 61  1  0
 29 62  1  0
 30 63  1  0
 32 64  1  0
 32 65  1  0
 33 66  1  0
 33 67  1  0
M  END
>  <smiles>  (65) 
CCC(=O)N(c1ccccc1)C1CCN(C(=O)CC(N)CCc2c[nH]c3ccccc23)CC1

>  <score_type>  (65) 
oracle

>  <origin>  (65) 
autodockgpu

>  <m_score__min__energy>  (65) 
-9.5899999999999999

>  <m_primary>  (65) 
energy

>  <rmsd>  (65) 
11.264118714660826

>  <m_score__min__rmsd>  (65) 
11.264118714660826

>  <meeko>  (65) 
{"free_energy": -8.7, "intermolecular_energy": -11.68, "internal_energy": -1.81, "cluster_size": 15, "cluster_id": 2, "rank_in_cluster": 8}

>  <energy>  (65) 
-8.74

>  <cluster_rmsd>  (65) 
1.58

>  <cluster>  (65) 
1

$$$$

     RDKit          3D

 67 70  0  0  0  0  0  0  0  0999 V2000
  142.3230   78.7940  217.9110 C   0  0  0  0  0  0  0  0  0  0  0  0
  141.4330   77.8650  218.7080 C   0  0  0  0  0  0  0  0  0  0  0  0
  142.2240   77.2890  219.8330 C   0  0  0  0  0  0  0  0  0  0  0  0
  143.3290   76.7870  219.5520 O   0  0  0  0  0  0  0  0  0  0  0  0
  141.6830   77.3430  221.1540 N   0  0  0  0  0  0  0  0  0  0  0  0
  141.7430   78.5680  221.9150 C   0  0  0  0  0  0  0  0  0  0  0  0
  141.8080   78.5680  223.2920 C   0  0  0  0  0  0  0  0  0  0  0  0
  141.8620   79.8100  223.9200 C   0  0  0  0  0  0  0  0  0  0  0  0
  141.8510   80.9940  223.1940 C   0  0  0  0  0  0  0  0  0  0  0  0
  141.7860   80.9710  221.8180 C   0  0  0  0  0  0  0  0  0  0  0  0
  141.7320   79.7430  221.1880 C   0  0  0  0  0  0  0  0  0  0  0  0
  141.0650   76.2000  221.7730 C   0  0  0  0  0  0  0  0  0  0  0  0
  141.3680   74.8950  221.0280 C   0  0  0  0  0  0  0  0  0  0  0  0
  140.7440   73.7850  221.8960 C   0  0  0  0  0  0  0  0  0  0  0  0
  139.3190   73.8920  221.7500 N   0  0  0  0  0  0  0  0  0  0  0  0
  138.3360   72.9390  222.0370 C   0  0  0  0  0  0  0  0  0  0  0  0
  137.1160   73.3370  221.7840 O   0  0  0  0  0  0  0  0  0  0  0  0
  138.3940   71.5910  222.5620 C   0  0  0  0  0  0  0  0  0  0  0  0
  137.5900   71.1790  223.7250 C   0  0  1  0  0  0  0  0  0  0  0  0
  136.1650   71.3860  223.5960 N   0  0  0  0  0  0  0  0  0  0  0  0
  137.7640   69.6730  223.9470 C   0  0  0  0  0  0  0  0  0  0  0  0
  139.1860   69.2080  223.8670 C   0  0  0  0  0  0  0  0  0  0  0  0
  139.6170   68.9330  225.3020 C   0  0  0  0  0  0  0  0  0  0  0  0
  139.5430   67.7340  225.9690 C   0  0  0  0  0  0  0  0  0  0  0  0
  140.0330   67.9680  227.2000 N   0  0  0  0  0  0  0  0  0  0  0  0
  140.4070   69.2570  227.3240 C   0  0  0  0  0  0  0  0  0  0  0  0
  140.9580   70.0040  228.3510 C   0  0  0  0  0  0  0  0  0  0  0  0
  141.2550   71.3480  228.2150 C   0  0  0  0  0  0  0  0  0  0  0  0
  140.9960   71.9900  227.0040 C   0  0  0  0  0  0  0  0  0  0  0  0
  140.4420   71.2520  225.9600 C   0  0  0  0  0  0  0  0  0  0  0  0
  140.1560   69.9060  226.1310 C   0  0  0  0  0  0  0  0  0  0  0  0
  138.8440   75.2000  221.2290 C   0  0  0  0  0  0  0  0  0  0  0  0
  139.5580   76.3460  221.9060 C   0  0  0  0  0  0  0  0  0  0  0  0
  142.9165   79.4135  218.5995 H   0  0  0  0  0  0  0  0  0  0  0  0
  142.9983   78.2006  217.2771 H   0  0  0  0  0  0  0  0  0  0  0  0
  141.7012   79.4432  217.2771 H   0  0  0  0  0  0  0  0  0  0  0  0
  140.5763   78.4270  219.1082 H   0  0  0  0  0  0  0  0  0  0  0  0
  141.0613   77.0571  218.0606 H   0  0  0  0  0  0  0  0  0  0  0  0
  141.8168   77.6308  223.8679 H   0  0  0  0  0  0  0  0  0  0  0  0
  141.9147   79.8543  225.0178 H   0  0  0  0  0  0  0  0  0  0  0  0
  141.8945   81.9580  223.7220 H   0  0  0  0  0  0  0  0  0  0  0  0
  141.7773   81.9050  221.2370 H   0  0  0  0  0  0  0  0  0  0  0  0
  141.6794   79.6997  220.0901 H   0  0  0  0  0  0  0  0  0  0  0  0
  141.5075   76.1528  222.7789 H   0  0  0  0  0  0  0  0  0  0  0  0
  140.9110   74.9061  220.0275 H   0  0  0  0  0  0  0  0  0  0  0  0
  142.4477   74.7453  220.8798 H   0  0  0  0  0  0  0  0  0  0  0  0
  141.0864   72.7981  221.5515 H   0  0  0  0  0  0  0  0  0  0  0  0
  141.0411   73.8954  222.9494 H   0  0  0  0  0  0  0  0  0  0  0  0
  138.1069   70.9243  221.7355 H   0  0  0  0  0  0  0  0  0  0  0  0
  139.4200   71.5362  222.9548 H   0  0  0  0  0  0  0  0  0  0  0  0
  137.9564   71.8081  224.5497 H   0  0  0  0  0  0  0  0  0  0  0  0
  135.9330   72.3200  223.2700 H   0  0  0  0  0  0  0  0  0  0  0  0
  135.7620   70.5950  223.0700 H   0  0  0  0  0  0  0  0  0  0  0  0
  137.3733   69.4225  224.9443 H   0  0  0  0  0  0  0  0  0  0  0  0
  137.2162   69.1657  223.1392 H   0  0  0  0  0  0  0  0  0  0  0  0
  139.2551   68.2904  223.2643 H   0  0  0  0  0  0  0  0  0  0  0  0
  139.8305   69.9604  223.3890 H   0  0  0  0  0  0  0  0  0  0  0  0
  139.1617   66.7795  225.5772 H   0  0  0  0  0  0  0  0  0  0  0  0
  140.1250   67.2660  227.9760 H   0  0  0  0  0  0  0  0  0  0  0  0
  141.1675   69.5101  229.3113 H   0  0  0  0  0  0  0  0  0  0  0  0
  141.6923   71.9066  229.0557 H   0  0  0  0  0  0  0  0  0  0  0  0
  141.2247   73.0583  226.8757 H   0  0  0  0  0  0  0  0  0  0  0  0
  140.2307   71.7390  224.9966 H   0  0  0  0  0  0  0  0  0  0  0  0
  139.0352   75.2466  220.1467 H   0  0  0  0  0  0  0  0  0  0  0  0
  137.7671   75.2883  221.4352 H   0  0  0  0  0  0  0  0  0  0  0  0
  139.2451   77.2916  221.4391 H   0  0  0  0  0  0  0  0  0  0  0  0
  139.2972   76.3406  222.9746 H   0  0  0  0  0  0  0  0  0  0  0  0
  1  2  1  0
  2  3  1  0
  3  4  2  0
  3  5  1  0
  5  6  1  0
  6  7  2  0
  7  8  1  0
  8  9  2  0
  9 10  1  0
 10 11  2  0
  5 12  1  0
 12 13  1  0
 13 14  1  0
 14 15  1  0
 15 16  1  0
 16 17  2  0
 16 18  1  0
 18 19  1  0
 19 20  1  0
 19 21  1  0
 21 22  1  0
 22 23  1  0
 23 24  2  0
 24 25  1  0
 25 26  1  0
 26 27  2  0
 27 28  1  0
 28 29  2  0
 29 30  1  0
 30 31  2  0
 15 32  1  0
 32 33  1  0
 11  6  1  0
 33 12  1  0
 31 23  1  0
 31 26  1  0
  1 34  1  0
  1 35  1  0
  1 36  1  0
  2 37  1  0
  2 38  1  0
  7 39  1  0
  8 40  1  0
  9 41  1  0
 10 42  1  0
 11 43  1  0
 12 44  1  0
 13 45  1  0
 13 46  1  0
 14 47  1  0
 14 48  1  0
 18 49  1  0
 18 50  1  0
 19 51  1  1
 20 52  1  0
 20 53  1  0
 21 54  1  0
 21 55  1  0
 22 56  1  0
 22 57  1  0
 24 58  1  0
 25 59  1  0
 27 60  1  0
 28 61  1  0
 29 62  1  0
 30 63  1  0
 32 64  1  0
 32 65  1  0
 33 66  1  0
 33 67  1  0
M  END
>  <smiles>  (66) 
CCC(=O)N(c1ccccc1)C1CCN(C(=O)CC(N)CCc2c[nH]c3ccccc23)CC1

>  <score_type>  (66) 
oracle

>  <origin>  (66) 
autodockgpu

>  <m_score__min__energy>  (66) 
-9.5899999999999999

>  <m_primary>  (66) 
energy

>  <rmsd>  (66) 
11.587502709776617

>  <m_score__min__rmsd>  (66) 
11.587502709776617

>  <meeko>  (66) 
{"free_energy": -8.74, "intermolecular_energy": -11.73, "internal_energy": -2.17, "cluster_size": 27, "cluster_id": 1, "rank_in_cluster": 15}

>  <energy>  (66) 
-8.74

>  <cluster_rmsd>  (66) 
1.28

>  <cluster>  (66) 
1

$$$$

     RDKit          3D

 67 70  0  0  0  0  0  0  0  0999 V2000
  142.2730   79.8290  218.2290 C   0  0  0  0  0  0  0  0  0  0  0  0
  141.3490   78.7000  218.6350 C   0  0  0  0  0  0  0  0  0  0  0  0
  142.0500   77.8390  219.6290 C   0  0  0  0  0  0  0  0  0  0  0  0
  143.0060   77.1550  219.2140 O   0  0  0  0  0  0  0  0  0  0  0  0
  141.5990   77.8430  220.9840 N   0  0  0  0  0  0  0  0  0  0  0  0
  141.6980   79.0420  221.7800 C   0  0  0  0  0  0  0  0  0  0  0  0
  142.5780   79.1450  222.8360 C   0  0  0  0  0  0  0  0  0  0  0  0
  142.5870   80.3500  223.5340 C   0  0  0  0  0  0  0  0  0  0  0  0
  141.7470   81.4000  223.1840 C   0  0  0  0  0  0  0  0  0  0  0  0
  140.8750   81.2750  222.1250 C   0  0  0  0  0  0  0  0  0  0  0  0
  140.8610   80.0830  221.4280 C   0  0  0  0  0  0  0  0  0  0  0  0
  141.0340   76.6720  221.6030 C   0  0  0  0  0  0  0  0  0  0  0  0
  141.5950   75.3710  221.0180 C   0  0  0  0  0  0  0  0  0  0  0  0
  140.9840   74.2490  221.8790 C   0  0  0  0  0  0  0  0  0  0  0  0
  139.5930   74.1640  221.5280 N   0  0  0  0  0  0  0  0  0  0  0  0
  138.6980   73.1130  221.7540 C   0  0  0  0  0  0  0  0  0  0  0  0
  137.4900   73.3340  221.3020 O   0  0  0  0  0  0  0  0  0  0  0  0
  138.8340   71.8200  222.3910 C   0  0  0  0  0  0  0  0  0  0  0  0
  138.0990   71.4830  223.6220 C   0  0  1  0  0  0  0  0  0  0  0  0
  136.7630   72.0280  223.7130 N   0  0  0  0  0  0  0  0  0  0  0  0
  137.9240   69.9620  223.7010 C   0  0  0  0  0  0  0  0  0  0  0  0
  139.2150   69.2040  223.7380 C   0  0  0  0  0  0  0  0  0  0  0  0
  139.5030   68.9430  225.2110 C   0  0  0  0  0  0  0  0  0  0  0  0
  139.2790   67.7760  225.9010 C   0  0  0  0  0  0  0  0  0  0  0  0
  139.6840   68.0110  227.1620 N   0  0  0  0  0  0  0  0  0  0  0  0
  140.1470   69.2710  227.2840 C   0  0  0  0  0  0  0  0  0  0  0  0
  140.6680   70.0060  228.3350 C   0  0  0  0  0  0  0  0  0  0  0  0
  141.0810   71.3180  228.1900 C   0  0  0  0  0  0  0  0  0  0  0  0
  140.9740   71.9390  226.9460 C   0  0  0  0  0  0  0  0  0  0  0  0
  140.4520   71.2130  225.8780 C   0  0  0  0  0  0  0  0  0  0  0  0
  140.0470   69.8980  226.0580 C   0  0  0  0  0  0  0  0  0  0  0  0
  139.0510   75.3630  220.8400 C   0  0  0  0  0  0  0  0  0  0  0  0
  139.5170   76.6320  221.5130 C   0  0  0  0  0  0  0  0  0  0  0  0
  142.6728   80.3175  219.1298 H   0  0  0  0  0  0  0  0  0  0  0  0
  143.1037   79.4259  217.6311 H   0  0  0  0  0  0  0  0  0  0  0  0
  141.7136   80.5636  217.6311 H   0  0  0  0  0  0  0  0  0  0  0  0
  140.4346   79.1143  219.0846 H   0  0  0  0  0  0  0  0  0  0  0  0
  141.0763   78.1044  217.7513 H   0  0  0  0  0  0  0  0  0  0  0  0
  143.2424   78.3138  223.1145 H   0  0  0  0  0  0  0  0  0  0  0  0
  143.2757   80.4735  224.3828 H   0  0  0  0  0  0  0  0  0  0  0  0
  141.7786   82.3384  223.7571 H   0  0  0  0  0  0  0  0  0  0  0  0
  140.2077   82.1025  221.8421 H   0  0  0  0  0  0  0  0  0  0  0  0
  140.1724   79.9605  220.5790 H   0  0  0  0  0  0  0  0  0  0  0  0
  141.3251   76.7472  222.6611 H   0  0  0  0  0  0  0  0  0  0  0  0
  141.2934   75.2587  219.9662 H   0  0  0  0  0  0  0  0  0  0  0  0
  142.6947   75.3515  221.0347 H   0  0  0  0  0  0  0  0  0  0  0  0
  141.4866   73.2936  221.6675 H   0  0  0  0  0  0  0  0  0  0  0  0
  141.1072   74.4637  222.9508 H   0  0  0  0  0  0  0  0  0  0  0  0
  138.5389   71.0725  221.6399 H   0  0  0  0  0  0  0  0  0  0  0  0
  139.8775   71.8386  222.7387 H   0  0  0  0  0  0  0  0  0  0  0  0
  138.7042   71.9167  224.4317 H   0  0  0  0  0  0  0  0  0  0  0  0
  136.7070   72.8250  224.3420 H   0  0  0  0  0  0  0  0  0  0  0  0
  136.3940   72.1620  222.7580 H   0  0  0  0  0  0  0  0  0  0  0  0
  137.3572   69.7255  224.6136 H   0  0  0  0  0  0  0  0  0  0  0  0
  137.3983   69.6530  222.7855 H   0  0  0  0  0  0  0  0  0  0  0  0
  139.1166   68.2536  223.1930 H   0  0  0  0  0  0  0  0  0  0  0  0
  140.0293   69.7691  223.2609 H   0  0  0  0  0  0  0  0  0  0  0  0
  138.8556   66.8417  225.5038 H   0  0  0  0  0  0  0  0  0  0  0  0
  139.6550   67.3290  227.9610 H   0  0  0  0  0  0  0  0  0  0  0  0
  140.7568   69.5289  229.3221 H   0  0  0  0  0  0  0  0  0  0  0  0
  141.4910   71.8678  229.0500 H   0  0  0  0  0  0  0  0  0  0  0  0
  141.2957   72.9822  226.8107 H   0  0  0  0  0  0  0  0  0  0  0  0
  140.3604   71.6839  224.8881 H   0  0  0  0  0  0  0  0  0  0  0  0
  139.3942   75.3635  219.7949 H   0  0  0  0  0  0  0  0  0  0  0  0
  137.9526   75.3259  220.8858 H   0  0  0  0  0  0  0  0  0  0  0  0
  139.1677   77.4976  220.9310 H   0  0  0  0  0  0  0  0  0  0  0  0
  139.1033   76.6622  222.5318 H   0  0  0  0  0  0  0  0  0  0  0  0
  1  2  1  0
  2  3  1  0
  3  4  2  0
  3  5  1  0
  5  6  1  0
  6  7  2  0
  7  8  1  0
  8  9  2  0
  9 10  1  0
 10 11  2  0
  5 12  1  0
 12 13  1  0
 13 14  1  0
 14 15  1  0
 15 16  1  0
 16 17  2  0
 16 18  1  0
 18 19  1  0
 19 20  1  0
 19 21  1  0
 21 22  1  0
 22 23  1  0
 23 24  2  0
 24 25  1  0
 25 26  1  0
 26 27  2  0
 27 28  1  0
 28 29  2  0
 29 30  1  0
 30 31  2  0
 15 32  1  0
 32 33  1  0
 11  6  1  0
 33 12  1  0
 31 23  1  0
 31 26  1  0
  1 34  1  0
  1 35  1  0
  1 36  1  0
  2 37  1  0
  2 38  1  0
  7 39  1  0
  8 40  1  0
  9 41  1  0
 10 42  1  0
 11 43  1  0
 12 44  1  0
 13 45  1  0
 13 46  1  0
 14 47  1  0
 14 48  1  0
 18 49  1  0
 18 50  1  0
 19 51  1  1
 20 52  1  0
 20 53  1  0
 21 54  1  0
 21 55  1  0
 22 56  1  0
 22 57  1  0
 24 58  1  0
 25 59  1  0
 27 60  1  0
 28 61  1  0
 29 62  1  0
 30 63  1  0
 32 64  1  0
 32 65  1  0
 33 66  1  0
 33 67  1  0
M  END
>  <smiles>  (67) 
CCC(=O)N(c1ccccc1)C1CCN(C(=O)CC(N)CCc2c[nH]c3ccccc23)CC1

>  <score_type>  (67) 
oracle

>  <origin>  (67) 
autodockgpu

>  <m_score__min__energy>  (67) 
-9.5899999999999999

>  <m_primary>  (67) 
energy

>  <rmsd>  (67) 
11.495669534113187

>  <m_score__min__rmsd>  (67) 
11.495669534113187

>  <meeko>  (67) 
{"free_energy": -8.89, "intermolecular_energy": -11.87, "internal_energy": -2.15, "cluster_size": 27, "cluster_id": 1, "rank_in_cluster": 10}

>  <energy>  (67) 
-8.69

>  <cluster_rmsd>  (67) 
1.77

>  <cluster>  (67) 
1

$$$$

     RDKit          3D

 67 70  0  0  0  0  0  0  0  0999 V2000
  144.0420   73.9790  218.4420 C   0  0  0  0  0  0  0  0  0  0  0  0
  144.5390   72.6910  217.8210 C   0  0  0  0  0  0  0  0  0  0  0  0
  145.2030   71.8740  218.8760 C   0  0  0  0  0  0  0  0  0  0  0  0
  146.2600   72.3210  219.3600 O   0  0  0  0  0  0  0  0  0  0  0  0
  144.6010   70.6410  219.2720 N   0  0  0  0  0  0  0  0  0  0  0  0
  145.1850   69.3840  218.8700 C   0  0  0  0  0  0  0  0  0  0  0  0
  145.2340   68.2990  219.7190 C   0  0  0  0  0  0  0  0  0  0  0  0
  145.8220   67.1370  219.2230 C   0  0  0  0  0  0  0  0  0  0  0  0
  146.3340   67.0750  217.9330 C   0  0  0  0  0  0  0  0  0  0  0  0
  146.2740   68.1710  217.1020 C   0  0  0  0  0  0  0  0  0  0  0  0
  145.6930   69.3260  217.5870 C   0  0  0  0  0  0  0  0  0  0  0  0
  143.4080   70.5980  220.0770 C   0  0  0  0  0  0  0  0  0  0  0  0
  142.1300   70.6710  219.2340 C   0  0  0  0  0  0  0  0  0  0  0  0
  140.9760   70.4810  220.2380 C   0  0  0  0  0  0  0  0  0  0  0  0
  140.8960   71.6880  221.0140 N   0  0  0  0  0  0  0  0  0  0  0  0
  139.8340   72.1560  221.7960 C   0  0  0  0  0  0  0  0  0  0  0  0
  140.0650   73.3050  222.3770 O   0  0  0  0  0  0  0  0  0  0  0  0
  138.5220   71.6240  222.0960 C   0  0  0  0  0  0  0  0  0  0  0  0
  138.0250   71.5250  223.4790 C   0  0  1  0  0  0  0  0  0  0  0  0
  136.7160   72.0950  223.7080 N   0  0  0  0  0  0  0  0  0  0  0  0
  137.8970   70.0460  223.8610 C   0  0  0  0  0  0  0  0  0  0  0  0
  139.1790   69.2780  223.7510 C   0  0  0  0  0  0  0  0  0  0  0  0
  139.5820   68.9330  225.1790 C   0  0  0  0  0  0  0  0  0  0  0  0
  139.5330   67.6950  225.7730 C   0  0  0  0  0  0  0  0  0  0  0  0
  139.9830   67.8710  227.0290 N   0  0  0  0  0  0  0  0  0  0  0  0
  140.3070   69.1630  227.2380 C   0  0  0  0  0  0  0  0  0  0  0  0
  140.8040   69.8650  228.3220 C   0  0  0  0  0  0  0  0  0  0  0  0
  141.0570   71.2240  228.2740 C   0  0  0  0  0  0  0  0  0  0  0  0
  140.8070   71.9280  227.0970 C   0  0  0  0  0  0  0  0  0  0  0  0
  140.3070   71.2350  225.9960 C   0  0  0  0  0  0  0  0  0  0  0  0
  140.0640   69.8720  226.0790 C   0  0  0  0  0  0  0  0  0  0  0  0
  142.1150   72.5350  220.9730 C   0  0  0  0  0  0  0  0  0  0  0  0
  143.3630   71.6990  221.1240 C   0  0  0  0  0  0  0  0  0  0  0  0
  144.0748   73.8940  219.5382 H   0  0  0  0  0  0  0  0  0  0  0  0
  144.6830   74.8128  218.1195 H   0  0  0  0  0  0  0  0  0  0  0  0
  143.0071   74.1661  218.1195 H   0  0  0  0  0  0  0  0  0  0  0  0
  143.6903   72.1320  217.4000 H   0  0  0  0  0  0  0  0  0  0  0  0
  145.2548   72.9158  217.0166 H   0  0  0  0  0  0  0  0  0  0  0  0
  144.8280   68.3482  220.7401 H   0  0  0  0  0  0  0  0  0  0  0  0
  145.8822   66.2480  219.8680 H   0  0  0  0  0  0  0  0  0  0  0  0
  146.7914   66.1419  217.5723 H   0  0  0  0  0  0  0  0  0  0  0  0
  146.6778   68.1278  216.0797 H   0  0  0  0  0  0  0  0  0  0  0  0
  145.6338   70.2143  216.9410 H   0  0  0  0  0  0  0  0  0  0  0  0
  143.4503   69.6244  220.5873 H   0  0  0  0  0  0  0  0  0  0  0  0
  142.0514   71.6484  218.7355 H   0  0  0  0  0  0  0  0  0  0  0  0
  142.1155   69.9096  218.4402 H   0  0  0  0  0  0  0  0  0  0  0  0
  140.0309   70.3131  219.7009 H   0  0  0  0  0  0  0  0  0  0  0  0
  141.1549   69.6085  220.8836 H   0  0  0  0  0  0  0  0  0  0  0  0
  137.8014   72.2528  221.5525 H   0  0  0  0  0  0  0  0  0  0  0  0
  138.6261   70.5674  221.8081 H   0  0  0  0  0  0  0  0  0  0  0  0
  138.7562   72.0902  224.0756 H   0  0  0  0  0  0  0  0  0  0  0  0
  136.0730   71.4370  224.1410 H   0  0  0  0  0  0  0  0  0  0  0  0
  136.8300   73.0090  224.1720 H   0  0  0  0  0  0  0  0  0  0  0  0
  137.5454   69.9861  224.9016 H   0  0  0  0  0  0  0  0  0  0  0  0
  137.1907   69.5923  223.1501 H   0  0  0  0  0  0  0  0  0  0  0  0
  139.0263   68.3603  223.1641 H   0  0  0  0  0  0  0  0  0  0  0  0
  139.9584   69.8635  223.2414 H   0  0  0  0  0  0  0  0  0  0  0  0
  139.1953   66.7533  225.3157 H   0  0  0  0  0  0  0  0  0  0  0  0
  140.0790   67.1280  227.7640 H   0  0  0  0  0  0  0  0  0  0  0  0
  141.0054   69.3218  229.2571 H   0  0  0  0  0  0  0  0  0  0  0  0
  141.4526   71.7455  229.1581 H   0  0  0  0  0  0  0  0  0  0  0  0
  141.0006   73.0092  227.0384 H   0  0  0  0  0  0  0  0  0  0  0  0
  140.1043   71.7713  225.0572 H   0  0  0  0  0  0  0  0  0  0  0  0
  142.1520   73.0650  220.0098 H   0  0  0  0  0  0  0  0  0  0  0  0
  142.0711   73.2511  221.8069 H   0  0  0  0  0  0  0  0  0  0  0  0
  144.2456   72.3448  221.0058 H   0  0  0  0  0  0  0  0  0  0  0  0
  143.3571   71.2355  222.1215 H   0  0  0  0  0  0  0  0  0  0  0  0
  1  2  1  0
  2  3  1  0
  3  4  2  0
  3  5  1  0
  5  6  1  0
  6  7  2  0
  7  8  1  0
  8  9  2  0
  9 10  1  0
 10 11  2  0
  5 12  1  0
 12 13  1  0
 13 14  1  0
 14 15  1  0
 15 16  1  0
 16 17  2  0
 16 18  1  0
 18 19  1  0
 19 20  1  0
 19 21  1  0
 21 22  1  0
 22 23  1  0
 23 24  2  0
 24 25  1  0
 25 26  1  0
 26 27  2  0
 27 28  1  0
 28 29  2  0
 29 30  1  0
 30 31  2  0
 15 32  1  0
 32 33  1  0
 11  6  1  0
 33 12  1  0
 31 23  1  0
 31 26  1  0
  1 34  1  0
  1 35  1  0
  1 36  1  0
  2 37  1  0
  2 38  1  0
  7 39  1  0
  8 40  1  0
  9 41  1  0
 10 42  1  0
 11 43  1  0
 12 44  1  0
 13 45  1  0
 13 46  1  0
 14 47  1  0
 14 48  1  0
 18 49  1  0
 18 50  1  0
 19 51  1  1
 20 52  1  0
 20 53  1  0
 21 54  1  0
 21 55  1  0
 22 56  1  0
 22 57  1  0
 24 58  1  0
 25 59  1  0
 27 60  1  0
 28 61  1  0
 29 62  1  0
 30 63  1  0
 32 64  1  0
 32 65  1  0
 33 66  1  0
 33 67  1  0
M  END
>  <smiles>  (68) 
CCC(=O)N(c1ccccc1)C1CCN(C(=O)CC(N)CCc2c[nH]c3ccccc23)CC1

>  <score_type>  (68) 
oracle

>  <origin>  (68) 
autodockgpu

>  <m_score__min__energy>  (68) 
-9.5899999999999999

>  <m_primary>  (68) 
energy

>  <rmsd>  (68) 
11.50045325499831

>  <m_score__min__rmsd>  (68) 
11.50045325499831

>  <meeko>  (68) 
{"free_energy": -9.15, "intermolecular_energy": -12.14, "internal_energy": -1.87, "cluster_size": 4, "cluster_id": 3, "rank_in_cluster": 2}

>  <energy>  (68) 
-8.68

>  <cluster_rmsd>  (68) 
1.42

>  <cluster>  (68) 
1

$$$$

     RDKit          3D

 67 70  0  0  0  0  0  0  0  0999 V2000
  145.6460   73.1630  216.7620 C   0  0  0  0  0  0  0  0  0  0  0  0
  144.5920   72.8050  217.7880 C   0  0  0  0  0  0  0  0  0  0  0  0
  145.2270   71.9950  218.8660 C   0  0  0  0  0  0  0  0  0  0  0  0
  146.2860   72.4320  219.3560 O   0  0  0  0  0  0  0  0  0  0  0  0
  144.5980   70.7800  219.2770 N   0  0  0  0  0  0  0  0  0  0  0  0
  145.1450   69.5070  218.8770 C   0  0  0  0  0  0  0  0  0  0  0  0
  145.8390   69.3500  217.6960 C   0  0  0  0  0  0  0  0  0  0  0  0
  146.3230   68.0740  217.4140 C   0  0  0  0  0  0  0  0  0  0  0  0
  146.1140   67.0090  218.2800 C   0  0  0  0  0  0  0  0  0  0  0  0
  145.4170   67.1880  219.4540 C   0  0  0  0  0  0  0  0  0  0  0  0
  144.9350   68.4500  219.7410 C   0  0  0  0  0  0  0  0  0  0  0  0
  143.4130   70.7730  220.0930 C   0  0  0  0  0  0  0  0  0  0  0  0
  142.1260   70.8180  219.2610 C   0  0  0  0  0  0  0  0  0  0  0  0
  140.9830   70.6710  220.2830 C   0  0  0  0  0  0  0  0  0  0  0  0
  140.9140   71.9070  221.0130 N   0  0  0  0  0  0  0  0  0  0  0  0
  139.8610   72.4090  221.7850 C   0  0  0  0  0  0  0  0  0  0  0  0
  140.1010   73.5790  222.3190 O   0  0  0  0  0  0  0  0  0  0  0  0
  138.5500   71.8940  222.1190 C   0  0  0  0  0  0  0  0  0  0  0  0
  138.2120   71.4660  223.4870 C   0  0  1  0  0  0  0  0  0  0  0  0
  136.9150   71.8920  223.9650 N   0  0  0  0  0  0  0  0  0  0  0  0
  138.1830   69.9350  223.5420 C   0  0  0  0  0  0  0  0  0  0  0  0
  139.5400   69.3050  223.6110 C   0  0  0  0  0  0  0  0  0  0  0  0
  139.7720   68.9760  225.0800 C   0  0  0  0  0  0  0  0  0  0  0  0
  139.5750   67.7630  225.6950 C   0  0  0  0  0  0  0  0  0  0  0  0
  139.9090   67.9460  226.9850 N   0  0  0  0  0  0  0  0  0  0  0  0
  140.3030   69.2180  227.1970 C   0  0  0  0  0  0  0  0  0  0  0  0
  140.7390   69.9170  228.3090 C   0  0  0  0  0  0  0  0  0  0  0  0
  141.0940   71.2530  228.2550 C   0  0  0  0  0  0  0  0  0  0  0  0
  141.0140   71.9350  227.0420 C   0  0  0  0  0  0  0  0  0  0  0  0
  140.5780   71.2460  225.9120 C   0  0  0  0  0  0  0  0  0  0  0  0
  140.2300   69.9060  226.0020 C   0  0  0  0  0  0  0  0  0  0  0  0
  142.1350   72.7480  220.9270 C   0  0  0  0  0  0  0  0  0  0  0  0
  143.3820   71.9140  221.0980 C   0  0  0  0  0  0  0  0  0  0  0  0
  146.5668   73.4758  217.2761 H   0  0  0  0  0  0  0  0  0  0  0  0
  145.8574   72.2863  216.1322 H   0  0  0  0  0  0  0  0  0  0  0  0
  145.2797   73.9871  216.1322 H   0  0  0  0  0  0  0  0  0  0  0  0
  144.1670   73.7241  218.2177 H   0  0  0  0  0  0  0  0  0  0  0  0
  143.7870   72.2268  217.3109 H   0  0  0  0  0  0  0  0  0  0  0  0
  146.0030   70.1928  217.0084 H   0  0  0  0  0  0  0  0  0  0  0  0
  146.8842   67.9065  216.4829 H   0  0  0  0  0  0  0  0  0  0  0  0
  146.5085   66.0140  218.0261 H   0  0  0  0  0  0  0  0  0  0  0  0
  145.2487   66.3485  220.1446 H   0  0  0  0  0  0  0  0  0  0  0  0
  144.3747   68.6161  220.6729 H   0  0  0  0  0  0  0  0  0  0  0  0
  143.4570   69.8191  220.6390 H   0  0  0  0  0  0  0  0  0  0  0  0
  142.0451   71.7758  218.7261 H   0  0  0  0  0  0  0  0  0  0  0  0
  142.1007   70.0267  218.4973 H   0  0  0  0  0  0  0  0  0  0  0  0
  140.0318   70.4855  219.7626 H   0  0  0  0  0  0  0  0  0  0  0  0
  141.1668   69.8237  220.9600 H   0  0  0  0  0  0  0  0  0  0  0  0
  137.8311   72.6837  221.8555 H   0  0  0  0  0  0  0  0  0  0  0  0
  138.5227   70.9451  221.5633 H   0  0  0  0  0  0  0  0  0  0  0  0
  138.9828   71.9312  224.1190 H   0  0  0  0  0  0  0  0  0  0  0  0
  136.9320   72.8270  224.3630 H   0  0  0  0  0  0  0  0  0  0  0  0
  136.2150   71.7110  223.2280 H   0  0  0  0  0  0  0  0  0  0  0  0
  137.6142   69.6310  224.4331 H   0  0  0  0  0  0  0  0  0  0  0  0
  137.7179   69.5904  222.6067 H   0  0  0  0  0  0  0  0  0  0  0  0
  139.5676   68.3879  223.0043 H   0  0  0  0  0  0  0  0  0  0  0  0
  140.3180   69.9767  223.2193 H   0  0  0  0  0  0  0  0  0  0  0  0
  139.2176   66.8333  225.2282 H   0  0  0  0  0  0  0  0  0  0  0  0
  139.8770   67.2210  227.7440 H   0  0  0  0  0  0  0  0  0  0  0  0
  140.8058   69.3903  229.2724 H   0  0  0  0  0  0  0  0  0  0  0  0
  141.4366   71.7728  229.1619 H   0  0  0  0  0  0  0  0  0  0  0  0
  141.2901   72.9979  226.9779 H   0  0  0  0  0  0  0  0  0  0  0  0
  140.5095   71.7663  224.9453 H   0  0  0  0  0  0  0  0  0  0  0  0
  142.1639   73.2401  219.9436 H   0  0  0  0  0  0  0  0  0  0  0  0
  142.1016   73.4962  221.7326 H   0  0  0  0  0  0  0  0  0  0  0  0
  144.2655   72.5516  220.9465 H   0  0  0  0  0  0  0  0  0  0  0  0
  143.3846   71.4892  222.1127 H   0  0  0  0  0  0  0  0  0  0  0  0
  1  2  1  0
  2  3  1  0
  3  4  2  0
  3  5  1  0
  5  6  1  0
  6  7  2  0
  7  8  1  0
  8  9  2  0
  9 10  1  0
 10 11  2  0
  5 12  1  0
 12 13  1  0
 13 14  1  0
 14 15  1  0
 15 16  1  0
 16 17  2  0
 16 18  1  0
 18 19  1  0
 19 20  1  0
 19 21  1  0
 21 22  1  0
 22 23  1  0
 23 24  2  0
 24 25  1  0
 25 26  1  0
 26 27  2  0
 27 28  1  0
 28 29  2  0
 29 30  1  0
 30 31  2  0
 15 32  1  0
 32 33  1  0
 11  6  1  0
 33 12  1  0
 31 23  1  0
 31 26  1  0
  1 34  1  0
  1 35  1  0
  1 36  1  0
  2 37  1  0
  2 38  1  0
  7 39  1  0
  8 40  1  0
  9 41  1  0
 10 42  1  0
 11 43  1  0
 12 44  1  0
 13 45  1  0
 13 46  1  0
 14 47  1  0
 14 48  1  0
 18 49  1  0
 18 50  1  0
 19 51  1  1
 20 52  1  0
 20 53  1  0
 21 54  1  0
 21 55  1  0
 22 56  1  0
 22 57  1  0
 24 58  1  0
 25 59  1  0
 27 60  1  0
 28 61  1  0
 29 62  1  0
 30 63  1  0
 32 64  1  0
 32 65  1  0
 33 66  1  0
 33 67  1  0
M  END
>  <smiles>  (69) 
CCC(=O)N(c1ccccc1)C1CCN(C(=O)CC(N)CCc2c[nH]c3ccccc23)CC1

>  <score_type>  (69) 
oracle

>  <origin>  (69) 
autodockgpu

>  <m_score__min__energy>  (69) 
-9.5899999999999999

>  <m_primary>  (69) 
energy

>  <rmsd>  (69) 
11.424221069133626

>  <m_score__min__rmsd>  (69) 
11.424221069133626

>  <meeko>  (69) 
{"free_energy": -9.16, "intermolecular_energy": -12.14, "internal_energy": -1.9, "cluster_size": 4, "cluster_id": 3, "rank_in_cluster": 1}

>  <energy>  (69) 
-8.64

>  <cluster_rmsd>  (69) 
1.33

>  <cluster>  (69) 
1

$$$$

     RDKit          3D

 67 70  0  0  0  0  0  0  0  0999 V2000
  142.1820   78.3500  218.8190 C   0  0  0  0  0  0  0  0  0  0  0  0
  142.2090   77.2040  219.8090 C   0  0  0  0  0  0  0  0  0  0  0  0
  142.6350   75.9660  219.0970 C   0  0  0  0  0  0  0  0  0  0  0  0
  143.0460   76.0950  217.9280 O   0  0  0  0  0  0  0  0  0  0  0  0
  142.5520   74.7150  219.7820 N   0  0  0  0  0  0  0  0  0  0  0  0
  143.7360   73.9140  219.9790 C   0  0  0  0  0  0  0  0  0  0  0  0
  143.8140   72.6100  219.5420 C   0  0  0  0  0  0  0  0  0  0  0  0
  145.0070   71.9330  219.7880 C   0  0  0  0  0  0  0  0  0  0  0  0
  146.0680   72.5440  220.4440 C   0  0  0  0  0  0  0  0  0  0  0  0
  145.9680   73.8490  220.8730 C   0  0  0  0  0  0  0  0  0  0  0  0
  144.7890   74.5260  220.6320 C   0  0  0  0  0  0  0  0  0  0  0  0
  141.3070   74.2080  220.2960 C   0  0  0  0  0  0  0  0  0  0  0  0
  141.4900   73.4070  221.5900 C   0  0  0  0  0  0  0  0  0  0  0  0
  140.0610   73.0640  222.0540 C   0  0  0  0  0  0  0  0  0  0  0  0
  139.5570   72.0670  221.1500 N   0  0  0  0  0  0  0  0  0  0  0  0
  138.4800   71.1920  221.3260 C   0  0  0  0  0  0  0  0  0  0  0  0
  138.2750   70.3870  220.3150 O   0  0  0  0  0  0  0  0  0  0  0  0
  137.5380   70.9930  222.4070 C   0  0  0  0  0  0  0  0  0  0  0  0
  136.9760   69.6650  222.7090 C   0  0  1  0  0  0  0  0  0  0  0  0
  137.1540   68.6690  221.6750 N   0  0  0  0  0  0  0  0  0  0  0  0
  137.6750   69.0940  223.9480 C   0  0  0  0  0  0  0  0  0  0  0  0
  139.1670   69.2210  223.9150 C   0  0  0  0  0  0  0  0  0  0  0  0
  139.6390   68.9670  225.3410 C   0  0  0  0  0  0  0  0  0  0  0  0
  139.6030   67.7730  226.0210 C   0  0  0  0  0  0  0  0  0  0  0  0
  140.1200   68.0270  227.2360 N   0  0  0  0  0  0  0  0  0  0  0  0
  140.4740   69.3240  227.3390 C   0  0  0  0  0  0  0  0  0  0  0  0
  141.0370   70.0890  228.3450 C   0  0  0  0  0  0  0  0  0  0  0  0
  141.3080   71.4370  228.1900 C   0  0  0  0  0  0  0  0  0  0  0  0
  141.0070   72.0630  226.9810 C   0  0  0  0  0  0  0  0  0  0  0  0
  140.4400   71.3060  225.9580 C   0  0  0  0  0  0  0  0  0  0  0  0
  140.1820   69.9560  226.1470 C   0  0  0  0  0  0  0  0  0  0  0  0
  140.2850   71.9740  219.8590 C   0  0  0  0  0  0  0  0  0  0  0  0
  140.5620   73.3450  219.2910 C   0  0  0  0  0  0  0  0  0  0  0  0
  142.1595   79.3051  219.3642 H   0  0  0  0  0  0  0  0  0  0  0  0
  143.0813   78.3097  218.1869 H   0  0  0  0  0  0  0  0  0  0  0  0
  141.2856   78.2674  218.1869 H   0  0  0  0  0  0  0  0  0  0  0  0
  142.9207   77.4297  220.6168 H   0  0  0  0  0  0  0  0  0  0  0  0
  141.2085   77.0607  220.2431 H   0  0  0  0  0  0  0  0  0  0  0  0
  142.9737   72.1256  219.0230 H   0  0  0  0  0  0  0  0  0  0  0  0
  145.1109   70.8899  219.4547 H   0  0  0  0  0  0  0  0  0  0  0  0
  146.9959   71.9809  220.6224 H   0  0  0  0  0  0  0  0  0  0  0  0
  146.8045   74.3384  221.3933 H   0  0  0  0  0  0  0  0  0  0  0  0
  144.6862   75.5693  220.9651 H   0  0  0  0  0  0  0  0  0  0  0  0
  140.7064   75.1049  220.5077 H   0  0  0  0  0  0  0  0  0  0  0  0
  142.0647   72.4889  221.3981 H   0  0  0  0  0  0  0  0  0  0  0  0
  142.0460   73.9741  222.3511 H   0  0  0  0  0  0  0  0  0  0  0  0
  140.0811   72.6686  223.0803 H   0  0  0  0  0  0  0  0  0  0  0  0
  139.4205   73.9583  222.0509 H   0  0  0  0  0  0  0  0  0  0  0  0
  138.0432   71.3310  223.3238 H   0  0  0  0  0  0  0  0  0  0  0  0
  136.6554   71.5462  222.0536 H   0  0  0  0  0  0  0  0  0  0  0  0
  135.8979   69.8441  222.8341 H   0  0  0  0  0  0  0  0  0  0  0  0
  136.6190   68.8770  220.8360 H   0  0  0  0  0  0  0  0  0  0  0  0
  138.1630   68.4950  221.5540 H   0  0  0  0  0  0  0  0  0  0  0  0
  137.3013   69.6285  224.8338 H   0  0  0  0  0  0  0  0  0  0  0  0
  137.4464   68.0184  223.9766 H   0  0  0  0  0  0  0  0  0  0  0  0
  139.5994   68.4764  223.2304 H   0  0  0  0  0  0  0  0  0  0  0  0
  139.4802   70.2126  223.5564 H   0  0  0  0  0  0  0  0  0  0  0  0
  139.2284   66.8083  225.6480 H   0  0  0  0  0  0  0  0  0  0  0  0
  140.2440   67.3340  228.0160 H   0  0  0  0  0  0  0  0  0  0  0  0
  141.2783   69.6075  229.3041 H   0  0  0  0  0  0  0  0  0  0  0  0
  141.7574   72.0103  229.0142 H   0  0  0  0  0  0  0  0  0  0  0  0
  141.2132   73.1339  226.8377 H   0  0  0  0  0  0  0  0  0  0  0  0
  140.1958   71.7808  224.9962 H   0  0  0  0  0  0  0  0  0  0  0  0
  141.2400   71.4530  220.0219 H   0  0  0  0  0  0  0  0  0  0  0  0
  139.6591   71.4197  219.1442 H   0  0  0  0  0  0  0  0  0  0  0  0
  141.1730   73.2416  218.3822 H   0  0  0  0  0  0  0  0  0  0  0  0
  139.6023   73.8284  219.0558 H   0  0  0  0  0  0  0  0  0  0  0  0
  1  2  1  0
  2  3  1  0
  3  4  2  0
  3  5  1  0
  5  6  1  0
  6  7  2  0
  7  8  1  0
  8  9  2  0
  9 10  1  0
 10 11  2  0
  5 12  1  0
 12 13  1  0
 13 14  1  0
 14 15  1  0
 15 16  1  0
 16 17  2  0
 16 18  1  0
 18 19  1  0
 19 20  1  0
 19 21  1  0
 21 22  1  0
 22 23  1  0
 23 24  2  0
 24 25  1  0
 25 26  1  0
 26 27  2  0
 27 28  1  0
 28 29  2  0
 29 30  1  0
 30 31  2  0
 15 32  1  0
 32 33  1  0
 11  6  1  0
 33 12  1  0
 31 23  1  0
 31 26  1  0
  1 34  1  0
  1 35  1  0
  1 36  1  0
  2 37  1  0
  2 38  1  0
  7 39  1  0
  8 40  1  0
  9 41  1  0
 10 42  1  0
 11 43  1  0
 12 44  1  0
 13 45  1  0
 13 46  1  0
 14 47  1  0
 14 48  1  0
 18 49  1  0
 18 50  1  0
 19 51  1  1
 20 52  1  0
 20 53  1  0
 21 54  1  0
 21 55  1  0
 22 56  1  0
 22 57  1  0
 24 58  1  0
 25 59  1  0
 27 60  1  0
 28 61  1  0
 29 62  1  0
 30 63  1  0
 32 64  1  0
 32 65  1  0
 33 66  1  0
 33 67  1  0
M  END
>  <smiles>  (70) 
CCC(=O)N(c1ccccc1)C1CCN(C(=O)CC(N)CCc2c[nH]c3ccccc23)CC1

>  <score_type>  (70) 
oracle

>  <origin>  (70) 
autodockgpu

>  <m_score__min__energy>  (70) 
-9.5899999999999999

>  <m_primary>  (70) 
energy

>  <rmsd>  (70) 
11.706459391933553

>  <m_score__min__rmsd>  (70) 
11.706459391933553

>  <meeko>  (70) 
{"free_energy": -7.49, "intermolecular_energy": -10.47, "internal_energy": -2.5, "cluster_size": 1, "cluster_id": 7, "rank_in_cluster": 1}

>  <energy>  (70) 
-8.63

>  <cluster_rmsd>  (70) 
1.38

>  <cluster>  (70) 
1

$$$$

     RDKit          3D

 67 70  0  0  0  0  0  0  0  0999 V2000
  142.1220   79.5550  217.2780 C   0  0  0  0  0  0  0  0  0  0  0  0
  142.0290   79.8110  218.7680 C   0  0  0  0  0  0  0  0  0  0  0  0
  142.1300   78.5100  219.4870 C   0  0  0  0  0  0  0  0  0  0  0  0
  142.8960   77.6530  219.0050 O   0  0  0  0  0  0  0  0  0  0  0  0
  141.3570   78.3150  220.6720 N   0  0  0  0  0  0  0  0  0  0  0  0
  141.4580   79.2480  221.7670 C   0  0  0  0  0  0  0  0  0  0  0  0
  142.5950   79.3440  222.5410 C   0  0  0  0  0  0  0  0  0  0  0  0
  142.5790   80.2810  223.5720 C   0  0  0  0  0  0  0  0  0  0  0  0
  141.4690   81.0810  223.8100 C   0  0  0  0  0  0  0  0  0  0  0  0
  140.3430   80.9690  223.0250 C   0  0  0  0  0  0  0  0  0  0  0  0
  140.3520   80.0430  222.0010 C   0  0  0  0  0  0  0  0  0  0  0  0
  140.4590   77.2000  220.8220 C   0  0  0  0  0  0  0  0  0  0  0  0
  140.3090   76.7610  222.2830 C   0  0  0  0  0  0  0  0  0  0  0  0
  139.2280   75.6630  222.2620 C   0  0  0  0  0  0  0  0  0  0  0  0
  139.8220   74.5030  221.6560 N   0  0  0  0  0  0  0  0  0  0  0  0
  139.3960   73.1720  221.7140 C   0  0  0  0  0  0  0  0  0  0  0  0
  140.1630   72.3370  221.0620 O   0  0  0  0  0  0  0  0  0  0  0  0
  138.2690   72.5240  222.3520 C   0  0  0  0  0  0  0  0  0  0  0  0
  138.1540   71.0570  222.4140 C   0  0  1  0  0  0  0  0  0  0  0  0
  139.0140   70.3310  221.5060 N   0  0  0  0  0  0  0  0  0  0  0  0
  138.5490   70.5810  223.8160 C   0  0  0  0  0  0  0  0  0  0  0  0
  139.2260   69.2450  223.8350 C   0  0  0  0  0  0  0  0  0  0  0  0
  139.6110   68.9940  225.2870 C   0  0  0  0  0  0  0  0  0  0  0  0
  139.4740   67.8180  225.9850 C   0  0  0  0  0  0  0  0  0  0  0  0
  139.9440   68.0670  227.2200 N   0  0  0  0  0  0  0  0  0  0  0  0
  140.3660   69.3430  227.3190 C   0  0  0  0  0  0  0  0  0  0  0  0
  140.9220   70.0960  228.3380 C   0  0  0  0  0  0  0  0  0  0  0  0
  141.2760   71.4230  228.1740 C   0  0  0  0  0  0  0  0  0  0  0  0
  141.0710   72.0400  226.9400 C   0  0  0  0  0  0  0  0  0  0  0  0
  140.5130   71.2960  225.9030 C   0  0  0  0  0  0  0  0  0  0  0  0
  140.1690   69.9670  226.1030 C   0  0  0  0  0  0  0  0  0  0  0  0
  141.0480   74.7750  220.8630 C   0  0  0  0  0  0  0  0  0  0  0  0
  140.8700   75.9960  219.9910 C   0  0  0  0  0  0  0  0  0  0  0  0
  142.4928   78.5341  217.1038 H   0  0  0  0  0  0  0  0  0  0  0  0
  141.1262   79.6658  216.8241 H   0  0  0  0  0  0  0  0  0  0  0  0
  142.8145   80.2791  216.8241 H   0  0  0  0  0  0  0  0  0  0  0  0
  142.8511   80.4712  219.0815 H   0  0  0  0  0  0  0  0  0  0  0  0
  141.0698   80.2947  219.0045 H   0  0  0  0  0  0  0  0  0  0  0  0
  143.4741   78.7101  222.3532 H   0  0  0  0  0  0  0  0  0  0  0  0
  143.4665   80.3897  224.2127 H   0  0  0  0  0  0  0  0  0  0  0  0
  141.4894   81.8107  224.6329 H   0  0  0  0  0  0  0  0  0  0  0  0
  139.4608   81.5999  223.2088 H   0  0  0  0  0  0  0  0  0  0  0  0
  139.4640   79.9362  221.3607 H   0  0  0  0  0  0  0  0  0  0  0  0
  139.4904   77.5699  220.4547 H   0  0  0  0  0  0  0  0  0  0  0  0
  141.2593   76.3603  222.6656 H   0  0  0  0  0  0  0  0  0  0  0  0
  140.0329   77.5993  222.9395 H   0  0  0  0  0  0  0  0  0  0  0  0
  138.9052   75.4305  223.2875 H   0  0  0  0  0  0  0  0  0  0  0  0
  138.3434   75.9925  221.6973 H   0  0  0  0  0  0  0  0  0  0  0  0
  138.2560   72.8797  223.3928 H   0  0  0  0  0  0  0  0  0  0  0  0
  137.4351   72.7968  221.6885 H   0  0  0  0  0  0  0  0  0  0  0  0
  137.1090   70.8511  222.1390 H   0  0  0  0  0  0  0  0  0  0  0  0
  138.9050   70.6300  220.5400 H   0  0  0  0  0  0  0  0  0  0  0  0
  139.9730   70.3300  221.8880 H   0  0  0  0  0  0  0  0  0  0  0  0
  139.2337   71.3225  224.2534 H   0  0  0  0  0  0  0  0  0  0  0  0
  137.6175   70.4752  224.3915 H   0  0  0  0  0  0  0  0  0  0  0  0
  138.5389   68.4626  223.4804 H   0  0  0  0  0  0  0  0  0  0  0  0
  140.1057   69.2281  223.1748 H   0  0  0  0  0  0  0  0  0  0  0  0
  139.0642   66.8684  225.6104 H   0  0  0  0  0  0  0  0  0  0  0  0
  139.9890   67.3830  228.0170 H   0  0  0  0  0  0  0  0  0  0  0  0
  141.0889   69.6211  229.3161 H   0  0  0  0  0  0  0  0  0  0  0  0
  141.7156   71.9871  229.0098 H   0  0  0  0  0  0  0  0  0  0  0  0
  141.3449   73.0945  226.7886 H   0  0  0  0  0  0  0  0  0  0  0  0
  140.3445   71.7640  224.9219 H   0  0  0  0  0  0  0  0  0  0  0  0
  141.8905   74.9434  221.5499 H   0  0  0  0  0  0  0  0  0  0  0  0
  141.2456   73.9081  220.2154 H   0  0  0  0  0  0  0  0  0  0  0  0
  141.8199   76.2168  219.4821 H   0  0  0  0  0  0  0  0  0  0  0  0
  140.0789   75.7902  219.2550 H   0  0  0  0  0  0  0  0  0  0  0  0
  1  2  1  0
  2  3  1  0
  3  4  2  0
  3  5  1  0
  5  6  1  0
  6  7  2  0
  7  8  1  0
  8  9  2  0
  9 10  1  0
 10 11  2  0
  5 12  1  0
 12 13  1  0
 13 14  1  0
 14 15  1  0
 15 16  1  0
 16 17  2  0
 16 18  1  0
 18 19  1  0
 19 20  1  0
 19 21  1  0
 21 22  1  0
 22 23  1  0
 23 24  2  0
 24 25  1  0
 25 26  1  0
 26 27  2  0
 27 28  1  0
 28 29  2  0
 29 30  1  0
 30 31  2  0
 15 32  1  0
 32 33  1  0
 11  6  1  0
 33 12  1  0
 31 23  1  0
 31 26  1  0
  1 34  1  0
  1 35  1  0
  1 36  1  0
  2 37  1  0
  2 38  1  0
  7 39  1  0
  8 40  1  0
  9 41  1  0
 10 42  1  0
 11 43  1  0
 12 44  1  0
 13 45  1  0
 13 46  1  0
 14 47  1  0
 14 48  1  0
 18 49  1  0
 18 50  1  0
 19 51  1  6
 20 52  1  0
 20 53  1  0
 21 54  1  0
 21 55  1  0
 22 56  1  0
 22 57  1  0
 24 58  1  0
 25 59  1  0
 27 60  1  0
 28 61  1  0
 29 62  1  0
 30 63  1  0
 32 64  1  0
 32 65  1  0
 33 66  1  0
 33 67  1  0
M  END
>  <smiles>  (71) 
CCC(=O)N(c1ccccc1)C1CCN(C(=O)CC(N)CCc2c[nH]c3ccccc23)CC1

>  <score_type>  (71) 
oracle

>  <origin>  (71) 
autodockgpu

>  <m_score__min__energy>  (71) 
-9.5899999999999999

>  <m_primary>  (71) 
energy

>  <rmsd>  (71) 
11.23092397017567

>  <m_score__min__rmsd>  (71) 
11.23092397017567

>  <meeko>  (71) 
{"free_energy": -8.64, "intermolecular_energy": -11.62, "internal_energy": -2.06, "cluster_size": 27, "cluster_id": 1, "rank_in_cluster": 19}

>  <energy>  (71) 
-8.61

>  <cluster_rmsd>  (71) 
1.49

>  <cluster>  (71) 
1

$$$$

     RDKit          3D

 67 70  0  0  0  0  0  0  0  0999 V2000
  142.6750   77.6420  218.4710 C   0  0  0  0  0  0  0  0  0  0  0  0
  142.2020   78.9360  219.0990 C   0  0  0  0  0  0  0  0  0  0  0  0
  140.9490   78.6700  219.8630 C   0  0  0  0  0  0  0  0  0  0  0  0
  139.8780   78.7120  219.2280 O   0  0  0  0  0  0  0  0  0  0  0  0
  141.0410   78.3830  221.2590 N   0  0  0  0  0  0  0  0  0  0  0  0
  141.5230   79.3870  222.1770 C   0  0  0  0  0  0  0  0  0  0  0  0
  142.8510   79.4700  222.5340 C   0  0  0  0  0  0  0  0  0  0  0  0
  143.2020   80.4790  223.4280 C   0  0  0  0  0  0  0  0  0  0  0  0
  142.2570   81.3600  223.9370 C   0  0  0  0  0  0  0  0  0  0  0  0
  140.9340   81.2590  223.5670 C   0  0  0  0  0  0  0  0  0  0  0  0
  140.5790   80.2620  222.6810 C   0  0  0  0  0  0  0  0  0  0  0  0
  140.6620   77.1050  221.8020 C   0  0  0  0  0  0  0  0  0  0  0  0
  141.0420   75.9410  220.8810 C   0  0  0  0  0  0  0  0  0  0  0  0
  140.6840   74.6690  221.6740 C   0  0  0  0  0  0  0  0  0  0  0  0
  139.2500   74.5810  221.6970 N   0  0  0  0  0  0  0  0  0  0  0  0
  138.4460   73.4700  221.9750 C   0  0  0  0  0  0  0  0  0  0  0  0
  137.1620   73.7090  221.9030 O   0  0  0  0  0  0  0  0  0  0  0  0
  138.7480   72.0990  222.3280 C   0  0  0  0  0  0  0  0  0  0  0  0
  138.2800   71.5050  223.5920 C   0  0  1  0  0  0  0  0  0  0  0  0
  136.9510   71.8990  224.0050 N   0  0  0  0  0  0  0  0  0  0  0  0
  138.2240   69.9810  223.4400 C   0  0  0  0  0  0  0  0  0  0  0  0
  139.5600   69.3130  223.5370 C   0  0  0  0  0  0  0  0  0  0  0  0
  139.7520   68.9760  225.0100 C   0  0  0  0  0  0  0  0  0  0  0  0
  139.5040   67.7700  225.6200 C   0  0  0  0  0  0  0  0  0  0  0  0
  139.8180   67.9420  226.9170 N   0  0  0  0  0  0  0  0  0  0  0  0
  140.2480   69.2000  227.1380 C   0  0  0  0  0  0  0  0  0  0  0  0
  140.6820   69.8850  228.2590 C   0  0  0  0  0  0  0  0  0  0  0  0
  141.0800   71.2090  228.2140 C   0  0  0  0  0  0  0  0  0  0  0  0
  141.0470   71.8950  227.0000 C   0  0  0  0  0  0  0  0  0  0  0  0
  140.6120   71.2200  225.8610 C   0  0  0  0  0  0  0  0  0  0  0  0
  140.2200   69.8910  225.9430 C   0  0  0  0  0  0  0  0  0  0  0  0
  138.5440   75.8510  221.3880 C   0  0  0  0  0  0  0  0  0  0  0  0
  139.1770   77.0140  222.1140 C   0  0  0  0  0  0  0  0  0  0  0  0
  142.9372   76.9246  219.2626 H   0  0  0  0  0  0  0  0  0  0  0  0
  141.8722   77.2223  217.8471 H   0  0  0  0  0  0  0  0  0  0  0  0
  143.5593   77.8390  217.8471 H   0  0  0  0  0  0  0  0  0  0  0  0
  142.9755   79.3208  219.7799 H   0  0  0  0  0  0  0  0  0  0  0  0
  142.0100   79.6834  218.3151 H   0  0  0  0  0  0  0  0  0  0  0  0
  143.5997   78.7717  222.1316 H   0  0  0  0  0  0  0  0  0  0  0  0
  144.2525   80.5802  223.7380 H   0  0  0  0  0  0  0  0  0  0  0  0
  142.5676   82.1454  224.6418 H   0  0  0  0  0  0  0  0  0  0  0  0
  140.1809   81.9540  223.9668 H   0  0  0  0  0  0  0  0  0  0  0  0
  139.5283   80.1621  222.3711 H   0  0  0  0  0  0  0  0  0  0  0  0
  141.2278   77.0220  222.7416 H   0  0  0  0  0  0  0  0  0  0  0  0
  140.4677   75.9865  219.9440 H   0  0  0  0  0  0  0  0  0  0  0  0
  142.1055   75.9668  220.6011 H   0  0  0  0  0  0  0  0  0  0  0  0
  141.1094   73.7830  221.1800 H   0  0  0  0  0  0  0  0  0  0  0  0
  141.0921   74.7135  222.6945 H   0  0  0  0  0  0  0  0  0  0  0  0
  138.3371   71.4740  221.5215 H   0  0  0  0  0  0  0  0  0  0  0  0
  139.8381   72.1285  222.4721 H   0  0  0  0  0  0  0  0  0  0  0  0
  138.9961   71.8629  224.3464 H   0  0  0  0  0  0  0  0  0  0  0  0
  136.6870   71.5020  224.9030 H   0  0  0  0  0  0  0  0  0  0  0  0
  136.8620   72.9220  223.9030 H   0  0  0  0  0  0  0  0  0  0  0  0
  137.5765   69.5773  224.2323 H   0  0  0  0  0  0  0  0  0  0  0  0
  137.8358   69.7744  222.4317 H   0  0  0  0  0  0  0  0  0  0  0  0
  139.5743   68.3960  222.9296 H   0  0  0  0  0  0  0  0  0  0  0  0
  140.3648   69.9630  223.1631 H   0  0  0  0  0  0  0  0  0  0  0  0
  139.1263   66.8523  225.1454 H   0  0  0  0  0  0  0  0  0  0  0  0
  139.7470   67.2180  227.6740 H   0  0  0  0  0  0  0  0  0  0  0  0
  140.7117   69.3564  229.2232 H   0  0  0  0  0  0  0  0  0  0  0  0
  141.4199   71.7170  229.1286 H   0  0  0  0  0  0  0  0  0  0  0  0
  141.3583   72.9485  226.9427 H   0  0  0  0  0  0  0  0  0  0  0  0
  140.5792   71.7423  224.8935 H   0  0  0  0  0  0  0  0  0  0  0  0
  138.5920   76.0345  220.3045 H   0  0  0  0  0  0  0  0  0  0  0  0
  137.4987   75.7595  221.7181 H   0  0  0  0  0  0  0  0  0  0  0  0
  138.6850   77.9460  221.7989 H   0  0  0  0  0  0  0  0  0  0  0  0
  139.0540   76.8615  223.1964 H   0  0  0  0  0  0  0  0  0  0  0  0
  1  2  1  0
  2  3  1  0
  3  4  2  0
  3  5  1  0
  5  6  1  0
  6  7  2  0
  7  8  1  0
  8  9  2  0
  9 10  1  0
 10 11  2  0
  5 12  1  0
 12 13  1  0
 13 14  1  0
 14 15  1  0
 15 16  1  0
 16 17  2  0
 16 18  1  0
 18 19  1  0
 19 20  1  0
 19 21  1  0
 21 22  1  0
 22 23  1  0
 23 24  2  0
 24 25  1  0
 25 26  1  0
 26 27  2  0
 27 28  1  0
 28 29  2  0
 29 30  1  0
 30 31  2  0
 15 32  1  0
 32 33  1  0
 11  6  1  0
 33 12  1  0
 31 23  1  0
 31 26  1  0
  1 34  1  0
  1 35  1  0
  1 36  1  0
  2 37  1  0
  2 38  1  0
  7 39  1  0
  8 40  1  0
  9 41  1  0
 10 42  1  0
 11 43  1  0
 12 44  1  0
 13 45  1  0
 13 46  1  0
 14 47  1  0
 14 48  1  0
 18 49  1  0
 18 50  1  0
 19 51  1  1
 20 52  1  0
 20 53  1  0
 21 54  1  0
 21 55  1  0
 22 56  1  0
 22 57  1  0
 24 58  1  0
 25 59  1  0
 27 60  1  0
 28 61  1  0
 29 62  1  0
 30 63  1  0
 32 64  1  0
 32 65  1  0
 33 66  1  0
 33 67  1  0
M  END
>  <smiles>  (72) 
CCC(=O)N(c1ccccc1)C1CCN(C(=O)CC(N)CCc2c[nH]c3ccccc23)CC1

>  <score_type>  (72) 
oracle

>  <origin>  (72) 
autodockgpu

>  <m_score__min__energy>  (72) 
-9.5899999999999999

>  <m_primary>  (72) 
energy

>  <rmsd>  (72) 
11.415540682487888

>  <m_score__min__rmsd>  (72) 
11.415540682487888

>  <meeko>  (72) 
{"free_energy": -9.08, "intermolecular_energy": -12.06, "internal_energy": -2.17, "cluster_size": 27, "cluster_id": 1, "rank_in_cluster": 5}

>  <energy>  (72) 
-8.57

>  <cluster_rmsd>  (72) 
1.94

>  <cluster>  (72) 
1

$$$$

     RDKit          3D

 67 70  0  0  0  0  0  0  0  0999 V2000
  137.7950   80.8720  224.6150 C   0  0  0  0  0  0  0  0  0  0  0  0
  138.0390   81.2550  223.1710 C   0  0  0  0  0  0  0  0  0  0  0  0
  137.9350   80.0310  222.3250 C   0  0  0  0  0  0  0  0  0  0  0  0
  136.8600   79.8460  221.7240 O   0  0  0  0  0  0  0  0  0  0  0  0
  139.0560   79.1490  222.2490 N   0  0  0  0  0  0  0  0  0  0  0  0
  140.3690   79.6060  222.6350 C   0  0  0  0  0  0  0  0  0  0  0  0
  140.9340   79.2640  223.8440 C   0  0  0  0  0  0  0  0  0  0  0  0
  142.2070   79.7630  224.1100 C   0  0  0  0  0  0  0  0  0  0  0  0
  142.8760   80.5690  223.1980 C   0  0  0  0  0  0  0  0  0  0  0  0
  142.2930   80.8990  221.9950 C   0  0  0  0  0  0  0  0  0  0  0  0
  141.0320   80.4080  221.7250 C   0  0  0  0  0  0  0  0  0  0  0  0
  138.9270   77.7900  221.7940 C   0  0  0  0  0  0  0  0  0  0  0  0
  138.1350   76.9160  222.7730 C   0  0  0  0  0  0  0  0  0  0  0  0
  137.9890   75.5540  222.0670 C   0  0  0  0  0  0  0  0  0  0  0  0
  139.2850   74.9330  222.0880 N   0  0  0  0  0  0  0  0  0  0  0  0
  139.6120   73.5860  221.8990 C   0  0  0  0  0  0  0  0  0  0  0  0
  140.8920   73.3290  221.9900 O   0  0  0  0  0  0  0  0  0  0  0  0
  138.8170   72.4080  221.6210 C   0  0  0  0  0  0  0  0  0  0  0  0
  137.9400   71.8080  222.6400 C   0  0  1  0  0  0  0  0  0  0  0  0
  137.2470   70.6070  222.2290 N   0  0  0  0  0  0  0  0  0  0  0  0
  138.7850   71.3970  223.8500 C   0  0  0  0  0  0  0  0  0  0  0  0
  139.5290   70.1110  223.6620 C   0  0  0  0  0  0  0  0  0  0  0  0
  139.8190   69.5880  225.0620 C   0  0  0  0  0  0  0  0  0  0  0  0
  139.5830   68.3180  225.5330 C   0  0  0  0  0  0  0  0  0  0  0  0
  139.9950   68.3190  226.8140 N   0  0  0  0  0  0  0  0  0  0  0  0
  140.4740   69.5320  227.1570 C   0  0  0  0  0  0  0  0  0  0  0  0
  141.0080   70.0610  228.3190 C   0  0  0  0  0  0  0  0  0  0  0  0
  141.4370   71.3730  228.4100 C   0  0  0  0  0  0  0  0  0  0  0  0
  141.3340   72.2070  227.2970 C   0  0  0  0  0  0  0  0  0  0  0  0
  140.7990   71.6900  226.1190 C   0  0  0  0  0  0  0  0  0  0  0  0
  140.3780   70.3690  226.0630 C   0  0  0  0  0  0  0  0  0  0  0  0
  140.4160   75.8620  222.3390 C   0  0  0  0  0  0  0  0  0  0  0  0
  140.2690   77.1280  221.5280 C   0  0  0  0  0  0  0  0  0  0  0  0
  138.2675   81.6136  225.2759 H   0  0  0  0  0  0  0  0  0  0  0  0
  136.7126   80.8446  224.8092 H   0  0  0  0  0  0  0  0  0  0  0  0
  138.2276   79.8795  224.8092 H   0  0  0  0  0  0  0  0  0  0  0  0
  137.2861   81.9905  222.8513 H   0  0  0  0  0  0  0  0  0  0  0  0
  139.0403   81.6980  223.0659 H   0  0  0  0  0  0  0  0  0  0  0  0
  140.4040   78.6259  224.5664 H   0  0  0  0  0  0  0  0  0  0  0  0
  142.6936   79.5130  225.0643 H   0  0  0  0  0  0  0  0  0  0  0  0
  143.8805   80.9471  223.4388 H   0  0  0  0  0  0  0  0  0  0  0  0
  142.8183   81.5368  221.2688 H   0  0  0  0  0  0  0  0  0  0  0  0
  140.5466   80.6588  220.7703 H   0  0  0  0  0  0  0  0  0  0  0  0
  138.3731   77.8645  220.8466 H   0  0  0  0  0  0  0  0  0  0  0  0
  138.6827   76.8033  223.7202 H   0  0  0  0  0  0  0  0  0  0  0  0
  137.1590   77.3575  223.0230 H   0  0  0  0  0  0  0  0  0  0  0  0
  137.2602   74.9269  222.6014 H   0  0  0  0  0  0  0  0  0  0  0  0
  137.6296   75.6814  221.0352 H   0  0  0  0  0  0  0  0  0  0  0  0
  138.1704   72.6652  220.7691 H   0  0  0  0  0  0  0  0  0  0  0  0
  139.5859   71.6327  221.4881 H   0  0  0  0  0  0  0  0  0  0  0  0
  137.1895   72.5844  222.8495 H   0  0  0  0  0  0  0  0  0  0  0  0
  136.2690   70.7750  222.0080 H   0  0  0  0  0  0  0  0  0  0  0  0
  137.8120   70.1280  221.5100 H   0  0  0  0  0  0  0  0  0  0  0  0
  139.5163   72.1943  224.0486 H   0  0  0  0  0  0  0  0  0  0  0  0
  138.0892   71.2437  224.6881 H   0  0  0  0  0  0  0  0  0  0  0  0
  138.9127   69.3904  223.1045 H   0  0  0  0  0  0  0  0  0  0  0  0
  140.4548   70.2604  223.0870 H   0  0  0  0  0  0  0  0  0  0  0  0
  139.1471   67.4748  224.9771 H   0  0  0  0  0  0  0  0  0  0  0  0
  139.9610   67.5060  227.4780 H   0  0  0  0  0  0  0  0  0  0  0  0
  141.0946   69.4135  229.2040 H   0  0  0  0  0  0  0  0  0  0  0  0
  141.8559   71.7553  229.3525 H   0  0  0  0  0  0  0  0  0  0  0  0
  141.6689   73.2535  227.3482 H   0  0  0  0  0  0  0  0  0  0  0  0
  140.7100   72.3315  225.2299 H   0  0  0  0  0  0  0  0  0  0  0  0
  140.4384   76.1205  223.4080 H   0  0  0  0  0  0  0  0  0  0  0  0
  141.3506   75.3633  222.0427 H   0  0  0  0  0  0  0  0  0  0  0  0
  141.0749   77.8255  221.8001 H   0  0  0  0  0  0  0  0  0  0  0  0
  140.3281   76.8701  220.4603 H   0  0  0  0  0  0  0  0  0  0  0  0
  1  2  1  0
  2  3  1  0
  3  4  2  0
  3  5  1  0
  5  6  1  0
  6  7  2  0
  7  8  1  0
  8  9  2  0
  9 10  1  0
 10 11  2  0
  5 12  1  0
 12 13  1  0
 13 14  1  0
 14 15  1  0
 15 16  1  0
 16 17  2  0
 16 18  1  0
 18 19  1  0
 19 20  1  0
 19 21  1  0
 21 22  1  0
 22 23  1  0
 23 24  2  0
 24 25  1  0
 25 26  1  0
 26 27  2  0
 27 28  1  0
 28 29  2  0
 29 30  1  0
 30 31  2  0
 15 32  1  0
 32 33  1  0
 11  6  1  0
 33 12  1  0
 31 23  1  0
 31 26  1  0
  1 34  1  0
  1 35  1  0
  1 36  1  0
  2 37  1  0
  2 38  1  0
  7 39  1  0
  8 40  1  0
  9 41  1  0
 10 42  1  0
 11 43  1  0
 12 44  1  0
 13 45  1  0
 13 46  1  0
 14 47  1  0
 14 48  1  0
 18 49  1  0
 18 50  1  0
 19 51  1  1
 20 52  1  0
 20 53  1  0
 21 54  1  0
 21 55  1  0
 22 56  1  0
 22 57  1  0
 24 58  1  0
 25 59  1  0
 27 60  1  0
 28 61  1  0
 29 62  1  0
 30 63  1  0
 32 64  1  0
 32 65  1  0
 33 66  1  0
 33 67  1  0
M  END
>  <smiles>  (73) 
CCC(=O)N(c1ccccc1)C1CCN(C(=O)CC(N)CCc2c[nH]c3ccccc23)CC1

>  <score_type>  (73) 
oracle

>  <origin>  (73) 
autodockgpu

>  <m_score__min__energy>  (73) 
-9.5899999999999999

>  <m_primary>  (73) 
energy

>  <rmsd>  (73) 
10.946040900617295

>  <m_score__min__rmsd>  (73) 
10.946040900617295

>  <meeko>  (73) 
{"free_energy": -8.66, "intermolecular_energy": -11.64, "internal_energy": -1.62, "cluster_size": 15, "cluster_id": 2, "rank_in_cluster": 9}

>  <energy>  (73) 
-8.51

>  <cluster_rmsd>  (73) 
1.99

>  <cluster>  (73) 
1

$$$$

     RDKit          3D

 67 70  0  0  0  0  0  0  0  0999 V2000
  142.5620   78.6940  217.5600 C   0  0  0  0  0  0  0  0  0  0  0  0
  142.0600   79.0020  218.9560 C   0  0  0  0  0  0  0  0  0  0  0  0
  142.1850   77.7750  219.7930 C   0  0  0  0  0  0  0  0  0  0  0  0
  143.1530   77.0260  219.5630 O   0  0  0  0  0  0  0  0  0  0  0  0
  141.2030   77.5250  220.7990 N   0  0  0  0  0  0  0  0  0  0  0  0
  140.9380   78.5120  221.8180 C   0  0  0  0  0  0  0  0  0  0  0  0
  139.7920   79.2780  221.8100 C   0  0  0  0  0  0  0  0  0  0  0  0
  139.6420   80.1990  222.8440 C   0  0  0  0  0  0  0  0  0  0  0  0
  140.6030   80.3410  223.8370 C   0  0  0  0  0  0  0  0  0  0  0  0
  141.7410   79.5650  223.8260 C   0  0  0  0  0  0  0  0  0  0  0  0
  141.8960   78.6490  222.8040 C   0  0  0  0  0  0  0  0  0  0  0  0
  140.4470   76.3010  220.8410 C   0  0  0  0  0  0  0  0  0  0  0  0
  139.7900   76.0630  222.2050 C   0  0  0  0  0  0  0  0  0  0  0  0
  138.9320   74.7960  222.0210 C   0  0  0  0  0  0  0  0  0  0  0  0
  139.8400   73.6870  221.9260 N   0  0  0  0  0  0  0  0  0  0  0  0
  139.5770   72.3240  222.0980 C   0  0  0  0  0  0  0  0  0  0  0  0
  140.6260   71.5550  221.9560 O   0  0  0  0  0  0  0  0  0  0  0  0
  138.3710   71.5840  222.4040 C   0  0  0  0  0  0  0  0  0  0  0  0
  137.8980   71.4140  223.7880 C   0  0  1  0  0  0  0  0  0  0  0  0
  136.5890   71.9630  224.0660 N   0  0  0  0  0  0  0  0  0  0  0  0
  137.7850   69.9170  224.1000 C   0  0  0  0  0  0  0  0  0  0  0  0
  139.0670   69.1630  223.9260 C   0  0  0  0  0  0  0  0  0  0  0  0
  139.5770   68.8770  225.3320 C   0  0  0  0  0  0  0  0  0  0  0  0
  139.5820   67.6630  225.9760 C   0  0  0  0  0  0  0  0  0  0  0  0
  140.1220   67.8920  227.1880 N   0  0  0  0  0  0  0  0  0  0  0  0
  140.4490   69.1930  227.3220 C   0  0  0  0  0  0  0  0  0  0  0  0
  141.0180   69.9410  228.3380 C   0  0  0  0  0  0  0  0  0  0  0  0
  141.2550   71.2980  228.2190 C   0  0  0  0  0  0  0  0  0  0  0  0
  140.9120   71.9530  227.0360 C   0  0  0  0  0  0  0  0  0  0  0  0
  140.3390   71.2140  226.0030 C   0  0  0  0  0  0  0  0  0  0  0  0
  140.1160   69.8540  226.1570 C   0  0  0  0  0  0  0  0  0  0  0  0
  141.2400   74.0570  221.5920 C   0  0  0  0  0  0  0  0  0  0  0  0
  141.2810   75.0810  220.4840 C   0  0  0  0  0  0  0  0  0  0  0  0
  143.4979   78.1198  217.6253 H   0  0  0  0  0  0  0  0  0  0  0  0
  141.8066   78.1038  217.0206 H   0  0  0  0  0  0  0  0  0  0  0  0
  142.7459   79.6349  217.0206 H   0  0  0  0  0  0  0  0  0  0  0  0
  142.6614   79.8118  219.3949 H   0  0  0  0  0  0  0  0  0  0  0  0
  141.0077   79.3196  218.9132 H   0  0  0  0  0  0  0  0  0  0  0  0
  139.0312   79.1670  221.0234 H   0  0  0  0  0  0  0  0  0  0  0  0
  138.7409   80.8291  222.8751 H   0  0  0  0  0  0  0  0  0  0  0  0
  140.4539   81.0793  224.6387 H   0  0  0  0  0  0  0  0  0  0  0  0
  142.5054   79.6719  224.6097 H   0  0  0  0  0  0  0  0  0  0  0  0
  142.7968   78.0183  222.7746 H   0  0  0  0  0  0  0  0  0  0  0  0
  139.6631   76.4314  220.0804 H   0  0  0  0  0  0  0  0  0  0  0  0
  140.5546   75.9026  222.9794 H   0  0  0  0  0  0  0  0  0  0  0  0
  139.1884   76.9250  222.5290 H   0  0  0  0  0  0  0  0  0  0  0  0
  138.2626   74.6639  222.8838 H   0  0  0  0  0  0  0  0  0  0  0  0
  138.3071   74.8714  221.1189 H   0  0  0  0  0  0  0  0  0  0  0  0
  137.5560   72.0809  221.8573 H   0  0  0  0  0  0  0  0  0  0  0  0
  138.6485   70.5572  222.1234 H   0  0  0  0  0  0  0  0  0  0  0  0
  138.6361   71.9543  224.3990 H   0  0  0  0  0  0  0  0  0  0  0  0
  136.6170   72.9610  224.2610 H   0  0  0  0  0  0  0  0  0  0  0  0
  135.9360   71.6500  223.3320 H   0  0  0  0  0  0  0  0  0  0  0  0
  137.4558   69.8045  225.1435 H   0  0  0  0  0  0  0  0  0  0  0  0
  137.0659   69.4945  223.3827 H   0  0  0  0  0  0  0  0  0  0  0  0
  138.8871   68.2220  223.3854 H   0  0  0  0  0  0  0  0  0  0  0  0
  139.7984   69.7395  223.3405 H   0  0  0  0  0  0  0  0  0  0  0  0
  139.2195   66.7020  225.5823 H   0  0  0  0  0  0  0  0  0  0  0  0
  140.2780   67.1790  227.9430 H   0  0  0  0  0  0  0  0  0  0  0  0
  141.2922   69.4365  229.2762 H   0  0  0  0  0  0  0  0  0  0  0  0
  141.7102   71.8565  229.0502 H   0  0  0  0  0  0  0  0  0  0  0  0
  141.0905   73.0323  226.9209 H   0  0  0  0  0  0  0  0  0  0  0  0
  140.0625   71.7113  225.0616 H   0  0  0  0  0  0  0  0  0  0  0  0
  141.7242   74.4758  222.4865 H   0  0  0  0  0  0  0  0  0  0  0  0
  141.7691   73.1540  221.2534 H   0  0  0  0  0  0  0  0  0  0  0  0
  142.3231   75.3927  220.3201 H   0  0  0  0  0  0  0  0  0  0  0  0
  140.8673   74.6276  219.5712 H   0  0  0  0  0  0  0  0  0  0  0  0
  1  2  1  0
  2  3  1  0
  3  4  2  0
  3  5  1  0
  5  6  1  0
  6  7  2  0
  7  8  1  0
  8  9  2  0
  9 10  1  0
 10 11  2  0
  5 12  1  0
 12 13  1  0
 13 14  1  0
 14 15  1  0
 15 16  1  0
 16 17  2  0
 16 18  1  0
 18 19  1  0
 19 20  1  0
 19 21  1  0
 21 22  1  0
 22 23  1  0
 23 24  2  0
 24 25  1  0
 25 26  1  0
 26 27  2  0
 27 28  1  0
 28 29  2  0
 29 30  1  0
 30 31  2  0
 15 32  1  0
 32 33  1  0
 11  6  1  0
 33 12  1  0
 31 23  1  0
 31 26  1  0
  1 34  1  0
  1 35  1  0
  1 36  1  0
  2 37  1  0
  2 38  1  0
  7 39  1  0
  8 40  1  0
  9 41  1  0
 10 42  1  0
 11 43  1  0
 12 44  1  0
 13 45  1  0
 13 46  1  0
 14 47  1  0
 14 48  1  0
 18 49  1  0
 18 50  1  0
 19 51  1  1
 20 52  1  0
 20 53  1  0
 21 54  1  0
 21 55  1  0
 22 56  1  0
 22 57  1  0
 24 58  1  0
 25 59  1  0
 27 60  1  0
 28 61  1  0
 29 62  1  0
 30 63  1  0
 32 64  1  0
 32 65  1  0
 33 66  1  0
 33 67  1  0
M  END
>  <smiles>  (74) 
CCC(=O)N(c1ccccc1)C1CCN(C(=O)CC(N)CCc2c[nH]c3ccccc23)CC1

>  <score_type>  (74) 
oracle

>  <origin>  (74) 
autodockgpu

>  <m_score__min__energy>  (74) 
-9.5899999999999999

>  <m_primary>  (74) 
energy

>  <rmsd>  (74) 
11.556344180379588

>  <m_score__min__rmsd>  (74) 
11.556344180379588

>  <meeko>  (74) 
{"free_energy": -9.01, "intermolecular_energy": -11.99, "internal_energy": -1.7, "cluster_size": 27, "cluster_id": 1, "rank_in_cluster": 8}

>  <energy>  (74) 
-8.49

>  <cluster_rmsd>  (74) 
1.47

>  <cluster>  (74) 
1

$$$$

     RDKit          3D

 67 70  0  0  0  0  0  0  0  0999 V2000
  137.8040   80.6230  224.0380 C   0  0  0  0  0  0  0  0  0  0  0  0
  138.0080   81.2570  222.6770 C   0  0  0  0  0  0  0  0  0  0  0  0
  138.1870   80.1770  221.6660 C   0  0  0  0  0  0  0  0  0  0  0  0
  137.3970   80.1650  220.7020 O   0  0  0  0  0  0  0  0  0  0  0  0
  139.2370   79.2270  221.8510 N   0  0  0  0  0  0  0  0  0  0  0  0
  140.5330   79.6570  222.3160 C   0  0  0  0  0  0  0  0  0  0  0  0
  141.3490   80.4650  221.5540 C   0  0  0  0  0  0  0  0  0  0  0  0
  142.5790   80.8180  222.1060 C   0  0  0  0  0  0  0  0  0  0  0  0
  142.9660   80.3750  223.3640 C   0  0  0  0  0  0  0  0  0  0  0  0
  142.1340   79.5680  224.1080 C   0  0  0  0  0  0  0  0  0  0  0  0
  140.9140   79.2140  223.5680 C   0  0  0  0  0  0  0  0  0  0  0  0
  139.0520   77.8240  221.5870 C   0  0  0  0  0  0  0  0  0  0  0  0
  138.4450   77.0780  222.7800 C   0  0  0  0  0  0  0  0  0  0  0  0
  138.2020   75.6430  222.2740 C   0  0  0  0  0  0  0  0  0  0  0  0
  139.4910   75.0200  222.1520 N   0  0  0  0  0  0  0  0  0  0  0  0
  139.7990   73.6580  222.0720 C   0  0  0  0  0  0  0  0  0  0  0  0
  141.0790   73.4050  221.9780 O   0  0  0  0  0  0  0  0  0  0  0  0
  138.9840   72.4610  222.0710 C   0  0  0  0  0  0  0  0  0  0  0  0
  139.5010   71.1740  221.5760 C   0  0  1  0  0  0  0  0  0  0  0  0
  140.9260   71.1330  221.3300 N   0  0  0  0  0  0  0  0  0  0  0  0
  139.2390   70.0900  222.6270 C   0  0  0  0  0  0  0  0  0  0  0  0
  138.5900   70.6010  223.8760 C   0  0  0  0  0  0  0  0  0  0  0  0
  139.1290   69.7370  225.0090 C   0  0  0  0  0  0  0  0  0  0  0  0
  138.9610   68.3820  225.1650 C   0  0  0  0  0  0  0  0  0  0  0  0
  139.6070   68.0600  226.3000 N   0  0  0  0  0  0  0  0  0  0  0  0
  140.1660   69.1540  226.8540 C   0  0  0  0  0  0  0  0  0  0  0  0
  140.9210   69.3760  227.9930 C   0  0  0  0  0  0  0  0  0  0  0  0
  141.3860   70.6300  228.3440 C   0  0  0  0  0  0  0  0  0  0  0  0
  141.0910   71.7240  227.5300 C   0  0  0  0  0  0  0  0  0  0  0  0
  140.3330   71.5170  226.3790 C   0  0  0  0  0  0  0  0  0  0  0  0
  139.8830   70.2450  226.0580 C   0  0  0  0  0  0  0  0  0  0  0  0
  140.6350   75.9650  222.1000 C   0  0  0  0  0  0  0  0  0  0  0  0
  140.3400   77.1260  221.1810 C   0  0  0  0  0  0  0  0  0  0  0  0
  138.0400   81.3563  224.8232 H   0  0  0  0  0  0  0  0  0  0  0  0
  136.7570   80.3013  224.1394 H   0  0  0  0  0  0  0  0  0  0  0  0
  138.4670   79.7511  224.1394 H   0  0  0  0  0  0  0  0  0  0  0  0
  137.1289   81.8649  222.4169 H   0  0  0  0  0  0  0  0  0  0  0  0
  138.8981   81.9030  222.6953 H   0  0  0  0  0  0  0  0  0  0  0  0
  141.0437   80.8149  220.5568 H   0  0  0  0  0  0  0  0  0  0  0  0
  143.2598   81.4632  221.5313 H   0  0  0  0  0  0  0  0  0  0  0  0
  143.9448   80.6710  223.7695 H   0  0  0  0  0  0  0  0  0  0  0  0
  142.4337   79.2151  225.1058 H   0  0  0  0  0  0  0  0  0  0  0  0
  140.2341   78.5688  224.1437 H   0  0  0  0  0  0  0  0  0  0  0  0
  138.3477   77.7892  220.7428 H   0  0  0  0  0  0  0  0  0  0  0  0
  139.1436   77.0749  223.6296 H   0  0  0  0  0  0  0  0  0  0  0  0
  137.5183   77.5526  223.1349 H   0  0  0  0  0  0  0  0  0  0  0  0
  137.5803   75.0887  222.9925 H   0  0  0  0  0  0  0  0  0  0  0  0
  137.6748   75.6497  221.3086 H   0  0  0  0  0  0  0  0  0  0  0  0
  138.6811   72.2920  223.1149 H   0  0  0  0  0  0  0  0  0  0  0  0
  138.2105   72.7045  221.3277 H   0  0  0  0  0  0  0  0  0  0  0  0
  138.9810   71.0188  220.6192 H   0  0  0  0  0  0  0  0  0  0  0  0
  141.2080   71.7370  220.5620 H   0  0  0  0  0  0  0  0  0  0  0  0
  141.4200   71.2580  222.2270 H   0  0  0  0  0  0  0  0  0  0  0  0
  138.5824   69.3277  222.1823 H   0  0  0  0  0  0  0  0  0  0  0  0
  140.2189   69.6844  222.9190 H   0  0  0  0  0  0  0  0  0  0  0  0
  138.8539   71.6561  224.0404 H   0  0  0  0  0  0  0  0  0  0  0  0
  137.4931   70.5467  223.8129 H   0  0  0  0  0  0  0  0  0  0  0  0
  138.4113   67.7009  224.4987 H   0  0  0  0  0  0  0  0  0  0  0  0
  139.6820   67.1000  226.7210 H   0  0  0  0  0  0  0  0  0  0  0  0
  141.1602   68.5220  228.6438 H   0  0  0  0  0  0  0  0  0  0  0  0
  141.9837   70.7640  229.2577 H   0  0  0  0  0  0  0  0  0  0  0  0
  141.4497   72.7304  227.7916 H   0  0  0  0  0  0  0  0  0  0  0  0
  140.0907   72.3658  225.7226 H   0  0  0  0  0  0  0  0  0  0  0  0
  140.8302   76.3487  223.1123 H   0  0  0  0  0  0  0  0  0  0  0  0
  141.5140   75.4283  221.7136 H   0  0  0  0  0  0  0  0  0  0  0  0
  141.1708   77.8452  221.2309 H   0  0  0  0  0  0  0  0  0  0  0  0
  140.2249   76.7433  220.1562 H   0  0  0  0  0  0  0  0  0  0  0  0
  1  2  1  0
  2  3  1  0
  3  4  2  0
  3  5  1  0
  5  6  1  0
  6  7  2  0
  7  8  1  0
  8  9  2  0
  9 10  1  0
 10 11  2  0
  5 12  1  0
 12 13  1  0
 13 14  1  0
 14 15  1  0
 15 16  1  0
 16 17  2  0
 16 18  1  0
 18 19  1  0
 19 20  1  0
 19 21  1  0
 21 22  1  0
 22 23  1  0
 23 24  2  0
 24 25  1  0
 25 26  1  0
 26 27  2  0
 27 28  1  0
 28 29  2  0
 29 30  1  0
 30 31  2  0
 15 32  1  0
 32 33  1  0
 11  6  1  0
 33 12  1  0
 31 23  1  0
 31 26  1  0
  1 34  1  0
  1 35  1  0
  1 36  1  0
  2 37  1  0
  2 38  1  0
  7 39  1  0
  8 40  1  0
  9 41  1  0
 10 42  1  0
 11 43  1  0
 12 44  1  0
 13 45  1  0
 13 46  1  0
 14 47  1  0
 14 48  1  0
 18 49  1  0
 18 50  1  0
 19 51  1  6
 20 52  1  0
 20 53  1  0
 21 54  1  0
 21 55  1  0
 22 56  1  0
 22 57  1  0
 24 58  1  0
 25 59  1  0
 27 60  1  0
 28 61  1  0
 29 62  1  0
 30 63  1  0
 32 64  1  0
 32 65  1  0
 33 66  1  0
 33 67  1  0
M  END
>  <smiles>  (75) 
CCC(=O)N(c1ccccc1)C1CCN(C(=O)CC(N)CCc2c[nH]c3ccccc23)CC1

>  <score_type>  (75) 
oracle

>  <origin>  (75) 
autodockgpu

>  <m_score__min__energy>  (75) 
-9.5899999999999999

>  <m_primary>  (75) 
energy

>  <rmsd>  (75) 
11.153251598558535

>  <m_score__min__rmsd>  (75) 
11.153251598558535

>  <meeko>  (75) 
{"free_energy": -8.1, "intermolecular_energy": -11.08, "internal_energy": -2.48, "cluster_size": 15, "cluster_id": 2, "rank_in_cluster": 15}

>  <energy>  (75) 
-8.41

>  <cluster_rmsd>  (75) 
1.69

>  <cluster>  (75) 
1

$$$$

     RDKit          3D

 67 70  0  0  0  0  0  0  0  0999 V2000
  142.5700   78.6060  217.9340 C   0  0  0  0  0  0  0  0  0  0  0  0
  141.9840   79.9040  218.4480 C   0  0  0  0  0  0  0  0  0  0  0  0
  140.6450   79.6240  219.0410 C   0  0  0  0  0  0  0  0  0  0  0  0
  139.6500   80.0530  218.4250 O   0  0  0  0  0  0  0  0  0  0  0  0
  140.5730   78.8900  220.2640 N   0  0  0  0  0  0  0  0  0  0  0  0
  140.9400   79.5160  221.5100 C   0  0  0  0  0  0  0  0  0  0  0  0
  140.0700   80.3320  222.2010 C   0  0  0  0  0  0  0  0  0  0  0  0
  140.5340   80.8830  223.3940 C   0  0  0  0  0  0  0  0  0  0  0  0
  141.8140   80.6220  223.8660 C   0  0  0  0  0  0  0  0  0  0  0  0
  142.6670   79.8030  223.1600 C   0  0  0  0  0  0  0  0  0  0  0  0
  142.2140   79.2540  221.9770 C   0  0  0  0  0  0  0  0  0  0  0  0
  140.1360   77.5190  220.3060 C   0  0  0  0  0  0  0  0  0  0  0  0
  139.1180   77.2620  221.4220 C   0  0  0  0  0  0  0  0  0  0  0  0
  138.6750   75.7980  221.2310 C   0  0  0  0  0  0  0  0  0  0  0  0
  139.7800   74.9720  221.6340 N   0  0  0  0  0  0  0  0  0  0  0  0
  139.7780   73.6160  221.9760 C   0  0  0  0  0  0  0  0  0  0  0  0
  140.9530   73.1480  222.3130 O   0  0  0  0  0  0  0  0  0  0  0  0
  138.7330   72.6150  222.0340 C   0  0  0  0  0  0  0  0  0  0  0  0
  139.0390   71.1750  222.0040 C   0  0  1  0  0  0  0  0  0  0  0  0
  140.1200   70.7910  221.1220 N   0  0  0  0  0  0  0  0  0  0  0  0
  139.4770   70.7250  223.4020 C   0  0  0  0  0  0  0  0  0  0  0  0
  138.4500   69.9110  224.1270 C   0  0  0  0  0  0  0  0  0  0  0  0
  139.1710   69.2920  225.3160 C   0  0  0  0  0  0  0  0  0  0  0  0
  139.2150   67.9600  225.6520 C   0  0  0  0  0  0  0  0  0  0  0  0
  139.9620   67.8870  226.7680 N   0  0  0  0  0  0  0  0  0  0  0  0
  140.3820   69.1130  227.1390 C   0  0  0  0  0  0  0  0  0  0  0  0
  141.1560   69.5890  228.1830 C   0  0  0  0  0  0  0  0  0  0  0  0
  141.4470   70.9320  228.3390 C   0  0  0  0  0  0  0  0  0  0  0  0
  140.9490   71.8540  227.4190 C   0  0  0  0  0  0  0  0  0  0  0  0
  140.1690   71.3910  226.3620 C   0  0  0  0  0  0  0  0  0  0  0  0
  139.8960   70.0370  226.2350 C   0  0  0  0  0  0  0  0  0  0  0  0
  141.0910   75.6680  221.6810 C   0  0  0  0  0  0  0  0  0  0  0  0
  141.2880   76.5390  220.4630 C   0  0  0  0  0  0  0  0  0  0  0  0
  142.8568   77.9708  218.7850 H   0  0  0  0  0  0  0  0  0  0  0  0
  141.8209   78.0825  217.3218 H   0  0  0  0  0  0  0  0  0  0  0  0
  143.4581   78.8217  217.3218 H   0  0  0  0  0  0  0  0  0  0  0  0
  142.6465   80.3306  219.2155 H   0  0  0  0  0  0  0  0  0  0  0  0
  141.8842   80.6227  217.6213 H   0  0  0  0  0  0  0  0  0  0  0  0
  139.0561   80.5387  221.8279 H   0  0  0  0  0  0  0  0  0  0  0  0
  139.8708   81.5402  223.9756 H   0  0  0  0  0  0  0  0  0  0  0  0
  142.1492   81.0732  224.8116 H   0  0  0  0  0  0  0  0  0  0  0  0
  143.6817   79.5920  223.5287 H   0  0  0  0  0  0  0  0  0  0  0  0
  142.8783   78.5970  221.3964 H   0  0  0  0  0  0  0  0  0  0  0  0
  139.6543   77.3488  219.3318 H   0  0  0  0  0  0  0  0  0  0  0  0
  139.5839   77.3990  222.4090 H   0  0  0  0  0  0  0  0  0  0  0  0
  138.2687   77.9595  221.3742 H   0  0  0  0  0  0  0  0  0  0  0  0
  137.7953   75.5843  221.8558 H   0  0  0  0  0  0  0  0  0  0  0  0
  138.3989   75.6033  220.1842 H   0  0  0  0  0  0  0  0  0  0  0  0
  138.1835   72.7952  222.9697 H   0  0  0  0  0  0  0  0  0  0  0  0
  138.2122   72.7640  221.0766 H   0  0  0  0  0  0  0  0  0  0  0  0
  138.1130   70.7048  221.6414 H   0  0  0  0  0  0  0  0  0  0  0  0
  140.8330   71.5100  221.0410 H   0  0  0  0  0  0  0  0  0  0  0  0
  140.4390   69.8450  221.3820 H   0  0  0  0  0  0  0  0  0  0  0  0
  140.3901   70.1201  223.3009 H   0  0  0  0  0  0  0  0  0  0  0  0
  139.6383   71.6372  223.9951 H   0  0  0  0  0  0  0  0  0  0  0  0
  137.6261   70.5534  224.4713 H   0  0  0  0  0  0  0  0  0  0  0  0
  138.0115   69.1410  223.4752 H   0  0  0  0  0  0  0  0  0  0  0  0
  138.7374   67.1253  225.1179 H   0  0  0  0  0  0  0  0  0  0  0  0
  140.2020   67.0120  227.2990 H   0  0  0  0  0  0  0  0  0  0  0  0
  141.5546   68.8723  228.9161 H   0  0  0  0  0  0  0  0  0  0  0  0
  142.0667   71.2704  229.1825 H   0  0  0  0  0  0  0  0  0  0  0  0
  141.1680   72.9266  227.5260 H   0  0  0  0  0  0  0  0  0  0  0  0
  139.7678   72.1021  225.6249 H   0  0  0  0  0  0  0  0  0  0  0  0
  141.1319   76.2967  222.5827 H   0  0  0  0  0  0  0  0  0  0  0  0
  141.8883   74.9104  221.7015 H   0  0  0  0  0  0  0  0  0  0  0  0
  142.2273   77.1013  220.5702 H   0  0  0  0  0  0  0  0  0  0  0  0
  141.3259   75.8948  219.5721 H   0  0  0  0  0  0  0  0  0  0  0  0
  1  2  1  0
  2  3  1  0
  3  4  2  0
  3  5  1  0
  5  6  1  0
  6  7  2  0
  7  8  1  0
  8  9  2  0
  9 10  1  0
 10 11  2  0
  5 12  1  0
 12 13  1  0
 13 14  1  0
 14 15  1  0
 15 16  1  0
 16 17  2  0
 16 18  1  0
 18 19  1  0
 19 20  1  0
 19 21  1  0
 21 22  1  0
 22 23  1  0
 23 24  2  0
 24 25  1  0
 25 26  1  0
 26 27  2  0
 27 28  1  0
 28 29  2  0
 29 30  1  0
 30 31  2  0
 15 32  1  0
 32 33  1  0
 11  6  1  0
 33 12  1  0
 31 23  1  0
 31 26  1  0
  1 34  1  0
  1 35  1  0
  1 36  1  0
  2 37  1  0
  2 38  1  0
  7 39  1  0
  8 40  1  0
  9 41  1  0
 10 42  1  0
 11 43  1  0
 12 44  1  0
 13 45  1  0
 13 46  1  0
 14 47  1  0
 14 48  1  0
 18 49  1  0
 18 50  1  0
 19 51  1  6
 20 52  1  0
 20 53  1  0
 21 54  1  0
 21 55  1  0
 22 56  1  0
 22 57  1  0
 24 58  1  0
 25 59  1  0
 27 60  1  0
 28 61  1  0
 29 62  1  0
 30 63  1  0
 32 64  1  0
 32 65  1  0
 33 66  1  0
 33 67  1  0
M  END
>  <smiles>  (76) 
CCC(=O)N(c1ccccc1)C1CCN(C(=O)CC(N)CCc2c[nH]c3ccccc23)CC1

>  <score_type>  (76) 
oracle

>  <origin>  (76) 
autodockgpu

>  <m_score__min__energy>  (76) 
-9.5899999999999999

>  <m_primary>  (76) 
energy

>  <rmsd>  (76) 
11.23735446285086

>  <m_score__min__rmsd>  (76) 
11.23735446285086

>  <meeko>  (76) 
{"free_energy": -8.61, "intermolecular_energy": -11.6, "internal_energy": -2.07, "cluster_size": 27, "cluster_id": 1, "rank_in_cluster": 21}

>  <energy>  (76) 
-8.14

>  <cluster_rmsd>  (76) 
1.86

>  <cluster>  (76) 
1

$$$$

     RDKit          3D

 67 70  0  0  0  0  0  0  0  0999 V2000
  142.1810   80.5940  218.7160 C   0  0  0  0  0  0  0  0  0  0  0  0
  141.1360   79.5480  219.0430 C   0  0  0  0  0  0  0  0  0  0  0  0
  141.7830   78.4460  219.8100 C   0  0  0  0  0  0  0  0  0  0  0  0
  142.6140   77.7440  219.2040 O   0  0  0  0  0  0  0  0  0  0  0  0
  141.4230   78.2560  221.1790 N   0  0  0  0  0  0  0  0  0  0  0  0
  141.6230   79.3160  222.1370 C   0  0  0  0  0  0  0  0  0  0  0  0
  140.6060   80.1730  222.4990 C   0  0  0  0  0  0  0  0  0  0  0  0
  140.9140   81.1590  223.4340 C   0  0  0  0  0  0  0  0  0  0  0  0
  142.1880   81.2730  223.9760 C   0  0  0  0  0  0  0  0  0  0  0  0
  143.1890   80.4060  223.6010 C   0  0  0  0  0  0  0  0  0  0  0  0
  142.8910   79.4260  222.6750 C   0  0  0  0  0  0  0  0  0  0  0  0
  140.8540   77.0220  221.6540 C   0  0  0  0  0  0  0  0  0  0  0  0
  140.7160   75.9750  220.5440 C   0  0  0  0  0  0  0  0  0  0  0  0
  140.2230   74.7000  221.2550 C   0  0  0  0  0  0  0  0  0  0  0  0
  138.8530   74.9320  221.6240 N   0  0  0  0  0  0  0  0  0  0  0  0
  137.8710   73.9970  221.9680 C   0  0  0  0  0  0  0  0  0  0  0  0
  136.7060   74.5250  222.2460 O   0  0  0  0  0  0  0  0  0  0  0  0
  137.8780   72.5540  222.0810 C   0  0  0  0  0  0  0  0  0  0  0  0
  139.0770   71.8190  222.5190 C   0  0  1  0  0  0  0  0  0  0  0  0
  140.1060   72.6260  223.1360 N   0  0  0  0  0  0  0  0  0  0  0  0
  138.6740   70.7910  223.5830 C   0  0  0  0  0  0  0  0  0  0  0  0
  139.5210   69.5560  223.5840 C   0  0  0  0  0  0  0  0  0  0  0  0
  139.7060   69.1790  225.0480 C   0  0  0  0  0  0  0  0  0  0  0  0
  139.4300   67.9640  225.6270 C   0  0  0  0  0  0  0  0  0  0  0  0
  139.7480   68.0960  226.9280 N   0  0  0  0  0  0  0  0  0  0  0  0
  140.2070   69.3380  227.1800 C   0  0  0  0  0  0  0  0  0  0  0  0
  140.6580   69.9840  228.3170 C   0  0  0  0  0  0  0  0  0  0  0  0
  141.0870   71.2990  228.3050 C   0  0  0  0  0  0  0  0  0  0  0  0
  141.0690   72.0160  227.1080 C   0  0  0  0  0  0  0  0  0  0  0  0
  140.6170   71.3800  225.9540 C   0  0  0  0  0  0  0  0  0  0  0  0
  140.1950   70.0590  226.0020 C   0  0  0  0  0  0  0  0  0  0  0  0
  138.4480   76.3600  221.6430 C   0  0  0  0  0  0  0  0  0  0  0  0
  139.4980   77.2140  222.3140 C   0  0  0  0  0  0  0  0  0  0  0  0
  142.5923   81.0057  219.6494 H   0  0  0  0  0  0  0  0  0  0  0  0
  142.9903   80.1333  218.1305 H   0  0  0  0  0  0  0  0  0  0  0  0
  141.7195   81.4028  218.1305 H   0  0  0  0  0  0  0  0  0  0  0  0
  140.3370   80.0004  219.6487 H   0  0  0  0  0  0  0  0  0  0  0  0
  140.7008   79.1513  218.1139 H   0  0  0  0  0  0  0  0  0  0  0  0
  139.5974   80.0826  222.0694 H   0  0  0  0  0  0  0  0  0  0  0  0
  140.1304   81.8633  223.7503 H   0  0  0  0  0  0  0  0  0  0  0  0
  142.3987   82.0633  224.7115 H   0  0  0  0  0  0  0  0  0  0  0  0
  144.1993   80.4915  224.0275 H   0  0  0  0  0  0  0  0  0  0  0  0
  143.6754   78.7218  222.3607 H   0  0  0  0  0  0  0  0  0  0  0  0
  141.5671   76.6572  222.4079 H   0  0  0  0  0  0  0  0  0  0  0  0
  139.9851   76.3045  219.7909 H   0  0  0  0  0  0  0  0  0  0  0  0
  141.6647   75.8101  220.0123 H   0  0  0  0  0  0  0  0  0  0  0  0
  140.2911   73.8375  220.5757 H   0  0  0  0  0  0  0  0  0  0  0  0
  140.8377   74.4796  222.1402 H   0  0  0  0  0  0  0  0  0  0  0  0
  137.0793   72.2952  222.7917 H   0  0  0  0  0  0  0  0  0  0  0  0
  137.7774   72.2359  221.0328 H   0  0  0  0  0  0  0  0  0  0  0  0
  139.4868   71.3850  221.5950 H   0  0  0  0  0  0  0  0  0  0  0  0
  140.9480   72.6870  222.5680 H   0  0  0  0  0  0  0  0  0  0  0  0
  139.6870   73.5160  223.4460 H   0  0  0  0  0  0  0  0  0  0  0  0
  138.7534   71.2664  224.5718 H   0  0  0  0  0  0  0  0  0  0  0  0
  137.6471   70.4741  223.3485 H   0  0  0  0  0  0  0  0  0  0  0  0
  139.0150   68.7444  223.0407 H   0  0  0  0  0  0  0  0  0  0  0  0
  140.4865   69.7276  223.0857 H   0  0  0  0  0  0  0  0  0  0  0  0
  139.0311   67.0677  225.1295 H   0  0  0  0  0  0  0  0  0  0  0  0
  139.6610   67.3550  227.6670 H   0  0  0  0  0  0  0  0  0  0  0  0
  140.6762   69.4306  229.2675 H   0  0  0  0  0  0  0  0  0  0  0  0
  141.4395   71.7757  229.2316 H   0  0  0  0  0  0  0  0  0  0  0  0
  141.4051   73.0629  227.0763 H   0  0  0  0  0  0  0  0  0  0  0  0
  140.5945   71.9275  225.0002 H   0  0  0  0  0  0  0  0  0  0  0  0
  138.3091   76.7079  220.6087 H   0  0  0  0  0  0  0  0  0  0  0  0
  137.5098   76.4496  222.2103 H   0  0  0  0  0  0  0  0  0  0  0  0
  139.2059   78.2717  222.2365 H   0  0  0  0  0  0  0  0  0  0  0  0
  139.5744   76.9137  223.3695 H   0  0  0  0  0  0  0  0  0  0  0  0
  1  2  1  0
  2  3  1  0
  3  4  2  0
  3  5  1  0
  5  6  1  0
  6  7  2  0
  7  8  1  0
  8  9  2  0
  9 10  1  0
 10 11  2  0
  5 12  1  0
 12 13  1  0
 13 14  1  0
 14 15  1  0
 15 16  1  0
 16 17  2  0
 16 18  1  0
 18 19  1  0
 19 20  1  0
 19 21  1  0
 21 22  1  0
 22 23  1  0
 23 24  2  0
 24 25  1  0
 25 26  1  0
 26 27  2  0
 27 28  1  0
 28 29  2  0
 29 30  1  0
 30 31  2  0
 15 32  1  0
 32 33  1  0
 11  6  1  0
 33 12  1  0
 31 23  1  0
 31 26  1  0
  1 34  1  0
  1 35  1  0
  1 36  1  0
  2 37  1  0
  2 38  1  0
  7 39  1  0
  8 40  1  0
  9 41  1  0
 10 42  1  0
 11 43  1  0
 12 44  1  0
 13 45  1  0
 13 46  1  0
 14 47  1  0
 14 48  1  0
 18 49  1  0
 18 50  1  0
 19 51  1  6
 20 52  1  0
 20 53  1  0
 21 54  1  0
 21 55  1  0
 22 56  1  0
 22 57  1  0
 24 58  1  0
 25 59  1  0
 27 60  1  0
 28 61  1  0
 29 62  1  0
 30 63  1  0
 32 64  1  0
 32 65  1  0
 33 66  1  0
 33 67  1  0
M  END
>  <smiles>  (77) 
CCC(=O)N(c1ccccc1)C1CCN(C(=O)CC(N)CCc2c[nH]c3ccccc23)CC1

>  <score_type>  (77) 
oracle

>  <origin>  (77) 
autodockgpu

>  <m_score__min__energy>  (77) 
-9.5899999999999999

>  <m_primary>  (77) 
energy

>  <rmsd>  (77) 
11.142786052470983

>  <m_score__min__rmsd>  (77) 
11.142786052470983

>  <meeko>  (77) 
{"free_energy": -9.59, "intermolecular_energy": -12.57, "internal_energy": -1.31, "cluster_size": 27, "cluster_id": 1, "rank_in_cluster": 1}

>  <energy>  (77) 
-7.99

>  <cluster_rmsd>  (77) 
1.67

>  <cluster>  (77) 
1

$$$$

     RDKit          3D

 67 70  0  0  0  0  0  0  0  0999 V2000
  142.5580   80.6010  223.6800 C   0  0  0  0  0  0  0  0  0  0  0  0
  142.6650   79.4000  222.7640 C   0  0  0  0  0  0  0  0  0  0  0  0
  141.2930   78.9010  222.4640 C   0  0  0  0  0  0  0  0  0  0  0  0
  140.4380   79.0140  223.3630 O   0  0  0  0  0  0  0  0  0  0  0  0
  141.0340   78.3280  221.1820 N   0  0  0  0  0  0  0  0  0  0  0  0
  141.3360   79.0670  219.9800 C   0  0  0  0  0  0  0  0  0  0  0  0
  140.7850   80.3050  219.7280 C   0  0  0  0  0  0  0  0  0  0  0  0
  141.1490   80.9260  218.5350 C   0  0  0  0  0  0  0  0  0  0  0  0
  142.0260   80.3260  217.6410 C   0  0  0  0  0  0  0  0  0  0  0  0
  142.5660   79.0880  217.9130 C   0  0  0  0  0  0  0  0  0  0  0  0
  142.2090   78.4670  219.0930 C   0  0  0  0  0  0  0  0  0  0  0  0
  140.4710   77.0110  221.0340 C   0  0  0  0  0  0  0  0  0  0  0  0
  139.8460   76.4920  222.3330 C   0  0  0  0  0  0  0  0  0  0  0  0
  139.1900   75.1500  221.9540 C   0  0  0  0  0  0  0  0  0  0  0  0
  140.2560   74.2120  221.7350 N   0  0  0  0  0  0  0  0  0  0  0  0
  140.1990   72.8140  221.7140 C   0  0  0  0  0  0  0  0  0  0  0  0
  141.3530   72.2360  221.4990 O   0  0  0  0  0  0  0  0  0  0  0  0
  139.1160   71.8680  221.8800 C   0  0  0  0  0  0  0  0  0  0  0  0
  138.3590   71.7730  223.1400 C   0  0  1  0  0  0  0  0  0  0  0  0
  136.9970   72.2560  223.0820 N   0  0  0  0  0  0  0  0  0  0  0  0
  138.2510   70.3000  223.5500 C   0  0  0  0  0  0  0  0  0  0  0  0
  139.5660   69.5840  223.5940 C   0  0  0  0  0  0  0  0  0  0  0  0
  139.7910   69.2150  225.0550 C   0  0  0  0  0  0  0  0  0  0  0  0
  139.5800   67.9880  225.6370 C   0  0  0  0  0  0  0  0  0  0  0  0
  139.9120   68.1340  226.9330 N   0  0  0  0  0  0  0  0  0  0  0  0
  140.3180   69.3960  227.1780 C   0  0  0  0  0  0  0  0  0  0  0  0
  140.7570   70.0620  228.3090 C   0  0  0  0  0  0  0  0  0  0  0  0
  141.1250   71.3950  228.2910 C   0  0  0  0  0  0  0  0  0  0  0  0
  141.0550   72.1100  227.0960 C   0  0  0  0  0  0  0  0  0  0  0  0
  140.6150   71.4550  225.9480 C   0  0  0  0  0  0  0  0  0  0  0  0
  140.2540   70.1160  226.0020 C   0  0  0  0  0  0  0  0  0  0  0  0
  141.5860   74.8270  221.4970 C   0  0  0  0  0  0  0  0  0  0  0  0
  141.4830   75.9900  220.5390 C   0  0  0  0  0  0  0  0  0  0  0  0
  142.5878   80.2669  224.7276 H   0  0  0  0  0  0  0  0  0  0  0  0
  143.3989   81.2840  223.4889 H   0  0  0  0  0  0  0  0  0  0  0  0
  141.6097   81.1246  223.4889 H   0  0  0  0  0  0  0  0  0  0  0  0
  143.1650   79.6918  221.8287 H   0  0  0  0  0  0  0  0  0  0  0  0
  143.2521   78.6084  223.2526 H   0  0  0  0  0  0  0  0  0  0  0  0
  140.0902   80.7806  220.4358 H   0  0  0  0  0  0  0  0  0  0  0  0
  140.7317   81.9152  218.2956 H   0  0  0  0  0  0  0  0  0  0  0  0
  142.2919   80.8436  216.7075 H   0  0  0  0  0  0  0  0  0  0  0  0
  143.2621   78.6079  217.2095 H   0  0  0  0  0  0  0  0  0  0  0  0
  142.6267   77.4776  219.3312 H   0  0  0  0  0  0  0  0  0  0  0  0
  139.6833   77.1271  220.2750 H   0  0  0  0  0  0  0  0  0  0  0  0
  140.6195   76.3408  223.1003 H   0  0  0  0  0  0  0  0  0  0  0  0
  139.1188   77.2023  222.7533 H   0  0  0  0  0  0  0  0  0  0  0  0
  138.5415   74.8017  222.7714 H   0  0  0  0  0  0  0  0  0  0  0  0
  138.5676   75.2563  221.0533 H   0  0  0  0  0  0  0  0  0  0  0  0
  138.3814   72.0973  221.0940 H   0  0  0  0  0  0  0  0  0  0  0  0
  139.6412   70.9020  221.8483 H   0  0  0  0  0  0  0  0  0  0  0  0
  138.9186   72.4048  223.8454 H   0  0  0  0  0  0  0  0  0  0  0  0
  136.3130   71.5110  223.1880 H   0  0  0  0  0  0  0  0  0  0  0  0
  136.9060   73.0660  223.7150 H   0  0  0  0  0  0  0  0  0  0  0  0
  137.7966   70.2515  224.5506 H   0  0  0  0  0  0  0  0  0  0  0  0
  137.6405   69.7994  222.7841 H   0  0  0  0  0  0  0  0  0  0  0  0
  139.5294   68.6778  222.9716 H   0  0  0  0  0  0  0  0  0  0  0  0
  140.3813   70.2120  223.2056 H   0  0  0  0  0  0  0  0  0  0  0  0
  139.2149   67.0745  225.1448 H   0  0  0  0  0  0  0  0  0  0  0  0
  139.8710   67.3900  227.6720 H   0  0  0  0  0  0  0  0  0  0  0  0
  140.8155   69.5099  229.2586 H   0  0  0  0  0  0  0  0  0  0  0  0
  141.4702   71.8873  229.2121 H   0  0  0  0  0  0  0  0  0  0  0  0
  141.3418   73.1714  227.0604 H   0  0  0  0  0  0  0  0  0  0  0  0
  140.5535   72.0011  224.9951 H   0  0  0  0  0  0  0  0  0  0  0  0
  141.9929   75.1849  222.4542 H   0  0  0  0  0  0  0  0  0  0  0  0
  142.2483   74.0678  221.0554 H   0  0  0  0  0  0  0  0  0  0  0  0
  142.4677   76.4723  220.4505 H   0  0  0  0  0  0  0  0  0  0  0  0
  141.1517   75.6118  219.5606 H   0  0  0  0  0  0  0  0  0  0  0  0
  1  2  1  0
  2  3  1  0
  3  4  2  0
  3  5  1  0
  5  6  1  0
  6  7  2  0
  7  8  1  0
  8  9  2  0
  9 10  1  0
 10 11  2  0
  5 12  1  0
 12 13  1  0
 13 14  1  0
 14 15  1  0
 15 16  1  0
 16 17  2  0
 16 18  1  0
 18 19  1  0
 19 20  1  0
 19 21  1  0
 21 22  1  0
 22 23  1  0
 23 24  2  0
 24 25  1  0
 25 26  1  0
 26 27  2  0
 27 28  1  0
 28 29  2  0
 29 30  1  0
 30 31  2  0
 15 32  1  0
 32 33  1  0
 11  6  1  0
 33 12  1  0
 31 23  1  0
 31 26  1  0
  1 34  1  0
  1 35  1  0
  1 36  1  0
  2 37  1  0
  2 38  1  0
  7 39  1  0
  8 40  1  0
  9 41  1  0
 10 42  1  0
 11 43  1  0
 12 44  1  0
 13 45  1  0
 13 46  1  0
 14 47  1  0
 14 48  1  0
 18 49  1  0
 18 50  1  0
 19 51  1  1
 20 52  1  0
 20 53  1  0
 21 54  1  0
 21 55  1  0
 22 56  1  0
 22 57  1  0
 24 58  1  0
 25 59  1  0
 27 60  1  0
 28 61  1  0
 29 62  1  0
 30 63  1  0
 32 64  1  0
 32 65  1  0
 33 66  1  0
 33 67  1  0
M  END
>  <smiles>  (78) 
CCC(=O)N(c1ccccc1)C1CCN(C(=O)CC(N)CCc2c[nH]c3ccccc23)CC1

>  <score_type>  (78) 
oracle

>  <origin>  (78) 
autodockgpu

>  <m_score__min__energy>  (78) 
-9.5899999999999999

>  <m_primary>  (78) 
energy

>  <rmsd>  (78) 
11.274441368114577

>  <m_score__min__rmsd>  (78) 
11.274441368114577

>  <meeko>  (78) 
{"free_energy": -8.9, "intermolecular_energy": -11.88, "internal_energy": -1.46, "cluster_size": 15, "cluster_id": 2, "rank_in_cluster": 3}

>  <energy>  (78) 
-9.17

>  <cluster_rmsd>  (78) 
0.0

>  <cluster>  (78) 
2

$$$$

     RDKit          3D

 67 70  0  0  0  0  0  0  0  0999 V2000
  137.8730   80.9230  224.3980 C   0  0  0  0  0  0  0  0  0  0  0  0
  137.1510   80.5820  223.1110 C   0  0  0  0  0  0  0  0  0  0  0  0
  138.1560   80.4360  222.0200 C   0  0  0  0  0  0  0  0  0  0  0  0
  138.0600   81.2160  221.0530 O   0  0  0  0  0  0  0  0  0  0  0  0
  139.1600   79.4280  222.1370 N   0  0  0  0  0  0  0  0  0  0  0  0
  140.4800   79.7670  222.6100 C   0  0  0  0  0  0  0  0  0  0  0  0
  140.9330   79.3730  223.8510 C   0  0  0  0  0  0  0  0  0  0  0  0
  142.2250   79.7580  224.2010 C   0  0  0  0  0  0  0  0  0  0  0  0
  143.0200   80.5060  223.3420 C   0  0  0  0  0  0  0  0  0  0  0  0
  142.5460   80.8900  222.1070 C   0  0  0  0  0  0  0  0  0  0  0  0
  141.2670   80.5110  221.7520 C   0  0  0  0  0  0  0  0  0  0  0  0
  138.9030   78.0530  221.7970 C   0  0  0  0  0  0  0  0  0  0  0  0
  138.2310   77.2820  222.9370 C   0  0  0  0  0  0  0  0  0  0  0  0
  137.9200   75.8910  222.3520 C   0  0  0  0  0  0  0  0  0  0  0  0
  139.1750   75.2030  222.2210 N   0  0  0  0  0  0  0  0  0  0  0  0
  139.4090   73.8320  222.0750 C   0  0  0  0  0  0  0  0  0  0  0  0
  140.6760   73.5130  221.9920 O   0  0  0  0  0  0  0  0  0  0  0  0
  138.5310   72.6840  221.9950 C   0  0  0  0  0  0  0  0  0  0  0  0
  138.9760   71.3390  222.3980 C   0  0  1  0  0  0  0  0  0  0  0  0
  140.1910   70.8750  221.7650 N   0  0  0  0  0  0  0  0  0  0  0  0
  139.2750   71.3390  223.9010 C   0  0  0  0  0  0  0  0  0  0  0  0
  140.7210   71.5460  224.2320 C   0  0  0  0  0  0  0  0  0  0  0  0
  140.8460   71.3020  225.7300 C   0  0  0  0  0  0  0  0  0  0  0  0
  141.0450   72.2480  226.7070 C   0  0  0  0  0  0  0  0  0  0  0  0
  141.0900   71.5730  227.8700 N   0  0  0  0  0  0  0  0  0  0  0  0
  140.9270   70.2520  227.6570 C   0  0  0  0  0  0  0  0  0  0  0  0
  140.8920   69.1420  228.4830 C   0  0  0  0  0  0  0  0  0  0  0  0
  140.7050   67.8600  227.9980 C   0  0  0  0  0  0  0  0  0  0  0  0
  140.5470   67.6610  226.6270 C   0  0  0  0  0  0  0  0  0  0  0  0
  140.5800   68.7670  225.7820 C   0  0  0  0  0  0  0  0  0  0  0  0
  140.7680   70.0400  226.3020 C   0  0  0  0  0  0  0  0  0  0  0  0
  140.3710   76.0840  222.2410 C   0  0  0  0  0  0  0  0  0  0  0  0
  140.1590   77.3050  221.3790 C   0  0  0  0  0  0  0  0  0  0  0  0
  137.2509   80.6292  225.2563 H   0  0  0  0  0  0  0  0  0  0  0  0
  138.8298   80.3816  224.4362 H   0  0  0  0  0  0  0  0  0  0  0  0
  138.0627   82.0058  224.4362 H   0  0  0  0  0  0  0  0  0  0  0  0
  136.6004   79.6378  223.2351 H   0  0  0  0  0  0  0  0  0  0  0  0
  136.4394   81.3820  222.8587 H   0  0  0  0  0  0  0  0  0  0  0  0
  140.3036   78.7823  224.5328 H   0  0  0  0  0  0  0  0  0  0  0  0
  142.6257   79.4624  225.1819 H   0  0  0  0  0  0  0  0  0  0  0  0
  144.0359   80.7939  223.6503 H   0  0  0  0  0  0  0  0  0  0  0  0
  143.1700   81.4828  221.4220 H   0  0  0  0  0  0  0  0  0  0  0  0
  140.8680   80.8060  220.7703 H   0  0  0  0  0  0  0  0  0  0  0  0
  138.2155   78.1019  220.9397 H   0  0  0  0  0  0  0  0  0  0  0  0
  138.9102   77.1958  223.7979 H   0  0  0  0  0  0  0  0  0  0  0  0
  137.3244   77.7889  223.2992 H   0  0  0  0  0  0  0  0  0  0  0  0
  137.2535   75.3364  223.0289 H   0  0  0  0  0  0  0  0  0  0  0  0
  137.4148   75.9772  221.3787 H   0  0  0  0  0  0  0  0  0  0  0  0
  137.6560   72.9199  222.6184 H   0  0  0  0  0  0  0  0  0  0  0  0
  138.3938   72.5696  220.9096 H   0  0  0  0  0  0  0  0  0  0  0  0
  138.1534   70.6742  222.0955 H   0  0  0  0  0  0  0  0  0  0  0  0
  140.9910   71.4680  221.9710 H   0  0  0  0  0  0  0  0  0  0  0  0
  140.2970   69.8660  221.9540 H   0  0  0  0  0  0  0  0  0  0  0  0
  138.6933   72.1464  224.3699 H   0  0  0  0  0  0  0  0  0  0  0  0
  138.9995   70.3443  224.2814 H   0  0  0  0  0  0  0  0  0  0  0  0
  141.3468   70.8333  223.6748 H   0  0  0  0  0  0  0  0  0  0  0  0
  141.0570   72.5571  223.9583 H   0  0  0  0  0  0  0  0  0  0  0  0
  141.1466   73.3343  226.5668 H   0  0  0  0  0  0  0  0  0  0  0  0
  141.2300   71.9880  228.8240 H   0  0  0  0  0  0  0  0  0  0  0  0
  141.0177   69.2846  229.5665 H   0  0  0  0  0  0  0  0  0  0  0  0
  140.6811   67.0042  228.6886 H   0  0  0  0  0  0  0  0  0  0  0  0
  140.3991   66.6495  226.2208 H   0  0  0  0  0  0  0  0  0  0  0  0
  140.4565   68.6313  224.6974 H   0  0  0  0  0  0  0  0  0  0  0  0
  140.5650   76.4035  223.2755 H   0  0  0  0  0  0  0  0  0  0  0  0
  141.2280   75.5199  221.8443 H   0  0  0  0  0  0  0  0  0  0  0  0
  141.0269   77.9731  221.4813 H   0  0  0  0  0  0  0  0  0  0  0  0
  140.0440   76.9816  220.3339 H   0  0  0  0  0  0  0  0  0  0  0  0
  1  2  1  0
  2  3  1  0
  3  4  2  0
  3  5  1  0
  5  6  1  0
  6  7  2  0
  7  8  1  0
  8  9  2  0
  9 10  1  0
 10 11  2  0
  5 12  1  0
 12 13  1  0
 13 14  1  0
 14 15  1  0
 15 16  1  0
 16 17  2  0
 16 18  1  0
 18 19  1  0
 19 20  1  0
 19 21  1  0
 21 22  1  0
 22 23  1  0
 23 24  2  0
 24 25  1  0
 25 26  1  0
 26 27  2  0
 27 28  1  0
 28 29  2  0
 29 30  1  0
 30 31  2  0
 15 32  1  0
 32 33  1  0
 11  6  1  0
 33 12  1  0
 31 23  1  0
 31 26  1  0
  1 34  1  0
  1 35  1  0
  1 36  1  0
  2 37  1  0
  2 38  1  0
  7 39  1  0
  8 40  1  0
  9 41  1  0
 10 42  1  0
 11 43  1  0
 12 44  1  0
 13 45  1  0
 13 46  1  0
 14 47  1  0
 14 48  1  0
 18 49  1  0
 18 50  1  0
 19 51  1  1
 20 52  1  0
 20 53  1  0
 21 54  1  0
 21 55  1  0
 22 56  1  0
 22 57  1  0
 24 58  1  0
 25 59  1  0
 27 60  1  0
 28 61  1  0
 29 62  1  0
 30 63  1  0
 32 64  1  0
 32 65  1  0
 33 66  1  0
 33 67  1  0
M  END
>  <smiles>  (79) 
CCC(=O)N(c1ccccc1)C1CCN(C(=O)CC(N)CCc2c[nH]c3ccccc23)CC1

>  <score_type>  (79) 
oracle

>  <origin>  (79) 
autodockgpu

>  <m_score__min__energy>  (79) 
-9.5899999999999999

>  <m_primary>  (79) 
energy

>  <rmsd>  (79) 
10.744399954560846

>  <m_score__min__rmsd>  (79) 
10.744399954560846

>  <meeko>  (79) 
{"free_energy": -8.64, "intermolecular_energy": -11.62, "internal_energy": -2.16, "cluster_size": 15, "cluster_id": 2, "rank_in_cluster": 11}

>  <energy>  (79) 
-8.9

>  <cluster_rmsd>  (79) 
1.34

>  <cluster>  (79) 
2

$$$$

     RDKit          3D

 67 70  0  0  0  0  0  0  0  0999 V2000
  137.7970   80.5610  223.7750 C   0  0  0  0  0  0  0  0  0  0  0  0
  138.0850   81.0210  222.3620 C   0  0  0  0  0  0  0  0  0  0  0  0
  138.2070   79.8230  221.4820 C   0  0  0  0  0  0  0  0  0  0  0  0
  137.3730   79.7060  220.5640 O   0  0  0  0  0  0  0  0  0  0  0  0
  139.2570   78.8880  221.7330 N   0  0  0  0  0  0  0  0  0  0  0  0
  140.5270   79.3410  222.2460 C   0  0  0  0  0  0  0  0  0  0  0  0
  140.9420   79.0480  223.5270 C   0  0  0  0  0  0  0  0  0  0  0  0
  142.1880   79.5370  223.9140 C   0  0  0  0  0  0  0  0  0  0  0  0
  142.9750   80.2870  223.0490 C   0  0  0  0  0  0  0  0  0  0  0  0
  142.5410   80.5680  221.7720 C   0  0  0  0  0  0  0  0  0  0  0  0
  141.3070   80.0860  221.3820 C   0  0  0  0  0  0  0  0  0  0  0  0
  139.0960   77.4780  221.4910 C   0  0  0  0  0  0  0  0  0  0  0  0
  138.5280   76.7360  222.7060 C   0  0  0  0  0  0  0  0  0  0  0  0
  138.3050   75.2900  222.2230 C   0  0  0  0  0  0  0  0  0  0  0  0
  139.6050   74.6920  222.0840 N   0  0  0  0  0  0  0  0  0  0  0  0
  139.9400   73.3350  222.0160 C   0  0  0  0  0  0  0  0  0  0  0  0
  141.2230   73.1080  221.9010 O   0  0  0  0  0  0  0  0  0  0  0  0
  139.1510   72.1220  222.0460 C   0  0  0  0  0  0  0  0  0  0  0  0
  138.1310   71.8870  223.0810 C   0  0  1  0  0  0  0  0  0  0  0  0
  136.7670   72.1450  222.6750 N   0  0  0  0  0  0  0  0  0  0  0  0
  138.1610   70.4110  223.4910 C   0  0  0  0  0  0  0  0  0  0  0  0
  139.5400   69.8300  223.5650 C   0  0  0  0  0  0  0  0  0  0  0  0
  139.7290   69.3860  225.0090 C   0  0  0  0  0  0  0  0  0  0  0  0
  139.4630   68.1430  225.5310 C   0  0  0  0  0  0  0  0  0  0  0  0
  139.7810   68.2170  226.8370 N   0  0  0  0  0  0  0  0  0  0  0  0
  140.2310   69.4500  227.1460 C   0  0  0  0  0  0  0  0  0  0  0  0
  140.6780   70.0460  228.3120 C   0  0  0  0  0  0  0  0  0  0  0  0
  141.0950   71.3640  228.3600 C   0  0  0  0  0  0  0  0  0  0  0  0
  141.0700   72.1350  227.1990 C   0  0  0  0  0  0  0  0  0  0  0  0
  140.6230   71.5500  226.0160 C   0  0  0  0  0  0  0  0  0  0  0  0
  140.2120   70.2250  226.0030 C   0  0  0  0  0  0  0  0  0  0  0  0
  140.7280   75.6590  221.9980 C   0  0  0  0  0  0  0  0  0  0  0  0
  140.3910   76.8020  221.0700 C   0  0  0  0  0  0  0  0  0  0  0  0
  138.2410   81.2701  224.4891 H   0  0  0  0  0  0  0  0  0  0  0  0
  136.7091   80.5159  223.9314 H   0  0  0  0  0  0  0  0  0  0  0  0
  138.2316   79.5627  223.9314 H   0  0  0  0  0  0  0  0  0  0  0  0
  137.2627   81.6590  222.0060 H   0  0  0  0  0  0  0  0  0  0  0  0
  139.0215   81.5977  222.3402 H   0  0  0  0  0  0  0  0  0  0  0  0
  140.3183   78.4554  224.2124 H   0  0  0  0  0  0  0  0  0  0  0  0
  142.5572   79.3243  224.9281 H   0  0  0  0  0  0  0  0  0  0  0  0
  143.9533   80.6598  223.3867 H   0  0  0  0  0  0  0  0  0  0  0  0
  143.1603   81.1600  221.0821 H   0  0  0  0  0  0  0  0  0  0  0  0
  140.9390   80.2985  220.3674 H   0  0  0  0  0  0  0  0  0  0  0  0
  138.3764   77.4165  220.6613 H   0  0  0  0  0  0  0  0  0  0  0  0
  139.2431   76.7584  223.5415 H   0  0  0  0  0  0  0  0  0  0  0  0
  137.5990   77.1963  223.0736 H   0  0  0  0  0  0  0  0  0  0  0  0
  137.7088   74.7324  222.9603 H   0  0  0  0  0  0  0  0  0  0  0  0
  137.7592   75.2731  221.2681 H   0  0  0  0  0  0  0  0  0  0  0  0
  138.6286   72.0691  221.0794 H   0  0  0  0  0  0  0  0  0  0  0  0
  139.9058   71.3580  222.2840 H   0  0  0  0  0  0  0  0  0  0  0  0
  138.3902   72.5901  223.8863 H   0  0  0  0  0  0  0  0  0  0  0  0
  136.2190   71.2930  222.5810 H   0  0  0  0  0  0  0  0  0  0  0  0
  136.3760   72.8860  223.2780 H   0  0  0  0  0  0  0  0  0  0  0  0
  137.6918   70.3170  224.4815 H   0  0  0  0  0  0  0  0  0  0  0  0
  137.6201   69.8522  222.7130 H   0  0  0  0  0  0  0  0  0  0  0  0
  139.6297   68.9697  222.8854 H   0  0  0  0  0  0  0  0  0  0  0  0
  140.3035   70.5627  223.2646 H   0  0  0  0  0  0  0  0  0  0  0  0
  139.0709   67.2676  224.9925 H   0  0  0  0  0  0  0  0  0  0  0  0
  139.7010   67.4420  227.5410 H   0  0  0  0  0  0  0  0  0  0  0  0
  140.7027   69.4491  229.2357 H   0  0  0  0  0  0  0  0  0  0  0  0
  141.4438   71.8005  229.3075 H   0  0  0  0  0  0  0  0  0  0  0  0
  141.3969   73.1852  227.2164 H   0  0  0  0  0  0  0  0  0  0  0  0
  140.5959   72.1411  225.0887 H   0  0  0  0  0  0  0  0  0  0  0  0
  140.9347   76.0597  223.0013 H   0  0  0  0  0  0  0  0  0  0  0  0
  141.6105   75.1355  221.6016 H   0  0  0  0  0  0  0  0  0  0  0  0
  141.2070   77.5392  221.0954 H   0  0  0  0  0  0  0  0  0  0  0  0
  140.2651   76.4035  220.0525 H   0  0  0  0  0  0  0  0  0  0  0  0
  1  2  1  0
  2  3  1  0
  3  4  2  0
  3  5  1  0
  5  6  1  0
  6  7  2  0
  7  8  1  0
  8  9  2  0
  9 10  1  0
 10 11  2  0
  5 12  1  0
 12 13  1  0
 13 14  1  0
 14 15  1  0
 15 16  1  0
 16 17  2  0
 16 18  1  0
 18 19  1  0
 19 20  1  0
 19 21  1  0
 21 22  1  0
 22 23  1  0
 23 24  2  0
 24 25  1  0
 25 26  1  0
 26 27  2  0
 27 28  1  0
 28 29  2  0
 29 30  1  0
 30 31  2  0
 15 32  1  0
 32 33  1  0
 11  6  1  0
 33 12  1  0
 31 23  1  0
 31 26  1  0
  1 34  1  0
  1 35  1  0
  1 36  1  0
  2 37  1  0
  2 38  1  0
  7 39  1  0
  8 40  1  0
  9 41  1  0
 10 42  1  0
 11 43  1  0
 12 44  1  0
 13 45  1  0
 13 46  1  0
 14 47  1  0
 14 48  1  0
 18 49  1  0
 18 50  1  0
 19 51  1  1
 20 52  1  0
 20 53  1  0
 21 54  1  0
 21 55  1  0
 22 56  1  0
 22 57  1  0
 24 58  1  0
 25 59  1  0
 27 60  1  0
 28 61  1  0
 29 62  1  0
 30 63  1  0
 32 64  1  0
 32 65  1  0
 33 66  1  0
 33 67  1  0
M  END
>  <smiles>  (80) 
CCC(=O)N(c1ccccc1)C1CCN(C(=O)CC(N)CCc2c[nH]c3ccccc23)CC1

>  <score_type>  (80) 
oracle

>  <origin>  (80) 
autodockgpu

>  <m_score__min__energy>  (80) 
-9.5899999999999999

>  <m_primary>  (80) 
energy

>  <rmsd>  (80) 
11.193386134557718

>  <m_score__min__rmsd>  (80) 
11.193386134557718

>  <meeko>  (80) 
{"free_energy": -8.49, "intermolecular_energy": -11.48, "internal_energy": -1.81, "cluster_size": 15, "cluster_id": 2, "rank_in_cluster": 12}

>  <energy>  (80) 
-8.9

>  <cluster_rmsd>  (80) 
1.97

>  <cluster>  (80) 
2

$$$$

     RDKit          3D

 67 70  0  0  0  0  0  0  0  0999 V2000
  142.2400   80.0720  218.4280 C   0  0  0  0  0  0  0  0  0  0  0  0
  141.1720   79.2210  219.0810 C   0  0  0  0  0  0  0  0  0  0  0  0
  141.8320   78.1710  219.9080 C   0  0  0  0  0  0  0  0  0  0  0  0
  142.6930   77.4660  219.3470 O   0  0  0  0  0  0  0  0  0  0  0  0
  141.4510   78.0310  221.2770 N   0  0  0  0  0  0  0  0  0  0  0  0
  141.5780   79.1450  222.1850 C   0  0  0  0  0  0  0  0  0  0  0  0
  140.4890   79.8920  222.5780 C   0  0  0  0  0  0  0  0  0  0  0  0
  140.7310   80.9440  223.4590 C   0  0  0  0  0  0  0  0  0  0  0  0
  142.0110   81.2280  223.9180 C   0  0  0  0  0  0  0  0  0  0  0  0
  143.0850   80.4680  223.5130 C   0  0  0  0  0  0  0  0  0  0  0  0
  142.8530   79.4230  222.6400 C   0  0  0  0  0  0  0  0  0  0  0  0
  140.9320   76.7950  221.8010 C   0  0  0  0  0  0  0  0  0  0  0  0
  141.3040   75.5880  220.9340 C   0  0  0  0  0  0  0  0  0  0  0  0
  140.7840   74.3620  221.7100 C   0  0  0  0  0  0  0  0  0  0  0  0
  139.3510   74.3790  221.6050 N   0  0  0  0  0  0  0  0  0  0  0  0
  138.4460   73.3350  221.8250 C   0  0  0  0  0  0  0  0  0  0  0  0
  137.1940   73.6660  221.6370 O   0  0  0  0  0  0  0  0  0  0  0  0
  138.6120   71.9530  222.2230 C   0  0  0  0  0  0  0  0  0  0  0  0
  138.2340   71.4840  223.5670 C   0  0  1  0  0  0  0  0  0  0  0  0
  136.9410   71.9300  224.0360 N   0  0  0  0  0  0  0  0  0  0  0  0
  138.1590   69.9530  223.5610 C   0  0  0  0  0  0  0  0  0  0  0  0
  139.4950   69.2800  223.6310 C   0  0  0  0  0  0  0  0  0  0  0  0
  139.7280   68.9670  225.1030 C   0  0  0  0  0  0  0  0  0  0  0  0
  139.5100   67.7660  225.7350 C   0  0  0  0  0  0  0  0  0  0  0  0
  139.8540   67.9600  227.0210 N   0  0  0  0  0  0  0  0  0  0  0  0
  140.2740   69.2270  227.2140 C   0  0  0  0  0  0  0  0  0  0  0  0
  140.7290   69.9320  228.3140 C   0  0  0  0  0  0  0  0  0  0  0  0
  141.1090   71.2600  228.2400 C   0  0  0  0  0  0  0  0  0  0  0  0
  141.0370   71.9280  227.0180 C   0  0  0  0  0  0  0  0  0  0  0  0
  140.5820   71.2320  225.9010 C   0  0  0  0  0  0  0  0  0  0  0  0
  140.2080   69.9000  226.0100 C   0  0  0  0  0  0  0  0  0  0  0  0
  138.7720   75.6900  221.2170 C   0  0  0  0  0  0  0  0  0  0  0  0
  139.4230   76.8190  221.9810 C   0  0  0  0  0  0  0  0  0  0  0  0
  142.8486   80.5569  219.2054 H   0  0  0  0  0  0  0  0  0  0  0  0
  142.8835   79.4363  217.8020 H   0  0  0  0  0  0  0  0  0  0  0  0
  141.7641   80.8412  217.8020 H   0  0  0  0  0  0  0  0  0  0  0  0
  140.5377   79.8513  219.7215 H   0  0  0  0  0  0  0  0  0  0  0  0
  140.5464   78.7495  218.3087 H   0  0  0  0  0  0  0  0  0  0  0  0
  139.4757   79.6683  222.2132 H   0  0  0  0  0  0  0  0  0  0  0  0
  139.8886   81.5643  223.7991 H   0  0  0  0  0  0  0  0  0  0  0  0
  142.1678   82.0676  224.6112 H   0  0  0  0  0  0  0  0  0  0  0  0
  144.1005   80.6870  223.8748 H   0  0  0  0  0  0  0  0  0  0  0  0
  143.6960   78.8026  222.3018 H   0  0  0  0  0  0  0  0  0  0  0  0
  141.4057   76.6896  222.7882 H   0  0  0  0  0  0  0  0  0  0  0  0
  140.8192   75.6558  219.9489 H   0  0  0  0  0  0  0  0  0  0  0  0
  142.3869   75.5306  220.7496 H   0  0  0  0  0  0  0  0  0  0  0  0
  141.1847   73.4373  221.2691 H   0  0  0  0  0  0  0  0  0  0  0  0
  141.1023   74.3979  222.7623 H   0  0  0  0  0  0  0  0  0  0  0  0
  138.0269   71.3534  221.5102 H   0  0  0  0  0  0  0  0  0  0  0  0
  139.7064   71.8427  222.2356 H   0  0  0  0  0  0  0  0  0  0  0  0
  139.0046   71.9015  224.2317 H   0  0  0  0  0  0  0  0  0  0  0  0
  136.9910   72.3970  224.9380 H   0  0  0  0  0  0  0  0  0  0  0  0
  136.4700   72.4400  223.2730 H   0  0  0  0  0  0  0  0  0  0  0  0
  137.5635   69.6320  224.4284 H   0  0  0  0  0  0  0  0  0  0  0  0
  137.7031   69.6593  222.6040 H   0  0  0  0  0  0  0  0  0  0  0  0
  139.4878   68.3528  223.0391 H   0  0  0  0  0  0  0  0  0  0  0  0
  140.2914   69.9198  223.2232 H   0  0  0  0  0  0  0  0  0  0  0  0
  139.1320   66.8374  225.2824 H   0  0  0  0  0  0  0  0  0  0  0  0
  139.8110   67.2460  227.7900 H   0  0  0  0  0  0  0  0  0  0  0  0
  140.7909   69.4171  229.2840 H   0  0  0  0  0  0  0  0  0  0  0  0
  141.4653   71.7852  229.1384 H   0  0  0  0  0  0  0  0  0  0  0  0
  141.3339   72.9842  226.9380 H   0  0  0  0  0  0  0  0  0  0  0  0
  140.5187   71.7404  224.9276 H   0  0  0  0  0  0  0  0  0  0  0  0
  138.9291   75.8476  220.1397 H   0  0  0  0  0  0  0  0  0  0  0  0
  137.6978   75.6815  221.4536 H   0  0  0  0  0  0  0  0  0  0  0  0
  139.0311   77.7778  221.6106 H   0  0  0  0  0  0  0  0  0  0  0  0
  139.1942   76.6983  223.0501 H   0  0  0  0  0  0  0  0  0  0  0  0
  1  2  1  0
  2  3  1  0
  3  4  2  0
  3  5  1  0
  5  6  1  0
  6  7  2  0
  7  8  1  0
  8  9  2  0
  9 10  1  0
 10 11  2  0
  5 12  1  0
 12 13  1  0
 13 14  1  0
 14 15  1  0
 15 16  1  0
 16 17  2  0
 16 18  1  0
 18 19  1  0
 19 20  1  0
 19 21  1  0
 21 22  1  0
 22 23  1  0
 23 24  2  0
 24 25  1  0
 25 26  1  0
 26 27  2  0
 27 28  1  0
 28 29  2  0
 29 30  1  0
 30 31  2  0
 15 32  1  0
 32 33  1  0
 11  6  1  0
 33 12  1  0
 31 23  1  0
 31 26  1  0
  1 34  1  0
  1 35  1  0
  1 36  1  0
  2 37  1  0
  2 38  1  0
  7 39  1  0
  8 40  1  0
  9 41  1  0
 10 42  1  0
 11 43  1  0
 12 44  1  0
 13 45  1  0
 13 46  1  0
 14 47  1  0
 14 48  1  0
 18 49  1  0
 18 50  1  0
 19 51  1  1
 20 52  1  0
 20 53  1  0
 21 54  1  0
 21 55  1  0
 22 56  1  0
 22 57  1  0
 24 58  1  0
 25 59  1  0
 27 60  1  0
 28 61  1  0
 29 62  1  0
 30 63  1  0
 32 64  1  0
 32 65  1  0
 33 66  1  0
 33 67  1  0
M  END
>  <smiles>  (81) 
CCC(=O)N(c1ccccc1)C1CCN(C(=O)CC(N)CCc2c[nH]c3ccccc23)CC1

>  <score_type>  (81) 
oracle

>  <origin>  (81) 
autodockgpu

>  <m_score__min__energy>  (81) 
-9.5899999999999999

>  <m_primary>  (81) 
energy

>  <rmsd>  (81) 
11.452457255109922

>  <m_score__min__rmsd>  (81) 
11.452457255109922

>  <meeko>  (81) 
{"free_energy": -9.24, "intermolecular_energy": -12.22, "internal_energy": -2.13, "cluster_size": 27, "cluster_id": 1, "rank_in_cluster": 3}

>  <energy>  (81) 
-8.9

>  <cluster_rmsd>  (81) 
0.63

>  <cluster>  (81) 
2

$$$$

     RDKit          3D

 67 70  0  0  0  0  0  0  0  0999 V2000
  137.7710   80.8220  224.4740 C   0  0  0  0  0  0  0  0  0  0  0  0
  138.0180   81.3880  223.0920 C   0  0  0  0  0  0  0  0  0  0  0  0
  138.0000   80.2710  222.1050 C   0  0  0  0  0  0  0  0  0  0  0  0
  137.0390   80.2290  221.3130 O   0  0  0  0  0  0  0  0  0  0  0  0
  139.0670   79.3220  222.1170 N   0  0  0  0  0  0  0  0  0  0  0  0
  140.4060   79.7390  222.4560 C   0  0  0  0  0  0  0  0  0  0  0  0
  141.1660   80.5110  221.6040 C   0  0  0  0  0  0  0  0  0  0  0  0
  142.4460   80.8530  222.0360 C   0  0  0  0  0  0  0  0  0  0  0  0
  142.9340   80.4350  223.2680 C   0  0  0  0  0  0  0  0  0  0  0  0
  142.1570   79.6640  224.1040 C   0  0  0  0  0  0  0  0  0  0  0  0
  140.8870   79.3210  223.6820 C   0  0  0  0  0  0  0  0  0  0  0  0
  138.8570   77.9340  221.8000 C   0  0  0  0  0  0  0  0  0  0  0  0
  138.2630   77.1480  222.9740 C   0  0  0  0  0  0  0  0  0  0  0  0
  137.9900   75.7380  222.4140 C   0  0  0  0  0  0  0  0  0  0  0  0
  139.2670   75.1030  222.2420 N   0  0  0  0  0  0  0  0  0  0  0  0
  139.5550   73.7420  222.1000 C   0  0  0  0  0  0  0  0  0  0  0  0
  140.8300   73.4760  221.9710 O   0  0  0  0  0  0  0  0  0  0  0  0
  138.7240   72.5570  222.0650 C   0  0  0  0  0  0  0  0  0  0  0  0
  139.3000   71.2050  222.1670 C   0  0  1  0  0  0  0  0  0  0  0  0
  140.7420   71.1530  222.2600 N   0  0  0  0  0  0  0  0  0  0  0  0
  138.7860   70.5360  223.4460 C   0  0  0  0  0  0  0  0  0  0  0  0
  139.2000   69.1040  223.5900 C   0  0  0  0  0  0  0  0  0  0  0  0
  139.4670   68.8930  225.0740 C   0  0  0  0  0  0  0  0  0  0  0  0
  139.1940   67.7650  225.8090 C   0  0  0  0  0  0  0  0  0  0  0  0
  139.5980   68.0360  227.0640 N   0  0  0  0  0  0  0  0  0  0  0  0
  140.1080   69.2820  227.1380 C   0  0  0  0  0  0  0  0  0  0  0  0
  140.6490   70.0400  228.1620 C   0  0  0  0  0  0  0  0  0  0  0  0
  141.1140   71.3280  227.9670 C   0  0  0  0  0  0  0  0  0  0  0  0
  141.0400   71.9000  226.6970 C   0  0  0  0  0  0  0  0  0  0  0  0
  140.4970   71.1500  225.6560 C   0  0  0  0  0  0  0  0  0  0  0  0
  140.0410   69.8610  225.8860 C   0  0  0  0  0  0  0  0  0  0  0  0
  140.4240   76.0340  222.2060 C   0  0  0  0  0  0  0  0  0  0  0  0
  140.1270   77.2360  221.3410 C   0  0  0  0  0  0  0  0  0  0  0  0
  138.0899   81.5527  225.2319 H   0  0  0  0  0  0  0  0  0  0  0  0
  136.6986   80.6102  224.5972 H   0  0  0  0  0  0  0  0  0  0  0  0
  138.3450   79.8917  224.5972 H   0  0  0  0  0  0  0  0  0  0  0  0
  137.2296   82.1137  222.8434 H   0  0  0  0  0  0  0  0  0  0  0  0
  138.9938   81.8950  223.0648 H   0  0  0  0  0  0  0  0  0  0  0  0
  140.7802   80.8418  220.6284 H   0  0  0  0  0  0  0  0  0  0  0  0
  143.0853   81.4686  221.3861 H   0  0  0  0  0  0  0  0  0  0  0  0
  143.9495   80.7223  223.5783 H   0  0  0  0  0  0  0  0  0  0  0  0
  142.5372   79.3305  225.0808 H   0  0  0  0  0  0  0  0  0  0  0  0
  140.2485   78.7052  224.3325 H   0  0  0  0  0  0  0  0  0  0  0  0
  138.1361   77.9432  220.9692 H   0  0  0  0  0  0  0  0  0  0  0  0
  138.9780   77.1006  223.8085 H   0  0  0  0  0  0  0  0  0  0  0  0
  137.3504   77.6199  223.3670 H   0  0  0  0  0  0  0  0  0  0  0  0
  137.3738   75.1630  223.1208 H   0  0  0  0  0  0  0  0  0  0  0  0
  137.4453   75.7919  221.4598 H   0  0  0  0  0  0  0  0  0  0  0  0
  138.0119   72.6537  222.8978 H   0  0  0  0  0  0  0  0  0  0  0  0
  138.3392   72.5708  221.0346 H   0  0  0  0  0  0  0  0  0  0  0  0
  138.9960   70.7052  221.2354 H   0  0  0  0  0  0  0  0  0  0  0  0
  141.2000   71.4210  221.3920 H   0  0  0  0  0  0  0  0  0  0  0  0
  141.0370   71.6490  223.1150 H   0  0  0  0  0  0  0  0  0  0  0  0
  139.1726   71.0969  224.3097 H   0  0  0  0  0  0  0  0  0  0  0  0
  137.6873   70.5471  223.3929 H   0  0  0  0  0  0  0  0  0  0  0  0
  138.3952   68.4369  223.2476 H   0  0  0  0  0  0  0  0  0  0  0  0
  140.0898   68.8783  222.9839 H   0  0  0  0  0  0  0  0  0  0  0  0
  138.7386   66.8317  225.4463 H   0  0  0  0  0  0  0  0  0  0  0  0
  139.5370   67.3900  227.8890 H   0  0  0  0  0  0  0  0  0  0  0  0
  140.7115   69.6015  229.1689 H   0  0  0  0  0  0  0  0  0  0  0  0
  141.5389   71.8969  228.8071 H   0  0  0  0  0  0  0  0  0  0  0  0
  141.4032   72.9232  226.5208 H   0  0  0  0  0  0  0  0  0  0  0  0
  140.4297   71.5825  224.6469 H   0  0  0  0  0  0  0  0  0  0  0  0
  140.6445   76.3730  223.2290 H   0  0  0  0  0  0  0  0  0  0  0  0
  141.2878   75.5020  221.7808 H   0  0  0  0  0  0  0  0  0  0  0  0
  140.9685   77.9416  221.4037 H   0  0  0  0  0  0  0  0  0  0  0  0
  139.9865   76.8968  220.3041 H   0  0  0  0  0  0  0  0  0  0  0  0
  1  2  1  0
  2  3  1  0
  3  4  2  0
  3  5  1  0
  5  6  1  0
  6  7  2  0
  7  8  1  0
  8  9  2  0
  9 10  1  0
 10 11  2  0
  5 12  1  0
 12 13  1  0
 13 14  1  0
 14 15  1  0
 15 16  1  0
 16 17  2  0
 16 18  1  0
 18 19  1  0
 19 20  1  0
 19 21  1  0
 21 22  1  0
 22 23  1  0
 23 24  2  0
 24 25  1  0
 25 26  1  0
 26 27  2  0
 27 28  1  0
 28 29  2  0
 29 30  1  0
 30 31  2  0
 15 32  1  0
 32 33  1  0
 11  6  1  0
 33 12  1  0
 31 23  1  0
 31 26  1  0
  1 34  1  0
  1 35  1  0
  1 36  1  0
  2 37  1  0
  2 38  1  0
  7 39  1  0
  8 40  1  0
  9 41  1  0
 10 42  1  0
 11 43  1  0
 12 44  1  0
 13 45  1  0
 13 46  1  0
 14 47  1  0
 14 48  1  0
 18 49  1  0
 18 50  1  0
 19 51  1  6
 20 52  1  0
 20 53  1  0
 21 54  1  0
 21 55  1  0
 22 56  1  0
 22 57  1  0
 24 58  1  0
 25 59  1  0
 27 60  1  0
 28 61  1  0
 29 62  1  0
 30 63  1  0
 32 64  1  0
 32 65  1  0
 33 66  1  0
 33 67  1  0
M  END
>  <smiles>  (82) 
CCC(=O)N(c1ccccc1)C1CCN(C(=O)CC(N)CCc2c[nH]c3ccccc23)CC1

>  <score_type>  (82) 
oracle

>  <origin>  (82) 
autodockgpu

>  <m_score__min__energy>  (82) 
-9.5899999999999999

>  <m_primary>  (82) 
energy

>  <rmsd>  (82) 
11.176296451109401

>  <m_score__min__rmsd>  (82) 
11.176296451109401

>  <meeko>  (82) 
{"free_energy": -8.82, "intermolecular_energy": -11.8, "internal_energy": -2.21, "cluster_size": 27, "cluster_id": 1, "rank_in_cluster": 13}

>  <energy>  (82) 
-8.89

>  <cluster_rmsd>  (82) 
0.66

>  <cluster>  (82) 
2

$$$$

     RDKit          3D

 67 70  0  0  0  0  0  0  0  0999 V2000
  137.7260   80.8350  224.5210 C   0  0  0  0  0  0  0  0  0  0  0  0
  137.8260   81.4670  223.1490 C   0  0  0  0  0  0  0  0  0  0  0  0
  137.8810   80.3850  222.1250 C   0  0  0  0  0  0  0  0  0  0  0  0
  136.9880   80.3790  221.2560 O   0  0  0  0  0  0  0  0  0  0  0  0
  138.9390   79.4270  222.1910 N   0  0  0  0  0  0  0  0  0  0  0  0
  140.2680   79.8370  222.5710 C   0  0  0  0  0  0  0  0  0  0  0  0
  140.8840   79.3510  223.7050 C   0  0  0  0  0  0  0  0  0  0  0  0
  142.1690   79.8170  223.9730 C   0  0  0  0  0  0  0  0  0  0  0  0
  142.8010   80.7290  223.1370 C   0  0  0  0  0  0  0  0  0  0  0  0
  142.1680   81.2010  222.0090 C   0  0  0  0  0  0  0  0  0  0  0  0
  140.8940   80.7440  221.7370 C   0  0  0  0  0  0  0  0  0  0  0  0
  138.7270   78.0360  221.8870 C   0  0  0  0  0  0  0  0  0  0  0  0
  138.1950   77.2480  223.0880 C   0  0  0  0  0  0  0  0  0  0  0  0
  137.9100   75.8340  222.5460 C   0  0  0  0  0  0  0  0  0  0  0  0
  139.1840   75.2100  222.3160 N   0  0  0  0  0  0  0  0  0  0  0  0
  139.4770   73.8510  222.1640 C   0  0  0  0  0  0  0  0  0  0  0  0
  140.7470   73.5970  221.9770 O   0  0  0  0  0  0  0  0  0  0  0  0
  138.6570   72.6580  222.1710 C   0  0  0  0  0  0  0  0  0  0  0  0
  139.2490   71.3130  222.2600 C   0  0  1  0  0  0  0  0  0  0  0  0
  140.6910   71.2770  222.3600 N   0  0  0  0  0  0  0  0  0  0  0  0
  138.7360   70.6220  223.5280 C   0  0  0  0  0  0  0  0  0  0  0  0
  139.1510   69.1880  223.6470 C   0  0  0  0  0  0  0  0  0  0  0  0
  139.4340   68.9570  225.1260 C   0  0  0  0  0  0  0  0  0  0  0  0
  139.1740   67.8160  225.8470 C   0  0  0  0  0  0  0  0  0  0  0  0
  139.5900   68.0710  227.1010 N   0  0  0  0  0  0  0  0  0  0  0  0
  140.0950   69.3180  227.1880 C   0  0  0  0  0  0  0  0  0  0  0  0
  140.6440   70.0640  228.2170 C   0  0  0  0  0  0  0  0  0  0  0  0
  141.1000   71.3570  228.0370 C   0  0  0  0  0  0  0  0  0  0  0  0
  141.0100   71.9470  226.7760 C   0  0  0  0  0  0  0  0  0  0  0  0
  140.4600   71.2100  225.7290 C   0  0  0  0  0  0  0  0  0  0  0  0
  140.0130   69.9150  225.9450 C   0  0  0  0  0  0  0  0  0  0  0  0
  140.3290   76.1520  222.2250 C   0  0  0  0  0  0  0  0  0  0  0  0
  139.9810   77.3480  221.3710 C   0  0  0  0  0  0  0  0  0  0  0  0
  137.8487   81.6103  225.2916 H   0  0  0  0  0  0  0  0  0  0  0  0
  136.7412   80.3581  224.6341 H   0  0  0  0  0  0  0  0  0  0  0  0
  138.5154   80.0774  224.6341 H   0  0  0  0  0  0  0  0  0  0  0  0
  136.9459   82.1018  222.9693 H   0  0  0  0  0  0  0  0  0  0  0  0
  138.7331   82.0862  223.0878 H   0  0  0  0  0  0  0  0  0  0  0  0
  140.3839   78.6289  224.3671 H   0  0  0  0  0  0  0  0  0  0  0  0
  142.6959   79.4543  224.8679 H   0  0  0  0  0  0  0  0  0  0  0  0
  143.8162   81.0771  223.3784 H   0  0  0  0  0  0  0  0  0  0  0  0
  142.6638   81.9224  221.3429 H   0  0  0  0  0  0  0  0  0  0  0  0
  140.3685   81.1078  220.8417 H   0  0  0  0  0  0  0  0  0  0  0  0
  137.9684   78.0367  221.0904 H   0  0  0  0  0  0  0  0  0  0  0  0
  138.9479   77.2100  223.8891 H   0  0  0  0  0  0  0  0  0  0  0  0
  137.2965   77.7125  223.5204 H   0  0  0  0  0  0  0  0  0  0  0  0
  137.3332   75.2557  223.2828 H   0  0  0  0  0  0  0  0  0  0  0  0
  137.3208   75.8795  221.6182 H   0  0  0  0  0  0  0  0  0  0  0  0
  137.9777   72.7545  223.0308 H   0  0  0  0  0  0  0  0  0  0  0  0
  138.2317   72.6601  221.1566 H   0  0  0  0  0  0  0  0  0  0  0  0
  138.9564   70.8212  221.3206 H   0  0  0  0  0  0  0  0  0  0  0  0
  141.1500   71.5190  221.4860 H   0  0  0  0  0  0  0  0  0  0  0  0
  140.9780   71.8060  223.1990 H   0  0  0  0  0  0  0  0  0  0  0  0
  139.1228   71.1682  224.4009 H   0  0  0  0  0  0  0  0  0  0  0  0
  137.6373   70.6335  223.4760 H   0  0  0  0  0  0  0  0  0  0  0  0
  138.3423   68.5259  223.3041 H   0  0  0  0  0  0  0  0  0  0  0  0
  140.0338   68.9702  223.0279 H   0  0  0  0  0  0  0  0  0  0  0  0
  138.7194   66.8858  225.4753 H   0  0  0  0  0  0  0  0  0  0  0  0
  139.5420   67.4130  227.9180 H   0  0  0  0  0  0  0  0  0  0  0  0
  140.7204   69.6107  229.2163 H   0  0  0  0  0  0  0  0  0  0  0  0
  141.5302   71.9158  228.8812 H   0  0  0  0  0  0  0  0  0  0  0  0
  141.3664   72.9745  226.6113 H   0  0  0  0  0  0  0  0  0  0  0  0
  140.3801   71.6571  224.7272 H   0  0  0  0  0  0  0  0  0  0  0  0
  140.5923   76.4965  223.2359 H   0  0  0  0  0  0  0  0  0  0  0  0
  141.1780   75.6271  221.7628 H   0  0  0  0  0  0  0  0  0  0  0  0
  140.8180   78.0615  221.3921 H   0  0  0  0  0  0  0  0  0  0  0  0
  139.7956   77.0040  220.3428 H   0  0  0  0  0  0  0  0  0  0  0  0
  1  2  1  0
  2  3  1  0
  3  4  2  0
  3  5  1  0
  5  6  1  0
  6  7  2  0
  7  8  1  0
  8  9  2  0
  9 10  1  0
 10 11  2  0
  5 12  1  0
 12 13  1  0
 13 14  1  0
 14 15  1  0
 15 16  1  0
 16 17  2  0
 16 18  1  0
 18 19  1  0
 19 20  1  0
 19 21  1  0
 21 22  1  0
 22 23  1  0
 23 24  2  0
 24 25  1  0
 25 26  1  0
 26 27  2  0
 27 28  1  0
 28 29  2  0
 29 30  1  0
 30 31  2  0
 15 32  1  0
 32 33  1  0
 11  6  1  0
 33 12  1  0
 31 23  1  0
 31 26  1  0
  1 34  1  0
  1 35  1  0
  1 36  1  0
  2 37  1  0
  2 38  1  0
  7 39  1  0
  8 40  1  0
  9 41  1  0
 10 42  1  0
 11 43  1  0
 12 44  1  0
 13 45  1  0
 13 46  1  0
 14 47  1  0
 14 48  1  0
 18 49  1  0
 18 50  1  0
 19 51  1  6
 20 52  1  0
 20 53  1  0
 21 54  1  0
 21 55  1  0
 22 56  1  0
 22 57  1  0
 24 58  1  0
 25 59  1  0
 27 60  1  0
 28 61  1  0
 29 62  1  0
 30 63  1  0
 32 64  1  0
 32 65  1  0
 33 66  1  0
 33 67  1  0
M  END
>  <smiles>  (83) 
CCC(=O)N(c1ccccc1)C1CCN(C(=O)CC(N)CCc2c[nH]c3ccccc23)CC1

>  <score_type>  (83) 
oracle

>  <origin>  (83) 
autodockgpu

>  <m_score__min__energy>  (83) 
-9.5899999999999999

>  <m_primary>  (83) 
energy

>  <rmsd>  (83) 
11.158469628241225

>  <m_score__min__rmsd>  (83) 
11.158469628241225

>  <meeko>  (83) 
{"free_energy": -8.77, "intermolecular_energy": -11.75, "internal_energy": -2.2, "cluster_size": 15, "cluster_id": 2, "rank_in_cluster": 7}

>  <energy>  (83) 
-8.77

>  <cluster_rmsd>  (83) 
0.97

>  <cluster>  (83) 
2

$$$$

     RDKit          3D

 67 70  0  0  0  0  0  0  0  0999 V2000
  141.7650   79.7610  217.7040 C   0  0  0  0  0  0  0  0  0  0  0  0
  140.9870   78.7340  218.4980 C   0  0  0  0  0  0  0  0  0  0  0  0
  141.9230   78.0280  219.4180 C   0  0  0  0  0  0  0  0  0  0  0  0
  142.9230   77.4880  218.9070 O   0  0  0  0  0  0  0  0  0  0  0  0
  141.6300   78.0070  220.8160 N   0  0  0  0  0  0  0  0  0  0  0  0
  141.7930   79.2000  221.6110 C   0  0  0  0  0  0  0  0  0  0  0  0
  141.6110   80.4590  221.0810 C   0  0  0  0  0  0  0  0  0  0  0  0
  141.7950   81.5380  221.9430 C   0  0  0  0  0  0  0  0  0  0  0  0
  142.1480   81.3540  223.2740 C   0  0  0  0  0  0  0  0  0  0  0  0
  142.3250   80.0870  223.7830 C   0  0  0  0  0  0  0  0  0  0  0  0
  142.1430   79.0120  222.9340 C   0  0  0  0  0  0  0  0  0  0  0  0
  141.1660   76.8180  221.4810 C   0  0  0  0  0  0  0  0  0  0  0  0
  141.5050   75.5410  220.7030 C   0  0  0  0  0  0  0  0  0  0  0  0
  141.0560   74.3850  221.6170 C   0  0  0  0  0  0  0  0  0  0  0  0
  139.6190   74.3750  221.6020 N   0  0  0  0  0  0  0  0  0  0  0  0
  138.7480   73.3450  221.9710 C   0  0  0  0  0  0  0  0  0  0  0  0
  137.4810   73.6410  221.8330 O   0  0  0  0  0  0  0  0  0  0  0  0
  138.9620   72.0060  222.4800 C   0  0  0  0  0  0  0  0  0  0  0  0
  138.1590   71.4610  223.5870 C   0  0  1  0  0  0  0  0  0  0  0  0
  136.7980   71.9450  223.6600 N   0  0  0  0  0  0  0  0  0  0  0  0
  138.0430   69.9420  223.4220 C   0  0  0  0  0  0  0  0  0  0  0  0
  139.3510   69.2200  223.5200 C   0  0  0  0  0  0  0  0  0  0  0  0
  139.5740   68.9590  225.0040 C   0  0  0  0  0  0  0  0  0  0  0  0
  139.3010   67.7990  225.6880 C   0  0  0  0  0  0  0  0  0  0  0  0
  139.6580   68.0310  226.9640 N   0  0  0  0  0  0  0  0  0  0  0  0
  140.1390   69.2830  227.1010 C   0  0  0  0  0  0  0  0  0  0  0  0
  140.6310   70.0130  228.1690 C   0  0  0  0  0  0  0  0  0  0  0  0
  141.0740   71.3160  228.0380 C   0  0  0  0  0  0  0  0  0  0  0  0
  141.0300   71.9340  226.7880 C   0  0  0  0  0  0  0  0  0  0  0  0
  140.5380   71.2130  225.7020 C   0  0  0  0  0  0  0  0  0  0  0  0
  140.1010   69.9070  225.8700 C   0  0  0  0  0  0  0  0  0  0  0  0
  138.9940   75.6390  221.1350 C   0  0  0  0  0  0  0  0  0  0  0  0
  139.6700   76.8400  221.7520 C   0  0  0  0  0  0  0  0  0  0  0  0
  142.2820   80.4435  218.3945 H   0  0  0  0  0  0  0  0  0  0  0  0
  142.5051   79.2506  217.0702 H   0  0  0  0  0  0  0  0  0  0  0  0
  141.0733   80.3353  217.0702 H   0  0  0  0  0  0  0  0  0  0  0  0
  140.2022   79.2360  219.0829 H   0  0  0  0  0  0  0  0  0  0  0  0
  140.5180   78.0106  217.8149 H   0  0  0  0  0  0  0  0  0  0  0  0
  141.3334   80.6052  220.0267 H   0  0  0  0  0  0  0  0  0  0  0  0
  141.6575   82.5601  221.5605 H   0  0  0  0  0  0  0  0  0  0  0  0
  142.2873   82.2282  223.9269 H   0  0  0  0  0  0  0  0  0  0  0  0
  142.6035   79.9347  224.8362 H   0  0  0  0  0  0  0  0  0  0  0  0
  142.2790   77.9902  223.3179 H   0  0  0  0  0  0  0  0  0  0  0  0
  141.7009   76.8086  222.4421 H   0  0  0  0  0  0  0  0  0  0  0  0
  140.9589   75.5135  219.7486 H   0  0  0  0  0  0  0  0  0  0  0  0
  142.5751   75.4800  220.4559 H   0  0  0  0  0  0  0  0  0  0  0  0
  141.4449   73.4290  221.2365 H   0  0  0  0  0  0  0  0  0  0  0  0
  141.4382   74.5203  222.6396 H   0  0  0  0  0  0  0  0  0  0  0  0
  138.8174   71.3248  221.6285 H   0  0  0  0  0  0  0  0  0  0  0  0
  139.9614   72.0848  222.9327 H   0  0  0  0  0  0  0  0  0  0  0  0
  138.6884   71.7828  224.4960 H   0  0  0  0  0  0  0  0  0  0  0  0
  136.7180   72.8100  224.1880 H   0  0  0  0  0  0  0  0  0  0  0  0
  136.3940   71.9390  222.7100 H   0  0  0  0  0  0  0  0  0  0  0  0
  137.3757   69.5581  224.2077 H   0  0  0  0  0  0  0  0  0  0  0  0
  137.6523   69.7594  222.4101 H   0  0  0  0  0  0  0  0  0  0  0  0
  139.3060   68.2702  222.9670 H   0  0  0  0  0  0  0  0  0  0  0  0
  140.1715   69.8104  223.0862 H   0  0  0  0  0  0  0  0  0  0  0  0
  138.8774   66.8710  225.2765 H   0  0  0  0  0  0  0  0  0  0  0  0
  139.5850   67.3540  227.7630 H   0  0  0  0  0  0  0  0  0  0  0  0
  140.6711   69.5381  229.1604 H   0  0  0  0  0  0  0  0  0  0  0  0
  141.4582   71.8613  228.9126 H   0  0  0  0  0  0  0  0  0  0  0  0
  141.3770   72.9702  226.6623 H   0  0  0  0  0  0  0  0  0  0  0  0
  140.4959   71.6811  224.7075 H   0  0  0  0  0  0  0  0  0  0  0  0
  139.0820   75.7002  220.0402 H   0  0  0  0  0  0  0  0  0  0  0  0
  137.9367   75.6389  221.4385 H   0  0  0  0  0  0  0  0  0  0  0  0
  139.2393   77.7563  221.3220 H   0  0  0  0  0  0  0  0  0  0  0  0
  139.5090   76.8142  222.8398 H   0  0  0  0  0  0  0  0  0  0  0  0
  1  2  1  0
  2  3  1  0
  3  4  2  0
  3  5  1  0
  5  6  1  0
  6  7  2  0
  7  8  1  0
  8  9  2  0
  9 10  1  0
 10 11  2  0
  5 12  1  0
 12 13  1  0
 13 14  1  0
 14 15  1  0
 15 16  1  0
 16 17  2  0
 16 18  1  0
 18 19  1  0
 19 20  1  0
 19 21  1  0
 21 22  1  0
 22 23  1  0
 23 24  2  0
 24 25  1  0
 25 26  1  0
 26 27  2  0
 27 28  1  0
 28 29  2  0
 29 30  1  0
 30 31  2  0
 15 32  1  0
 32 33  1  0
 11  6  1  0
 33 12  1  0
 31 23  1  0
 31 26  1  0
  1 34  1  0
  1 35  1  0
  1 36  1  0
  2 37  1  0
  2 38  1  0
  7 39  1  0
  8 40  1  0
  9 41  1  0
 10 42  1  0
 11 43  1  0
 12 44  1  0
 13 45  1  0
 13 46  1  0
 14 47  1  0
 14 48  1  0
 18 49  1  0
 18 50  1  0
 19 51  1  1
 20 52  1  0
 20 53  1  0
 21 54  1  0
 21 55  1  0
 22 56  1  0
 22 57  1  0
 24 58  1  0
 25 59  1  0
 27 60  1  0
 28 61  1  0
 29 62  1  0
 30 63  1  0
 32 64  1  0
 32 65  1  0
 33 66  1  0
 33 67  1  0
M  END
>  <smiles>  (84) 
CCC(=O)N(c1ccccc1)C1CCN(C(=O)CC(N)CCc2c[nH]c3ccccc23)CC1

>  <score_type>  (84) 
oracle

>  <origin>  (84) 
autodockgpu

>  <m_score__min__energy>  (84) 
-9.5899999999999999

>  <m_primary>  (84) 
energy

>  <rmsd>  (84) 
11.387127112627184

>  <m_score__min__rmsd>  (84) 
11.387127112627184

>  <meeko>  (84) 
{"free_energy": -9.05, "intermolecular_energy": -12.03, "internal_energy": -2.18, "cluster_size": 27, "cluster_id": 1, "rank_in_cluster": 6}

>  <energy>  (84) 
-8.77

>  <cluster_rmsd>  (84) 
1.27

>  <cluster>  (84) 
2

$$$$

     RDKit          3D

 67 70  0  0  0  0  0  0  0  0999 V2000
  142.4880   78.6290  217.4420 C   0  0  0  0  0  0  0  0  0  0  0  0
  142.0420   79.0060  218.8390 C   0  0  0  0  0  0  0  0  0  0  0  0
  142.1780   77.8160  219.7250 C   0  0  0  0  0  0  0  0  0  0  0  0
  143.1490   77.0630  219.5190 O   0  0  0  0  0  0  0  0  0  0  0  0
  141.2050   77.6030  220.7480 N   0  0  0  0  0  0  0  0  0  0  0  0
  141.0260   78.5790  221.7950 C   0  0  0  0  0  0  0  0  0  0  0  0
  139.7790   79.0530  222.1440 C   0  0  0  0  0  0  0  0  0  0  0  0
  139.7270   79.9940  223.1700 C   0  0  0  0  0  0  0  0  0  0  0  0
  140.8770   80.4350  223.8120 C   0  0  0  0  0  0  0  0  0  0  0  0
  142.1120   79.9480  223.4480 C   0  0  0  0  0  0  0  0  0  0  0  0
  142.1720   79.0150  222.4320 C   0  0  0  0  0  0  0  0  0  0  0  0
  140.3750   76.4280  220.7790 C   0  0  0  0  0  0  0  0  0  0  0  0
  140.0280   75.9920  222.2070 C   0  0  0  0  0  0  0  0  0  0  0  0
  139.0430   74.8190  222.0400 C   0  0  0  0  0  0  0  0  0  0  0  0
  139.8050   73.6990  221.5590 N   0  0  0  0  0  0  0  0  0  0  0  0
  139.4700   72.3410  221.5770 C   0  0  0  0  0  0  0  0  0  0  0  0
  140.3880   71.5580  221.0700 O   0  0  0  0  0  0  0  0  0  0  0  0
  138.3060   71.6190  222.0440 C   0  0  0  0  0  0  0  0  0  0  0  0
  137.9810   71.5190  223.4770 C   0  0  1  0  0  0  0  0  0  0  0  0
  136.7140   72.1000  223.8660 N   0  0  0  0  0  0  0  0  0  0  0  0
  137.8870   70.0400  223.8680 C   0  0  0  0  0  0  0  0  0  0  0  0
  139.1830   69.2990  223.7530 C   0  0  0  0  0  0  0  0  0  0  0  0
  139.5820   68.9330  225.1760 C   0  0  0  0  0  0  0  0  0  0  0  0
  139.5150   67.6900  225.7580 C   0  0  0  0  0  0  0  0  0  0  0  0
  139.9690   67.8470  227.0150 N   0  0  0  0  0  0  0  0  0  0  0  0
  140.3130   69.1310  227.2370 C   0  0  0  0  0  0  0  0  0  0  0  0
  140.8220   69.8150  228.3270 C   0  0  0  0  0  0  0  0  0  0  0  0
  141.0970   71.1700  228.2930 C   0  0  0  0  0  0  0  0  0  0  0  0
  140.8560   71.8890  227.1220 C   0  0  0  0  0  0  0  0  0  0  0  0
  140.3440   71.2160  226.0150 C   0  0  0  0  0  0  0  0  0  0  0  0
  140.0810   69.8550  226.0850 C   0  0  0  0  0  0  0  0  0  0  0  0
  141.1190   74.0520  220.9620 C   0  0  0  0  0  0  0  0  0  0  0  0
  140.9960   75.2480  220.0480 C   0  0  0  0  0  0  0  0  0  0  0  0
  143.3268   77.9200  217.5037 H   0  0  0  0  0  0  0  0  0  0  0  0
  141.6508   78.1606  216.9037 H   0  0  0  0  0  0  0  0  0  0  0  0
  142.8104   79.5325  216.9037 H   0  0  0  0  0  0  0  0  0  0  0  0
  142.6713   79.8240  219.2197 H   0  0  0  0  0  0  0  0  0  0  0  0
  140.9937   79.3388  218.8192 H   0  0  0  0  0  0  0  0  0  0  0  0
  138.8678   78.7044  221.6360 H   0  0  0  0  0  0  0  0  0  0  0  0
  138.7515   80.3975  223.4792 H   0  0  0  0  0  0  0  0  0  0  0  0
  140.8002   81.1796  224.6180 H   0  0  0  0  0  0  0  0  0  0  0  0
  143.0264   80.2928  223.9529 H   0  0  0  0  0  0  0  0  0  0  0  0
  143.1483   78.6121  222.1246 H   0  0  0  0  0  0  0  0  0  0  0  0
  139.4530   76.7243  220.2574 H   0  0  0  0  0  0  0  0  0  0  0  0
  140.9320   75.6642  222.7412 H   0  0  0  0  0  0  0  0  0  0  0  0
  139.5942   76.8141  222.7952 H   0  0  0  0  0  0  0  0  0  0  0  0
  138.5794   74.5738  223.0069 H   0  0  0  0  0  0  0  0  0  0  0  0
  138.2376   75.0783  221.3370 H   0  0  0  0  0  0  0  0  0  0  0  0
  137.4363   72.0890  221.5616 H   0  0  0  0  0  0  0  0  0  0  0  0
  138.5568   70.5791  221.7875 H   0  0  0  0  0  0  0  0  0  0  0  0
  138.7850   72.0753  223.9811 H   0  0  0  0  0  0  0  0  0  0  0  0
  136.2200   71.5360  224.5520 H   0  0  0  0  0  0  0  0  0  0  0  0
  136.8640   73.0940  224.0990 H   0  0  0  0  0  0  0  0  0  0  0  0
  137.5442   69.9786  224.9114 H   0  0  0  0  0  0  0  0  0  0  0  0
  137.1854   69.5676  223.1648 H   0  0  0  0  0  0  0  0  0  0  0  0
  139.0519   68.3906  223.1467 H   0  0  0  0  0  0  0  0  0  0  0  0
  139.9549   69.9093  223.2614 H   0  0  0  0  0  0  0  0  0  0  0  0
  139.1626   66.7580  225.2920 H   0  0  0  0  0  0  0  0  0  0  0  0
  140.0540   67.0950  227.7430 H   0  0  0  0  0  0  0  0  0  0  0  0
  141.0154   69.2595  229.2565 H   0  0  0  0  0  0  0  0  0  0  0  0
  141.5022   71.6764  229.1815 H   0  0  0  0  0  0  0  0  0  0  0  0
  141.0664   72.9676  227.0737 H   0  0  0  0  0  0  0  0  0  0  0  0
  140.1475   71.7650  225.0823 H   0  0  0  0  0  0  0  0  0  0  0  0
  141.8287   74.2876  221.7687 H   0  0  0  0  0  0  0  0  0  0  0  0
  141.4763   73.1956  220.3714 H   0  0  0  0  0  0  0  0  0  0  0  0
  141.9966   75.5322  219.6901 H   0  0  0  0  0  0  0  0  0  0  0  0
  140.3475   74.9782  219.2015 H   0  0  0  0  0  0  0  0  0  0  0  0
  1  2  1  0
  2  3  1  0
  3  4  2  0
  3  5  1  0
  5  6  1  0
  6  7  2  0
  7  8  1  0
  8  9  2  0
  9 10  1  0
 10 11  2  0
  5 12  1  0
 12 13  1  0
 13 14  1  0
 14 15  1  0
 15 16  1  0
 16 17  2  0
 16 18  1  0
 18 19  1  0
 19 20  1  0
 19 21  1  0
 21 22  1  0
 22 23  1  0
 23 24  2  0
 24 25  1  0
 25 26  1  0
 26 27  2  0
 27 28  1  0
 28 29  2  0
 29 30  1  0
 30 31  2  0
 15 32  1  0
 32 33  1  0
 11  6  1  0
 33 12  1  0
 31 23  1  0
 31 26  1  0
  1 34  1  0
  1 35  1  0
  1 36  1  0
  2 37  1  0
  2 38  1  0
  7 39  1  0
  8 40  1  0
  9 41  1  0
 10 42  1  0
 11 43  1  0
 12 44  1  0
 13 45  1  0
 13 46  1  0
 14 47  1  0
 14 48  1  0
 18 49  1  0
 18 50  1  0
 19 51  1  1
 20 52  1  0
 20 53  1  0
 21 54  1  0
 21 55  1  0
 22 56  1  0
 22 57  1  0
 24 58  1  0
 25 59  1  0
 27 60  1  0
 28 61  1  0
 29 62  1  0
 30 63  1  0
 32 64  1  0
 32 65  1  0
 33 66  1  0
 33 67  1  0
M  END
>  <smiles>  (85) 
CCC(=O)N(c1ccccc1)C1CCN(C(=O)CC(N)CCc2c[nH]c3ccccc23)CC1

>  <score_type>  (85) 
oracle

>  <origin>  (85) 
autodockgpu

>  <m_score__min__energy>  (85) 
-9.5899999999999999

>  <m_primary>  (85) 
energy

>  <rmsd>  (85) 
11.515932741317117

>  <m_score__min__rmsd>  (85) 
11.515932741317117

>  <meeko>  (85) 
{"free_energy": -8.99, "intermolecular_energy": -11.98, "internal_energy": -1.56, "cluster_size": 27, "cluster_id": 1, "rank_in_cluster": 9}

>  <energy>  (85) 
-8.7

>  <cluster_rmsd>  (85) 
0.62

>  <cluster>  (85) 
2

$$$$

     RDKit          3D

 67 70  0  0  0  0  0  0  0  0999 V2000
  137.9190   80.6590  223.6760 C   0  0  0  0  0  0  0  0  0  0  0  0
  137.2390   80.1940  222.4060 C   0  0  0  0  0  0  0  0  0  0  0  0
  138.2810   79.8950  221.3840 C   0  0  0  0  0  0  0  0  0  0  0  0
  138.2190   80.5200  220.3080 O   0  0  0  0  0  0  0  0  0  0  0  0
  139.2830   78.9220  221.6850 N   0  0  0  0  0  0  0  0  0  0  0  0
  140.5510   79.3320  222.2380 C   0  0  0  0  0  0  0  0  0  0  0  0
  140.9480   78.9590  223.5040 C   0  0  0  0  0  0  0  0  0  0  0  0
  142.1930   79.4130  223.9330 C   0  0  0  0  0  0  0  0  0  0  0  0
  142.9980   80.2050  223.1240 C   0  0  0  0  0  0  0  0  0  0  0  0
  142.5810   80.5650  221.8610 C   0  0  0  0  0  0  0  0  0  0  0  0
  141.3480   80.1190  221.4290 C   0  0  0  0  0  0  0  0  0  0  0  0
  139.0750   77.5170  221.4560 C   0  0  0  0  0  0  0  0  0  0  0  0
  138.4860   76.8040  222.6790 C   0  0  0  0  0  0  0  0  0  0  0  0
  138.2140   75.3620  222.2090 C   0  0  0  0  0  0  0  0  0  0  0  0
  139.4920   74.7200  222.0710 N   0  0  0  0  0  0  0  0  0  0  0  0
  139.7820   73.3520  222.0130 C   0  0  0  0  0  0  0  0  0  0  0  0
  141.0570   73.0810  221.8960 O   0  0  0  0  0  0  0  0  0  0  0  0
  138.9530   72.1660  222.0570 C   0  0  0  0  0  0  0  0  0  0  0  0
  138.2370   71.7670  223.2800 C   0  0  1  0  0  0  0  0  0  0  0  0
  136.8510   72.1760  223.3460 N   0  0  0  0  0  0  0  0  0  0  0  0
  138.2140   70.2370  223.3710 C   0  0  0  0  0  0  0  0  0  0  0  0
  139.5740   69.6110  223.3960 C   0  0  0  0  0  0  0  0  0  0  0  0
  139.7700   69.0950  224.8160 C   0  0  0  0  0  0  0  0  0  0  0  0
  139.5420   67.8180  225.2680 C   0  0  0  0  0  0  0  0  0  0  0  0
  139.8520   67.8310  226.5770 N   0  0  0  0  0  0  0  0  0  0  0  0
  140.2600   69.0590  226.9560 C   0  0  0  0  0  0  0  0  0  0  0  0
  140.6820   69.6050  228.1550 C   0  0  0  0  0  0  0  0  0  0  0  0
  141.0570   70.9300  228.2780 C   0  0  0  0  0  0  0  0  0  0  0  0
  141.0130   71.7620  227.1590 C   0  0  0  0  0  0  0  0  0  0  0  0
  140.5910   71.2280  225.9440 C   0  0  0  0  0  0  0  0  0  0  0  0
  140.2220   69.8940  225.8570 C   0  0  0  0  0  0  0  0  0  0  0  0
  140.6470   75.6490  221.9730 C   0  0  0  0  0  0  0  0  0  0  0  0
  140.3440   76.7940  221.0360 C   0  0  0  0  0  0  0  0  0  0  0  0
  137.3655   80.2805  224.5480 H   0  0  0  0  0  0  0  0  0  0  0  0
  138.9498   80.2758  223.7014 H   0  0  0  0  0  0  0  0  0  0  0  0
  137.9359   81.7586  223.7014 H   0  0  0  0  0  0  0  0  0  0  0  0
  136.6523   79.2866  222.6120 H   0  0  0  0  0  0  0  0  0  0  0  0
  136.5657   80.9802  222.0337 H   0  0  0  0  0  0  0  0  0  0  0  0
  140.3114   78.3321  224.1456 H   0  0  0  0  0  0  0  0  0  0  0  0
  142.5475   79.1376  224.9372 H   0  0  0  0  0  0  0  0  0  0  0  0
  143.9756   80.5473  223.4944 H   0  0  0  0  0  0  0  0  0  0  0  0
  143.2135   81.1909  221.2144 H   0  0  0  0  0  0  0  0  0  0  0  0
  140.9944   80.3946  220.4245 H   0  0  0  0  0  0  0  0  0  0  0  0
  138.3511   77.4734  220.6289 H   0  0  0  0  0  0  0  0  0  0  0  0
  139.2038   76.8098  223.5125 H   0  0  0  0  0  0  0  0  0  0  0  0
  137.5737   77.2978  223.0448 H   0  0  0  0  0  0  0  0  0  0  0  0
  137.6022   74.8307  222.9529 H   0  0  0  0  0  0  0  0  0  0  0  0
  137.6651   75.3555  221.2558 H   0  0  0  0  0  0  0  0  0  0  0  0
  138.1869   72.2951  221.2783 H   0  0  0  0  0  0  0  0  0  0  0  0
  139.6924   71.3594  221.9450 H   0  0  0  0  0  0  0  0  0  0  0  0
  138.7832   72.2656  224.0943 H   0  0  0  0  0  0  0  0  0  0  0  0
  136.7180   73.0220  223.8930 H   0  0  0  0  0  0  0  0  0  0  0  0
  136.4590   72.1720  222.3910 H   0  0  0  0  0  0  0  0  0  0  0  0
  137.6847   69.9526  224.2924 H   0  0  0  0  0  0  0  0  0  0  0  0
  137.7100   69.8704  222.4646 H   0  0  0  0  0  0  0  0  0  0  0  0
  139.6263   68.7806  222.6765 H   0  0  0  0  0  0  0  0  0  0  0  0
  140.3560   70.3326  223.1169 H   0  0  0  0  0  0  0  0  0  0  0  0
  139.1804   66.9612  224.6806 H   0  0  0  0  0  0  0  0  0  0  0  0
  139.7930   67.0160  227.2380 H   0  0  0  0  0  0  0  0  0  0  0  0
  140.7207   68.9598  229.0451 H   0  0  0  0  0  0  0  0  0  0  0  0
  141.3873   71.3249  229.2501 H   0  0  0  0  0  0  0  0  0  0  0  0
  141.3060   72.8195  227.2349 H   0  0  0  0  0  0  0  0  0  0  0  0
  140.5502   71.8670  225.0496 H   0  0  0  0  0  0  0  0  0  0  0  0
  140.8704   76.0515  222.9720 H   0  0  0  0  0  0  0  0  0  0  0  0
  141.5106   75.0933  221.5788 H   0  0  0  0  0  0  0  0  0  0  0  0
  141.1844   77.5035  221.0507 H   0  0  0  0  0  0  0  0  0  0  0  0
  140.1997   76.3904  220.0229 H   0  0  0  0  0  0  0  0  0  0  0  0
  1  2  1  0
  2  3  1  0
  3  4  2  0
  3  5  1  0
  5  6  1  0
  6  7  2  0
  7  8  1  0
  8  9  2  0
  9 10  1  0
 10 11  2  0
  5 12  1  0
 12 13  1  0
 13 14  1  0
 14 15  1  0
 15 16  1  0
 16 17  2  0
 16 18  1  0
 18 19  1  0
 19 20  1  0
 19 21  1  0
 21 22  1  0
 22 23  1  0
 23 24  2  0
 24 25  1  0
 25 26  1  0
 26 27  2  0
 27 28  1  0
 28 29  2  0
 29 30  1  0
 30 31  2  0
 15 32  1  0
 32 33  1  0
 11  6  1  0
 33 12  1  0
 31 23  1  0
 31 26  1  0
  1 34  1  0
  1 35  1  0
  1 36  1  0
  2 37  1  0
  2 38  1  0
  7 39  1  0
  8 40  1  0
  9 41  1  0
 10 42  1  0
 11 43  1  0
 12 44  1  0
 13 45  1  0
 13 46  1  0
 14 47  1  0
 14 48  1  0
 18 49  1  0
 18 50  1  0
 19 51  1  1
 20 52  1  0
 20 53  1  0
 21 54  1  0
 21 55  1  0
 22 56  1  0
 22 57  1  0
 24 58  1  0
 25 59  1  0
 27 60  1  0
 28 61  1  0
 29 62  1  0
 30 63  1  0
 32 64  1  0
 32 65  1  0
 33 66  1  0
 33 67  1  0
M  END
>  <smiles>  (86) 
CCC(=O)N(c1ccccc1)C1CCN(C(=O)CC(N)CCc2c[nH]c3ccccc23)CC1

>  <score_type>  (86) 
oracle

>  <origin>  (86) 
autodockgpu

>  <m_score__min__energy>  (86) 
-9.5899999999999999

>  <m_primary>  (86) 
energy

>  <rmsd>  (86) 
11.325782977369316

>  <m_score__min__rmsd>  (86) 
11.325782977369316

>  <meeko>  (86) 
{"free_energy": -8.89, "intermolecular_energy": -11.87, "internal_energy": -1.77, "cluster_size": 15, "cluster_id": 2, "rank_in_cluster": 5}

>  <energy>  (86) 
-8.66

>  <cluster_rmsd>  (86) 
1.04

>  <cluster>  (86) 
2

$$$$

     RDKit          3D

 67 70  0  0  0  0  0  0  0  0999 V2000
  142.5810   80.7480  218.1740 C   0  0  0  0  0  0  0  0  0  0  0  0
  141.3810   79.9610  218.6570 C   0  0  0  0  0  0  0  0  0  0  0  0
  141.8600   78.7320  219.3520 C   0  0  0  0  0  0  0  0  0  0  0  0
  142.7450   78.0670  218.7830 O   0  0  0  0  0  0  0  0  0  0  0  0
  141.2880   78.3880  220.6150 N   0  0  0  0  0  0  0  0  0  0  0  0
  141.4210   79.2790  221.7410 C   0  0  0  0  0  0  0  0  0  0  0  0
  142.5740   79.3320  222.4960 C   0  0  0  0  0  0  0  0  0  0  0  0
  142.5890   80.2310  223.5600 C   0  0  0  0  0  0  0  0  0  0  0  0
  141.4950   81.0350  223.8490 C   0  0  0  0  0  0  0  0  0  0  0  0
  140.3530   80.9660  223.0820 C   0  0  0  0  0  0  0  0  0  0  0  0
  140.3300   80.0780  222.0250 C   0  0  0  0  0  0  0  0  0  0  0  0
  140.5650   77.1590  220.8150 C   0  0  0  0  0  0  0  0  0  0  0  0
  140.3170   76.8590  222.2970 C   0  0  0  0  0  0  0  0  0  0  0  0
  139.4310   75.5980  222.3080 C   0  0  0  0  0  0  0  0  0  0  0  0
  140.2670   74.4980  221.9130 N   0  0  0  0  0  0  0  0  0  0  0  0
  140.0520   73.1280  222.0940 C   0  0  0  0  0  0  0  0  0  0  0  0
  141.0130   72.3710  221.6290 O   0  0  0  0  0  0  0  0  0  0  0  0
  138.9760   72.3700  222.6950 C   0  0  0  0  0  0  0  0  0  0  0  0
  138.7540   70.9500  222.3720 C   0  0  1  0  0  0  0  0  0  0  0  0
  139.8880   70.2640  221.7930 N   0  0  0  0  0  0  0  0  0  0  0  0
  138.4300   70.1860  223.6600 C   0  0  0  0  0  0  0  0  0  0  0  0
  139.1720   68.8930  223.8010 C   0  0  0  0  0  0  0  0  0  0  0  0
  139.4970   68.7570  225.2830 C   0  0  0  0  0  0  0  0  0  0  0  0
  139.3170   67.6440  226.0680 C   0  0  0  0  0  0  0  0  0  0  0  0
  139.7410   67.9880  227.2970 N   0  0  0  0  0  0  0  0  0  0  0  0
  140.1750   69.2640  227.3080 C   0  0  0  0  0  0  0  0  0  0  0  0
  140.6990   70.0930  228.2850 C   0  0  0  0  0  0  0  0  0  0  0  0
  141.0770   71.3990  228.0280 C   0  0  0  0  0  0  0  0  0  0  0  0
  140.9290   71.9150  226.7400 C   0  0  0  0  0  0  0  0  0  0  0  0
  140.4030   71.0940  225.7460 C   0  0  0  0  0  0  0  0  0  0  0  0
  140.0350   69.7890  226.0390 C   0  0  0  0  0  0  0  0  0  0  0  0
  141.5190   74.8880  221.2150 C   0  0  0  0  0  0  0  0  0  0  0  0
  141.2550   75.9600  220.1850 C   0  0  0  0  0  0  0  0  0  0  0  0
  143.1482   81.1200  219.0399 H   0  0  0  0  0  0  0  0  0  0  0  0
  143.2258   80.0968  217.5656 H   0  0  0  0  0  0  0  0  0  0  0  0
  142.2407   81.5989  217.5656 H   0  0  0  0  0  0  0  0  0  0  0  0
  140.7929   80.5749  219.3550 H   0  0  0  0  0  0  0  0  0  0  0  0
  140.7473   79.6836  217.8017 H   0  0  0  0  0  0  0  0  0  0  0  0
  143.4410   78.6943  222.2687 H   0  0  0  0  0  0  0  0  0  0  0  0
  143.4900   80.3056  224.1866 H   0  0  0  0  0  0  0  0  0  0  0  0
  141.5404   81.7332  224.6978 H   0  0  0  0  0  0  0  0  0  0  0  0
  139.4831   81.6010  223.3055 H   0  0  0  0  0  0  0  0  0  0  0  0
  139.4285   80.0054  221.3988 H   0  0  0  0  0  0  0  0  0  0  0  0
  139.5998   77.3182  220.3120 H   0  0  0  0  0  0  0  0  0  0  0  0
  141.2674   76.6678  222.8167 H   0  0  0  0  0  0  0  0  0  0  0  0
  139.8385   77.7037  222.8143 H   0  0  0  0  0  0  0  0  0  0  0  0
  139.0308   75.4255  223.3180 H   0  0  0  0  0  0  0  0  0  0  0  0
  138.5775   75.7101  221.6232 H   0  0  0  0  0  0  0  0  0  0  0  0
  139.1334   72.4187  223.7826 H   0  0  0  0  0  0  0  0  0  0  0  0
  138.0839   72.8497  222.2659 H   0  0  0  0  0  0  0  0  0  0  0  0
  137.9412   70.9601  221.6308 H   0  0  0  0  0  0  0  0  0  0  0  0
  140.0570   70.5320  220.8270 H   0  0  0  0  0  0  0  0  0  0  0  0
  140.6860   70.3370  222.4430 H   0  0  0  0  0  0  0  0  0  0  0  0
  138.6853   70.8271  224.5166 H   0  0  0  0  0  0  0  0  0  0  0  0
  137.3591   69.9374  223.6232 H   0  0  0  0  0  0  0  0  0  0  0  0
  138.5440   68.0533  223.4685 H   0  0  0  0  0  0  0  0  0  0  0  0
  140.0834   68.8814  223.1852 H   0  0  0  0  0  0  0  0  0  0  0  0
  138.9097   66.6712  225.7554 H   0  0  0  0  0  0  0  0  0  0  0  0
  139.7460   67.3720  228.1480 H   0  0  0  0  0  0  0  0  0  0  0  0
  140.8195   69.6984  229.3047 H   0  0  0  0  0  0  0  0  0  0  0  0
  141.4907   72.0252  228.8322 H   0  0  0  0  0  0  0  0  0  0  0  0
  141.2223   72.9508  226.5142 H   0  0  0  0  0  0  0  0  0  0  0  0
  140.2788   71.4818  224.7242 H   0  0  0  0  0  0  0  0  0  0  0  0
  142.2388   75.2694  221.9543 H   0  0  0  0  0  0  0  0  0  0  0  0
  141.9239   74.0029  220.7026 H   0  0  0  0  0  0  0  0  0  0  0  0
  142.2114   76.2832  219.7483 H   0  0  0  0  0  0  0  0  0  0  0  0
  140.5979   75.5453  219.4064 H   0  0  0  0  0  0  0  0  0  0  0  0
  1  2  1  0
  2  3  1  0
  3  4  2  0
  3  5  1  0
  5  6  1  0
  6  7  2  0
  7  8  1  0
  8  9  2  0
  9 10  1  0
 10 11  2  0
  5 12  1  0
 12 13  1  0
 13 14  1  0
 14 15  1  0
 15 16  1  0
 16 17  2  0
 16 18  1  0
 18 19  1  0
 19 20  1  0
 19 21  1  0
 21 22  1  0
 22 23  1  0
 23 24  2  0
 24 25  1  0
 25 26  1  0
 26 27  2  0
 27 28  1  0
 28 29  2  0
 29 30  1  0
 30 31  2  0
 15 32  1  0
 32 33  1  0
 11  6  1  0
 33 12  1  0
 31 23  1  0
 31 26  1  0
  1 34  1  0
  1 35  1  0
  1 36  1  0
  2 37  1  0
  2 38  1  0
  7 39  1  0
  8 40  1  0
  9 41  1  0
 10 42  1  0
 11 43  1  0
 12 44  1  0
 13 45  1  0
 13 46  1  0
 14 47  1  0
 14 48  1  0
 18 49  1  0
 18 50  1  0
 19 51  1  6
 20 52  1  0
 20 53  1  0
 21 54  1  0
 21 55  1  0
 22 56  1  0
 22 57  1  0
 24 58  1  0
 25 59  1  0
 27 60  1  0
 28 61  1  0
 29 62  1  0
 30 63  1  0
 32 64  1  0
 32 65  1  0
 33 66  1  0
 33 67  1  0
M  END
>  <smiles>  (87) 
CCC(=O)N(c1ccccc1)C1CCN(C(=O)CC(N)CCc2c[nH]c3ccccc23)CC1

>  <score_type>  (87) 
oracle

>  <origin>  (87) 
autodockgpu

>  <m_score__min__energy>  (87) 
-9.5899999999999999

>  <m_primary>  (87) 
energy

>  <rmsd>  (87) 
11.366841999473975

>  <m_score__min__rmsd>  (87) 
11.366841999473975

>  <meeko>  (87) 
{"free_energy": -8.77, "intermolecular_energy": -11.76, "internal_energy": -2.32, "cluster_size": 27, "cluster_id": 1, "rank_in_cluster": 14}

>  <energy>  (87) 
-8.66

>  <cluster_rmsd>  (87) 
1.74

>  <cluster>  (87) 
2

$$$$

     RDKit          3D

 67 70  0  0  0  0  0  0  0  0999 V2000
  142.1960   80.3910  218.6970 C   0  0  0  0  0  0  0  0  0  0  0  0
  141.1680   79.3460  219.0770 C   0  0  0  0  0  0  0  0  0  0  0  0
  141.8440   78.2690  219.8540 C   0  0  0  0  0  0  0  0  0  0  0  0
  142.6460   77.5420  219.2370 O   0  0  0  0  0  0  0  0  0  0  0  0
  141.5410   78.1270  221.2420 N   0  0  0  0  0  0  0  0  0  0  0  0
  141.6980   79.2460  222.1390 C   0  0  0  0  0  0  0  0  0  0  0  0
  140.6560   80.1010  222.4270 C   0  0  0  0  0  0  0  0  0  0  0  0
  140.9240   81.1470  223.3070 C   0  0  0  0  0  0  0  0  0  0  0  0
  142.1820   81.3220  223.8670 C   0  0  0  0  0  0  0  0  0  0  0  0
  143.2100   80.4560  223.5660 C   0  0  0  0  0  0  0  0  0  0  0  0
  142.9520   79.4160  222.6950 C   0  0  0  0  0  0  0  0  0  0  0  0
  141.0740   76.8840  221.7980 C   0  0  0  0  0  0  0  0  0  0  0  0
  141.4430   75.6770  220.9290 C   0  0  0  0  0  0  0  0  0  0  0  0
  140.9850   74.4470  221.7350 C   0  0  0  0  0  0  0  0  0  0  0  0
  139.5490   74.4270  221.6860 N   0  0  0  0  0  0  0  0  0  0  0  0
  138.6800   73.3630  221.9500 C   0  0  0  0  0  0  0  0  0  0  0  0
  137.4130   73.6600  221.8060 O   0  0  0  0  0  0  0  0  0  0  0  0
  138.8960   71.9900  222.3550 C   0  0  0  0  0  0  0  0  0  0  0  0
  138.3270   71.4520  223.6020 C   0  0  1  0  0  0  0  0  0  0  0  0
  136.9860   71.8960  223.9110 N   0  0  0  0  0  0  0  0  0  0  0  0
  138.2350   69.9260  223.4940 C   0  0  0  0  0  0  0  0  0  0  0  0
  139.5530   69.2280  223.6340 C   0  0  0  0  0  0  0  0  0  0  0  0
  139.7210   68.9460  225.1210 C   0  0  0  0  0  0  0  0  0  0  0  0
  139.4400   67.7710  225.7750 C   0  0  0  0  0  0  0  0  0  0  0  0
  139.7420   67.9880  227.0680 N   0  0  0  0  0  0  0  0  0  0  0  0
  140.1960   69.2450  227.2440 C   0  0  0  0  0  0  0  0  0  0  0  0
  140.6320   69.9650  228.3420 C   0  0  0  0  0  0  0  0  0  0  0  0
  141.0570   71.2780  228.2490 C   0  0  0  0  0  0  0  0  0  0  0  0
  141.0520   71.9150  227.0090 C   0  0  0  0  0  0  0  0  0  0  0  0
  140.6160   71.2040  225.8930 C   0  0  0  0  0  0  0  0  0  0  0  0
  140.1960   69.8880  226.0220 C   0  0  0  0  0  0  0  0  0  0  0  0
  138.9220   75.7190  221.3070 C   0  0  0  0  0  0  0  0  0  0  0  0
  139.5720   76.8720  222.0350 C   0  0  0  0  0  0  0  0  0  0  0  0
  142.6274   80.8295  219.6089 H   0  0  0  0  0  0  0  0  0  0  0  0
  142.9939   79.9214  218.1030 H   0  0  0  0  0  0  0  0  0  0  0  0
  141.7134   81.1811  218.1030 H   0  0  0  0  0  0  0  0  0  0  0  0
  140.3813   79.8075  219.6918 H   0  0  0  0  0  0  0  0  0  0  0  0
  140.7117   78.9229  218.1699 H   0  0  0  0  0  0  0  0  0  0  0  0
  139.6592   79.9637  221.9826 H   0  0  0  0  0  0  0  0  0  0  0  0
  140.1192   81.8514  223.5644 H   0  0  0  0  0  0  0  0  0  0  0  0
  142.3596   82.1598  224.5574 H   0  0  0  0  0  0  0  0  0  0  0  0
  144.2088   80.5892  224.0072 H   0  0  0  0  0  0  0  0  0  0  0  0
  143.7573   78.7116  222.4396 H   0  0  0  0  0  0  0  0  0  0  0  0
  141.5876   76.8015  222.7673 H   0  0  0  0  0  0  0  0  0  0  0  0
  140.9193   75.7224  219.9627 H   0  0  0  0  0  0  0  0  0  0  0  0
  142.5193   75.6448  220.7041 H   0  0  0  0  0  0  0  0  0  0  0  0
  141.3916   73.5283  221.2870 H   0  0  0  0  0  0  0  0  0  0  0  0
  141.3428   74.5014  222.7738 H   0  0  0  0  0  0  0  0  0  0  0  0
  138.5052   71.3622  221.5407 H   0  0  0  0  0  0  0  0  0  0  0  0
  139.9757   71.9750  222.5649 H   0  0  0  0  0  0  0  0  0  0  0  0
  139.0014   71.8148  224.3916 H   0  0  0  0  0  0  0  0  0  0  0  0
  136.6470   71.5280  224.7970 H   0  0  0  0  0  0  0  0  0  0  0  0
  136.9380   72.9190  223.7820 H   0  0  0  0  0  0  0  0  0  0  0  0
  137.5644   69.5623  224.2865 H   0  0  0  0  0  0  0  0  0  0  0  0
  137.8585   69.6990  222.4857 H   0  0  0  0  0  0  0  0  0  0  0  0
  139.5499   68.2871  223.0642 H   0  0  0  0  0  0  0  0  0  0  0  0
  140.3782   69.8419  223.2440 H   0  0  0  0  0  0  0  0  0  0  0  0
  139.0485   66.8432  225.3324 H   0  0  0  0  0  0  0  0  0  0  0  0
  139.6480   67.2960  227.8520 H   0  0  0  0  0  0  0  0  0  0  0  0
  140.6410   69.4745  229.3266 H   0  0  0  0  0  0  0  0  0  0  0  0
  141.3964   71.8155  229.1467 H   0  0  0  0  0  0  0  0  0  0  0  0
  141.3858   72.9588  226.9135 H   0  0  0  0  0  0  0  0  0  0  0  0
  140.6047   71.6881  224.9053 H   0  0  0  0  0  0  0  0  0  0  0  0
  139.0346   75.8689  220.2231 H   0  0  0  0  0  0  0  0  0  0  0  0
  137.8579   75.6859  221.5837 H   0  0  0  0  0  0  0  0  0  0  0  0
  139.1421   77.8166  221.6706 H   0  0  0  0  0  0  0  0  0  0  0  0
  139.3866   76.7570  223.1132 H   0  0  0  0  0  0  0  0  0  0  0  0
  1  2  1  0
  2  3  1  0
  3  4  2  0
  3  5  1  0
  5  6  1  0
  6  7  2  0
  7  8  1  0
  8  9  2  0
  9 10  1  0
 10 11  2  0
  5 12  1  0
 12 13  1  0
 13 14  1  0
 14 15  1  0
 15 16  1  0
 16 17  2  0
 16 18  1  0
 18 19  1  0
 19 20  1  0
 19 21  1  0
 21 22  1  0
 22 23  1  0
 23 24  2  0
 24 25  1  0
 25 26  1  0
 26 27  2  0
 27 28  1  0
 28 29  2  0
 29 30  1  0
 30 31  2  0
 15 32  1  0
 32 33  1  0
 11  6  1  0
 33 12  1  0
 31 23  1  0
 31 26  1  0
  1 34  1  0
  1 35  1  0
  1 36  1  0
  2 37  1  0
  2 38  1  0
  7 39  1  0
  8 40  1  0
  9 41  1  0
 10 42  1  0
 11 43  1  0
 12 44  1  0
 13 45  1  0
 13 46  1  0
 14 47  1  0
 14 48  1  0
 18 49  1  0
 18 50  1  0
 19 51  1  1
 20 52  1  0
 20 53  1  0
 21 54  1  0
 21 55  1  0
 22 56  1  0
 22 57  1  0
 24 58  1  0
 25 59  1  0
 27 60  1  0
 28 61  1  0
 29 62  1  0
 30 63  1  0
 32 64  1  0
 32 65  1  0
 33 66  1  0
 33 67  1  0
M  END
>  <smiles>  (88) 
CCC(=O)N(c1ccccc1)C1CCN(C(=O)CC(N)CCc2c[nH]c3ccccc23)CC1

>  <score_type>  (88) 
oracle

>  <origin>  (88) 
autodockgpu

>  <m_score__min__energy>  (88) 
-9.5899999999999999

>  <m_primary>  (88) 
energy

>  <rmsd>  (88) 
11.462634776904975

>  <m_score__min__rmsd>  (88) 
11.462634776904975

>  <meeko>  (88) 
{"free_energy": -9.32, "intermolecular_energy": -12.3, "internal_energy": -2.1, "cluster_size": 27, "cluster_id": 1, "rank_in_cluster": 2}

>  <energy>  (88) 
-8.64

>  <cluster_rmsd>  (88) 
1.77

>  <cluster>  (88) 
2

$$$$

     RDKit          3D

 67 70  0  0  0  0  0  0  0  0999 V2000
  142.5550   77.9300  218.2550 C   0  0  0  0  0  0  0  0  0  0  0  0
  141.7400   79.1360  218.6700 C   0  0  0  0  0  0  0  0  0  0  0  0
  140.4230   78.6700  219.1900 C   0  0  0  0  0  0  0  0  0  0  0  0
  139.4160   78.9330  218.5050 O   0  0  0  0  0  0  0  0  0  0  0  0
  140.3840   77.9560  220.4260 N   0  0  0  0  0  0  0  0  0  0  0  0
  140.7470   78.6140  221.6580 C   0  0  0  0  0  0  0  0  0  0  0  0
  139.7990   79.1300  222.5150 C   0  0  0  0  0  0  0  0  0  0  0  0
  140.2660   79.7430  223.6760 C   0  0  0  0  0  0  0  0  0  0  0  0
  141.6240   79.8320  223.9560 C   0  0  0  0  0  0  0  0  0  0  0  0
  142.5540   79.3100  223.0850 C   0  0  0  0  0  0  0  0  0  0  0  0
  142.0980   78.7000  221.9330 C   0  0  0  0  0  0  0  0  0  0  0  0
  139.9870   76.5740  220.4970 C   0  0  0  0  0  0  0  0  0  0  0  0
  139.1980   76.2550  221.7720 C   0  0  0  0  0  0  0  0  0  0  0  0
  138.7530   74.7890  221.6110 C   0  0  0  0  0  0  0  0  0  0  0  0
  139.9270   73.9760  221.7710 N   0  0  0  0  0  0  0  0  0  0  0  0
  140.0120   72.6090  222.0560 C   0  0  0  0  0  0  0  0  0  0  0  0
  141.2370   72.1590  222.1520 O   0  0  0  0  0  0  0  0  0  0  0  0
  139.0140   71.5820  222.2690 C   0  0  0  0  0  0  0  0  0  0  0  0
  138.2260   71.5150  223.5110 C   0  0  1  0  0  0  0  0  0  0  0  0
  136.9070   72.1040  223.4390 N   0  0  0  0  0  0  0  0  0  0  0  0
  137.9950   70.0460  223.8800 C   0  0  0  0  0  0  0  0  0  0  0  0
  139.2240   69.1950  223.7820 C   0  0  0  0  0  0  0  0  0  0  0  0
  139.6210   68.8680  225.2160 C   0  0  0  0  0  0  0  0  0  0  0  0
  139.5590   67.6390  225.8280 C   0  0  0  0  0  0  0  0  0  0  0  0
  140.0080   67.8310  227.0820 N   0  0  0  0  0  0  0  0  0  0  0  0
  140.3440   69.1220  227.2730 C   0  0  0  0  0  0  0  0  0  0  0  0
  140.8440   69.8360  228.3480 C   0  0  0  0  0  0  0  0  0  0  0  0
  141.1100   71.1920  228.2800 C   0  0  0  0  0  0  0  0  0  0  0  0
  140.8700   71.8800  227.0910 C   0  0  0  0  0  0  0  0  0  0  0  0
  140.3660   71.1760  226.0000 C   0  0  0  0  0  0  0  0  0  0  0  0
  140.1100   69.8160  226.1020 C   0  0  0  0  0  0  0  0  0  0  0  0
  141.2120   74.7010  221.6000 C   0  0  0  0  0  0  0  0  0  0  0  0
  141.1640   75.6170  220.4010 C   0  0  0  0  0  0  0  0  0  0  0  0
  142.9116   77.4022  219.1518 H   0  0  0  0  0  0  0  0  0  0  0  0
  141.9287   77.2528  217.6558 H   0  0  0  0  0  0  0  0  0  0  0  0
  143.4170   78.2585  217.6558 H   0  0  0  0  0  0  0  0  0  0  0  0
  142.2733   79.6896  219.4569 H   0  0  0  0  0  0  0  0  0  0  0  0
  141.5871   79.7991  217.8058 H   0  0  0  0  0  0  0  0  0  0  0  0
  138.7239   79.0612  222.2929 H   0  0  0  0  0  0  0  0  0  0  0  0
  139.5422   80.1666  224.3878 H   0  0  0  0  0  0  0  0  0  0  0  0
  141.9590   80.3236  224.8812 H   0  0  0  0  0  0  0  0  0  0  0  0
  143.6305   79.3770  223.3009 H   0  0  0  0  0  0  0  0  0  0  0  0
  142.8227   78.2755  221.2226 H   0  0  0  0  0  0  0  0  0  0  0  0
  139.3362   76.4254  219.6227 H   0  0  0  0  0  0  0  0  0  0  0  0
  139.8365   76.3696  222.6603 H   0  0  0  0  0  0  0  0  0  0  0  0
  138.3427   76.9332  221.9085 H   0  0  0  0  0  0  0  0  0  0  0  0
  138.0083   74.5333  222.3791 H   0  0  0  0  0  0  0  0  0  0  0  0
  138.2911   74.6238  220.6264 H   0  0  0  0  0  0  0  0  0  0  0  0
  138.2890   71.6799  221.4475 H   0  0  0  0  0  0  0  0  0  0  0  0
  139.6257   70.6698  222.3301 H   0  0  0  0  0  0  0  0  0  0  0  0
  138.8182   72.0831  224.2435 H   0  0  0  0  0  0  0  0  0  0  0  0
  136.1750   71.4620  223.7340 H   0  0  0  0  0  0  0  0  0  0  0  0
  136.9310   73.0270  223.8990 H   0  0  0  0  0  0  0  0  0  0  0  0
  137.6255   70.0029  224.9152 H   0  0  0  0  0  0  0  0  0  0  0  0
  137.2704   69.6450  223.1560 H   0  0  0  0  0  0  0  0  0  0  0  0
  139.0066   68.2716  223.2252 H   0  0  0  0  0  0  0  0  0  0  0  0
  140.0331   69.7142  223.2474 H   0  0  0  0  0  0  0  0  0  0  0  0
  139.2137   66.6935  225.3844 H   0  0  0  0  0  0  0  0  0  0  0  0
  140.0950   67.0980  227.8290 H   0  0  0  0  0  0  0  0  0  0  0  0
  141.0372   69.3054  229.2920 H   0  0  0  0  0  0  0  0  0  0  0  0
  141.5078   71.7234  229.1571 H   0  0  0  0  0  0  0  0  0  0  0  0
  141.0748   72.9582  227.0162 H   0  0  0  0  0  0  0  0  0  0  0  0
  140.1700   71.7005  225.0532 H   0  0  0  0  0  0  0  0  0  0  0  0
  141.4096   75.2994  222.5016 H   0  0  0  0  0  0  0  0  0  0  0  0
  142.0118   73.9622  221.4434 H   0  0  0  0  0  0  0  0  0  0  0  0
  142.0972   76.1974  220.3534 H   0  0  0  0  0  0  0  0  0  0  0  0
  141.0462   75.0044  219.4950 H   0  0  0  0  0  0  0  0  0  0  0  0
  1  2  1  0
  2  3  1  0
  3  4  2  0
  3  5  1  0
  5  6  1  0
  6  7  2  0
  7  8  1  0
  8  9  2  0
  9 10  1  0
 10 11  2  0
  5 12  1  0
 12 13  1  0
 13 14  1  0
 14 15  1  0
 15 16  1  0
 16 17  2  0
 16 18  1  0
 18 19  1  0
 19 20  1  0
 19 21  1  0
 21 22  1  0
 22 23  1  0
 23 24  2  0
 24 25  1  0
 25 26  1  0
 26 27  2  0
 27 28  1  0
 28 29  2  0
 29 30  1  0
 30 31  2  0
 15 32  1  0
 32 33  1  0
 11  6  1  0
 33 12  1  0
 31 23  1  0
 31 26  1  0
  1 34  1  0
  1 35  1  0
  1 36  1  0
  2 37  1  0
  2 38  1  0
  7 39  1  0
  8 40  1  0
  9 41  1  0
 10 42  1  0
 11 43  1  0
 12 44  1  0
 13 45  1  0
 13 46  1  0
 14 47  1  0
 14 48  1  0
 18 49  1  0
 18 50  1  0
 19 51  1  1
 20 52  1  0
 20 53  1  0
 21 54  1  0
 21 55  1  0
 22 56  1  0
 22 57  1  0
 24 58  1  0
 25 59  1  0
 27 60  1  0
 28 61  1  0
 29 62  1  0
 30 63  1  0
 32 64  1  0
 32 65  1  0
 33 66  1  0
 33 67  1  0
M  END
>  <smiles>  (89) 
CCC(=O)N(c1ccccc1)C1CCN(C(=O)CC(N)CCc2c[nH]c3ccccc23)CC1

>  <score_type>  (89) 
oracle

>  <origin>  (89) 
autodockgpu

>  <m_score__min__energy>  (89) 
-9.5899999999999999

>  <m_primary>  (89) 
energy

>  <rmsd>  (89) 
11.545630597288097

>  <m_score__min__rmsd>  (89) 
11.545630597288097

>  <meeko>  (89) 
{"free_energy": -8.86, "intermolecular_energy": -11.84, "internal_energy": -1.7, "cluster_size": 27, "cluster_id": 1, "rank_in_cluster": 12}

>  <energy>  (89) 
-8.49

>  <cluster_rmsd>  (89) 
0.68

>  <cluster>  (89) 
2

$$$$

     RDKit          3D

 67 70  0  0  0  0  0  0  0  0999 V2000
  137.8220   80.4670  223.7960 C   0  0  0  0  0  0  0  0  0  0  0  0
  138.0060   81.0220  222.3990 C   0  0  0  0  0  0  0  0  0  0  0  0
  138.2380   79.8900  221.4580 C   0  0  0  0  0  0  0  0  0  0  0  0
  137.4480   79.7750  220.5020 O   0  0  0  0  0  0  0  0  0  0  0  0
  139.3370   79.0090  221.6970 N   0  0  0  0  0  0  0  0  0  0  0  0
  140.5910   79.5280  222.1870 C   0  0  0  0  0  0  0  0  0  0  0  0
  141.3610   80.3950  221.4440 C   0  0  0  0  0  0  0  0  0  0  0  0
  142.5530   80.8300  222.0180 C   0  0  0  0  0  0  0  0  0  0  0  0
  142.9480   80.4100  223.2820 C   0  0  0  0  0  0  0  0  0  0  0  0
  142.1620   79.5430  224.0080 C   0  0  0  0  0  0  0  0  0  0  0  0
  140.9790   79.1070  223.4450 C   0  0  0  0  0  0  0  0  0  0  0  0
  139.2430   77.5920  221.4650 C   0  0  0  0  0  0  0  0  0  0  0  0
  138.8870   76.8120  222.7350 C   0  0  0  0  0  0  0  0  0  0  0  0
  138.7030   75.3540  222.2720 C   0  0  0  0  0  0  0  0  0  0  0  0
  140.0110   74.8460  221.9630 N   0  0  0  0  0  0  0  0  0  0  0  0
  140.4270   73.5160  221.8400 C   0  0  0  0  0  0  0  0  0  0  0  0
  141.6970   73.3770  221.5600 O   0  0  0  0  0  0  0  0  0  0  0  0
  139.7330   72.2510  221.9600 C   0  0  0  0  0  0  0  0  0  0  0  0
  139.3210   71.7150  223.2680 C   0  0  1  0  0  0  0  0  0  0  0  0
  137.9210   71.8800  223.5910 N   0  0  0  0  0  0  0  0  0  0  0  0
  139.5690   70.2030  223.2910 C   0  0  0  0  0  0  0  0  0  0  0  0
  138.5470   69.4330  224.0690 C   0  0  0  0  0  0  0  0  0  0  0  0
  139.2480   68.9770  225.3420 C   0  0  0  0  0  0  0  0  0  0  0  0
  139.3850   67.6860  225.7910 C   0  0  0  0  0  0  0  0  0  0  0  0
  140.0700   67.7680  226.9460 N   0  0  0  0  0  0  0  0  0  0  0  0
  140.3620   69.0530  227.2330 C   0  0  0  0  0  0  0  0  0  0  0  0
  141.0300   69.6780  228.2710 C   0  0  0  0  0  0  0  0  0  0  0  0
  141.1970   71.0500  228.3280 C   0  0  0  0  0  0  0  0  0  0  0  0
  140.6770   71.8470  227.3090 C   0  0  0  0  0  0  0  0  0  0  0  0
  140.0020   71.2340  226.2560 C   0  0  0  0  0  0  0  0  0  0  0  0
  139.8530   69.8550  226.2310 C   0  0  0  0  0  0  0  0  0  0  0  0
  141.0460   75.8890  221.7430 C   0  0  0  0  0  0  0  0  0  0  0  0
  140.5150   77.0060  220.8760 C   0  0  0  0  0  0  0  0  0  0  0  0
  138.0785   81.2407  224.5346 H   0  0  0  0  0  0  0  0  0  0  0  0
  136.7744   80.1612  223.9340 H   0  0  0  0  0  0  0  0  0  0  0  0
  138.4795   79.5960  223.9340 H   0  0  0  0  0  0  0  0  0  0  0  0
  137.1027   81.5731  222.0984 H   0  0  0  0  0  0  0  0  0  0  0  0
  138.8672   81.7060  222.3796 H   0  0  0  0  0  0  0  0  0  0  0  0
  141.0489   80.7285  220.4433 H   0  0  0  0  0  0  0  0  0  0  0  0
  143.1973   81.5229  221.4570 H   0  0  0  0  0  0  0  0  0  0  0  0
  143.8959   80.7728  223.7062 H   0  0  0  0  0  0  0  0  0  0  0  0
  142.4684   79.2068  225.0095 H   0  0  0  0  0  0  0  0  0  0  0  0
  140.3353   78.4138  224.0064 H   0  0  0  0  0  0  0  0  0  0  0  0
  138.4289   77.4827  220.7333 H   0  0  0  0  0  0  0  0  0  0  0  0
  139.6999   76.8833  223.4726 H   0  0  0  0  0  0  0  0  0  0  0  0
  137.9831   77.2071  223.2217 H   0  0  0  0  0  0  0  0  0  0  0  0
  138.2453   74.7571  223.0747 H   0  0  0  0  0  0  0  0  0  0  0  0
  138.0422   75.3000  221.3943 H   0  0  0  0  0  0  0  0  0  0  0  0
  138.8152   72.3437  221.3608 H   0  0  0  0  0  0  0  0  0  0  0  0
  140.5024   71.5311  221.6440 H   0  0  0  0  0  0  0  0  0  0  0  0
  139.9125   72.2865  223.9984 H   0  0  0  0  0  0  0  0  0  0  0  0
  137.7390   71.8120  224.5890 H   0  0  0  0  0  0  0  0  0  0  0  0
  137.5670   72.7210  223.1090 H   0  0  0  0  0  0  0  0  0  0  0  0
  139.5645   69.8353  222.2543 H   0  0  0  0  0  0  0  0  0  0  0  0
  140.5363   70.0453  223.7904 H   0  0  0  0  0  0  0  0  0  0  0  0
  137.6886   70.0758  224.3141 H   0  0  0  0  0  0  0  0  0  0  0  0
  138.1599   68.5794  223.4932 H   0  0  0  0  0  0  0  0  0  0  0  0
  139.0112   66.7724  225.3056 H   0  0  0  0  0  0  0  0  0  0  0  0
  140.3520   66.9640  227.5600 H   0  0  0  0  0  0  0  0  0  0  0  0
  141.4440   69.0604  229.0817 H   0  0  0  0  0  0  0  0  0  0  0  0
  141.7357   71.5085  229.1704 H   0  0  0  0  0  0  0  0  0  0  0  0
  140.7976   72.9400  227.3361 H   0  0  0  0  0  0  0  0  0  0  0  0
  139.5858   71.8453  225.4417 H   0  0  0  0  0  0  0  0  0  0  0  0
  141.3516   76.3029  222.7153 H   0  0  0  0  0  0  0  0  0  0  0  0
  141.9045   75.4279  221.2327 H   0  0  0  0  0  0  0  0  0  0  0  0
  141.2755   77.7973  220.8024 H   0  0  0  0  0  0  0  0  0  0  0  0
  140.2860   76.5991  219.8800 H   0  0  0  0  0  0  0  0  0  0  0  0
  1  2  1  0
  2  3  1  0
  3  4  2  0
  3  5  1  0
  5  6  1  0
  6  7  2  0
  7  8  1  0
  8  9  2  0
  9 10  1  0
 10 11  2  0
  5 12  1  0
 12 13  1  0
 13 14  1  0
 14 15  1  0
 15 16  1  0
 16 17  2  0
 16 18  1  0
 18 19  1  0
 19 20  1  0
 19 21  1  0
 21 22  1  0
 22 23  1  0
 23 24  2  0
 24 25  1  0
 25 26  1  0
 26 27  2  0
 27 28  1  0
 28 29  2  0
 29 30  1  0
 30 31  2  0
 15 32  1  0
 32 33  1  0
 11  6  1  0
 33 12  1  0
 31 23  1  0
 31 26  1  0
  1 34  1  0
  1 35  1  0
  1 36  1  0
  2 37  1  0
  2 38  1  0
  7 39  1  0
  8 40  1  0
  9 41  1  0
 10 42  1  0
 11 43  1  0
 12 44  1  0
 13 45  1  0
 13 46  1  0
 14 47  1  0
 14 48  1  0
 18 49  1  0
 18 50  1  0
 19 51  1  1
 20 52  1  0
 20 53  1  0
 21 54  1  0
 21 55  1  0
 22 56  1  0
 22 57  1  0
 24 58  1  0
 25 59  1  0
 27 60  1  0
 28 61  1  0
 29 62  1  0
 30 63  1  0
 32 64  1  0
 32 65  1  0
 33 66  1  0
 33 67  1  0
M  END
>  <smiles>  (90) 
CCC(=O)N(c1ccccc1)C1CCN(C(=O)CC(N)CCc2c[nH]c3ccccc23)CC1

>  <score_type>  (90) 
oracle

>  <origin>  (90) 
autodockgpu

>  <m_score__min__energy>  (90) 
-9.5899999999999999

>  <m_primary>  (90) 
energy

>  <rmsd>  (90) 
11.361311101815186

>  <m_score__min__rmsd>  (90) 
11.361311101815186

>  <meeko>  (90) 
{"free_energy": -9.17, "intermolecular_energy": -12.16, "internal_energy": -1.59, "cluster_size": 15, "cluster_id": 2, "rank_in_cluster": 1}

>  <energy>  (90) 
-8.22

>  <cluster_rmsd>  (90) 
1.57

>  <cluster>  (90) 
2

$$$$

     RDKit          3D

 67 70  0  0  0  0  0  0  0  0999 V2000
  137.7010   80.5350  223.7680 C   0  0  0  0  0  0  0  0  0  0  0  0
  138.0060   81.0460  222.3760 C   0  0  0  0  0  0  0  0  0  0  0  0
  138.1330   79.8830  221.4540 C   0  0  0  0  0  0  0  0  0  0  0  0
  137.3060   79.8010  220.5260 O   0  0  0  0  0  0  0  0  0  0  0  0
  139.1790   78.9370  221.6780 N   0  0  0  0  0  0  0  0  0  0  0  0
  140.4700   79.3770  222.1470 C   0  0  0  0  0  0  0  0  0  0  0  0
  141.3180   80.1210  221.3560 C   0  0  0  0  0  0  0  0  0  0  0  0
  142.5400   80.4910  221.9150 C   0  0  0  0  0  0  0  0  0  0  0  0
  142.8870   80.1270  223.2090 C   0  0  0  0  0  0  0  0  0  0  0  0
  142.0250   79.3830  223.9830 C   0  0  0  0  0  0  0  0  0  0  0  0
  140.8120   79.0130  223.4360 C   0  0  0  0  0  0  0  0  0  0  0  0
  138.9950   77.5270  221.4510 C   0  0  0  0  0  0  0  0  0  0  0  0
  138.4130   76.8070  222.6720 C   0  0  0  0  0  0  0  0  0  0  0  0
  138.1660   75.3600  222.2040 C   0  0  0  0  0  0  0  0  0  0  0  0
  139.4550   74.7380  222.0730 N   0  0  0  0  0  0  0  0  0  0  0  0
  139.7670   73.3760  222.0190 C   0  0  0  0  0  0  0  0  0  0  0  0
  141.0460   73.1250  221.9070 O   0  0  0  0  0  0  0  0  0  0  0  0
  138.9570   72.1770  222.0600 C   0  0  0  0  0  0  0  0  0  0  0  0
  138.2850   71.7390  223.2960 C   0  0  1  0  0  0  0  0  0  0  0  0
  136.9140   72.1760  223.4410 N   0  0  0  0  0  0  0  0  0  0  0  0
  138.2290   70.2080  223.3210 C   0  0  0  0  0  0  0  0  0  0  0  0
  139.5720   69.5540  223.4380 C   0  0  0  0  0  0  0  0  0  0  0  0
  139.7330   69.1900  224.9080 C   0  0  0  0  0  0  0  0  0  0  0  0
  139.4470   67.9810  225.4950 C   0  0  0  0  0  0  0  0  0  0  0  0
  139.7440   68.1260  226.7990 N   0  0  0  0  0  0  0  0  0  0  0  0
  140.2000   69.3700  227.0460 C   0  0  0  0  0  0  0  0  0  0  0  0
  140.6330   70.0270  228.1840 C   0  0  0  0  0  0  0  0  0  0  0  0
  141.0620   71.3420  228.1660 C   0  0  0  0  0  0  0  0  0  0  0  0
  141.0640   72.0470  226.9620 C   0  0  0  0  0  0  0  0  0  0  0  0
  140.6310   71.4000  225.8070 C   0  0  0  0  0  0  0  0  0  0  0  0
  140.2070   70.0800  225.8610 C   0  0  0  0  0  0  0  0  0  0  0  0
  140.5950   75.6860  221.9780 C   0  0  0  0  0  0  0  0  0  0  0  0
  140.2780   76.8240  221.0380 C   0  0  0  0  0  0  0  0  0  0  0  0
  138.1159   81.2301  224.5128 H   0  0  0  0  0  0  0  0  0  0  0  0
  136.6115   80.4621  223.9013 H   0  0  0  0  0  0  0  0  0  0  0  0
  138.1540   79.5415  223.9013 H   0  0  0  0  0  0  0  0  0  0  0  0
  137.1899   81.7002  222.0354 H   0  0  0  0  0  0  0  0  0  0  0  0
  138.9450   81.6189  222.3860 H   0  0  0  0  0  0  0  0  0  0  0  0
  141.0433   80.4097  220.3307 H   0  0  0  0  0  0  0  0  0  0  0  0
  143.2462   81.0855  221.3167 H   0  0  0  0  0  0  0  0  0  0  0  0
  143.8596   80.4358  223.6197 H   0  0  0  0  0  0  0  0  0  0  0  0
  142.2950   79.0913  225.0087 H   0  0  0  0  0  0  0  0  0  0  0  0
  140.1066   78.4191  224.0357 H   0  0  0  0  0  0  0  0  0  0  0  0
  138.2754   77.4700  220.6210 H   0  0  0  0  0  0  0  0  0  0  0  0
  139.1273   76.8259  223.5083 H   0  0  0  0  0  0  0  0  0  0  0  0
  137.4913   77.2867  223.0330 H   0  0  0  0  0  0  0  0  0  0  0  0
  137.5594   74.8206  222.9464 H   0  0  0  0  0  0  0  0  0  0  0  0
  137.6215   75.3427  221.2484 H   0  0  0  0  0  0  0  0  0  0  0  0
  138.1651   72.3127  221.3086 H   0  0  0  0  0  0  0  0  0  0  0  0
  139.7037   71.3842  221.9056 H   0  0  0  0  0  0  0  0  0  0  0  0
  138.8781   72.1876  224.1066 H   0  0  0  0  0  0  0  0  0  0  0  0
  136.8190   72.9610  224.0800 H   0  0  0  0  0  0  0  0  0  0  0  0
  136.5000   72.2850  222.5030 H   0  0  0  0  0  0  0  0  0  0  0  0
  137.6164   69.8977  224.1803 H   0  0  0  0  0  0  0  0  0  0  0  0
  137.8003   69.8881  222.3598 H   0  0  0  0  0  0  0  0  0  0  0  0
  139.6127   68.6495  222.8133 H   0  0  0  0  0  0  0  0  0  0  0  0
  140.3771   70.2215  223.0970 H   0  0  0  0  0  0  0  0  0  0  0  0
  139.0556   67.0798  225.0003 H   0  0  0  0  0  0  0  0  0  0  0  0
  139.6450   67.3920  227.5440 H   0  0  0  0  0  0  0  0  0  0  0  0
  140.6362   69.4827  229.1399 H   0  0  0  0  0  0  0  0  0  0  0  0
  141.3989   71.8280  229.0935 H   0  0  0  0  0  0  0  0  0  0  0  0
  141.4010   73.0935  226.9256 H   0  0  0  0  0  0  0  0  0  0  0  0
  140.6252   71.9381  224.8476 H   0  0  0  0  0  0  0  0  0  0  0  0
  140.8074   76.0939  222.9773 H   0  0  0  0  0  0  0  0  0  0  0  0
  141.4691   75.1437  221.5882 H   0  0  0  0  0  0  0  0  0  0  0  0
  141.1067   77.5472  221.0555 H   0  0  0  0  0  0  0  0  0  0  0  0
  140.1452   76.4166  220.0249 H   0  0  0  0  0  0  0  0  0  0  0  0
  1  2  1  0
  2  3  1  0
  3  4  2  0
  3  5  1  0
  5  6  1  0
  6  7  2  0
  7  8  1  0
  8  9  2  0
  9 10  1  0
 10 11  2  0
  5 12  1  0
 12 13  1  0
 13 14  1  0
 14 15  1  0
 15 16  1  0
 16 17  2  0
 16 18  1  0
 18 19  1  0
 19 20  1  0
 19 21  1  0
 21 22  1  0
 22 23  1  0
 23 24  2  0
 24 25  1  0
 25 26  1  0
 26 27  2  0
 27 28  1  0
 28 29  2  0
 29 30  1  0
 30 31  2  0
 15 32  1  0
 32 33  1  0
 11  6  1  0
 33 12  1  0
 31 23  1  0
 31 26  1  0
  1 34  1  0
  1 35  1  0
  1 36  1  0
  2 37  1  0
  2 38  1  0
  7 39  1  0
  8 40  1  0
  9 41  1  0
 10 42  1  0
 11 43  1  0
 12 44  1  0
 13 45  1  0
 13 46  1  0
 14 47  1  0
 14 48  1  0
 18 49  1  0
 18 50  1  0
 19 51  1  1
 20 52  1  0
 20 53  1  0
 21 54  1  0
 21 55  1  0
 22 56  1  0
 22 57  1  0
 24 58  1  0
 25 59  1  0
 27 60  1  0
 28 61  1  0
 29 62  1  0
 30 63  1  0
 32 64  1  0
 32 65  1  0
 33 66  1  0
 33 67  1  0
M  END
>  <smiles>  (91) 
CCC(=O)N(c1ccccc1)C1CCN(C(=O)CC(N)CCc2c[nH]c3ccccc23)CC1

>  <score_type>  (91) 
oracle

>  <origin>  (91) 
autodockgpu

>  <m_score__min__energy>  (91) 
-9.5899999999999999

>  <m_primary>  (91) 
energy

>  <rmsd>  (91) 
11.210791115110775

>  <m_score__min__rmsd>  (91) 
11.210791115110775

>  <meeko>  (91) 
{"free_energy": -8.9, "intermolecular_energy": -11.88, "internal_energy": -1.84, "cluster_size": 15, "cluster_id": 2, "rank_in_cluster": 4}

>  <energy>  (91) 
-8.1

>  <cluster_rmsd>  (91) 
1.43

>  <cluster>  (91) 
2

$$$$

     RDKit          3D

 67 70  0  0  0  0  0  0  0  0999 V2000
  142.1880   80.2360  218.5720 C   0  0  0  0  0  0  0  0  0  0  0  0
  141.0490   81.0770  219.1090 C   0  0  0  0  0  0  0  0  0  0  0  0
  139.9790   80.1710  219.6140 C   0  0  0  0  0  0  0  0  0  0  0  0
  138.8680   80.2360  219.0530 O   0  0  0  0  0  0  0  0  0  0  0  0
  140.2770   79.2890  220.6970 N   0  0  0  0  0  0  0  0  0  0  0  0
  141.0750   79.7460  221.8080 C   0  0  0  0  0  0  0  0  0  0  0  0
  142.3470   79.2660  222.0370 C   0  0  0  0  0  0  0  0  0  0  0  0
  143.0250   79.7790  223.1410 C   0  0  0  0  0  0  0  0  0  0  0  0
  142.4470   80.7300  223.9720 C   0  0  0  0  0  0  0  0  0  0  0  0
  141.1750   81.1960  223.7250 C   0  0  0  0  0  0  0  0  0  0  0  0
  140.4970   80.6920  222.6330 C   0  0  0  0  0  0  0  0  0  0  0  0
  139.8010   77.9310  220.7280 C   0  0  0  0  0  0  0  0  0  0  0  0
  139.1170   77.5790  222.0540 C   0  0  0  0  0  0  0  0  0  0  0  0
  138.5660   76.1540  221.8540 C   0  0  0  0  0  0  0  0  0  0  0  0
  139.6960   75.2660  221.8510 N   0  0  0  0  0  0  0  0  0  0  0  0
  139.7200   73.8810  222.0490 C   0  0  0  0  0  0  0  0  0  0  0  0
  140.9170   73.3560  221.9980 O   0  0  0  0  0  0  0  0  0  0  0  0
  138.6830   72.9030  222.3000 C   0  0  0  0  0  0  0  0  0  0  0  0
  138.9350   71.4580  222.1690 C   0  0  1  0  0  0  0  0  0  0  0  0
  140.2240   71.1020  221.6180 N   0  0  0  0  0  0  0  0  0  0  0  0
  138.8960   70.8140  223.5590 C   0  0  0  0  0  0  0  0  0  0  0  0
  139.5220   69.4540  223.6160 C   0  0  0  0  0  0  0  0  0  0  0  0
  139.6860   69.1320  225.0950 C   0  0  0  0  0  0  0  0  0  0  0  0
  139.3830   67.9450  225.7190 C   0  0  0  0  0  0  0  0  0  0  0  0
  139.6910   68.1230  227.0170 N   0  0  0  0  0  0  0  0  0  0  0  0
  140.1700   69.3660  227.2240 C   0  0  0  0  0  0  0  0  0  0  0  0
  140.6230   70.0480  228.3400 C   0  0  0  0  0  0  0  0  0  0  0  0
  141.0750   71.3540  228.2800 C   0  0  0  0  0  0  0  0  0  0  0  0
  141.0810   72.0230  227.0560 C   0  0  0  0  0  0  0  0  0  0  0  0
  140.6290   71.3500  225.9230 C   0  0  0  0  0  0  0  0  0  0  0  0
  140.1830   70.0400  226.0190 C   0  0  0  0  0  0  0  0  0  0  0  0
  141.0030   75.9240  221.5970 C   0  0  0  0  0  0  0  0  0  0  0  0
  140.9000   76.9150  220.4620 C   0  0  0  0  0  0  0  0  0  0  0  0
  142.7597   79.8139  219.4117 H   0  0  0  0  0  0  0  0  0  0  0  0
  141.7824   79.4191  217.9571 H   0  0  0  0  0  0  0  0  0  0  0  0
  142.8494   80.8641  217.9571 H   0  0  0  0  0  0  0  0  0  0  0  0
  141.4135   81.7120  219.9299 H   0  0  0  0  0  0  0  0  0  0  0  0
  140.6490   81.7182  218.3097 H   0  0  0  0  0  0  0  0  0  0  0  0
  142.8053   78.5131  221.3789 H   0  0  0  0  0  0  0  0  0  0  0  0
  144.0423   79.4222  223.3596 H   0  0  0  0  0  0  0  0  0  0  0  0
  143.0103   81.1143  224.8351 H   0  0  0  0  0  0  0  0  0  0  0  0
  140.7119   81.9490  224.3796 H   0  0  0  0  0  0  0  0  0  0  0  0
  139.4796   81.0495  222.4160 H   0  0  0  0  0  0  0  0  0  0  0  0
  139.0621   77.8756  219.9150 H   0  0  0  0  0  0  0  0  0  0  0  0
  139.8425   77.6003  222.8806 H   0  0  0  0  0  0  0  0  0  0  0  0
  138.3236   78.2958  222.3121 H   0  0  0  0  0  0  0  0  0  0  0  0
  137.8827   75.8939  222.6758 H   0  0  0  0  0  0  0  0  0  0  0  0
  138.0032   76.0781  220.9120 H   0  0  0  0  0  0  0  0  0  0  0  0
  138.3477   73.0661  223.3349 H   0  0  0  0  0  0  0  0  0  0  0  0
  137.9771   73.0935  221.4782 H   0  0  0  0  0  0  0  0  0  0  0  0
  138.1551   71.1045  221.4785 H   0  0  0  0  0  0  0  0  0  0  0  0
  140.4250   71.5880  220.7480 H   0  0  0  0  0  0  0  0  0  0  0  0
  140.9330   71.1710  222.3640 H   0  0  0  0  0  0  0  0  0  0  0  0
  139.4311   71.4712  224.2603 H   0  0  0  0  0  0  0  0  0  0  0  0
  137.8355   70.6886  223.8230 H   0  0  0  0  0  0  0  0  0  0  0  0
  138.8695   68.7118  223.1329 H   0  0  0  0  0  0  0  0  0  0  0  0
  140.4868   69.4310  223.0882 H   0  0  0  0  0  0  0  0  0  0  0  0
  138.9731   67.0367  225.2532 H   0  0  0  0  0  0  0  0  0  0  0  0
  139.5840   67.4130  227.7830 H   0  0  0  0  0  0  0  0  0  0  0  0
  140.6236   69.5319  229.3114 H   0  0  0  0  0  0  0  0  0  0  0  0
  141.4270   71.8611  229.1905 H   0  0  0  0  0  0  0  0  0  0  0  0
  141.4358   73.0619  226.9867 H   0  0  0  0  0  0  0  0  0  0  0  0
  140.6258   71.8596  224.9482 H   0  0  0  0  0  0  0  0  0  0  0  0
  141.3225   76.4521  222.5075 H   0  0  0  0  0  0  0  0  0  0  0  0
  141.7360   75.1515  221.3215 H   0  0  0  0  0  0  0  0  0  0  0  0
  141.8597   77.4419  220.3556 H   0  0  0  0  0  0  0  0  0  0  0  0
  140.6577   76.3684  219.5387 H   0  0  0  0  0  0  0  0  0  0  0  0
  1  2  1  0
  2  3  1  0
  3  4  2  0
  3  5  1  0
  5  6  1  0
  6  7  2  0
  7  8  1  0
  8  9  2  0
  9 10  1  0
 10 11  2  0
  5 12  1  0
 12 13  1  0
 13 14  1  0
 14 15  1  0
 15 16  1  0
 16 17  2  0
 16 18  1  0
 18 19  1  0
 19 20  1  0
 19 21  1  0
 21 22  1  0
 22 23  1  0
 23 24  2  0
 24 25  1  0
 25 26  1  0
 26 27  2  0
 27 28  1  0
 28 29  2  0
 29 30  1  0
 30 31  2  0
 15 32  1  0
 32 33  1  0
 11  6  1  0
 33 12  1  0
 31 23  1  0
 31 26  1  0
  1 34  1  0
  1 35  1  0
  1 36  1  0
  2 37  1  0
  2 38  1  0
  7 39  1  0
  8 40  1  0
  9 41  1  0
 10 42  1  0
 11 43  1  0
 12 44  1  0
 13 45  1  0
 13 46  1  0
 14 47  1  0
 14 48  1  0
 18 49  1  0
 18 50  1  0
 19 51  1  6
 20 52  1  0
 20 53  1  0
 21 54  1  0
 21 55  1  0
 22 56  1  0
 22 57  1  0
 24 58  1  0
 25 59  1  0
 27 60  1  0
 28 61  1  0
 29 62  1  0
 30 63  1  0
 32 64  1  0
 32 65  1  0
 33 66  1  0
 33 67  1  0
M  END
>  <smiles>  (92) 
CCC(=O)N(c1ccccc1)C1CCN(C(=O)CC(N)CCc2c[nH]c3ccccc23)CC1

>  <score_type>  (92) 
oracle

>  <origin>  (92) 
autodockgpu

>  <m_score__min__energy>  (92) 
-9.5899999999999999

>  <m_primary>  (92) 
energy

>  <rmsd>  (92) 
11.097472913284188

>  <m_score__min__rmsd>  (92) 
11.097472913284188

>  <meeko>  (92) 
{"free_energy": -8.63, "intermolecular_energy": -11.61, "internal_energy": -2.3, "cluster_size": 27, "cluster_id": 1, "rank_in_cluster": 20}

>  <energy>  (92) 
-8.1

>  <cluster_rmsd>  (92) 
1.34

>  <cluster>  (92) 
2

$$$$

     RDKit          3D

 67 70  0  0  0  0  0  0  0  0999 V2000
  142.6660   80.8580  223.8740 C   0  0  0  0  0  0  0  0  0  0  0  0
  142.4790   79.6160  223.0300 C   0  0  0  0  0  0  0  0  0  0  0  0
  141.0620   79.5550  222.5710 C   0  0  0  0  0  0  0  0  0  0  0  0
  140.2000   80.0450  223.3250 O   0  0  0  0  0  0  0  0  0  0  0  0
  140.7710   78.9470  221.3120 N   0  0  0  0  0  0  0  0  0  0  0  0
  141.0980   79.6270  220.0830 C   0  0  0  0  0  0  0  0  0  0  0  0
  142.1650   79.2440  219.2990 C   0  0  0  0  0  0  0  0  0  0  0  0
  142.3850   79.9740  218.1340 C   0  0  0  0  0  0  0  0  0  0  0  0
  141.5690   81.0400  217.7780 C   0  0  0  0  0  0  0  0  0  0  0  0
  140.5070   81.4060  218.5750 C   0  0  0  0  0  0  0  0  0  0  0  0
  140.2830   80.6860  219.7320 C   0  0  0  0  0  0  0  0  0  0  0  0
  140.1510   77.6510  221.2160 C   0  0  0  0  0  0  0  0  0  0  0  0
  139.3690   77.2800  222.4810 C   0  0  0  0  0  0  0  0  0  0  0  0
  138.6780   75.9430  222.1470 C   0  0  0  0  0  0  0  0  0  0  0  0
  139.7050   74.9380  222.1200 N   0  0  0  0  0  0  0  0  0  0  0  0
  139.5700   73.5490  222.2080 C   0  0  0  0  0  0  0  0  0  0  0  0
  140.7050   72.8990  222.1650 O   0  0  0  0  0  0  0  0  0  0  0  0
  138.4230   72.6750  222.3380 C   0  0  0  0  0  0  0  0  0  0  0  0
  138.5430   71.2150  222.1960 C   0  0  1  0  0  0  0  0  0  0  0  0
  139.7720   70.7510  221.5900 N   0  0  0  0  0  0  0  0  0  0  0  0
  138.5060   70.5700  223.5860 C   0  0  0  0  0  0  0  0  0  0  0  0
  139.2070   69.2480  223.6600 C   0  0  0  0  0  0  0  0  0  0  0  0
  139.4630   68.9940  225.1400 C   0  0  0  0  0  0  0  0  0  0  0  0
  139.1950   67.8410  225.8370 C   0  0  0  0  0  0  0  0  0  0  0  0
  139.5850   68.0770  227.1030 N   0  0  0  0  0  0  0  0  0  0  0  0
  140.0800   69.3250  227.2200 C   0  0  0  0  0  0  0  0  0  0  0  0
  140.6040   70.0560  228.2720 C   0  0  0  0  0  0  0  0  0  0  0  0
  141.0560   71.3550  228.1230 C   0  0  0  0  0  0  0  0  0  0  0  0
  140.9870   71.9660  226.8710 C   0  0  0  0  0  0  0  0  0  0  0  0
  140.4630   71.2430  225.8010 C   0  0  0  0  0  0  0  0  0  0  0  0
  140.0190   69.9420  225.9870 C   0  0  0  0  0  0  0  0  0  0  0  0
  141.0860   75.4640  221.9720 C   0  0  0  0  0  0  0  0  0  0  0  0
  141.1460   76.5420  220.9160 C   0  0  0  0  0  0  0  0  0  0  0  0
  142.6252   80.5870  224.9393 H   0  0  0  0  0  0  0  0  0  0  0  0
  143.6425   81.3112  223.6481 H   0  0  0  0  0  0  0  0  0  0  0  0
  141.8662   81.5787  223.6481 H   0  0  0  0  0  0  0  0  0  0  0  0
  143.1484   79.6574  222.1581 H   0  0  0  0  0  0  0  0  0  0  0  0
  142.7180   78.7215  223.6239 H   0  0  0  0  0  0  0  0  0  0  0  0
  142.8127   78.4007  219.5807 H   0  0  0  0  0  0  0  0  0  0  0  0
  143.2256   79.6998  217.4796 H   0  0  0  0  0  0  0  0  0  0  0  0
  141.7727   81.5968  216.8515 H   0  0  0  0  0  0  0  0  0  0  0  0
  139.8557   82.2480  218.2978 H   0  0  0  0  0  0  0  0  0  0  0  0
  139.4415   80.9603  220.3852 H   0  0  0  0  0  0  0  0  0  0  0  0
  139.4517   77.7381  220.3714 H   0  0  0  0  0  0  0  0  0  0  0  0
  140.0512   77.1595  223.3355 H   0  0  0  0  0  0  0  0  0  0  0  0
  138.6455   78.0594  222.7622 H   0  0  0  0  0  0  0  0  0  0  0  0
  137.9313   75.7002  222.9174 H   0  0  0  0  0  0  0  0  0  0  0  0
  138.1569   75.9997  221.1799 H   0  0  0  0  0  0  0  0  0  0  0  0
  138.0089   72.8552  223.3410 H   0  0  0  0  0  0  0  0  0  0  0  0
  137.8205   72.9470  221.4588 H   0  0  0  0  0  0  0  0  0  0  0  0
  137.7069   70.9334  221.5390 H   0  0  0  0  0  0  0  0  0  0  0  0
  140.0130   71.2680  220.7490 H   0  0  0  0  0  0  0  0  0  0  0  0
  140.4970   70.6870  222.3210 H   0  0  0  0  0  0  0  0  0  0  0  0
  138.9851   71.2566  224.2994 H   0  0  0  0  0  0  0  0  0  0  0  0
  137.4482   70.3846  223.8242 H   0  0  0  0  0  0  0  0  0  0  0  0
  138.5721   68.4541  223.2397 H   0  0  0  0  0  0  0  0  0  0  0  0
  140.1436   69.2545  223.0832 H   0  0  0  0  0  0  0  0  0  0  0  0
  138.7524   66.9149  225.4414 H   0  0  0  0  0  0  0  0  0  0  0  0
  139.5240   67.4050  227.9070 H   0  0  0  0  0  0  0  0  0  0  0  0
  140.6634   69.5860  229.2648 H   0  0  0  0  0  0  0  0  0  0  0  0
  141.4665   71.9016  228.9849 H   0  0  0  0  0  0  0  0  0  0  0  0
  141.3394   72.9986  226.7309 H   0  0  0  0  0  0  0  0  0  0  0  0
  140.4012   71.7058  224.8050 H   0  0  0  0  0  0  0  0  0  0  0  0
  141.4156   75.8842  222.9337 H   0  0  0  0  0  0  0  0  0  0  0  0
  141.7441   74.6375  221.6659 H   0  0  0  0  0  0  0  0  0  0  0  0
  142.1608   76.9657  220.8911 H   0  0  0  0  0  0  0  0  0  0  0  0
  140.8920   76.0956  219.9432 H   0  0  0  0  0  0  0  0  0  0  0  0
  1  2  1  0
  2  3  1  0
  3  4  2  0
  3  5  1  0
  5  6  1  0
  6  7  2  0
  7  8  1  0
  8  9  2  0
  9 10  1  0
 10 11  2  0
  5 12  1  0
 12 13  1  0
 13 14  1  0
 14 15  1  0
 15 16  1  0
 16 17  2  0
 16 18  1  0
 18 19  1  0
 19 20  1  0
 19 21  1  0
 21 22  1  0
 22 23  1  0
 23 24  2  0
 24 25  1  0
 25 26  1  0
 26 27  2  0
 27 28  1  0
 28 29  2  0
 29 30  1  0
 30 31  2  0
 15 32  1  0
 32 33  1  0
 11  6  1  0
 33 12  1  0
 31 23  1  0
 31 26  1  0
  1 34  1  0
  1 35  1  0
  1 36  1  0
  2 37  1  0
  2 38  1  0
  7 39  1  0
  8 40  1  0
  9 41  1  0
 10 42  1  0
 11 43  1  0
 12 44  1  0
 13 45  1  0
 13 46  1  0
 14 47  1  0
 14 48  1  0
 18 49  1  0
 18 50  1  0
 19 51  1  6
 20 52  1  0
 20 53  1  0
 21 54  1  0
 21 55  1  0
 22 56  1  0
 22 57  1  0
 24 58  1  0
 25 59  1  0
 27 60  1  0
 28 61  1  0
 29 62  1  0
 30 63  1  0
 32 64  1  0
 32 65  1  0
 33 66  1  0
 33 67  1  0
M  END
>  <smiles>  (93) 
CCC(=O)N(c1ccccc1)C1CCN(C(=O)CC(N)CCc2c[nH]c3ccccc23)CC1

>  <score_type>  (93) 
oracle

>  <origin>  (93) 
autodockgpu

>  <m_score__min__energy>  (93) 
-9.5899999999999999

>  <m_primary>  (93) 
energy

>  <rmsd>  (93) 
11.18417549378403

>  <m_score__min__rmsd>  (93) 
11.18417549378403

>  <meeko>  (93) 
{"free_energy": -8.28, "intermolecular_energy": -11.27, "internal_energy": -2.23, "cluster_size": 1, "cluster_id": 4, "rank_in_cluster": 1}

>  <energy>  (93) 
-9.16

>  <cluster_rmsd>  (93) 
0.0

>  <cluster>  (93) 
3

$$$$

     RDKit          3D

 67 70  0  0  0  0  0  0  0  0999 V2000
  137.6520   80.8860  224.9070 C   0  0  0  0  0  0  0  0  0  0  0  0
  137.9340   81.3460  223.4920 C   0  0  0  0  0  0  0  0  0  0  0  0
  137.8290   80.1740  222.5760 C   0  0  0  0  0  0  0  0  0  0  0  0
  136.7370   79.9960  222.0040 O   0  0  0  0  0  0  0  0  0  0  0  0
  138.9670   79.3290  222.4060 N   0  0  0  0  0  0  0  0  0  0  0  0
  140.2840   79.8010  222.7600 C   0  0  0  0  0  0  0  0  0  0  0  0
  140.9290   79.3720  223.9000 C   0  0  0  0  0  0  0  0  0  0  0  0
  142.1980   79.8960  224.1410 C   0  0  0  0  0  0  0  0  0  0  0  0
  142.7840   80.8080  223.2740 C   0  0  0  0  0  0  0  0  0  0  0  0
  142.1210   81.2240  222.1400 C   0  0  0  0  0  0  0  0  0  0  0  0
  140.8640   80.7080  221.8950 C   0  0  0  0  0  0  0  0  0  0  0  0
  138.8540   77.9920  221.8830 C   0  0  0  0  0  0  0  0  0  0  0  0
  138.0490   77.0690  222.8040 C   0  0  0  0  0  0  0  0  0  0  0  0
  137.9230   75.7420  222.0310 C   0  0  0  0  0  0  0  0  0  0  0  0
  139.2220   75.1260  222.0450 N   0  0  0  0  0  0  0  0  0  0  0  0
  139.5590   73.7910  221.7970 C   0  0  0  0  0  0  0  0  0  0  0  0
  140.8380   73.5360  221.8990 O   0  0  0  0  0  0  0  0  0  0  0  0
  138.7760   72.6250  221.4480 C   0  0  0  0  0  0  0  0  0  0  0  0
  139.2180   71.2640  221.7940 C   0  0  1  0  0  0  0  0  0  0  0  0
  140.6030   71.1470  222.1960 N   0  0  0  0  0  0  0  0  0  0  0  0
  138.4040   70.7600  222.9910 C   0  0  0  0  0  0  0  0  0  0  0  0
  138.9790   71.1410  224.3200 C   0  0  0  0  0  0  0  0  0  0  0  0
  139.3380   69.8310  225.0100 C   0  0  0  0  0  0  0  0  0  0  0  0
  139.1050   68.5610  224.5410 C   0  0  0  0  0  0  0  0  0  0  0  0
  139.5890   67.7280  225.4800 N   0  0  0  0  0  0  0  0  0  0  0  0
  140.1090   68.4250  226.5100 C   0  0  0  0  0  0  0  0  0  0  0  0
  140.7170   68.0710  227.7010 C   0  0  0  0  0  0  0  0  0  0  0  0
  141.1750   69.0080  228.6100 C   0  0  0  0  0  0  0  0  0  0  0  0
  141.0250   70.3660  228.3300 C   0  0  0  0  0  0  0  0  0  0  0  0
  140.4140   70.7400  227.1340 C   0  0  0  0  0  0  0  0  0  0  0  0
  139.9670   69.7730  226.2460 C   0  0  0  0  0  0  0  0  0  0  0  0
  140.3430   76.0470  222.3620 C   0  0  0  0  0  0  0  0  0  0  0  0
  140.2040   77.3490  221.6100 C   0  0  0  0  0  0  0  0  0  0  0  0
  138.0902   81.6008  225.6191 H   0  0  0  0  0  0  0  0  0  0  0  0
  136.5648   80.8310  225.0648 H   0  0  0  0  0  0  0  0  0  0  0  0
  138.0962   79.8921  225.0648 H   0  0  0  0  0  0  0  0  0  0  0  0
  137.2003   82.1113  223.1989 H   0  0  0  0  0  0  0  0  0  0  0  0
  138.9444   81.7769  223.4334 H   0  0  0  0  0  0  0  0  0  0  0  0
  140.4641   78.6499  224.5874 H   0  0  0  0  0  0  0  0  0  0  0  0
  142.7480   79.5793  225.0395 H   0  0  0  0  0  0  0  0  0  0  0  0
  143.7870   81.2023  223.4943 H   0  0  0  0  0  0  0  0  0  0  0  0
  142.5802   81.9467  221.4495 H   0  0  0  0  0  0  0  0  0  0  0  0
  140.3153   81.0247  220.9957 H   0  0  0  0  0  0  0  0  0  0  0  0
  138.3179   78.1098  220.9297 H   0  0  0  0  0  0  0  0  0  0  0  0
  138.5799   76.9133  223.7547 H   0  0  0  0  0  0  0  0  0  0  0  0
  137.0664   77.4938  223.0569 H   0  0  0  0  0  0  0  0  0  0  0  0
  137.1882   75.0867  222.5216 H   0  0  0  0  0  0  0  0  0  0  0  0
  137.5814   75.9175  221.0002 H   0  0  0  0  0  0  0  0  0  0  0  0
  137.7921   72.7603  221.9210 H   0  0  0  0  0  0  0  0  0  0  0  0
  138.8404   72.6199  220.3499 H   0  0  0  0  0  0  0  0  0  0  0  0
  139.0766   70.6859  220.8689 H   0  0  0  0  0  0  0  0  0  0  0  0
  141.2490   71.3540  221.4390 H   0  0  0  0  0  0  0  0  0  0  0  0
  140.7360   71.6670  223.0780 H   0  0  0  0  0  0  0  0  0  0  0  0
  137.3890   71.1781  222.9202 H   0  0  0  0  0  0  0  0  0  0  0  0
  138.4127   69.6611  222.9428 H   0  0  0  0  0  0  0  0  0  0  0  0
  139.8775   71.7611  224.1847 H   0  0  0  0  0  0  0  0  0  0  0  0
  138.2652   71.7290  224.9156 H   0  0  0  0  0  0  0  0  0  0  0  0
  138.6220   68.2825  223.5928 H   0  0  0  0  0  0  0  0  0  0  0  0
  139.5760   66.6780  225.4450 H   0  0  0  0  0  0  0  0  0  0  0  0
  140.8411   67.0032  227.9344 H   0  0  0  0  0  0  0  0  0  0  0  0
  141.6536   68.6845  229.5461 H   0  0  0  0  0  0  0  0  0  0  0  0
  141.3819   71.1274  229.0392 H   0  0  0  0  0  0  0  0  0  0  0  0
  140.2860   71.8058  226.8938 H   0  0  0  0  0  0  0  0  0  0  0  0
  140.3437   76.2541  223.4423 H   0  0  0  0  0  0  0  0  0  0  0  0
  141.2860   75.5675  222.0604 H   0  0  0  0  0  0  0  0  0  0  0  0
  141.0013   78.0362  221.9294 H   0  0  0  0  0  0  0  0  0  0  0  0
  140.2833   77.1425  220.5325 H   0  0  0  0  0  0  0  0  0  0  0  0
  1  2  1  0
  2  3  1  0
  3  4  2  0
  3  5  1  0
  5  6  1  0
  6  7  2  0
  7  8  1  0
  8  9  2  0
  9 10  1  0
 10 11  2  0
  5 12  1  0
 12 13  1  0
 13 14  1  0
 14 15  1  0
 15 16  1  0
 16 17  2  0
 16 18  1  0
 18 19  1  0
 19 20  1  0
 19 21  1  0
 21 22  1  0
 22 23  1  0
 23 24  2  0
 24 25  1  0
 25 26  1  0
 26 27  2  0
 27 28  1  0
 28 29  2  0
 29 30  1  0
 30 31  2  0
 15 32  1  0
 32 33  1  0
 11  6  1  0
 33 12  1  0
 31 23  1  0
 31 26  1  0
  1 34  1  0
  1 35  1  0
  1 36  1  0
  2 37  1  0
  2 38  1  0
  7 39  1  0
  8 40  1  0
  9 41  1  0
 10 42  1  0
 11 43  1  0
 12 44  1  0
 13 45  1  0
 13 46  1  0
 14 47  1  0
 14 48  1  0
 18 49  1  0
 18 50  1  0
 19 51  1  6
 20 52  1  0
 20 53  1  0
 21 54  1  0
 21 55  1  0
 22 56  1  0
 22 57  1  0
 24 58  1  0
 25 59  1  0
 27 60  1  0
 28 61  1  0
 29 62  1  0
 30 63  1  0
 32 64  1  0
 32 65  1  0
 33 66  1  0
 33 67  1  0
M  END
>  <smiles>  (94) 
CCC(=O)N(c1ccccc1)C1CCN(C(=O)CC(N)CCc2c[nH]c3ccccc23)CC1

>  <score_type>  (94) 
oracle

>  <origin>  (94) 
autodockgpu

>  <m_score__min__energy>  (94) 
-9.5899999999999999

>  <m_primary>  (94) 
energy

>  <rmsd>  (94) 
11.372953476368313

>  <m_score__min__rmsd>  (94) 
11.372953476368313

>  <meeko>  (94) 
{"free_energy": -8.1, "intermolecular_energy": -11.09, "internal_energy": -2.31, "cluster_size": 15, "cluster_id": 2, "rank_in_cluster": 14}

>  <energy>  (94) 
-9.15

>  <cluster_rmsd>  (94) 
0.38

>  <cluster>  (94) 
3

$$$$

     RDKit          3D

 67 70  0  0  0  0  0  0  0  0999 V2000
  146.3360   73.3270  221.5810 C   0  0  0  0  0  0  0  0  0  0  0  0
  145.2320   73.7310  220.6270 C   0  0  0  0  0  0  0  0  0  0  0  0
  145.2250   72.7880  219.4730 C   0  0  0  0  0  0  0  0  0  0  0  0
  146.0350   73.0110  218.5530 O   0  0  0  0  0  0  0  0  0  0  0  0
  144.3070   71.6950  219.4820 N   0  0  0  0  0  0  0  0  0  0  0  0
  144.7710   70.3530  219.2260 C   0  0  0  0  0  0  0  0  0  0  0  0
  144.4270   69.2950  220.0400 C   0  0  0  0  0  0  0  0  0  0  0  0
  144.9330   68.0440  219.6960 C   0  0  0  0  0  0  0  0  0  0  0  0
  145.7480   67.8700  218.5840 C   0  0  0  0  0  0  0  0  0  0  0  0
  146.0790   68.9400  217.7840 C   0  0  0  0  0  0  0  0  0  0  0  0
  145.5810   70.1840  218.1190 C   0  0  0  0  0  0  0  0  0  0  0  0
  142.9030   71.8790  219.7430 C   0  0  0  0  0  0  0  0  0  0  0  0
  142.5580   71.7270  221.2280 C   0  0  0  0  0  0  0  0  0  0  0  0
  141.0620   72.0830  221.3300 C   0  0  0  0  0  0  0  0  0  0  0  0
  140.3330   70.9960  220.7370 N   0  0  0  0  0  0  0  0  0  0  0  0
  138.9800   70.6690  220.8820 C   0  0  0  0  0  0  0  0  0  0  0  0
  138.6150   69.6040  220.2160 O   0  0  0  0  0  0  0  0  0  0  0  0
  137.8940   71.2720  221.6240 C   0  0  0  0  0  0  0  0  0  0  0  0
  137.9230   71.3760  223.0930 C   0  0  1  0  0  0  0  0  0  0  0  0
  136.7620   71.9950  223.6930 N   0  0  0  0  0  0  0  0  0  0  0  0
  137.9890   69.9670  223.6940 C   0  0  0  0  0  0  0  0  0  0  0  0
  139.3590   69.3620  223.6720 C   0  0  0  0  0  0  0  0  0  0  0  0
  139.6740   68.9900  225.1150 C   0  0  0  0  0  0  0  0  0  0  0  0
  139.5280   67.7550  225.6990 C   0  0  0  0  0  0  0  0  0  0  0  0
  139.9260   67.9020  226.9750 N   0  0  0  0  0  0  0  0  0  0  0  0
  140.3110   69.1720  227.2080 C   0  0  0  0  0  0  0  0  0  0  0  0
  140.7940   69.8420  228.3190 C   0  0  0  0  0  0  0  0  0  0  0  0
  141.1240   71.1850  228.2910 C   0  0  0  0  0  0  0  0  0  0  0  0
  140.9700   71.9060  227.1070 C   0  0  0  0  0  0  0  0  0  0  0  0
  140.4860   71.2460  225.9800 C   0  0  0  0  0  0  0  0  0  0  0  0
  140.1640   69.8980  226.0430 C   0  0  0  0  0  0  0  0  0  0  0  0
  141.1380   70.1180  219.8500 C   0  0  0  0  0  0  0  0  0  0  0  0
  142.0250   70.9340  218.9390 C   0  0  0  0  0  0  0  0  0  0  0  0
  145.9897   73.4537  222.6173 H   0  0  0  0  0  0  0  0  0  0  0  0
  146.6016   72.2734  221.4094 H   0  0  0  0  0  0  0  0  0  0  0  0
  147.2189   73.9603  221.4094 H   0  0  0  0  0  0  0  0  0  0  0  0
  144.2623   73.6889  221.1447 H   0  0  0  0  0  0  0  0  0  0  0  0
  145.4038   74.7571  220.2699 H   0  0  0  0  0  0  0  0  0  0  0  0
  143.7825   69.4326  220.9207 H   0  0  0  0  0  0  0  0  0  0  0  0
  144.6816   67.1731  220.3192 H   0  0  0  0  0  0  0  0  0  0  0  0
  146.1320   66.8683  218.3410 H   0  0  0  0  0  0  0  0  0  0  0  0
  146.7227   68.8080  216.9018 H   0  0  0  0  0  0  0  0  0  0  0  0
  145.8331   71.0540  217.4948 H   0  0  0  0  0  0  0  0  0  0  0  0
  142.6934   72.9118  219.4278 H   0  0  0  0  0  0  0  0  0  0  0  0
  142.7328   70.6934  221.5614 H   0  0  0  0  0  0  0  0  0  0  0  0
  143.1802   72.3734  221.8644 H   0  0  0  0  0  0  0  0  0  0  0  0
  140.7725   72.2019  222.3845 H   0  0  0  0  0  0  0  0  0  0  0  0
  140.8465   73.0299  220.8134 H   0  0  0  0  0  0  0  0  0  0  0  0
  137.7923   72.2990  221.2433 H   0  0  0  0  0  0  0  0  0  0  0  0
  137.0725   70.5599  221.4562 H   0  0  0  0  0  0  0  0  0  0  0  0
  138.7985   72.0067  223.3069 H   0  0  0  0  0  0  0  0  0  0  0  0
  136.3560   71.4290  224.4330 H   0  0  0  0  0  0  0  0  0  0  0  0
  136.9920   72.9730  223.9260 H   0  0  0  0  0  0  0  0  0  0  0  0
  137.6504   70.0200  224.7393 H   0  0  0  0  0  0  0  0  0  0  0  0
  137.3461   69.3248  223.0742 H   0  0  0  0  0  0  0  0  0  0  0  0
  139.3713   68.4658  223.0344 H   0  0  0  0  0  0  0  0  0  0  0  0
  140.1031   70.0617  223.2635 H   0  0  0  0  0  0  0  0  0  0  0  0
  139.1609   66.8349  225.2209 H   0  0  0  0  0  0  0  0  0  0  0  0
  139.9460   67.1510  227.7100 H   0  0  0  0  0  0  0  0  0  0  0  0
  140.9201   69.2854  229.2594 H   0  0  0  0  0  0  0  0  0  0  0  0
  141.5051   71.6808  229.1960 H   0  0  0  0  0  0  0  0  0  0  0  0
  141.2258   72.9750  227.0641 H   0  0  0  0  0  0  0  0  0  0  0  0
  140.3585   71.7959  225.0359 H   0  0  0  0  0  0  0  0  0  0  0  0
  141.7662   69.4605  220.4690 H   0  0  0  0  0  0  0  0  0  0  0  0
  140.4514   69.5234  219.2294 H   0  0  0  0  0  0  0  0  0  0  0  0
  142.6652   70.2551  218.3565 H   0  0  0  0  0  0  0  0  0  0  0  0
  141.3880   71.5299  218.2688 H   0  0  0  0  0  0  0  0  0  0  0  0
  1  2  1  0
  2  3  1  0
  3  4  2  0
  3  5  1  0
  5  6  1  0
  6  7  2  0
  7  8  1  0
  8  9  2  0
  9 10  1  0
 10 11  2  0
  5 12  1  0
 12 13  1  0
 13 14  1  0
 14 15  1  0
 15 16  1  0
 16 17  2  0
 16 18  1  0
 18 19  1  0
 19 20  1  0
 19 21  1  0
 21 22  1  0
 22 23  1  0
 23 24  2  0
 24 25  1  0
 25 26  1  0
 26 27  2  0
 27 28  1  0
 28 29  2  0
 29 30  1  0
 30 31  2  0
 15 32  1  0
 32 33  1  0
 11  6  1  0
 33 12  1  0
 31 23  1  0
 31 26  1  0
  1 34  1  0
  1 35  1  0
  1 36  1  0
  2 37  1  0
  2 38  1  0
  7 39  1  0
  8 40  1  0
  9 41  1  0
 10 42  1  0
 11 43  1  0
 12 44  1  0
 13 45  1  0
 13 46  1  0
 14 47  1  0
 14 48  1  0
 18 49  1  0
 18 50  1  0
 19 51  1  6
 20 52  1  0
 20 53  1  0
 21 54  1  0
 21 55  1  0
 22 56  1  0
 22 57  1  0
 24 58  1  0
 25 59  1  0
 27 60  1  0
 28 61  1  0
 29 62  1  0
 30 63  1  0
 32 64  1  0
 32 65  1  0
 33 66  1  0
 33 67  1  0
M  END
>  <smiles>  (95) 
CCC(=O)N(c1ccccc1)C1CCN(C(=O)CC(N)CCc2c[nH]c3ccccc23)CC1

>  <score_type>  (95) 
oracle

>  <origin>  (95) 
autodockgpu

>  <m_score__min__energy>  (95) 
-9.5899999999999999

>  <m_primary>  (95) 
energy

>  <rmsd>  (95) 
11.549649006263444

>  <m_score__min__rmsd>  (95) 
11.549649006263444

>  <meeko>  (95) 
{"free_energy": -8.83, "intermolecular_energy": -11.81, "internal_energy": -1.75, "cluster_size": 4, "cluster_id": 3, "rank_in_cluster": 4}

>  <energy>  (95) 
-9.1

>  <cluster_rmsd>  (95) 
0.37

>  <cluster>  (95) 
3

$$$$

     RDKit          3D

 67 70  0  0  0  0  0  0  0  0999 V2000
  137.7010   80.9180  224.9080 C   0  0  0  0  0  0  0  0  0  0  0  0
  138.1590   80.9720  223.4660 C   0  0  0  0  0  0  0  0  0  0  0  0
  137.9690   79.6270  222.8510 C   0  0  0  0  0  0  0  0  0  0  0  0
  136.7970   79.2270  222.7130 O   0  0  0  0  0  0  0  0  0  0  0  0
  139.1200   78.8790  222.4590 N   0  0  0  0  0  0  0  0  0  0  0  0
  140.4420   79.4210  222.6590 C   0  0  0  0  0  0  0  0  0  0  0  0
  141.1650   79.1730  223.8060 C   0  0  0  0  0  0  0  0  0  0  0  0
  142.4310   79.7490  223.8900 C   0  0  0  0  0  0  0  0  0  0  0  0
  142.9420   80.5350  222.8660 C   0  0  0  0  0  0  0  0  0  0  0  0
  142.2020   80.7700  221.7280 C   0  0  0  0  0  0  0  0  0  0  0  0
  140.9470   80.2030  221.6370 C   0  0  0  0  0  0  0  0  0  0  0  0
  139.0150   77.5750  221.8580 C   0  0  0  0  0  0  0  0  0  0  0  0
  138.3430   76.5560  222.7840 C   0  0  0  0  0  0  0  0  0  0  0  0
  138.2010   75.2770  221.9360 C   0  0  0  0  0  0  0  0  0  0  0  0
  139.5200   74.7270  221.7860 N   0  0  0  0  0  0  0  0  0  0  0  0
  139.8890   73.4290  221.4170 C   0  0  0  0  0  0  0  0  0  0  0  0
  141.1820   73.2310  221.3800 O   0  0  0  0  0  0  0  0  0  0  0  0
  139.1270   72.2500  221.0620 C   0  0  0  0  0  0  0  0  0  0  0  0
  139.5330   70.9050  221.5020 C   0  0  1  0  0  0  0  0  0  0  0  0
  140.7390   70.3930  220.8900 N   0  0  0  0  0  0  0  0  0  0  0  0
  139.8220   70.9350  223.0070 C   0  0  0  0  0  0  0  0  0  0  0  0
  138.6560   70.5360  223.8570 C   0  0  0  0  0  0  0  0  0  0  0  0
  139.2360   69.7220  225.0060 C   0  0  0  0  0  0  0  0  0  0  0  0
  139.1450   68.3620  225.1800 C   0  0  0  0  0  0  0  0  0  0  0  0
  139.8010   68.0930  226.3240 N   0  0  0  0  0  0  0  0  0  0  0  0
  140.2930   69.2260  226.8650 C   0  0  0  0  0  0  0  0  0  0  0  0
  141.0250   69.5080  228.0050 C   0  0  0  0  0  0  0  0  0  0  0  0
  141.4140   70.7920  228.3400 C   0  0  0  0  0  0  0  0  0  0  0  0
  141.0620   71.8550  227.5080 C   0  0  0  0  0  0  0  0  0  0  0  0
  140.3250   71.5880  226.3560 C   0  0  0  0  0  0  0  0  0  0  0  0
  139.9510   70.2880  226.0510 C   0  0  0  0  0  0  0  0  0  0  0  0
  140.6250   75.6800  222.0600 C   0  0  0  0  0  0  0  0  0  0  0  0
  140.3590   77.0200  221.4160 C   0  0  0  0  0  0  0  0  0  0  0  0
  138.5711   81.0206  225.5732 H   0  0  0  0  0  0  0  0  0  0  0  0
  136.9944   81.7391  225.0993 H   0  0  0  0  0  0  0  0  0  0  0  0
  137.2047   79.9551  225.0993 H   0  0  0  0  0  0  0  0  0  0  0  0
  137.5644   81.7170  222.9169 H   0  0  0  0  0  0  0  0  0  0  0  0
  139.2205   81.2569  223.4213 H   0  0  0  0  0  0  0  0  0  0  0  0
  140.7614   78.5494  224.6173 H   0  0  0  0  0  0  0  0  0  0  0  0
  143.0403   79.5768  224.7895 H   0  0  0  0  0  0  0  0  0  0  0  0
  143.9459   80.9737  222.9641 H   0  0  0  0  0  0  0  0  0  0  0  0
  142.6007   81.3928  220.9137 H   0  0  0  0  0  0  0  0  0  0  0  0
  140.3389   80.3761  220.7369 H   0  0  0  0  0  0  0  0  0  0  0  0
  138.3845   77.7263  220.9694 H   0  0  0  0  0  0  0  0  0  0  0  0
  138.9690   76.3658  223.6682 H   0  0  0  0  0  0  0  0  0  0  0  0
  137.3718   76.9143  223.1561 H   0  0  0  0  0  0  0  0  0  0  0  0
  137.5461   74.5555  222.4465 H   0  0  0  0  0  0  0  0  0  0  0  0
  137.7544   75.5018  220.9562 H   0  0  0  0  0  0  0  0  0  0  0  0
  138.1108   72.4094  221.4519 H   0  0  0  0  0  0  0  0  0  0  0  0
  139.2745   72.1948  219.9733 H   0  0  0  0  0  0  0  0  0  0  0  0
  138.6948   70.2550  221.2104 H   0  0  0  0  0  0  0  0  0  0  0  0
  140.5480   69.7980  220.0870 H   0  0  0  0  0  0  0  0  0  0  0  0
  141.3950   71.1760  220.7440 H   0  0  0  0  0  0  0  0  0  0  0  0
  140.6534   70.2451  223.2138 H   0  0  0  0  0  0  0  0  0  0  0  0
  140.0633   71.9767  223.2649 H   0  0  0  0  0  0  0  0  0  0  0  0
  138.1403   71.4280  224.2422 H   0  0  0  0  0  0  0  0  0  0  0  0
  137.9180   69.9560  223.2835 H   0  0  0  0  0  0  0  0  0  0  0  0
  138.6399   67.6414  224.5200 H   0  0  0  0  0  0  0  0  0  0  0  0
  139.9290   67.1460  226.7600 H   0  0  0  0  0  0  0  0  0  0  0  0
  141.3083   68.6790  228.6702 H   0  0  0  0  0  0  0  0  0  0  0  0
  141.9964   70.9738  229.2553 H   0  0  0  0  0  0  0  0  0  0  0  0
  141.3605   72.8841  227.7566 H   0  0  0  0  0  0  0  0  0  0  0  0
  140.0387   72.4119  225.6857 H   0  0  0  0  0  0  0  0  0  0  0  0
  140.7205   75.8165  223.1473 H   0  0  0  0  0  0  0  0  0  0  0  0
  141.5542   75.2682  221.6392 H   0  0  0  0  0  0  0  0  0  0  0  0
  141.1528   77.7237  221.7069 H   0  0  0  0  0  0  0  0  0  0  0  0
  140.3440   76.8891  220.3239 H   0  0  0  0  0  0  0  0  0  0  0  0
  1  2  1  0
  2  3  1  0
  3  4  2  0
  3  5  1  0
  5  6  1  0
  6  7  2  0
  7  8  1  0
  8  9  2  0
  9 10  1  0
 10 11  2  0
  5 12  1  0
 12 13  1  0
 13 14  1  0
 14 15  1  0
 15 16  1  0
 16 17  2  0
 16 18  1  0
 18 19  1  0
 19 20  1  0
 19 21  1  0
 21 22  1  0
 22 23  1  0
 23 24  2  0
 24 25  1  0
 25 26  1  0
 26 27  2  0
 27 28  1  0
 28 29  2  0
 29 30  1  0
 30 31  2  0
 15 32  1  0
 32 33  1  0
 11  6  1  0
 33 12  1  0
 31 23  1  0
 31 26  1  0
  1 34  1  0
  1 35  1  0
  1 36  1  0
  2 37  1  0
  2 38  1  0
  7 39  1  0
  8 40  1  0
  9 41  1  0
 10 42  1  0
 11 43  1  0
 12 44  1  0
 13 45  1  0
 13 46  1  0
 14 47  1  0
 14 48  1  0
 18 49  1  0
 18 50  1  0
 19 51  1  1
 20 52  1  0
 20 53  1  0
 21 54  1  0
 21 55  1  0
 22 56  1  0
 22 57  1  0
 24 58  1  0
 25 59  1  0
 27 60  1  0
 28 61  1  0
 29 62  1  0
 30 63  1  0
 32 64  1  0
 32 65  1  0
 33 66  1  0
 33 67  1  0
M  END
>  <smiles>  (96) 
CCC(=O)N(c1ccccc1)C1CCN(C(=O)CC(N)CCc2c[nH]c3ccccc23)CC1

>  <score_type>  (96) 
oracle

>  <origin>  (96) 
autodockgpu

>  <m_score__min__energy>  (96) 
-9.5899999999999999

>  <m_primary>  (96) 
energy

>  <rmsd>  (96) 
11.083926655798475

>  <m_score__min__rmsd>  (96) 
11.083926655798475

>  <meeko>  (96) 
{"free_energy": -8.22, "intermolecular_energy": -11.2, "internal_energy": -2.16, "cluster_size": 15, "cluster_id": 2, "rank_in_cluster": 13}

>  <energy>  (96) 
-8.83

>  <cluster_rmsd>  (96) 
1.28

>  <cluster>  (96) 
3

$$$$

     RDKit          3D

 67 70  0  0  0  0  0  0  0  0999 V2000
  138.0510   80.9180  224.5950 C   0  0  0  0  0  0  0  0  0  0  0  0
  137.2740   80.0910  223.5920 C   0  0  0  0  0  0  0  0  0  0  0  0
  138.0290   80.0610  222.3070 C   0  0  0  0  0  0  0  0  0  0  0  0
  137.6190   80.7980  221.3900 O   0  0  0  0  0  0  0  0  0  0  0  0
  139.1660   79.2040  222.1960 N   0  0  0  0  0  0  0  0  0  0  0  0
  140.4800   79.6900  222.5370 C   0  0  0  0  0  0  0  0  0  0  0  0
  141.2090   80.4850  221.6780 C   0  0  0  0  0  0  0  0  0  0  0  0
  142.4670   80.8960  222.1140 C   0  0  0  0  0  0  0  0  0  0  0  0
  142.9640   80.5220  223.3550 C   0  0  0  0  0  0  0  0  0  0  0  0
  142.2200   79.7270  224.1980 C   0  0  0  0  0  0  0  0  0  0  0  0
  140.9720   79.3160  223.7730 C   0  0  0  0  0  0  0  0  0  0  0  0
  139.0520   77.8400  221.7480 C   0  0  0  0  0  0  0  0  0  0  0  0
  138.2490   76.9690  222.7190 C   0  0  0  0  0  0  0  0  0  0  0  0
  138.1220   75.6010  222.0200 C   0  0  0  0  0  0  0  0  0  0  0  0
  139.4210   74.9880  222.0670 N   0  0  0  0  0  0  0  0  0  0  0  0
  139.7580   73.6410  221.8920 C   0  0  0  0  0  0  0  0  0  0  0  0
  141.0370   73.3920  222.0060 O   0  0  0  0  0  0  0  0  0  0  0  0
  138.9750   72.4570  221.6090 C   0  0  0  0  0  0  0  0  0  0  0  0
  138.0970   71.8490  222.6230 C   0  0  1  0  0  0  0  0  0  0  0  0
  137.3910   70.6610  222.1970 N   0  0  0  0  0  0  0  0  0  0  0  0
  138.9450   71.4100  223.8220 C   0  0  0  0  0  0  0  0  0  0  0  0
  139.5650   70.0560  223.6640 C   0  0  0  0  0  0  0  0  0  0  0  0
  139.8420   69.5570  225.0760 C   0  0  0  0  0  0  0  0  0  0  0  0
  139.5980   68.2970  225.5670 C   0  0  0  0  0  0  0  0  0  0  0  0
  140.0000   68.3190  226.8510 N   0  0  0  0  0  0  0  0  0  0  0  0
  140.4810   69.5360  227.1760 C   0  0  0  0  0  0  0  0  0  0  0  0
  141.0090   70.0830  228.3320 C   0  0  0  0  0  0  0  0  0  0  0  0
  141.4430   71.3950  228.4020 C   0  0  0  0  0  0  0  0  0  0  0  0
  141.3510   72.2100  227.2740 C   0  0  0  0  0  0  0  0  0  0  0  0
  140.8230   71.6730  226.1020 C   0  0  0  0  0  0  0  0  0  0  0  0
  140.3970   70.3530  226.0670 C   0  0  0  0  0  0  0  0  0  0  0  0
  140.5420   75.9250  222.3300 C   0  0  0  0  0  0  0  0  0  0  0  0
  140.4020   77.1840  221.5080 C   0  0  0  0  0  0  0  0  0  0  0  0
  137.7688   80.6177  225.6149 H   0  0  0  0  0  0  0  0  0  0  0  0
  139.1288   80.7535  224.4493 H   0  0  0  0  0  0  0  0  0  0  0  0
  137.8197   81.9835  224.4493 H   0  0  0  0  0  0  0  0  0  0  0  0
  137.1519   79.0664  223.9731 H   0  0  0  0  0  0  0  0  0  0  0  0
  136.2803   80.5346  223.4315 H   0  0  0  0  0  0  0  0  0  0  0  0
  140.8157   80.7810  220.6943 H   0  0  0  0  0  0  0  0  0  0  0  0
  143.0809   81.5320  221.4592 H   0  0  0  0  0  0  0  0  0  0  0  0
  143.9616   80.8639  223.6679 H   0  0  0  0  0  0  0  0  0  0  0  0
  142.6089   79.4277  225.1825 H   0  0  0  0  0  0  0  0  0  0  0  0
  140.3594   78.6804  224.4292 H   0  0  0  0  0  0  0  0  0  0  0  0
  138.5133   77.9046  220.7911 H   0  0  0  0  0  0  0  0  0  0  0  0
  138.7814   76.8658  223.6760 H   0  0  0  0  0  0  0  0  0  0  0  0
  137.2666   77.4069  222.9496 H   0  0  0  0  0  0  0  0  0  0  0  0
  137.3879   74.9734  222.5466 H   0  0  0  0  0  0  0  0  0  0  0  0
  137.7788   75.7189  220.9816 H   0  0  0  0  0  0  0  0  0  0  0  0
  138.3312   72.7091  220.7535 H   0  0  0  0  0  0  0  0  0  0  0  0
  139.7512   71.6883  221.4801 H   0  0  0  0  0  0  0  0  0  0  0  0
  137.3549   72.6290  222.8485 H   0  0  0  0  0  0  0  0  0  0  0  0
  136.7200   70.3360  222.8880 H   0  0  0  0  0  0  0  0  0  0  0  0
  137.0380   70.8110  221.2390 H   0  0  0  0  0  0  0  0  0  0  0  0
  139.7507   72.1453  223.9641 H   0  0  0  0  0  0  0  0  0  0  0  0
  138.2684   71.3521  224.6873 H   0  0  0  0  0  0  0  0  0  0  0  0
  138.8723   69.3759  223.1467 H   0  0  0  0  0  0  0  0  0  0  0  0
  140.4855   70.1006  223.0634 H   0  0  0  0  0  0  0  0  0  0  0  0
  139.1635   67.4457  225.0225 H   0  0  0  0  0  0  0  0  0  0  0  0
  139.9570   67.5180  227.5290 H   0  0  0  0  0  0  0  0  0  0  0  0
  141.0867   69.4512  229.2291 H   0  0  0  0  0  0  0  0  0  0  0  0
  141.8575   71.7922  229.3403 H   0  0  0  0  0  0  0  0  0  0  0  0
  141.6887   73.2563  227.3091 H   0  0  0  0  0  0  0  0  0  0  0  0
  140.7435   72.2982  225.2004 H   0  0  0  0  0  0  0  0  0  0  0  0
  140.5449   76.1912  223.3973 H   0  0  0  0  0  0  0  0  0  0  0  0
  141.4841   75.4295  222.0527 H   0  0  0  0  0  0  0  0  0  0  0  0
  141.1995   77.8878  221.7882 H   0  0  0  0  0  0  0  0  0  0  0  0
  140.4803   76.9195  220.4431 H   0  0  0  0  0  0  0  0  0  0  0  0
  1  2  1  0
  2  3  1  0
  3  4  2  0
  3  5  1  0
  5  6  1  0
  6  7  2  0
  7  8  1  0
  8  9  2  0
  9 10  1  0
 10 11  2  0
  5 12  1  0
 12 13  1  0
 13 14  1  0
 14 15  1  0
 15 16  1  0
 16 17  2  0
 16 18  1  0
 18 19  1  0
 19 20  1  0
 19 21  1  0
 21 22  1  0
 22 23  1  0
 23 24  2  0
 24 25  1  0
 25 26  1  0
 26 27  2  0
 27 28  1  0
 28 29  2  0
 29 30  1  0
 30 31  2  0
 15 32  1  0
 32 33  1  0
 11  6  1  0
 33 12  1  0
 31 23  1  0
 31 26  1  0
  1 34  1  0
  1 35  1  0
  1 36  1  0
  2 37  1  0
  2 38  1  0
  7 39  1  0
  8 40  1  0
  9 41  1  0
 10 42  1  0
 11 43  1  0
 12 44  1  0
 13 45  1  0
 13 46  1  0
 14 47  1  0
 14 48  1  0
 18 49  1  0
 18 50  1  0
 19 51  1  1
 20 52  1  0
 20 53  1  0
 21 54  1  0
 21 55  1  0
 22 56  1  0
 22 57  1  0
 24 58  1  0
 25 59  1  0
 27 60  1  0
 28 61  1  0
 29 62  1  0
 30 63  1  0
 32 64  1  0
 32 65  1  0
 33 66  1  0
 33 67  1  0
M  END
>  <smiles>  (97) 
CCC(=O)N(c1ccccc1)C1CCN(C(=O)CC(N)CCc2c[nH]c3ccccc23)CC1

>  <score_type>  (97) 
oracle

>  <origin>  (97) 
autodockgpu

>  <m_score__min__energy>  (97) 
-9.5899999999999999

>  <m_primary>  (97) 
energy

>  <rmsd>  (97) 
10.941509205402763

>  <m_score__min__rmsd>  (97) 
10.941509205402763

>  <meeko>  (97) 
{"free_energy": -8.77, "intermolecular_energy": -11.75, "internal_energy": -1.52, "cluster_size": 15, "cluster_id": 2, "rank_in_cluster": 6}

>  <energy>  (97) 
-8.28

>  <cluster_rmsd>  (97) 
0.0

>  <cluster>  (97) 
4

$$$$

     RDKit          3D

 67 70  0  0  0  0  0  0  0  0999 V2000
  142.9160   78.0340  217.9490 C   0  0  0  0  0  0  0  0  0  0  0  0
  142.7680   77.0260  219.0690 C   0  0  0  0  0  0  0  0  0  0  0  0
  141.3910   77.1310  219.6310 C   0  0  0  0  0  0  0  0  0  0  0  0
  140.4520   77.2270  218.8190 O   0  0  0  0  0  0  0  0  0  0  0  0
  141.2230   77.1170  221.0490 N   0  0  0  0  0  0  0  0  0  0  0  0
  141.5450   78.2850  221.8320 C   0  0  0  0  0  0  0  0  0  0  0  0
  141.8720   79.4880  221.2440 C   0  0  0  0  0  0  0  0  0  0  0  0
  142.1650   80.5490  222.0990 C   0  0  0  0  0  0  0  0  0  0  0  0
  142.1290   80.4010  223.4800 C   0  0  0  0  0  0  0  0  0  0  0  0
  141.7990   79.1890  224.0460 C   0  0  0  0  0  0  0  0  0  0  0  0
  141.5080   78.1340  223.2050 C   0  0  0  0  0  0  0  0  0  0  0  0
  140.7330   75.9570  221.7470 C   0  0  0  0  0  0  0  0  0  0  0  0
  141.0280   74.6530  220.9980 C   0  0  0  0  0  0  0  0  0  0  0  0
  140.5560   73.5320  221.9440 C   0  0  0  0  0  0  0  0  0  0  0  0
  139.1190   73.5630  221.9440 N   0  0  0  0  0  0  0  0  0  0  0  0
  138.2240   72.5670  222.3470 C   0  0  0  0  0  0  0  0  0  0  0  0
  136.9640   72.8960  222.2130 O   0  0  0  0  0  0  0  0  0  0  0  0
  138.4060   71.2360  222.8860 C   0  0  0  0  0  0  0  0  0  0  0  0
  137.4400   70.6420  223.8250 C   0  0  1  0  0  0  0  0  0  0  0  0
  136.0520   70.7400  223.4280 N   0  0  0  0  0  0  0  0  0  0  0  0
  137.7210   69.1420  223.9540 C   0  0  0  0  0  0  0  0  0  0  0  0
  139.1730   68.7870  223.8600 C   0  0  0  0  0  0  0  0  0  0  0  0
  139.6530   68.6070  225.2950 C   0  0  0  0  0  0  0  0  0  0  0  0
  139.6910   67.4350  226.0110 C   0  0  0  0  0  0  0  0  0  0  0  0
  140.1840   67.7590  227.2200 N   0  0  0  0  0  0  0  0  0  0  0  0
  140.4500   69.0790  227.2850 C   0  0  0  0  0  0  0  0  0  0  0  0
  140.9550   69.9100  228.2700 C   0  0  0  0  0  0  0  0  0  0  0  0
  141.1370   71.2680  228.0750 C   0  0  0  0  0  0  0  0  0  0  0  0
  140.8020   71.8350  226.8460 C   0  0  0  0  0  0  0  0  0  0  0  0
  140.2930   71.0120  225.8440 C   0  0  0  0  0  0  0  0  0  0  0  0
  140.1240   69.6550  226.0730 C   0  0  0  0  0  0  0  0  0  0  0  0
  138.5250   74.8320  221.4520 C   0  0  0  0  0  0  0  0  0  0  0  0
  139.2420   76.0280  222.0330 C   0  0  0  0  0  0  0  0  0  0  0  0
  143.0633   79.0371  218.3756 H   0  0  0  0  0  0  0  0  0  0  0  0
  143.7847   77.7681  217.3288 H   0  0  0  0  0  0  0  0  0  0  0  0
  142.0075   78.0291  217.3288 H   0  0  0  0  0  0  0  0  0  0  0  0
  142.9310   76.0112  218.6770 H   0  0  0  0  0  0  0  0  0  0  0  0
  143.5093   77.2299  219.8557 H   0  0  0  0  0  0  0  0  0  0  0  0
  141.9004   79.6052  220.1506 H   0  0  0  0  0  0  0  0  0  0  0  0
  142.4310   81.5265  221.6703 H   0  0  0  0  0  0  0  0  0  0  0  0
  142.3659   81.2586  224.1268 H   0  0  0  0  0  0  0  0  0  0  0  0
  141.7683   79.0655  225.1386 H   0  0  0  0  0  0  0  0  0  0  0  0
  141.2423   77.1569  223.6348 H   0  0  0  0  0  0  0  0  0  0  0  0
  141.2782   75.9552  222.7024 H   0  0  0  0  0  0  0  0  0  0  0  0
  140.4718   74.6179  220.0496 H   0  0  0  0  0  0  0  0  0  0  0  0
  142.0936   74.5559  220.7428 H   0  0  0  0  0  0  0  0  0  0  0  0
  140.9133   72.5565  221.5824 H   0  0  0  0  0  0  0  0  0  0  0  0
  140.9530   73.6803  222.9591 H   0  0  0  0  0  0  0  0  0  0  0  0
  138.4553   70.5567  222.0222 H   0  0  0  0  0  0  0  0  0  0  0  0
  139.2993   71.3590  223.5161 H   0  0  0  0  0  0  0  0  0  0  0  0
  137.5745   71.2132  224.7554 H   0  0  0  0  0  0  0  0  0  0  0  0
  135.6940   71.6900  223.4870 H   0  0  0  0  0  0  0  0  0  0  0  0
  135.9300   70.2500  222.5280 H   0  0  0  0  0  0  0  0  0  0  0  0
  137.3435   68.8014  224.9294 H   0  0  0  0  0  0  0  0  0  0  0  0
  137.2161   68.6485  223.1105 H   0  0  0  0  0  0  0  0  0  0  0  0
  139.3026   67.8532  223.2933 H   0  0  0  0  0  0  0  0  0  0  0  0
  139.7463   69.5669  223.3373 H   0  0  0  0  0  0  0  0  0  0  0  0
  139.3819   66.4371  225.6666 H   0  0  0  0  0  0  0  0  0  0  0  0
  140.3480   67.0990  228.0210 H   0  0  0  0  0  0  0  0  0  0  0  0
  141.2217   69.4747  229.2444 H   0  0  0  0  0  0  0  0  0  0  0  0
  141.5425   71.8948  228.8828 H   0  0  0  0  0  0  0  0  0  0  0  0
  140.9372   72.9125  226.6709 H   0  0  0  0  0  0  0  0  0  0  0  0
  140.0241   71.4404  224.8672 H   0  0  0  0  0  0  0  0  0  0  0  0
  138.6030   74.8640  220.3552 H   0  0  0  0  0  0  0  0  0  0  0  0
  137.4712   74.8696  221.7653 H   0  0  0  0  0  0  0  0  0  0  0  0
  138.8326   76.9458  221.5857 H   0  0  0  0  0  0  0  0  0  0  0  0
  139.0926   76.0325  223.1228 H   0  0  0  0  0  0  0  0  0  0  0  0
  1  2  1  0
  2  3  1  0
  3  4  2  0
  3  5  1  0
  5  6  1  0
  6  7  2  0
  7  8  1  0
  8  9  2  0
  9 10  1  0
 10 11  2  0
  5 12  1  0
 12 13  1  0
 13 14  1  0
 14 15  1  0
 15 16  1  0
 16 17  2  0
 16 18  1  0
 18 19  1  0
 19 20  1  0
 19 21  1  0
 21 22  1  0
 22 23  1  0
 23 24  2  0
 24 25  1  0
 25 26  1  0
 26 27  2  0
 27 28  1  0
 28 29  2  0
 29 30  1  0
 30 31  2  0
 15 32  1  0
 32 33  1  0
 11  6  1  0
 33 12  1  0
 31 23  1  0
 31 26  1  0
  1 34  1  0
  1 35  1  0
  1 36  1  0
  2 37  1  0
  2 38  1  0
  7 39  1  0
  8 40  1  0
  9 41  1  0
 10 42  1  0
 11 43  1  0
 12 44  1  0
 13 45  1  0
 13 46  1  0
 14 47  1  0
 14 48  1  0
 18 49  1  0
 18 50  1  0
 19 51  1  1
 20 52  1  0
 20 53  1  0
 21 54  1  0
 21 55  1  0
 22 56  1  0
 22 57  1  0
 24 58  1  0
 25 59  1  0
 27 60  1  0
 28 61  1  0
 29 62  1  0
 30 63  1  0
 32 64  1  0
 32 65  1  0
 33 66  1  0
 33 67  1  0
M  END
>  <smiles>  (98) 
CCC(=O)N(c1ccccc1)C1CCN(C(=O)CC(N)CCc2c[nH]c3ccccc23)CC1

>  <score_type>  (98) 
oracle

>  <origin>  (98) 
autodockgpu

>  <m_score__min__energy>  (98) 
-9.5899999999999999

>  <m_primary>  (98) 
energy

>  <rmsd>  (98) 
11.800424980431947

>  <m_score__min__rmsd>  (98) 
11.800424980431947

>  <meeko>  (98) 
{"free_energy": -8.69, "intermolecular_energy": -11.67, "internal_energy": -2.28, "cluster_size": 27, "cluster_id": 1, "rank_in_cluster": 17}

>  <energy>  (98) 
-8.26

>  <cluster_rmsd>  (98) 
0.0

>  <cluster>  (98) 
5

$$$$

     RDKit          3D

 67 70  0  0  0  0  0  0  0  0999 V2000
  137.8630   80.8600  224.4570 C   0  0  0  0  0  0  0  0  0  0  0  0
  138.1210   81.3910  223.0630 C   0  0  0  0  0  0  0  0  0  0  0  0
  138.0930   80.2510  222.1020 C   0  0  0  0  0  0  0  0  0  0  0  0
  137.1070   80.1720  221.3450 O   0  0  0  0  0  0  0  0  0  0  0  0
  139.1800   79.3250  222.0990 N   0  0  0  0  0  0  0  0  0  0  0  0
  140.5050   79.7580  222.4720 C   0  0  0  0  0  0  0  0  0  0  0  0
  141.2830   80.5280  221.6340 C   0  0  0  0  0  0  0  0  0  0  0  0
  142.5460   80.8870  222.0990 C   0  0  0  0  0  0  0  0  0  0  0  0
  143.0010   80.4870  223.3490 C   0  0  0  0  0  0  0  0  0  0  0  0
  142.2080   79.7180  224.1710 C   0  0  0  0  0  0  0  0  0  0  0  0
  140.9540   79.3590  223.7160 C   0  0  0  0  0  0  0  0  0  0  0  0
  139.0050   77.9450  221.7330 C   0  0  0  0  0  0  0  0  0  0  0  0
  138.3170   77.1290  222.8320 C   0  0  0  0  0  0  0  0  0  0  0  0
  138.0990   75.7320  222.2180 C   0  0  0  0  0  0  0  0  0  0  0  0
  139.3900   75.1050  222.1410 N   0  0  0  0  0  0  0  0  0  0  0  0
  139.6950   73.7480  221.9920 C   0  0  0  0  0  0  0  0  0  0  0  0
  140.9780   73.4890  221.9650 O   0  0  0  0  0  0  0  0  0  0  0  0
  138.8760   72.5620  221.8590 C   0  0  0  0  0  0  0  0  0  0  0  0
  139.4670   71.2140  221.8260 C   0  0  1  0  0  0  0  0  0  0  0  0
  140.7160   71.1030  221.1050 N   0  0  0  0  0  0  0  0  0  0  0  0
  139.7840   70.7700  223.2580 C   0  0  0  0  0  0  0  0  0  0  0  0
  138.6530   70.0630  223.9390 C   0  0  0  0  0  0  0  0  0  0  0  0
  139.2550   69.4030  225.1730 C   0  0  0  0  0  0  0  0  0  0  0  0
  139.2000   68.0710  225.5060 C   0  0  0  0  0  0  0  0  0  0  0  0
  139.8640   67.9560  226.6700 N   0  0  0  0  0  0  0  0  0  0  0  0
  140.3260   69.1560  227.0730 C   0  0  0  0  0  0  0  0  0  0  0  0
  141.0530   69.5880  228.1690 C   0  0  0  0  0  0  0  0  0  0  0  0
  141.4090   70.9120  228.3500 C   0  0  0  0  0  0  0  0  0  0  0  0
  141.0290   71.8610  227.4010 C   0  0  0  0  0  0  0  0  0  0  0  0
  140.2970   71.4430  226.2920 C   0  0  0  0  0  0  0  0  0  0  0  0
  139.9570   70.1060  226.1420 C   0  0  0  0  0  0  0  0  0  0  0  0
  140.5410   76.0400  222.2260 C   0  0  0  0  0  0  0  0  0  0  0  0
  140.3130   77.2610  221.3670 C   0  0  0  0  0  0  0  0  0  0  0  0
  138.2179   81.5904  225.1991 H   0  0  0  0  0  0  0  0  0  0  0  0
  136.7840   80.6944  224.5924 H   0  0  0  0  0  0  0  0  0  0  0  0
  138.3997   79.9094  224.5924 H   0  0  0  0  0  0  0  0  0  0  0  0
  137.3420   82.1198  222.7949 H   0  0  0  0  0  0  0  0  0  0  0  0
  139.1026   81.8861  223.0273 H   0  0  0  0  0  0  0  0  0  0  0  0
  140.9230   80.8443  220.6439 H   0  0  0  0  0  0  0  0  0  0  0  0
  143.1984   81.5017  221.4614 H   0  0  0  0  0  0  0  0  0  0  0  0
  144.0043   80.7874  223.6854 H   0  0  0  0  0  0  0  0  0  0  0  0
  142.5629   79.3986  225.1620 H   0  0  0  0  0  0  0  0  0  0  0  0
  140.3021   78.7452  224.3550 H   0  0  0  0  0  0  0  0  0  0  0  0
  138.3575   77.9730  220.8442 H   0  0  0  0  0  0  0  0  0  0  0  0
  138.9585   77.0633  223.7232 H   0  0  0  0  0  0  0  0  0  0  0  0
  137.3718   77.5888  223.1562 H   0  0  0  0  0  0  0  0  0  0  0  0
  137.4275   75.1387  222.8561 H   0  0  0  0  0  0  0  0  0  0  0  0
  137.6370   75.8066  221.2225 H   0  0  0  0  0  0  0  0  0  0  0  0
  138.1762   72.5724  222.7076 H   0  0  0  0  0  0  0  0  0  0  0  0
  138.4749   72.6671  220.8401 H   0  0  0  0  0  0  0  0  0  0  0  0
  138.7157   70.5972  221.3111 H   0  0  0  0  0  0  0  0  0  0  0  0
  140.8730   71.8840  220.4740 H   0  0  0  0  0  0  0  0  0  0  0  0
  141.4680   70.8870  221.7770 H   0  0  0  0  0  0  0  0  0  0  0  0
  140.6483   70.0904  223.2265 H   0  0  0  0  0  0  0  0  0  0  0  0
  139.9851   71.6828  223.8380 H   0  0  0  0  0  0  0  0  0  0  0  0
  137.8733   70.7817  224.2315 H   0  0  0  0  0  0  0  0  0  0  0  0
  138.1812   69.3235  223.2753 H   0  0  0  0  0  0  0  0  0  0  0  0
  138.7132   67.2648  224.9376 H   0  0  0  0  0  0  0  0  0  0  0  0
  140.0170   67.0700  227.2130 H   0  0  0  0  0  0  0  0  0  0  0  0
  141.3592   68.8499  228.9249 H   0  0  0  0  0  0  0  0  0  0  0  0
  141.9873   71.2144  229.2355 H   0  0  0  0  0  0  0  0  0  0  0  0
  141.3022   72.9192  227.5259 H   0  0  0  0  0  0  0  0  0  0  0  0
  139.9872   72.1756  225.5322 H   0  0  0  0  0  0  0  0  0  0  0  0
  140.6714   76.3555  223.2717 H   0  0  0  0  0  0  0  0  0  0  0  0
  141.4408   75.5209  221.8642 H   0  0  0  0  0  0  0  0  0  0  0  0
  141.1430   77.9671  221.5171 H   0  0  0  0  0  0  0  0  0  0  0  0
  140.2624   76.9459  220.3143 H   0  0  0  0  0  0  0  0  0  0  0  0
  1  2  1  0
  2  3  1  0
  3  4  2  0
  3  5  1  0
  5  6  1  0
  6  7  2  0
  7  8  1  0
  8  9  2  0
  9 10  1  0
 10 11  2  0
  5 12  1  0
 12 13  1  0
 13 14  1  0
 14 15  1  0
 15 16  1  0
 16 17  2  0
 16 18  1  0
 18 19  1  0
 19 20  1  0
 19 21  1  0
 21 22  1  0
 22 23  1  0
 23 24  2  0
 24 25  1  0
 25 26  1  0
 26 27  2  0
 27 28  1  0
 28 29  2  0
 29 30  1  0
 30 31  2  0
 15 32  1  0
 32 33  1  0
 11  6  1  0
 33 12  1  0
 31 23  1  0
 31 26  1  0
  1 34  1  0
  1 35  1  0
  1 36  1  0
  2 37  1  0
  2 38  1  0
  7 39  1  0
  8 40  1  0
  9 41  1  0
 10 42  1  0
 11 43  1  0
 12 44  1  0
 13 45  1  0
 13 46  1  0
 14 47  1  0
 14 48  1  0
 18 49  1  0
 18 50  1  0
 19 51  1  6
 20 52  1  0
 20 53  1  0
 21 54  1  0
 21 55  1  0
 22 56  1  0
 22 57  1  0
 24 58  1  0
 25 59  1  0
 27 60  1  0
 28 61  1  0
 29 62  1  0
 30 63  1  0
 32 64  1  0
 32 65  1  0
 33 66  1  0
 33 67  1  0
M  END
>  <smiles>  (99) 
CCC(=O)N(c1ccccc1)C1CCN(C(=O)CC(N)CCc2c[nH]c3ccccc23)CC1

>  <score_type>  (99) 
oracle

>  <origin>  (99) 
autodockgpu

>  <m_score__min__energy>  (99) 
-9.5899999999999999

>  <m_primary>  (99) 
energy

>  <rmsd>  (99) 
11.173916100512303

>  <m_score__min__rmsd>  (99) 
11.173916100512303

>  <meeko>  (99) 
{"free_energy": -8.9, "intermolecular_energy": -11.89, "internal_energy": -2.18, "cluster_size": 15, "cluster_id": 2, "rank_in_cluster": 2}

>  <energy>  (99) 
-8.16

>  <cluster_rmsd>  (99) 
0.0

>  <cluster>  (99) 
6

$$$$

     RDKit          3D

 67 70  0  0  0  0  0  0  0  0999 V2000
  142.1990   80.7300  218.5600 C   0  0  0  0  0  0  0  0  0  0  0  0
  141.8970   79.2490  218.4740 C   0  0  0  0  0  0  0  0  0  0  0  0
  140.5780   78.9900  219.1180 C   0  0  0  0  0  0  0  0  0  0  0  0
  139.5590   79.2410  218.4470 O   0  0  0  0  0  0  0  0  0  0  0  0
  140.5510   78.4740  220.4490 N   0  0  0  0  0  0  0  0  0  0  0  0
  140.8730   79.3280  221.5670 C   0  0  0  0  0  0  0  0  0  0  0  0
  139.9200   80.1020  222.1910 C   0  0  0  0  0  0  0  0  0  0  0  0
  140.3460   80.8880  223.2600 C   0  0  0  0  0  0  0  0  0  0  0  0
  141.6710   80.8910  223.6770 C   0  0  0  0  0  0  0  0  0  0  0  0
  142.6080   80.1100  223.0380 C   0  0  0  0  0  0  0  0  0  0  0  0
  142.1930   79.3280  221.9780 C   0  0  0  0  0  0  0  0  0  0  0  0
  140.2060   77.1050  220.7300 C   0  0  0  0  0  0  0  0  0  0  0  0
  140.2880   76.7750  222.2250 C   0  0  0  0  0  0  0  0  0  0  0  0
  139.7650   75.3300  222.3450 C   0  0  0  0  0  0  0  0  0  0  0  0
  140.7760   74.4730  221.7900 N   0  0  0  0  0  0  0  0  0  0  0  0
  140.9480   73.0960  221.9660 C   0  0  0  0  0  0  0  0  0  0  0  0
  141.9790   72.6010  221.3310 O   0  0  0  0  0  0  0  0  0  0  0  0
  140.2120   72.0980  222.7130 C   0  0  0  0  0  0  0  0  0  0  0  0
  139.3600   71.1020  222.0420 C   0  0  1  0  0  0  0  0  0  0  0  0
  139.8680   70.6020  220.7830 N   0  0  0  0  0  0  0  0  0  0  0  0
  139.2230   69.8700  222.9430 C   0  0  0  0  0  0  0  0  0  0  0  0
  138.3260   70.0780  224.1230 C   0  0  0  0  0  0  0  0  0  0  0  0
  139.0210   69.4080  225.3010 C   0  0  0  0  0  0  0  0  0  0  0  0
  139.0010   68.0710  225.6190 C   0  0  0  0  0  0  0  0  0  0  0  0
  139.7490   67.9460  226.7300 N   0  0  0  0  0  0  0  0  0  0  0  0
  140.2310   69.1450  227.1140 C   0  0  0  0  0  0  0  0  0  0  0  0
  141.0330   69.5680  228.1600 C   0  0  0  0  0  0  0  0  0  0  0  0
  141.3910   70.8930  228.3320 C   0  0  0  0  0  0  0  0  0  0  0  0
  140.9350   71.8510  227.4260 C   0  0  0  0  0  0  0  0  0  0  0  0
  140.1280   71.4410  226.3680 C   0  0  0  0  0  0  0  0  0  0  0  0
  139.7870   70.1040  226.2250 C   0  0  0  0  0  0  0  0  0  0  0  0
  141.7560   75.1580  220.9090 C   0  0  0  0  0  0  0  0  0  0  0  0
  141.0640   76.1120  219.9650 C   0  0  0  0  0  0  0  0  0  0  0  0
  142.2604   81.0310  219.6162 H   0  0  0  0  0  0  0  0  0  0  0  0
  143.1581   80.9381  218.0631 H   0  0  0  0  0  0  0  0  0  0  0  0
  141.3980   81.2970  218.0631 H   0  0  0  0  0  0  0  0  0  0  0  0
  141.8605   78.9397  217.4190 H   0  0  0  0  0  0  0  0  0  0  0  0
  142.6830   78.6766  218.9883 H   0  0  0  0  0  0  0  0  0  0  0  0
  138.8707   80.0999  221.8608 H   0  0  0  0  0  0  0  0  0  0  0  0
  139.6159   81.5208  223.7859 H   0  0  0  0  0  0  0  0  0  0  0  0
  141.9744   81.5227  224.5249 H   0  0  0  0  0  0  0  0  0  0  0  0
  143.6589   80.1090  223.3631 H   0  0  0  0  0  0  0  0  0  0  0  0
  142.9238   78.6955  221.4528 H   0  0  0  0  0  0  0  0  0  0  0  0
  139.1633   77.0052  220.3942 H   0  0  0  0  0  0  0  0  0  0  0  0
  141.3275   76.8403  222.5787 H   0  0  0  0  0  0  0  0  0  0  0  0
  139.7023   77.4780  222.8356 H   0  0  0  0  0  0  0  0  0  0  0  0
  139.5925   75.0766  223.4014 H   0  0  0  0  0  0  0  0  0  0  0  0
  138.8109   75.2108  221.8106 H   0  0  0  0  0  0  0  0  0  0  0  0
  140.9578   71.5298  223.2883 H   0  0  0  0  0  0  0  0  0  0  0  0
  139.4756   72.7081  223.2566 H   0  0  0  0  0  0  0  0  0  0  0  0
  138.4166   71.6331  221.8473 H   0  0  0  0  0  0  0  0  0  0  0  0
  139.1530   70.5620  220.0610 H   0  0  0  0  0  0  0  0  0  0  0  0
  140.7370   71.1090  220.5520 H   0  0  0  0  0  0  0  0  0  0  0  0
  138.8170   69.0439  222.3407 H   0  0  0  0  0  0  0  0  0  0  0  0
  140.2257   69.6511  223.3389 H   0  0  0  0  0  0  0  0  0  0  0  0
  138.1936   71.1525  224.3179 H   0  0  0  0  0  0  0  0  0  0  0  0
  137.3265   69.6528  223.9496 H   0  0  0  0  0  0  0  0  0  0  0  0
  138.4803   67.2682  225.0765 H   0  0  0  0  0  0  0  0  0  0  0  0
  139.9480   67.0540  227.2470 H   0  0  0  0  0  0  0  0  0  0  0  0
  141.3993   68.8226  228.8813 H   0  0  0  0  0  0  0  0  0  0  0  0
  142.0304   71.1891  229.1767 H   0  0  0  0  0  0  0  0  0  0  0  0
  141.2078   72.9099  227.5452 H   0  0  0  0  0  0  0  0  0  0  0  0
  139.7592   72.1807  225.6422 H   0  0  0  0  0  0  0  0  0  0  0  0
  142.4668   75.7210  221.5317 H   0  0  0  0  0  0  0  0  0  0  0  0
  142.2821   74.3973  220.3136 H   0  0  0  0  0  0  0  0  0  0  0  0
  141.8225   76.6612  219.3879 H   0  0  0  0  0  0  0  0  0  0  0  0
  140.4150   75.5319  219.2925 H   0  0  0  0  0  0  0  0  0  0  0  0
  1  2  1  0
  2  3  1  0
  3  4  2  0
  3  5  1  0
  5  6  1  0
  6  7  2  0
  7  8  1  0
  8  9  2  0
  9 10  1  0
 10 11  2  0
  5 12  1  0
 12 13  1  0
 13 14  1  0
 14 15  1  0
 15 16  1  0
 16 17  2  0
 16 18  1  0
 18 19  1  0
 19 20  1  0
 19 21  1  0
 21 22  1  0
 22 23  1  0
 23 24  2  0
 24 25  1  0
 25 26  1  0
 26 27  2  0
 27 28  1  0
 28 29  2  0
 29 30  1  0
 30 31  2  0
 15 32  1  0
 32 33  1  0
 11  6  1  0
 33 12  1  0
 31 23  1  0
 31 26  1  0
  1 34  1  0
  1 35  1  0
  1 36  1  0
  2 37  1  0
  2 38  1  0
  7 39  1  0
  8 40  1  0
  9 41  1  0
 10 42  1  0
 11 43  1  0
 12 44  1  0
 13 45  1  0
 13 46  1  0
 14 47  1  0
 14 48  1  0
 18 49  1  0
 18 50  1  0
 19 51  1  6
 20 52  1  0
 20 53  1  0
 21 54  1  0
 21 55  1  0
 22 56  1  0
 22 57  1  0
 24 58  1  0
 25 59  1  0
 27 60  1  0
 28 61  1  0
 29 62  1  0
 30 63  1  0
 32 64  1  0
 32 65  1  0
 33 66  1  0
 33 67  1  0
M  END
>  <smiles>  (100) 
CCC(=O)N(c1ccccc1)C1CCN(C(=O)CC(N)CCc2c[nH]c3ccccc23)CC1

>  <score_type>  (100) 
oracle

>  <origin>  (100) 
autodockgpu

>  <m_score__min__energy>  (100) 
-9.5899999999999999

>  <m_primary>  (100) 
energy

>  <rmsd>  (100) 
11.39595638031378

>  <m_score__min__rmsd>  (100) 
11.39595638031378

>  <meeko>  (100) 
{"free_energy": -7.99, "intermolecular_energy": -10.97, "internal_energy": -2.19, "cluster_size": 27, "cluster_id": 1, "rank_in_cluster": 27}

>  <energy>  (100) 
-7.49

>  <cluster_rmsd>  (100) 
0.0

>  <cluster>  (100) 
7

$$$$
