
     RDKit          3D

 57 61  0  0  0  0  0  0  0  0999 V2000
  138.5670   75.3690  222.0970 O   0  0  0  0  0  0  0  0  0  0  0  0
  139.7680   75.7580  221.9770 C   0  0  0  0  0  0  0  0  0  0  0  0
  140.7630   74.9290  221.3880 N   0  0  0  0  0  0  0  0  0  0  0  0
  140.4460   73.5830  220.8890 C   0  0  0  0  0  0  0  0  0  0  0  0
  141.6340   72.8730  220.4580 C   0  0  0  0  0  0  0  0  0  0  0  0
  141.4650   71.5970  220.2500 O   0  0  0  0  0  0  0  0  0  0  0  0
  142.9390   73.3170  220.2240 N   0  0  0  0  0  0  0  0  0  0  0  0
  143.9870   72.4120  220.8210 C   0  0  0  0  0  0  0  0  0  0  0  0
  145.1080   72.1600  219.8860 C   0  0  0  0  0  0  0  0  0  0  0  0
  145.3930   73.1880  218.8590 C   0  0  0  0  0  0  0  0  0  0  0  0
  144.1700   73.8540  218.3070 C   0  0  0  0  0  0  0  0  0  0  0  0
  143.4640   74.4380  219.5630 C   0  0  1  0  0  0  0  0  0  0  0  0
  142.5970   75.5190  219.1110 C   0  0  0  0  0  0  0  0  0  0  0  0
  142.5000   76.7030  219.8160 N   0  0  0  0  0  0  0  0  0  0  0  0
  141.6580   77.5190  219.2030 C   0  0  0  0  0  0  0  0  0  0  0  0
  141.2420   78.8770  219.5800 C   0  0  0  0  0  0  0  0  0  0  0  0
  142.1670   79.8960  219.7120 C   0  0  0  0  0  0  0  0  0  0  0  0
  141.7590   81.1660  220.0670 C   0  0  0  0  0  0  0  0  0  0  0  0
  140.4140   81.4640  220.3020 C   0  0  0  0  0  0  0  0  0  0  0  0
  139.5130   80.4430  220.1660 C   0  0  0  0  0  0  0  0  0  0  0  0
  139.9100   79.1590  219.8100 C   0  0  0  0  0  0  0  0  0  0  0  0
  141.2060   76.8500  218.0890 C   0  0  0  0  0  0  0  0  0  0  0  0
  141.8030   75.6910  218.1100 O   0  0  0  0  0  0  0  0  0  0  0  0
  140.1370   77.0990  222.4610 C   0  0  0  0  0  0  0  0  0  0  0  0
  139.1680   77.9590  222.9120 C   0  0  0  0  0  0  0  0  0  0  0  0
  139.4350   79.2300  223.3800 C   0  0  0  0  0  0  0  0  0  0  0  0
  140.7490   79.6420  223.3890 C   0  0  0  0  0  0  0  0  0  0  0  0
  141.0200   80.9050  223.8530 C   0  0  0  0  0  0  0  0  0  0  0  0
  142.3490   81.3210  223.8620 C   0  0  0  0  0  0  0  0  0  0  0  0
  142.5720   82.5810  224.3300 F   0  0  0  0  0  0  0  0  0  0  0  0
  143.3560   80.4950  223.4200 C   0  0  0  0  0  0  0  0  0  0  0  0
  143.0300   79.2200  222.9570 C   0  0  0  0  0  0  0  0  0  0  0  0
  141.7170   78.7690  222.9340 C   0  0  0  0  0  0  0  0  0  0  0  0
  141.4170   77.5250  222.4790 N   0  0  0  0  0  0  0  0  0  0  0  0
  141.7270   75.3280  221.3270 H   0  0  0  0  0  0  0  0  0  0  0  0
  139.9616   73.0103  221.6936 H   0  0  0  0  0  0  0  0  0  0  0  0
  139.7786   73.6894  220.0211 H   0  0  0  0  0  0  0  0  0  0  0  0
  144.3847   72.8834  221.7318 H   0  0  0  0  0  0  0  0  0  0  0  0
  143.5108   71.4461  221.0450 H   0  0  0  0  0  0  0  0  0  0  0  0
  146.0189   72.0385  220.4906 H   0  0  0  0  0  0  0  0  0  0  0  0
  144.7979   71.2737  219.3131 H   0  0  0  0  0  0  0  0  0  0  0  0
  146.0331   73.9601  219.3109 H   0  0  0  0  0  0  0  0  0  0  0  0
  145.8805   72.6717  218.0189 H   0  0  0  0  0  0  0  0  0  0  0  0
  144.4437   74.6546  217.6040 H   0  0  0  0  0  0  0  0  0  0  0  0
  143.5279   73.1618  217.7425 H   0  0  0  0  0  0  0  0  0  0  0  0
  144.0708   74.9482  220.3255 H   0  0  0  0  0  0  0  0  0  0  0  0
  143.2334   79.6937  219.5333 H   0  0  0  0  0  0  0  0  0  0  0  0
  142.5107   81.9628  220.1674 H   0  0  0  0  0  0  0  0  0  0  0  0
  140.0928   82.4774  220.5846 H   0  0  0  0  0  0  0  0  0  0  0  0
  138.4460   80.6436  220.3431 H   0  0  0  0  0  0  0  0  0  0  0  0
  139.1579   78.3624  219.7109 H   0  0  0  0  0  0  0  0  0  0  0  0
  140.4907   77.2162  217.3379 H   0  0  0  0  0  0  0  0  0  0  0  0
  138.1224   77.6176  222.9001 H   0  0  0  0  0  0  0  0  0  0  0  0
  138.6281   79.8892  223.7326 H   0  0  0  0  0  0  0  0  0  0  0  0
  140.2148   81.5662  224.2058 H   0  0  0  0  0  0  0  0  0  0  0  0
  144.4023   80.8345  223.4314 H   0  0  0  0  0  0  0  0  0  0  0  0
  143.8321   78.5563  222.6018 H   0  0  0  0  0  0  0  0  0  0  0  0
  1  2  2  0
  2  3  1  0
  3  4  1  0
  4  5  1  0
  5  6  2  0
  5  7  1  0
  7  8  1  0
  8  9  1  0
  9 10  1  0
 10 11  1  0
 11 12  1  0
 12 13  1  0
 13 14  2  0
 14 15  1  0
 15 16  1  0
 16 17  2  0
 17 18  1  0
 18 19  2  0
 19 20  1  0
 20 21  2  0
 15 22  2  0
 22 23  1  0
  2 24  1  0
 24 25  2  0
 25 26  1  0
 26 27  2  0
 27 28  1  0
 28 29  2  0
 29 30  1  0
 29 31  1  0
 31 32  2  0
 32 33  1  0
 33 34  2  0
 12  7  1  0
 23 13  1  0
 34 24  1  0
 21 16  1  0
 33 27  1  0
  3 35  1  0
  4 36  1  0
  4 37  1  0
  8 38  1  0
  8 39  1  0
  9 40  1  0
  9 41  1  0
 10 42  1  0
 10 43  1  0
 11 44  1  0
 11 45  1  0
 12 46  1  1
 17 47  1  0
 18 48  1  0
 19 49  1  0
 20 50  1  0
 21 51  1  0
 22 52  1  0
 25 53  1  0
 26 54  1  0
 28 55  1  0
 31 56  1  0
 32 57  1  0
M  END
>  <smiles>  (1) 
O=C(NCC(=O)N1CCCC[C@H]1c1nc(-c2ccccc2)co1)c1ccc2cc(F)ccc2n1

>  <score_type>  (1) 
oracle

>  <origin>  (1) 
autodockgpu

>  <m_score__min__energy>  (1) 
-9.4100000000000001

>  <m_primary>  (1) 
energy

>  <rmsd>  (1) 
7.087858972449267

>  <m_score__min__rmsd>  (1) 
7.087858972449267

>  <meeko>  (1) 
{"free_energy": -6.24, "intermolecular_energy": -8.03, "internal_energy": -4.48, "cluster_size": 9, "cluster_id": 11, "rank_in_cluster": 9}

>  <energy>  (1) 
-9.41

>  <cluster_rmsd>  (1) 
0.0

>  <cluster>  (1) 
1

$$$$

     RDKit          3D

 57 61  0  0  0  0  0  0  0  0999 V2000
  140.1420   74.1670  222.2230 O   0  0  0  0  0  0  0  0  0  0  0  0
  140.2700   75.2900  221.6480 C   0  0  0  0  0  0  0  0  0  0  0  0
  141.2650   75.5060  220.6530 N   0  0  0  0  0  0  0  0  0  0  0  0
  142.1890   74.4390  220.2430 C   0  0  0  0  0  0  0  0  0  0  0  0
  143.2400   74.9360  219.3800 C   0  0  0  0  0  0  0  0  0  0  0  0
  144.4510   74.7560  219.8300 O   0  0  0  0  0  0  0  0  0  0  0  0
  143.1880   75.5820  218.1410 N   0  0  0  0  0  0  0  0  0  0  0  0
  144.0670   74.9360  217.1000 C   0  0  0  0  0  0  0  0  0  0  0  0
  143.3820   74.8040  215.7920 C   0  0  0  0  0  0  0  0  0  0  0  0
  142.3030   75.7690  215.4800 C   0  0  0  0  0  0  0  0  0  0  0  0
  141.4660   76.1540  216.6610 C   0  0  0  0  0  0  0  0  0  0  0  0
  142.4980   76.7140  217.6800 C   0  0  1  0  0  0  0  0  0  0  0  0
  141.7710   77.5780  218.6030 C   0  0  0  0  0  0  0  0  0  0  0  0
  142.4190   78.2350  219.6310 N   0  0  0  0  0  0  0  0  0  0  0  0
  141.5470   78.9540  220.3190 C   0  0  0  0  0  0  0  0  0  0  0  0
  141.7720   79.8120  221.4910 C   0  0  0  0  0  0  0  0  0  0  0  0
  141.2850   81.1060  221.5320 C   0  0  0  0  0  0  0  0  0  0  0  0
  141.5060   81.8980  222.6410 C   0  0  0  0  0  0  0  0  0  0  0  0
  142.2190   81.4280  223.7470 C   0  0  0  0  0  0  0  0  0  0  0  0
  142.6930   80.1450  223.6880 C   0  0  0  0  0  0  0  0  0  0  0  0
  142.4790   79.3360  222.5770 C   0  0  0  0  0  0  0  0  0  0  0  0
  140.3220   78.7560  219.7250 C   0  0  0  0  0  0  0  0  0  0  0  0
  140.5410   77.9410  218.7320 O   0  0  0  0  0  0  0  0  0  0  0  0
  139.3690   76.3930  222.0220 C   0  0  0  0  0  0  0  0  0  0  0  0
  138.0550   76.3720  221.6290 C   0  0  0  0  0  0  0  0  0  0  0  0
  137.1500   77.3670  221.9400 C   0  0  0  0  0  0  0  0  0  0  0  0
  137.6060   78.4310  222.6850 C   0  0  0  0  0  0  0  0  0  0  0  0
  136.7110   79.4240  222.9970 C   0  0  0  0  0  0  0  0  0  0  0  0
  137.1730   80.5000  223.7500 C   0  0  0  0  0  0  0  0  0  0  0  0
  136.2510   81.4610  224.0370 F   0  0  0  0  0  0  0  0  0  0  0  0
  138.4810   80.5660  224.1680 C   0  0  0  0  0  0  0  0  0  0  0  0
  139.3540   79.5320  223.8260 C   0  0  0  0  0  0  0  0  0  0  0  0
  138.9300   78.4430  223.0760 C   0  0  0  0  0  0  0  0  0  0  0  0
  139.7920   77.4450  222.7510 N   0  0  0  0  0  0  0  0  0  0  0  0
  141.3010   76.4610  220.2290 H   0  0  0  0  0  0  0  0  0  0  0  0
  142.6454   73.9992  221.1420 H   0  0  0  0  0  0  0  0  0  0  0  0
  141.6141   73.6878  219.6816 H   0  0  0  0  0  0  0  0  0  0  0  0
  144.9691   75.5512  216.9669 H   0  0  0  0  0  0  0  0  0  0  0  0
  144.3200   73.9250  217.4521 H   0  0  0  0  0  0  0  0  0  0  0  0
  144.1478   74.9028  215.0086 H   0  0  0  0  0  0  0  0  0  0  0  0
  142.8770   73.8279  215.8397 H   0  0  0  0  0  0  0  0  0  0  0  0
  142.7627   76.6806  215.0706 H   0  0  0  0  0  0  0  0  0  0  0  0
  141.6315   75.2730  214.7637 H   0  0  0  0  0  0  0  0  0  0  0  0
  140.7300   76.9237  216.3855 H   0  0  0  0  0  0  0  0  0  0  0  0
  140.8850   75.3112  217.0635 H   0  0  0  0  0  0  0  0  0  0  0  0
  143.2875   77.3900  217.3199 H   0  0  0  0  0  0  0  0  0  0  0  0
  140.7193   81.5057  220.6775 H   0  0  0  0  0  0  0  0  0  0  0  0
  141.1110   82.9245  222.6543 H   0  0  0  0  0  0  0  0  0  0  0  0
  142.3923   82.0626  224.6286 H   0  0  0  0  0  0  0  0  0  0  0  0
  143.2581   79.7432  224.5420 H   0  0  0  0  0  0  0  0  0  0  0  0
  142.8757   78.3101  222.5636 H   0  0  0  0  0  0  0  0  0  0  0  0
  139.3588   79.1941  220.0255 H   0  0  0  0  0  0  0  0  0  0  0  0
  137.7034   75.5162  221.0340 H   0  0  0  0  0  0  0  0  0  0  0  0
  136.1037   77.3117  221.6051 H   0  0  0  0  0  0  0  0  0  0  0  0
  135.6642   79.3713  222.6633 H   0  0  0  0  0  0  0  0  0  0  0  0
  138.8343   81.4210  224.7631 H   0  0  0  0  0  0  0  0  0  0  0  0
  140.4015   79.5809  224.1581 H   0  0  0  0  0  0  0  0  0  0  0  0
  1  2  2  0
  2  3  1  0
  3  4  1  0
  4  5  1  0
  5  6  2  0
  5  7  1  0
  7  8  1  0
  8  9  1  0
  9 10  1  0
 10 11  1  0
 11 12  1  0
 12 13  1  0
 13 14  2  0
 14 15  1  0
 15 16  1  0
 16 17  2  0
 17 18  1  0
 18 19  2  0
 19 20  1  0
 20 21  2  0
 15 22  2  0
 22 23  1  0
  2 24  1  0
 24 25  2  0
 25 26  1  0
 26 27  2  0
 27 28  1  0
 28 29  2  0
 29 30  1  0
 29 31  1  0
 31 32  2  0
 32 33  1  0
 33 34  2  0
 12  7  1  0
 23 13  1  0
 34 24  1  0
 21 16  1  0
 33 27  1  0
  3 35  1  0
  4 36  1  0
  4 37  1  0
  8 38  1  0
  8 39  1  0
  9 40  1  0
  9 41  1  0
 10 42  1  0
 10 43  1  0
 11 44  1  0
 11 45  1  0
 12 46  1  6
 17 47  1  0
 18 48  1  0
 19 49  1  0
 20 50  1  0
 21 51  1  0
 22 52  1  0
 25 53  1  0
 26 54  1  0
 28 55  1  0
 31 56  1  0
 32 57  1  0
M  END
>  <smiles>  (2) 
O=C(NCC(=O)N1CCCC[C@H]1c1nc(-c2ccccc2)co1)c1ccc2cc(F)ccc2n1

>  <score_type>  (2) 
oracle

>  <origin>  (2) 
autodockgpu

>  <m_score__min__energy>  (2) 
-9.4100000000000001

>  <m_primary>  (2) 
energy

>  <rmsd>  (2) 
6.540108218485111

>  <m_score__min__rmsd>  (2) 
6.540108218485111

>  <meeko>  (2) 
{"free_energy": -6.69, "intermolecular_energy": -8.48, "internal_energy": -4.26, "cluster_size": 9, "cluster_id": 11, "rank_in_cluster": 5}

>  <energy>  (2) 
-9.27

>  <cluster_rmsd>  (2) 
0.65

>  <cluster>  (2) 
1

$$$$

     RDKit          3D

 57 61  0  0  0  0  0  0  0  0999 V2000
  141.1890   72.7700  222.0560 O   0  0  0  0  0  0  0  0  0  0  0  0
  140.1060   72.5640  222.6830 C   0  0  0  0  0  0  0  0  0  0  0  0
  138.9080   73.2510  222.3430 N   0  0  0  0  0  0  0  0  0  0  0  0
  138.8660   74.2320  221.2480 C   0  0  0  0  0  0  0  0  0  0  0  0
  138.4040   75.5280  221.7010 C   0  0  0  0  0  0  0  0  0  0  0  0
  137.2120   75.5300  222.2310 O   0  0  0  0  0  0  0  0  0  0  0  0
  139.0120   76.7860  221.6700 N   0  0  0  0  0  0  0  0  0  0  0  0
  138.1730   77.8640  222.3110 C   0  0  0  0  0  0  0  0  0  0  0  0
  138.9740   78.7470  223.1910 C   0  0  0  0  0  0  0  0  0  0  0  0
  140.4170   78.8900  222.8940 C   0  0  0  0  0  0  0  0  0  0  0  0
  141.0670   77.6330  222.4030 C   0  0  0  0  0  0  0  0  0  0  0  0
  140.2310   77.2470  221.1510 C   0  0  1  0  0  0  0  0  0  0  0  0
  141.0660   76.3880  220.3190 C   0  0  0  0  0  0  0  0  0  0  0  0
  142.1100   75.6620  220.8600 N   0  0  0  0  0  0  0  0  0  0  0  0
  142.7060   74.9640  219.9070 C   0  0  0  0  0  0  0  0  0  0  0  0
  143.8560   74.0530  220.0070 C   0  0  0  0  0  0  0  0  0  0  0  0
  145.0570   74.4760  220.5460 C   0  0  0  0  0  0  0  0  0  0  0  0
  146.1260   73.6070  220.6310 C   0  0  0  0  0  0  0  0  0  0  0  0
  146.0350   72.2870  220.1820 C   0  0  0  0  0  0  0  0  0  0  0  0
  144.8380   71.8860  219.6520 C   0  0  0  0  0  0  0  0  0  0  0  0
  143.7530   72.7510  219.5600 C   0  0  0  0  0  0  0  0  0  0  0  0
  142.0380   75.2460  218.7380 C   0  0  0  0  0  0  0  0  0  0  0  0
  141.0950   76.0840  219.0670 O   0  0  0  0  0  0  0  0  0  0  0  0
  140.0940   71.5910  223.7890 C   0  0  0  0  0  0  0  0  0  0  0  0
  139.5600   70.3420  223.6010 C   0  0  0  0  0  0  0  0  0  0  0  0
  139.5120   69.3770  224.5870 C   0  0  0  0  0  0  0  0  0  0  0  0
  140.0320   69.7010  225.8190 C   0  0  0  0  0  0  0  0  0  0  0  0
  139.9860   68.7450  226.8040 C   0  0  0  0  0  0  0  0  0  0  0  0
  140.5130   69.0730  228.0510 C   0  0  0  0  0  0  0  0  0  0  0  0
  140.4470   68.0960  228.9970 F   0  0  0  0  0  0  0  0  0  0  0  0
  141.0590   70.3130  228.2880 C   0  0  0  0  0  0  0  0  0  0  0  0
  141.0820   71.2510  227.2560 C   0  0  0  0  0  0  0  0  0  0  0  0
  140.5680   70.9610  225.9990 C   0  0  0  0  0  0  0  0  0  0  0  0
  140.5970   71.8850  225.0050 N   0  0  0  0  0  0  0  0  0  0  0  0
  138.0600   73.0200  222.9110 H   0  0  0  0  0  0  0  0  0  0  0  0
  139.8774   74.3414  220.8296 H   0  0  0  0  0  0  0  0  0  0  0  0
  138.1601   73.8649  220.4885 H   0  0  0  0  0  0  0  0  0  0  0  0
  137.7149   78.4744  221.5189 H   0  0  0  0  0  0  0  0  0  0  0  0
  137.4082   77.3732  222.9308 H   0  0  0  0  0  0  0  0  0  0  0  0
  138.5277   79.7512  223.1425 H   0  0  0  0  0  0  0  0  0  0  0  0
  138.9404   78.2607  224.1771 H   0  0  0  0  0  0  0  0  0  0  0  0
  140.5359   79.6648  222.1222 H   0  0  0  0  0  0  0  0  0  0  0  0
  140.9113   79.1543  223.8404 H   0  0  0  0  0  0  0  0  0  0  0  0
  142.1173   77.8153  222.1317 H   0  0  0  0  0  0  0  0  0  0  0  0
  141.0849   76.8386  223.1637 H   0  0  0  0  0  0  0  0  0  0  0  0
  139.9467   78.0352  220.4383 H   0  0  0  0  0  0  0  0  0  0  0  0
  145.1610   75.5093  220.9086 H   0  0  0  0  0  0  0  0  0  0  0  0
  147.0731   73.9625  221.0629 H   0  0  0  0  0  0  0  0  0  0  0  0
  146.8899   71.5983  220.2515 H   0  0  0  0  0  0  0  0  0  0  0  0
  144.7318   70.8529  219.2896 H   0  0  0  0  0  0  0  0  0  0  0  0
  142.8060   72.3952  219.1280 H   0  0  0  0  0  0  0  0  0  0  0  0
  142.2542   74.8479  217.7356 H   0  0  0  0  0  0  0  0  0  0  0  0
  139.1477   70.0958  222.6113 H   0  0  0  0  0  0  0  0  0  0  0  0
  139.0744   68.3862  224.3950 H   0  0  0  0  0  0  0  0  0  0  0  0
  139.5479   67.7540  226.6146 H   0  0  0  0  0  0  0  0  0  0  0  0
  141.4715   70.5613  229.2770 H   0  0  0  0  0  0  0  0  0  0  0  0
  141.5175   72.2438  227.4422 H   0  0  0  0  0  0  0  0  0  0  0  0
  1  2  2  0
  2  3  1  0
  3  4  1  0
  4  5  1  0
  5  6  2  0
  5  7  1  0
  7  8  1  0
  8  9  1  0
  9 10  1  0
 10 11  1  0
 11 12  1  0
 12 13  1  0
 13 14  2  0
 14 15  1  0
 15 16  1  0
 16 17  2  0
 17 18  1  0
 18 19  2  0
 19 20  1  0
 20 21  2  0
 15 22  2  0
 22 23  1  0
  2 24  1  0
 24 25  2  0
 25 26  1  0
 26 27  2  0
 27 28  1  0
 28 29  2  0
 29 30  1  0
 29 31  1  0
 31 32  2  0
 32 33  1  0
 33 34  2  0
 12  7  1  0
 23 13  1  0
 34 24  1  0
 21 16  1  0
 33 27  1  0
  3 35  1  0
  4 36  1  0
  4 37  1  0
  8 38  1  0
  8 39  1  0
  9 40  1  0
  9 41  1  0
 10 42  1  0
 10 43  1  0
 11 44  1  0
 11 45  1  0
 12 46  1  6
 17 47  1  0
 18 48  1  0
 19 49  1  0
 20 50  1  0
 21 51  1  0
 22 52  1  0
 25 53  1  0
 26 54  1  0
 28 55  1  0
 31 56  1  0
 32 57  1  0
M  END
>  <smiles>  (3) 
O=C(NCC(=O)N1CCCC[C@H]1c1nc(-c2ccccc2)co1)c1ccc2cc(F)ccc2n1

>  <score_type>  (3) 
oracle

>  <origin>  (3) 
autodockgpu

>  <m_score__min__energy>  (3) 
-9.4100000000000001

>  <m_primary>  (3) 
energy

>  <rmsd>  (3) 
5.506392380370105

>  <m_score__min__rmsd>  (3) 
5.506392380370105

>  <meeko>  (3) 
{"free_energy": -9.22, "intermolecular_energy": -11.01, "internal_energy": -2.09, "cluster_size": 15, "cluster_id": 1, "rank_in_cluster": 4}

>  <energy>  (3) 
-9.26

>  <cluster_rmsd>  (3) 
0.65

>  <cluster>  (3) 
1

$$$$

     RDKit          3D

 57 61  0  0  0  0  0  0  0  0999 V2000
  137.0760   71.0240  221.5210 O   0  0  0  0  0  0  0  0  0  0  0  0
  137.8100   71.5930  222.3840 C   0  0  0  0  0  0  0  0  0  0  0  0
  138.0550   72.9940  222.3440 N   0  0  0  0  0  0  0  0  0  0  0  0
  137.4690   73.8490  221.3020 C   0  0  0  0  0  0  0  0  0  0  0  0
  137.4840   75.2480  221.6780 C   0  0  0  0  0  0  0  0  0  0  0  0
  136.4300   75.6520  222.3310 O   0  0  0  0  0  0  0  0  0  0  0  0
  138.4360   76.2500  221.4630 N   0  0  0  0  0  0  0  0  0  0  0  0
  137.8200   77.5970  221.1800 C   0  0  0  0  0  0  0  0  0  0  0  0
  138.4920   78.6870  221.9260 C   0  0  0  0  0  0  0  0  0  0  0  0
  139.9090   78.4890  222.3060 C   0  0  0  0  0  0  0  0  0  0  0  0
  140.2490   77.0810  222.6880 C   0  0  0  0  0  0  0  0  0  0  0  0
  139.8380   76.2490  221.4400 C   0  0  1  0  0  0  0  0  0  0  0  0
  140.5900   75.0000  221.4860 C   0  0  0  0  0  0  0  0  0  0  0  0
  141.8250   74.8840  220.8790 N   0  0  0  0  0  0  0  0  0  0  0  0
  142.3000   73.6630  221.0650 C   0  0  0  0  0  0  0  0  0  0  0  0
  143.5690   73.0810  220.6060 C   0  0  0  0  0  0  0  0  0  0  0  0
  144.7700   73.7350  220.8140 C   0  0  0  0  0  0  0  0  0  0  0  0
  145.9530   73.1740  220.3760 C   0  0  0  0  0  0  0  0  0  0  0  0
  145.9800   71.9430  219.7160 C   0  0  0  0  0  0  0  0  0  0  0  0
  144.7820   71.3110  219.5200 C   0  0  0  0  0  0  0  0  0  0  0  0
  143.5830   71.8640  219.9550 C   0  0  0  0  0  0  0  0  0  0  0  0
  141.3560   72.9840  221.8010 C   0  0  0  0  0  0  0  0  0  0  0  0
  140.3910   73.8360  222.0040 O   0  0  0  0  0  0  0  0  0  0  0  0
  138.4220   70.7810  223.4500 C   0  0  0  0  0  0  0  0  0  0  0  0
  138.2560   69.4200  223.4590 C   0  0  0  0  0  0  0  0  0  0  0  0
  138.7970   68.5920  224.4230 C   0  0  0  0  0  0  0  0  0  0  0  0
  139.5400   69.1810  225.4220 C   0  0  0  0  0  0  0  0  0  0  0  0
  140.0810   68.3630  226.3830 C   0  0  0  0  0  0  0  0  0  0  0  0
  140.8320   68.9580  227.3930 C   0  0  0  0  0  0  0  0  0  0  0  0
  141.3490   68.1100  228.3250 F   0  0  0  0  0  0  0  0  0  0  0  0
  141.0260   70.3200  227.4260 C   0  0  0  0  0  0  0  0  0  0  0  0
  140.4570   71.1090  226.4270 C   0  0  0  0  0  0  0  0  0  0  0  0
  139.7020   70.5520  225.4040 C   0  0  0  0  0  0  0  0  0  0  0  0
  139.1530   71.3340  224.4390 N   0  0  0  0  0  0  0  0  0  0  0  0
  138.6710   73.3820  223.0950 H   0  0  0  0  0  0  0  0  0  0  0  0
  138.0460   73.7242  220.3738 H   0  0  0  0  0  0  0  0  0  0  0  0
  136.4210   73.5453  221.1620 H   0  0  0  0  0  0  0  0  0  0  0  0
  137.8994   77.8037  220.1025 H   0  0  0  0  0  0  0  0  0  0  0  0
  136.7695   77.5631  221.5044 H   0  0  0  0  0  0  0  0  0  0  0  0
  138.4426   79.5913  221.3017 H   0  0  0  0  0  0  0  0  0  0  0  0
  137.9527   78.7424  222.8831 H   0  0  0  0  0  0  0  0  0  0  0  0
  140.5392   78.7768  221.4516 H   0  0  0  0  0  0  0  0  0  0  0  0
  140.0887   79.1110  223.1953 H   0  0  0  0  0  0  0  0  0  0  0  0
  141.3254   76.9788  222.8901 H   0  0  0  0  0  0  0  0  0  0  0  0
  139.7375   76.7535  223.6051 H   0  0  0  0  0  0  0  0  0  0  0  0
  140.0969   76.6261  220.4396 H   0  0  0  0  0  0  0  0  0  0  0  0
  144.7826   74.7061  221.3305 H   0  0  0  0  0  0  0  0  0  0  0  0
  146.8977   73.7096  220.5511 H   0  0  0  0  0  0  0  0  0  0  0  0
  146.9249   71.5001  219.3683 H   0  0  0  0  0  0  0  0  0  0  0  0
  144.7674   70.3394  219.0045 H   0  0  0  0  0  0  0  0  0  0  0  0
  142.6387   71.3279  219.7791 H   0  0  0  0  0  0  0  0  0  0  0  0
  141.4056   71.9406  222.1457 H   0  0  0  0  0  0  0  0  0  0  0  0
  137.6600   68.9630  222.6553 H   0  0  0  0  0  0  0  0  0  0  0  0
  138.6404   67.5036  224.3940 H   0  0  0  0  0  0  0  0  0  0  0  0
  139.9262   67.2743  226.3558 H   0  0  0  0  0  0  0  0  0  0  0  0
  141.6213   70.7796  228.2288 H   0  0  0  0  0  0  0  0  0  0  0  0
  140.6100   72.1981  226.4501 H   0  0  0  0  0  0  0  0  0  0  0  0
  1  2  2  0
  2  3  1  0
  3  4  1  0
  4  5  1  0
  5  6  2  0
  5  7  1  0
  7  8  1  0
  8  9  1  0
  9 10  1  0
 10 11  1  0
 11 12  1  0
 12 13  1  0
 13 14  2  0
 14 15  1  0
 15 16  1  0
 16 17  2  0
 17 18  1  0
 18 19  2  0
 19 20  1  0
 20 21  2  0
 15 22  2  0
 22 23  1  0
  2 24  1  0
 24 25  2  0
 25 26  1  0
 26 27  2  0
 27 28  1  0
 28 29  2  0
 29 30  1  0
 29 31  1  0
 31 32  2  0
 32 33  1  0
 33 34  2  0
 12  7  1  0
 23 13  1  0
 34 24  1  0
 21 16  1  0
 33 27  1  0
  3 35  1  0
  4 36  1  0
  4 37  1  0
  8 38  1  0
  8 39  1  0
  9 40  1  0
  9 41  1  0
 10 42  1  0
 10 43  1  0
 11 44  1  0
 11 45  1  0
 12 46  1  6
 17 47  1  0
 18 48  1  0
 19 49  1  0
 20 50  1  0
 21 51  1  0
 22 52  1  0
 25 53  1  0
 26 54  1  0
 28 55  1  0
 31 56  1  0
 32 57  1  0
M  END
>  <smiles>  (4) 
O=C(NCC(=O)N1CCCC[C@H]1c1nc(-c2ccccc2)co1)c1ccc2cc(F)ccc2n1

>  <score_type>  (4) 
oracle

>  <origin>  (4) 
autodockgpu

>  <m_score__min__energy>  (4) 
-9.4100000000000001

>  <m_primary>  (4) 
energy

>  <rmsd>  (4) 
5.609949775760842

>  <m_score__min__rmsd>  (4) 
5.609949775760842

>  <meeko>  (4) 
{"free_energy": -8.48, "intermolecular_energy": -10.27, "internal_energy": -2.66, "cluster_size": 15, "cluster_id": 1, "rank_in_cluster": 15}

>  <energy>  (4) 
-9.22

>  <cluster_rmsd>  (4) 
0.6

>  <cluster>  (4) 
1

$$$$

     RDKit          3D

 57 61  0  0  0  0  0  0  0  0999 V2000
  138.0290   70.7170  221.3080 O   0  0  0  0  0  0  0  0  0  0  0  0
  138.5150   71.4640  222.2110 C   0  0  0  0  0  0  0  0  0  0  0  0
  138.6280   72.8710  222.0300 N   0  0  0  0  0  0  0  0  0  0  0  0
  138.1880   73.5260  220.7900 C   0  0  0  0  0  0  0  0  0  0  0  0
  136.8040   73.9490  220.8650 C   0  0  0  0  0  0  0  0  0  0  0  0
  135.9860   73.2890  220.0920 O   0  0  0  0  0  0  0  0  0  0  0  0
  136.1850   74.9470  221.6220 N   0  0  0  0  0  0  0  0  0  0  0  0
  134.6800   74.9220  221.5160 C   0  0  0  0  0  0  0  0  0  0  0  0
  134.0230   75.0880  222.8340 C   0  0  0  0  0  0  0  0  0  0  0  0
  134.7650   75.8180  223.8870 C   0  0  0  0  0  0  0  0  0  0  0  0
  136.2420   75.5670  223.8790 C   0  0  0  0  0  0  0  0  0  0  0  0
  136.6800   75.9720  222.4440 C   0  0  1  0  0  0  0  0  0  0  0  0
  138.1070   76.2710  222.4930 C   0  0  0  0  0  0  0  0  0  0  0  0
  138.5640   77.5730  222.5480 N   0  0  0  0  0  0  0  0  0  0  0  0
  139.8860   77.5790  222.5900 C   0  0  0  0  0  0  0  0  0  0  0  0
  140.8080   78.7220  222.6540 C   0  0  0  0  0  0  0  0  0  0  0  0
  141.0490   79.5070  221.5420 C   0  0  0  0  0  0  0  0  0  0  0  0
  141.9180   80.5780  221.6200 C   0  0  0  0  0  0  0  0  0  0  0  0
  142.5750   80.9020  222.8090 C   0  0  0  0  0  0  0  0  0  0  0  0
  142.3240   80.1140  223.9000 C   0  0  0  0  0  0  0  0  0  0  0  0
  141.4510   79.0320  223.8350 C   0  0  0  0  0  0  0  0  0  0  0  0
  140.2840   76.2620  222.5610 C   0  0  0  0  0  0  0  0  0  0  0  0
  139.1850   75.5640  222.5050 O   0  0  0  0  0  0  0  0  0  0  0  0
  138.9710   70.8570  223.4720 C   0  0  0  0  0  0  0  0  0  0  0  0
  138.7570   69.5230  223.7120 C   0  0  0  0  0  0  0  0  0  0  0  0
  139.1550   68.8830  224.8680 C   0  0  0  0  0  0  0  0  0  0  0  0
  139.7990   69.6370  225.8230 C   0  0  0  0  0  0  0  0  0  0  0  0
  140.1960   69.0050  226.9760 C   0  0  0  0  0  0  0  0  0  0  0  0
  140.8480   69.7680  227.9420 C   0  0  0  0  0  0  0  0  0  0  0  0
  141.2240   69.1010  229.0680 F   0  0  0  0  0  0  0  0  0  0  0  0
  141.0860   71.1090  227.7470 C   0  0  0  0  0  0  0  0  0  0  0  0
  140.6630   71.7060  226.5600 C   0  0  0  0  0  0  0  0  0  0  0  0
  140.0100   70.9780  225.5730 C   0  0  0  0  0  0  0  0  0  0  0  0
  139.6040   71.5750  224.4230 N   0  0  0  0  0  0  0  0  0  0  0  0
  139.0390   73.4120  222.8250 H   0  0  0  0  0  0  0  0  0  0  0  0
  138.8203   74.4079  220.6098 H   0  0  0  0  0  0  0  0  0  0  0  0
  138.2787   72.7992  219.9693 H   0  0  0  0  0  0  0  0  0  0  0  0
  134.3579   75.7395  220.8542 H   0  0  0  0  0  0  0  0  0  0  0  0
  134.3861   73.9414  221.1134 H   0  0  0  0  0  0  0  0  0  0  0  0
  133.0787   75.6262  222.6647 H   0  0  0  0  0  0  0  0  0  0  0  0
  133.9218   74.0646  223.2245 H   0  0  0  0  0  0  0  0  0  0  0  0
  134.5968   76.8957  223.7444 H   0  0  0  0  0  0  0  0  0  0  0  0
  134.3861   75.4536  224.8532 H   0  0  0  0  0  0  0  0  0  0  0  0
  136.7488   76.1872  224.6330 H   0  0  0  0  0  0  0  0  0  0  0  0
  136.4975   74.5253  224.1233 H   0  0  0  0  0  0  0  0  0  0  0  0
  136.2754   76.8967  222.0067 H   0  0  0  0  0  0  0  0  0  0  0  0
  140.5465   79.2778  220.5907 H   0  0  0  0  0  0  0  0  0  0  0  0
  142.0968   81.1904  220.7239 H   0  0  0  0  0  0  0  0  0  0  0  0
  143.2662   81.7558  222.8666 H   0  0  0  0  0  0  0  0  0  0  0  0
  142.8251   80.3418  224.8523 H   0  0  0  0  0  0  0  0  0  0  0  0
  141.2723   78.4197  224.7312 H   0  0  0  0  0  0  0  0  0  0  0  0
  141.3148   75.8785  222.5809 H   0  0  0  0  0  0  0  0  0  0  0  0
  138.2404   68.9320  222.9414 H   0  0  0  0  0  0  0  0  0  0  0  0
  138.9648   67.8104  225.0207 H   0  0  0  0  0  0  0  0  0  0  0  0
  140.0056   67.9328  227.1313 H   0  0  0  0  0  0  0  0  0  0  0  0
  141.6025   71.7016  228.5164 H   0  0  0  0  0  0  0  0  0  0  0  0
  140.8506   72.7782  226.4013 H   0  0  0  0  0  0  0  0  0  0  0  0
  1  2  2  0
  2  3  1  0
  3  4  1  0
  4  5  1  0
  5  6  2  0
  5  7  1  0
  7  8  1  0
  8  9  1  0
  9 10  1  0
 10 11  1  0
 11 12  1  0
 12 13  1  0
 13 14  2  0
 14 15  1  0
 15 16  1  0
 16 17  2  0
 17 18  1  0
 18 19  2  0
 19 20  1  0
 20 21  2  0
 15 22  2  0
 22 23  1  0
  2 24  1  0
 24 25  2  0
 25 26  1  0
 26 27  2  0
 27 28  1  0
 28 29  2  0
 29 30  1  0
 29 31  1  0
 31 32  2  0
 32 33  1  0
 33 34  2  0
 12  7  1  0
 23 13  1  0
 34 24  1  0
 21 16  1  0
 33 27  1  0
  3 35  1  0
  4 36  1  0
  4 37  1  0
  8 38  1  0
  8 39  1  0
  9 40  1  0
  9 41  1  0
 10 42  1  0
 10 43  1  0
 11 44  1  0
 11 45  1  0
 12 46  1  6
 17 47  1  0
 18 48  1  0
 19 49  1  0
 20 50  1  0
 21 51  1  0
 22 52  1  0
 25 53  1  0
 26 54  1  0
 28 55  1  0
 31 56  1  0
 32 57  1  0
M  END
>  <smiles>  (5) 
O=C(NCC(=O)N1CCCC[C@H]1c1nc(-c2ccccc2)co1)c1ccc2cc(F)ccc2n1

>  <score_type>  (5) 
oracle

>  <origin>  (5) 
autodockgpu

>  <m_score__min__energy>  (5) 
-9.4100000000000001

>  <m_primary>  (5) 
energy

>  <rmsd>  (5) 
4.166247603338363

>  <m_score__min__rmsd>  (5) 
4.166247603338363

>  <meeko>  (5) 
{"free_energy": -8.4, "intermolecular_energy": -10.19, "internal_energy": -2.6, "cluster_size": 1, "cluster_id": 5, "rank_in_cluster": 1}

>  <energy>  (5) 
-9.16

>  <cluster_rmsd>  (5) 
0.74

>  <cluster>  (5) 
1

$$$$

     RDKit          3D

 57 61  0  0  0  0  0  0  0  0999 V2000
  139.9480   74.0300  221.9200 O   0  0  0  0  0  0  0  0  0  0  0  0
  140.3480   75.2220  221.7540 C   0  0  0  0  0  0  0  0  0  0  0  0
  141.6370   75.5060  221.2240 N   0  0  0  0  0  0  0  0  0  0  0  0
  142.5670   74.4330  220.8430 C   0  0  0  0  0  0  0  0  0  0  0  0
  143.4920   74.8600  219.8130 C   0  0  0  0  0  0  0  0  0  0  0  0
  144.7420   74.9000  220.1810 O   0  0  0  0  0  0  0  0  0  0  0  0
  143.2800   75.2410  218.4840 N   0  0  0  0  0  0  0  0  0  0  0  0
  144.0970   74.4380  217.5030 C   0  0  0  0  0  0  0  0  0  0  0  0
  143.3020   74.0160  216.3260 C   0  0  0  0  0  0  0  0  0  0  0  0
  142.1380   74.8490  215.9460 C   0  0  0  0  0  0  0  0  0  0  0  0
  141.3940   75.4250  217.1110 C   0  0  0  0  0  0  0  0  0  0  0  0
  142.4780   76.2250  217.8870 C   0  0  1  0  0  0  0  0  0  0  0  0
  141.7860   77.2230  218.6940 C   0  0  0  0  0  0  0  0  0  0  0  0
  142.4290   77.8800  219.7250 N   0  0  0  0  0  0  0  0  0  0  0  0
  141.5940   78.7330  220.2970 C   0  0  0  0  0  0  0  0  0  0  0  0
  141.8290   79.6450  221.4260 C   0  0  0  0  0  0  0  0  0  0  0  0
  141.3500   80.9420  221.4080 C   0  0  0  0  0  0  0  0  0  0  0  0
  141.5790   81.7850  222.4770 C   0  0  0  0  0  0  0  0  0  0  0  0
  142.2950   81.3640  223.6010 C   0  0  0  0  0  0  0  0  0  0  0  0
  142.7610   80.0770  223.6010 C   0  0  0  0  0  0  0  0  0  0  0  0
  142.5370   79.2170  222.5310 C   0  0  0  0  0  0  0  0  0  0  0  0
  140.3990   78.6220  219.6250 C   0  0  0  0  0  0  0  0  0  0  0  0
  140.5970   77.7200  218.7050 O   0  0  0  0  0  0  0  0  0  0  0  0
  139.4550   76.3340  222.1210 C   0  0  0  0  0  0  0  0  0  0  0  0
  138.1200   76.2770  221.8070 C   0  0  0  0  0  0  0  0  0  0  0  0
  137.2210   77.2780  222.1160 C   0  0  0  0  0  0  0  0  0  0  0  0
  137.7050   78.3860  222.7750 C   0  0  0  0  0  0  0  0  0  0  0  0
  136.8150   79.3850  223.0850 C   0  0  0  0  0  0  0  0  0  0  0  0
  137.3050   80.5060  223.7510 C   0  0  0  0  0  0  0  0  0  0  0  0
  136.3880   81.4720  224.0380 F   0  0  0  0  0  0  0  0  0  0  0  0
  138.6350   80.6090  224.0860 C   0  0  0  0  0  0  0  0  0  0  0  0
  139.5000   79.5680  223.7500 C   0  0  0  0  0  0  0  0  0  0  0  0
  139.0490   78.4350  223.0870 C   0  0  0  0  0  0  0  0  0  0  0  0
  139.9050   77.4300  222.7660 N   0  0  0  0  0  0  0  0  0  0  0  0
  141.8860   76.5160  221.1190 H   0  0  0  0  0  0  0  0  0  0  0  0
  143.1399   74.1271  221.7308 H   0  0  0  0  0  0  0  0  0  0  0  0
  141.9760   73.5953  220.4443 H   0  0  0  0  0  0  0  0  0  0  0  0
  144.9414   75.0530  217.1582 H   0  0  0  0  0  0  0  0  0  0  0  0
  144.4464   73.5307  218.0175 H   0  0  0  0  0  0  0  0  0  0  0  0
  143.9827   73.9895  215.4624 H   0  0  0  0  0  0  0  0  0  0  0  0
  142.8677   73.0481  216.6169 H   0  0  0  0  0  0  0  0  0  0  0  0
  142.4967   75.6794  215.3201 H   0  0  0  0  0  0  0  0  0  0  0  0
  141.4356   74.1902  215.4145 H   0  0  0  0  0  0  0  0  0  0  0  0
  140.5863   76.0893  216.7700 H   0  0  0  0  0  0  0  0  0  0  0  0
  140.9111   74.6542  217.7295 H   0  0  0  0  0  0  0  0  0  0  0  0
  143.1845   76.8508  217.3220 H   0  0  0  0  0  0  0  0  0  0  0  0
  140.7835   81.3040  220.5373 H   0  0  0  0  0  0  0  0  0  0  0  0
  141.1885   82.8128  222.4433 H   0  0  0  0  0  0  0  0  0  0  0  0
  142.4765   82.0389  224.4504 H   0  0  0  0  0  0  0  0  0  0  0  0
  143.3279   79.7131  224.4706 H   0  0  0  0  0  0  0  0  0  0  0  0
  142.9267   78.1889  222.5656 H   0  0  0  0  0  0  0  0  0  0  0  0
  139.4706   79.1780  219.8226 H   0  0  0  0  0  0  0  0  0  0  0  0
  137.7465   75.3860  221.2810 H   0  0  0  0  0  0  0  0  0  0  0  0
  136.1580   77.1937  221.8460 H   0  0  0  0  0  0  0  0  0  0  0  0
  135.7515   79.3027  222.8165 H   0  0  0  0  0  0  0  0  0  0  0  0
  139.0109   81.4994  224.6112 H   0  0  0  0  0  0  0  0  0  0  0  0
  140.5643   79.6466  224.0165 H   0  0  0  0  0  0  0  0  0  0  0  0
  1  2  2  0
  2  3  1  0
  3  4  1  0
  4  5  1  0
  5  6  2  0
  5  7  1  0
  7  8  1  0
  8  9  1  0
  9 10  1  0
 10 11  1  0
 11 12  1  0
 12 13  1  0
 13 14  2  0
 14 15  1  0
 15 16  1  0
 16 17  2  0
 17 18  1  0
 18 19  2  0
 19 20  1  0
 20 21  2  0
 15 22  2  0
 22 23  1  0
  2 24  1  0
 24 25  2  0
 25 26  1  0
 26 27  2  0
 27 28  1  0
 28 29  2  0
 29 30  1  0
 29 31  1  0
 31 32  2  0
 32 33  1  0
 33 34  2  0
 12  7  1  0
 23 13  1  0
 34 24  1  0
 21 16  1  0
 33 27  1  0
  3 35  1  0
  4 36  1  0
  4 37  1  0
  8 38  1  0
  8 39  1  0
  9 40  1  0
  9 41  1  0
 10 42  1  0
 10 43  1  0
 11 44  1  0
 11 45  1  0
 12 46  1  6
 17 47  1  0
 18 48  1  0
 19 49  1  0
 20 50  1  0
 21 51  1  0
 22 52  1  0
 25 53  1  0
 26 54  1  0
 28 55  1  0
 31 56  1  0
 32 57  1  0
M  END
>  <smiles>  (6) 
O=C(NCC(=O)N1CCCC[C@H]1c1nc(-c2ccccc2)co1)c1ccc2cc(F)ccc2n1

>  <score_type>  (6) 
oracle

>  <origin>  (6) 
autodockgpu

>  <m_score__min__energy>  (6) 
-9.4100000000000001

>  <m_primary>  (6) 
energy

>  <rmsd>  (6) 
6.532989094556832

>  <m_score__min__rmsd>  (6) 
6.532989094556832

>  <meeko>  (6) 
{"free_energy": -6.96, "intermolecular_energy": -8.75, "internal_energy": -4.05, "cluster_size": 9, "cluster_id": 11, "rank_in_cluster": 1}

>  <energy>  (6) 
-9.12

>  <cluster_rmsd>  (6) 
0.44

>  <cluster>  (6) 
1

$$$$

     RDKit          3D

 57 61  0  0  0  0  0  0  0  0999 V2000
  135.0790   68.5290  225.3130 O   0  0  0  0  0  0  0  0  0  0  0  0
  135.4230   69.7060  224.9890 C   0  0  0  0  0  0  0  0  0  0  0  0
  136.5150   69.9460  224.1090 N   0  0  0  0  0  0  0  0  0  0  0  0
  137.2960   68.8420  223.5330 C   0  0  0  0  0  0  0  0  0  0  0  0
  138.5100   68.5910  224.2820 C   0  0  0  0  0  0  0  0  0  0  0  0
  139.0860   67.4480  224.0280 O   0  0  0  0  0  0  0  0  0  0  0  0
  139.1790   69.3610  225.2380 N   0  0  0  0  0  0  0  0  0  0  0  0
  139.2580   68.6910  226.5870 C   0  0  0  0  0  0  0  0  0  0  0  0
  140.6050   68.8080  227.1930 C   0  0  0  0  0  0  0  0  0  0  0  0
  141.4420   69.9620  226.7940 C   0  0  0  0  0  0  0  0  0  0  0  0
  141.2960   70.3550  225.3560 C   0  0  0  0  0  0  0  0  0  0  0  0
  139.7740   70.6310  225.1980 C   0  0  1  0  0  0  0  0  0  0  0  0
  139.6080   71.5020  224.0410 C   0  0  0  0  0  0  0  0  0  0  0  0
  140.6630   72.2430  223.5440 N   0  0  0  0  0  0  0  0  0  0  0  0
  140.2610   72.9430  222.4960 C   0  0  0  0  0  0  0  0  0  0  0  0
  141.0280   73.8690  221.6490 C   0  0  0  0  0  0  0  0  0  0  0  0
  140.7050   75.2120  221.5870 C   0  0  0  0  0  0  0  0  0  0  0  0
  141.4360   76.0670  220.7860 C   0  0  0  0  0  0  0  0  0  0  0  0
  142.5120   75.6120  220.0200 C   0  0  0  0  0  0  0  0  0  0  0  0
  142.8160   74.2790  220.0940 C   0  0  0  0  0  0  0  0  0  0  0  0
  142.0890   73.4070  220.8970 C   0  0  0  0  0  0  0  0  0  0  0  0
  138.9290   72.6490  222.3170 C   0  0  0  0  0  0  0  0  0  0  0  0
  138.6280   71.8000  223.2590 O   0  0  0  0  0  0  0  0  0  0  0  0
  134.6720   70.8480  225.5390 C   0  0  0  0  0  0  0  0  0  0  0  0
  133.6210   70.6330  226.3940 C   0  0  0  0  0  0  0  0  0  0  0  0
  132.8710   71.6500  226.9500 C   0  0  0  0  0  0  0  0  0  0  0  0
  133.2070   72.9430  226.6180 C   0  0  0  0  0  0  0  0  0  0  0  0
  132.4640   73.9580  227.1680 C   0  0  0  0  0  0  0  0  0  0  0  0
  132.8050   75.2660  226.8320 C   0  0  0  0  0  0  0  0  0  0  0  0
  132.0410   76.2410  227.4000 F   0  0  0  0  0  0  0  0  0  0  0  0
  133.8500   75.5320  225.9790 C   0  0  0  0  0  0  0  0  0  0  0  0
  134.5760   74.4660  225.4460 C   0  0  0  0  0  0  0  0  0  0  0  0
  134.2670   73.1490  225.7570 C   0  0  0  0  0  0  0  0  0  0  0  0
  134.9830   72.1230  225.2290 N   0  0  0  0  0  0  0  0  0  0  0  0
  136.7300   70.9460  223.8940 H   0  0  0  0  0  0  0  0  0  0  0  0
  136.6803   67.9305  223.5378 H   0  0  0  0  0  0  0  0  0  0  0  0
  137.5798   69.1235  222.5082 H   0  0  0  0  0  0  0  0  0  0  0  0
  138.5252   69.1612  227.2593 H   0  0  0  0  0  0  0  0  0  0  0  0
  139.0436   67.6214  226.4455 H   0  0  0  0  0  0  0  0  0  0  0  0
  140.4710   68.8610  228.2835 H   0  0  0  0  0  0  0  0  0  0  0  0
  141.1524   67.9276  226.8251 H   0  0  0  0  0  0  0  0  0  0  0  0
  141.1622   70.8238  227.4178 H   0  0  0  0  0  0  0  0  0  0  0  0
  142.4897   69.6579  226.9350 H   0  0  0  0  0  0  0  0  0  0  0  0
  141.8829   71.2589  225.1355 H   0  0  0  0  0  0  0  0  0  0  0  0
  141.6614   69.5811  224.6649 H   0  0  0  0  0  0  0  0  0  0  0  0
  139.2541   71.2031  225.9805 H   0  0  0  0  0  0  0  0  0  0  0  0
  139.8626   75.6008  222.1779 H   0  0  0  0  0  0  0  0  0  0  0  0
  141.1644   77.1323  220.7502 H   0  0  0  0  0  0  0  0  0  0  0  0
  143.0914   76.2967  219.3833 H   0  0  0  0  0  0  0  0  0  0  0  0
  143.6571   73.8877  219.5029 H   0  0  0  0  0  0  0  0  0  0  0  0
  142.3614   72.3419  220.9331 H   0  0  0  0  0  0  0  0  0  0  0  0
  138.2584   73.0471  221.5413 H   0  0  0  0  0  0  0  0  0  0  0  0
  133.3621   69.5951  226.6502 H   0  0  0  0  0  0  0  0  0  0  0  0
  132.0359   71.4351  227.6330 H   0  0  0  0  0  0  0  0  0  0  0  0
  131.6280   73.7455  227.8507 H   0  0  0  0  0  0  0  0  0  0  0  0
  134.1098   76.5692  225.7207 H   0  0  0  0  0  0  0  0  0  0  0  0
  135.4129   74.6744  224.7633 H   0  0  0  0  0  0  0  0  0  0  0  0
  1  2  2  0
  2  3  1  0
  3  4  1  0
  4  5  1  0
  5  6  2  0
  5  7  1  0
  7  8  1  0
  8  9  1  0
  9 10  1  0
 10 11  1  0
 11 12  1  0
 12 13  1  0
 13 14  2  0
 14 15  1  0
 15 16  1  0
 16 17  2  0
 17 18  1  0
 18 19  2  0
 19 20  1  0
 20 21  2  0
 15 22  2  0
 22 23  1  0
  2 24  1  0
 24 25  2  0
 25 26  1  0
 26 27  2  0
 27 28  1  0
 28 29  2  0
 29 30  1  0
 29 31  1  0
 31 32  2  0
 32 33  1  0
 33 34  2  0
 12  7  1  0
 23 13  1  0
 34 24  1  0
 21 16  1  0
 33 27  1  0
  3 35  1  0
  4 36  1  0
  4 37  1  0
  8 38  1  0
  8 39  1  0
  9 40  1  0
  9 41  1  0
 10 42  1  0
 10 43  1  0
 11 44  1  0
 11 45  1  0
 12 46  1  1
 17 47  1  0
 18 48  1  0
 19 49  1  0
 20 50  1  0
 21 51  1  0
 22 52  1  0
 25 53  1  0
 26 54  1  0
 28 55  1  0
 31 56  1  0
 32 57  1  0
M  END
>  <smiles>  (7) 
O=C(NCC(=O)N1CCCC[C@H]1c1nc(-c2ccccc2)co1)c1ccc2cc(F)ccc2n1

>  <score_type>  (7) 
oracle

>  <origin>  (7) 
autodockgpu

>  <m_score__min__energy>  (7) 
-9.4100000000000001

>  <m_primary>  (7) 
energy

>  <rmsd>  (7) 
8.200280227397949

>  <m_score__min__rmsd>  (7) 
8.200280227397949

>  <meeko>  (7) 
{"free_energy": -8.18, "intermolecular_energy": -9.97, "internal_energy": -2.82, "cluster_size": 2, "cluster_id": 6, "rank_in_cluster": 1}

>  <energy>  (7) 
-9.08

>  <cluster_rmsd>  (7) 
0.71

>  <cluster>  (7) 
1

$$$$

     RDKit          3D

 57 61  0  0  0  0  0  0  0  0999 V2000
  139.1650   69.8210  220.6460 O   0  0  0  0  0  0  0  0  0  0  0  0
  139.2380   70.6660  221.5890 C   0  0  0  0  0  0  0  0  0  0  0  0
  139.1890   72.0660  221.3370 N   0  0  0  0  0  0  0  0  0  0  0  0
  139.0510   72.5990  219.9740 C   0  0  0  0  0  0  0  0  0  0  0  0
  140.3370   72.7720  219.3300 C   0  0  0  0  0  0  0  0  0  0  0  0
  140.3210   72.6480  218.0310 O   0  0  0  0  0  0  0  0  0  0  0  0
  141.6030   73.0490  219.8560 N   0  0  0  0  0  0  0  0  0  0  0  0
  142.6640   72.0890  219.3790 C   0  0  0  0  0  0  0  0  0  0  0  0
  143.9140   72.7840  218.9920 C   0  0  0  0  0  0  0  0  0  0  0  0
  144.2060   74.0850  219.6350 C   0  0  0  0  0  0  0  0  0  0  0  0
  142.9940   74.9310  219.8790 C   0  0  0  0  0  0  0  0  0  0  0  0
  142.0760   74.0240  220.7470 C   0  0  1  0  0  0  0  0  0  0  0  0
  141.1550   74.8980  221.4640 C   0  0  0  0  0  0  0  0  0  0  0  0
  141.4510   76.2290  221.6790 N   0  0  0  0  0  0  0  0  0  0  0  0
  140.4610   76.8030  222.3440 C   0  0  0  0  0  0  0  0  0  0  0  0
  140.3310   78.1970  222.7950 C   0  0  0  0  0  0  0  0  0  0  0  0
  141.4480   78.9860  223.0030 C   0  0  0  0  0  0  0  0  0  0  0  0
  141.3080   80.2920  223.4270 C   0  0  0  0  0  0  0  0  0  0  0  0
  140.0500   80.8560  223.6570 C   0  0  0  0  0  0  0  0  0  0  0  0
  138.9570   80.0600  223.4450 C   0  0  0  0  0  0  0  0  0  0  0  0
  139.0840   78.7420  223.0190 C   0  0  0  0  0  0  0  0  0  0  0  0
  139.5160   75.8270  222.5580 C   0  0  0  0  0  0  0  0  0  0  0  0
  139.9990   74.7460  222.0130 O   0  0  0  0  0  0  0  0  0  0  0  0
  139.3760   70.1830  222.9730 C   0  0  0  0  0  0  0  0  0  0  0  0
  138.9350   68.9300  223.3130 C   0  0  0  0  0  0  0  0  0  0  0  0
  139.0300   68.4080  224.5870 C   0  0  0  0  0  0  0  0  0  0  0  0
  139.6000   69.1990  225.5580 C   0  0  0  0  0  0  0  0  0  0  0  0
  139.6970   68.6850  226.8280 C   0  0  0  0  0  0  0  0  0  0  0  0
  140.2740   69.4870  227.8100 C   0  0  0  0  0  0  0  0  0  0  0  0
  140.3500   68.9370  229.0540 F   0  0  0  0  0  0  0  0  0  0  0  0
  140.7320   70.7500  227.5170 C   0  0  0  0  0  0  0  0  0  0  0  0
  140.6120   71.2290  226.2130 C   0  0  0  0  0  0  0  0  0  0  0  0
  140.0420   70.4600  225.2070 C   0  0  0  0  0  0  0  0  0  0  0  0
  139.9320   70.9400  223.9410 N   0  0  0  0  0  0  0  0  0  0  0  0
  139.2550   72.6920  222.1720 H   0  0  0  0  0  0  0  0  0  0  0  0
  138.4458   71.8999  219.3781 H   0  0  0  0  0  0  0  0  0  0  0  0
  138.5670   73.5846  220.0402 H   0  0  0  0  0  0  0  0  0  0  0  0
  142.8893   71.3791  220.1885 H   0  0  0  0  0  0  0  0  0  0  0  0
  142.2759   71.5714  218.4894 H   0  0  0  0  0  0  0  0  0  0  0  0
  144.7506   72.1083  219.2233 H   0  0  0  0  0  0  0  0  0  0  0  0
  143.7798   73.0244  217.9270 H   0  0  0  0  0  0  0  0  0  0  0  0
  144.6926   73.8911  220.6023 H   0  0  0  0  0  0  0  0  0  0  0  0
  144.8499   74.6450  218.9409 H   0  0  0  0  0  0  0  0  0  0  0  0
  143.2608   75.8507  220.4203 H   0  0  0  0  0  0  0  0  0  0  0  0
  142.5096   75.2584  218.9473 H   0  0  0  0  0  0  0  0  0  0  0  0
  142.5216   73.4500  221.5728 H   0  0  0  0  0  0  0  0  0  0  0  0
  142.4518   78.5709  222.8298 H   0  0  0  0  0  0  0  0  0  0  0  0
  142.2080   80.9036  223.5878 H   0  0  0  0  0  0  0  0  0  0  0  0
  139.9428   81.8974  223.9947 H   0  0  0  0  0  0  0  0  0  0  0  0
  137.9520   80.4733  223.6160 H   0  0  0  0  0  0  0  0  0  0  0  0
  138.1838   78.1302  222.8597 H   0  0  0  0  0  0  0  0  0  0  0  0
  138.5539   75.9359  223.0799 H   0  0  0  0  0  0  0  0  0  0  0  0
  138.4810   68.3073  222.5280 H   0  0  0  0  0  0  0  0  0  0  0  0
  138.6635   67.3968  224.8177 H   0  0  0  0  0  0  0  0  0  0  0  0
  139.3314   67.6742  227.0618 H   0  0  0  0  0  0  0  0  0  0  0  0
  141.1868   71.3739  228.3005 H   0  0  0  0  0  0  0  0  0  0  0  0
  140.9772   72.2391  225.9758 H   0  0  0  0  0  0  0  0  0  0  0  0
  1  2  2  0
  2  3  1  0
  3  4  1  0
  4  5  1  0
  5  6  2  0
  5  7  1  0
  7  8  1  0
  8  9  1  0
  9 10  1  0
 10 11  1  0
 11 12  1  0
 12 13  1  0
 13 14  2  0
 14 15  1  0
 15 16  1  0
 16 17  2  0
 17 18  1  0
 18 19  2  0
 19 20  1  0
 20 21  2  0
 15 22  2  0
 22 23  1  0
  2 24  1  0
 24 25  2  0
 25 26  1  0
 26 27  2  0
 27 28  1  0
 28 29  2  0
 29 30  1  0
 29 31  1  0
 31 32  2  0
 32 33  1  0
 33 34  2  0
 12  7  1  0
 23 13  1  0
 34 24  1  0
 21 16  1  0
 33 27  1  0
  3 35  1  0
  4 36  1  0
  4 37  1  0
  8 38  1  0
  8 39  1  0
  9 40  1  0
  9 41  1  0
 10 42  1  0
 10 43  1  0
 11 44  1  0
 11 45  1  0
 12 46  1  1
 17 47  1  0
 18 48  1  0
 19 49  1  0
 20 50  1  0
 21 51  1  0
 22 52  1  0
 25 53  1  0
 26 54  1  0
 28 55  1  0
 31 56  1  0
 32 57  1  0
M  END
>  <smiles>  (8) 
O=C(NCC(=O)N1CCCC[C@H]1c1nc(-c2ccccc2)co1)c1ccc2cc(F)ccc2n1

>  <score_type>  (8) 
oracle

>  <origin>  (8) 
autodockgpu

>  <m_score__min__energy>  (8) 
-9.4100000000000001

>  <m_primary>  (8) 
energy

>  <rmsd>  (8) 
3.174561431578172

>  <m_score__min__rmsd>  (8) 
3.174561431578172

>  <meeko>  (8) 
{"free_energy": -8.19, "intermolecular_energy": -9.98, "internal_energy": -2.71, "cluster_size": 8, "cluster_id": 2, "rank_in_cluster": 8}

>  <energy>  (8) 
-8.96

>  <cluster_rmsd>  (8) 
1.1

>  <cluster>  (8) 
1

$$$$

     RDKit          3D

 57 61  0  0  0  0  0  0  0  0999 V2000
  141.3350   72.4640  221.4830 O   0  0  0  0  0  0  0  0  0  0  0  0
  140.4390   72.6550  222.3610 C   0  0  0  0  0  0  0  0  0  0  0  0
  139.6010   73.8050  222.3290 N   0  0  0  0  0  0  0  0  0  0  0  0
  139.7320   74.8240  221.2780 C   0  0  0  0  0  0  0  0  0  0  0  0
  139.3080   76.1310  221.7380 C   0  0  0  0  0  0  0  0  0  0  0  0
  138.3510   76.1170  222.6240 O   0  0  0  0  0  0  0  0  0  0  0  0
  139.7450   77.4150  221.3960 N   0  0  0  0  0  0  0  0  0  0  0  0
  138.8630   78.5060  221.9510 C   0  0  0  0  0  0  0  0  0  0  0  0
  139.6490   79.6180  222.5360 C   0  0  0  0  0  0  0  0  0  0  0  0
  141.0140   79.8460  222.0120 C   0  0  0  0  0  0  0  0  0  0  0  0
  141.7520   78.5900  221.6610 C   0  0  0  0  0  0  0  0  0  0  0  0
  140.8220   77.8880  220.6320 C   0  0  1  0  0  0  0  0  0  0  0  0
  141.6490   76.9730  219.8530 C   0  0  0  0  0  0  0  0  0  0  0  0
  142.4720   76.0500  220.4680 N   0  0  0  0  0  0  0  0  0  0  0  0
  143.1090   75.3410  219.5510 C   0  0  0  0  0  0  0  0  0  0  0  0
  144.0820   74.2530  219.7290 C   0  0  0  0  0  0  0  0  0  0  0  0
  145.0880   74.3430  220.6730 C   0  0  0  0  0  0  0  0  0  0  0  0
  145.9930   73.3120  220.8280 C   0  0  0  0  0  0  0  0  0  0  0  0
  145.9250   72.1560  220.0460 C   0  0  0  0  0  0  0  0  0  0  0  0
  144.9220   72.0840  219.1170 C   0  0  0  0  0  0  0  0  0  0  0  0
  144.0040   73.1160  218.9510 C   0  0  0  0  0  0  0  0  0  0  0  0
  142.6910   75.8160  218.3290 C   0  0  0  0  0  0  0  0  0  0  0  0
  141.8400   76.7670  218.5950 O   0  0  0  0  0  0  0  0  0  0  0  0
  140.2670   71.6630  223.4360 C   0  0  0  0  0  0  0  0  0  0  0  0
  139.6560   70.4630  223.1730 C   0  0  0  0  0  0  0  0  0  0  0  0
  139.4580   69.4840  224.1270 C   0  0  0  0  0  0  0  0  0  0  0  0
  139.9020   69.7410  225.4040 C   0  0  0  0  0  0  0  0  0  0  0  0
  139.7080   68.7710  226.3560 C   0  0  0  0  0  0  0  0  0  0  0  0
  140.1580   69.0320  227.6480 C   0  0  0  0  0  0  0  0  0  0  0  0
  139.9440   68.0420  228.5600 F   0  0  0  0  0  0  0  0  0  0  0  0
  140.7760   70.2200  227.9590 C   0  0  0  0  0  0  0  0  0  0  0  0
  140.9510   71.1750  226.9580 C   0  0  0  0  0  0  0  0  0  0  0  0
  140.5160   70.9520  225.6580 C   0  0  0  0  0  0  0  0  0  0  0  0
  140.6940   71.8920  224.6940 N   0  0  0  0  0  0  0  0  0  0  0  0
  138.8890   73.8840  223.0900 H   0  0  0  0  0  0  0  0  0  0  0  0
  140.7855   74.8808  220.9669 H   0  0  0  0  0  0  0  0  0  0  0  0
  139.0858   74.5320  220.4370 H   0  0  0  0  0  0  0  0  0  0  0  0
  138.2374   78.9036  221.1383 H   0  0  0  0  0  0  0  0  0  0  0  0
  138.2486   78.0689  222.7519 H   0  0  0  0  0  0  0  0  0  0  0  0
  139.0770   80.5440  222.3765 H   0  0  0  0  0  0  0  0  0  0  0  0
  139.7993   79.3293  223.5867 H   0  0  0  0  0  0  0  0  0  0  0  0
  140.9375   80.4662  221.1067 H   0  0  0  0  0  0  0  0  0  0  0  0
  141.5846   80.3354  222.8151 H   0  0  0  0  0  0  0  0  0  0  0  0
  142.7288   78.8221  221.2116 H   0  0  0  0  0  0  0  0  0  0  0  0
  141.9649   77.9625  222.5390 H   0  0  0  0  0  0  0  0  0  0  0  0
  140.3543   78.4917  219.8403 H   0  0  0  0  0  0  0  0  0  0  0  0
  145.1678   75.2406  221.3038 H   0  0  0  0  0  0  0  0  0  0  0  0
  146.7861   73.4027  221.5848 H   0  0  0  0  0  0  0  0  0  0  0  0
  146.6483   71.3368  220.1718 H   0  0  0  0  0  0  0  0  0  0  0  0
  144.8399   71.1870  218.4856 H   0  0  0  0  0  0  0  0  0  0  0  0
  143.2106   73.0250  218.1945 H   0  0  0  0  0  0  0  0  0  0  0  0
  143.0085   75.4664  217.3355 H   0  0  0  0  0  0  0  0  0  0  0  0
  139.3054   70.2704  222.1483 H   0  0  0  0  0  0  0  0  0  0  0  0
  138.9637   68.5341  223.8754 H   0  0  0  0  0  0  0  0  0  0  0  0
  139.2140   67.8202  226.1069 H   0  0  0  0  0  0  0  0  0  0  0  0
  141.1275   70.4145  228.9830 H   0  0  0  0  0  0  0  0  0  0  0  0
  141.4449   72.1267  227.2036 H   0  0  0  0  0  0  0  0  0  0  0  0
  1  2  2  0
  2  3  1  0
  3  4  1  0
  4  5  1  0
  5  6  2  0
  5  7  1  0
  7  8  1  0
  8  9  1  0
  9 10  1  0
 10 11  1  0
 11 12  1  0
 12 13  1  0
 13 14  2  0
 14 15  1  0
 15 16  1  0
 16 17  2  0
 17 18  1  0
 18 19  2  0
 19 20  1  0
 20 21  2  0
 15 22  2  0
 22 23  1  0
  2 24  1  0
 24 25  2  0
 25 26  1  0
 26 27  2  0
 27 28  1  0
 28 29  2  0
 29 30  1  0
 29 31  1  0
 31 32  2  0
 32 33  1  0
 33 34  2  0
 12  7  1  0
 23 13  1  0
 34 24  1  0
 21 16  1  0
 33 27  1  0
  3 35  1  0
  4 36  1  0
  4 37  1  0
  8 38  1  0
  8 39  1  0
  9 40  1  0
  9 41  1  0
 10 42  1  0
 10 43  1  0
 11 44  1  0
 11 45  1  0
 12 46  1  6
 17 47  1  0
 18 48  1  0
 19 49  1  0
 20 50  1  0
 21 51  1  0
 22 52  1  0
 25 53  1  0
 26 54  1  0
 28 55  1  0
 31 56  1  0
 32 57  1  0
M  END
>  <smiles>  (9) 
O=C(NCC(=O)N1CCCC[C@H]1c1nc(-c2ccccc2)co1)c1ccc2cc(F)ccc2n1

>  <score_type>  (9) 
oracle

>  <origin>  (9) 
autodockgpu

>  <m_score__min__energy>  (9) 
-9.4100000000000001

>  <m_primary>  (9) 
energy

>  <rmsd>  (9) 
5.470847866451492

>  <m_score__min__rmsd>  (9) 
5.470847866451492

>  <meeko>  (9) 
{"free_energy": -9.26, "intermolecular_energy": -11.05, "internal_energy": -2.34, "cluster_size": 15, "cluster_id": 1, "rank_in_cluster": 3}

>  <energy>  (9) 
-8.93

>  <cluster_rmsd>  (9) 
1.03

>  <cluster>  (9) 
1

$$$$

     RDKit          3D

 57 61  0  0  0  0  0  0  0  0999 V2000
  136.3140   77.3110  221.5890 O   0  0  0  0  0  0  0  0  0  0  0  0
  137.3210   77.0130  222.3000 C   0  0  0  0  0  0  0  0  0  0  0  0
  137.5630   75.6750  222.7230 N   0  0  0  0  0  0  0  0  0  0  0  0
  136.6580   74.5770  222.3550 C   0  0  0  0  0  0  0  0  0  0  0  0
  137.2850   73.6440  221.4410 C   0  0  0  0  0  0  0  0  0  0  0  0
  136.5410   72.6290  221.0970 O   0  0  0  0  0  0  0  0  0  0  0  0
  138.5560   73.6380  220.8570 N   0  0  0  0  0  0  0  0  0  0  0  0
  138.6530   74.5290  219.6440 C   0  0  0  0  0  0  0  0  0  0  0  0
  139.8930   75.3410  219.6440 C   0  0  0  0  0  0  0  0  0  0  0  0
  141.0650   74.8070  220.3740 C   0  0  0  0  0  0  0  0  0  0  0  0
  140.7200   74.0770  221.6350 C   0  0  0  0  0  0  0  0  0  0  0  0
  139.7460   72.9610  221.1630 C   0  0  1  0  0  0  0  0  0  0  0  0
  139.7730   71.9070  222.1700 C   0  0  0  0  0  0  0  0  0  0  0  0
  140.1760   72.1640  223.4660 N   0  0  0  0  0  0  0  0  0  0  0  0
  140.1080   71.0530  224.1820 C   0  0  0  0  0  0  0  0  0  0  0  0
  140.4350   70.8410  225.5990 C   0  0  0  0  0  0  0  0  0  0  0  0
  140.3800   69.5800  226.1640 C   0  0  0  0  0  0  0  0  0  0  0  0
  140.6900   69.3990  227.4970 C   0  0  0  0  0  0  0  0  0  0  0  0
  141.0660   70.4700  228.3130 C   0  0  0  0  0  0  0  0  0  0  0  0
  141.1150   71.7100  227.7370 C   0  0  0  0  0  0  0  0  0  0  0  0
  140.8050   71.9070  226.3950 C   0  0  0  0  0  0  0  0  0  0  0  0
  139.6550   70.0680  223.3340 C   0  0  0  0  0  0  0  0  0  0  0  0
  139.4840   70.6500  222.1810 O   0  0  0  0  0  0  0  0  0  0  0  0
  138.2580   78.0770  222.6960 C   0  0  0  0  0  0  0  0  0  0  0  0
  137.7830   79.3100  223.0650 C   0  0  0  0  0  0  0  0  0  0  0  0
  138.5970   80.3580  223.4480 C   0  0  0  0  0  0  0  0  0  0  0  0
  139.9560   80.1370  223.4550 C   0  0  0  0  0  0  0  0  0  0  0  0
  140.7710   81.1750  223.8340 C   0  0  0  0  0  0  0  0  0  0  0  0
  142.1460   80.9520  223.8410 C   0  0  0  0  0  0  0  0  0  0  0  0
  142.9150   82.0080  224.2240 F   0  0  0  0  0  0  0  0  0  0  0  0
  142.6690   79.7320  223.4790 C   0  0  0  0  0  0  0  0  0  0  0  0
  141.8010   78.7080  223.1010 C   0  0  0  0  0  0  0  0  0  0  0  0
  140.4250   78.8930  223.0820 C   0  0  0  0  0  0  0  0  0  0  0  0
  139.5930   77.8860  222.7110 N   0  0  0  0  0  0  0  0  0  0  0  0
  138.4160   75.5180  223.3060 H   0  0  0  0  0  0  0  0  0  0  0  0
  136.3636   74.0377  223.2674 H   0  0  0  0  0  0  0  0  0  0  0  0
  135.7819   75.0114  221.8513 H   0  0  0  0  0  0  0  0  0  0  0  0
  138.6408   73.9009  218.7411 H   0  0  0  0  0  0  0  0  0  0  0  0
  137.7969   75.2195  219.6626 H   0  0  0  0  0  0  0  0  0  0  0  0
  140.1946   75.4802  218.5953 H   0  0  0  0  0  0  0  0  0  0  0  0
  139.6236   76.2601  220.1849 H   0  0  0  0  0  0  0  0  0  0  0  0
  141.5995   74.1131  219.7085 H   0  0  0  0  0  0  0  0  0  0  0  0
  141.6776   75.6726  220.6664 H   0  0  0  0  0  0  0  0  0  0  0  0
  141.6199   73.6429  222.0952 H   0  0  0  0  0  0  0  0  0  0  0  0
  140.2770   74.7331  222.3987 H   0  0  0  0  0  0  0  0  0  0  0  0
  139.9854   72.3984  220.2486 H   0  0  0  0  0  0  0  0  0  0  0  0
  140.0877   68.7167  225.5481 H   0  0  0  0  0  0  0  0  0  0  0  0
  140.6400   68.3879  227.9273 H   0  0  0  0  0  0  0  0  0  0  0  0
  141.3124   70.3218  229.3748 H   0  0  0  0  0  0  0  0  0  0  0  0
  141.4073   72.5744  228.3513 H   0  0  0  0  0  0  0  0  0  0  0  0
  140.8550   72.9184  225.9654 H   0  0  0  0  0  0  0  0  0  0  0  0
  139.4750   69.0107  223.5786 H   0  0  0  0  0  0  0  0  0  0  0  0
  136.6952   79.4728  223.0553 H   0  0  0  0  0  0  0  0  0  0  0  0
  138.1756   81.3323  223.7365 H   0  0  0  0  0  0  0  0  0  0  0  0
  140.3520   82.1503  224.1225 H   0  0  0  0  0  0  0  0  0  0  0  0
  143.7565   79.5666  223.4876 H   0  0  0  0  0  0  0  0  0  0  0  0
  142.2160   77.7313  222.8112 H   0  0  0  0  0  0  0  0  0  0  0  0
  1  2  2  0
  2  3  1  0
  3  4  1  0
  4  5  1  0
  5  6  2  0
  5  7  1  0
  7  8  1  0
  8  9  1  0
  9 10  1  0
 10 11  1  0
 11 12  1  0
 12 13  1  0
 13 14  2  0
 14 15  1  0
 15 16  1  0
 16 17  2  0
 17 18  1  0
 18 19  2  0
 19 20  1  0
 20 21  2  0
 15 22  2  0
 22 23  1  0
  2 24  1  0
 24 25  2  0
 25 26  1  0
 26 27  2  0
 27 28  1  0
 28 29  2  0
 29 30  1  0
 29 31  1  0
 31 32  2  0
 32 33  1  0
 33 34  2  0
 12  7  1  0
 23 13  1  0
 34 24  1  0
 21 16  1  0
 33 27  1  0
  3 35  1  0
  4 36  1  0
  4 37  1  0
  8 38  1  0
  8 39  1  0
  9 40  1  0
  9 41  1  0
 10 42  1  0
 10 43  1  0
 11 44  1  0
 11 45  1  0
 12 46  1  6
 17 47  1  0
 18 48  1  0
 19 49  1  0
 20 50  1  0
 21 51  1  0
 22 52  1  0
 25 53  1  0
 26 54  1  0
 28 55  1  0
 31 56  1  0
 32 57  1  0
M  END
>  <smiles>  (10) 
O=C(NCC(=O)N1CCCC[C@H]1c1nc(-c2ccccc2)co1)c1ccc2cc(F)ccc2n1

>  <score_type>  (10) 
oracle

>  <origin>  (10) 
autodockgpu

>  <m_score__min__energy>  (10) 
-9.4100000000000001

>  <m_primary>  (10) 
energy

>  <rmsd>  (10) 
9.027299793633585

>  <m_score__min__rmsd>  (10) 
9.027299793633585

>  <meeko>  (10) 
{"free_energy": -8.74, "intermolecular_energy": -10.53, "internal_energy": -2.27, "cluster_size": 3, "cluster_id": 4, "rank_in_cluster": 1}

>  <energy>  (10) 
-8.91

>  <cluster_rmsd>  (10) 
0.71

>  <cluster>  (10) 
1

$$$$

     RDKit          3D

 57 61  0  0  0  0  0  0  0  0999 V2000
  140.2070   72.5980  220.8320 O   0  0  0  0  0  0  0  0  0  0  0  0
  139.8990   72.9390  222.0150 C   0  0  0  0  0  0  0  0  0  0  0  0
  139.5290   74.2760  222.3300 N   0  0  0  0  0  0  0  0  0  0  0  0
  139.4830   75.3260  221.3010 C   0  0  0  0  0  0  0  0  0  0  0  0
  139.1000   76.6090  221.8550 C   0  0  0  0  0  0  0  0  0  0  0  0
  138.0020   76.5970  222.5580 O   0  0  0  0  0  0  0  0  0  0  0  0
  139.7030   77.8670  221.7670 N   0  0  0  0  0  0  0  0  0  0  0  0
  138.8810   78.9610  222.4010 C   0  0  0  0  0  0  0  0  0  0  0  0
  139.7050   79.8730  223.2300 C   0  0  0  0  0  0  0  0  0  0  0  0
  141.1380   80.0110  222.8840 C   0  0  0  0  0  0  0  0  0  0  0  0
  141.7770   78.7410  222.4100 C   0  0  0  0  0  0  0  0  0  0  0  0
  140.9040   78.3160  221.1960 C   0  0  1  0  0  0  0  0  0  0  0  0
  141.7150   77.4350  220.3640 C   0  0  0  0  0  0  0  0  0  0  0  0
  142.1640   76.2160  220.8360 N   0  0  0  0  0  0  0  0  0  0  0  0
  142.8700   75.6090  219.8970 C   0  0  0  0  0  0  0  0  0  0  0  0
  143.5410   74.3020  219.9410 C   0  0  0  0  0  0  0  0  0  0  0  0
  142.8880   73.1500  219.5410 C   0  0  0  0  0  0  0  0  0  0  0  0
  143.5330   71.9310  219.5890 C   0  0  0  0  0  0  0  0  0  0  0  0
  144.8520   71.8170  220.0370 C   0  0  0  0  0  0  0  0  0  0  0  0
  145.4830   72.9680  220.4280 C   0  0  0  0  0  0  0  0  0  0  0  0
  144.8440   74.2030  220.3850 C   0  0  0  0  0  0  0  0  0  0  0  0
  142.8760   76.4480  218.8070 C   0  0  0  0  0  0  0  0  0  0  0  0
  142.1800   77.4910  219.1630 O   0  0  0  0  0  0  0  0  0  0  0  0
  139.9290   71.9250  223.0820 C   0  0  0  0  0  0  0  0  0  0  0  0
  139.5040   70.6460  222.8290 C   0  0  0  0  0  0  0  0  0  0  0  0
  139.5020   69.6420  223.7760 C   0  0  0  0  0  0  0  0  0  0  0  0
  139.9520   69.9570  225.0380 C   0  0  0  0  0  0  0  0  0  0  0  0
  139.9520   68.9620  225.9840 C   0  0  0  0  0  0  0  0  0  0  0  0
  140.4070   69.2820  227.2610 C   0  0  0  0  0  0  0  0  0  0  0  0
  140.3890   68.2650  228.1680 F   0  0  0  0  0  0  0  0  0  0  0  0
  140.8430   70.5500  227.5640 C   0  0  0  0  0  0  0  0  0  0  0  0
  140.8250   71.5280  226.5680 C   0  0  0  0  0  0  0  0  0  0  0  0
  140.3780   71.2470  225.2840 C   0  0  0  0  0  0  0  0  0  0  0  0
  140.3660   72.2100  224.3260 N   0  0  0  0  0  0  0  0  0  0  0  0
  139.2900   74.4710  223.3290 H   0  0  0  0  0  0  0  0  0  0  0  0
  140.4789   75.4193  220.8433 H   0  0  0  0  0  0  0  0  0  0  0  0
  138.7286   75.0384  220.5539 H   0  0  0  0  0  0  0  0  0  0  0  0
  138.3966   79.5462  221.6054 H   0  0  0  0  0  0  0  0  0  0  0  0
  138.1378   78.4864  223.0586 H   0  0  0  0  0  0  0  0  0  0  0  0
  139.2535   80.8740  223.1653 H   0  0  0  0  0  0  0  0  0  0  0  0
  139.7032   79.4170  224.2310 H   0  0  0  0  0  0  0  0  0  0  0  0
  141.2301   80.7629  222.0864 H   0  0  0  0  0  0  0  0  0  0  0  0
  141.6606   80.3046  223.8063 H   0  0  0  0  0  0  0  0  0  0  0  0
  142.8179   78.9178  222.1012 H   0  0  0  0  0  0  0  0  0  0  0  0
  141.8208   77.9694  223.1928 H   0  0  0  0  0  0  0  0  0  0  0  0
  140.5954   79.0821  220.4694 H   0  0  0  0  0  0  0  0  0  0  0  0
  141.8494   73.2059  219.1829 H   0  0  0  0  0  0  0  0  0  0  0  0
  142.9958   71.0268  219.2668 H   0  0  0  0  0  0  0  0  0  0  0  0
  145.3622   70.8432  220.0740 H   0  0  0  0  0  0  0  0  0  0  0  0
  146.5220   72.9145  220.7853 H   0  0  0  0  0  0  0  0  0  0  0  0
  145.3812   75.1072  220.7072 H   0  0  0  0  0  0  0  0  0  0  0  0
  143.3659   76.2749  217.8374 H   0  0  0  0  0  0  0  0  0  0  0  0
  139.1454   70.4074  221.8168 H   0  0  0  0  0  0  0  0  0  0  0  0
  139.1537   68.6277  223.5313 H   0  0  0  0  0  0  0  0  0  0  0  0
  139.6046   67.9468  225.7417 H   0  0  0  0  0  0  0  0  0  0  0  0
  141.2007   70.7904  228.5761 H   0  0  0  0  0  0  0  0  0  0  0  0
  141.1728   72.5441  226.8059 H   0  0  0  0  0  0  0  0  0  0  0  0
  1  2  2  0
  2  3  1  0
  3  4  1  0
  4  5  1  0
  5  6  2  0
  5  7  1  0
  7  8  1  0
  8  9  1  0
  9 10  1  0
 10 11  1  0
 11 12  1  0
 12 13  1  0
 13 14  2  0
 14 15  1  0
 15 16  1  0
 16 17  2  0
 17 18  1  0
 18 19  2  0
 19 20  1  0
 20 21  2  0
 15 22  2  0
 22 23  1  0
  2 24  1  0
 24 25  2  0
 25 26  1  0
 26 27  2  0
 27 28  1  0
 28 29  2  0
 29 30  1  0
 29 31  1  0
 31 32  2  0
 32 33  1  0
 33 34  2  0
 12  7  1  0
 23 13  1  0
 34 24  1  0
 21 16  1  0
 33 27  1  0
  3 35  1  0
  4 36  1  0
  4 37  1  0
  8 38  1  0
  8 39  1  0
  9 40  1  0
  9 41  1  0
 10 42  1  0
 10 43  1  0
 11 44  1  0
 11 45  1  0
 12 46  1  6
 17 47  1  0
 18 48  1  0
 19 49  1  0
 20 50  1  0
 21 51  1  0
 22 52  1  0
 25 53  1  0
 26 54  1  0
 28 55  1  0
 31 56  1  0
 32 57  1  0
M  END
>  <smiles>  (11) 
O=C(NCC(=O)N1CCCC[C@H]1c1nc(-c2ccccc2)co1)c1ccc2cc(F)ccc2n1

>  <score_type>  (11) 
oracle

>  <origin>  (11) 
autodockgpu

>  <m_score__min__energy>  (11) 
-9.4100000000000001

>  <m_primary>  (11) 
energy

>  <rmsd>  (11) 
5.4462094241389085

>  <m_score__min__rmsd>  (11) 
5.4462094241389085

>  <meeko>  (11) 
{"free_energy": -8.83, "intermolecular_energy": -10.62, "internal_energy": -2.28, "cluster_size": 15, "cluster_id": 1, "rank_in_cluster": 11}

>  <energy>  (11) 
-8.83

>  <cluster_rmsd>  (11) 
0.79

>  <cluster>  (11) 
1

$$$$

     RDKit          3D

 57 61  0  0  0  0  0  0  0  0999 V2000
  141.4120   72.4880  221.5250 O   0  0  0  0  0  0  0  0  0  0  0  0
  140.5010   72.6840  222.3860 C   0  0  0  0  0  0  0  0  0  0  0  0
  139.6670   73.8360  222.3360 N   0  0  0  0  0  0  0  0  0  0  0  0
  139.8200   74.8520  221.2850 C   0  0  0  0  0  0  0  0  0  0  0  0
  139.3380   76.1500  221.7150 C   0  0  0  0  0  0  0  0  0  0  0  0
  138.3270   76.1140  222.5380 O   0  0  0  0  0  0  0  0  0  0  0  0
  139.7670   77.4430  221.4000 N   0  0  0  0  0  0  0  0  0  0  0  0
  138.8680   78.5160  221.9610 C   0  0  0  0  0  0  0  0  0  0  0  0
  139.6360   79.6250  222.5740 C   0  0  0  0  0  0  0  0  0  0  0  0
  141.0060   79.8740  222.0720 C   0  0  0  0  0  0  0  0  0  0  0  0
  141.7600   78.6310  221.7100 C   0  0  0  0  0  0  0  0  0  0  0  0
  140.8500   77.9380  220.6570 C   0  0  1  0  0  0  0  0  0  0  0  0
  141.6950   77.0440  219.8740 C   0  0  0  0  0  0  0  0  0  0  0  0
  142.4980   76.1000  220.4840 N   0  0  0  0  0  0  0  0  0  0  0  0
  143.1590   75.4170  219.5630 C   0  0  0  0  0  0  0  0  0  0  0  0
  144.1230   74.3210  219.7350 C   0  0  0  0  0  0  0  0  0  0  0  0
  144.1360   73.2400  218.8720 C   0  0  0  0  0  0  0  0  0  0  0  0
  145.0490   72.2190  219.0490 C   0  0  0  0  0  0  0  0  0  0  0  0
  145.9800   72.2410  220.0910 C   0  0  0  0  0  0  0  0  0  0  0  0
  145.9510   73.3190  220.9350 C   0  0  0  0  0  0  0  0  0  0  0  0
  145.0370   74.3540  220.7690 C   0  0  0  0  0  0  0  0  0  0  0  0
  142.7740   75.9280  218.3450 C   0  0  0  0  0  0  0  0  0  0  0  0
  141.9180   76.8730  218.6160 O   0  0  0  0  0  0  0  0  0  0  0  0
  140.3070   71.6950  223.4600 C   0  0  0  0  0  0  0  0  0  0  0  0
  139.6710   70.5080  223.1960 C   0  0  0  0  0  0  0  0  0  0  0  0
  139.4520   69.5330  224.1480 C   0  0  0  0  0  0  0  0  0  0  0  0
  139.9000   69.7800  225.4260 C   0  0  0  0  0  0  0  0  0  0  0  0
  139.6840   68.8140  226.3780 C   0  0  0  0  0  0  0  0  0  0  0  0
  140.1380   69.0640  227.6700 C   0  0  0  0  0  0  0  0  0  0  0  0
  139.9020   68.0790  228.5810 F   0  0  0  0  0  0  0  0  0  0  0  0
  140.7810   70.2390  227.9830 C   0  0  0  0  0  0  0  0  0  0  0  0
  140.9760   71.1900  226.9830 C   0  0  0  0  0  0  0  0  0  0  0  0
  140.5390   70.9770  225.6820 C   0  0  0  0  0  0  0  0  0  0  0  0
  140.7370   71.9140  224.7190 N   0  0  0  0  0  0  0  0  0  0  0  0
  138.9410   73.9180  223.0840 H   0  0  0  0  0  0  0  0  0  0  0  0
  140.8853   74.9365  221.0242 H   0  0  0  0  0  0  0  0  0  0  0  0
  139.2234   74.5370  220.4162 H   0  0  0  0  0  0  0  0  0  0  0  0
  138.2492   78.9212  221.1468 H   0  0  0  0  0  0  0  0  0  0  0  0
  138.2473   78.0602  222.7465 H   0  0  0  0  0  0  0  0  0  0  0  0
  139.0577   80.5483  222.4219 H   0  0  0  0  0  0  0  0  0  0  0  0
  139.7753   79.3203  223.6218 H   0  0  0  0  0  0  0  0  0  0  0  0
  140.9357   80.5086  221.1763 H   0  0  0  0  0  0  0  0  0  0  0  0
  141.5614   80.3549  222.8907 H   0  0  0  0  0  0  0  0  0  0  0  0
  142.7405   78.8794  221.2776 H   0  0  0  0  0  0  0  0  0  0  0  0
  141.9671   77.9907  222.5802 H   0  0  0  0  0  0  0  0  0  0  0  0
  140.3873   78.5500  219.8688 H   0  0  0  0  0  0  0  0  0  0  0  0
  143.4163   73.1934  218.0414 H   0  0  0  0  0  0  0  0  0  0  0  0
  145.0432   71.3675  218.3526 H   0  0  0  0  0  0  0  0  0  0  0  0
  146.7061   71.4261  220.2276 H   0  0  0  0  0  0  0  0  0  0  0  0
  146.6697   73.3676  221.7663 H   0  0  0  0  0  0  0  0  0  0  0  0
  145.0424   75.2047  221.4664 H   0  0  0  0  0  0  0  0  0  0  0  0
  143.1168   75.6064  217.3505 H   0  0  0  0  0  0  0  0  0  0  0  0
  139.3169   70.3238  222.1710 H   0  0  0  0  0  0  0  0  0  0  0  0
  138.9386   68.5936  223.8950 H   0  0  0  0  0  0  0  0  0  0  0  0
  139.1696   67.8744  226.1280 H   0  0  0  0  0  0  0  0  0  0  0  0
  141.1360   70.4253  229.0073 H   0  0  0  0  0  0  0  0  0  0  0  0
  141.4882   72.1316  227.2300 H   0  0  0  0  0  0  0  0  0  0  0  0
  1  2  2  0
  2  3  1  0
  3  4  1  0
  4  5  1  0
  5  6  2  0
  5  7  1  0
  7  8  1  0
  8  9  1  0
  9 10  1  0
 10 11  1  0
 11 12  1  0
 12 13  1  0
 13 14  2  0
 14 15  1  0
 15 16  1  0
 16 17  2  0
 17 18  1  0
 18 19  2  0
 19 20  1  0
 20 21  2  0
 15 22  2  0
 22 23  1  0
  2 24  1  0
 24 25  2  0
 25 26  1  0
 26 27  2  0
 27 28  1  0
 28 29  2  0
 29 30  1  0
 29 31  1  0
 31 32  2  0
 32 33  1  0
 33 34  2  0
 12  7  1  0
 23 13  1  0
 34 24  1  0
 21 16  1  0
 33 27  1  0
  3 35  1  0
  4 36  1  0
  4 37  1  0
  8 38  1  0
  8 39  1  0
  9 40  1  0
  9 41  1  0
 10 42  1  0
 10 43  1  0
 11 44  1  0
 11 45  1  0
 12 46  1  6
 17 47  1  0
 18 48  1  0
 19 49  1  0
 20 50  1  0
 21 51  1  0
 22 52  1  0
 25 53  1  0
 26 54  1  0
 28 55  1  0
 31 56  1  0
 32 57  1  0
M  END
>  <smiles>  (12) 
O=C(NCC(=O)N1CCCC[C@H]1c1nc(-c2ccccc2)co1)c1ccc2cc(F)ccc2n1

>  <score_type>  (12) 
oracle

>  <origin>  (12) 
autodockgpu

>  <m_score__min__energy>  (12) 
-9.4100000000000001

>  <m_primary>  (12) 
energy

>  <rmsd>  (12) 
5.452707475623784

>  <m_score__min__rmsd>  (12) 
5.452707475623784

>  <meeko>  (12) 
{"free_energy": -9.27, "intermolecular_energy": -11.06, "internal_energy": -2.32, "cluster_size": 15, "cluster_id": 1, "rank_in_cluster": 2}

>  <energy>  (12) 
-8.6

>  <cluster_rmsd>  (12) 
1.08

>  <cluster>  (12) 
1

$$$$

     RDKit          3D

 57 61  0  0  0  0  0  0  0  0999 V2000
  141.2010   72.0990  221.4690 O   0  0  0  0  0  0  0  0  0  0  0  0
  140.3770   72.4010  222.3850 C   0  0  0  0  0  0  0  0  0  0  0  0
  139.5610   73.5630  222.2960 N   0  0  0  0  0  0  0  0  0  0  0  0
  139.6330   74.4680  221.1400 C   0  0  0  0  0  0  0  0  0  0  0  0
  138.8960   75.6950  221.3680 C   0  0  0  0  0  0  0  0  0  0  0  0
  137.6020   75.5510  221.4440 O   0  0  0  0  0  0  0  0  0  0  0  0
  139.3290   77.0160  221.5200 N   0  0  0  0  0  0  0  0  0  0  0  0
  138.2830   77.9120  222.1360 C   0  0  0  0  0  0  0  0  0  0  0  0
  138.8490   78.7950  223.1830 C   0  0  0  0  0  0  0  0  0  0  0  0
  140.2850   79.1450  223.0860 C   0  0  0  0  0  0  0  0  0  0  0  0
  141.1510   78.0330  222.5790 C   0  0  0  0  0  0  0  0  0  0  0  0
  140.5260   77.6730  221.2020 C   0  0  1  0  0  0  0  0  0  0  0  0
  141.5600   77.0110  220.4150 C   0  0  0  0  0  0  0  0  0  0  0  0
  142.1820   75.8640  220.8680 N   0  0  0  0  0  0  0  0  0  0  0  0
  143.0720   75.4590  219.9770 C   0  0  0  0  0  0  0  0  0  0  0  0
  143.9670   74.2930  220.0240 C   0  0  0  0  0  0  0  0  0  0  0  0
  145.2110   74.3730  220.6240 C   0  0  0  0  0  0  0  0  0  0  0  0
  146.0390   73.2690  220.6590 C   0  0  0  0  0  0  0  0  0  0  0  0
  145.6550   72.0480  220.0980 C   0  0  0  0  0  0  0  0  0  0  0  0
  144.4210   71.9880  219.5090 C   0  0  0  0  0  0  0  0  0  0  0  0
  143.5770   73.0930  219.4660 C   0  0  0  0  0  0  0  0  0  0  0  0
  143.0230   76.3580  218.9380 C   0  0  0  0  0  0  0  0  0  0  0  0
  142.1150   77.2320  219.2720 O   0  0  0  0  0  0  0  0  0  0  0  0
  140.2670   71.5260  223.5650 C   0  0  0  0  0  0  0  0  0  0  0  0
  139.6880   70.2880  223.4520 C   0  0  0  0  0  0  0  0  0  0  0  0
  139.5480   69.4120  224.5100 C   0  0  0  0  0  0  0  0  0  0  0  0
  140.0190   69.8190  225.7380 C   0  0  0  0  0  0  0  0  0  0  0  0
  139.8830   68.9530  226.7950 C   0  0  0  0  0  0  0  0  0  0  0  0
  140.3590   69.3650  228.0370 C   0  0  0  0  0  0  0  0  0  0  0  0
  140.2030   68.4740  229.0560 F   0  0  0  0  0  0  0  0  0  0  0  0
  140.9470   70.5970  228.1990 C   0  0  0  0  0  0  0  0  0  0  0  0
  141.0630   71.4430  227.0960 C   0  0  0  0  0  0  0  0  0  0  0  0
  140.6010   71.0670  225.8420 C   0  0  0  0  0  0  0  0  0  0  0  0
  140.7210   71.9020  224.7770 N   0  0  0  0  0  0  0  0  0  0  0  0
  138.9090   73.7370  223.0950 H   0  0  0  0  0  0  0  0  0  0  0  0
  140.6872   74.7167  220.9481 H   0  0  0  0  0  0  0  0  0  0  0  0
  139.1832   73.9553  220.2769 H   0  0  0  0  0  0  0  0  0  0  0  0
  137.8420   78.5372  221.3456 H   0  0  0  0  0  0  0  0  0  0  0  0
  137.5246   77.2706  222.6087 H   0  0  0  0  0  0  0  0  0  0  0  0
  138.2794   79.7358  223.1625 H   0  0  0  0  0  0  0  0  0  0  0  0
  138.7670   78.2123  224.1123 H   0  0  0  0  0  0  0  0  0  0  0  0
  140.3868   80.0013  222.4031 H   0  0  0  0  0  0  0  0  0  0  0  0
  140.6261   79.3736  224.1065 H   0  0  0  0  0  0  0  0  0  0  0  0
  142.1915   78.3696  222.4608 H   0  0  0  0  0  0  0  0  0  0  0  0
  141.1870   77.1752  223.2666 H   0  0  0  0  0  0  0  0  0  0  0  0
  140.2229   78.4869  220.5270 H   0  0  0  0  0  0  0  0  0  0  0  0
  145.5417   75.3202  221.0750 H   0  0  0  0  0  0  0  0  0  0  0  0
  147.0247   73.3524  221.1400 H   0  0  0  0  0  0  0  0  0  0  0  0
  146.3177   71.1706  220.1286 H   0  0  0  0  0  0  0  0  0  0  0  0
  144.0880   71.0416  219.0580 H   0  0  0  0  0  0  0  0  0  0  0  0
  142.5919   73.0094  218.9838 H   0  0  0  0  0  0  0  0  0  0  0  0
  143.6244   76.3430  218.0171 H   0  0  0  0  0  0  0  0  0  0  0  0
  139.3150   69.9761  222.4653 H   0  0  0  0  0  0  0  0  0  0  0  0
  139.0780   68.4264  224.3768 H   0  0  0  0  0  0  0  0  0  0  0  0
  139.4137   67.9667  226.6649 H   0  0  0  0  0  0  0  0  0  0  0  0
  141.3208   70.9113  229.1847 H   0  0  0  0  0  0  0  0  0  0  0  0
  141.5311   72.4303  227.2226 H   0  0  0  0  0  0  0  0  0  0  0  0
  1  2  2  0
  2  3  1  0
  3  4  1  0
  4  5  1  0
  5  6  2  0
  5  7  1  0
  7  8  1  0
  8  9  1  0
  9 10  1  0
 10 11  1  0
 11 12  1  0
 12 13  1  0
 13 14  2  0
 14 15  1  0
 15 16  1  0
 16 17  2  0
 17 18  1  0
 18 19  2  0
 19 20  1  0
 20 21  2  0
 15 22  2  0
 22 23  1  0
  2 24  1  0
 24 25  2  0
 25 26  1  0
 26 27  2  0
 27 28  1  0
 28 29  2  0
 29 30  1  0
 29 31  1  0
 31 32  2  0
 32 33  1  0
 33 34  2  0
 12  7  1  0
 23 13  1  0
 34 24  1  0
 21 16  1  0
 33 27  1  0
  3 35  1  0
  4 36  1  0
  4 37  1  0
  8 38  1  0
  8 39  1  0
  9 40  1  0
  9 41  1  0
 10 42  1  0
 10 43  1  0
 11 44  1  0
 11 45  1  0
 12 46  1  6
 17 47  1  0
 18 48  1  0
 19 49  1  0
 20 50  1  0
 21 51  1  0
 22 52  1  0
 25 53  1  0
 26 54  1  0
 28 55  1  0
 31 56  1  0
 32 57  1  0
M  END
>  <smiles>  (13) 
O=C(NCC(=O)N1CCCC[C@H]1c1nc(-c2ccccc2)co1)c1ccc2cc(F)ccc2n1

>  <score_type>  (13) 
oracle

>  <origin>  (13) 
autodockgpu

>  <m_score__min__energy>  (13) 
-9.4100000000000001

>  <m_primary>  (13) 
energy

>  <rmsd>  (13) 
5.44009779408108

>  <m_score__min__rmsd>  (13) 
5.44009779408108

>  <meeko>  (13) 
{"free_energy": -9.41, "intermolecular_energy": -11.19, "internal_energy": -2.02, "cluster_size": 15, "cluster_id": 1, "rank_in_cluster": 1}

>  <energy>  (13) 
-8.57

>  <cluster_rmsd>  (13) 
0.97

>  <cluster>  (13) 
1

$$$$

     RDKit          3D

 57 61  0  0  0  0  0  0  0  0999 V2000
  139.4520   72.5930  220.7320 O   0  0  0  0  0  0  0  0  0  0  0  0
  139.4490   72.9400  221.9520 C   0  0  0  0  0  0  0  0  0  0  0  0
  139.2470   74.2950  222.3380 N   0  0  0  0  0  0  0  0  0  0  0  0
  139.0300   75.3550  221.3430 C   0  0  0  0  0  0  0  0  0  0  0  0
  138.6510   76.6080  221.9640 C   0  0  0  0  0  0  0  0  0  0  0  0
  137.4910   76.5960  222.5610 O   0  0  0  0  0  0  0  0  0  0  0  0
  139.3110   77.8380  222.0350 N   0  0  0  0  0  0  0  0  0  0  0  0
  138.4770   78.9200  222.6760 C   0  0  0  0  0  0  0  0  0  0  0  0
  139.2540   79.7230  223.6490 C   0  0  0  0  0  0  0  0  0  0  0  0
  140.7180   79.8160  223.4520 C   0  0  0  0  0  0  0  0  0  0  0  0
  141.3470   78.5570  222.9390 C   0  0  0  0  0  0  0  0  0  0  0  0
  140.5790   78.2690  221.6180 C   0  0  1  0  0  0  0  0  0  0  0  0
  141.4310   77.4160  220.7980 C   0  0  0  0  0  0  0  0  0  0  0  0
  141.8280   76.1670  221.2360 N   0  0  0  0  0  0  0  0  0  0  0  0
  142.5860   75.5940  220.3160 C   0  0  0  0  0  0  0  0  0  0  0  0
  143.2330   74.2740  220.3380 C   0  0  0  0  0  0  0  0  0  0  0  0
  144.6110   74.1540  220.3370 C   0  0  0  0  0  0  0  0  0  0  0  0
  145.2020   72.9070  220.3570 C   0  0  0  0  0  0  0  0  0  0  0  0
  144.4400   71.7360  220.3790 C   0  0  0  0  0  0  0  0  0  0  0  0
  143.0780   71.8740  220.3800 C   0  0  0  0  0  0  0  0  0  0  0  0
  142.4690   73.1240  220.3590 C   0  0  0  0  0  0  0  0  0  0  0  0
  142.6780   76.4860  219.2720 C   0  0  0  0  0  0  0  0  0  0  0  0
  141.9750   77.5220  219.6340 O   0  0  0  0  0  0  0  0  0  0  0  0
  139.6620   71.9150  222.9880 C   0  0  0  0  0  0  0  0  0  0  0  0
  139.3340   70.6070  222.7400 C   0  0  0  0  0  0  0  0  0  0  0  0
  139.5030   69.5910  223.6590 C   0  0  0  0  0  0  0  0  0  0  0  0
  140.0310   69.9250  224.8860 C   0  0  0  0  0  0  0  0  0  0  0  0
  140.2010   68.9190  225.8040 C   0  0  0  0  0  0  0  0  0  0  0  0
  140.7350   69.2570  227.0450 C   0  0  0  0  0  0  0  0  0  0  0  0
  140.8870   68.2280  227.9250 F   0  0  0  0  0  0  0  0  0  0  0  0
  141.0800   70.5550  227.3410 C   0  0  0  0  0  0  0  0  0  0  0  0
  140.8870   71.5430  226.3750 C   0  0  0  0  0  0  0  0  0  0  0  0
  140.3580   71.2450  225.1260 C   0  0  0  0  0  0  0  0  0  0  0  0
  140.1770   72.2180  224.1970 N   0  0  0  0  0  0  0  0  0  0  0  0
  139.2590   74.4930  223.3640 H   0  0  0  0  0  0  0  0  0  0  0  0
  139.9601   75.5061  220.7755 H   0  0  0  0  0  0  0  0  0  0  0  0
  138.2094   75.0398  220.6817 H   0  0  0  0  0  0  0  0  0  0  0  0
  138.0973   79.5878  221.8887 H   0  0  0  0  0  0  0  0  0  0  0  0
  137.6538   78.4341  223.2202 H   0  0  0  0  0  0  0  0  0  0  0  0
  138.8535   80.7472  223.6236 H   0  0  0  0  0  0  0  0  0  0  0  0
  139.1357   79.1916  224.6048 H   0  0  0  0  0  0  0  0  0  0  0  0
  140.9190   80.6215  222.7304 H   0  0  0  0  0  0  0  0  0  0  0  0
  141.1594   80.0113  224.4404 H   0  0  0  0  0  0  0  0  0  0  0  0
  142.4193   78.7061  222.7441 H   0  0  0  0  0  0  0  0  0  0  0  0
  141.2829   77.7266  223.6575 H   0  0  0  0  0  0  0  0  0  0  0  0
  140.3737   79.1020  220.9295 H   0  0  0  0  0  0  0  0  0  0  0  0
  145.2389   75.0570  220.3202 H   0  0  0  0  0  0  0  0  0  0  0  0
  146.2995   72.8332  220.3556 H   0  0  0  0  0  0  0  0  0  0  0  0
  144.9150   70.7440  220.3949 H   0  0  0  0  0  0  0  0  0  0  0  0
  142.4486   70.9721  220.3979 H   0  0  0  0  0  0  0  0  0  0  0  0
  141.3714   73.1971  220.3591 H   0  0  0  0  0  0  0  0  0  0  0  0
  143.2293   76.3525  218.3295 H   0  0  0  0  0  0  0  0  0  0  0  0
  138.9135   70.3536  221.7556 H   0  0  0  0  0  0  0  0  0  0  0  0
  139.2263   68.5535  223.4201 H   0  0  0  0  0  0  0  0  0  0  0  0
  139.9248   67.8808  225.5675 H   0  0  0  0  0  0  0  0  0  0  0  0
  141.5017   70.8103  228.3244 H   0  0  0  0  0  0  0  0  0  0  0  0
  141.1603   72.5827  226.6082 H   0  0  0  0  0  0  0  0  0  0  0  0
  1  2  2  0
  2  3  1  0
  3  4  1  0
  4  5  1  0
  5  6  2  0
  5  7  1  0
  7  8  1  0
  8  9  1  0
  9 10  1  0
 10 11  1  0
 11 12  1  0
 12 13  1  0
 13 14  2  0
 14 15  1  0
 15 16  1  0
 16 17  2  0
 17 18  1  0
 18 19  2  0
 19 20  1  0
 20 21  2  0
 15 22  2  0
 22 23  1  0
  2 24  1  0
 24 25  2  0
 25 26  1  0
 26 27  2  0
 27 28  1  0
 28 29  2  0
 29 30  1  0
 29 31  1  0
 31 32  2  0
 32 33  1  0
 33 34  2  0
 12  7  1  0
 23 13  1  0
 34 24  1  0
 21 16  1  0
 33 27  1  0
  3 35  1  0
  4 36  1  0
  4 37  1  0
  8 38  1  0
  8 39  1  0
  9 40  1  0
  9 41  1  0
 10 42  1  0
 10 43  1  0
 11 44  1  0
 11 45  1  0
 12 46  1  6
 17 47  1  0
 18 48  1  0
 19 49  1  0
 20 50  1  0
 21 51  1  0
 22 52  1  0
 25 53  1  0
 26 54  1  0
 28 55  1  0
 31 56  1  0
 32 57  1  0
M  END
>  <smiles>  (14) 
O=C(NCC(=O)N1CCCC[C@H]1c1nc(-c2ccccc2)co1)c1ccc2cc(F)ccc2n1

>  <score_type>  (14) 
oracle

>  <origin>  (14) 
autodockgpu

>  <m_score__min__energy>  (14) 
-9.4100000000000001

>  <m_primary>  (14) 
energy

>  <rmsd>  (14) 
5.517349108604846

>  <m_score__min__rmsd>  (14) 
5.517349108604846

>  <meeko>  (14) 
{"free_energy": -8.57, "intermolecular_energy": -10.36, "internal_energy": -2.42, "cluster_size": 15, "cluster_id": 1, "rank_in_cluster": 13}

>  <energy>  (14) 
-8.57

>  <cluster_rmsd>  (14) 
1.09

>  <cluster>  (14) 
1

$$$$

     RDKit          3D

 57 61  0  0  0  0  0  0  0  0999 V2000
  135.8470   76.8580  223.3790 O   0  0  0  0  0  0  0  0  0  0  0  0
  136.4120   75.7220  223.3690 C   0  0  0  0  0  0  0  0  0  0  0  0
  137.6590   75.5190  222.7140 N   0  0  0  0  0  0  0  0  0  0  0  0
  138.3520   76.6130  222.0200 C   0  0  0  0  0  0  0  0  0  0  0  0
  139.7670   76.3460  221.8660 C   0  0  0  0  0  0  0  0  0  0  0  0
  140.5370   76.9580  222.7220 O   0  0  0  0  0  0  0  0  0  0  0  0
  140.4600   75.5420  220.9560 N   0  0  0  0  0  0  0  0  0  0  0  0
  141.1060   76.3300  219.8440 C   0  0  0  0  0  0  0  0  0  0  0  0
  142.4910   75.8800  219.5690 C   0  0  0  0  0  0  0  0  0  0  0  0
  142.8370   74.4790  219.8980 C   0  0  0  0  0  0  0  0  0  0  0  0
  142.1770   73.9610  221.1390 C   0  0  0  0  0  0  0  0  0  0  0  0
  140.6600   74.1560  220.8620 C   0  0  1  0  0  0  0  0  0  0  0  0
  139.9370   73.2320  221.7290 C   0  0  0  0  0  0  0  0  0  0  0  0
  140.5310   72.6920  222.8530 N   0  0  0  0  0  0  0  0  0  0  0  0
  139.6740   71.8940  223.4690 C   0  0  0  0  0  0  0  0  0  0  0  0
  139.8570   71.1070  224.6960 C   0  0  0  0  0  0  0  0  0  0  0  0
  140.7490   71.5070  225.6740 C   0  0  0  0  0  0  0  0  0  0  0  0
  140.9090   70.7550  226.8210 C   0  0  0  0  0  0  0  0  0  0  0  0
  140.1840   69.5790  227.0320 C   0  0  0  0  0  0  0  0  0  0  0  0
  139.3050   69.1990  226.0540 C   0  0  0  0  0  0  0  0  0  0  0  0
  139.1350   69.9470  224.8940 C   0  0  0  0  0  0  0  0  0  0  0  0
  138.5140   71.9210  222.7290 C   0  0  0  0  0  0  0  0  0  0  0  0
  138.7520   72.7260  221.7320 O   0  0  0  0  0  0  0  0  0  0  0  0
  135.7590   74.5920  224.0500 C   0  0  0  0  0  0  0  0  0  0  0  0
  134.8190   74.8240  225.0220 C   0  0  0  0  0  0  0  0  0  0  0  0
  134.1640   73.8190  225.7050 C   0  0  0  0  0  0  0  0  0  0  0  0
  134.4830   72.5190  225.3820 C   0  0  0  0  0  0  0  0  0  0  0  0
  133.8350   71.5150  226.0580 C   0  0  0  0  0  0  0  0  0  0  0  0
  134.1580   70.2000  225.7320 C   0  0  0  0  0  0  0  0  0  0  0  0
  133.4910   69.2360  226.4270 F   0  0  0  0  0  0  0  0  0  0  0  0
  135.0940   69.9170  224.7650 C   0  0  0  0  0  0  0  0  0  0  0  0
  135.7260   70.9710  224.1060 C   0  0  0  0  0  0  0  0  0  0  0  0
  135.4300   72.2950  224.4030 C   0  0  0  0  0  0  0  0  0  0  0  0
  136.0540   73.3100  223.7520 N   0  0  0  0  0  0  0  0  0  0  0  0
  138.0550   74.5520  222.7560 H   0  0  0  0  0  0  0  0  0  0  0  0
  137.9042   76.7418  221.0236 H   0  0  0  0  0  0  0  0  0  0  0  0
  138.2417   77.5244  222.6260 H   0  0  0  0  0  0  0  0  0  0  0  0
  140.5064   76.2091  218.9298 H   0  0  0  0  0  0  0  0  0  0  0  0
  141.1498   77.3832  220.1584 H   0  0  0  0  0  0  0  0  0  0  0  0
  142.6745   76.0199  218.4935 H   0  0  0  0  0  0  0  0  0  0  0  0
  143.1186   76.4862  220.2389 H   0  0  0  0  0  0  0  0  0  0  0  0
  142.5348   73.8413  219.0542 H   0  0  0  0  0  0  0  0  0  0  0  0
  143.9213   74.4550  220.0819 H   0  0  0  0  0  0  0  0  0  0  0  0
  142.4135   72.8979  221.2939 H   0  0  0  0  0  0  0  0  0  0  0  0
  142.5134   74.4809  222.0481 H   0  0  0  0  0  0  0  0  0  0  0  0
  140.2618   73.8865  219.8726 H   0  0  0  0  0  0  0  0  0  0  0  0
  141.3339   72.4286  225.5376 H   0  0  0  0  0  0  0  0  0  0  0  0
  141.6242   71.0895  227.5869 H   0  0  0  0  0  0  0  0  0  0  0  0
  140.3145   68.9828  227.9471 H   0  0  0  0  0  0  0  0  0  0  0  0
  138.7181   68.2785  226.1890 H   0  0  0  0  0  0  0  0  0  0  0  0
  138.4198   69.6119  224.1284 H   0  0  0  0  0  0  0  0  0  0  0  0
  137.5807   71.3767  222.9358 H   0  0  0  0  0  0  0  0  0  0  0  0
  134.5740   75.8672  225.2705 H   0  0  0  0  0  0  0  0  0  0  0  0
  133.4156   74.0480  226.4780 H   0  0  0  0  0  0  0  0  0  0  0  0
  133.0860   71.7415  226.8311 H   0  0  0  0  0  0  0  0  0  0  0  0
  135.3405   68.8745  224.5150 H   0  0  0  0  0  0  0  0  0  0  0  0
  136.4764   70.7486  223.3330 H   0  0  0  0  0  0  0  0  0  0  0  0
  1  2  2  0
  2  3  1  0
  3  4  1  0
  4  5  1  0
  5  6  2  0
  5  7  1  0
  7  8  1  0
  8  9  1  0
  9 10  1  0
 10 11  1  0
 11 12  1  0
 12 13  1  0
 13 14  2  0
 14 15  1  0
 15 16  1  0
 16 17  2  0
 17 18  1  0
 18 19  2  0
 19 20  1  0
 20 21  2  0
 15 22  2  0
 22 23  1  0
  2 24  1  0
 24 25  2  0
 25 26  1  0
 26 27  2  0
 27 28  1  0
 28 29  2  0
 29 30  1  0
 29 31  1  0
 31 32  2  0
 32 33  1  0
 33 34  2  0
 12  7  1  0
 23 13  1  0
 34 24  1  0
 21 16  1  0
 33 27  1  0
  3 35  1  0
  4 36  1  0
  4 37  1  0
  8 38  1  0
  8 39  1  0
  9 40  1  0
  9 41  1  0
 10 42  1  0
 10 43  1  0
 11 44  1  0
 11 45  1  0
 12 46  1  6
 17 47  1  0
 18 48  1  0
 19 49  1  0
 20 50  1  0
 21 51  1  0
 22 52  1  0
 25 53  1  0
 26 54  1  0
 28 55  1  0
 31 56  1  0
 32 57  1  0
M  END
>  <smiles>  (15) 
O=C(NCC(=O)N1CCCC[C@H]1c1nc(-c2ccccc2)co1)c1ccc2cc(F)ccc2n1

>  <score_type>  (15) 
oracle

>  <origin>  (15) 
autodockgpu

>  <m_score__min__energy>  (15) 
-9.4100000000000001

>  <m_primary>  (15) 
energy

>  <rmsd>  (15) 
7.527071556594524

>  <m_score__min__rmsd>  (15) 
7.527071556594524

>  <meeko>  (15) 
{"free_energy": -7.73, "intermolecular_energy": -9.52, "internal_energy": -3.37, "cluster_size": 2, "cluster_id": 8, "rank_in_cluster": 1}

>  <energy>  (15) 
-8.48

>  <cluster_rmsd>  (15) 
1.56

>  <cluster>  (15) 
1

$$$$

     RDKit          3D

 57 61  0  0  0  0  0  0  0  0999 V2000
  141.1640   72.3890  221.2270 O   0  0  0  0  0  0  0  0  0  0  0  0
  140.4420   72.6720  222.2300 C   0  0  0  0  0  0  0  0  0  0  0  0
  139.7850   73.9300  222.3420 N   0  0  0  0  0  0  0  0  0  0  0  0
  139.9120   74.9590  221.3010 C   0  0  0  0  0  0  0  0  0  0  0  0
  139.4820   76.2600  221.7720 C   0  0  0  0  0  0  0  0  0  0  0  0
  138.5840   76.2310  222.7170 O   0  0  0  0  0  0  0  0  0  0  0  0
  139.8610   77.5510  221.3910 N   0  0  0  0  0  0  0  0  0  0  0  0
  138.9390   78.6190  221.9230 C   0  0  0  0  0  0  0  0  0  0  0  0
  139.6810   79.7790  222.4680 C   0  0  0  0  0  0  0  0  0  0  0  0
  141.0320   80.0490  221.9250 C   0  0  0  0  0  0  0  0  0  0  0  0
  141.8190   78.8160  221.6030 C   0  0  0  0  0  0  0  0  0  0  0  0
  140.9110   78.0460  220.6030 C   0  0  1  0  0  0  0  0  0  0  0  0
  141.7690   77.1460  219.8420 C   0  0  0  0  0  0  0  0  0  0  0  0
  142.5380   76.1860  220.4710 N   0  0  0  0  0  0  0  0  0  0  0  0
  143.2190   75.4990  219.5690 C   0  0  0  0  0  0  0  0  0  0  0  0
  144.1610   74.3880  219.7650 C   0  0  0  0  0  0  0  0  0  0  0  0
  145.1530   74.4550  220.7260 C   0  0  0  0  0  0  0  0  0  0  0  0
  146.0290   73.4010  220.8970 C   0  0  0  0  0  0  0  0  0  0  0  0
  145.9460   72.2460  220.1160 C   0  0  0  0  0  0  0  0  0  0  0  0
  144.9580   72.1970  219.1700 C   0  0  0  0  0  0  0  0  0  0  0  0
  144.0690   73.2510  218.9870 C   0  0  0  0  0  0  0  0  0  0  0  0
  142.8840   76.0250  218.3420 C   0  0  0  0  0  0  0  0  0  0  0  0
  142.0330   76.9810  218.5910 O   0  0  0  0  0  0  0  0  0  0  0  0
  140.2820   71.6740  223.3020 C   0  0  0  0  0  0  0  0  0  0  0  0
  139.7130   70.4560  223.0290 C   0  0  0  0  0  0  0  0  0  0  0  0
  139.5300   69.4700  223.9780 C   0  0  0  0  0  0  0  0  0  0  0  0
  139.9440   69.7400  225.2630 C   0  0  0  0  0  0  0  0  0  0  0  0
  139.7630   68.7640  226.2110 C   0  0  0  0  0  0  0  0  0  0  0  0
  140.1830   69.0370  227.5110 C   0  0  0  0  0  0  0  0  0  0  0  0
  139.9850   68.0410  228.4190 F   0  0  0  0  0  0  0  0  0  0  0  0
  140.7590   70.2440  227.8330 C   0  0  0  0  0  0  0  0  0  0  0  0
  140.9210   71.2050  226.8350 C   0  0  0  0  0  0  0  0  0  0  0  0
  140.5160   70.9690  225.5280 C   0  0  0  0  0  0  0  0  0  0  0  0
  140.6800   71.9150  224.5670 N   0  0  0  0  0  0  0  0  0  0  0  0
  139.2080   74.0800  223.2010 H   0  0  0  0  0  0  0  0  0  0  0  0
  140.9655   75.0233  220.9912 H   0  0  0  0  0  0  0  0  0  0  0  0
  139.2674   74.6717  220.4572 H   0  0  0  0  0  0  0  0  0  0  0  0
  138.2902   78.9661  221.1054 H   0  0  0  0  0  0  0  0  0  0  0  0
  138.3510   78.1796  222.7422 H   0  0  0  0  0  0  0  0  0  0  0  0
  139.0691   80.6749  222.2868 H   0  0  0  0  0  0  0  0  0  0  0  0
  139.8515   79.5280  223.5253 H   0  0  0  0  0  0  0  0  0  0  0  0
  140.9223   80.6394  221.0034 H   0  0  0  0  0  0  0  0  0  0  0  0
  141.5878   80.5845  222.7088 H   0  0  0  0  0  0  0  0  0  0  0  0
  142.7814   79.0759  221.1380 H   0  0  0  0  0  0  0  0  0  0  0  0
  142.0653   78.2235  222.4965 H   0  0  0  0  0  0  0  0  0  0  0  0
  140.4113   78.6055  219.7985 H   0  0  0  0  0  0  0  0  0  0  0  0
  145.2448   75.3514  221.3569 H   0  0  0  0  0  0  0  0  0  0  0  0
  146.8112   73.4729  221.6671 H   0  0  0  0  0  0  0  0  0  0  0  0
  146.6465   71.4094  220.2556 H   0  0  0  0  0  0  0  0  0  0  0  0
  144.8646   71.3013  218.5384 H   0  0  0  0  0  0  0  0  0  0  0  0
  143.2870   73.1782  218.2169 H   0  0  0  0  0  0  0  0  0  0  0  0
  143.2563   75.7057  217.3574 H   0  0  0  0  0  0  0  0  0  0  0  0
  139.3849   70.2540  221.9987 H   0  0  0  0  0  0  0  0  0  0  0  0
  139.0707   68.5051  223.7172 H   0  0  0  0  0  0  0  0  0  0  0  0
  139.3020   67.7991  225.9531 H   0  0  0  0  0  0  0  0  0  0  0  0
  141.0872   70.4484  228.8628 H   0  0  0  0  0  0  0  0  0  0  0  0
  141.3800   72.1718  227.0892 H   0  0  0  0  0  0  0  0  0  0  0  0
  1  2  2  0
  2  3  1  0
  3  4  1  0
  4  5  1  0
  5  6  2  0
  5  7  1  0
  7  8  1  0
  8  9  1  0
  9 10  1  0
 10 11  1  0
 11 12  1  0
 12 13  1  0
 13 14  2  0
 14 15  1  0
 15 16  1  0
 16 17  2  0
 17 18  1  0
 18 19  2  0
 19 20  1  0
 20 21  2  0
 15 22  2  0
 22 23  1  0
  2 24  1  0
 24 25  2  0
 25 26  1  0
 26 27  2  0
 27 28  1  0
 28 29  2  0
 29 30  1  0
 29 31  1  0
 31 32  2  0
 32 33  1  0
 33 34  2  0
 12  7  1  0
 23 13  1  0
 34 24  1  0
 21 16  1  0
 33 27  1  0
  3 35  1  0
  4 36  1  0
  4 37  1  0
  8 38  1  0
  8 39  1  0
  9 40  1  0
  9 41  1  0
 10 42  1  0
 10 43  1  0
 11 44  1  0
 11 45  1  0
 12 46  1  6
 17 47  1  0
 18 48  1  0
 19 49  1  0
 20 50  1  0
 21 51  1  0
 22 52  1  0
 25 53  1  0
 26 54  1  0
 28 55  1  0
 31 56  1  0
 32 57  1  0
M  END
>  <smiles>  (16) 
O=C(NCC(=O)N1CCCC[C@H]1c1nc(-c2ccccc2)co1)c1ccc2cc(F)ccc2n1

>  <score_type>  (16) 
oracle

>  <origin>  (16) 
autodockgpu

>  <m_score__min__energy>  (16) 
-9.4100000000000001

>  <m_primary>  (16) 
energy

>  <rmsd>  (16) 
5.451366872220513

>  <m_score__min__rmsd>  (16) 
5.451366872220513

>  <meeko>  (16) 
{"free_energy": -9.16, "intermolecular_energy": -10.95, "internal_energy": -2.39, "cluster_size": 15, "cluster_id": 1, "rank_in_cluster": 5}

>  <energy>  (16) 
-8.97

>  <cluster_rmsd>  (16) 
0.0

>  <cluster>  (16) 
2

$$$$

     RDKit          3D

 57 61  0  0  0  0  0  0  0  0999 V2000
  140.1060   72.9510  220.5570 O   0  0  0  0  0  0  0  0  0  0  0  0
  139.8290   73.2000  221.7690 C   0  0  0  0  0  0  0  0  0  0  0  0
  139.4850   74.5130  222.1970 N   0  0  0  0  0  0  0  0  0  0  0  0
  139.4340   75.6420  221.2570 C   0  0  0  0  0  0  0  0  0  0  0  0
  139.3240   76.9130  221.9430 C   0  0  0  0  0  0  0  0  0  0  0  0
  138.6760   76.8710  223.0750 O   0  0  0  0  0  0  0  0  0  0  0  0
  139.7910   78.1860  221.6060 N   0  0  0  0  0  0  0  0  0  0  0  0
  138.8940   79.2940  222.0980 C   0  0  0  0  0  0  0  0  0  0  0  0
  139.6610   80.4080  222.7050 C   0  0  0  0  0  0  0  0  0  0  0  0
  141.0540   80.6140  222.2490 C   0  0  0  0  0  0  0  0  0  0  0  0
  141.7950   79.3450  221.9560 C   0  0  0  0  0  0  0  0  0  0  0  0
  140.9120   78.6360  220.8910 C   0  0  1  0  0  0  0  0  0  0  0  0
  141.7680   77.7020  220.1690 C   0  0  0  0  0  0  0  0  0  0  0  0
  142.1940   76.5240  220.7520 N   0  0  0  0  0  0  0  0  0  0  0  0
  142.9500   75.8540  219.8980 C   0  0  0  0  0  0  0  0  0  0  0  0
  143.6210   74.5570  220.0720 C   0  0  0  0  0  0  0  0  0  0  0  0
  142.9530   73.3700  219.8330 C   0  0  0  0  0  0  0  0  0  0  0  0
  143.5990   72.1620  220.0020 C   0  0  0  0  0  0  0  0  0  0  0  0
  144.9320   72.0950  220.4160 C   0  0  0  0  0  0  0  0  0  0  0  0
  145.5760   73.2800  220.6470 C   0  0  0  0  0  0  0  0  0  0  0  0
  144.9380   74.5050  220.4810 C   0  0  0  0  0  0  0  0  0  0  0  0
  143.0100   76.6110  218.7500 C   0  0  0  0  0  0  0  0  0  0  0  0
  142.2940   77.6720  218.9930 O   0  0  0  0  0  0  0  0  0  0  0  0
  139.8660   72.1040  222.7510 C   0  0  0  0  0  0  0  0  0  0  0  0
  139.3290   70.8810  222.4390 C   0  0  0  0  0  0  0  0  0  0  0  0
  139.3250   69.8060  223.3050 C   0  0  0  0  0  0  0  0  0  0  0  0
  139.8930   69.9880  224.5460 C   0  0  0  0  0  0  0  0  0  0  0  0
  139.8920   68.9220  225.4120 C   0  0  0  0  0  0  0  0  0  0  0  0
  140.4670   69.1060  226.6670 C   0  0  0  0  0  0  0  0  0  0  0  0
  140.4440   68.0230  227.4930 F   0  0  0  0  0  0  0  0  0  0  0  0
  141.0180   70.3140  227.0260 C   0  0  0  0  0  0  0  0  0  0  0  0
  140.9950   71.3670  226.1120 C   0  0  0  0  0  0  0  0  0  0  0  0
  140.4310   71.2220  224.8510 C   0  0  0  0  0  0  0  0  0  0  0  0
  140.4170   72.2580  223.9730 N   0  0  0  0  0  0  0  0  0  0  0  0
  139.2700   74.6300  223.2140 H   0  0  0  0  0  0  0  0  0  0  0  0
  140.3529   75.6428  220.6524 H   0  0  0  0  0  0  0  0  0  0  0  0
  138.5425   75.5183  220.6246 H   0  0  0  0  0  0  0  0  0  0  0  0
  138.3148   79.6845  221.2483 H   0  0  0  0  0  0  0  0  0  0  0  0
  138.2353   78.8758  222.8734 H   0  0  0  0  0  0  0  0  0  0  0  0
  139.1080   81.3368  222.5011 H   0  0  0  0  0  0  0  0  0  0  0  0
  139.7538   80.1351  223.7666 H   0  0  0  0  0  0  0  0  0  0  0  0
  141.0312   81.2206  221.3316 H   0  0  0  0  0  0  0  0  0  0  0  0
  141.5877   81.1104  223.0729 H   0  0  0  0  0  0  0  0  0  0  0  0
  142.7963   79.5599  221.5544 H   0  0  0  0  0  0  0  0  0  0  0  0
  141.9549   78.7294  222.8535 H   0  0  0  0  0  0  0  0  0  0  0  0
  140.4919   79.2312  220.0668 H   0  0  0  0  0  0  0  0  0  0  0  0
  141.9026   73.3886  219.5069 H   0  0  0  0  0  0  0  0  0  0  0  0
  143.0508   71.2287  219.8059 H   0  0  0  0  0  0  0  0  0  0  0  0
  145.4423   71.1299  220.5506 H   0  0  0  0  0  0  0  0  0  0  0  0
  146.6265   73.2635  220.9728 H   0  0  0  0  0  0  0  0  0  0  0  0
  145.4867   75.4380  220.6770 H   0  0  0  0  0  0  0  0  0  0  0  0
  143.5494   76.3706  217.8220 H   0  0  0  0  0  0  0  0  0  0  0  0
  138.8770   70.7497  221.4448 H   0  0  0  0  0  0  0  0  0  0  0  0
  138.8848   68.8407  223.0147 H   0  0  0  0  0  0  0  0  0  0  0  0
  139.4520   67.9558  225.1241 H   0  0  0  0  0  0  0  0  0  0  0  0
  141.4703   70.4476  228.0198 H   0  0  0  0  0  0  0  0  0  0  0  0
  141.4337   72.3349  226.3963 H   0  0  0  0  0  0  0  0  0  0  0  0
  1  2  2  0
  2  3  1  0
  3  4  1  0
  4  5  1  0
  5  6  2  0
  5  7  1  0
  7  8  1  0
  8  9  1  0
  9 10  1  0
 10 11  1  0
 11 12  1  0
 12 13  1  0
 13 14  2  0
 14 15  1  0
 15 16  1  0
 16 17  2  0
 17 18  1  0
 18 19  2  0
 19 20  1  0
 20 21  2  0
 15 22  2  0
 22 23  1  0
  2 24  1  0
 24 25  2  0
 25 26  1  0
 26 27  2  0
 27 28  1  0
 28 29  2  0
 29 30  1  0
 29 31  1  0
 31 32  2  0
 32 33  1  0
 33 34  2  0
 12  7  1  0
 23 13  1  0
 34 24  1  0
 21 16  1  0
 33 27  1  0
  3 35  1  0
  4 36  1  0
  4 37  1  0
  8 38  1  0
  8 39  1  0
  9 40  1  0
  9 41  1  0
 10 42  1  0
 10 43  1  0
 11 44  1  0
 11 45  1  0
 12 46  1  6
 17 47  1  0
 18 48  1  0
 19 49  1  0
 20 50  1  0
 21 51  1  0
 22 52  1  0
 25 53  1  0
 26 54  1  0
 28 55  1  0
 31 56  1  0
 32 57  1  0
M  END
>  <smiles>  (17) 
O=C(NCC(=O)N1CCCC[C@H]1c1nc(-c2ccccc2)co1)c1ccc2cc(F)ccc2n1

>  <score_type>  (17) 
oracle

>  <origin>  (17) 
autodockgpu

>  <m_score__min__energy>  (17) 
-9.4100000000000001

>  <m_primary>  (17) 
energy

>  <rmsd>  (17) 
5.389652961058517

>  <m_score__min__rmsd>  (17) 
5.389652961058517

>  <meeko>  (17) 
{"free_energy": -8.57, "intermolecular_energy": -10.36, "internal_energy": -2.63, "cluster_size": 15, "cluster_id": 1, "rank_in_cluster": 14}

>  <energy>  (17) 
-8.92

>  <cluster_rmsd>  (17) 
1.99

>  <cluster>  (17) 
2

$$$$

     RDKit          3D

 57 61  0  0  0  0  0  0  0  0999 V2000
  135.0800   68.5570  225.2670 O   0  0  0  0  0  0  0  0  0  0  0  0
  135.3960   69.7470  224.9660 C   0  0  0  0  0  0  0  0  0  0  0  0
  136.4830   70.0290  224.0910 N   0  0  0  0  0  0  0  0  0  0  0  0
  137.2900   68.9550  223.4960 C   0  0  0  0  0  0  0  0  0  0  0  0
  138.4530   68.6430  224.3020 C   0  0  0  0  0  0  0  0  0  0  0  0
  138.9440   67.4490  224.1170 O   0  0  0  0  0  0  0  0  0  0  0  0
  139.1460   69.3990  225.2510 N   0  0  0  0  0  0  0  0  0  0  0  0
  139.2330   68.7230  226.5970 C   0  0  0  0  0  0  0  0  0  0  0  0
  140.5890   68.8170  227.1850 C   0  0  0  0  0  0  0  0  0  0  0  0
  141.4380   69.9600  226.7790 C   0  0  0  0  0  0  0  0  0  0  0  0
  141.2790   70.3600  225.3440 C   0  0  0  0  0  0  0  0  0  0  0  0
  139.7600   70.6600  225.2080 C   0  0  1  0  0  0  0  0  0  0  0  0
  139.5920   71.5380  224.0550 C   0  0  0  0  0  0  0  0  0  0  0  0
  140.6520   72.2630  223.5460 N   0  0  0  0  0  0  0  0  0  0  0  0
  140.2470   72.9730  222.5060 C   0  0  0  0  0  0  0  0  0  0  0  0
  141.0170   73.8880  221.6510 C   0  0  0  0  0  0  0  0  0  0  0  0
  142.0800   73.4320  220.8930 C   0  0  0  0  0  0  0  0  0  0  0  0
  142.7920   74.3050  220.0960 C   0  0  0  0  0  0  0  0  0  0  0  0
  142.4690   75.6630  220.0260 C   0  0  0  0  0  0  0  0  0  0  0  0
  141.4140   76.0960  220.7830 C   0  0  0  0  0  0  0  0  0  0  0  0
  140.6880   75.2270  221.5910 C   0  0  0  0  0  0  0  0  0  0  0  0
  138.9080   72.7010  222.3450 C   0  0  0  0  0  0  0  0  0  0  0  0
  138.6060   71.8550  223.2890 O   0  0  0  0  0  0  0  0  0  0  0  0
  134.6180   70.8600  225.5370 C   0  0  0  0  0  0  0  0  0  0  0  0
  133.5660   70.6040  226.3780 C   0  0  0  0  0  0  0  0  0  0  0  0
  132.7910   71.5920  226.9520 C   0  0  0  0  0  0  0  0  0  0  0  0
  133.1030   72.8990  226.6530 C   0  0  0  0  0  0  0  0  0  0  0  0
  132.3350   73.8860  227.2210 C   0  0  0  0  0  0  0  0  0  0  0  0
  132.6510   75.2080  226.9180 C   0  0  0  0  0  0  0  0  0  0  0  0
  131.8630   76.1530  227.5020 F   0  0  0  0  0  0  0  0  0  0  0  0
  133.6970   75.5150  226.0790 C   0  0  0  0  0  0  0  0  0  0  0  0
  134.4480   74.4770  225.5270 C   0  0  0  0  0  0  0  0  0  0  0  0
  134.1640   73.1470  225.8050 C   0  0  0  0  0  0  0  0  0  0  0  0
  134.9050   72.1480  225.2590 N   0  0  0  0  0  0  0  0  0  0  0  0
  136.6740   71.0380  223.8960 H   0  0  0  0  0  0  0  0  0  0  0  0
  136.6683   68.0522  223.4043 H   0  0  0  0  0  0  0  0  0  0  0  0
  137.6399   69.2974  222.5109 H   0  0  0  0  0  0  0  0  0  0  0  0
  138.5167   69.2020  227.2807 H   0  0  0  0  0  0  0  0  0  0  0  0
  139.0004   67.6573  226.4547 H   0  0  0  0  0  0  0  0  0  0  0  0
  140.4705   68.8677  228.2774 H   0  0  0  0  0  0  0  0  0  0  0  0
  141.1180   67.9299  226.8066 H   0  0  0  0  0  0  0  0  0  0  0  0
  141.1792   70.8237  227.4092 H   0  0  0  0  0  0  0  0  0  0  0  0
  142.4828   69.6401  226.9055 H   0  0  0  0  0  0  0  0  0  0  0  0
  141.8769   71.2553  225.1183 H   0  0  0  0  0  0  0  0  0  0  0  0
  141.6230   69.5830  224.6455 H   0  0  0  0  0  0  0  0  0  0  0  0
  139.2599   71.2371  225.9998 H   0  0  0  0  0  0  0  0  0  0  0  0
  142.3593   72.3685  220.9255 H   0  0  0  0  0  0  0  0  0  0  0  0
  143.6346   73.9227  219.5011 H   0  0  0  0  0  0  0  0  0  0  0  0
  143.0390   76.3552  219.3889 H   0  0  0  0  0  0  0  0  0  0  0  0
  141.1329   77.1590  220.7516 H   0  0  0  0  0  0  0  0  0  0  0  0
  139.8459   75.6097  222.1862 H   0  0  0  0  0  0  0  0  0  0  0  0
  138.2334   73.1118  221.5794 H   0  0  0  0  0  0  0  0  0  0  0  0
  133.3265   69.5553  226.6078 H   0  0  0  0  0  0  0  0  0  0  0  0
  131.9555   71.3440  227.6231 H   0  0  0  0  0  0  0  0  0  0  0  0
  131.4989   73.6406  227.8923 H   0  0  0  0  0  0  0  0  0  0  0  0
  133.9376   76.5630  225.8469 H   0  0  0  0  0  0  0  0  0  0  0  0
  135.2852   74.7182  224.8554 H   0  0  0  0  0  0  0  0  0  0  0  0
  1  2  2  0
  2  3  1  0
  3  4  1  0
  4  5  1  0
  5  6  2  0
  5  7  1  0
  7  8  1  0
  8  9  1  0
  9 10  1  0
 10 11  1  0
 11 12  1  0
 12 13  1  0
 13 14  2  0
 14 15  1  0
 15 16  1  0
 16 17  2  0
 17 18  1  0
 18 19  2  0
 19 20  1  0
 20 21  2  0
 15 22  2  0
 22 23  1  0
  2 24  1  0
 24 25  2  0
 25 26  1  0
 26 27  2  0
 27 28  1  0
 28 29  2  0
 29 30  1  0
 29 31  1  0
 31 32  2  0
 32 33  1  0
 33 34  2  0
 12  7  1  0
 23 13  1  0
 34 24  1  0
 21 16  1  0
 33 27  1  0
  3 35  1  0
  4 36  1  0
  4 37  1  0
  8 38  1  0
  8 39  1  0
  9 40  1  0
  9 41  1  0
 10 42  1  0
 10 43  1  0
 11 44  1  0
 11 45  1  0
 12 46  1  1
 17 47  1  0
 18 48  1  0
 19 49  1  0
 20 50  1  0
 21 51  1  0
 22 52  1  0
 25 53  1  0
 26 54  1  0
 28 55  1  0
 31 56  1  0
 32 57  1  0
M  END
>  <smiles>  (18) 
O=C(NCC(=O)N1CCCC[C@H]1c1nc(-c2ccccc2)co1)c1ccc2cc(F)ccc2n1

>  <score_type>  (18) 
oracle

>  <origin>  (18) 
autodockgpu

>  <m_score__min__energy>  (18) 
-9.4100000000000001

>  <m_primary>  (18) 
energy

>  <rmsd>  (18) 
8.19812944685368

>  <m_score__min__rmsd>  (18) 
8.19812944685368

>  <meeko>  (18) 
{"free_energy": -8.16, "intermolecular_energy": -9.95, "internal_energy": -2.8, "cluster_size": 2, "cluster_id": 6, "rank_in_cluster": 2}

>  <energy>  (18) 
-8.9

>  <cluster_rmsd>  (18) 
1.87

>  <cluster>  (18) 
2

$$$$

     RDKit          3D

 57 61  0  0  0  0  0  0  0  0999 V2000
  141.4180   72.9990  221.4420 O   0  0  0  0  0  0  0  0  0  0  0  0
  140.4540   73.0840  222.2610 C   0  0  0  0  0  0  0  0  0  0  0  0
  139.6150   74.2330  222.3040 N   0  0  0  0  0  0  0  0  0  0  0  0
  139.8250   75.3740  221.4020 C   0  0  0  0  0  0  0  0  0  0  0  0
  139.3290   76.6110  221.9710 C   0  0  0  0  0  0  0  0  0  0  0  0
  138.2710   76.4830  222.7230 O   0  0  0  0  0  0  0  0  0  0  0  0
  139.7850   77.9270  221.8540 N   0  0  0  0  0  0  0  0  0  0  0  0
  138.9770   78.9070  222.6680 C   0  0  0  0  0  0  0  0  0  0  0  0
  139.8340   79.8680  223.4020 C   0  0  0  0  0  0  0  0  0  0  0  0
  141.1710   80.1650  222.8390 C   0  0  0  0  0  0  0  0  0  0  0  0
  141.8430   78.9870  222.2030 C   0  0  0  0  0  0  0  0  0  0  0  0
  140.8270   78.5180  221.1240 C   0  0  1  0  0  0  0  0  0  0  0  0
  141.5720   77.7570  220.1280 C   0  0  0  0  0  0  0  0  0  0  0  0
  142.3420   76.6670  220.4880 N   0  0  0  0  0  0  0  0  0  0  0  0
  142.9100   76.1490  219.4110 C   0  0  0  0  0  0  0  0  0  0  0  0
  143.8080   74.9910  219.3020 C   0  0  0  0  0  0  0  0  0  0  0  0
  144.3810   74.4240  220.4260 C   0  0  0  0  0  0  0  0  0  0  0  0
  145.2230   73.3370  220.3060 C   0  0  0  0  0  0  0  0  0  0  0  0
  145.5220   72.7770  219.0610 C   0  0  0  0  0  0  0  0  0  0  0  0
  144.9460   73.3500  217.9600 C   0  0  0  0  0  0  0  0  0  0  0  0
  144.0960   74.4470  218.0670 C   0  0  0  0  0  0  0  0  0  0  0  0
  142.4990   76.9160  218.3440 C   0  0  0  0  0  0  0  0  0  0  0  0
  141.7210   77.8320  218.8500 O   0  0  0  0  0  0  0  0  0  0  0  0
  140.2010   71.9680  223.1880 C   0  0  0  0  0  0  0  0  0  0  0  0
  139.4670   70.8850  222.7760 C   0  0  0  0  0  0  0  0  0  0  0  0
  139.1880   69.8010  223.5840 C   0  0  0  0  0  0  0  0  0  0  0  0
  139.6780   69.8240  224.8700 C   0  0  0  0  0  0  0  0  0  0  0  0
  139.4030   68.7490  225.6790 C   0  0  0  0  0  0  0  0  0  0  0  0
  139.9000   68.7730  226.9810 C   0  0  0  0  0  0  0  0  0  0  0  0
  139.6040   67.6870  227.7470 F   0  0  0  0  0  0  0  0  0  0  0  0
  140.6410   69.8370  227.4390 C   0  0  0  0  0  0  0  0  0  0  0  0
  140.8940   70.9060  226.5800 C   0  0  0  0  0  0  0  0  0  0  0  0
  140.4160   70.9190  225.2760 C   0  0  0  0  0  0  0  0  0  0  0  0
  140.6710   71.9680  224.4520 N   0  0  0  0  0  0  0  0  0  0  0  0
  138.8430   74.2200  223.0100 H   0  0  0  0  0  0  0  0  0  0  0  0
  140.9024   75.4793  221.2066 H   0  0  0  0  0  0  0  0  0  0  0  0
  139.2704   75.1800  220.4720 H   0  0  0  0  0  0  0  0  0  0  0  0
  138.3151   79.4679  221.9917 H   0  0  0  0  0  0  0  0  0  0  0  0
  138.4007   78.3346  223.4098 H   0  0  0  0  0  0  0  0  0  0  0  0
  139.2843   80.8188  223.4630 H   0  0  0  0  0  0  0  0  0  0  0  0
  140.0397   79.3786  224.3654 H   0  0  0  0  0  0  0  0  0  0  0  0
  141.0583   80.9509  222.0776 H   0  0  0  0  0  0  0  0  0  0  0  0
  141.8072   80.4765  223.6806 H   0  0  0  0  0  0  0  0  0  0  0  0
  142.7967   79.2822  221.7412 H   0  0  0  0  0  0  0  0  0  0  0  0
  142.0899   78.1963  222.9268 H   0  0  0  0  0  0  0  0  0  0  0  0
  140.3301   79.2737  220.4979 H   0  0  0  0  0  0  0  0  0  0  0  0
  144.1646   74.8415  221.4204 H   0  0  0  0  0  0  0  0  0  0  0  0
  145.6694   72.9011  221.2119 H   0  0  0  0  0  0  0  0  0  0  0  0
  146.1934   71.9104  218.9698 H   0  0  0  0  0  0  0  0  0  0  0  0
  145.1602   72.9330  216.9649 H   0  0  0  0  0  0  0  0  0  0  0  0
  143.6507   74.8833  217.1607 H   0  0  0  0  0  0  0  0  0  0  0  0
  142.7701   76.7838  217.2862 H   0  0  0  0  0  0  0  0  0  0  0  0
  139.0798   70.8800  221.7464 H   0  0  0  0  0  0  0  0  0  0  0  0
  138.5963   68.9508  223.2139 H   0  0  0  0  0  0  0  0  0  0  0  0
  138.8106   67.8979  225.3120 H   0  0  0  0  0  0  0  0  0  0  0  0
  141.0287   69.8448  228.4684 H   0  0  0  0  0  0  0  0  0  0  0  0
  141.4859   71.7588  226.9437 H   0  0  0  0  0  0  0  0  0  0  0  0
  1  2  2  0
  2  3  1  0
  3  4  1  0
  4  5  1  0
  5  6  2  0
  5  7  1  0
  7  8  1  0
  8  9  1  0
  9 10  1  0
 10 11  1  0
 11 12  1  0
 12 13  1  0
 13 14  2  0
 14 15  1  0
 15 16  1  0
 16 17  2  0
 17 18  1  0
 18 19  2  0
 19 20  1  0
 20 21  2  0
 15 22  2  0
 22 23  1  0
  2 24  1  0
 24 25  2  0
 25 26  1  0
 26 27  2  0
 27 28  1  0
 28 29  2  0
 29 30  1  0
 29 31  1  0
 31 32  2  0
 32 33  1  0
 33 34  2  0
 12  7  1  0
 23 13  1  0
 34 24  1  0
 21 16  1  0
 33 27  1  0
  3 35  1  0
  4 36  1  0
  4 37  1  0
  8 38  1  0
  8 39  1  0
  9 40  1  0
  9 41  1  0
 10 42  1  0
 10 43  1  0
 11 44  1  0
 11 45  1  0
 12 46  1  6
 17 47  1  0
 18 48  1  0
 19 49  1  0
 20 50  1  0
 21 51  1  0
 22 52  1  0
 25 53  1  0
 26 54  1  0
 28 55  1  0
 31 56  1  0
 32 57  1  0
M  END
>  <smiles>  (19) 
O=C(NCC(=O)N1CCCC[C@H]1c1nc(-c2ccccc2)co1)c1ccc2cc(F)ccc2n1

>  <score_type>  (19) 
oracle

>  <origin>  (19) 
autodockgpu

>  <m_score__min__energy>  (19) 
-9.4100000000000001

>  <m_primary>  (19) 
energy

>  <rmsd>  (19) 
5.388739923454054

>  <m_score__min__rmsd>  (19) 
5.388739923454054

>  <meeko>  (19) 
{"free_energy": -8.93, "intermolecular_energy": -10.72, "internal_energy": -2.27, "cluster_size": 15, "cluster_id": 1, "rank_in_cluster": 9}

>  <energy>  (19) 
-8.68

>  <cluster_rmsd>  (19) 
1.3

>  <cluster>  (19) 
2

$$$$

     RDKit          3D

 57 61  0  0  0  0  0  0  0  0999 V2000
  139.6260   73.5170  222.3460 O   0  0  0  0  0  0  0  0  0  0  0  0
  140.4650   72.5730  222.4600 C   0  0  0  0  0  0  0  0  0  0  0  0
  141.5340   72.4130  221.5340 N   0  0  0  0  0  0  0  0  0  0  0  0
  141.7180   73.3350  220.4040 C   0  0  0  0  0  0  0  0  0  0  0  0
  143.1100   73.4440  220.0160 C   0  0  0  0  0  0  0  0  0  0  0  0
  143.9450   72.7970  220.7820 O   0  0  0  0  0  0  0  0  0  0  0  0
  143.7220   74.1250  218.9600 N   0  0  0  0  0  0  0  0  0  0  0  0
  144.8650   73.3560  218.3450 C   0  0  0  0  0  0  0  0  0  0  0  0
  144.8320   73.3950  216.8640 C   0  0  0  0  0  0  0  0  0  0  0  0
  144.1750   74.5550  216.2200 C   0  0  0  0  0  0  0  0  0  0  0  0
  142.9660   75.0550  216.9500 C   0  0  0  0  0  0  0  0  0  0  0  0
  143.4990   75.3800  218.3730 C   0  0  1  0  0  0  0  0  0  0  0  0
  142.5770   76.3370  218.9740 C   0  0  0  0  0  0  0  0  0  0  0  0
  142.9230   77.0530  220.1030 N   0  0  0  0  0  0  0  0  0  0  0  0
  141.9260   77.8520  220.4470 C   0  0  0  0  0  0  0  0  0  0  0  0
  141.8370   78.7940  221.5720 C   0  0  0  0  0  0  0  0  0  0  0  0
  142.1560   80.1300  221.4110 C   0  0  0  0  0  0  0  0  0  0  0  0
  142.0660   81.0000  222.4780 C   0  0  0  0  0  0  0  0  0  0  0  0
  141.6560   80.5690  223.7430 C   0  0  0  0  0  0  0  0  0  0  0  0
  141.3440   79.2440  223.8830 C   0  0  0  0  0  0  0  0  0  0  0  0
  141.4300   78.3550  222.8160 C   0  0  0  0  0  0  0  0  0  0  0  0
  140.9250   77.6450  219.5260 C   0  0  0  0  0  0  0  0  0  0  0  0
  141.3860   76.7470  218.7010 O   0  0  0  0  0  0  0  0  0  0  0  0
  140.3250   71.6220  223.5750 C   0  0  0  0  0  0  0  0  0  0  0  0
  139.7290   70.4040  223.3710 C   0  0  0  0  0  0  0  0  0  0  0  0
  139.5620   69.4600  224.3650 C   0  0  0  0  0  0  0  0  0  0  0  0
  140.0220   69.7750  225.6240 C   0  0  0  0  0  0  0  0  0  0  0  0
  139.8580   68.8410  226.6170 C   0  0  0  0  0  0  0  0  0  0  0  0
  140.3230   69.1600  227.8900 C   0  0  0  0  0  0  0  0  0  0  0  0
  140.1400   68.2040  228.8440 F   0  0  0  0  0  0  0  0  0  0  0  0
  140.9280   70.3690  228.1440 C   0  0  0  0  0  0  0  0  0  0  0  0
  141.0710   71.2850  227.1030 C   0  0  0  0  0  0  0  0  0  0  0  0
  140.6200   71.0040  225.8200 C   0  0  0  0  0  0  0  0  0  0  0  0
  140.7680   71.9070  224.8170 N   0  0  0  0  0  0  0  0  0  0  0  0
  142.1800   71.6090  221.7030 H   0  0  0  0  0  0  0  0  0  0  0  0
  141.1375   72.9657  219.5457 H   0  0  0  0  0  0  0  0  0  0  0  0
  141.3727   74.3312  220.7175 H   0  0  0  0  0  0  0  0  0  0  0  0
  145.8132   73.7941  218.6900 H   0  0  0  0  0  0  0  0  0  0  0  0
  144.7727   72.3054  218.6577 H   0  0  0  0  0  0  0  0  0  0  0  0
  145.8737   73.3702  216.5115 H   0  0  0  0  0  0  0  0  0  0  0  0
  144.2141   72.5313  216.5771 H   0  0  0  0  0  0  0  0  0  0  0  0
  144.9052   75.3753  216.1581 H   0  0  0  0  0  0  0  0  0  0  0  0
  143.8317   74.2170  215.2311 H   0  0  0  0  0  0  0  0  0  0  0  0
  142.5624   75.9573  216.4674 H   0  0  0  0  0  0  0  0  0  0  0  0
  142.1437   74.3244  216.9608 H   0  0  0  0  0  0  0  0  0  0  0  0
  144.4596   75.9064  218.4735 H   0  0  0  0  0  0  0  0  0  0  0  0
  142.4828   80.5005  220.4282 H   0  0  0  0  0  0  0  0  0  0  0  0
  142.3232   82.0591  222.3296 H   0  0  0  0  0  0  0  0  0  0  0  0
  141.5870   81.2662  224.5910 H   0  0  0  0  0  0  0  0  0  0  0  0
  141.0165   78.8719  224.8650 H   0  0  0  0  0  0  0  0  0  0  0  0
  141.1721   77.2960  222.9646 H   0  0  0  0  0  0  0  0  0  0  0  0
  139.9408   78.1351  219.4927 H   0  0  0  0  0  0  0  0  0  0  0  0
  139.3642   70.1660  222.3609 H   0  0  0  0  0  0  0  0  0  0  0  0
  139.0798   68.4931  224.1588 H   0  0  0  0  0  0  0  0  0  0  0  0
  139.3756   67.8736  226.4137 H   0  0  0  0  0  0  0  0  0  0  0  0
  141.2934   70.6093  229.1533 H   0  0  0  0  0  0  0  0  0  0  0  0
  141.5526   72.2536  227.3026 H   0  0  0  0  0  0  0  0  0  0  0  0
  1  2  2  0
  2  3  1  0
  3  4  1  0
  4  5  1  0
  5  6  2  0
  5  7  1  0
  7  8  1  0
  8  9  1  0
  9 10  1  0
 10 11  1  0
 11 12  1  0
 12 13  1  0
 13 14  2  0
 14 15  1  0
 15 16  1  0
 16 17  2  0
 17 18  1  0
 18 19  2  0
 19 20  1  0
 20 21  2  0
 15 22  2  0
 22 23  1  0
  2 24  1  0
 24 25  2  0
 25 26  1  0
 26 27  2  0
 27 28  1  0
 28 29  2  0
 29 30  1  0
 29 31  1  0
 31 32  2  0
 32 33  1  0
 33 34  2  0
 12  7  1  0
 23 13  1  0
 34 24  1  0
 21 16  1  0
 33 27  1  0
  3 35  1  0
  4 36  1  0
  4 37  1  0
  8 38  1  0
  8 39  1  0
  9 40  1  0
  9 41  1  0
 10 42  1  0
 10 43  1  0
 11 44  1  0
 11 45  1  0
 12 46  1  6
 17 47  1  0
 18 48  1  0
 19 49  1  0
 20 50  1  0
 21 51  1  0
 22 52  1  0
 25 53  1  0
 26 54  1  0
 28 55  1  0
 31 56  1  0
 32 57  1  0
M  END
>  <smiles>  (20) 
O=C(NCC(=O)N1CCCC[C@H]1c1nc(-c2ccccc2)co1)c1ccc2cc(F)ccc2n1

>  <score_type>  (20) 
oracle

>  <origin>  (20) 
autodockgpu

>  <m_score__min__energy>  (20) 
-9.4100000000000001

>  <m_primary>  (20) 
energy

>  <rmsd>  (20) 
3.5840195842669345

>  <m_score__min__rmsd>  (20) 
3.5840195842669345

>  <meeko>  (20) 
{"free_energy": -8.93, "intermolecular_energy": -10.72, "internal_energy": -1.99, "cluster_size": 1, "cluster_id": 3, "rank_in_cluster": 1}

>  <energy>  (20) 
-8.65

>  <cluster_rmsd>  (20) 
1.82

>  <cluster>  (20) 
2

$$$$

     RDKit          3D

 57 61  0  0  0  0  0  0  0  0999 V2000
  136.4220   73.0130  222.4540 O   0  0  0  0  0  0  0  0  0  0  0  0
  137.4410   72.2590  222.4980 C   0  0  0  0  0  0  0  0  0  0  0  0
  137.3510   70.9150  222.9560 N   0  0  0  0  0  0  0  0  0  0  0  0
  136.0750   70.3360  223.4000 C   0  0  0  0  0  0  0  0  0  0  0  0
  135.9940   68.9190  223.1070 C   0  0  0  0  0  0  0  0  0  0  0  0
  134.9650   68.3100  223.6270 O   0  0  0  0  0  0  0  0  0  0  0  0
  136.8300   68.0830  222.3610 N   0  0  0  0  0  0  0  0  0  0  0  0
  136.1800   67.5700  221.1000 C   0  0  0  0  0  0  0  0  0  0  0  0
  137.0900   67.6420  219.9320 C   0  0  0  0  0  0  0  0  0  0  0  0
  138.5470   67.5920  220.1900 C   0  0  0  0  0  0  0  0  0  0  0  0
  138.9710   68.3010  221.4400 C   0  0  0  0  0  0  0  0  0  0  0  0
  138.1380   67.6140  222.5580 C   0  0  1  0  0  0  0  0  0  0  0  0
  138.8340   67.8400  223.8190 C   0  0  0  0  0  0  0  0  0  0  0  0
  139.1400   69.1160  224.2510 N   0  0  0  0  0  0  0  0  0  0  0  0
  139.7640   69.0540  225.4160 C   0  0  0  0  0  0  0  0  0  0  0  0
  140.2780   70.1480  226.2530 C   0  0  0  0  0  0  0  0  0  0  0  0
  139.9670   70.2240  227.5980 C   0  0  0  0  0  0  0  0  0  0  0  0
  140.4580   71.2580  228.3690 C   0  0  0  0  0  0  0  0  0  0  0  0
  141.2750   72.2520  227.8250 C   0  0  0  0  0  0  0  0  0  0  0  0
  141.5730   72.1610  226.4930 C   0  0  0  0  0  0  0  0  0  0  0  0
  141.0840   71.1240  225.7040 C   0  0  0  0  0  0  0  0  0  0  0  0
  139.8600   67.7190  225.7380 C   0  0  0  0  0  0  0  0  0  0  0  0
  139.2930   67.0800  224.7540 O   0  0  0  0  0  0  0  0  0  0  0  0
  138.7440   72.7910  222.0640 C   0  0  0  0  0  0  0  0  0  0  0  0
  138.9110   74.1410  221.8870 C   0  0  0  0  0  0  0  0  0  0  0  0
  140.1000   74.7150  221.4830 C   0  0  0  0  0  0  0  0  0  0  0  0
  141.1650   73.8740  221.2480 C   0  0  0  0  0  0  0  0  0  0  0  0
  142.3500   74.4400  220.8460 C   0  0  0  0  0  0  0  0  0  0  0  0
  143.4260   73.5880  220.6090 C   0  0  0  0  0  0  0  0  0  0  0  0
  144.5810   74.1920  220.2110 F   0  0  0  0  0  0  0  0  0  0  0  0
  143.3070   72.2280  220.7720 C   0  0  0  0  0  0  0  0  0  0  0  0
  142.0820   71.7010  221.1830 C   0  0  0  0  0  0  0  0  0  0  0  0
  140.9860   72.5170  221.4290 C   0  0  0  0  0  0  0  0  0  0  0  0
  139.8010   71.9880  221.8280 N   0  0  0  0  0  0  0  0  0  0  0  0
  138.2400   70.3630  222.9580 H   0  0  0  0  0  0  0  0  0  0  0  0
  135.9774   70.4808  224.4860 H   0  0  0  0  0  0  0  0  0  0  0  0
  135.2633   70.8433  222.8580 H   0  0  0  0  0  0  0  0  0  0  0  0
  135.8846   66.5218  221.2549 H   0  0  0  0  0  0  0  0  0  0  0  0
  135.3070   68.2047  220.8877 H   0  0  0  0  0  0  0  0  0  0  0  0
  136.8442   66.7973  219.2716 H   0  0  0  0  0  0  0  0  0  0  0  0
  136.9174   68.6416  219.5066 H   0  0  0  0  0  0  0  0  0  0  0  0
  138.8474   66.5370  220.2723 H   0  0  0  0  0  0  0  0  0  0  0  0
  139.0359   68.1084  219.3508 H   0  0  0  0  0  0  0  0  0  0  0  0
  140.0486   68.1703  221.6181 H   0  0  0  0  0  0  0  0  0  0  0  0
  138.8022   69.3869  221.3907 H   0  0  0  0  0  0  0  0  0  0  0  0
  138.0423   66.5182  222.5518 H   0  0  0  0  0  0  0  0  0  0  0  0
  139.3252   69.4568  228.0557 H   0  0  0  0  0  0  0  0  0  0  0  0
  140.1998   71.3005  229.4374 H   0  0  0  0  0  0  0  0  0  0  0  0
  141.6632   73.0750  228.4430 H   0  0  0  0  0  0  0  0  0  0  0  0
  142.2154   72.9269  226.0339 H   0  0  0  0  0  0  0  0  0  0  0  0
  141.3419   71.0822  224.6355 H   0  0  0  0  0  0  0  0  0  0  0  0
  140.3191   67.2830  226.6375 H   0  0  0  0  0  0  0  0  0  0  0  0
  138.0520   74.8013  222.0770 H   0  0  0  0  0  0  0  0  0  0  0  0
  140.1932   75.8034  221.3537 H   0  0  0  0  0  0  0  0  0  0  0  0
  142.4460   75.5280  220.7158 H   0  0  0  0  0  0  0  0  0  0  0  0
  144.1642   71.5656  220.5814 H   0  0  0  0  0  0  0  0  0  0  0  0
  141.9824   70.6135  221.3152 H   0  0  0  0  0  0  0  0  0  0  0  0
  1  2  2  0
  2  3  1  0
  3  4  1  0
  4  5  1  0
  5  6  2  0
  5  7  1  0
  7  8  1  0
  8  9  1  0
  9 10  1  0
 10 11  1  0
 11 12  1  0
 12 13  1  0
 13 14  2  0
 14 15  1  0
 15 16  1  0
 16 17  2  0
 17 18  1  0
 18 19  2  0
 19 20  1  0
 20 21  2  0
 15 22  2  0
 22 23  1  0
  2 24  1  0
 24 25  2  0
 25 26  1  0
 26 27  2  0
 27 28  1  0
 28 29  2  0
 29 30  1  0
 29 31  1  0
 31 32  2  0
 32 33  1  0
 33 34  2  0
 12  7  1  0
 23 13  1  0
 34 24  1  0
 21 16  1  0
 33 27  1  0
  3 35  1  0
  4 36  1  0
  4 37  1  0
  8 38  1  0
  8 39  1  0
  9 40  1  0
  9 41  1  0
 10 42  1  0
 10 43  1  0
 11 44  1  0
 11 45  1  0
 12 46  1  6
 17 47  1  0
 18 48  1  0
 19 49  1  0
 20 50  1  0
 21 51  1  0
 22 52  1  0
 25 53  1  0
 26 54  1  0
 28 55  1  0
 31 56  1  0
 32 57  1  0
M  END
>  <smiles>  (21) 
O=C(NCC(=O)N1CCCC[C@H]1c1nc(-c2ccccc2)co1)c1ccc2cc(F)ccc2n1

>  <score_type>  (21) 
oracle

>  <origin>  (21) 
autodockgpu

>  <m_score__min__energy>  (21) 
-9.4100000000000001

>  <m_primary>  (21) 
energy

>  <rmsd>  (21) 
8.988542005852274

>  <m_score__min__rmsd>  (21) 
8.988542005852274

>  <meeko>  (21) 
{"free_energy": -7.77, "intermolecular_energy": -9.56, "internal_energy": -3.46, "cluster_size": 1, "cluster_id": 7, "rank_in_cluster": 1}

>  <energy>  (21) 
-8.63

>  <cluster_rmsd>  (21) 
1.3

>  <cluster>  (21) 
2

$$$$

     RDKit          3D

 57 61  0  0  0  0  0  0  0  0999 V2000
  141.0470   72.6660  221.7090 O   0  0  0  0  0  0  0  0  0  0  0  0
  140.0600   72.6080  222.5030 C   0  0  0  0  0  0  0  0  0  0  0  0
  138.9460   73.4830  222.3680 N   0  0  0  0  0  0  0  0  0  0  0  0
  138.8850   74.4940  221.3020 C   0  0  0  0  0  0  0  0  0  0  0  0
  138.6960   75.8280  221.8340 C   0  0  0  0  0  0  0  0  0  0  0  0
  137.8100   75.9190  222.7860 O   0  0  0  0  0  0  0  0  0  0  0  0
  139.2980   77.0460  221.5030 N   0  0  0  0  0  0  0  0  0  0  0  0
  138.5130   78.2420  221.9820 C   0  0  0  0  0  0  0  0  0  0  0  0
  139.3810   79.2710  222.6010 C   0  0  0  0  0  0  0  0  0  0  0  0
  140.7950   79.3310  222.1660 C   0  0  0  0  0  0  0  0  0  0  0  0
  141.4050   77.9920  221.8840 C   0  0  0  0  0  0  0  0  0  0  0  0
  140.4690   77.3770  220.8060 C   0  0  1  0  0  0  0  0  0  0  0  0
  141.2350   76.3570  220.0970 C   0  0  0  0  0  0  0  0  0  0  0  0
  142.3480   75.7720  220.6680 N   0  0  0  0  0  0  0  0  0  0  0  0
  142.8600   74.8820  219.8330 C   0  0  0  0  0  0  0  0  0  0  0  0
  144.0370   74.0180  220.0040 C   0  0  0  0  0  0  0  0  0  0  0  0
  144.0650   72.7390  219.4820 C   0  0  0  0  0  0  0  0  0  0  0  0
  145.1800   71.9410  219.6520 C   0  0  0  0  0  0  0  0  0  0  0  0
  146.3030   72.3920  220.3500 C   0  0  0  0  0  0  0  0  0  0  0  0
  146.2570   73.6620  220.8590 C   0  0  0  0  0  0  0  0  0  0  0  0
  145.1410   74.4760  220.6960 C   0  0  0  0  0  0  0  0  0  0  0  0
  142.0640   74.8960  218.7100 C   0  0  0  0  0  0  0  0  0  0  0  0
  141.1400   75.7840  218.9470 O   0  0  0  0  0  0  0  0  0  0  0  0
  140.0720   71.6130  223.5880 C   0  0  0  0  0  0  0  0  0  0  0  0
  139.5820   70.3510  223.3700 C   0  0  0  0  0  0  0  0  0  0  0  0
  139.5580   69.3650  224.3360 C   0  0  0  0  0  0  0  0  0  0  0  0
  140.0570   69.6810  225.5800 C   0  0  0  0  0  0  0  0  0  0  0  0
  140.0360   68.7040  226.5440 C   0  0  0  0  0  0  0  0  0  0  0  0
  140.5410   69.0240  227.8020 C   0  0  0  0  0  0  0  0  0  0  0  0
  140.5010   68.0250  228.7280 F   0  0  0  0  0  0  0  0  0  0  0  0
  141.0440   70.2760  228.0690 C   0  0  0  0  0  0  0  0  0  0  0  0
  141.0430   71.2350  227.0560 C   0  0  0  0  0  0  0  0  0  0  0  0
  140.5490   70.9540  225.7900 C   0  0  0  0  0  0  0  0  0  0  0  0
  140.5560   71.8990  224.8150 N   0  0  0  0  0  0  0  0  0  0  0  0
  138.1750   73.3670  223.0650 H   0  0  0  0  0  0  0  0  0  0  0  0
  139.8259   74.4680  220.7327 H   0  0  0  0  0  0  0  0  0  0  0  0
  138.0253   74.2587  220.6573 H   0  0  0  0  0  0  0  0  0  0  0  0
  137.9904   78.6894  221.1237 H   0  0  0  0  0  0  0  0  0  0  0  0
  137.8030   77.8950  222.7471 H   0  0  0  0  0  0  0  0  0  0  0  0
  138.9302   80.2518  222.3891 H   0  0  0  0  0  0  0  0  0  0  0  0
  139.4287   78.9917  223.6639 H   0  0  0  0  0  0  0  0  0  0  0  0
  140.8489   79.9354  221.2485 H   0  0  0  0  0  0  0  0  0  0  0  0
  141.3647   79.7705  222.9980 H   0  0  0  0  0  0  0  0  0  0  0  0
  142.4290   78.1016  221.4973 H   0  0  0  0  0  0  0  0  0  0  0  0
  141.4873   77.3644  222.7836 H   0  0  0  0  0  0  0  0  0  0  0  0
  140.1252   78.0120  219.9762 H   0  0  0  0  0  0  0  0  0  0  0  0
  143.1957   72.3544  218.9286 H   0  0  0  0  0  0  0  0  0  0  0  0
  145.1836   70.9262  219.2275 H   0  0  0  0  0  0  0  0  0  0  0  0
  147.1880   71.7528  220.4851 H   0  0  0  0  0  0  0  0  0  0  0  0
  147.1258   74.0490  221.4116 H   0  0  0  0  0  0  0  0  0  0  0  0
  145.1377   75.4907  221.1208 H   0  0  0  0  0  0  0  0  0  0  0  0
  142.1829   74.2856  217.8027 H   0  0  0  0  0  0  0  0  0  0  0  0
  139.1868   70.1114  222.3718 H   0  0  0  0  0  0  0  0  0  0  0  0
  139.1553   68.3644  224.1201 H   0  0  0  0  0  0  0  0  0  0  0  0
  139.6341   67.7026  226.3303 H   0  0  0  0  0  0  0  0  0  0  0  0
  141.4410   70.5174  229.0661 H   0  0  0  0  0  0  0  0  0  0  0  0
  141.4433   72.2379  227.2657 H   0  0  0  0  0  0  0  0  0  0  0  0
  1  2  2  0
  2  3  1  0
  3  4  1  0
  4  5  1  0
  5  6  2  0
  5  7  1  0
  7  8  1  0
  8  9  1  0
  9 10  1  0
 10 11  1  0
 11 12  1  0
 12 13  1  0
 13 14  2  0
 14 15  1  0
 15 16  1  0
 16 17  2  0
 17 18  1  0
 18 19  2  0
 19 20  1  0
 20 21  2  0
 15 22  2  0
 22 23  1  0
  2 24  1  0
 24 25  2  0
 25 26  1  0
 26 27  2  0
 27 28  1  0
 28 29  2  0
 29 30  1  0
 29 31  1  0
 31 32  2  0
 32 33  1  0
 33 34  2  0
 12  7  1  0
 23 13  1  0
 34 24  1  0
 21 16  1  0
 33 27  1  0
  3 35  1  0
  4 36  1  0
  4 37  1  0
  8 38  1  0
  8 39  1  0
  9 40  1  0
  9 41  1  0
 10 42  1  0
 10 43  1  0
 11 44  1  0
 11 45  1  0
 12 46  1  6
 17 47  1  0
 18 48  1  0
 19 49  1  0
 20 50  1  0
 21 51  1  0
 22 52  1  0
 25 53  1  0
 26 54  1  0
 28 55  1  0
 31 56  1  0
 32 57  1  0
M  END
>  <smiles>  (22) 
O=C(NCC(=O)N1CCCC[C@H]1c1nc(-c2ccccc2)co1)c1ccc2cc(F)ccc2n1

>  <score_type>  (22) 
oracle

>  <origin>  (22) 
autodockgpu

>  <m_score__min__energy>  (22) 
-9.4100000000000001

>  <m_primary>  (22) 
energy

>  <rmsd>  (22) 
5.429016989273929

>  <m_score__min__rmsd>  (22) 
5.429016989273929

>  <meeko>  (22) 
{"free_energy": -8.91, "intermolecular_energy": -10.7, "internal_energy": -2.16, "cluster_size": 15, "cluster_id": 1, "rank_in_cluster": 10}

>  <energy>  (22) 
-8.32

>  <cluster_rmsd>  (22) 
1.19

>  <cluster>  (22) 
2

$$$$

     RDKit          3D

 57 61  0  0  0  0  0  0  0  0999 V2000
  140.0380   73.0330  222.7480 O   0  0  0  0  0  0  0  0  0  0  0  0
  140.1050   71.7700  222.8380 C   0  0  0  0  0  0  0  0  0  0  0  0
  140.0490   70.9390  221.6840 N   0  0  0  0  0  0  0  0  0  0  0  0
  139.9110   71.5040  220.3340 C   0  0  0  0  0  0  0  0  0  0  0  0
  141.1900   71.8970  219.7790 C   0  0  0  0  0  0  0  0  0  0  0  0
  141.3490   71.6170  218.5150 O   0  0  0  0  0  0  0  0  0  0  0  0
  142.2940   72.5270  220.3630 N   0  0  0  0  0  0  0  0  0  0  0  0
  143.4840   71.6120  220.5150 C   0  0  0  0  0  0  0  0  0  0  0  0
  144.7490   72.2670  220.1070 C   0  0  0  0  0  0  0  0  0  0  0  0
  144.8230   73.7420  220.2040 C   0  0  0  0  0  0  0  0  0  0  0  0
  143.5430   74.4420  219.8630 C   0  0  0  0  0  0  0  0  0  0  0  0
  142.5090   73.8260  220.8470 C   0  0  1  0  0  0  0  0  0  0  0  0
  141.4080   74.7740  220.9690 C   0  0  0  0  0  0  0  0  0  0  0  0
  141.4740   75.8400  221.8460 N   0  0  0  0  0  0  0  0  0  0  0  0
  140.3600   76.5490  221.7680 C   0  0  0  0  0  0  0  0  0  0  0  0
  139.9790   77.7630  222.5050 C   0  0  0  0  0  0  0  0  0  0  0  0
  138.6550   78.1450  222.6160 C   0  0  0  0  0  0  0  0  0  0  0  0
  138.3150   79.2870  223.3120 C   0  0  0  0  0  0  0  0  0  0  0  0
  139.2840   80.0880  223.9220 C   0  0  0  0  0  0  0  0  0  0  0  0
  140.5900   79.6940  223.8030 C   0  0  0  0  0  0  0  0  0  0  0  0
  140.9460   78.5460  223.1030 C   0  0  0  0  0  0  0  0  0  0  0  0
  139.5670   75.9310  220.8280 C   0  0  0  0  0  0  0  0  0  0  0  0
  140.2530   74.9040  220.4120 O   0  0  0  0  0  0  0  0  0  0  0  0
  140.2440   71.1540  224.1680 C   0  0  0  0  0  0  0  0  0  0  0  0
  140.7320   71.8880  225.2190 C   0  0  0  0  0  0  0  0  0  0  0  0
  140.8910   71.3810  226.4940 C   0  0  0  0  0  0  0  0  0  0  0  0
  140.5370   70.0680  226.7050 C   0  0  0  0  0  0  0  0  0  0  0  0
  140.6940   69.5590  227.9700 C   0  0  0  0  0  0  0  0  0  0  0  0
  140.3360   68.2300  228.1830 C   0  0  0  0  0  0  0  0  0  0  0  0
  140.5070   67.7670  229.4530 F   0  0  0  0  0  0  0  0  0  0  0  0
  139.8410   67.4540  227.1610 C   0  0  0  0  0  0  0  0  0  0  0  0
  139.7010   68.0160  225.8920 C   0  0  0  0  0  0  0  0  0  0  0  0
  140.0470   69.3370  225.6410 C   0  0  0  0  0  0  0  0  0  0  0  0
  139.9040   69.8690  224.3990 N   0  0  0  0  0  0  0  0  0  0  0  0
  140.1130   69.9080  221.8480 H   0  0  0  0  0  0  0  0  0  0  0  0
  139.4555   70.7483  219.6772 H   0  0  0  0  0  0  0  0  0  0  0  0
  139.2794   72.4019  220.4034 H   0  0  0  0  0  0  0  0  0  0  0  0
  143.5658   71.3093  221.5694 H   0  0  0  0  0  0  0  0  0  0  0  0
  143.3273   70.7423  219.8600 H   0  0  0  0  0  0  0  0  0  0  0  0
  145.5503   71.8557  220.7385 H   0  0  0  0  0  0  0  0  0  0  0  0
  144.8374   72.0546  219.0313 H   0  0  0  0  0  0  0  0  0  0  0  0
  145.0976   74.0071  221.2357 H   0  0  0  0  0  0  0  0  0  0  0  0
  145.5708   74.0714  219.4676 H   0  0  0  0  0  0  0  0  0  0  0  0
  143.6357   75.5267  220.0206 H   0  0  0  0  0  0  0  0  0  0  0  0
  143.2558   74.3132  218.8090 H   0  0  0  0  0  0  0  0  0  0  0  0
  142.7954   73.6842  221.8996 H   0  0  0  0  0  0  0  0  0  0  0  0
  137.8685   77.5355  222.1471 H   0  0  0  0  0  0  0  0  0  0  0  0
  137.2558   79.5737  223.3885 H   0  0  0  0  0  0  0  0  0  0  0  0
  139.0088   80.9980  224.4753 H   0  0  0  0  0  0  0  0  0  0  0  0
  141.3778   80.3010  224.2730 H   0  0  0  0  0  0  0  0  0  0  0  0
  142.0053   78.2600  223.0254 H   0  0  0  0  0  0  0  0  0  0  0  0
  138.5643   76.2393  220.4972 H   0  0  0  0  0  0  0  0  0  0  0  0
  141.0116   72.9362  225.0368 H   0  0  0  0  0  0  0  0  0  0  0  0
  141.2859   72.0036  227.3103 H   0  0  0  0  0  0  0  0  0  0  0  0
  141.0891   70.1796  228.7877 H   0  0  0  0  0  0  0  0  0  0  0  0
  139.5598   66.4060  227.3416 H   0  0  0  0  0  0  0  0  0  0  0  0
  139.3074   67.3984  225.0712 H   0  0  0  0  0  0  0  0  0  0  0  0
  1  2  2  0
  2  3  1  0
  3  4  1  0
  4  5  1  0
  5  6  2  0
  5  7  1  0
  7  8  1  0
  8  9  1  0
  9 10  1  0
 10 11  1  0
 11 12  1  0
 12 13  1  0
 13 14  2  0
 14 15  1  0
 15 16  1  0
 16 17  2  0
 17 18  1  0
 18 19  2  0
 19 20  1  0
 20 21  2  0
 15 22  2  0
 22 23  1  0
  2 24  1  0
 24 25  2  0
 25 26  1  0
 26 27  2  0
 27 28  1  0
 28 29  2  0
 29 30  1  0
 29 31  1  0
 31 32  2  0
 32 33  1  0
 33 34  2  0
 12  7  1  0
 23 13  1  0
 34 24  1  0
 21 16  1  0
 33 27  1  0
  3 35  1  0
  4 36  1  0
  4 37  1  0
  8 38  1  0
  8 39  1  0
  9 40  1  0
  9 41  1  0
 10 42  1  0
 10 43  1  0
 11 44  1  0
 11 45  1  0
 12 46  1  1
 17 47  1  0
 18 48  1  0
 19 49  1  0
 20 50  1  0
 21 51  1  0
 22 52  1  0
 25 53  1  0
 26 54  1  0
 28 55  1  0
 31 56  1  0
 32 57  1  0
M  END
>  <smiles>  (23) 
O=C(NCC(=O)N1CCCC[C@H]1c1nc(-c2ccccc2)co1)c1ccc2cc(F)ccc2n1

>  <score_type>  (23) 
oracle

>  <origin>  (23) 
autodockgpu

>  <m_score__min__energy>  (23) 
-9.4100000000000001

>  <m_primary>  (23) 
energy

>  <rmsd>  (23) 
4.093586495318253

>  <m_score__min__rmsd>  (23) 
4.093586495318253

>  <meeko>  (23) 
{"free_energy": -8.9, "intermolecular_energy": -10.69, "internal_energy": -2.25, "cluster_size": 8, "cluster_id": 2, "rank_in_cluster": 3}

>  <energy>  (23) 
-8.19

>  <cluster_rmsd>  (23) 
1.42

>  <cluster>  (23) 
2

$$$$

     RDKit          3D

 57 61  0  0  0  0  0  0  0  0999 V2000
  138.7300   70.4930  221.4230 O   0  0  0  0  0  0  0  0  0  0  0  0
  138.9770   71.3940  222.2810 C   0  0  0  0  0  0  0  0  0  0  0  0
  138.7620   72.7710  221.9950 N   0  0  0  0  0  0  0  0  0  0  0  0
  138.2440   73.2150  220.6930 C   0  0  0  0  0  0  0  0  0  0  0  0
  139.2350   73.0870  219.6440 C   0  0  0  0  0  0  0  0  0  0  0  0
  138.7480   72.8880  218.4510 O   0  0  0  0  0  0  0  0  0  0  0  0
  140.6320   73.1360  219.6850 N   0  0  0  0  0  0  0  0  0  0  0  0
  141.2850   71.9660  218.9930 C   0  0  0  0  0  0  0  0  0  0  0  0
  142.4200   72.3840  218.1370 C   0  0  0  0  0  0  0  0  0  0  0  0
  143.1290   73.6330  218.4950 C   0  0  0  0  0  0  0  0  0  0  0  0
  142.2370   74.7100  219.0320 C   0  0  0  0  0  0  0  0  0  0  0  0
  141.5410   74.0430  220.2510 C   0  0  1  0  0  0  0  0  0  0  0  0
  141.0860   75.1130  221.1310 C   0  0  0  0  0  0  0  0  0  0  0  0
  141.6500   76.3730  221.0780 N   0  0  0  0  0  0  0  0  0  0  0  0
  141.0650   77.1600  221.9660 C   0  0  0  0  0  0  0  0  0  0  0  0
  141.3290   78.5740  222.2690 C   0  0  0  0  0  0  0  0  0  0  0  0
  141.2610   79.5400  221.2820 C   0  0  0  0  0  0  0  0  0  0  0  0
  141.5120   80.8630  221.5850 C   0  0  0  0  0  0  0  0  0  0  0  0
  141.8410   81.2690  222.8810 C   0  0  0  0  0  0  0  0  0  0  0  0
  141.9040   80.2990  223.8450 C   0  0  0  0  0  0  0  0  0  0  0  0
  141.6530   78.9620  223.5540 C   0  0  0  0  0  0  0  0  0  0  0  0
  140.1120   76.3950  222.5990 C   0  0  0  0  0  0  0  0  0  0  0  0
  140.1900   75.2150  222.0520 O   0  0  0  0  0  0  0  0  0  0  0  0
  139.4980   71.0010  223.6010 C   0  0  0  0  0  0  0  0  0  0  0  0
  140.2770   71.8720  224.3200 C   0  0  0  0  0  0  0  0  0  0  0  0
  140.8020   71.5770  225.5630 C   0  0  0  0  0  0  0  0  0  0  0  0
  140.5200   70.3400  226.0950 C   0  0  0  0  0  0  0  0  0  0  0  0
  141.0400   70.0410  227.3300 C   0  0  0  0  0  0  0  0  0  0  0  0
  140.7540   68.7880  227.8680 C   0  0  0  0  0  0  0  0  0  0  0  0
  141.2900   68.5350  229.0950 F   0  0  0  0  0  0  0  0  0  0  0  0
  139.9780   67.8810  227.1850 C   0  0  0  0  0  0  0  0  0  0  0  0
  139.4730   68.2310  225.9330 C   0  0  0  0  0  0  0  0  0  0  0  0
  139.7350   69.4700  225.3640 C   0  0  0  0  0  0  0  0  0  0  0  0
  139.2360   69.7950  224.1430 N   0  0  0  0  0  0  0  0  0  0  0  0
  138.9910   73.4470  222.7590 H   0  0  0  0  0  0  0  0  0  0  0  0
  137.3684   72.6028  220.4313 H   0  0  0  0  0  0  0  0  0  0  0  0
  137.9742   74.2779  220.7785 H   0  0  0  0  0  0  0  0  0  0  0  0
  141.6558   71.2653  219.7556 H   0  0  0  0  0  0  0  0  0  0  0  0
  140.5313   71.4924  218.3467 H   0  0  0  0  0  0  0  0  0  0  0  0
  143.1600   71.5703  218.1524 H   0  0  0  0  0  0  0  0  0  0  0  0
  141.9664   72.5933  217.1570 H   0  0  0  0  0  0  0  0  0  0  0  0
  143.8827   73.3953  219.2601 H   0  0  0  0  0  0  0  0  0  0  0  0
  143.5736   74.0225  217.5673 H   0  0  0  0  0  0  0  0  0  0  0  0
  142.8250   75.5847  219.3470 H   0  0  0  0  0  0  0  0  0  0  0  0
  141.5206   75.0807  218.2840 H   0  0  0  0  0  0  0  0  0  0  0  0
  142.1446   73.4338  220.9399 H   0  0  0  0  0  0  0  0  0  0  0  0
  141.0059   79.2530  220.2512 H   0  0  0  0  0  0  0  0  0  0  0  0
  141.4515   81.6168  220.7862 H   0  0  0  0  0  0  0  0  0  0  0  0
  142.0411   82.3246  223.1169 H   0  0  0  0  0  0  0  0  0  0  0  0
  142.1597   80.5841  224.8762 H   0  0  0  0  0  0  0  0  0  0  0  0
  141.7131   78.2086  224.3532 H   0  0  0  0  0  0  0  0  0  0  0  0
  139.4276   76.7132  223.3993 H   0  0  0  0  0  0  0  0  0  0  0  0
  140.4950   72.8578  223.8833 H   0  0  0  0  0  0  0  0  0  0  0  0
  141.4225   72.3041  226.1073 H   0  0  0  0  0  0  0  0  0  0  0  0
  141.6613   70.7661  227.8762 H   0  0  0  0  0  0  0  0  0  0  0  0
  139.7590   66.8945  227.6196 H   0  0  0  0  0  0  0  0  0  0  0  0
  138.8523   67.5082  225.3832 H   0  0  0  0  0  0  0  0  0  0  0  0
  1  2  2  0
  2  3  1  0
  3  4  1  0
  4  5  1  0
  5  6  2  0
  5  7  1  0
  7  8  1  0
  8  9  1  0
  9 10  1  0
 10 11  1  0
 11 12  1  0
 12 13  1  0
 13 14  2  0
 14 15  1  0
 15 16  1  0
 16 17  2  0
 17 18  1  0
 18 19  2  0
 19 20  1  0
 20 21  2  0
 15 22  2  0
 22 23  1  0
  2 24  1  0
 24 25  2  0
 25 26  1  0
 26 27  2  0
 27 28  1  0
 28 29  2  0
 29 30  1  0
 29 31  1  0
 31 32  2  0
 32 33  1  0
 33 34  2  0
 12  7  1  0
 23 13  1  0
 34 24  1  0
 21 16  1  0
 33 27  1  0
  3 35  1  0
  4 36  1  0
  4 37  1  0
  8 38  1  0
  8 39  1  0
  9 40  1  0
  9 41  1  0
 10 42  1  0
 10 43  1  0
 11 44  1  0
 11 45  1  0
 12 46  1  1
 17 47  1  0
 18 48  1  0
 19 49  1  0
 20 50  1  0
 21 51  1  0
 22 52  1  0
 25 53  1  0
 26 54  1  0
 28 55  1  0
 31 56  1  0
 32 57  1  0
M  END
>  <smiles>  (24) 
O=C(NCC(=O)N1CCCC[C@H]1c1nc(-c2ccccc2)co1)c1ccc2cc(F)ccc2n1

>  <score_type>  (24) 
oracle

>  <origin>  (24) 
autodockgpu

>  <m_score__min__energy>  (24) 
-9.4100000000000001

>  <m_primary>  (24) 
energy

>  <rmsd>  (24) 
3.3422616764646684

>  <m_score__min__rmsd>  (24) 
3.3422616764646684

>  <meeko>  (24) 
{"free_energy": -8.68, "intermolecular_energy": -10.47, "internal_energy": -2.52, "cluster_size": 8, "cluster_id": 2, "rank_in_cluster": 4}

>  <energy>  (24) 
-8.93

>  <cluster_rmsd>  (24) 
0.0

>  <cluster>  (24) 
3

$$$$

     RDKit          3D

 57 61  0  0  0  0  0  0  0  0999 V2000
  140.7720   73.8480  222.0550 O   0  0  0  0  0  0  0  0  0  0  0  0
  139.6480   73.3350  222.3420 C   0  0  0  0  0  0  0  0  0  0  0  0
  138.4270   73.9580  221.9600 N   0  0  0  0  0  0  0  0  0  0  0  0
  138.4100   75.2250  221.2150 C   0  0  0  0  0  0  0  0  0  0  0  0
  138.3390   76.3710  222.0990 C   0  0  0  0  0  0  0  0  0  0  0  0
  137.5100   76.2420  223.0980 O   0  0  0  0  0  0  0  0  0  0  0  0
  139.0050   77.6000  222.0710 N   0  0  0  0  0  0  0  0  0  0  0  0
  138.2410   78.7010  222.7630 C   0  0  0  0  0  0  0  0  0  0  0  0
  139.1140   79.5270  223.6310 C   0  0  0  0  0  0  0  0  0  0  0  0
  140.5510   79.6090  223.2850 C   0  0  0  0  0  0  0  0  0  0  0  0
  141.1230   78.3340  222.7450 C   0  0  0  0  0  0  0  0  0  0  0  0
  140.2250   78.0140  221.5170 C   0  0  1  0  0  0  0  0  0  0  0  0
  140.9880   77.1360  220.6380 C   0  0  0  0  0  0  0  0  0  0  0  0
  141.8340   76.1710  221.1480 N   0  0  0  0  0  0  0  0  0  0  0  0
  142.4030   75.5070  220.1550 C   0  0  0  0  0  0  0  0  0  0  0  0
  143.3690   74.4000  220.2120 C   0  0  0  0  0  0  0  0  0  0  0  0
  144.7140   74.6380  220.4240 C   0  0  0  0  0  0  0  0  0  0  0  0
  145.6070   73.5860  220.4740 C   0  0  0  0  0  0  0  0  0  0  0  0
  145.1900   72.2620  220.3140 C   0  0  0  0  0  0  0  0  0  0  0  0
  143.8550   72.0470  220.1050 C   0  0  0  0  0  0  0  0  0  0  0  0
  142.9440   73.0970  220.0520 C   0  0  0  0  0  0  0  0  0  0  0  0
  141.9160   76.0530  218.9900 C   0  0  0  0  0  0  0  0  0  0  0  0
  141.0960   76.9970  219.3610 O   0  0  0  0  0  0  0  0  0  0  0  0
  139.6110   72.0660  223.0880 C   0  0  0  0  0  0  0  0  0  0  0  0
  138.7770   71.0540  222.6840 C   0  0  0  0  0  0  0  0  0  0  0  0
  138.6860   69.8380  223.3310 C   0  0  0  0  0  0  0  0  0  0  0  0
  139.4800   69.6450  224.4380 C   0  0  0  0  0  0  0  0  0  0  0  0
  139.3930   68.4370  225.0850 C   0  0  0  0  0  0  0  0  0  0  0  0
  140.1970   68.2430  226.2060 C   0  0  0  0  0  0  0  0  0  0  0  0
  140.0790   67.0310  226.8160 F   0  0  0  0  0  0  0  0  0  0  0  0
  141.0490   69.2270  226.6490 C   0  0  0  0  0  0  0  0  0  0  0  0
  141.1020   70.4380  225.9590 C   0  0  0  0  0  0  0  0  0  0  0  0
  140.3160   70.6690  224.8370 C   0  0  0  0  0  0  0  0  0  0  0  0
  140.3790   71.8540  224.1760 N   0  0  0  0  0  0  0  0  0  0  0  0
  137.5470   73.4670  222.2360 H   0  0  0  0  0  0  0  0  0  0  0  0
  139.3283   75.2962  220.6136 H   0  0  0  0  0  0  0  0  0  0  0  0
  137.5152   75.2322  220.5752 H   0  0  0  0  0  0  0  0  0  0  0  0
  137.7843   79.3489  222.0004 H   0  0  0  0  0  0  0  0  0  0  0  0
  137.4761   78.2330  223.4001 H   0  0  0  0  0  0  0  0  0  0  0  0
  138.7143   80.5517  223.6185 H   0  0  0  0  0  0  0  0  0  0  0  0
  139.0922   79.0216  224.6078 H   0  0  0  0  0  0  0  0  0  0  0  0
  140.6793   80.3943  222.5255 H   0  0  0  0  0  0  0  0  0  0  0  0
  141.0903   79.8289  224.2182 H   0  0  0  0  0  0  0  0  0  0  0  0
  142.1703   78.4734  222.4387 H   0  0  0  0  0  0  0  0  0  0  0  0
  141.1308   77.5233  223.4885 H   0  0  0  0  0  0  0  0  0  0  0  0
  139.9526   78.8294  220.8307 H   0  0  0  0  0  0  0  0  0  0  0  0
  145.0743   75.6692  220.5533 H   0  0  0  0  0  0  0  0  0  0  0  0
  146.6734   73.7955  220.6441 H   0  0  0  0  0  0  0  0  0  0  0  0
  145.9053   71.4273  220.3544 H   0  0  0  0  0  0  0  0  0  0  0  0
  143.4925   71.0166  219.9754 H   0  0  0  0  0  0  0  0  0  0  0  0
  141.8778   72.8871  219.8814 H   0  0  0  0  0  0  0  0  0  0  0  0
  142.1659   75.7556  217.9609 H   0  0  0  0  0  0  0  0  0  0  0  0
  138.1475   71.2206  221.7975 H   0  0  0  0  0  0  0  0  0  0  0  0
  138.0038   69.0522  222.9746 H   0  0  0  0  0  0  0  0  0  0  0  0
  138.7118   67.6495  224.7303 H   0  0  0  0  0  0  0  0  0  0  0  0
  141.6798   69.0616  227.5349 H   0  0  0  0  0  0  0  0  0  0  0  0
  141.7816   71.2281  226.3112 H   0  0  0  0  0  0  0  0  0  0  0  0
  1  2  2  0
  2  3  1  0
  3  4  1  0
  4  5  1  0
  5  6  2  0
  5  7  1  0
  7  8  1  0
  8  9  1  0
  9 10  1  0
 10 11  1  0
 11 12  1  0
 12 13  1  0
 13 14  2  0
 14 15  1  0
 15 16  1  0
 16 17  2  0
 17 18  1  0
 18 19  2  0
 19 20  1  0
 20 21  2  0
 15 22  2  0
 22 23  1  0
  2 24  1  0
 24 25  2  0
 25 26  1  0
 26 27  2  0
 27 28  1  0
 28 29  2  0
 29 30  1  0
 29 31  1  0
 31 32  2  0
 32 33  1  0
 33 34  2  0
 12  7  1  0
 23 13  1  0
 34 24  1  0
 21 16  1  0
 33 27  1  0
  3 35  1  0
  4 36  1  0
  4 37  1  0
  8 38  1  0
  8 39  1  0
  9 40  1  0
  9 41  1  0
 10 42  1  0
 10 43  1  0
 11 44  1  0
 11 45  1  0
 12 46  1  6
 17 47  1  0
 18 48  1  0
 19 49  1  0
 20 50  1  0
 21 51  1  0
 22 52  1  0
 25 53  1  0
 26 54  1  0
 28 55  1  0
 31 56  1  0
 32 57  1  0
M  END
>  <smiles>  (25) 
O=C(NCC(=O)N1CCCC[C@H]1c1nc(-c2ccccc2)co1)c1ccc2cc(F)ccc2n1

>  <score_type>  (25) 
oracle

>  <origin>  (25) 
autodockgpu

>  <m_score__min__energy>  (25) 
-9.4100000000000001

>  <m_primary>  (25) 
energy

>  <rmsd>  (25) 
5.552240092220082

>  <m_score__min__rmsd>  (25) 
5.552240092220082

>  <meeko>  (25) 
{"free_energy": -8.6, "intermolecular_energy": -10.39, "internal_energy": -2.21, "cluster_size": 15, "cluster_id": 1, "rank_in_cluster": 12}

>  <energy>  (25) 
-8.74

>  <cluster_rmsd>  (25) 
0.0

>  <cluster>  (25) 
4

$$$$

     RDKit          3D

 57 61  0  0  0  0  0  0  0  0999 V2000
  139.8650   74.1120  221.9120 O   0  0  0  0  0  0  0  0  0  0  0  0
  140.2680   75.3070  221.7780 C   0  0  0  0  0  0  0  0  0  0  0  0
  141.5590   75.6010  221.2560 N   0  0  0  0  0  0  0  0  0  0  0  0
  142.4850   74.5360  220.8460 C   0  0  0  0  0  0  0  0  0  0  0  0
  143.4310   74.9960  219.8500 C   0  0  0  0  0  0  0  0  0  0  0  0
  144.6600   75.1100  220.2710 O   0  0  0  0  0  0  0  0  0  0  0  0
  143.2580   75.3430  218.5070 N   0  0  0  0  0  0  0  0  0  0  0  0
  144.0720   74.4890  217.5660 C   0  0  0  0  0  0  0  0  0  0  0  0
  143.2900   74.0550  216.3850 C   0  0  0  0  0  0  0  0  0  0  0  0
  142.1590   74.9090  215.9560 C   0  0  0  0  0  0  0  0  0  0  0  0
  141.4070   75.5410  217.0880 C   0  0  0  0  0  0  0  0  0  0  0  0
  142.4980   76.3310  217.8640 C   0  0  1  0  0  0  0  0  0  0  0  0
  141.8190   77.3720  218.6270 C   0  0  0  0  0  0  0  0  0  0  0  0
  142.4250   77.9760  219.7120 N   0  0  0  0  0  0  0  0  0  0  0  0
  141.6110   78.8830  220.2280 C   0  0  0  0  0  0  0  0  0  0  0  0
  141.8220   79.7690  221.3820 C   0  0  0  0  0  0  0  0  0  0  0  0
  142.5230   79.3380  222.4930 C   0  0  0  0  0  0  0  0  0  0  0  0
  142.7120   80.1830  223.5680 C   0  0  0  0  0  0  0  0  0  0  0  0
  142.2080   81.4870  223.5720 C   0  0  0  0  0  0  0  0  0  0  0  0
  141.5180   81.8950  222.4640 C   0  0  0  0  0  0  0  0  0  0  0  0
  141.3200   81.0540  221.3730 C   0  0  0  0  0  0  0  0  0  0  0  0
  140.4670   78.8620  219.4640 C   0  0  0  0  0  0  0  0  0  0  0  0
  140.6710   77.9540  218.5520 O   0  0  0  0  0  0  0  0  0  0  0  0
  139.3780   76.4110  222.1750 C   0  0  0  0  0  0  0  0  0  0  0  0
  138.0270   76.3180  221.9570 C   0  0  0  0  0  0  0  0  0  0  0  0
  137.1300   77.3100  222.3000 C   0  0  0  0  0  0  0  0  0  0  0  0
  137.6340   78.4460  222.8910 C   0  0  0  0  0  0  0  0  0  0  0  0
  136.7460   79.4360  223.2340 C   0  0  0  0  0  0  0  0  0  0  0  0
  137.2560   80.5860  223.8320 C   0  0  0  0  0  0  0  0  0  0  0  0
  136.3410   81.5410  224.1560 F   0  0  0  0  0  0  0  0  0  0  0  0
  138.6040   80.7250  224.0710 C   0  0  0  0  0  0  0  0  0  0  0  0
  139.4660   79.6920  223.7050 C   0  0  0  0  0  0  0  0  0  0  0  0
  138.9950   78.5310  223.1070 C   0  0  0  0  0  0  0  0  0  0  0  0
  139.8480   77.5340  222.7550 N   0  0  0  0  0  0  0  0  0  0  0  0
  141.8110   76.6130  221.1790 H   0  0  0  0  0  0  0  0  0  0  0  0
  143.0401   74.1879  221.7296 H   0  0  0  0  0  0  0  0  0  0  0  0
  141.8929   73.7216  220.4031 H   0  0  0  0  0  0  0  0  0  0  0  0
  144.9402   75.0701  217.2218 H   0  0  0  0  0  0  0  0  0  0  0  0
  144.3847   73.5876  218.1134 H   0  0  0  0  0  0  0  0  0  0  0  0
  143.9875   73.9836  215.5374 H   0  0  0  0  0  0  0  0  0  0  0  0
  142.8219   73.1088  216.6943 H   0  0  0  0  0  0  0  0  0  0  0  0
  142.5547   75.7099  215.3141 H   0  0  0  0  0  0  0  0  0  0  0  0
  141.4489   74.2547  215.4290 H   0  0  0  0  0  0  0  0  0  0  0  0
  140.6270   76.2184  216.7102 H   0  0  0  0  0  0  0  0  0  0  0  0
  140.8877   74.8034  217.7175 H   0  0  0  0  0  0  0  0  0  0  0  0
  143.2345   76.9183  217.2960 H   0  0  0  0  0  0  0  0  0  0  0  0
  142.9319   78.3172  222.5204 H   0  0  0  0  0  0  0  0  0  0  0  0
  143.2727   79.8216  224.4426 H   0  0  0  0  0  0  0  0  0  0  0  0
  142.3601   82.1572  224.4309 H   0  0  0  0  0  0  0  0  0  0  0  0
  141.1084   82.9155  222.4343 H   0  0  0  0  0  0  0  0  0  0  0  0
  140.7599   81.4160  220.4982 H   0  0  0  0  0  0  0  0  0  0  0  0
  139.5680   79.4821  219.5956 H   0  0  0  0  0  0  0  0  0  0  0  0
  137.6375   75.4046  221.4838 H   0  0  0  0  0  0  0  0  0  0  0  0
  136.0528   77.1965  222.1081 H   0  0  0  0  0  0  0  0  0  0  0  0
  135.6685   79.3245  223.0429 H   0  0  0  0  0  0  0  0  0  0  0  0
  138.9958   81.6377  224.5438 H   0  0  0  0  0  0  0  0  0  0  0  0
  140.5442   79.7994  223.8945 H   0  0  0  0  0  0  0  0  0  0  0  0
  1  2  2  0
  2  3  1  0
  3  4  1  0
  4  5  1  0
  5  6  2  0
  5  7  1  0
  7  8  1  0
  8  9  1  0
  9 10  1  0
 10 11  1  0
 11 12  1  0
 12 13  1  0
 13 14  2  0
 14 15  1  0
 15 16  1  0
 16 17  2  0
 17 18  1  0
 18 19  2  0
 19 20  1  0
 20 21  2  0
 15 22  2  0
 22 23  1  0
  2 24  1  0
 24 25  2  0
 25 26  1  0
 26 27  2  0
 27 28  1  0
 28 29  2  0
 29 30  1  0
 29 31  1  0
 31 32  2  0
 32 33  1  0
 33 34  2  0
 12  7  1  0
 23 13  1  0
 34 24  1  0
 21 16  1  0
 33 27  1  0
  3 35  1  0
  4 36  1  0
  4 37  1  0
  8 38  1  0
  8 39  1  0
  9 40  1  0
  9 41  1  0
 10 42  1  0
 10 43  1  0
 11 44  1  0
 11 45  1  0
 12 46  1  6
 17 47  1  0
 18 48  1  0
 19 49  1  0
 20 50  1  0
 21 51  1  0
 22 52  1  0
 25 53  1  0
 26 54  1  0
 28 55  1  0
 31 56  1  0
 32 57  1  0
M  END
>  <smiles>  (26) 
O=C(NCC(=O)N1CCCC[C@H]1c1nc(-c2ccccc2)co1)c1ccc2cc(F)ccc2n1

>  <score_type>  (26) 
oracle

>  <origin>  (26) 
autodockgpu

>  <m_score__min__energy>  (26) 
-9.4100000000000001

>  <m_primary>  (26) 
energy

>  <rmsd>  (26) 
6.5243953071547205

>  <m_score__min__rmsd>  (26) 
6.5243953071547205

>  <meeko>  (26) 
{"free_energy": -6.95, "intermolecular_energy": -8.74, "internal_energy": -4.0, "cluster_size": 9, "cluster_id": 11, "rank_in_cluster": 2}

>  <energy>  (26) 
-8.73

>  <cluster_rmsd>  (26) 
0.1

>  <cluster>  (26) 
4

$$$$

     RDKit          3D

 57 61  0  0  0  0  0  0  0  0999 V2000
  139.9710   74.0460  221.9190 O   0  0  0  0  0  0  0  0  0  0  0  0
  140.3690   75.2390  221.7570 C   0  0  0  0  0  0  0  0  0  0  0  0
  141.6590   75.5270  221.2310 N   0  0  0  0  0  0  0  0  0  0  0  0
  142.5920   74.4570  220.8490 C   0  0  0  0  0  0  0  0  0  0  0  0
  143.5070   74.8830  219.8110 C   0  0  0  0  0  0  0  0  0  0  0  0
  144.7610   74.9260  220.1680 O   0  0  0  0  0  0  0  0  0  0  0  0
  143.2840   75.2600  218.4830 N   0  0  0  0  0  0  0  0  0  0  0  0
  144.0930   74.4560  217.4960 C   0  0  0  0  0  0  0  0  0  0  0  0
  143.2880   74.0310  216.3270 C   0  0  0  0  0  0  0  0  0  0  0  0
  142.1210   74.8610  215.9560 C   0  0  0  0  0  0  0  0  0  0  0  0
  141.3860   75.4400  217.1260 C   0  0  0  0  0  0  0  0  0  0  0  0
  142.4760   76.2420  217.8900 C   0  0  1  0  0  0  0  0  0  0  0  0
  141.7910   77.2420  218.7010 C   0  0  0  0  0  0  0  0  0  0  0  0
  142.4420   77.9020  219.7260 N   0  0  0  0  0  0  0  0  0  0  0  0
  141.6120   78.7550  220.3030 C   0  0  0  0  0  0  0  0  0  0  0  0
  141.8550   79.6690  221.4290 C   0  0  0  0  0  0  0  0  0  0  0  0
  141.3740   80.9650  221.4120 C   0  0  0  0  0  0  0  0  0  0  0  0
  141.6120   81.8100  222.4770 C   0  0  0  0  0  0  0  0  0  0  0  0
  142.3380   81.3920  223.5960 C   0  0  0  0  0  0  0  0  0  0  0  0
  142.8060   80.1060  223.5940 C   0  0  0  0  0  0  0  0  0  0  0  0
  142.5740   79.2440  222.5270 C   0  0  0  0  0  0  0  0  0  0  0  0
  140.4110   78.6420  219.6410 C   0  0  0  0  0  0  0  0  0  0  0  0
  140.6020   77.7390  218.7210 O   0  0  0  0  0  0  0  0  0  0  0  0
  139.4730   76.3480  222.1240 C   0  0  0  0  0  0  0  0  0  0  0  0
  138.1370   76.2850  221.8160 C   0  0  0  0  0  0  0  0  0  0  0  0
  137.2350   77.2830  222.1260 C   0  0  0  0  0  0  0  0  0  0  0  0
  137.7170   78.3950  222.7790 C   0  0  0  0  0  0  0  0  0  0  0  0
  136.8240   79.3910  223.0900 C   0  0  0  0  0  0  0  0  0  0  0  0
  137.3120   80.5170  223.7500 C   0  0  0  0  0  0  0  0  0  0  0  0
  136.3930   81.4790  224.0380 F   0  0  0  0  0  0  0  0  0  0  0  0
  138.6430   80.6260  224.0790 C   0  0  0  0  0  0  0  0  0  0  0  0
  139.5120   79.5880  223.7420 C   0  0  0  0  0  0  0  0  0  0  0  0
  139.0620   78.4500  223.0840 C   0  0  0  0  0  0  0  0  0  0  0  0
  139.9210   77.4480  222.7630 N   0  0  0  0  0  0  0  0  0  0  0  0
  141.9070   76.5380  221.1290 H   0  0  0  0  0  0  0  0  0  0  0  0
  143.1727   74.1588  221.7344 H   0  0  0  0  0  0  0  0  0  0  0  0
  142.0025   73.6143  220.4587 H   0  0  0  0  0  0  0  0  0  0  0  0
  144.9336   75.0712  217.1425 H   0  0  0  0  0  0  0  0  0  0  0  0
  144.4479   73.5500  218.0090 H   0  0  0  0  0  0  0  0  0  0  0  0
  143.9611   74.0035  215.4574 H   0  0  0  0  0  0  0  0  0  0  0  0
  142.8572   73.0633  216.6237 H   0  0  0  0  0  0  0  0  0  0  0  0
  142.4733   75.6900  215.3247 H   0  0  0  0  0  0  0  0  0  0  0  0
  141.4145   74.1996  215.4331 H   0  0  0  0  0  0  0  0  0  0  0  0
  140.5752   76.1031  216.7900 H   0  0  0  0  0  0  0  0  0  0  0  0
  140.9083   74.6708  217.7506 H   0  0  0  0  0  0  0  0  0  0  0  0
  143.1769   76.8663  217.3165 H   0  0  0  0  0  0  0  0  0  0  0  0
  140.7990   81.3243  220.5458 H   0  0  0  0  0  0  0  0  0  0  0  0
  141.2208   82.8376  222.4444 H   0  0  0  0  0  0  0  0  0  0  0  0
  142.5253   82.0685  224.4429 H   0  0  0  0  0  0  0  0  0  0  0  0
  143.3810   79.7442  224.4592 H   0  0  0  0  0  0  0  0  0  0  0  0
  142.9664   78.2169  222.5590 H   0  0  0  0  0  0  0  0  0  0  0  0
  139.4839   79.1975  219.8455 H   0  0  0  0  0  0  0  0  0  0  0  0
  137.7649   75.3911  221.2940 H   0  0  0  0  0  0  0  0  0  0  0  0
  136.1711   77.1931  221.8612 H   0  0  0  0  0  0  0  0  0  0  0  0
  135.7596   79.3028  222.8270 H   0  0  0  0  0  0  0  0  0  0  0  0
  139.0171   81.5193  224.6006 H   0  0  0  0  0  0  0  0  0  0  0  0
  140.5772   79.6724  224.0031 H   0  0  0  0  0  0  0  0  0  0  0  0
  1  2  2  0
  2  3  1  0
  3  4  1  0
  4  5  1  0
  5  6  2  0
  5  7  1  0
  7  8  1  0
  8  9  1  0
  9 10  1  0
 10 11  1  0
 11 12  1  0
 12 13  1  0
 13 14  2  0
 14 15  1  0
 15 16  1  0
 16 17  2  0
 17 18  1  0
 18 19  2  0
 19 20  1  0
 20 21  2  0
 15 22  2  0
 22 23  1  0
  2 24  1  0
 24 25  2  0
 25 26  1  0
 26 27  2  0
 27 28  1  0
 28 29  2  0
 29 30  1  0
 29 31  1  0
 31 32  2  0
 32 33  1  0
 33 34  2  0
 12  7  1  0
 23 13  1  0
 34 24  1  0
 21 16  1  0
 33 27  1  0
  3 35  1  0
  4 36  1  0
  4 37  1  0
  8 38  1  0
  8 39  1  0
  9 40  1  0
  9 41  1  0
 10 42  1  0
 10 43  1  0
 11 44  1  0
 11 45  1  0
 12 46  1  6
 17 47  1  0
 18 48  1  0
 19 49  1  0
 20 50  1  0
 21 51  1  0
 22 52  1  0
 25 53  1  0
 26 54  1  0
 28 55  1  0
 31 56  1  0
 32 57  1  0
M  END
>  <smiles>  (27) 
O=C(NCC(=O)N1CCCC[C@H]1c1nc(-c2ccccc2)co1)c1ccc2cc(F)ccc2n1

>  <score_type>  (27) 
oracle

>  <origin>  (27) 
autodockgpu

>  <m_score__min__energy>  (27) 
-9.4100000000000001

>  <m_primary>  (27) 
energy

>  <rmsd>  (27) 
6.538641142041779

>  <m_score__min__rmsd>  (27) 
6.538641142041779

>  <meeko>  (27) 
{"free_energy": -6.95, "intermolecular_energy": -8.74, "internal_energy": -4.07, "cluster_size": 9, "cluster_id": 11, "rank_in_cluster": 3}

>  <energy>  (27) 
-8.45

>  <cluster_rmsd>  (27) 
1.45

>  <cluster>  (27) 
4

$$$$

     RDKit          3D

 57 61  0  0  0  0  0  0  0  0999 V2000
  139.5640   74.5520  222.4180 O   0  0  0  0  0  0  0  0  0  0  0  0
  139.9400   75.4800  221.6390 C   0  0  0  0  0  0  0  0  0  0  0  0
  140.1200   75.2530  220.2460 N   0  0  0  0  0  0  0  0  0  0  0  0
  139.8770   73.9350  219.6420 C   0  0  0  0  0  0  0  0  0  0  0  0
  141.1130   73.2630  219.2990 C   0  0  0  0  0  0  0  0  0  0  0  0
  140.9890   72.2920  218.4360 O   0  0  0  0  0  0  0  0  0  0  0  0
  142.4270   73.4690  219.7320 N   0  0  0  0  0  0  0  0  0  0  0  0
  142.9580   72.3330  220.5700 C   0  0  0  0  0  0  0  0  0  0  0  0
  144.3390   71.9550  220.1890 C   0  0  0  0  0  0  0  0  0  0  0  0
  145.1920   72.9950  219.5710 C   0  0  0  0  0  0  0  0  0  0  0  0
  144.4560   73.9270  218.6580 C   0  0  0  0  0  0  0  0  0  0  0  0
  143.3370   74.5230  219.5580 C   0  0  1  0  0  0  0  0  0  0  0  0
  142.9210   75.7840  218.9560 C   0  0  0  0  0  0  0  0  0  0  0  0
  142.4050   76.8090  219.7250 N   0  0  0  0  0  0  0  0  0  0  0  0
  142.1090   77.8400  218.9500 C   0  0  0  0  0  0  0  0  0  0  0  0
  141.5400   79.1450  219.3190 C   0  0  0  0  0  0  0  0  0  0  0  0
  140.2280   79.2570  219.7410 C   0  0  0  0  0  0  0  0  0  0  0  0
  139.7090   80.4900  220.0840 C   0  0  0  0  0  0  0  0  0  0  0  0
  140.4810   81.6530  220.0170 C   0  0  0  0  0  0  0  0  0  0  0  0
  141.7770   81.5220  219.5970 C   0  0  0  0  0  0  0  0  0  0  0  0
  142.3120   80.2860  219.2490 C   0  0  0  0  0  0  0  0  0  0  0  0
  142.4400   77.4730  217.6660 C   0  0  0  0  0  0  0  0  0  0  0  0
  142.9060   76.2590  217.7580 O   0  0  0  0  0  0  0  0  0  0  0  0
  140.1970   76.8190  222.1940 C   0  0  0  0  0  0  0  0  0  0  0  0
  139.1630   77.5640  222.7020 C   0  0  0  0  0  0  0  0  0  0  0  0
  139.3240   78.8260  223.2380 C   0  0  0  0  0  0  0  0  0  0  0  0
  140.5960   79.3510  223.2580 C   0  0  0  0  0  0  0  0  0  0  0  0
  140.7620   80.6060  223.7900 C   0  0  0  0  0  0  0  0  0  0  0  0
  142.0490   81.1370  223.8090 C   0  0  0  0  0  0  0  0  0  0  0  0
  142.1670   82.3840  224.3450 F   0  0  0  0  0  0  0  0  0  0  0  0
  143.1180   80.4280  223.3120 C   0  0  0  0  0  0  0  0  0  0  0  0
  142.8990   79.1570  222.7810 C   0  0  0  0  0  0  0  0  0  0  0  0
  141.6310   78.5940  222.7450 C   0  0  0  0  0  0  0  0  0  0  0  0
  141.4340   77.3550  222.2240 N   0  0  0  0  0  0  0  0  0  0  0  0
  140.4310   76.0730  219.6770 H   0  0  0  0  0  0  0  0  0  0  0  0
  139.3205   73.3126  220.3582 H   0  0  0  0  0  0  0  0  0  0  0  0
  139.3016   74.0846  218.7165 H   0  0  0  0  0  0  0  0  0  0  0  0
  142.9532   72.6396  221.6264 H   0  0  0  0  0  0  0  0  0  0  0  0
  142.3106   71.4593  220.4040 H   0  0  0  0  0  0  0  0  0  0  0  0
  144.8489   71.6114  221.1011 H   0  0  0  0  0  0  0  0  0  0  0  0
  144.2124   71.1963  219.4026 H   0  0  0  0  0  0  0  0  0  0  0  0
  145.6496   73.5894  220.3756 H   0  0  0  0  0  0  0  0  0  0  0  0
  145.9364   72.4696  218.9547 H   0  0  0  0  0  0  0  0  0  0  0  0
  145.1229   74.7188  218.2861 H   0  0  0  0  0  0  0  0  0  0  0  0
  144.0592   73.4219  217.7651 H   0  0  0  0  0  0  0  0  0  0  0  0
  143.5893   74.8405  220.5805 H   0  0  0  0  0  0  0  0  0  0  0  0
  139.5947   78.3598  219.8038 H   0  0  0  0  0  0  0  0  0  0  0  0
  138.6631   80.5583  220.4179 H   0  0  0  0  0  0  0  0  0  0  0  0
  140.0641   82.6335  220.2906 H   0  0  0  0  0  0  0  0  0  0  0  0
  142.4123   82.4177  219.5329 H   0  0  0  0  0  0  0  0  0  0  0  0
  143.3581   80.2180  218.9156 H   0  0  0  0  0  0  0  0  0  0  0  0
  142.3337   78.0773  216.7531 H   0  0  0  0  0  0  0  0  0  0  0  0
  138.1513   77.1326  222.6811 H   0  0  0  0  0  0  0  0  0  0  0  0
  138.4674   79.3909  223.6344 H   0  0  0  0  0  0  0  0  0  0  0  0
  139.9072   81.1727  224.1877 H   0  0  0  0  0  0  0  0  0  0  0  0
  144.1306   80.8572  223.3330 H   0  0  0  0  0  0  0  0  0  0  0  0
  143.7511   78.5876  222.3815 H   0  0  0  0  0  0  0  0  0  0  0  0
  1  2  2  0
  2  3  1  0
  3  4  1  0
  4  5  1  0
  5  6  2  0
  5  7  1  0
  7  8  1  0
  8  9  1  0
  9 10  1  0
 10 11  1  0
 11 12  1  0
 12 13  1  0
 13 14  2  0
 14 15  1  0
 15 16  1  0
 16 17  2  0
 17 18  1  0
 18 19  2  0
 19 20  1  0
 20 21  2  0
 15 22  2  0
 22 23  1  0
  2 24  1  0
 24 25  2  0
 25 26  1  0
 26 27  2  0
 27 28  1  0
 28 29  2  0
 29 30  1  0
 29 31  1  0
 31 32  2  0
 32 33  1  0
 33 34  2  0
 12  7  1  0
 23 13  1  0
 34 24  1  0
 21 16  1  0
 33 27  1  0
  3 35  1  0
  4 36  1  0
  4 37  1  0
  8 38  1  0
  8 39  1  0
  9 40  1  0
  9 41  1  0
 10 42  1  0
 10 43  1  0
 11 44  1  0
 11 45  1  0
 12 46  1  1
 17 47  1  0
 18 48  1  0
 19 49  1  0
 20 50  1  0
 21 51  1  0
 22 52  1  0
 25 53  1  0
 26 54  1  0
 28 55  1  0
 31 56  1  0
 32 57  1  0
M  END
>  <smiles>  (28) 
O=C(NCC(=O)N1CCCC[C@H]1c1nc(-c2ccccc2)co1)c1ccc2cc(F)ccc2n1

>  <score_type>  (28) 
oracle

>  <origin>  (28) 
autodockgpu

>  <m_score__min__energy>  (28) 
-9.4100000000000001

>  <m_primary>  (28) 
energy

>  <rmsd>  (28) 
6.857034163020398

>  <m_score__min__rmsd>  (28) 
6.857034163020398

>  <meeko>  (28) 
{"free_energy": -6.64, "intermolecular_energy": -8.43, "internal_energy": -4.29, "cluster_size": 2, "cluster_id": 12, "rank_in_cluster": 2}

>  <energy>  (28) 
-8.4

>  <cluster_rmsd>  (28) 
0.0

>  <cluster>  (28) 
5

$$$$

     RDKit          3D

 57 61  0  0  0  0  0  0  0  0999 V2000
  139.2160   74.9060  222.6720 O   0  0  0  0  0  0  0  0  0  0  0  0
  138.9850   75.9580  222.0020 C   0  0  0  0  0  0  0  0  0  0  0  0
  138.2140   75.9230  220.8060 N   0  0  0  0  0  0  0  0  0  0  0  0
  137.6490   74.6680  220.2910 C   0  0  0  0  0  0  0  0  0  0  0  0
  138.6160   73.9190  219.5140 C   0  0  0  0  0  0  0  0  0  0  0  0
  138.1130   73.2360  218.5230 O   0  0  0  0  0  0  0  0  0  0  0  0
  140.0030   73.7960  219.6390 N   0  0  0  0  0  0  0  0  0  0  0  0
  140.7590   74.4750  218.5240 C   0  0  0  0  0  0  0  0  0  0  0  0
  141.9150   75.2550  219.0250 C   0  0  0  0  0  0  0  0  0  0  0  0
  142.5320   74.8290  220.3020 C   0  0  0  0  0  0  0  0  0  0  0  0
  141.5510   74.3210  221.3150 C   0  0  0  0  0  0  0  0  0  0  0  0
  140.8260   73.1590  220.5800 C   0  0  1  0  0  0  0  0  0  0  0  0
  140.2630   72.2840  221.6010 C   0  0  0  0  0  0  0  0  0  0  0  0
  140.7620   72.2710  222.8890 N   0  0  0  0  0  0  0  0  0  0  0  0
  140.0830   71.4020  223.6210 C   0  0  0  0  0  0  0  0  0  0  0  0
  140.2540   71.0490  225.0370 C   0  0  0  0  0  0  0  0  0  0  0  0
  140.9390   71.8820  225.9030 C   0  0  0  0  0  0  0  0  0  0  0  0
  141.0910   71.5340  227.2300 C   0  0  0  0  0  0  0  0  0  0  0  0
  140.5650   70.3440  227.7400 C   0  0  0  0  0  0  0  0  0  0  0  0
  139.8900   69.5330  226.8690 C   0  0  0  0  0  0  0  0  0  0  0  0
  139.7300   69.8700  225.5290 C   0  0  0  0  0  0  0  0  0  0  0  0
  139.1340   70.8490  222.7920 C   0  0  0  0  0  0  0  0  0  0  0  0
  139.3070   71.4190  221.6320 O   0  0  0  0  0  0  0  0  0  0  0  0
  139.5290   77.2410  222.4760 C   0  0  0  0  0  0  0  0  0  0  0  0
  138.6900   78.1970  222.9910 C   0  0  0  0  0  0  0  0  0  0  0  0
  139.1230   79.4230  223.4550 C   0  0  0  0  0  0  0  0  0  0  0  0
  140.4730   79.6860  223.3890 C   0  0  0  0  0  0  0  0  0  0  0  0
  140.9100   80.9040  223.8480 C   0  0  0  0  0  0  0  0  0  0  0  0
  142.2760   81.1700  223.7810 C   0  0  0  0  0  0  0  0  0  0  0  0
  142.6650   82.3890  224.2480 F   0  0  0  0  0  0  0  0  0  0  0  0
  143.1560   80.2440  223.2730 C   0  0  0  0  0  0  0  0  0  0  0  0
  142.6640   79.0200  222.8190 C   0  0  0  0  0  0  0  0  0  0  0  0
  141.3100   78.7180  222.8690 C   0  0  0  0  0  0  0  0  0  0  0  0
  140.8470   77.5230  222.4220 N   0  0  0  0  0  0  0  0  0  0  0  0
  138.0710   76.8360  220.3170 H   0  0  0  0  0  0  0  0  0  0  0  0
  137.3205   74.0509  221.1403 H   0  0  0  0  0  0  0  0  0  0  0  0
  136.8039   74.9191  219.6331 H   0  0  0  0  0  0  0  0  0  0  0  0
  141.1252   73.7078  217.8259 H   0  0  0  0  0  0  0  0  0  0  0  0
  140.0706   75.1738  218.0261 H   0  0  0  0  0  0  0  0  0  0  0  0
  142.6974   75.2152  218.2528 H   0  0  0  0  0  0  0  0  0  0  0  0
  141.5061   76.2546  219.2339 H   0  0  0  0  0  0  0  0  0  0  0  0
  143.2532   74.0268  220.0867 H   0  0  0  0  0  0  0  0  0  0  0  0
  143.0065   75.7203  220.7384 H   0  0  0  0  0  0  0  0  0  0  0  0
  142.0697   73.9535  222.2127 H   0  0  0  0  0  0  0  0  0  0  0  0
  140.8583   75.1009  221.6643 H   0  0  0  0  0  0  0  0  0  0  0  0
  141.4230   72.4501  219.9875 H   0  0  0  0  0  0  0  0  0  0  0  0
  141.3646   72.8262  225.5325 H   0  0  0  0  0  0  0  0  0  0  0  0
  141.6396   72.2099  227.9025 H   0  0  0  0  0  0  0  0  0  0  0  0
  140.6886   70.0705  228.7983 H   0  0  0  0  0  0  0  0  0  0  0  0
  139.4624   68.5892  227.2383 H   0  0  0  0  0  0  0  0  0  0  0  0
  139.1825   69.1929  224.8569 H   0  0  0  0  0  0  0  0  0  0  0  0
  138.3861   70.0859  223.0532 H   0  0  0  0  0  0  0  0  0  0  0  0
  137.6137   77.9743  223.0366 H   0  0  0  0  0  0  0  0  0  0  0  0
  138.4166   80.1615  223.8619 H   0  0  0  0  0  0  0  0  0  0  0  0
  140.2056   81.6446  224.2548 H   0  0  0  0  0  0  0  0  0  0  0  0
  144.2325   80.4650  223.2252 H   0  0  0  0  0  0  0  0  0  0  0  0
  143.3654   78.2768  222.4119 H   0  0  0  0  0  0  0  0  0  0  0  0
  1  2  2  0
  2  3  1  0
  3  4  1  0
  4  5  1  0
  5  6  2  0
  5  7  1  0
  7  8  1  0
  8  9  1  0
  9 10  1  0
 10 11  1  0
 11 12  1  0
 12 13  1  0
 13 14  2  0
 14 15  1  0
 15 16  1  0
 16 17  2  0
 17 18  1  0
 18 19  2  0
 19 20  1  0
 20 21  2  0
 15 22  2  0
 22 23  1  0
  2 24  1  0
 24 25  2  0
 25 26  1  0
 26 27  2  0
 27 28  1  0
 28 29  2  0
 29 30  1  0
 29 31  1  0
 31 32  2  0
 32 33  1  0
 33 34  2  0
 12  7  1  0
 23 13  1  0
 34 24  1  0
 21 16  1  0
 33 27  1  0
  3 35  1  0
  4 36  1  0
  4 37  1  0
  8 38  1  0
  8 39  1  0
  9 40  1  0
  9 41  1  0
 10 42  1  0
 10 43  1  0
 11 44  1  0
 11 45  1  0
 12 46  1  6
 17 47  1  0
 18 48  1  0
 19 49  1  0
 20 50  1  0
 21 51  1  0
 22 52  1  0
 25 53  1  0
 26 54  1  0
 28 55  1  0
 31 56  1  0
 32 57  1  0
M  END
>  <smiles>  (29) 
O=C(NCC(=O)N1CCCC[C@H]1c1nc(-c2ccccc2)co1)c1ccc2cc(F)ccc2n1

>  <score_type>  (29) 
oracle

>  <origin>  (29) 
autodockgpu

>  <m_score__min__energy>  (29) 
-9.4100000000000001

>  <m_primary>  (29) 
energy

>  <rmsd>  (29) 
8.84599119232853

>  <m_score__min__rmsd>  (29) 
8.84599119232853

>  <meeko>  (29) 
{"free_energy": -8.45, "intermolecular_energy": -10.24, "internal_energy": -2.29, "cluster_size": 3, "cluster_id": 4, "rank_in_cluster": 3}

>  <energy>  (29) 
-8.18

>  <cluster_rmsd>  (29) 
0.0

>  <cluster>  (29) 
6

$$$$

     RDKit          3D

 57 61  0  0  0  0  0  0  0  0999 V2000
  140.2390   74.1500  222.2310 O   0  0  0  0  0  0  0  0  0  0  0  0
  140.3550   75.2540  221.6170 C   0  0  0  0  0  0  0  0  0  0  0  0
  141.3120   75.4300  220.5780 N   0  0  0  0  0  0  0  0  0  0  0  0
  142.2110   74.3420  220.1670 C   0  0  0  0  0  0  0  0  0  0  0  0
  143.3050   74.8250  219.3490 C   0  0  0  0  0  0  0  0  0  0  0  0
  144.4920   74.6370  219.8550 O   0  0  0  0  0  0  0  0  0  0  0  0
  143.3140   75.4620  218.1050 N   0  0  0  0  0  0  0  0  0  0  0  0
  144.2220   74.7920  217.1050 C   0  0  0  0  0  0  0  0  0  0  0  0
  143.5880   74.6630  215.7710 C   0  0  0  0  0  0  0  0  0  0  0  0
  142.5410   75.6450  215.4090 C   0  0  0  0  0  0  0  0  0  0  0  0
  141.6650   76.0540  216.5530 C   0  0  0  0  0  0  0  0  0  0  0  0
  142.6650   76.6030  217.6090 C   0  0  1  0  0  0  0  0  0  0  0  0
  141.9170   77.4870  218.4960 C   0  0  0  0  0  0  0  0  0  0  0  0
  142.5380   78.1470  219.5390 N   0  0  0  0  0  0  0  0  0  0  0  0
  141.6520   78.8860  220.1880 C   0  0  0  0  0  0  0  0  0  0  0  0
  141.8470   79.7550  221.3570 C   0  0  0  0  0  0  0  0  0  0  0  0
  142.5660   79.3210  222.4560 C   0  0  0  0  0  0  0  0  0  0  0  0
  142.7390   80.1500  223.5470 C   0  0  0  0  0  0  0  0  0  0  0  0
  142.2020   81.4400  223.5780 C   0  0  0  0  0  0  0  0  0  0  0  0
  141.4940   81.8520  222.4820 C   0  0  0  0  0  0  0  0  0  0  0  0
  141.3120   81.0270  221.3770 C   0  0  0  0  0  0  0  0  0  0  0  0
  140.4460   78.6970  219.5530 C   0  0  0  0  0  0  0  0  0  0  0  0
  140.6890   77.8680  218.5780 O   0  0  0  0  0  0  0  0  0  0  0  0
  139.4780   76.3760  221.9910 C   0  0  0  0  0  0  0  0  0  0  0  0
  138.1710   76.3970  221.5760 C   0  0  0  0  0  0  0  0  0  0  0  0
  137.2880   77.4120  221.8850 C   0  0  0  0  0  0  0  0  0  0  0  0
  137.7610   78.4540  222.6510 C   0  0  0  0  0  0  0  0  0  0  0  0
  136.8870   79.4670  222.9620 C   0  0  0  0  0  0  0  0  0  0  0  0
  137.3660   80.5200  223.7370 C   0  0  0  0  0  0  0  0  0  0  0  0
  136.4660   81.5030  224.0210 F   0  0  0  0  0  0  0  0  0  0  0  0
  138.6690   80.5450  224.1770 C   0  0  0  0  0  0  0  0  0  0  0  0
  139.5180   79.4920  223.8350 C   0  0  0  0  0  0  0  0  0  0  0  0
  139.0780   78.4250  223.0650 C   0  0  0  0  0  0  0  0  0  0  0  0
  139.9180   77.4080  222.7400 N   0  0  0  0  0  0  0  0  0  0  0  0
  141.3400   76.3710  220.1240 H   0  0  0  0  0  0  0  0  0  0  0  0
  142.6243   73.8631  221.0669 H   0  0  0  0  0  0  0  0  0  0  0  0
  141.6284   73.6260  219.5688 H   0  0  0  0  0  0  0  0  0  0  0  0
  145.1402   75.3893  217.0045 H   0  0  0  0  0  0  0  0  0  0  0  0
  144.4415   73.7792  217.4738 H   0  0  0  0  0  0  0  0  0  0  0  0
  144.3866   74.7418  215.0187 H   0  0  0  0  0  0  0  0  0  0  0  0
  143.0633   73.6968  215.8047 H   0  0  0  0  0  0  0  0  0  0  0  0
  143.0337   76.5449  215.0121 H   0  0  0  0  0  0  0  0  0  0  0  0
  141.8897   75.1564  214.6694 H   0  0  0  0  0  0  0  0  0  0  0  0
  140.9548   76.8347  216.2429 H   0  0  0  0  0  0  0  0  0  0  0  0
  141.0533   75.2246  216.9377 H   0  0  0  0  0  0  0  0  0  0  0  0
  143.4808   77.2620  217.2770 H   0  0  0  0  0  0  0  0  0  0  0  0
  143.0019   78.3111  222.4611 H   0  0  0  0  0  0  0  0  0  0  0  0
  143.3130   79.7864  224.4120 H   0  0  0  0  0  0  0  0  0  0  0  0
  142.3429   82.0976  224.4485 H   0  0  0  0  0  0  0  0  0  0  0  0
  141.0575   82.8617  222.4746 H   0  0  0  0  0  0  0  0  0  0  0  0
  140.7373   81.3912  220.5126 H   0  0  0  0  0  0  0  0  0  0  0  0
  139.4787   79.1511  219.8141 H   0  0  0  0  0  0  0  0  0  0  0  0
  137.8065   75.5592  220.9634 H   0  0  0  0  0  0  0  0  0  0  0  0
  136.2462   77.3893  221.5327 H   0  0  0  0  0  0  0  0  0  0  0  0
  135.8447   79.4471  222.6110 H   0  0  0  0  0  0  0  0  0  0  0  0
  139.0359   81.3822  224.7890 H   0  0  0  0  0  0  0  0  0  0  0  0
  140.5610   79.5081  224.1841 H   0  0  0  0  0  0  0  0  0  0  0  0
  1  2  2  0
  2  3  1  0
  3  4  1  0
  4  5  1  0
  5  6  2  0
  5  7  1  0
  7  8  1  0
  8  9  1  0
  9 10  1  0
 10 11  1  0
 11 12  1  0
 12 13  1  0
 13 14  2  0
 14 15  1  0
 15 16  1  0
 16 17  2  0
 17 18  1  0
 18 19  2  0
 19 20  1  0
 20 21  2  0
 15 22  2  0
 22 23  1  0
  2 24  1  0
 24 25  2  0
 25 26  1  0
 26 27  2  0
 27 28  1  0
 28 29  2  0
 29 30  1  0
 29 31  1  0
 31 32  2  0
 32 33  1  0
 33 34  2  0
 12  7  1  0
 23 13  1  0
 34 24  1  0
 21 16  1  0
 33 27  1  0
  3 35  1  0
  4 36  1  0
  4 37  1  0
  8 38  1  0
  8 39  1  0
  9 40  1  0
  9 41  1  0
 10 42  1  0
 10 43  1  0
 11 44  1  0
 11 45  1  0
 12 46  1  6
 17 47  1  0
 18 48  1  0
 19 49  1  0
 20 50  1  0
 21 51  1  0
 22 52  1  0
 25 53  1  0
 26 54  1  0
 28 55  1  0
 31 56  1  0
 32 57  1  0
M  END
>  <smiles>  (30) 
O=C(NCC(=O)N1CCCC[C@H]1c1nc(-c2ccccc2)co1)c1ccc2cc(F)ccc2n1

>  <score_type>  (30) 
oracle

>  <origin>  (30) 
autodockgpu

>  <m_score__min__energy>  (30) 
-9.4100000000000001

>  <m_primary>  (30) 
energy

>  <rmsd>  (30) 
6.539994478298078

>  <m_score__min__rmsd>  (30) 
6.539994478298078

>  <meeko>  (30) 
{"free_energy": -6.68, "intermolecular_energy": -8.47, "internal_energy": -4.24, "cluster_size": 9, "cluster_id": 11, "rank_in_cluster": 6}

>  <energy>  (30) 
-8.16

>  <cluster_rmsd>  (30) 
0.1

>  <cluster>  (30) 
6

$$$$

     RDKit          3D

 57 61  0  0  0  0  0  0  0  0999 V2000
  139.1550   74.3780  222.3020 O   0  0  0  0  0  0  0  0  0  0  0  0
  140.2540   74.9090  221.9560 C   0  0  0  0  0  0  0  0  0  0  0  0
  140.4570   76.3150  222.0320 N   0  0  0  0  0  0  0  0  0  0  0  0
  139.4040   77.2200  222.5160 C   0  0  0  0  0  0  0  0  0  0  0  0
  139.4260   78.4930  221.8240 C   0  0  0  0  0  0  0  0  0  0  0  0
  138.4820   78.6530  220.9390 O   0  0  0  0  0  0  0  0  0  0  0  0
  140.2880   79.5880  221.9380 N   0  0  0  0  0  0  0  0  0  0  0  0
  139.8730   80.5560  223.0180 C   0  0  0  0  0  0  0  0  0  0  0  0
  141.0220   81.0020  223.8410 C   0  0  0  0  0  0  0  0  0  0  0  0
  142.3640   80.9860  223.2170 C   0  0  0  0  0  0  0  0  0  0  0  0
  142.5900   79.8370  222.2820 C   0  0  0  0  0  0  0  0  0  0  0  0
  141.4430   79.9740  221.2410 C   0  0  1  0  0  0  0  0  0  0  0  0
  141.8640   79.2680  220.0360 C   0  0  0  0  0  0  0  0  0  0  0  0
  141.8570   77.8880  219.9740 N   0  0  0  0  0  0  0  0  0  0  0  0
  142.2750   77.4940  218.7820 C   0  0  0  0  0  0  0  0  0  0  0  0
  142.4330   76.1300  218.2590 C   0  0  0  0  0  0  0  0  0  0  0  0
  143.6270   75.7150  217.6970 C   0  0  0  0  0  0  0  0  0  0  0  0
  143.7580   74.4300  217.2100 C   0  0  0  0  0  0  0  0  0  0  0  0
  142.7040   73.5140  217.2670 C   0  0  0  0  0  0  0  0  0  0  0  0
  141.5310   73.9420  217.8270 C   0  0  0  0  0  0  0  0  0  0  0  0
  141.3840   75.2340  218.3210 C   0  0  0  0  0  0  0  0  0  0  0  0
  142.5550   78.6370  218.0690 C   0  0  0  0  0  0  0  0  0  0  0  0
  142.2880   79.6270  218.8730 O   0  0  0  0  0  0  0  0  0  0  0  0
  141.3410   74.0460  221.4630 C   0  0  0  0  0  0  0  0  0  0  0  0
  141.1210   72.7060  221.2660 C   0  0  0  0  0  0  0  0  0  0  0  0
  142.0880   71.8340  220.8080 C   0  0  0  0  0  0  0  0  0  0  0  0
  143.3350   72.3520  220.5390 C   0  0  0  0  0  0  0  0  0  0  0  0
  144.3010   71.4890  220.0830 C   0  0  0  0  0  0  0  0  0  0  0  0
  145.5630   72.0130  219.8120 C   0  0  0  0  0  0  0  0  0  0  0  0
  146.4890   71.1220  219.3620 F   0  0  0  0  0  0  0  0  0  0  0  0
  145.8310   73.3500  219.9930 C   0  0  0  0  0  0  0  0  0  0  0  0
  144.8170   74.1870  220.4590 C   0  0  0  0  0  0  0  0  0  0  0  0
  143.5470   73.7020  220.7400 C   0  0  0  0  0  0  0  0  0  0  0  0
  142.5700   74.5300  221.1930 N   0  0  0  0  0  0  0  0  0  0  0  0
  141.3920   76.6680  221.7270 H   0  0  0  0  0  0  0  0  0  0  0  0
  138.4251   76.7447  222.3555 H   0  0  0  0  0  0  0  0  0  0  0  0
  139.5820   77.4097  223.5848 H   0  0  0  0  0  0  0  0  0  0  0  0
  139.4118   81.4364  222.5466 H   0  0  0  0  0  0  0  0  0  0  0  0
  139.1632   80.0391  223.6806 H   0  0  0  0  0  0  0  0  0  0  0  0
  140.8186   82.0362  224.1557 H   0  0  0  0  0  0  0  0  0  0  0  0
  141.0849   80.2630  224.6534 H   0  0  0  0  0  0  0  0  0  0  0  0
  142.4938   81.9213  222.6527 H   0  0  0  0  0  0  0  0  0  0  0  0
  143.0926   80.8783  224.0340 H   0  0  0  0  0  0  0  0  0  0  0  0
  143.5729   79.9160  221.7946 H   0  0  0  0  0  0  0  0  0  0  0  0
  142.5846   78.8640  222.7950 H   0  0  0  0  0  0  0  0  0  0  0  0
  141.2041   80.9705  220.8410 H   0  0  0  0  0  0  0  0  0  0  0  0
  144.4759   76.4121  217.6379 H   0  0  0  0  0  0  0  0  0  0  0  0
  144.7154   74.1194  216.7662 H   0  0  0  0  0  0  0  0  0  0  0  0
  142.8128   72.4910  216.8777 H   0  0  0  0  0  0  0  0  0  0  0  0
  140.6816   73.2457  217.8881 H   0  0  0  0  0  0  0  0  0  0  0  0
  140.4260   75.5440  218.7639 H   0  0  0  0  0  0  0  0  0  0  0  0
  142.9267   78.7016  217.0357 H   0  0  0  0  0  0  0  0  0  0  0  0
  140.1203   72.3052  221.4848 H   0  0  0  0  0  0  0  0  0  0  0  0
  141.8705   70.7655  220.6634 H   0  0  0  0  0  0  0  0  0  0  0  0
  144.0856   70.4203  219.9367 H   0  0  0  0  0  0  0  0  0  0  0  0
  146.8305   73.7534  219.7734 H   0  0  0  0  0  0  0  0  0  0  0  0
  145.0287   75.2562  220.6073 H   0  0  0  0  0  0  0  0  0  0  0  0
  1  2  2  0
  2  3  1  0
  3  4  1  0
  4  5  1  0
  5  6  2  0
  5  7  1  0
  7  8  1  0
  8  9  1  0
  9 10  1  0
 10 11  1  0
 11 12  1  0
 12 13  1  0
 13 14  2  0
 14 15  1  0
 15 16  1  0
 16 17  2  0
 17 18  1  0
 18 19  2  0
 19 20  1  0
 20 21  2  0
 15 22  2  0
 22 23  1  0
  2 24  1  0
 24 25  2  0
 25 26  1  0
 26 27  2  0
 27 28  1  0
 28 29  2  0
 29 30  1  0
 29 31  1  0
 31 32  2  0
 32 33  1  0
 33 34  2  0
 12  7  1  0
 23 13  1  0
 34 24  1  0
 21 16  1  0
 33 27  1  0
  3 35  1  0
  4 36  1  0
  4 37  1  0
  8 38  1  0
  8 39  1  0
  9 40  1  0
  9 41  1  0
 10 42  1  0
 10 43  1  0
 11 44  1  0
 11 45  1  0
 12 46  1  6
 17 47  1  0
 18 48  1  0
 19 49  1  0
 20 50  1  0
 21 51  1  0
 22 52  1  0
 25 53  1  0
 26 54  1  0
 28 55  1  0
 31 56  1  0
 32 57  1  0
M  END
>  <smiles>  (31) 
O=C(NCC(=O)N1CCCC[C@H]1c1nc(-c2ccccc2)co1)c1ccc2cc(F)ccc2n1

>  <score_type>  (31) 
oracle

>  <origin>  (31) 
autodockgpu

>  <m_score__min__energy>  (31) 
-9.4100000000000001

>  <m_primary>  (31) 
energy

>  <rmsd>  (31) 
6.959412456583076

>  <m_score__min__rmsd>  (31) 
6.959412456583076

>  <meeko>  (31) 
{"free_energy": -6.6, "intermolecular_energy": -8.39, "internal_energy": -4.31, "cluster_size": 2, "cluster_id": 14, "rank_in_cluster": 2}

>  <energy>  (31) 
-7.77

>  <cluster_rmsd>  (31) 
0.0

>  <cluster>  (31) 
7

$$$$

     RDKit          3D

 57 61  0  0  0  0  0  0  0  0999 V2000
  138.6310   70.5750  221.5280 O   0  0  0  0  0  0  0  0  0  0  0  0
  138.9390   71.4490  222.3930 C   0  0  0  0  0  0  0  0  0  0  0  0
  138.7790   72.8400  222.1350 N   0  0  0  0  0  0  0  0  0  0  0  0
  138.2470   73.3290  220.8550 C   0  0  0  0  0  0  0  0  0  0  0  0
  139.1480   73.0500  219.7550 C   0  0  0  0  0  0  0  0  0  0  0  0
  138.5670   72.6420  218.6610 O   0  0  0  0  0  0  0  0  0  0  0  0
  140.5400   73.1410  219.6570 N   0  0  0  0  0  0  0  0  0  0  0  0
  141.1520   72.0040  218.8780 C   0  0  0  0  0  0  0  0  0  0  0  0
  142.1830   72.4720  217.9220 C   0  0  0  0  0  0  0  0  0  0  0  0
  142.8900   73.7340  218.2350 C   0  0  0  0  0  0  0  0  0  0  0  0
  142.0270   74.7740  218.8820 C   0  0  0  0  0  0  0  0  0  0  0  0
  141.4760   74.0620  220.1500 C   0  0  1  0  0  0  0  0  0  0  0  0
  141.0820   75.1020  221.0940 C   0  0  0  0  0  0  0  0  0  0  0  0
  141.6570   76.3570  221.0600 N   0  0  0  0  0  0  0  0  0  0  0  0
  141.1310   77.1140  222.0090 C   0  0  0  0  0  0  0  0  0  0  0  0
  141.4280   78.5120  222.3520 C   0  0  0  0  0  0  0  0  0  0  0  0
  141.8140   78.8650  223.6320 C   0  0  0  0  0  0  0  0  0  0  0  0
  142.0900   80.1830  223.9370 C   0  0  0  0  0  0  0  0  0  0  0  0
  141.9900   81.1940  222.9770 C   0  0  0  0  0  0  0  0  0  0  0  0
  141.6060   80.8250  221.7160 C   0  0  0  0  0  0  0  0  0  0  0  0
  141.3250   79.5010  221.3950 C   0  0  0  0  0  0  0  0  0  0  0  0
  140.2040   76.3340  222.6620 C   0  0  0  0  0  0  0  0  0  0  0  0
  140.2380   75.1750  222.0660 O   0  0  0  0  0  0  0  0  0  0  0  0
  139.4760   71.0120  223.6930 C   0  0  0  0  0  0  0  0  0  0  0  0
  140.3190   71.8300  224.4000 C   0  0  0  0  0  0  0  0  0  0  0  0
  140.8630   71.4910  225.6240 C   0  0  0  0  0  0  0  0  0  0  0  0
  140.5320   70.2620  226.1470 C   0  0  0  0  0  0  0  0  0  0  0  0
  141.0700   69.9190  227.3630 C   0  0  0  0  0  0  0  0  0  0  0  0
  140.7340   68.6750  227.8930 C   0  0  0  0  0  0  0  0  0  0  0  0
  141.2900   68.3760  229.1000 F   0  0  0  0  0  0  0  0  0  0  0  0
  139.8930   67.8190  227.2210 C   0  0  0  0  0  0  0  0  0  0  0  0
  139.3720   68.2130  225.9880 C   0  0  0  0  0  0  0  0  0  0  0  0
  139.6820   69.4450  225.4280 C   0  0  0  0  0  0  0  0  0  0  0  0
  139.1670   69.8120  224.2260 N   0  0  0  0  0  0  0  0  0  0  0  0
  139.0570   73.4920  222.9040 H   0  0  0  0  0  0  0  0  0  0  0  0
  137.2830   72.8369  220.6590 H   0  0  0  0  0  0  0  0  0  0  0  0
  138.1266   74.4198  220.9296 H   0  0  0  0  0  0  0  0  0  0  0  0
  141.6170   71.3005  219.5843 H   0  0  0  0  0  0  0  0  0  0  0  0
  140.3505   71.5202  218.3005 H   0  0  0  0  0  0  0  0  0  0  0  0
  142.9428   71.6803  217.8448 H   0  0  0  0  0  0  0  0  0  0  0  0
  141.6273   72.6869  216.9974 H   0  0  0  0  0  0  0  0  0  0  0  0
  143.7228   73.5038  218.9157 H   0  0  0  0  0  0  0  0  0  0  0  0
  143.2287   74.1542  217.2765 H   0  0  0  0  0  0  0  0  0  0  0  0
  142.6192   75.6596  219.1560 H   0  0  0  0  0  0  0  0  0  0  0  0
  141.2292   75.1381  218.2180 H   0  0  0  0  0  0  0  0  0  0  0  0
  142.1619   73.4572  220.7613 H   0  0  0  0  0  0  0  0  0  0  0  0
  141.9015   78.0927  224.4104 H   0  0  0  0  0  0  0  0  0  0  0  0
  142.3962   80.4439  224.9608 H   0  0  0  0  0  0  0  0  0  0  0  0
  142.2108   82.2428  223.2246 H   0  0  0  0  0  0  0  0  0  0  0  0
  141.5173   81.5956  220.9361 H   0  0  0  0  0  0  0  0  0  0  0  0
  141.0185   79.2405  220.3712 H   0  0  0  0  0  0  0  0  0  0  0  0
  139.5673   76.6272  223.5098 H   0  0  0  0  0  0  0  0  0  0  0  0
  140.5762   72.8091  223.9695 H   0  0  0  0  0  0  0  0  0  0  0  0
  141.5351   72.1774  226.1599 H   0  0  0  0  0  0  0  0  0  0  0  0
  141.7433   70.6031  227.9003 H   0  0  0  0  0  0  0  0  0  0  0  0
  139.6351   66.8390  227.6489 H   0  0  0  0  0  0  0  0  0  0  0  0
  138.6996   67.5312  225.4467 H   0  0  0  0  0  0  0  0  0  0  0  0
  1  2  2  0
  2  3  1  0
  3  4  1  0
  4  5  1  0
  5  6  2  0
  5  7  1  0
  7  8  1  0
  8  9  1  0
  9 10  1  0
 10 11  1  0
 11 12  1  0
 12 13  1  0
 13 14  2  0
 14 15  1  0
 15 16  1  0
 16 17  2  0
 17 18  1  0
 18 19  2  0
 19 20  1  0
 20 21  2  0
 15 22  2  0
 22 23  1  0
  2 24  1  0
 24 25  2  0
 25 26  1  0
 26 27  2  0
 27 28  1  0
 28 29  2  0
 29 30  1  0
 29 31  1  0
 31 32  2  0
 32 33  1  0
 33 34  2  0
 12  7  1  0
 23 13  1  0
 34 24  1  0
 21 16  1  0
 33 27  1  0
  3 35  1  0
  4 36  1  0
  4 37  1  0
  8 38  1  0
  8 39  1  0
  9 40  1  0
  9 41  1  0
 10 42  1  0
 10 43  1  0
 11 44  1  0
 11 45  1  0
 12 46  1  1
 17 47  1  0
 18 48  1  0
 19 49  1  0
 20 50  1  0
 21 51  1  0
 22 52  1  0
 25 53  1  0
 26 54  1  0
 28 55  1  0
 31 56  1  0
 32 57  1  0
M  END
>  <smiles>  (32) 
O=C(NCC(=O)N1CCCC[C@H]1c1nc(-c2ccccc2)co1)c1ccc2cc(F)ccc2n1

>  <score_type>  (32) 
oracle

>  <origin>  (32) 
autodockgpu

>  <m_score__min__energy>  (32) 
-9.4100000000000001

>  <m_primary>  (32) 
energy

>  <rmsd>  (32) 
3.169223667243109

>  <m_score__min__rmsd>  (32) 
3.169223667243109

>  <meeko>  (32) 
{"free_energy": -8.63, "intermolecular_energy": -10.42, "internal_energy": -2.48, "cluster_size": 8, "cluster_id": 2, "rank_in_cluster": 6}

>  <energy>  (32) 
-7.73

>  <cluster_rmsd>  (32) 
0.0

>  <cluster>  (32) 
8

$$$$

     RDKit          3D

 57 61  0  0  0  0  0  0  0  0999 V2000
  135.5420   76.4850  223.5010 O   0  0  0  0  0  0  0  0  0  0  0  0
  136.1560   75.3770  223.4320 C   0  0  0  0  0  0  0  0  0  0  0  0
  137.3850   75.2520  222.7260 N   0  0  0  0  0  0  0  0  0  0  0  0
  138.0030   76.3990  222.0460 C   0  0  0  0  0  0  0  0  0  0  0  0
  139.4310   76.2200  221.8740 C   0  0  0  0  0  0  0  0  0  0  0  0
  140.1720   76.8900  222.7130 O   0  0  0  0  0  0  0  0  0  0  0  0
  140.1600   75.4530  220.9620 N   0  0  0  0  0  0  0  0  0  0  0  0
  140.7430   76.2700  219.8350 C   0  0  0  0  0  0  0  0  0  0  0  0
  142.1500   75.9030  219.5470 C   0  0  0  0  0  0  0  0  0  0  0  0
  142.5860   74.5290  219.8820 C   0  0  0  0  0  0  0  0  0  0  0  0
  141.9730   73.9820  221.1350 C   0  0  0  0  0  0  0  0  0  0  0  0
  140.4430   74.0810  220.8750 C   0  0  1  0  0  0  0  0  0  0  0  0
  139.7900   73.1220  221.7580 C   0  0  0  0  0  0  0  0  0  0  0  0
  140.4100   72.6650  222.9050 N   0  0  0  0  0  0  0  0  0  0  0  0
  139.6150   71.8130  223.5310 C   0  0  0  0  0  0  0  0  0  0  0  0
  139.8460   71.0770  224.7830 C   0  0  0  0  0  0  0  0  0  0  0  0
  139.1840   69.8920  225.0460 C   0  0  0  0  0  0  0  0  0  0  0  0
  139.4120   69.2140  226.2260 C   0  0  0  0  0  0  0  0  0  0  0  0
  140.3090   69.6940  227.1850 C   0  0  0  0  0  0  0  0  0  0  0  0
  140.9550   70.8680  226.9070 C   0  0  0  0  0  0  0  0  0  0  0  0
  140.7340   71.5620  225.7220 C   0  0  0  0  0  0  0  0  0  0  0  0
  138.4680   71.7210  222.7760 C   0  0  0  0  0  0  0  0  0  0  0  0
  138.6520   72.5160  221.7600 O   0  0  0  0  0  0  0  0  0  0  0  0
  135.5790   74.1970  224.0960 C   0  0  0  0  0  0  0  0  0  0  0  0
  134.6330   74.3530  225.0770 C   0  0  0  0  0  0  0  0  0  0  0  0
  134.0460   73.2970  225.7460 C   0  0  0  0  0  0  0  0  0  0  0  0
  134.4420   72.0250  225.3980 C   0  0  0  0  0  0  0  0  0  0  0  0
  133.8630   70.9710  226.0600 C   0  0  0  0  0  0  0  0  0  0  0  0
  134.2640   69.6850  225.7070 C   0  0  0  0  0  0  0  0  0  0  0  0
  133.6630   68.6700  226.3890 F   0  0  0  0  0  0  0  0  0  0  0  0
  135.2090   69.4770  224.7300 C   0  0  0  0  0  0  0  0  0  0  0  0
  135.7700   70.5810  224.0860 C   0  0  0  0  0  0  0  0  0  0  0  0
  135.3950   71.8780  224.4090 C   0  0  0  0  0  0  0  0  0  0  0  0
  135.9510   72.9410  223.7730 N   0  0  0  0  0  0  0  0  0  0  0  0
  137.8240   74.3030  222.7200 H   0  0  0  0  0  0  0  0  0  0  0  0
  137.5378   76.5187  221.0564 H   0  0  0  0  0  0  0  0  0  0  0  0
  137.8439   77.2912  222.6694 H   0  0  0  0  0  0  0  0  0  0  0  0
  140.1412   76.1044  218.9293 H   0  0  0  0  0  0  0  0  0  0  0  0
  140.7253   77.3268  220.1397 H   0  0  0  0  0  0  0  0  0  0  0  0
  142.3121   76.0451  218.4683 H   0  0  0  0  0  0  0  0  0  0  0  0
  142.7464   76.5517  220.2054 H   0  0  0  0  0  0  0  0  0  0  0  0
  142.3142   73.8669  219.0467 H   0  0  0  0  0  0  0  0  0  0  0  0
  143.6718   74.5731  220.0527 H   0  0  0  0  0  0  0  0  0  0  0  0
  142.2762   72.9368  221.2954 H   0  0  0  0  0  0  0  0  0  0  0  0
  142.2872   74.5296  222.0358 H   0  0  0  0  0  0  0  0  0  0  0  0
  140.0496   73.7797  219.8929 H   0  0  0  0  0  0  0  0  0  0  0  0
  138.4722   69.4878  224.3111 H   0  0  0  0  0  0  0  0  0  0  0  0
  138.8750   68.2731  226.4167 H   0  0  0  0  0  0  0  0  0  0  0  0
  140.4881   69.1504  228.1243 H   0  0  0  0  0  0  0  0  0  0  0  0
  141.6679   71.2735  227.6401 H   0  0  0  0  0  0  0  0  0  0  0  0
  141.2703   72.5034  225.5319 H   0  0  0  0  0  0  0  0  0  0  0  0
  137.5812   71.1051  222.9863 H   0  0  0  0  0  0  0  0  0  0  0  0
  134.3253   75.3744  225.3453 H   0  0  0  0  0  0  0  0  0  0  0  0
  133.2905   73.4657  226.5275 H   0  0  0  0  0  0  0  0  0  0  0  0
  133.1080   71.1366  226.8427 H   0  0  0  0  0  0  0  0  0  0  0  0
  135.5181   68.4564  224.4601 H   0  0  0  0  0  0  0  0  0  0  0  0
  136.5269   70.4196  223.3043 H   0  0  0  0  0  0  0  0  0  0  0  0
  1  2  2  0
  2  3  1  0
  3  4  1  0
  4  5  1  0
  5  6  2  0
  5  7  1  0
  7  8  1  0
  8  9  1  0
  9 10  1  0
 10 11  1  0
 11 12  1  0
 12 13  1  0
 13 14  2  0
 14 15  1  0
 15 16  1  0
 16 17  2  0
 17 18  1  0
 18 19  2  0
 19 20  1  0
 20 21  2  0
 15 22  2  0
 22 23  1  0
  2 24  1  0
 24 25  2  0
 25 26  1  0
 26 27  2  0
 27 28  1  0
 28 29  2  0
 29 30  1  0
 29 31  1  0
 31 32  2  0
 32 33  1  0
 33 34  2  0
 12  7  1  0
 23 13  1  0
 34 24  1  0
 21 16  1  0
 33 27  1  0
  3 35  1  0
  4 36  1  0
  4 37  1  0
  8 38  1  0
  8 39  1  0
  9 40  1  0
  9 41  1  0
 10 42  1  0
 10 43  1  0
 11 44  1  0
 11 45  1  0
 12 46  1  6
 17 47  1  0
 18 48  1  0
 19 49  1  0
 20 50  1  0
 21 51  1  0
 22 52  1  0
 25 53  1  0
 26 54  1  0
 28 55  1  0
 31 56  1  0
 32 57  1  0
M  END
>  <smiles>  (33) 
O=C(NCC(=O)N1CCCC[C@H]1c1nc(-c2ccccc2)co1)c1ccc2cc(F)ccc2n1

>  <score_type>  (33) 
oracle

>  <origin>  (33) 
autodockgpu

>  <m_score__min__energy>  (33) 
-9.4100000000000001

>  <m_primary>  (33) 
energy

>  <rmsd>  (33) 
7.380448635041947

>  <m_score__min__rmsd>  (33) 
7.380448635041947

>  <meeko>  (33) 
{"free_energy": -7.65, "intermolecular_energy": -9.44, "internal_energy": -3.43, "cluster_size": 2, "cluster_id": 8, "rank_in_cluster": 2}

>  <energy>  (33) 
-7.65

>  <cluster_rmsd>  (33) 
0.36

>  <cluster>  (33) 
8

$$$$

     RDKit          3D

 57 61  0  0  0  0  0  0  0  0999 V2000
  139.8850   71.6570  221.0940 O   0  0  0  0  0  0  0  0  0  0  0  0
  139.7870   72.2100  222.2310 C   0  0  0  0  0  0  0  0  0  0  0  0
  139.5830   73.6130  222.3590 N   0  0  0  0  0  0  0  0  0  0  0  0
  139.4740   74.4870  221.1820 C   0  0  0  0  0  0  0  0  0  0  0  0
  138.8250   75.7430  221.5000 C   0  0  0  0  0  0  0  0  0  0  0  0
  137.5650   75.6440  221.8190 O   0  0  0  0  0  0  0  0  0  0  0  0
  139.3140   77.0520  221.5240 N   0  0  0  0  0  0  0  0  0  0  0  0
  138.3660   78.0250  222.1800 C   0  0  0  0  0  0  0  0  0  0  0  0
  139.0620   78.9470  223.1070 C   0  0  0  0  0  0  0  0  0  0  0  0
  140.4910   79.2340  222.8500 C   0  0  0  0  0  0  0  0  0  0  0  0
  141.2660   78.0600  222.3330 C   0  0  0  0  0  0  0  0  0  0  0  0
  140.4960   77.6420  221.0490 C   0  0  1  0  0  0  0  0  0  0  0  0
  141.4240   76.8940  220.2100 C   0  0  0  0  0  0  0  0  0  0  0  0
  142.2450   75.9190  220.7420 N   0  0  0  0  0  0  0  0  0  0  0  0
  142.9850   75.3870  219.7820 C   0  0  0  0  0  0  0  0  0  0  0  0
  143.9960   74.3240  219.8720 C   0  0  0  0  0  0  0  0  0  0  0  0
  143.9920   73.2600  218.9880 C   0  0  0  0  0  0  0  0  0  0  0  0
  144.9490   72.2690  219.0860 C   0  0  0  0  0  0  0  0  0  0  0  0
  145.9420   72.3060  220.0680 C   0  0  0  0  0  0  0  0  0  0  0  0
  145.9310   73.3670  220.9330 C   0  0  0  0  0  0  0  0  0  0  0  0
  144.9720   74.3710  220.8460 C   0  0  0  0  0  0  0  0  0  0  0  0
  142.6340   76.0300  218.6170 C   0  0  0  0  0  0  0  0  0  0  0  0
  141.7180   76.8930  218.9550 O   0  0  0  0  0  0  0  0  0  0  0  0
  139.8890   71.3790  223.4420 C   0  0  0  0  0  0  0  0  0  0  0  0
  139.4950   70.0660  223.4110 C   0  0  0  0  0  0  0  0  0  0  0  0
  139.5600   69.2240  224.5040 C   0  0  0  0  0  0  0  0  0  0  0  0
  140.0490   69.7460  225.6800 C   0  0  0  0  0  0  0  0  0  0  0  0
  140.1160   68.9140  226.7700 C   0  0  0  0  0  0  0  0  0  0  0  0
  140.6110   69.4420  227.9600 C   0  0  0  0  0  0  0  0  0  0  0  0
  140.6590   68.5820  229.0140 F   0  0  0  0  0  0  0  0  0  0  0  0
  141.0190   70.7530  228.0400 C   0  0  0  0  0  0  0  0  0  0  0  0
  140.9320   71.5600  226.9050 C   0  0  0  0  0  0  0  0  0  0  0  0
  140.4440   71.0690  225.7010 C   0  0  0  0  0  0  0  0  0  0  0  0
  140.3650   71.8680  224.6050 N   0  0  0  0  0  0  0  0  0  0  0  0
  139.5130   73.9860  223.3340 H   0  0  0  0  0  0  0  0  0  0  0  0
  140.4839   74.6955  220.7991 H   0  0  0  0  0  0  0  0  0  0  0  0
  138.8632   73.9689  220.4280 H   0  0  0  0  0  0  0  0  0  0  0  0
  137.8695   78.6177  221.3976 H   0  0  0  0  0  0  0  0  0  0  0  0
  137.6381   77.4441  222.7654 H   0  0  0  0  0  0  0  0  0  0  0  0
  138.5246   79.9064  223.0807 H   0  0  0  0  0  0  0  0  0  0  0  0
  139.0537   78.4253  224.0754 H   0  0  0  0  0  0  0  0  0  0  0  0
  140.5530   80.0433  222.1076 H   0  0  0  0  0  0  0  0  0  0  0  0
  140.9386   79.5098  223.8162 H   0  0  0  0  0  0  0  0  0  0  0  0
  142.3001   78.3483  222.0931 H   0  0  0  0  0  0  0  0  0  0  0  0
  141.3420   77.2445  223.0672 H   0  0  0  0  0  0  0  0  0  0  0  0
  140.1544   78.4246  220.3556 H   0  0  0  0  0  0  0  0  0  0  0  0
  143.2231   73.2029  218.2034 H   0  0  0  0  0  0  0  0  0  0  0  0
  144.9289   71.4308  218.3740 H   0  0  0  0  0  0  0  0  0  0  0  0
  146.7021   71.5144  220.1431 H   0  0  0  0  0  0  0  0  0  0  0  0
  146.7002   73.4272  221.7170 H   0  0  0  0  0  0  0  0  0  0  0  0
  144.9920   75.2084  221.5589 H   0  0  0  0  0  0  0  0  0  0  0  0
  143.0415   75.8526  217.6108 H   0  0  0  0  0  0  0  0  0  0  0  0
  139.1062   69.6615  222.4648 H   0  0  0  0  0  0  0  0  0  0  0  0
  139.2333   68.1758  224.4371 H   0  0  0  0  0  0  0  0  0  0  0  0
  139.7897   67.8655  226.7057 H   0  0  0  0  0  0  0  0  0  0  0  0
  141.4083   71.1595  228.9851 H   0  0  0  0  0  0  0  0  0  0  0  0
  141.2574   72.6090  226.9652 H   0  0  0  0  0  0  0  0  0  0  0  0
  1  2  2  0
  2  3  1  0
  3  4  1  0
  4  5  1  0
  5  6  2  0
  5  7  1  0
  7  8  1  0
  8  9  1  0
  9 10  1  0
 10 11  1  0
 11 12  1  0
 12 13  1  0
 13 14  2  0
 14 15  1  0
 15 16  1  0
 16 17  2  0
 17 18  1  0
 18 19  2  0
 19 20  1  0
 20 21  2  0
 15 22  2  0
 22 23  1  0
  2 24  1  0
 24 25  2  0
 25 26  1  0
 26 27  2  0
 27 28  1  0
 28 29  2  0
 29 30  1  0
 29 31  1  0
 31 32  2  0
 32 33  1  0
 33 34  2  0
 12  7  1  0
 23 13  1  0
 34 24  1  0
 21 16  1  0
 33 27  1  0
  3 35  1  0
  4 36  1  0
  4 37  1  0
  8 38  1  0
  8 39  1  0
  9 40  1  0
  9 41  1  0
 10 42  1  0
 10 43  1  0
 11 44  1  0
 11 45  1  0
 12 46  1  6
 17 47  1  0
 18 48  1  0
 19 49  1  0
 20 50  1  0
 21 51  1  0
 22 52  1  0
 25 53  1  0
 26 54  1  0
 28 55  1  0
 31 56  1  0
 32 57  1  0
M  END
>  <smiles>  (34) 
O=C(NCC(=O)N1CCCC[C@H]1c1nc(-c2ccccc2)co1)c1ccc2cc(F)ccc2n1

>  <score_type>  (34) 
oracle

>  <origin>  (34) 
autodockgpu

>  <m_score__min__energy>  (34) 
-9.4100000000000001

>  <m_primary>  (34) 
energy

>  <rmsd>  (34) 
5.389397323051923

>  <m_score__min__rmsd>  (34) 
5.389397323051923

>  <meeko>  (34) 
{"free_energy": -9.12, "intermolecular_energy": -10.91, "internal_energy": -1.95, "cluster_size": 15, "cluster_id": 1, "rank_in_cluster": 6}

>  <energy>  (34) 
-7.63

>  <cluster_rmsd>  (34) 
0.0

>  <cluster>  (34) 
9

$$$$

     RDKit          3D

 57 61  0  0  0  0  0  0  0  0999 V2000
  140.0130   73.0880  222.7220 O   0  0  0  0  0  0  0  0  0  0  0  0
  140.0110   71.8220  222.8010 C   0  0  0  0  0  0  0  0  0  0  0  0
  139.7960   71.0070  221.6540 N   0  0  0  0  0  0  0  0  0  0  0  0
  139.5680   71.5920  220.3250 C   0  0  0  0  0  0  0  0  0  0  0  0
  140.7720   72.1910  219.7850 C   0  0  0  0  0  0  0  0  0  0  0  0
  140.7690   72.3560  218.4910 O   0  0  0  0  0  0  0  0  0  0  0  0
  141.9450   72.6260  220.4090 N   0  0  0  0  0  0  0  0  0  0  0  0
  142.8960   71.5010  220.7290 C   0  0  0  0  0  0  0  0  0  0  0  0
  144.2970   71.8350  220.3800 C   0  0  0  0  0  0  0  0  0  0  0  0
  144.6820   73.2640  220.3700 C   0  0  0  0  0  0  0  0  0  0  0  0
  143.6090   74.1820  219.8700 C   0  0  0  0  0  0  0  0  0  0  0  0
  142.4040   73.8910  220.8080 C   0  0  1  0  0  0  0  0  0  0  0  0
  141.5280   75.0560  220.7660 C   0  0  0  0  0  0  0  0  0  0  0  0
  141.4060   75.9010  221.8510 N   0  0  0  0  0  0  0  0  0  0  0  0
  140.5620   76.8780  221.5620 C   0  0  0  0  0  0  0  0  0  0  0  0
  140.1220   78.0030  222.4010 C   0  0  0  0  0  0  0  0  0  0  0  0
  138.7790   78.2620  222.5990 C   0  0  0  0  0  0  0  0  0  0  0  0
  138.3830   79.3230  223.3900 C   0  0  0  0  0  0  0  0  0  0  0  0
  139.3140   80.1610  224.0080 C   0  0  0  0  0  0  0  0  0  0  0  0
  140.6390   79.8890  223.8000 C   0  0  0  0  0  0  0  0  0  0  0  0
  141.0520   78.8240  223.0060 C   0  0  0  0  0  0  0  0  0  0  0  0
  140.1350   76.6570  220.2730 C   0  0  0  0  0  0  0  0  0  0  0  0
  140.7470   75.5750  219.8810 O   0  0  0  0  0  0  0  0  0  0  0  0
  140.2340   71.1860  224.1100 C   0  0  0  0  0  0  0  0  0  0  0  0
  140.6990   71.9280  225.1660 C   0  0  0  0  0  0  0  0  0  0  0  0
  140.9330   71.4050  226.4210 C   0  0  0  0  0  0  0  0  0  0  0  0
  140.6830   70.0640  226.6080 C   0  0  0  0  0  0  0  0  0  0  0  0
  140.9140   69.5370  227.8550 C   0  0  0  0  0  0  0  0  0  0  0  0
  140.6610   68.1810  228.0430 C   0  0  0  0  0  0  0  0  0  0  0  0
  140.9050   67.7010  229.2940 F   0  0  0  0  0  0  0  0  0  0  0  0
  140.1950   67.3950  227.0150 C   0  0  0  0  0  0  0  0  0  0  0  0
  139.9760   67.9760  225.7650 C   0  0  0  0  0  0  0  0  0  0  0  0
  140.2160   69.3240  225.5390 C   0  0  0  0  0  0  0  0  0  0  0  0
  139.9970   69.8750  224.3170 N   0  0  0  0  0  0  0  0  0  0  0  0
  139.8110   69.9730  221.8080 H   0  0  0  0  0  0  0  0  0  0  0  0
  139.2272   70.8003  219.6416 H   0  0  0  0  0  0  0  0  0  0  0  0
  138.8094   72.3822  220.4257 H   0  0  0  0  0  0  0  0  0  0  0  0
  142.8410   71.2865  221.8065 H   0  0  0  0  0  0  0  0  0  0  0  0
  142.5984   70.6272  220.1308 H   0  0  0  0  0  0  0  0  0  0  0  0
  144.9469   71.3248  221.1062 H   0  0  0  0  0  0  0  0  0  0  0  0
  144.4080   71.5101  219.3350 H   0  0  0  0  0  0  0  0  0  0  0  0
  144.9388   73.5600  221.3978 H   0  0  0  0  0  0  0  0  0  0  0  0
  145.5304   73.3595  219.6764 H   0  0  0  0  0  0  0  0  0  0  0  0
  143.9235   75.2330  219.9509 H   0  0  0  0  0  0  0  0  0  0  0  0
  143.3705   74.0188  218.8086 H   0  0  0  0  0  0  0  0  0  0  0  0
  142.5839   73.7909  221.8886 H   0  0  0  0  0  0  0  0  0  0  0  0
  138.0219   77.6203  222.1245 H   0  0  0  0  0  0  0  0  0  0  0  0
  137.3094   79.5123  223.5366 H   0  0  0  0  0  0  0  0  0  0  0  0
  138.9950   81.0055  224.6365 H   0  0  0  0  0  0  0  0  0  0  0  0
  141.3977   80.5296  224.2733 H   0  0  0  0  0  0  0  0  0  0  0  0
  142.1257   78.6351  222.8595 H   0  0  0  0  0  0  0  0  0  0  0  0
  139.4253   77.2662  219.6941 H   0  0  0  0  0  0  0  0  0  0  0  0
  140.8960   72.9979  225.0033 H   0  0  0  0  0  0  0  0  0  0  0  0
  141.3054   72.0358  227.2416 H   0  0  0  0  0  0  0  0  0  0  0  0
  141.2864   70.1652  228.6776 H   0  0  0  0  0  0  0  0  0  0  0  0
  139.9979   66.3248  227.1756 H   0  0  0  0  0  0  0  0  0  0  0  0
  139.6045   67.3508  224.9397 H   0  0  0  0  0  0  0  0  0  0  0  0
  1  2  2  0
  2  3  1  0
  3  4  1  0
  4  5  1  0
  5  6  2  0
  5  7  1  0
  7  8  1  0
  8  9  1  0
  9 10  1  0
 10 11  1  0
 11 12  1  0
 12 13  1  0
 13 14  2  0
 14 15  1  0
 15 16  1  0
 16 17  2  0
 17 18  1  0
 18 19  2  0
 19 20  1  0
 20 21  2  0
 15 22  2  0
 22 23  1  0
  2 24  1  0
 24 25  2  0
 25 26  1  0
 26 27  2  0
 27 28  1  0
 28 29  2  0
 29 30  1  0
 29 31  1  0
 31 32  2  0
 32 33  1  0
 33 34  2  0
 12  7  1  0
 23 13  1  0
 34 24  1  0
 21 16  1  0
 33 27  1  0
  3 35  1  0
  4 36  1  0
  4 37  1  0
  8 38  1  0
  8 39  1  0
  9 40  1  0
  9 41  1  0
 10 42  1  0
 10 43  1  0
 11 44  1  0
 11 45  1  0
 12 46  1  1
 17 47  1  0
 18 48  1  0
 19 49  1  0
 20 50  1  0
 21 51  1  0
 22 52  1  0
 25 53  1  0
 26 54  1  0
 28 55  1  0
 31 56  1  0
 32 57  1  0
M  END
>  <smiles>  (35) 
O=C(NCC(=O)N1CCCC[C@H]1c1nc(-c2ccccc2)co1)c1ccc2cc(F)ccc2n1

>  <score_type>  (35) 
oracle

>  <origin>  (35) 
autodockgpu

>  <m_score__min__energy>  (35) 
-9.4100000000000001

>  <m_primary>  (35) 
energy

>  <rmsd>  (35) 
3.989804328729414

>  <m_score__min__rmsd>  (35) 
3.989804328729414

>  <meeko>  (35) 
{"free_energy": -8.65, "intermolecular_energy": -10.43, "internal_energy": -2.31, "cluster_size": 8, "cluster_id": 2, "rank_in_cluster": 5}

>  <energy>  (35) 
-7.18

>  <cluster_rmsd>  (35) 
0.0

>  <cluster>  (35) 
10

$$$$

     RDKit          3D

 57 61  0  0  0  0  0  0  0  0999 V2000
  138.8240   76.6610  220.5010 O   0  0  0  0  0  0  0  0  0  0  0  0
  139.3330   75.7200  221.1800 C   0  0  0  0  0  0  0  0  0  0  0  0
  138.6020   75.0690  222.2130 N   0  0  0  0  0  0  0  0  0  0  0  0
  137.2220   75.4560  222.5410 C   0  0  0  0  0  0  0  0  0  0  0  0
  136.4030   74.3070  222.8690 C   0  0  0  0  0  0  0  0  0  0  0  0
  135.6800   74.4380  223.9470 O   0  0  0  0  0  0  0  0  0  0  0  0
  136.2480   73.0720  222.2300 N   0  0  0  0  0  0  0  0  0  0  0  0
  134.9120   72.9250  221.5460 C   0  0  0  0  0  0  0  0  0  0  0  0
  135.0380   72.3360  220.1920 C   0  0  0  0  0  0  0  0  0  0  0  0
  136.2040   71.4630  219.9270 C   0  0  0  0  0  0  0  0  0  0  0  0
  137.4630   71.9000  220.6090 C   0  0  0  0  0  0  0  0  0  0  0  0
  137.0750   71.9450  222.1140 C   0  0  1  0  0  0  0  0  0  0  0  0
  138.3080   71.8350  222.8840 C   0  0  0  0  0  0  0  0  0  0  0  0
  138.3440   71.1540  224.0860 N   0  0  0  0  0  0  0  0  0  0  0  0
  139.5700   71.1940  224.5830 C   0  0  0  0  0  0  0  0  0  0  0  0
  140.0840   70.6130  225.8320 C   0  0  0  0  0  0  0  0  0  0  0  0
  140.0770   69.2460  226.0380 C   0  0  0  0  0  0  0  0  0  0  0  0
  140.5640   68.7170  227.2170 C   0  0  0  0  0  0  0  0  0  0  0  0
  141.0730   69.5330  228.2310 C   0  0  0  0  0  0  0  0  0  0  0  0
  141.0710   70.8840  228.0080 C   0  0  0  0  0  0  0  0  0  0  0  0
  140.5830   71.4300  226.8260 C   0  0  0  0  0  0  0  0  0  0  0  0
  140.3320   71.9100  223.6890 C   0  0  0  0  0  0  0  0  0  0  0  0
  139.5190   72.2470  222.7270 O   0  0  0  0  0  0  0  0  0  0  0  0
  140.7130   75.2940  220.8910 C   0  0  0  0  0  0  0  0  0  0  0  0
  141.6200   76.1930  220.3910 C   0  0  0  0  0  0  0  0  0  0  0  0
  142.9300   75.8700  220.0950 C   0  0  0  0  0  0  0  0  0  0  0  0
  143.3310   74.5730  220.3190 C   0  0  0  0  0  0  0  0  0  0  0  0
  144.6320   74.2460  220.0260 C   0  0  0  0  0  0  0  0  0  0  0  0
  145.0370   72.9330  220.2530 C   0  0  0  0  0  0  0  0  0  0  0  0
  146.3350   72.6530  219.9490 F   0  0  0  0  0  0  0  0  0  0  0  0
  144.1640   71.9950  220.7540 C   0  0  0  0  0  0  0  0  0  0  0  0
  142.8520   72.3750  221.0350 C   0  0  0  0  0  0  0  0  0  0  0  0
  142.4110   73.6750  220.8230 C   0  0  0  0  0  0  0  0  0  0  0  0
  141.1290   74.0290  221.1020 N   0  0  0  0  0  0  0  0  0  0  0  0
  139.0970   74.3020  222.7230 H   0  0  0  0  0  0  0  0  0  0  0  0
  137.2393   76.1384  223.4036 H   0  0  0  0  0  0  0  0  0  0  0  0
  136.7856   75.9451  221.6576 H   0  0  0  0  0  0  0  0  0  0  0  0
  134.2708   72.2732  222.1576 H   0  0  0  0  0  0  0  0  0  0  0  0
  134.4756   73.9290  221.4382 H   0  0  0  0  0  0  0  0  0  0  0  0
  134.1324   71.7395  220.0077 H   0  0  0  0  0  0  0  0  0  0  0  0
  135.1799   73.1994  219.5254 H   0  0  0  0  0  0  0  0  0  0  0  0
  135.9599   70.4470  220.2707 H   0  0  0  0  0  0  0  0  0  0  0  0
  136.3965   71.5111  218.8450 H   0  0  0  0  0  0  0  0  0  0  0  0
  138.2738   71.1772  220.4350 H   0  0  0  0  0  0  0  0  0  0  0  0
  137.8342   72.8663  220.2369 H   0  0  0  0  0  0  0  0  0  0  0  0
  136.4792   71.1215  222.5346 H   0  0  0  0  0  0  0  0  0  0  0  0
  139.6818   68.5768  225.2595 H   0  0  0  0  0  0  0  0  0  0  0  0
  140.5510   67.6266  227.3616 H   0  0  0  0  0  0  0  0  0  0  0  0
  141.4591   69.1077  229.1691 H   0  0  0  0  0  0  0  0  0  0  0  0
  141.4660   71.5553  228.7847 H   0  0  0  0  0  0  0  0  0  0  0  0
  140.5947   72.5205  226.6822 H   0  0  0  0  0  0  0  0  0  0  0  0
  141.4029   72.1483  223.7690 H   0  0  0  0  0  0  0  0  0  0  0  0
  141.2864   77.2266  220.2163 H   0  0  0  0  0  0  0  0  0  0  0  0
  143.6266   76.6216  219.6951 H   0  0  0  0  0  0  0  0  0  0  0  0
  145.3305   74.9955  219.6256 H   0  0  0  0  0  0  0  0  0  0  0  0
  144.4959   70.9612  220.9302 H   0  0  0  0  0  0  0  0  0  0  0  0
  142.1500   71.6279  221.4338 H   0  0  0  0  0  0  0  0  0  0  0  0
  1  2  2  0
  2  3  1  0
  3  4  1  0
  4  5  1  0
  5  6  2  0
  5  7  1  0
  7  8  1  0
  8  9  1  0
  9 10  1  0
 10 11  1  0
 11 12  1  0
 12 13  1  0
 13 14  2  0
 14 15  1  0
 15 16  1  0
 16 17  2  0
 17 18  1  0
 18 19  2  0
 19 20  1  0
 20 21  2  0
 15 22  2  0
 22 23  1  0
  2 24  1  0
 24 25  2  0
 25 26  1  0
 26 27  2  0
 27 28  1  0
 28 29  2  0
 29 30  1  0
 29 31  1  0
 31 32  2  0
 32 33  1  0
 33 34  2  0
 12  7  1  0
 23 13  1  0
 34 24  1  0
 21 16  1  0
 33 27  1  0
  3 35  1  0
  4 36  1  0
  4 37  1  0
  8 38  1  0
  8 39  1  0
  9 40  1  0
  9 41  1  0
 10 42  1  0
 10 43  1  0
 11 44  1  0
 11 45  1  0
 12 46  1  1
 17 47  1  0
 18 48  1  0
 19 49  1  0
 20 50  1  0
 21 51  1  0
 22 52  1  0
 25 53  1  0
 26 54  1  0
 28 55  1  0
 31 56  1  0
 32 57  1  0
M  END
>  <smiles>  (36) 
O=C(NCC(=O)N1CCCC[C@H]1c1nc(-c2ccccc2)co1)c1ccc2cc(F)ccc2n1

>  <score_type>  (36) 
oracle

>  <origin>  (36) 
autodockgpu

>  <m_score__min__energy>  (36) 
-9.4100000000000001

>  <m_primary>  (36) 
energy

>  <rmsd>  (36) 
8.638188786969915

>  <m_score__min__rmsd>  (36) 
8.638188786969915

>  <meeko>  (36) 
{"free_energy": -7.63, "intermolecular_energy": -9.42, "internal_energy": -3.11, "cluster_size": 1, "cluster_id": 9, "rank_in_cluster": 1}

>  <energy>  (36) 
-6.96

>  <cluster_rmsd>  (36) 
0.0

>  <cluster>  (36) 
11

$$$$

     RDKit          3D

 57 61  0  0  0  0  0  0  0  0999 V2000
  139.1420   74.4230  222.2980 O   0  0  0  0  0  0  0  0  0  0  0  0
  140.2270   74.9560  221.9170 C   0  0  0  0  0  0  0  0  0  0  0  0
  140.4130   76.3670  221.9490 N   0  0  0  0  0  0  0  0  0  0  0  0
  139.3580   77.2720  222.4250 C   0  0  0  0  0  0  0  0  0  0  0  0
  139.4100   78.5590  221.7610 C   0  0  0  0  0  0  0  0  0  0  0  0
  138.4790   78.7540  220.8680 O   0  0  0  0  0  0  0  0  0  0  0  0
  140.2880   79.6370  221.9070 N   0  0  0  0  0  0  0  0  0  0  0  0
  139.8770   80.5900  223.0010 C   0  0  0  0  0  0  0  0  0  0  0  0
  141.0230   80.9990  223.8480 C   0  0  0  0  0  0  0  0  0  0  0  0
  142.3720   80.9720  223.2390 C   0  0  0  0  0  0  0  0  0  0  0  0
  142.5890   79.8380  222.2850 C   0  0  0  0  0  0  0  0  0  0  0  0
  141.4590   80.0160  221.2330 C   0  0  1  0  0  0  0  0  0  0  0  0
  141.8830   79.3280  220.0190 C   0  0  0  0  0  0  0  0  0  0  0  0
  141.9000   77.9480  219.9460 N   0  0  0  0  0  0  0  0  0  0  0  0
  142.3160   77.5710  218.7480 C   0  0  0  0  0  0  0  0  0  0  0  0
  142.4950   76.2140  218.2130 C   0  0  0  0  0  0  0  0  0  0  0  0
  143.6940   75.8230  217.6460 C   0  0  0  0  0  0  0  0  0  0  0  0
  143.8450   74.5440  217.1480 C   0  0  0  0  0  0  0  0  0  0  0  0
  142.8060   73.6110  217.1980 C   0  0  0  0  0  0  0  0  0  0  0  0
  141.6260   74.0160  217.7630 C   0  0  0  0  0  0  0  0  0  0  0  0
  141.4600   75.3020  218.2680 C   0  0  0  0  0  0  0  0  0  0  0  0
  142.5700   78.7240  218.0410 C   0  0  0  0  0  0  0  0  0  0  0  0
  142.2910   79.7030  218.8550 O   0  0  0  0  0  0  0  0  0  0  0  0
  141.3160   74.0930  221.4300 C   0  0  0  0  0  0  0  0  0  0  0  0
  141.0940   72.7560  221.2220 C   0  0  0  0  0  0  0  0  0  0  0  0
  142.0630   71.8830  220.7680 C   0  0  0  0  0  0  0  0  0  0  0  0
  143.3140   72.3980  220.5160 C   0  0  0  0  0  0  0  0  0  0  0  0
  144.2830   71.5350  220.0650 C   0  0  0  0  0  0  0  0  0  0  0  0
  145.5490   72.0570  219.8110 C   0  0  0  0  0  0  0  0  0  0  0  0
  146.4770   71.1660  219.3650 F   0  0  0  0  0  0  0  0  0  0  0  0
  145.8200   73.3910  220.0050 C   0  0  0  0  0  0  0  0  0  0  0  0
  144.8040   74.2290  220.4650 C   0  0  0  0  0  0  0  0  0  0  0  0
  143.5290   73.7460  220.7290 C   0  0  0  0  0  0  0  0  0  0  0  0
  142.5500   74.5740  221.1770 N   0  0  0  0  0  0  0  0  0  0  0  0
  141.3390   76.7230  221.6170 H   0  0  0  0  0  0  0  0  0  0  0  0
  138.3788   76.8105  222.2299 H   0  0  0  0  0  0  0  0  0  0  0  0
  139.5109   77.4374  223.5017 H   0  0  0  0  0  0  0  0  0  0  0  0
  139.4377   81.4879  222.5419 H   0  0  0  0  0  0  0  0  0  0  0  0
  139.1500   80.0723  223.6440 H   0  0  0  0  0  0  0  0  0  0  0  0
  140.8336   82.0299  224.1817 H   0  0  0  0  0  0  0  0  0  0  0  0
  141.0628   80.2433  224.6463 H   0  0  0  0  0  0  0  0  0  0  0  0
  142.5243   81.9156  222.6945 H   0  0  0  0  0  0  0  0  0  0  0  0
  143.0892   80.8362  224.0619 H   0  0  0  0  0  0  0  0  0  0  0  0
  143.5795   79.9083  221.8117 H   0  0  0  0  0  0  0  0  0  0  0  0
  142.5591   78.8555  222.7788 H   0  0  0  0  0  0  0  0  0  0  0  0
  141.2431   81.0245  220.8505 H   0  0  0  0  0  0  0  0  0  0  0  0
  144.5314   76.5341  217.5914 H   0  0  0  0  0  0  0  0  0  0  0  0
  144.8068   74.2524  216.7009 H   0  0  0  0  0  0  0  0  0  0  0  0
  142.9307   72.5932  216.8000 H   0  0  0  0  0  0  0  0  0  0  0  0
  140.7876   73.3062  217.8191 H   0  0  0  0  0  0  0  0  0  0  0  0
  140.4978   75.5939  218.7140 H   0  0  0  0  0  0  0  0  0  0  0  0
  142.9327   78.8029  217.0055 H   0  0  0  0  0  0  0  0  0  0  0  0
  140.0897   72.3572  221.4279 H   0  0  0  0  0  0  0  0  0  0  0  0
  141.8432   70.8163  220.6137 H   0  0  0  0  0  0  0  0  0  0  0  0
  144.0664   70.4678  219.9097 H   0  0  0  0  0  0  0  0  0  0  0  0
  146.8238   73.7918  219.8004 H   0  0  0  0  0  0  0  0  0  0  0  0
  145.0176   75.2966  220.6222 H   0  0  0  0  0  0  0  0  0  0  0  0
  1  2  2  0
  2  3  1  0
  3  4  1  0
  4  5  1  0
  5  6  2  0
  5  7  1  0
  7  8  1  0
  8  9  1  0
  9 10  1  0
 10 11  1  0
 11 12  1  0
 12 13  1  0
 13 14  2  0
 14 15  1  0
 15 16  1  0
 16 17  2  0
 17 18  1  0
 18 19  2  0
 19 20  1  0
 20 21  2  0
 15 22  2  0
 22 23  1  0
  2 24  1  0
 24 25  2  0
 25 26  1  0
 26 27  2  0
 27 28  1  0
 28 29  2  0
 29 30  1  0
 29 31  1  0
 31 32  2  0
 32 33  1  0
 33 34  2  0
 12  7  1  0
 23 13  1  0
 34 24  1  0
 21 16  1  0
 33 27  1  0
  3 35  1  0
  4 36  1  0
  4 37  1  0
  8 38  1  0
  8 39  1  0
  9 40  1  0
  9 41  1  0
 10 42  1  0
 10 43  1  0
 11 44  1  0
 11 45  1  0
 12 46  1  6
 17 47  1  0
 18 48  1  0
 19 49  1  0
 20 50  1  0
 21 51  1  0
 22 52  1  0
 25 53  1  0
 26 54  1  0
 28 55  1  0
 31 56  1  0
 32 57  1  0
M  END
>  <smiles>  (37) 
O=C(NCC(=O)N1CCCC[C@H]1c1nc(-c2ccccc2)co1)c1ccc2cc(F)ccc2n1

>  <score_type>  (37) 
oracle

>  <origin>  (37) 
autodockgpu

>  <m_score__min__energy>  (37) 
-9.4100000000000001

>  <m_primary>  (37) 
energy

>  <rmsd>  (37) 
6.965911712160474

>  <m_score__min__rmsd>  (37) 
6.965911712160474

>  <meeko>  (37) 
{"free_energy": -6.63, "intermolecular_energy": -8.42, "internal_energy": -4.31, "cluster_size": 2, "cluster_id": 14, "rank_in_cluster": 1}

>  <energy>  (37) 
-6.95

>  <cluster_rmsd>  (37) 
0.15

>  <cluster>  (37) 
11

$$$$

     RDKit          3D

 57 61  0  0  0  0  0  0  0  0999 V2000
  139.4500   74.6670  222.1610 O   0  0  0  0  0  0  0  0  0  0  0  0
  139.9430   75.5860  221.4380 C   0  0  0  0  0  0  0  0  0  0  0  0
  140.2420   75.3690  220.0640 N   0  0  0  0  0  0  0  0  0  0  0  0
  139.9950   74.0730  219.4170 C   0  0  0  0  0  0  0  0  0  0  0  0
  141.1480   73.2000  219.4980 C   0  0  0  0  0  0  0  0  0  0  0  0
  140.9250   71.9630  219.1510 O   0  0  0  0  0  0  0  0  0  0  0  0
  142.4670   73.4490  219.8870 N   0  0  0  0  0  0  0  0  0  0  0  0
  143.0170   72.3990  220.8200 C   0  0  0  0  0  0  0  0  0  0  0  0
  144.3930   71.9890  220.4530 C   0  0  0  0  0  0  0  0  0  0  0  0
  145.2320   72.9680  219.7250 C   0  0  0  0  0  0  0  0  0  0  0  0
  144.4760   73.8060  218.7400 C   0  0  0  0  0  0  0  0  0  0  0  0
  143.3710   74.4830  219.5980 C   0  0  1  0  0  0  0  0  0  0  0  0
  142.9400   75.6810  218.8860 C   0  0  0  0  0  0  0  0  0  0  0  0
  142.5980   76.8340  219.5650 N   0  0  0  0  0  0  0  0  0  0  0  0
  142.2490   77.7720  218.7000 C   0  0  0  0  0  0  0  0  0  0  0  0
  141.8110   79.1520  218.9540 C   0  0  0  0  0  0  0  0  0  0  0  0
  142.5500   80.2300  218.5030 C   0  0  0  0  0  0  0  0  0  0  0  0
  142.1240   81.5200  218.7520 C   0  0  0  0  0  0  0  0  0  0  0  0
  140.9470   81.7790  219.4580 C   0  0  0  0  0  0  0  0  0  0  0  0
  140.2280   80.6990  219.8950 C   0  0  0  0  0  0  0  0  0  0  0  0
  140.6450   79.3950  219.6530 C   0  0  0  0  0  0  0  0  0  0  0  0
  142.3680   77.2140  217.4480 C   0  0  0  0  0  0  0  0  0  0  0  0
  142.7770   75.9920  217.6460 O   0  0  0  0  0  0  0  0  0  0  0  0
  140.2100   76.9040  222.0380 C   0  0  0  0  0  0  0  0  0  0  0  0
  139.1900   77.6150  222.6180 C   0  0  0  0  0  0  0  0  0  0  0  0
  139.3610   78.8560  223.2000 C   0  0  0  0  0  0  0  0  0  0  0  0
  140.6280   79.3930  223.1910 C   0  0  0  0  0  0  0  0  0  0  0  0
  140.8040   80.6260  223.7680 C   0  0  0  0  0  0  0  0  0  0  0  0
  142.0870   81.1700  223.7580 C   0  0  0  0  0  0  0  0  0  0  0  0
  142.2150   82.3940  224.3420 F   0  0  0  0  0  0  0  0  0  0  0  0
  143.1410   80.4940  223.1900 C   0  0  0  0  0  0  0  0  0  0  0  0
  142.9120   79.2440  222.6150 C   0  0  0  0  0  0  0  0  0  0  0  0
  141.6480   78.6690  222.6060 C   0  0  0  0  0  0  0  0  0  0  0  0
  141.4420   77.4510  222.0420 N   0  0  0  0  0  0  0  0  0  0  0  0
  140.6440   76.1800  219.5410 H   0  0  0  0  0  0  0  0  0  0  0  0
  139.1435   73.5844  219.9133 H   0  0  0  0  0  0  0  0  0  0  0  0
  139.7817   74.2580  218.3539 H   0  0  0  0  0  0  0  0  0  0  0  0
  143.0292   72.8049  221.8423 H   0  0  0  0  0  0  0  0  0  0  0  0
  142.3702   71.5121  220.7489 H   0  0  0  0  0  0  0  0  0  0  0  0
  144.9193   71.7340  221.3847 H   0  0  0  0  0  0  0  0  0  0  0  0
  144.2560   71.1590  219.7442 H   0  0  0  0  0  0  0  0  0  0  0  0
  145.6998   73.6378  220.4616 H   0  0  0  0  0  0  0  0  0  0  0  0
  145.9696   72.3891  219.1499 H   0  0  0  0  0  0  0  0  0  0  0  0
  145.1329   74.5600  218.2817 H   0  0  0  0  0  0  0  0  0  0  0  0
  144.0655   73.2162  217.9072 H   0  0  0  0  0  0  0  0  0  0  0  0
  143.6403   74.8967  220.5810 H   0  0  0  0  0  0  0  0  0  0  0  0
  143.4815   80.0595  217.9433 H   0  0  0  0  0  0  0  0  0  0  0  0
  142.7264   82.3641  218.3853 H   0  0  0  0  0  0  0  0  0  0  0  0
  140.6117   82.8080  219.6547 H   0  0  0  0  0  0  0  0  0  0  0  0
  139.2950   80.8676  220.4528 H   0  0  0  0  0  0  0  0  0  0  0  0
  140.0423   78.5514  220.0206 H   0  0  0  0  0  0  0  0  0  0  0  0
  142.1613   77.6978  216.4820 H   0  0  0  0  0  0  0  0  0  0  0  0
  138.1826   77.1733  222.6196 H   0  0  0  0  0  0  0  0  0  0  0  0
  138.5161   79.3948  223.6536 H   0  0  0  0  0  0  0  0  0  0  0  0
  139.9608   81.1664  224.2229 H   0  0  0  0  0  0  0  0  0  0  0  0
  144.1498   80.9325  223.1891 H   0  0  0  0  0  0  0  0  0  0  0  0
  143.7524   78.7010  222.1580 H   0  0  0  0  0  0  0  0  0  0  0  0
  1  2  2  0
  2  3  1  0
  3  4  1  0
  4  5  1  0
  5  6  2  0
  5  7  1  0
  7  8  1  0
  8  9  1  0
  9 10  1  0
 10 11  1  0
 11 12  1  0
 12 13  1  0
 13 14  2  0
 14 15  1  0
 15 16  1  0
 16 17  2  0
 17 18  1  0
 18 19  2  0
 19 20  1  0
 20 21  2  0
 15 22  2  0
 22 23  1  0
  2 24  1  0
 24 25  2  0
 25 26  1  0
 26 27  2  0
 27 28  1  0
 28 29  2  0
 29 30  1  0
 29 31  1  0
 31 32  2  0
 32 33  1  0
 33 34  2  0
 12  7  1  0
 23 13  1  0
 34 24  1  0
 21 16  1  0
 33 27  1  0
  3 35  1  0
  4 36  1  0
  4 37  1  0
  8 38  1  0
  8 39  1  0
  9 40  1  0
  9 41  1  0
 10 42  1  0
 10 43  1  0
 11 44  1  0
 11 45  1  0
 12 46  1  1
 17 47  1  0
 18 48  1  0
 19 49  1  0
 20 50  1  0
 21 51  1  0
 22 52  1  0
 25 53  1  0
 26 54  1  0
 28 55  1  0
 31 56  1  0
 32 57  1  0
M  END
>  <smiles>  (38) 
O=C(NCC(=O)N1CCCC[C@H]1c1nc(-c2ccccc2)co1)c1ccc2cc(F)ccc2n1

>  <score_type>  (38) 
oracle

>  <origin>  (38) 
autodockgpu

>  <m_score__min__energy>  (38) 
-9.4100000000000001

>  <m_primary>  (38) 
energy

>  <rmsd>  (38) 
7.041224377029682

>  <m_score__min__rmsd>  (38) 
7.041224377029682

>  <meeko>  (38) 
{"free_energy": -6.82, "intermolecular_energy": -8.61, "internal_energy": -4.12, "cluster_size": 2, "cluster_id": 12, "rank_in_cluster": 1}

>  <energy>  (38) 
-6.95

>  <cluster_rmsd>  (38) 
0.03

>  <cluster>  (38) 
11

$$$$

     RDKit          3D

 57 61  0  0  0  0  0  0  0  0999 V2000
  135.5610   76.9360  223.6710 O   0  0  0  0  0  0  0  0  0  0  0  0
  136.2010   77.8490  223.0680 C   0  0  0  0  0  0  0  0  0  0  0  0
  135.6600   79.1560  222.9120 N   0  0  0  0  0  0  0  0  0  0  0  0
  134.3350   79.5100  223.4410 C   0  0  0  0  0  0  0  0  0  0  0  0
  134.3750   79.7690  224.8660 C   0  0  0  0  0  0  0  0  0  0  0  0
  133.9560   78.7860  225.6140 O   0  0  0  0  0  0  0  0  0  0  0  0
  134.7840   80.8950  225.5880 N   0  0  0  0  0  0  0  0  0  0  0  0
  133.7570   81.3590  226.5900 C   0  0  0  0  0  0  0  0  0  0  0  0
  134.3640   81.6950  227.8990 C   0  0  0  0  0  0  0  0  0  0  0  0
  135.7820   82.1200  227.9120 C   0  0  0  0  0  0  0  0  0  0  0  0
  136.6430   81.4060  226.9150 C   0  0  0  0  0  0  0  0  0  0  0  0
  135.9440   81.6830  225.5540 C   0  0  1  0  0  0  0  0  0  0  0  0
  136.9440   81.5040  224.5080 C   0  0  0  0  0  0  0  0  0  0  0  0
  138.2000   81.0070  224.7950 N   0  0  0  0  0  0  0  0  0  0  0  0
  138.9150   80.9360  223.6840 C   0  0  0  0  0  0  0  0  0  0  0  0
  140.2980   80.4720  223.4980 C   0  0  0  0  0  0  0  0  0  0  0  0
  140.7090   79.2440  223.9830 C   0  0  0  0  0  0  0  0  0  0  0  0
  142.0120   78.8240  223.8000 C   0  0  0  0  0  0  0  0  0  0  0  0
  142.9480   79.6140  223.1280 C   0  0  0  0  0  0  0  0  0  0  0  0
  142.5220   80.8260  222.6550 C   0  0  0  0  0  0  0  0  0  0  0  0
  141.2130   81.2620  222.8330 C   0  0  0  0  0  0  0  0  0  0  0  0
  138.1070   81.3950  222.6690 C   0  0  0  0  0  0  0  0  0  0  0  0
  136.9750   81.7060  223.2350 O   0  0  0  0  0  0  0  0  0  0  0  0
  137.5330   77.5470  222.5180 C   0  0  0  0  0  0  0  0  0  0  0  0
  138.1480   76.3580  222.8200 C   0  0  0  0  0  0  0  0  0  0  0  0
  139.3940   76.0020  222.3440 C   0  0  0  0  0  0  0  0  0  0  0  0
  140.0420   76.8990  221.5250 C   0  0  0  0  0  0  0  0  0  0  0  0
  141.2820   76.5510  221.0480 C   0  0  0  0  0  0  0  0  0  0  0  0
  141.9360   77.4590  220.2200 C   0  0  0  0  0  0  0  0  0  0  0  0
  143.1630   77.0730  219.7710 F   0  0  0  0  0  0  0  0  0  0  0  0
  141.3600   78.6640  219.8890 C   0  0  0  0  0  0  0  0  0  0  0  0
  140.0990   78.9730  220.3980 C   0  0  0  0  0  0  0  0  0  0  0  0
  139.4150   78.0930  221.2260 C   0  0  0  0  0  0  0  0  0  0  0  0
  138.1870   78.4090  221.7140 N   0  0  0  0  0  0  0  0  0  0  0  0
  136.2550   79.8490  222.4020 H   0  0  0  0  0  0  0  0  0  0  0  0
  133.9755   80.4126  222.9252 H   0  0  0  0  0  0  0  0  0  0  0  0
  133.6596   78.6593  223.2674 H   0  0  0  0  0  0  0  0  0  0  0  0
  133.2535   82.2529  226.1931 H   0  0  0  0  0  0  0  0  0  0  0  0
  133.0449   80.5359  226.7494 H   0  0  0  0  0  0  0  0  0  0  0  0
  133.7720   82.5131  228.3352 H   0  0  0  0  0  0  0  0  0  0  0  0
  134.3523   80.7497  228.4613 H   0  0  0  0  0  0  0  0  0  0  0  0
  135.8218   83.1975  227.6942 H   0  0  0  0  0  0  0  0  0  0  0  0
  136.1783   81.8734  228.9081 H   0  0  0  0  0  0  0  0  0  0  0  0
  137.6658   81.8109  226.9196 H   0  0  0  0  0  0  0  0  0  0  0  0
  136.7421   80.3320  227.1310 H   0  0  0  0  0  0  0  0  0  0  0  0
  135.5808   82.6989  225.3395 H   0  0  0  0  0  0  0  0  0  0  0  0
  139.9954   78.5991  224.5167 H   0  0  0  0  0  0  0  0  0  0  0  0
  142.3202   77.8438  224.1928 H   0  0  0  0  0  0  0  0  0  0  0  0
  143.9849   79.2760  222.9848 H   0  0  0  0  0  0  0  0  0  0  0  0
  143.2336   81.4722  222.1201 H   0  0  0  0  0  0  0  0  0  0  0  0
  140.9055   82.2427  222.4411 H   0  0  0  0  0  0  0  0  0  0  0  0
  138.3631   81.4814  221.6027 H   0  0  0  0  0  0  0  0  0  0  0  0
  137.6199   75.6508  223.4765 H   0  0  0  0  0  0  0  0  0  0  0  0
  139.8519   75.0377  222.6092 H   0  0  0  0  0  0  0  0  0  0  0  0
  141.7427   75.5875  221.3113 H   0  0  0  0  0  0  0  0  0  0  0  0
  141.8863   79.3729  219.2328 H   0  0  0  0  0  0  0  0  0  0  0  0
  139.6356   79.9360  220.1375 H   0  0  0  0  0  0  0  0  0  0  0  0
  1  2  2  0
  2  3  1  0
  3  4  1  0
  4  5  1  0
  5  6  2  0
  5  7  1  0
  7  8  1  0
  8  9  1  0
  9 10  1  0
 10 11  1  0
 11 12  1  0
 12 13  1  0
 13 14  2  0
 14 15  1  0
 15 16  1  0
 16 17  2  0
 17 18  1  0
 18 19  2  0
 19 20  1  0
 20 21  2  0
 15 22  2  0
 22 23  1  0
  2 24  1  0
 24 25  2  0
 25 26  1  0
 26 27  2  0
 27 28  1  0
 28 29  2  0
 29 30  1  0
 29 31  1  0
 31 32  2  0
 32 33  1  0
 33 34  2  0
 12  7  1  0
 23 13  1  0
 34 24  1  0
 21 16  1  0
 33 27  1  0
  3 35  1  0
  4 36  1  0
  4 37  1  0
  8 38  1  0
  8 39  1  0
  9 40  1  0
  9 41  1  0
 10 42  1  0
 10 43  1  0
 11 44  1  0
 11 45  1  0
 12 46  1  1
 17 47  1  0
 18 48  1  0
 19 49  1  0
 20 50  1  0
 21 51  1  0
 22 52  1  0
 25 53  1  0
 26 54  1  0
 28 55  1  0
 31 56  1  0
 32 57  1  0
M  END
>  <smiles>  (39) 
O=C(NCC(=O)N1CCCC[C@H]1c1nc(-c2ccccc2)co1)c1ccc2cc(F)ccc2n1

>  <score_type>  (39) 
oracle

>  <origin>  (39) 
autodockgpu

>  <m_score__min__energy>  (39) 
-9.4100000000000001

>  <m_primary>  (39) 
energy

>  <rmsd>  (39) 
8.731663392329107

>  <m_score__min__rmsd>  (39) 
8.731663392329107

>  <meeko>  (39) 
{"free_energy": -6.53, "intermolecular_energy": -8.32, "internal_energy": -4.47, "cluster_size": 1, "cluster_id": 15, "rank_in_cluster": 1}

>  <energy>  (39) 
-6.73

>  <cluster_rmsd>  (39) 
0.4

>  <cluster>  (39) 
11

$$$$

     RDKit          3D

 57 61  0  0  0  0  0  0  0  0999 V2000
  141.8790   77.8690  217.5140 O   0  0  0  0  0  0  0  0  0  0  0  0
  142.0300   78.1090  218.7510 C   0  0  0  0  0  0  0  0  0  0  0  0
  142.7380   77.2130  219.6000 N   0  0  0  0  0  0  0  0  0  0  0  0
  143.3280   75.9680  219.0860 C   0  0  0  0  0  0  0  0  0  0  0  0
  143.1020   74.8530  219.9820 C   0  0  0  0  0  0  0  0  0  0  0  0
  144.0860   74.5970  220.7990 O   0  0  0  0  0  0  0  0  0  0  0  0
  142.0090   73.9940  220.1270 N   0  0  0  0  0  0  0  0  0  0  0  0
  142.1690   72.7000  219.3690 C   0  0  0  0  0  0  0  0  0  0  0  0
  141.7630   71.5240  220.1740 C   0  0  0  0  0  0  0  0  0  0  0  0
  140.7630   71.7360  221.2450 C   0  0  0  0  0  0  0  0  0  0  0  0
  140.8980   73.0470  221.9570 C   0  0  0  0  0  0  0  0  0  0  0  0
  140.7930   74.1010  220.8190 C   0  0  1  0  0  0  0  0  0  0  0  0
  140.3850   75.3600  221.4300 C   0  0  0  0  0  0  0  0  0  0  0  0
  141.3020   76.3580  221.6960 N   0  0  0  0  0  0  0  0  0  0  0  0
  140.6860   77.3940  222.2430 C   0  0  0  0  0  0  0  0  0  0  0  0
  141.2480   78.6760  222.6910 C   0  0  0  0  0  0  0  0  0  0  0  0
  140.4910   79.5670  223.4300 C   0  0  0  0  0  0  0  0  0  0  0  0
  141.0350   80.7670  223.8430 C   0  0  0  0  0  0  0  0  0  0  0  0
  142.3510   81.1200  223.5330 C   0  0  0  0  0  0  0  0  0  0  0  0
  143.0840   80.2260  222.8010 C   0  0  0  0  0  0  0  0  0  0  0  0
  142.5490   79.0140  222.3790 C   0  0  0  0  0  0  0  0  0  0  0  0
  139.3550   77.0570  222.3300 C   0  0  0  0  0  0  0  0  0  0  0  0
  139.2650   75.8540  221.8340 O   0  0  0  0  0  0  0  0  0  0  0  0
  141.4580   79.3420  219.3160 C   0  0  0  0  0  0  0  0  0  0  0  0
  142.1750   80.5110  219.2840 C   0  0  0  0  0  0  0  0  0  0  0  0
  141.7070   81.7070  219.7930 C   0  0  0  0  0  0  0  0  0  0  0  0
  140.4530   81.7090  220.3590 C   0  0  0  0  0  0  0  0  0  0  0  0
  139.9820   82.8950  220.8670 C   0  0  0  0  0  0  0  0  0  0  0  0
  138.7130   82.8970  221.4400 C   0  0  0  0  0  0  0  0  0  0  0  0
  138.2870   84.0940  221.9310 F   0  0  0  0  0  0  0  0  0  0  0  0
  137.9560   81.7500  221.4950 C   0  0  0  0  0  0  0  0  0  0  0  0
  138.4770   80.5690  220.9660 C   0  0  0  0  0  0  0  0  0  0  0  0
  139.7380   80.5270  220.3860 C   0  0  0  0  0  0  0  0  0  0  0  0
  140.2320   79.3700  219.8760 N   0  0  0  0  0  0  0  0  0  0  0  0
  142.8160   77.4870  220.6060 H   0  0  0  0  0  0  0  0  0  0  0  0
  142.8764   75.7370  218.1099 H   0  0  0  0  0  0  0  0  0  0  0  0
  144.4140   76.1176  218.9952 H   0  0  0  0  0  0  0  0  0  0  0  0
  141.5462   72.7410  218.4633 H   0  0  0  0  0  0  0  0  0  0  0  0
  143.2340   72.5856  219.1187 H   0  0  0  0  0  0  0  0  0  0  0  0
  141.3482   70.7781  219.4801 H   0  0  0  0  0  0  0  0  0  0  0  0
  142.6779   71.2200  220.7037 H   0  0  0  0  0  0  0  0  0  0  0  0
  139.7601   71.6887  220.7955 H   0  0  0  0  0  0  0  0  0  0  0  0
  140.9299   70.9490  221.9951 H   0  0  0  0  0  0  0  0  0  0  0  0
  140.0885   73.1799  222.6898 H   0  0  0  0  0  0  0  0  0  0  0  0
  141.8364   73.1273  222.5253 H   0  0  0  0  0  0  0  0  0  0  0  0
  140.0228   73.9721  220.0443 H   0  0  0  0  0  0  0  0  0  0  0  0
  139.4514   79.3186  223.6897 H   0  0  0  0  0  0  0  0  0  0  0  0
  140.4173   81.4622  224.4305 H   0  0  0  0  0  0  0  0  0  0  0  0
  142.7801   82.0773  223.8639 H   0  0  0  0  0  0  0  0  0  0  0  0
  144.1236   80.4726  222.5396 H   0  0  0  0  0  0  0  0  0  0  0  0
  143.1676   78.3192  221.7919 H   0  0  0  0  0  0  0  0  0  0  0  0
  138.5378   77.6731  222.7334 H   0  0  0  0  0  0  0  0  0  0  0  0
  143.1762   80.4953  218.8287 H   0  0  0  0  0  0  0  0  0  0  0  0
  142.3141   82.6232  219.7475 H   0  0  0  0  0  0  0  0  0  0  0  0
  140.5871   83.8126  220.8227 H   0  0  0  0  0  0  0  0  0  0  0  0
  136.9544   81.7637  221.9495 H   0  0  0  0  0  0  0  0  0  0  0  0
  137.8748   79.6495  221.0093 H   0  0  0  0  0  0  0  0  0  0  0  0
  1  2  2  0
  2  3  1  0
  3  4  1  0
  4  5  1  0
  5  6  2  0
  5  7  1  0
  7  8  1  0
  8  9  1  0
  9 10  1  0
 10 11  1  0
 11 12  1  0
 12 13  1  0
 13 14  2  0
 14 15  1  0
 15 16  1  0
 16 17  2  0
 17 18  1  0
 18 19  2  0
 19 20  1  0
 20 21  2  0
 15 22  2  0
 22 23  1  0
  2 24  1  0
 24 25  2  0
 25 26  1  0
 26 27  2  0
 27 28  1  0
 28 29  2  0
 29 30  1  0
 29 31  1  0
 31 32  2  0
 32 33  1  0
 33 34  2  0
 12  7  1  0
 23 13  1  0
 34 24  1  0
 21 16  1  0
 33 27  1  0
  3 35  1  0
  4 36  1  0
  4 37  1  0
  8 38  1  0
  8 39  1  0
  9 40  1  0
  9 41  1  0
 10 42  1  0
 10 43  1  0
 11 44  1  0
 11 45  1  0
 12 46  1  6
 17 47  1  0
 18 48  1  0
 19 49  1  0
 20 50  1  0
 21 51  1  0
 22 52  1  0
 25 53  1  0
 26 54  1  0
 28 55  1  0
 31 56  1  0
 32 57  1  0
M  END
>  <smiles>  (40) 
O=C(NCC(=O)N1CCCC[C@H]1c1nc(-c2ccccc2)co1)c1ccc2cc(F)ccc2n1

>  <score_type>  (40) 
oracle

>  <origin>  (40) 
autodockgpu

>  <m_score__min__energy>  (40) 
-9.4100000000000001

>  <m_primary>  (40) 
energy

>  <rmsd>  (40) 
8.589773536787062

>  <m_score__min__rmsd>  (40) 
8.589773536787062

>  <meeko>  (40) 
{"free_energy": -6.74, "intermolecular_energy": -8.53, "internal_energy": -4.1, "cluster_size": 1, "cluster_id": 13, "rank_in_cluster": 1}

>  <energy>  (40) 
-6.69

>  <cluster_rmsd>  (40) 
0.46

>  <cluster>  (40) 
11

$$$$

     RDKit          3D

 57 61  0  0  0  0  0  0  0  0999 V2000
  138.4970   75.9290  221.8960 O   0  0  0  0  0  0  0  0  0  0  0  0
  139.7350   76.2000  221.9330 C   0  0  0  0  0  0  0  0  0  0  0  0
  140.7110   75.2810  221.4540 N   0  0  0  0  0  0  0  0  0  0  0  0
  140.3320   73.9760  220.8950 C   0  0  0  0  0  0  0  0  0  0  0  0
  141.3670   73.4340  220.0390 C   0  0  0  0  0  0  0  0  0  0  0  0
  140.9340   72.6990  219.0520 O   0  0  0  0  0  0  0  0  0  0  0  0
  142.7590   73.5580  220.0830 N   0  0  0  0  0  0  0  0  0  0  0  0
  143.4300   72.4230  220.8170 C   0  0  0  0  0  0  0  0  0  0  0  0
  144.6260   71.9220  220.1000 C   0  0  0  0  0  0  0  0  0  0  0  0
  145.3380   72.8640  219.2060 C   0  0  0  0  0  0  0  0  0  0  0  0
  144.4360   73.8070  218.4700 C   0  0  0  0  0  0  0  0  0  0  0  0
  143.6490   74.5280  219.6000 C   0  0  1  0  0  0  0  0  0  0  0  0
  143.1620   75.7890  219.0530 C   0  0  0  0  0  0  0  0  0  0  0  0
  142.4970   76.7050  219.8460 N   0  0  0  0  0  0  0  0  0  0  0  0
  142.1640   77.7610  219.1220 C   0  0  0  0  0  0  0  0  0  0  0  0
  141.4500   78.9790  219.5320 C   0  0  0  0  0  0  0  0  0  0  0  0
  140.0710   78.9960  219.6370 C   0  0  0  0  0  0  0  0  0  0  0  0
  139.4170   80.1490  220.0230 C   0  0  0  0  0  0  0  0  0  0  0  0
  140.1140   81.3230  220.3180 C   0  0  0  0  0  0  0  0  0  0  0  0
  141.4780   81.2870  220.2090 C   0  0  0  0  0  0  0  0  0  0  0  0
  142.1500   80.1320  219.8210 C   0  0  0  0  0  0  0  0  0  0  0  0
  142.6200   77.5200  217.8460 C   0  0  0  0  0  0  0  0  0  0  0  0
  143.1900   76.3490  217.8930 O   0  0  0  0  0  0  0  0  0  0  0  0
  140.1680   77.4940  222.4840 C   0  0  0  0  0  0  0  0  0  0  0  0
  139.2460   78.3570  223.0200 C   0  0  0  0  0  0  0  0  0  0  0  0
  139.5740   79.5870  223.5560 C   0  0  0  0  0  0  0  0  0  0  0  0
  140.9010   79.9530  223.5430 C   0  0  0  0  0  0  0  0  0  0  0  0
  141.2320   81.1750  224.0740 C   0  0  0  0  0  0  0  0  0  0  0  0
  142.5750   81.5440  224.0600 C   0  0  0  0  0  0  0  0  0  0  0  0
  142.8590   82.7640  224.5970 F   0  0  0  0  0  0  0  0  0  0  0  0
  143.5360   80.7130  223.5340 C   0  0  0  0  0  0  0  0  0  0  0  0
  143.1500   79.4810  223.0060 C   0  0  0  0  0  0  0  0  0  0  0  0
  141.8220   79.0780  223.0010 C   0  0  0  0  0  0  0  0  0  0  0  0
  141.4620   77.8750  222.4830 N   0  0  0  0  0  0  0  0  0  0  0  0
  141.7090   75.5850  221.5220 H   0  0  0  0  0  0  0  0  0  0  0  0
  140.1508   73.2739  221.7222 H   0  0  0  0  0  0  0  0  0  0  0  0
  139.4256   74.1156  220.2876 H   0  0  0  0  0  0  0  0  0  0  0  0
  143.7362   72.7769  221.8125 H   0  0  0  0  0  0  0  0  0  0  0  0
  142.7091   71.5954  220.8904 H   0  0  0  0  0  0  0  0  0  0  0  0
  145.3458   71.5822  220.8593 H   0  0  0  0  0  0  0  0  0  0  0  0
  144.2406   71.1400  219.4293 H   0  0  0  0  0  0  0  0  0  0  0  0
  146.0361   73.4575  219.8146 H   0  0  0  0  0  0  0  0  0  0  0  0
  145.8498   72.2554  218.4459 H   0  0  0  0  0  0  0  0  0  0  0  0
  145.0208   74.5273  217.8791 H   0  0  0  0  0  0  0  0  0  0  0  0
  143.7770   73.2931  217.7547 H   0  0  0  0  0  0  0  0  0  0  0  0
  144.1935   74.8706  220.4923 H   0  0  0  0  0  0  0  0  0  0  0  0
  139.4931   78.0874  219.4121 H   0  0  0  0  0  0  0  0  0  0  0  0
  138.3197   80.1430  220.1001 H   0  0  0  0  0  0  0  0  0  0  0  0
  139.5882   82.2390  220.6253 H   0  0  0  0  0  0  0  0  0  0  0  0
  142.0577   82.1944  220.4339 H   0  0  0  0  0  0  0  0  0  0  0  0
  143.2473   80.1384  219.7442 H   0  0  0  0  0  0  0  0  0  0  0  0
  142.5235   78.1781  216.9698 H   0  0  0  0  0  0  0  0  0  0  0  0
  138.1888   78.0531  223.0231 H   0  0  0  0  0  0  0  0  0  0  0  0
  138.8036   80.2494  223.9775 H   0  0  0  0  0  0  0  0  0  0  0  0
  140.4635   81.8394  224.4958 H   0  0  0  0  0  0  0  0  0  0  0  0
  144.5936   81.0153  223.5297 H   0  0  0  0  0  0  0  0  0  0  0  0
  143.9157   78.8136  222.5839 H   0  0  0  0  0  0  0  0  0  0  0  0
  1  2  2  0
  2  3  1  0
  3  4  1  0
  4  5  1  0
  5  6  2  0
  5  7  1  0
  7  8  1  0
  8  9  1  0
  9 10  1  0
 10 11  1  0
 11 12  1  0
 12 13  1  0
 13 14  2  0
 14 15  1  0
 15 16  1  0
 16 17  2  0
 17 18  1  0
 18 19  2  0
 19 20  1  0
 20 21  2  0
 15 22  2  0
 22 23  1  0
  2 24  1  0
 24 25  2  0
 25 26  1  0
 26 27  2  0
 27 28  1  0
 28 29  2  0
 29 30  1  0
 29 31  1  0
 31 32  2  0
 32 33  1  0
 33 34  2  0
 12  7  1  0
 23 13  1  0
 34 24  1  0
 21 16  1  0
 33 27  1  0
  3 35  1  0
  4 36  1  0
  4 37  1  0
  8 38  1  0
  8 39  1  0
  9 40  1  0
  9 41  1  0
 10 42  1  0
 10 43  1  0
 11 44  1  0
 11 45  1  0
 12 46  1  1
 17 47  1  0
 18 48  1  0
 19 49  1  0
 20 50  1  0
 21 51  1  0
 22 52  1  0
 25 53  1  0
 26 54  1  0
 28 55  1  0
 31 56  1  0
 32 57  1  0
M  END
>  <smiles>  (41) 
O=C(NCC(=O)N1CCCC[C@H]1c1nc(-c2ccccc2)co1)c1ccc2cc(F)ccc2n1

>  <score_type>  (41) 
oracle

>  <origin>  (41) 
autodockgpu

>  <m_score__min__energy>  (41) 
-9.4100000000000001

>  <m_primary>  (41) 
energy

>  <rmsd>  (41) 
7.12940721732659

>  <m_score__min__rmsd>  (41) 
7.12940721732659

>  <meeko>  (41) 
{"free_energy": -6.51, "intermolecular_energy": -8.3, "internal_energy": -4.39, "cluster_size": 9, "cluster_id": 11, "rank_in_cluster": 8}

>  <energy>  (41) 
-6.68

>  <cluster_rmsd>  (41) 
0.45

>  <cluster>  (41) 
11

$$$$

     RDKit          3D

 57 61  0  0  0  0  0  0  0  0999 V2000
  140.0890   71.5260  221.0200 O   0  0  0  0  0  0  0  0  0  0  0  0
  139.7880   72.1280  222.0950 C   0  0  0  0  0  0  0  0  0  0  0  0
  139.4820   73.5180  222.1080 N   0  0  0  0  0  0  0  0  0  0  0  0
  139.4980   74.3210  220.8780 C   0  0  0  0  0  0  0  0  0  0  0  0
  138.5160   75.3860  220.9150 C   0  0  0  0  0  0  0  0  0  0  0  0
  138.8490   76.4620  220.2570 O   0  0  0  0  0  0  0  0  0  0  0  0
  137.2660   75.4660  221.5360 N   0  0  0  0  0  0  0  0  0  0  0  0
  136.3540   74.3200  221.1770 C   0  0  0  0  0  0  0  0  0  0  0  0
  135.6500   73.7720  222.3600 C   0  0  0  0  0  0  0  0  0  0  0  0
  135.4250   74.6790  223.5080 C   0  0  0  0  0  0  0  0  0  0  0  0
  136.5460   75.6410  223.7570 C   0  0  0  0  0  0  0  0  0  0  0  0
  136.6890   76.4020  222.4080 C   0  0  1  0  0  0  0  0  0  0  0  0
  137.3490   77.6700  222.6930 C   0  0  0  0  0  0  0  0  0  0  0  0
  138.7250   77.7600  222.7740 N   0  0  0  0  0  0  0  0  0  0  0  0
  139.0750   79.0090  223.0360 C   0  0  0  0  0  0  0  0  0  0  0  0
  140.4190   79.5780  223.2110 C   0  0  0  0  0  0  0  0  0  0  0  0
  141.5500   78.8420  222.9100 C   0  0  0  0  0  0  0  0  0  0  0  0
  142.8050   79.3930  223.0800 C   0  0  0  0  0  0  0  0  0  0  0  0
  142.9740   80.6960  223.5560 C   0  0  0  0  0  0  0  0  0  0  0  0
  141.8430   81.4090  223.8480 C   0  0  0  0  0  0  0  0  0  0  0  0
  140.5730   80.8670  223.6810 C   0  0  0  0  0  0  0  0  0  0  0  0
  137.9080   79.7320  223.1250 C   0  0  0  0  0  0  0  0  0  0  0  0
  136.9480   78.8760  222.9120 O   0  0  0  0  0  0  0  0  0  0  0  0
  139.7570   71.3680  223.3560 C   0  0  0  0  0  0  0  0  0  0  0  0
  139.1120   70.1590  223.4150 C   0  0  0  0  0  0  0  0  0  0  0  0
  139.0400   69.3880  224.5590 C   0  0  0  0  0  0  0  0  0  0  0  0
  139.6530   69.8730  225.6920 C   0  0  0  0  0  0  0  0  0  0  0  0
  139.5840   69.1120  226.8320 C   0  0  0  0  0  0  0  0  0  0  0  0
  140.2040   69.6030  227.9780 C   0  0  0  0  0  0  0  0  0  0  0  0
  140.1110   68.8150  229.0860 F   0  0  0  0  0  0  0  0  0  0  0  0
  140.8630   70.8100  227.9680 C   0  0  0  0  0  0  0  0  0  0  0  0
  140.9060   71.5480  226.7850 C   0  0  0  0  0  0  0  0  0  0  0  0
  140.3000   71.0910  225.6220 C   0  0  0  0  0  0  0  0  0  0  0  0
  140.3500   71.8220  224.4790 N   0  0  0  0  0  0  0  0  0  0  0  0
  139.2440   73.9340  223.0370 H   0  0  0  0  0  0  0  0  0  0  0  0
  140.4977   74.7632  220.7550 H   0  0  0  0  0  0  0  0  0  0  0  0
  139.2509   73.6586  220.0353 H   0  0  0  0  0  0  0  0  0  0  0  0
  135.6060   74.6761  220.4533 H   0  0  0  0  0  0  0  0  0  0  0  0
  136.9732   73.5168  220.7510 H   0  0  0  0  0  0  0  0  0  0  0  0
  134.6644   73.4195  222.0217 H   0  0  0  0  0  0  0  0  0  0  0  0
  136.3233   72.9937  222.7484 H   0  0  0  0  0  0  0  0  0  0  0  0
  134.5094   75.2578  223.3166 H   0  0  0  0  0  0  0  0  0  0  0  0
  135.3474   74.0442  224.4030 H   0  0  0  0  0  0  0  0  0  0  0  0
  136.2935   76.3341  224.5730 H   0  0  0  0  0  0  0  0  0  0  0  0
  137.4762   75.1400  224.0633 H   0  0  0  0  0  0  0  0  0  0  0  0
  135.7800   76.7391  221.8883 H   0  0  0  0  0  0  0  0  0  0  0  0
  141.4499   77.8133  222.5336 H   0  0  0  0  0  0  0  0  0  0  0  0
  143.6929   78.7917  222.8348 H   0  0  0  0  0  0  0  0  0  0  0  0
  143.9754   81.1308  223.6905 H   0  0  0  0  0  0  0  0  0  0  0  0
  141.9409   82.4378  224.2247 H   0  0  0  0  0  0  0  0  0  0  0  0
  139.6855   81.4693  223.9250 H   0  0  0  0  0  0  0  0  0  0  0  0
  137.8062   80.8074  223.3325 H   0  0  0  0  0  0  0  0  0  0  0  0
  138.6260   69.7832  222.5025 H   0  0  0  0  0  0  0  0  0  0  0  0
  138.5126   68.4227  224.5643 H   0  0  0  0  0  0  0  0  0  0  0  0
  139.0567   68.1467  226.8401 H   0  0  0  0  0  0  0  0  0  0  0  0
  141.3491   71.1880  228.8795 H   0  0  0  0  0  0  0  0  0  0  0  0
  141.4320   72.5140  226.7731 H   0  0  0  0  0  0  0  0  0  0  0  0
  1  2  2  0
  2  3  1  0
  3  4  1  0
  4  5  1  0
  5  6  2  0
  5  7  1  0
  7  8  1  0
  8  9  1  0
  9 10  1  0
 10 11  1  0
 11 12  1  0
 12 13  1  0
 13 14  2  0
 14 15  1  0
 15 16  1  0
 16 17  2  0
 17 18  1  0
 18 19  2  0
 19 20  1  0
 20 21  2  0
 15 22  2  0
 22 23  1  0
  2 24  1  0
 24 25  2  0
 25 26  1  0
 26 27  2  0
 27 28  1  0
 28 29  2  0
 29 30  1  0
 29 31  1  0
 31 32  2  0
 32 33  1  0
 33 34  2  0
 12  7  1  0
 23 13  1  0
 34 24  1  0
 21 16  1  0
 33 27  1  0
  3 35  1  0
  4 36  1  0
  4 37  1  0
  8 38  1  0
  8 39  1  0
  9 40  1  0
  9 41  1  0
 10 42  1  0
 10 43  1  0
 11 44  1  0
 11 45  1  0
 12 46  1  6
 17 47  1  0
 18 48  1  0
 19 49  1  0
 20 50  1  0
 21 51  1  0
 22 52  1  0
 25 53  1  0
 26 54  1  0
 28 55  1  0
 31 56  1  0
 32 57  1  0
M  END
>  <smiles>  (42) 
O=C(NCC(=O)N1CCCC[C@H]1c1nc(-c2ccccc2)co1)c1ccc2cc(F)ccc2n1

>  <score_type>  (42) 
oracle

>  <origin>  (42) 
autodockgpu

>  <m_score__min__energy>  (42) 
-9.4100000000000001

>  <m_primary>  (42) 
energy

>  <rmsd>  (42) 
3.9087264965933297

>  <m_score__min__rmsd>  (42) 
3.9087264965933297

>  <meeko>  (42) 
{"free_energy": -8.92, "intermolecular_energy": -10.71, "internal_energy": -1.95, "cluster_size": 8, "cluster_id": 2, "rank_in_cluster": 2}

>  <energy>  (42) 
-6.6

>  <cluster_rmsd>  (42) 
0.88

>  <cluster>  (42) 
11

$$$$

     RDKit          3D

 57 61  0  0  0  0  0  0  0  0999 V2000
  141.4150   72.9750  221.5630 O   0  0  0  0  0  0  0  0  0  0  0  0
  140.3700   73.0110  222.2810 C   0  0  0  0  0  0  0  0  0  0  0  0
  139.5290   74.1580  222.3120 N   0  0  0  0  0  0  0  0  0  0  0  0
  139.8300   75.3560  221.5140 C   0  0  0  0  0  0  0  0  0  0  0  0
  139.2730   76.5540  222.1080 C   0  0  0  0  0  0  0  0  0  0  0  0
  138.1870   76.3670  222.8050 O   0  0  0  0  0  0  0  0  0  0  0  0
  139.6950   77.8860  222.0640 N   0  0  0  0  0  0  0  0  0  0  0  0
  138.8470   78.8020  222.9110 C   0  0  0  0  0  0  0  0  0  0  0  0
  139.6660   79.7490  223.7040 C   0  0  0  0  0  0  0  0  0  0  0  0
  141.0030   80.1090  223.1800 C   0  0  0  0  0  0  0  0  0  0  0  0
  141.7170   78.9820  222.4980 C   0  0  0  0  0  0  0  0  0  0  0  0
  140.7310   78.5400  221.3800 C   0  0  1  0  0  0  0  0  0  0  0  0
  141.5120   77.8490  220.3610 C   0  0  0  0  0  0  0  0  0  0  0  0
  142.2010   76.6870  220.6520 N   0  0  0  0  0  0  0  0  0  0  0  0
  142.8230   76.2560  219.5670 C   0  0  0  0  0  0  0  0  0  0  0  0
  143.6720   75.0680  219.3940 C   0  0  0  0  0  0  0  0  0  0  0  0
  144.3790   74.5360  220.4570 C   0  0  0  0  0  0  0  0  0  0  0  0
  145.1710   73.4200  220.2780 C   0  0  0  0  0  0  0  0  0  0  0  0
  145.2870   72.7970  219.0320 C   0  0  0  0  0  0  0  0  0  0  0  0
  144.5800   73.3370  217.9930 C   0  0  0  0  0  0  0  0  0  0  0  0
  143.7780   74.4610  218.1590 C   0  0  0  0  0  0  0  0  0  0  0  0
  142.5300   77.1530  218.5650 C   0  0  0  0  0  0  0  0  0  0  0  0
  141.7600   78.0510  219.1130 O   0  0  0  0  0  0  0  0  0  0  0  0
  140.0240   71.8370  223.0990 C   0  0  0  0  0  0  0  0  0  0  0  0
  139.0350   70.9790  222.6890 C   0  0  0  0  0  0  0  0  0  0  0  0
  138.6540   69.8590  223.4000 C   0  0  0  0  0  0  0  0  0  0  0  0
  139.3110   69.6030  224.5830 C   0  0  0  0  0  0  0  0  0  0  0  0
  138.9360   68.4900  225.2950 C   0  0  0  0  0  0  0  0  0  0  0  0
  139.6000   68.2320  226.4920 C   0  0  0  0  0  0  0  0  0  0  0  0
  139.1960   67.1190  227.1650 F   0  0  0  0  0  0  0  0  0  0  0  0
  140.5980   69.0630  226.9440 C   0  0  0  0  0  0  0  0  0  0  0  0
  140.9440   70.1810  226.1860 C   0  0  0  0  0  0  0  0  0  0  0  0
  140.3050   70.4720  224.9880 C   0  0  0  0  0  0  0  0  0  0  0  0
  140.6530   71.5650  224.2610 N   0  0  0  0  0  0  0  0  0  0  0  0
  138.6880   74.1030  222.9300 H   0  0  0  0  0  0  0  0  0  0  0  0
  140.9217   75.4697  221.4409 H   0  0  0  0  0  0  0  0  0  0  0  0
  139.3776   75.2262  220.5198 H   0  0  0  0  0  0  0  0  0  0  0  0
  138.1795   79.3767  222.2521 H   0  0  0  0  0  0  0  0  0  0  0  0
  138.2756   78.1786  223.6145 H   0  0  0  0  0  0  0  0  0  0  0  0
  139.0893   80.6807  223.8007 H   0  0  0  0  0  0  0  0  0  0  0  0
  139.8703   79.2186  224.6458 H   0  0  0  0  0  0  0  0  0  0  0  0
  140.8812   80.9287  222.4567 H   0  0  0  0  0  0  0  0  0  0  0  0
  141.6169   80.3948  224.0469 H   0  0  0  0  0  0  0  0  0  0  0  0
  142.6693   79.3251  222.0674 H   0  0  0  0  0  0  0  0  0  0  0  0
  141.9742   78.1633  223.1861 H   0  0  0  0  0  0  0  0  0  0  0  0
  140.2233   79.3116  220.7827 H   0  0  0  0  0  0  0  0  0  0  0  0
  144.3097   75.0046  221.4498 H   0  0  0  0  0  0  0  0  0  0  0  0
  145.7242   73.0110  221.1363 H   0  0  0  0  0  0  0  0  0  0  0  0
  145.9209   71.9089  218.8928 H   0  0  0  0  0  0  0  0  0  0  0  0
  144.6476   72.8697  216.9995 H   0  0  0  0  0  0  0  0  0  0  0  0
  143.2245   74.8689  217.3004 H   0  0  0  0  0  0  0  0  0  0  0  0
  142.8736   77.1192  217.5206 H   0  0  0  0  0  0  0  0  0  0  0  0
  138.5178   71.1954  221.7426 H   0  0  0  0  0  0  0  0  0  0  0  0
  137.8557   69.1959  223.0355 H   0  0  0  0  0  0  0  0  0  0  0  0
  138.1384   67.8249  224.9323 H   0  0  0  0  0  0  0  0  0  0  0  0
  141.1162   68.8488  227.8904 H   0  0  0  0  0  0  0  0  0  0  0  0
  141.7416   70.8479  226.5453 H   0  0  0  0  0  0  0  0  0  0  0  0
  1  2  2  0
  2  3  1  0
  3  4  1  0
  4  5  1  0
  5  6  2  0
  5  7  1  0
  7  8  1  0
  8  9  1  0
  9 10  1  0
 10 11  1  0
 11 12  1  0
 12 13  1  0
 13 14  2  0
 14 15  1  0
 15 16  1  0
 16 17  2  0
 17 18  1  0
 18 19  2  0
 19 20  1  0
 20 21  2  0
 15 22  2  0
 22 23  1  0
  2 24  1  0
 24 25  2  0
 25 26  1  0
 26 27  2  0
 27 28  1  0
 28 29  2  0
 29 30  1  0
 29 31  1  0
 31 32  2  0
 32 33  1  0
 33 34  2  0
 12  7  1  0
 23 13  1  0
 34 24  1  0
 21 16  1  0
 33 27  1  0
  3 35  1  0
  4 36  1  0
  4 37  1  0
  8 38  1  0
  8 39  1  0
  9 40  1  0
  9 41  1  0
 10 42  1  0
 10 43  1  0
 11 44  1  0
 11 45  1  0
 12 46  1  6
 17 47  1  0
 18 48  1  0
 19 49  1  0
 20 50  1  0
 21 51  1  0
 22 52  1  0
 25 53  1  0
 26 54  1  0
 28 55  1  0
 31 56  1  0
 32 57  1  0
M  END
>  <smiles>  (43) 
O=C(NCC(=O)N1CCCC[C@H]1c1nc(-c2ccccc2)co1)c1ccc2cc(F)ccc2n1

>  <score_type>  (43) 
oracle

>  <origin>  (43) 
autodockgpu

>  <m_score__min__energy>  (43) 
-9.4100000000000001

>  <m_primary>  (43) 
energy

>  <rmsd>  (43) 
5.411290716407953

>  <m_score__min__rmsd>  (43) 
5.411290716407953

>  <meeko>  (43) 
{"free_energy": -8.96, "intermolecular_energy": -10.75, "internal_energy": -2.23, "cluster_size": 15, "cluster_id": 1, "rank_in_cluster": 8}

>  <energy>  (43) 
-6.51

>  <cluster_rmsd>  (43) 
1.98

>  <cluster>  (43) 
11

$$$$

     RDKit          3D

 57 61  0  0  0  0  0  0  0  0999 V2000
  138.9200   77.8160  223.0910 O   0  0  0  0  0  0  0  0  0  0  0  0
  139.8040   76.9910  222.7090 C   0  0  0  0  0  0  0  0  0  0  0  0
  141.1900   77.3090  222.7640 N   0  0  0  0  0  0  0  0  0  0  0  0
  141.6630   78.6070  223.2650 C   0  0  0  0  0  0  0  0  0  0  0  0
  142.1280   79.4630  222.1930 C   0  0  0  0  0  0  0  0  0  0  0  0
  143.3000   80.0020  222.3900 O   0  0  0  0  0  0  0  0  0  0  0  0
  141.5400   79.8180  220.9750 N   0  0  0  0  0  0  0  0  0  0  0  0
  141.1140   81.2640  220.9240 C   0  0  0  0  0  0  0  0  0  0  0  0
  141.4850   81.9130  219.6440 C   0  0  0  0  0  0  0  0  0  0  0  0
  141.6220   81.0500  218.4500 C   0  0  0  0  0  0  0  0  0  0  0  0
  142.2080   79.7010  218.7350 C   0  0  0  0  0  0  0  0  0  0  0  0
  141.2540   79.0990  219.8050 C   0  0  1  0  0  0  0  0  0  0  0  0
  141.4070   77.6500  219.7570 C   0  0  0  0  0  0  0  0  0  0  0  0
  142.5770   77.0390  220.1660 N   0  0  0  0  0  0  0  0  0  0  0  0
  142.4640   75.7270  220.0310 C   0  0  0  0  0  0  0  0  0  0  0  0
  143.4450   74.6760  220.3360 C   0  0  0  0  0  0  0  0  0  0  0  0
  143.0530   73.3590  220.4950 C   0  0  0  0  0  0  0  0  0  0  0  0
  143.9880   72.3840  220.7810 C   0  0  0  0  0  0  0  0  0  0  0  0
  145.3450   72.6880  220.9180 C   0  0  0  0  0  0  0  0  0  0  0  0
  145.7140   73.9960  220.7570 C   0  0  0  0  0  0  0  0  0  0  0  0
  144.7830   74.9890  220.4690 C   0  0  0  0  0  0  0  0  0  0  0  0
  141.2050   75.4930  219.5280 C   0  0  0  0  0  0  0  0  0  0  0  0
  140.6550   76.6670  219.3980 O   0  0  0  0  0  0  0  0  0  0  0  0
  139.3830   75.6760  222.1980 C   0  0  0  0  0  0  0  0  0  0  0  0
  138.1690   75.5360  221.5730 C   0  0  0  0  0  0  0  0  0  0  0  0
  137.7050   74.3380  221.0680 C   0  0  0  0  0  0  0  0  0  0  0  0
  138.5140   73.2330  221.2070 C   0  0  0  0  0  0  0  0  0  0  0  0
  138.0580   72.0390  220.7070 C   0  0  0  0  0  0  0  0  0  0  0  0
  138.8770   70.9210  220.8480 C   0  0  0  0  0  0  0  0  0  0  0  0
  138.3840   69.7580  220.3380 F   0  0  0  0  0  0  0  0  0  0  0  0
  140.1020   71.0110  221.4670 C   0  0  0  0  0  0  0  0  0  0  0  0
  140.5220   72.2470  221.9590 C   0  0  0  0  0  0  0  0  0  0  0  0
  139.7340   73.3830  221.8370 C   0  0  0  0  0  0  0  0  0  0  0  0
  140.1580   74.5790  222.3220 N   0  0  0  0  0  0  0  0  0  0  0  0
  141.8510   76.5710  222.4300 H   0  0  0  0  0  0  0  0  0  0  0  0
  140.8357   79.1093  223.7877 H   0  0  0  0  0  0  0  0  0  0  0  0
  142.5079   78.4226  223.9448 H   0  0  0  0  0  0  0  0  0  0  0  0
  140.0218   81.3158  221.0437 H   0  0  0  0  0  0  0  0  0  0  0  0
  141.6318   81.7970  221.7350 H   0  0  0  0  0  0  0  0  0  0  0  0
  140.7126   82.6635  219.4201 H   0  0  0  0  0  0  0  0  0  0  0  0
  142.4957   82.3113  219.8168 H   0  0  0  0  0  0  0  0  0  0  0  0
  140.6238   80.9073  218.0104 H   0  0  0  0  0  0  0  0  0  0  0  0
  142.3174   81.5604  217.7675 H   0  0  0  0  0  0  0  0  0  0  0  0
  142.2203   79.0797  217.8274 H   0  0  0  0  0  0  0  0  0  0  0  0
  143.2515   79.7552  219.0786 H   0  0  0  0  0  0  0  0  0  0  0  0
  140.1677   79.2099  219.6719 H   0  0  0  0  0  0  0  0  0  0  0  0
  141.9920   73.0873  220.3932 H   0  0  0  0  0  0  0  0  0  0  0  0
  143.6565   71.3424  220.9040 H   0  0  0  0  0  0  0  0  0  0  0  0
  146.0863   71.9079  221.1459 H   0  0  0  0  0  0  0  0  0  0  0  0
  146.7747   74.2695  220.8580 H   0  0  0  0  0  0  0  0  0  0  0  0
  145.1153   76.0304  220.3464 H   0  0  0  0  0  0  0  0  0  0  0  0
  140.7564   74.5182  219.2861 H   0  0  0  0  0  0  0  0  0  0  0  0
  137.5315   76.4264  221.4689 H   0  0  0  0  0  0  0  0  0  0  0  0
  136.7252   74.2689  220.5729 H   0  0  0  0  0  0  0  0  0  0  0  0
  137.0786   71.9672  220.2115 H   0  0  0  0  0  0  0  0  0  0  0  0
  140.7409   70.1218  221.5725 H   0  0  0  0  0  0  0  0  0  0  0  0
  141.5007   72.3230  222.4553 H   0  0  0  0  0  0  0  0  0  0  0  0
  1  2  2  0
  2  3  1  0
  3  4  1  0
  4  5  1  0
  5  6  2  0
  5  7  1  0
  7  8  1  0
  8  9  1  0
  9 10  1  0
 10 11  1  0
 11 12  1  0
 12 13  1  0
 13 14  2  0
 14 15  1  0
 15 16  1  0
 16 17  2  0
 17 18  1  0
 18 19  2  0
 19 20  1  0
 20 21  2  0
 15 22  2  0
 22 23  1  0
  2 24  1  0
 24 25  2  0
 25 26  1  0
 26 27  2  0
 27 28  1  0
 28 29  2  0
 29 30  1  0
 29 31  1  0
 31 32  2  0
 32 33  1  0
 33 34  2  0
 12  7  1  0
 23 13  1  0
 34 24  1  0
 21 16  1  0
 33 27  1  0
  3 35  1  0
  4 36  1  0
  4 37  1  0
  8 38  1  0
  8 39  1  0
  9 40  1  0
  9 41  1  0
 10 42  1  0
 10 43  1  0
 11 44  1  0
 11 45  1  0
 12 46  1  6
 17 47  1  0
 18 48  1  0
 19 49  1  0
 20 50  1  0
 21 51  1  0
 22 52  1  0
 25 53  1  0
 26 54  1  0
 28 55  1  0
 31 56  1  0
 32 57  1  0
M  END
>  <smiles>  (44) 
O=C(NCC(=O)N1CCCC[C@H]1c1nc(-c2ccccc2)co1)c1ccc2cc(F)ccc2n1

>  <score_type>  (44) 
oracle

>  <origin>  (44) 
autodockgpu

>  <m_score__min__energy>  (44) 
-9.4100000000000001

>  <m_primary>  (44) 
energy

>  <rmsd>  (44) 
6.872301739801429

>  <m_score__min__rmsd>  (44) 
6.872301739801429

>  <meeko>  (44) 
{"free_energy": -7.18, "intermolecular_energy": -8.97, "internal_energy": -3.65, "cluster_size": 1, "cluster_id": 10, "rank_in_cluster": 1}

>  <energy>  (44) 
-6.24

>  <cluster_rmsd>  (44) 
1.91

>  <cluster>  (44) 
11

$$$$

     RDKit          3D

 57 61  0  0  0  0  0  0  0  0999 V2000
  140.0510   74.1280  222.2440 O   0  0  0  0  0  0  0  0  0  0  0  0
  140.2340   75.2680  221.7190 C   0  0  0  0  0  0  0  0  0  0  0  0
  141.2800   75.4940  220.7810 N   0  0  0  0  0  0  0  0  0  0  0  0
  142.1970   74.4190  220.3760 C   0  0  0  0  0  0  0  0  0  0  0  0
  143.2520   74.9070  219.5110 C   0  0  0  0  0  0  0  0  0  0  0  0
  144.4610   74.7220  219.9620 O   0  0  0  0  0  0  0  0  0  0  0  0
  143.2030   75.5470  218.2680 N   0  0  0  0  0  0  0  0  0  0  0  0
  144.0870   74.8960  217.2340 C   0  0  0  0  0  0  0  0  0  0  0  0
  143.4080   74.7570  215.9240 C   0  0  0  0  0  0  0  0  0  0  0  0
  142.3300   75.7190  215.6020 C   0  0  0  0  0  0  0  0  0  0  0  0
  141.4870   76.1080  216.7790 C   0  0  0  0  0  0  0  0  0  0  0  0
  142.5140   76.6750  217.7990 C   0  0  1  0  0  0  0  0  0  0  0  0
  141.7820   77.5430  218.7150 C   0  0  0  0  0  0  0  0  0  0  0  0
  142.4270   78.2170  219.7330 N   0  0  0  0  0  0  0  0  0  0  0  0
  141.5510   78.9350  220.4160 C   0  0  0  0  0  0  0  0  0  0  0  0
  141.7720   79.8090  221.5780 C   0  0  0  0  0  0  0  0  0  0  0  0
  141.2900   81.1050  221.5980 C   0  0  0  0  0  0  0  0  0  0  0  0
  141.5060   81.9120  222.6970 C   0  0  0  0  0  0  0  0  0  0  0  0
  142.2110   81.4540  223.8130 C   0  0  0  0  0  0  0  0  0  0  0  0
  142.6810   80.1690  223.7760 C   0  0  0  0  0  0  0  0  0  0  0  0
  142.4700   79.3450  222.6750 C   0  0  0  0  0  0  0  0  0  0  0  0
  140.3260   78.7200  219.8290 C   0  0  0  0  0  0  0  0  0  0  0  0
  140.5490   77.8960  218.8440 O   0  0  0  0  0  0  0  0  0  0  0  0
  139.3420   76.3790  222.0910 C   0  0  0  0  0  0  0  0  0  0  0  0
  138.0190   76.3500  221.7300 C   0  0  0  0  0  0  0  0  0  0  0  0
  137.1220   77.3530  222.0410 C   0  0  0  0  0  0  0  0  0  0  0  0
  137.5960   78.4320  222.7520 C   0  0  0  0  0  0  0  0  0  0  0  0
  136.7080   79.4320  223.0650 C   0  0  0  0  0  0  0  0  0  0  0  0
  137.1880   80.5230  223.7840 C   0  0  0  0  0  0  0  0  0  0  0  0
  136.2740   81.4910  224.0720 F   0  0  0  0  0  0  0  0  0  0  0  0
  138.5070   80.5970  224.1690 C   0  0  0  0  0  0  0  0  0  0  0  0
  139.3710   79.5560  223.8280 C   0  0  0  0  0  0  0  0  0  0  0  0
  138.9290   78.4520  223.1120 C   0  0  0  0  0  0  0  0  0  0  0  0
  139.7830   77.4460  222.7870 N   0  0  0  0  0  0  0  0  0  0  0  0
  141.3590   76.4630  220.3960 H   0  0  0  0  0  0  0  0  0  0  0  0
  142.6503   73.9798  221.2769 H   0  0  0  0  0  0  0  0  0  0  0  0
  141.6178   73.6687  219.8179 H   0  0  0  0  0  0  0  0  0  0  0  0
  144.9894   75.5110  217.1017 H   0  0  0  0  0  0  0  0  0  0  0  0
  144.3390   73.8870  217.5923 H   0  0  0  0  0  0  0  0  0  0  0  0
  144.1773   74.8524  215.1435 H   0  0  0  0  0  0  0  0  0  0  0  0
  142.9034   73.7809  215.9747 H   0  0  0  0  0  0  0  0  0  0  0  0
  142.7905   76.6293  215.1907 H   0  0  0  0  0  0  0  0  0  0  0  0
  141.6625   75.2198  214.8841 H   0  0  0  0  0  0  0  0  0  0  0  0
  140.7503   76.8747  216.4972 H   0  0  0  0  0  0  0  0  0  0  0  0
  140.9062   75.2659  217.1834 H   0  0  0  0  0  0  0  0  0  0  0  0
  143.3038   77.3505  217.4387 H   0  0  0  0  0  0  0  0  0  0  0  0
  140.7318   81.4947  220.7340 H   0  0  0  0  0  0  0  0  0  0  0  0
  141.1139   82.9397  222.6941 H   0  0  0  0  0  0  0  0  0  0  0  0
  142.3815   82.1004  224.6866 H   0  0  0  0  0  0  0  0  0  0  0  0
  143.2399   79.7777  224.6389 H   0  0  0  0  0  0  0  0  0  0  0  0
  142.8619   78.3172  222.6786 H   0  0  0  0  0  0  0  0  0  0  0  0
  139.3600   79.1529  220.1282 H   0  0  0  0  0  0  0  0  0  0  0  0
  137.6530   75.4816  221.1626 H   0  0  0  0  0  0  0  0  0  0  0  0
  136.0681   77.2918  221.7320 H   0  0  0  0  0  0  0  0  0  0  0  0
  135.6534   79.3727  222.7580 H   0  0  0  0  0  0  0  0  0  0  0  0
  138.8748   81.4641  224.7372 H   0  0  0  0  0  0  0  0  0  0  0  0
  140.4263   79.6113  224.1334 H   0  0  0  0  0  0  0  0  0  0  0  0
  1  2  2  0
  2  3  1  0
  3  4  1  0
  4  5  1  0
  5  6  2  0
  5  7  1  0
  7  8  1  0
  8  9  1  0
  9 10  1  0
 10 11  1  0
 11 12  1  0
 12 13  1  0
 13 14  2  0
 14 15  1  0
 15 16  1  0
 16 17  2  0
 17 18  1  0
 18 19  2  0
 19 20  1  0
 20 21  2  0
 15 22  2  0
 22 23  1  0
  2 24  1  0
 24 25  2  0
 25 26  1  0
 26 27  2  0
 27 28  1  0
 28 29  2  0
 29 30  1  0
 29 31  1  0
 31 32  2  0
 32 33  1  0
 33 34  2  0
 12  7  1  0
 23 13  1  0
 34 24  1  0
 21 16  1  0
 33 27  1  0
  3 35  1  0
  4 36  1  0
  4 37  1  0
  8 38  1  0
  8 39  1  0
  9 40  1  0
  9 41  1  0
 10 42  1  0
 10 43  1  0
 11 44  1  0
 11 45  1  0
 12 46  1  6
 17 47  1  0
 18 48  1  0
 19 49  1  0
 20 50  1  0
 21 51  1  0
 22 52  1  0
 25 53  1  0
 26 54  1  0
 28 55  1  0
 31 56  1  0
 32 57  1  0
M  END
>  <smiles>  (45) 
O=C(NCC(=O)N1CCCC[C@H]1c1nc(-c2ccccc2)co1)c1ccc2cc(F)ccc2n1

>  <score_type>  (45) 
oracle

>  <origin>  (45) 
autodockgpu

>  <m_score__min__energy>  (45) 
-9.4100000000000001

>  <m_primary>  (45) 
energy

>  <rmsd>  (45) 
6.528739659835298

>  <m_score__min__rmsd>  (45) 
6.528739659835298

>  <meeko>  (45) 
{"free_energy": -6.73, "intermolecular_energy": -8.52, "internal_energy": -4.21, "cluster_size": 9, "cluster_id": 11, "rank_in_cluster": 4}

>  <energy>  (45) 
-6.82

>  <cluster_rmsd>  (45) 
0.0

>  <cluster>  (45) 
12

$$$$

     RDKit          3D

 57 61  0  0  0  0  0  0  0  0999 V2000
  141.2610   72.7310  221.3240 O   0  0  0  0  0  0  0  0  0  0  0  0
  140.3800   72.8540  222.2280 C   0  0  0  0  0  0  0  0  0  0  0  0
  139.5370   73.9980  222.2930 N   0  0  0  0  0  0  0  0  0  0  0  0
  139.6450   75.0920  221.3180 C   0  0  0  0  0  0  0  0  0  0  0  0
  139.1950   76.3540  221.8680 C   0  0  0  0  0  0  0  0  0  0  0  0
  138.2300   76.2590  222.7410 O   0  0  0  0  0  0  0  0  0  0  0  0
  139.6120   77.6670  221.6270 N   0  0  0  0  0  0  0  0  0  0  0  0
  138.6990   78.6990  222.2400 C   0  0  0  0  0  0  0  0  0  0  0  0
  139.4520   79.7810  222.9170 C   0  0  0  0  0  0  0  0  0  0  0  0
  140.8220   80.0700  222.4380 C   0  0  0  0  0  0  0  0  0  0  0  0
  141.5910   78.8560  222.0150 C   0  0  0  0  0  0  0  0  0  0  0  0
  140.6940   78.2120  220.9200 C   0  0  1  0  0  0  0  0  0  0  0  0
  141.5540   77.3710  220.0950 C   0  0  0  0  0  0  0  0  0  0  0  0
  142.1990   76.2690  220.6230 N   0  0  0  0  0  0  0  0  0  0  0  0
  142.9090   75.6740  219.6790 C   0  0  0  0  0  0  0  0  0  0  0  0
  143.7540   74.4750  219.7700 C   0  0  0  0  0  0  0  0  0  0  0  0
  143.3740   73.2870  219.1710 C   0  0  0  0  0  0  0  0  0  0  0  0
  144.1800   72.1700  219.2680 C   0  0  0  0  0  0  0  0  0  0  0  0
  145.3910   72.1990  219.9640 C   0  0  0  0  0  0  0  0  0  0  0  0
  145.7500   73.3830  220.5490 C   0  0  0  0  0  0  0  0  0  0  0  0
  144.9480   74.5160  220.4610 C   0  0  0  0  0  0  0  0  0  0  0  0
  142.7170   76.4030  218.5270 C   0  0  0  0  0  0  0  0  0  0  0  0
  141.9140   77.3750  218.8570 O   0  0  0  0  0  0  0  0  0  0  0  0
  140.2300   71.7860  223.2300 C   0  0  0  0  0  0  0  0  0  0  0  0
  139.6390   70.5970  222.8870 C   0  0  0  0  0  0  0  0  0  0  0  0
  139.4630   69.5490  223.7690 C   0  0  0  0  0  0  0  0  0  0  0  0
  139.9100   69.7240  225.0590 C   0  0  0  0  0  0  0  0  0  0  0  0
  139.7370   68.6860  225.9420 C   0  0  0  0  0  0  0  0  0  0  0  0
  140.1890   68.8620  227.2470 C   0  0  0  0  0  0  0  0  0  0  0  0
  139.9970   67.8080  228.0880 F   0  0  0  0  0  0  0  0  0  0  0  0
  140.7880   70.0370  227.6390 C   0  0  0  0  0  0  0  0  0  0  0  0
  140.9410   71.0630  226.7070 C   0  0  0  0  0  0  0  0  0  0  0  0
  140.5040   70.9240  225.3960 C   0  0  0  0  0  0  0  0  0  0  0  0
  140.6590   71.9330  224.5000 N   0  0  0  0  0  0  0  0  0  0  0  0
  138.8370   74.0180  223.0700 H   0  0  0  0  0  0  0  0  0  0  0  0
  140.6968   75.1926  221.0119 H   0  0  0  0  0  0  0  0  0  0  0  0
  139.0029   74.8469  220.4591 H   0  0  0  0  0  0  0  0  0  0  0  0
  138.0805   79.1415  221.4453 H   0  0  0  0  0  0  0  0  0  0  0  0
  138.0790   78.1949  222.9960 H   0  0  0  0  0  0  0  0  0  0  0  0
  138.8652   80.7054  222.8112 H   0  0  0  0  0  0  0  0  0  0  0  0
  139.5881   79.4218  223.9478 H   0  0  0  0  0  0  0  0  0  0  0  0
  140.7505   80.7509  221.5770 H   0  0  0  0  0  0  0  0  0  0  0  0
  141.3675   80.5118  223.2849 H   0  0  0  0  0  0  0  0  0  0  0  0
  142.5715   79.1370  221.6031 H   0  0  0  0  0  0  0  0  0  0  0  0
  141.7997   78.1719  222.8507 H   0  0  0  0  0  0  0  0  0  0  0  0
  140.2288   78.8609  220.1633 H   0  0  0  0  0  0  0  0  0  0  0  0
  142.4262   73.2322  218.6154 H   0  0  0  0  0  0  0  0  0  0  0  0
  143.8607   71.2345  218.7855 H   0  0  0  0  0  0  0  0  0  0  0  0
  146.0299   71.3066  220.0388 H   0  0  0  0  0  0  0  0  0  0  0  0
  146.6982   73.4402  221.1036 H   0  0  0  0  0  0  0  0  0  0  0  0
  145.2674   75.4506  220.9452 H   0  0  0  0  0  0  0  0  0  0  0  0
  143.1506   76.2062  217.5354 H   0  0  0  0  0  0  0  0  0  0  0  0
  139.2859   70.4711  221.8528 H   0  0  0  0  0  0  0  0  0  0  0  0
  138.9840   68.6106  223.4528 H   0  0  0  0  0  0  0  0  0  0  0  0
  139.2573   67.7471  225.6284 H   0  0  0  0  0  0  0  0  0  0  0  0
  141.1412   70.1653  228.6728 H   0  0  0  0  0  0  0  0  0  0  0  0
  141.4188   72.0040  227.0173 H   0  0  0  0  0  0  0  0  0  0  0  0
  1  2  2  0
  2  3  1  0
  3  4  1  0
  4  5  1  0
  5  6  2  0
  5  7  1  0
  7  8  1  0
  8  9  1  0
  9 10  1  0
 10 11  1  0
 11 12  1  0
 12 13  1  0
 13 14  2  0
 14 15  1  0
 15 16  1  0
 16 17  2  0
 17 18  1  0
 18 19  2  0
 19 20  1  0
 20 21  2  0
 15 22  2  0
 22 23  1  0
  2 24  1  0
 24 25  2  0
 25 26  1  0
 26 27  2  0
 27 28  1  0
 28 29  2  0
 29 30  1  0
 29 31  1  0
 31 32  2  0
 32 33  1  0
 33 34  2  0
 12  7  1  0
 23 13  1  0
 34 24  1  0
 21 16  1  0
 33 27  1  0
  3 35  1  0
  4 36  1  0
  4 37  1  0
  8 38  1  0
  8 39  1  0
  9 40  1  0
  9 41  1  0
 10 42  1  0
 10 43  1  0
 11 44  1  0
 11 45  1  0
 12 46  1  6
 17 47  1  0
 18 48  1  0
 19 49  1  0
 20 50  1  0
 21 51  1  0
 22 52  1  0
 25 53  1  0
 26 54  1  0
 28 55  1  0
 31 56  1  0
 32 57  1  0
M  END
>  <smiles>  (46) 
O=C(NCC(=O)N1CCCC[C@H]1c1nc(-c2ccccc2)co1)c1ccc2cc(F)ccc2n1

>  <score_type>  (46) 
oracle

>  <origin>  (46) 
autodockgpu

>  <m_score__min__energy>  (46) 
-9.4100000000000001

>  <m_primary>  (46) 
energy

>  <rmsd>  (46) 
5.3890301424508475

>  <m_score__min__rmsd>  (46) 
5.3890301424508475

>  <meeko>  (46) 
{"free_energy": -9.08, "intermolecular_energy": -10.87, "internal_energy": -2.38, "cluster_size": 15, "cluster_id": 1, "rank_in_cluster": 7}

>  <energy>  (46) 
-6.64

>  <cluster_rmsd>  (46) 
0.36

>  <cluster>  (46) 
12

$$$$

     RDKit          3D

 57 61  0  0  0  0  0  0  0  0999 V2000
  136.5410   77.2190  221.2750 O   0  0  0  0  0  0  0  0  0  0  0  0
  137.4170   76.9630  222.1560 C   0  0  0  0  0  0  0  0  0  0  0  0
  137.5330   75.6670  222.7330 N   0  0  0  0  0  0  0  0  0  0  0  0
  136.6460   74.5640  222.3340 C   0  0  0  0  0  0  0  0  0  0  0  0
  137.2980   73.6510  221.4180 C   0  0  0  0  0  0  0  0  0  0  0  0
  136.5660   72.6400  221.0380 O   0  0  0  0  0  0  0  0  0  0  0  0
  138.5820   73.6590  220.8660 N   0  0  0  0  0  0  0  0  0  0  0  0
  138.7010   74.5580  219.6610 C   0  0  0  0  0  0  0  0  0  0  0  0
  139.9340   75.3800  219.6960 C   0  0  0  0  0  0  0  0  0  0  0  0
  141.0930   74.8520  220.4510 C   0  0  0  0  0  0  0  0  0  0  0  0
  140.7230   74.1100  221.6990 C   0  0  0  0  0  0  0  0  0  0  0  0
  139.7700   72.9890  221.1960 C   0  0  1  0  0  0  0  0  0  0  0  0
  139.7820   71.9290  222.1970 C   0  0  0  0  0  0  0  0  0  0  0  0
  140.1950   72.1710  223.4930 N   0  0  0  0  0  0  0  0  0  0  0  0
  140.1090   71.0570  224.2020 C   0  0  0  0  0  0  0  0  0  0  0  0
  140.4370   70.8310  225.6170 C   0  0  0  0  0  0  0  0  0  0  0  0
  140.3740   69.5660  226.1710 C   0  0  0  0  0  0  0  0  0  0  0  0
  140.6860   69.3710  227.5020 C   0  0  0  0  0  0  0  0  0  0  0  0
  141.0710   70.4320  228.3260 C   0  0  0  0  0  0  0  0  0  0  0  0
  141.1280   71.6770  227.7610 C   0  0  0  0  0  0  0  0  0  0  0  0
  140.8160   71.8870  226.4210 C   0  0  0  0  0  0  0  0  0  0  0  0
  139.6340   70.0860  223.3510 C   0  0  0  0  0  0  0  0  0  0  0  0
  139.4690   70.6780  222.2010 O   0  0  0  0  0  0  0  0  0  0  0  0
  138.3300   78.0330  222.5910 C   0  0  0  0  0  0  0  0  0  0  0  0
  137.8280   79.2410  223.0030 C   0  0  0  0  0  0  0  0  0  0  0  0
  138.6200   80.2910  223.4240 C   0  0  0  0  0  0  0  0  0  0  0  0
  139.9830   80.1010  223.4230 C   0  0  0  0  0  0  0  0  0  0  0  0
  140.7750   81.1420  223.8410 C   0  0  0  0  0  0  0  0  0  0  0  0
  142.1540   80.9490  223.8390 C   0  0  0  0  0  0  0  0  0  0  0  0
  142.9000   82.0070  224.2610 F   0  0  0  0  0  0  0  0  0  0  0  0
  142.7040   79.7550  223.4350 C   0  0  0  0  0  0  0  0  0  0  0  0
  141.8580   78.7260  223.0190 C   0  0  0  0  0  0  0  0  0  0  0  0
  140.4790   78.8810  223.0060 C   0  0  0  0  0  0  0  0  0  0  0  0
  139.6690   77.8700  222.5990 N   0  0  0  0  0  0  0  0  0  0  0  0
  138.2820   75.5410  223.4510 H   0  0  0  0  0  0  0  0  0  0  0  0
  136.3423   74.0087  223.2336 H   0  0  0  0  0  0  0  0  0  0  0  0
  135.7739   74.9962  221.8215 H   0  0  0  0  0  0  0  0  0  0  0  0
  138.7159   73.9353  218.7544 H   0  0  0  0  0  0  0  0  0  0  0  0
  137.8391   75.2414  219.6628 H   0  0  0  0  0  0  0  0  0  0  0  0
  140.2596   75.5280  218.6558 H   0  0  0  0  0  0  0  0  0  0  0  0
  139.6436   76.2932  220.2361 H   0  0  0  0  0  0  0  0  0  0  0  0
  141.6503   74.1676  219.7945 H   0  0  0  0  0  0  0  0  0  0  0  0
  141.6905   75.7210  220.7638 H   0  0  0  0  0  0  0  0  0  0  0  0
  141.6150   73.6801  222.1782 H   0  0  0  0  0  0  0  0  0  0  0  0
  140.2558   74.7573  222.4558 H   0  0  0  0  0  0  0  0  0  0  0  0
  140.0354   72.4342  220.2840 H   0  0  0  0  0  0  0  0  0  0  0  0
  140.0738   68.7103  225.5484 H   0  0  0  0  0  0  0  0  0  0  0  0
  140.6302   68.3565  227.9236 H   0  0  0  0  0  0  0  0  0  0  0  0
  141.3182   70.2728  229.3860 H   0  0  0  0  0  0  0  0  0  0  0  0
  141.4282   72.5340  228.3819 H   0  0  0  0  0  0  0  0  0  0  0  0
  140.8718   72.9016  225.9997 H   0  0  0  0  0  0  0  0  0  0  0  0
  139.4351   69.0310  223.5906 H   0  0  0  0  0  0  0  0  0  0  0  0
  136.7369   79.3809  222.9978 H   0  0  0  0  0  0  0  0  0  0  0  0
  138.1776   81.2445  223.7483 H   0  0  0  0  0  0  0  0  0  0  0  0
  140.3349   82.0962  224.1664 H   0  0  0  0  0  0  0  0  0  0  0  0
  143.7948   79.6131  223.4397 H   0  0  0  0  0  0  0  0  0  0  0  0
  142.2943   77.7700  222.6939 H   0  0  0  0  0  0  0  0  0  0  0  0
  1  2  2  0
  2  3  1  0
  3  4  1  0
  4  5  1  0
  5  6  2  0
  5  7  1  0
  7  8  1  0
  8  9  1  0
  9 10  1  0
 10 11  1  0
 11 12  1  0
 12 13  1  0
 13 14  2  0
 14 15  1  0
 15 16  1  0
 16 17  2  0
 17 18  1  0
 18 19  2  0
 19 20  1  0
 20 21  2  0
 15 22  2  0
 22 23  1  0
  2 24  1  0
 24 25  2  0
 25 26  1  0
 26 27  2  0
 27 28  1  0
 28 29  2  0
 29 30  1  0
 29 31  1  0
 31 32  2  0
 32 33  1  0
 33 34  2  0
 12  7  1  0
 23 13  1  0
 34 24  1  0
 21 16  1  0
 33 27  1  0
  3 35  1  0
  4 36  1  0
  4 37  1  0
  8 38  1  0
  8 39  1  0
  9 40  1  0
  9 41  1  0
 10 42  1  0
 10 43  1  0
 11 44  1  0
 11 45  1  0
 12 46  1  6
 17 47  1  0
 18 48  1  0
 19 49  1  0
 20 50  1  0
 21 51  1  0
 22 52  1  0
 25 53  1  0
 26 54  1  0
 28 55  1  0
 31 56  1  0
 32 57  1  0
M  END
>  <smiles>  (47) 
O=C(NCC(=O)N1CCCC[C@H]1c1nc(-c2ccccc2)co1)c1ccc2cc(F)ccc2n1

>  <score_type>  (47) 
oracle

>  <origin>  (47) 
autodockgpu

>  <m_score__min__energy>  (47) 
-9.4100000000000001

>  <m_primary>  (47) 
energy

>  <rmsd>  (47) 
9.023682677397575

>  <m_score__min__rmsd>  (47) 
9.023682677397575

>  <meeko>  (47) 
{"free_energy": -8.73, "intermolecular_energy": -10.52, "internal_energy": -2.28, "cluster_size": 3, "cluster_id": 4, "rank_in_cluster": 2}

>  <energy>  (47) 
-6.74

>  <cluster_rmsd>  (47) 
0.0

>  <cluster>  (47) 
13

$$$$

     RDKit          3D

 57 61  0  0  0  0  0  0  0  0999 V2000
  140.5640   74.1320  222.0180 O   0  0  0  0  0  0  0  0  0  0  0  0
  140.6760   75.3170  221.5810 C   0  0  0  0  0  0  0  0  0  0  0  0
  141.7300   75.6870  220.6990 N   0  0  0  0  0  0  0  0  0  0  0  0
  142.7370   74.7150  220.2520 C   0  0  0  0  0  0  0  0  0  0  0  0
  142.7560   74.5790  218.8100 C   0  0  0  0  0  0  0  0  0  0  0  0
  142.3710   73.4150  218.3640 O   0  0  0  0  0  0  0  0  0  0  0  0
  143.1170   75.4800  217.8040 N   0  0  0  0  0  0  0  0  0  0  0  0
  144.1150   74.9080  216.8290 C   0  0  0  0  0  0  0  0  0  0  0  0
  143.7670   75.2200  215.4230 C   0  0  0  0  0  0  0  0  0  0  0  0
  142.9670   76.4390  215.1660 C   0  0  0  0  0  0  0  0  0  0  0  0
  141.9320   76.7220  216.2120 C   0  0  0  0  0  0  0  0  0  0  0  0
  142.7510   76.8070  217.5310 C   0  0  1  0  0  0  0  0  0  0  0  0
  141.9610   77.5790  218.4830 C   0  0  0  0  0  0  0  0  0  0  0  0
  142.5660   78.3570  219.4510 N   0  0  0  0  0  0  0  0  0  0  0  0
  141.6410   78.9580  220.1810 C   0  0  0  0  0  0  0  0  0  0  0  0
  141.8070   79.8760  221.3170 C   0  0  0  0  0  0  0  0  0  0  0  0
  141.2360   81.1350  221.3060 C   0  0  0  0  0  0  0  0  0  0  0  0
  141.4020   81.9850  222.3820 C   0  0  0  0  0  0  0  0  0  0  0  0
  142.1430   81.6070  223.5050 C   0  0  0  0  0  0  0  0  0  0  0  0
  142.7000   80.3570  223.4980 C   0  0  0  0  0  0  0  0  0  0  0  0
  142.5410   79.4910  222.4210 C   0  0  0  0  0  0  0  0  0  0  0  0
  140.4240   78.5600  219.6760 C   0  0  0  0  0  0  0  0  0  0  0  0
  140.7010   77.7570  218.6870 O   0  0  0  0  0  0  0  0  0  0  0  0
  139.6920   76.3300  221.9980 C   0  0  0  0  0  0  0  0  0  0  0  0
  138.3660   76.1740  221.6800 C   0  0  0  0  0  0  0  0  0  0  0  0
  137.3850   77.0780  222.0350 C   0  0  0  0  0  0  0  0  0  0  0  0
  137.7740   78.1920  222.7450 C   0  0  0  0  0  0  0  0  0  0  0  0
  136.8030   79.0950  223.1000 C   0  0  0  0  0  0  0  0  0  0  0  0
  137.1970   80.2220  223.8190 C   0  0  0  0  0  0  0  0  0  0  0  0
  136.2020   81.0900  224.1500 F   0  0  0  0  0  0  0  0  0  0  0  0
  138.5140   80.4220  224.1600 C   0  0  0  0  0  0  0  0  0  0  0  0
  139.4650   79.4760  223.7760 C   0  0  0  0  0  0  0  0  0  0  0  0
  139.1100   78.3410  223.0600 C   0  0  0  0  0  0  0  0  0  0  0  0
  140.0480   77.4290  222.6930 N   0  0  0  0  0  0  0  0  0  0  0  0
  141.7470   76.6850  220.3850 H   0  0  0  0  0  0  0  0  0  0  0  0
  143.7287   75.0497  220.5904 H   0  0  0  0  0  0  0  0  0  0  0  0
  142.4796   73.7361  220.6827 H   0  0  0  0  0  0  0  0  0  0  0  0
  145.1071   75.3287  217.0500 H   0  0  0  0  0  0  0  0  0  0  0  0
  144.1092   73.8140  216.9432 H   0  0  0  0  0  0  0  0  0  0  0  0
  144.7101   75.3226  214.8662 H   0  0  0  0  0  0  0  0  0  0  0  0
  143.1182   74.3900  215.1066 H   0  0  0  0  0  0  0  0  0  0  0  0
  143.6522   77.2981  215.1164 H   0  0  0  0  0  0  0  0  0  0  0  0
  142.4274   76.2717  214.2222 H   0  0  0  0  0  0  0  0  0  0  0  0
  141.4183   77.6730  216.0078 H   0  0  0  0  0  0  0  0  0  0  0  0
  141.1442   75.9552  216.2492 H   0  0  0  0  0  0  0  0  0  0  0  0
  143.7013   77.3610  217.5321 H   0  0  0  0  0  0  0  0  0  0  0  0
  140.6467   81.4613  220.4363 H   0  0  0  0  0  0  0  0  0  0  0  0
  140.9401   82.9829  222.3544 H   0  0  0  0  0  0  0  0  0  0  0  0
  142.2733   82.2867  224.3600 H   0  0  0  0  0  0  0  0  0  0  0  0
  143.2890   80.0284  224.3670 H   0  0  0  0  0  0  0  0  0  0  0  0
  143.0030   78.4931  222.4492 H   0  0  0  0  0  0  0  0  0  0  0  0
  139.4266   78.8572  220.0322 H   0  0  0  0  0  0  0  0  0  0  0  0
  138.0689   75.2804  221.1115 H   0  0  0  0  0  0  0  0  0  0  0  0
  136.3322   76.9147  221.7611 H   0  0  0  0  0  0  0  0  0  0  0  0
  135.7497   78.9346  222.8263 H   0  0  0  0  0  0  0  0  0  0  0  0
  138.8136   81.3153  224.7276 H   0  0  0  0  0  0  0  0  0  0  0  0
  140.5195   79.6331  224.0467 H   0  0  0  0  0  0  0  0  0  0  0  0
  1  2  2  0
  2  3  1  0
  3  4  1  0
  4  5  1  0
  5  6  2  0
  5  7  1  0
  7  8  1  0
  8  9  1  0
  9 10  1  0
 10 11  1  0
 11 12  1  0
 12 13  1  0
 13 14  2  0
 14 15  1  0
 15 16  1  0
 16 17  2  0
 17 18  1  0
 18 19  2  0
 19 20  1  0
 20 21  2  0
 15 22  2  0
 22 23  1  0
  2 24  1  0
 24 25  2  0
 25 26  1  0
 26 27  2  0
 27 28  1  0
 28 29  2  0
 29 30  1  0
 29 31  1  0
 31 32  2  0
 32 33  1  0
 33 34  2  0
 12  7  1  0
 23 13  1  0
 34 24  1  0
 21 16  1  0
 33 27  1  0
  3 35  1  0
  4 36  1  0
  4 37  1  0
  8 38  1  0
  8 39  1  0
  9 40  1  0
  9 41  1  0
 10 42  1  0
 10 43  1  0
 11 44  1  0
 11 45  1  0
 12 46  1  6
 17 47  1  0
 18 48  1  0
 19 49  1  0
 20 50  1  0
 21 51  1  0
 22 52  1  0
 25 53  1  0
 26 54  1  0
 28 55  1  0
 31 56  1  0
 32 57  1  0
M  END
>  <smiles>  (48) 
O=C(NCC(=O)N1CCCC[C@H]1c1nc(-c2ccccc2)co1)c1ccc2cc(F)ccc2n1

>  <score_type>  (48) 
oracle

>  <origin>  (48) 
autodockgpu

>  <m_score__min__energy>  (48) 
-9.4100000000000001

>  <m_primary>  (48) 
energy

>  <rmsd>  (48) 
6.489918968367403

>  <m_score__min__rmsd>  (48) 
6.489918968367403

>  <meeko>  (48) 
{"free_energy": -6.6, "intermolecular_energy": -8.39, "internal_energy": -4.22, "cluster_size": 9, "cluster_id": 11, "rank_in_cluster": 7}

>  <energy>  (48) 
-6.63

>  <cluster_rmsd>  (48) 
0.0

>  <cluster>  (48) 
14

$$$$

     RDKit          3D

 57 61  0  0  0  0  0  0  0  0999 V2000
  137.9610   70.3930  221.3840 O   0  0  0  0  0  0  0  0  0  0  0  0
  138.4060   71.2230  222.2330 C   0  0  0  0  0  0  0  0  0  0  0  0
  138.3900   72.6230  221.9820 N   0  0  0  0  0  0  0  0  0  0  0  0
  137.8580   73.1750  220.7270 C   0  0  0  0  0  0  0  0  0  0  0  0
  138.8490   73.1670  219.6710 C   0  0  0  0  0  0  0  0  0  0  0  0
  138.3640   73.2460  218.4630 O   0  0  0  0  0  0  0  0  0  0  0  0
  140.2440   73.0880  219.7160 N   0  0  0  0  0  0  0  0  0  0  0  0
  140.7910   71.8820  218.9940 C   0  0  0  0  0  0  0  0  0  0  0  0
  141.9640   72.2170  218.1520 C   0  0  0  0  0  0  0  0  0  0  0  0
  142.7820   73.3860  218.5460 C   0  0  0  0  0  0  0  0  0  0  0  0
  141.9890   74.5250  219.1090 C   0  0  0  0  0  0  0  0  0  0  0  0
  141.2300   73.8920  220.3090 C   0  0  1  0  0  0  0  0  0  0  0  0
  140.8700   74.9750  221.2160 C   0  0  0  0  0  0  0  0  0  0  0  0
  141.5540   76.1750  221.2060 N   0  0  0  0  0  0  0  0  0  0  0  0
  141.0370   76.9890  222.1120 C   0  0  0  0  0  0  0  0  0  0  0  0
  141.4340   78.3620  222.4600 C   0  0  0  0  0  0  0  0  0  0  0  0
  141.4380   79.3660  221.5100 C   0  0  0  0  0  0  0  0  0  0  0  0
  141.8130   80.6490  221.8540 C   0  0  0  0  0  0  0  0  0  0  0  0
  142.1980   80.9750  223.1580 C   0  0  0  0  0  0  0  0  0  0  0  0
  142.1870   79.9680  224.0850 C   0  0  0  0  0  0  0  0  0  0  0  0
  141.8110   78.6710  223.7520 C   0  0  0  0  0  0  0  0  0  0  0  0
  140.0070   76.3030  222.7130 C   0  0  0  0  0  0  0  0  0  0  0  0
  139.9760   75.1370  222.1310 O   0  0  0  0  0  0  0  0  0  0  0  0
  138.9500   70.7220  223.5060 C   0  0  0  0  0  0  0  0  0  0  0  0
  138.8270   69.3950  223.8330 C   0  0  0  0  0  0  0  0  0  0  0  0
  139.3110   68.8510  225.0060 C   0  0  0  0  0  0  0  0  0  0  0  0
  139.9470   69.6980  225.8850 C   0  0  0  0  0  0  0  0  0  0  0  0
  140.4290   69.1620  227.0540 C   0  0  0  0  0  0  0  0  0  0  0  0
  141.0730   70.0200  227.9430 C   0  0  0  0  0  0  0  0  0  0  0  0
  141.5360   69.4460  229.0890 F   0  0  0  0  0  0  0  0  0  0  0  0
  141.2210   71.3580  227.6600 C   0  0  0  0  0  0  0  0  0  0  0  0
  140.7130   71.8550  226.4590 C   0  0  0  0  0  0  0  0  0  0  0  0
  140.0660   71.0320  225.5480 C   0  0  0  0  0  0  0  0  0  0  0  0
  139.5770   71.5320  224.3830 N   0  0  0  0  0  0  0  0  0  0  0  0
  138.7750   73.2370  222.7360 H   0  0  0  0  0  0  0  0  0  0  0  0
  136.9955   72.5705  220.4099 H   0  0  0  0  0  0  0  0  0  0  0  0
  137.5642   74.2189  220.9111 H   0  0  0  0  0  0  0  0  0  0  0  0
  141.0925   71.1303  219.7383 H   0  0  0  0  0  0  0  0  0  0  0  0
  140.0003   71.4970  218.3333 H   0  0  0  0  0  0  0  0  0  0  0  0
  142.6266   71.3389  218.1472 H   0  0  0  0  0  0  0  0  0  0  0  0
  141.5366   72.4926  217.1766 H   0  0  0  0  0  0  0  0  0  0  0  0
  143.5065   73.0601  219.3068 H   0  0  0  0  0  0  0  0  0  0  0  0
  143.2657   73.7579  217.6307 H   0  0  0  0  0  0  0  0  0  0  0  0
  142.6523   75.3344  219.4480 H   0  0  0  0  0  0  0  0  0  0  0  0
  141.3125   74.9785  218.3696 H   0  0  0  0  0  0  0  0  0  0  0  0
  141.7728   73.2125  220.9825 H   0  0  0  0  0  0  0  0  0  0  0  0
  141.1409   79.1414  220.4749 H   0  0  0  0  0  0  0  0  0  0  0  0
  141.8089   81.4341  221.0835 H   0  0  0  0  0  0  0  0  0  0  0  0
  142.4974   81.9985  223.4278 H   0  0  0  0  0  0  0  0  0  0  0  0
  142.4834   80.1904  225.1207 H   0  0  0  0  0  0  0  0  0  0  0  0
  141.8140   77.8863  224.5228 H   0  0  0  0  0  0  0  0  0  0  0  0
  139.3476   76.6631  223.5165 H   0  0  0  0  0  0  0  0  0  0  0  0
  138.3154   68.7290  223.1225 H   0  0  0  0  0  0  0  0  0  0  0  0
  139.1928   67.7805  225.2298 H   0  0  0  0  0  0  0  0  0  0  0  0
  140.3107   68.0921  227.2806 H   0  0  0  0  0  0  0  0  0  0  0  0
  141.7318   72.0258  228.3693 H   0  0  0  0  0  0  0  0  0  0  0  0
  140.8282   72.9245  226.2290 H   0  0  0  0  0  0  0  0  0  0  0  0
  1  2  2  0
  2  3  1  0
  3  4  1  0
  4  5  1  0
  5  6  2  0
  5  7  1  0
  7  8  1  0
  8  9  1  0
  9 10  1  0
 10 11  1  0
 11 12  1  0
 12 13  1  0
 13 14  2  0
 14 15  1  0
 15 16  1  0
 16 17  2  0
 17 18  1  0
 18 19  2  0
 19 20  1  0
 20 21  2  0
 15 22  2  0
 22 23  1  0
  2 24  1  0
 24 25  2  0
 25 26  1  0
 26 27  2  0
 27 28  1  0
 28 29  2  0
 29 30  1  0
 29 31  1  0
 31 32  2  0
 32 33  1  0
 33 34  2  0
 12  7  1  0
 23 13  1  0
 34 24  1  0
 21 16  1  0
 33 27  1  0
  3 35  1  0
  4 36  1  0
  4 37  1  0
  8 38  1  0
  8 39  1  0
  9 40  1  0
  9 41  1  0
 10 42  1  0
 10 43  1  0
 11 44  1  0
 11 45  1  0
 12 46  1  1
 17 47  1  0
 18 48  1  0
 19 49  1  0
 20 50  1  0
 21 51  1  0
 22 52  1  0
 25 53  1  0
 26 54  1  0
 28 55  1  0
 31 56  1  0
 32 57  1  0
M  END
>  <smiles>  (49) 
O=C(NCC(=O)N1CCCC[C@H]1c1nc(-c2ccccc2)co1)c1ccc2cc(F)ccc2n1

>  <score_type>  (49) 
oracle

>  <origin>  (49) 
autodockgpu

>  <m_score__min__energy>  (49) 
-9.4100000000000001

>  <m_primary>  (49) 
energy

>  <rmsd>  (49) 
2.936128980630334

>  <m_score__min__rmsd>  (49) 
2.936128980630334

>  <meeko>  (49) 
{"free_energy": -8.32, "intermolecular_energy": -10.11, "internal_energy": -2.68, "cluster_size": 8, "cluster_id": 2, "rank_in_cluster": 7}

>  <energy>  (49) 
-6.6

>  <cluster_rmsd>  (49) 
0.09

>  <cluster>  (49) 
14

$$$$

     RDKit          3D

 57 61  0  0  0  0  0  0  0  0999 V2000
  138.4020   69.8150  221.6900 O   0  0  0  0  0  0  0  0  0  0  0  0
  138.4160   70.4790  222.7710 C   0  0  0  0  0  0  0  0  0  0  0  0
  137.9450   71.8200  222.8250 N   0  0  0  0  0  0  0  0  0  0  0  0
  137.4190   72.5000  221.6320 C   0  0  0  0  0  0  0  0  0  0  0  0
  138.4220   73.3310  220.9980 C   0  0  0  0  0  0  0  0  0  0  0  0
  137.9530   74.2160  220.1620 O   0  0  0  0  0  0  0  0  0  0  0  0
  139.8150   73.3520  221.1210 N   0  0  0  0  0  0  0  0  0  0  0  0
  140.4520   72.0130  220.8480 C   0  0  0  0  0  0  0  0  0  0  0  0
  141.6550   72.1300  219.9900 C   0  0  0  0  0  0  0  0  0  0  0  0
  142.3990   73.4090  220.0190 C   0  0  0  0  0  0  0  0  0  0  0  0
  141.5280   74.6200  220.1550 C   0  0  0  0  0  0  0  0  0  0  0  0
  140.7300   74.3590  221.4630 C   0  0  1  0  0  0  0  0  0  0  0  0
  140.2740   75.6530  221.9590 C   0  0  0  0  0  0  0  0  0  0  0  0
  141.1480   76.7120  222.1080 N   0  0  0  0  0  0  0  0  0  0  0  0
  140.4940   77.7670  222.5650 C   0  0  0  0  0  0  0  0  0  0  0  0
  141.0030   79.1110  222.8760 C   0  0  0  0  0  0  0  0  0  0  0  0
  142.1830   79.2820  223.5760 C   0  0  0  0  0  0  0  0  0  0  0  0
  142.6460   80.5520  223.8600 C   0  0  0  0  0  0  0  0  0  0  0  0
  141.9490   81.6930  223.4560 C   0  0  0  0  0  0  0  0  0  0  0  0
  140.7830   81.5030  222.7640 C   0  0  0  0  0  0  0  0  0  0  0  0
  140.3040   80.2300  222.4720 C   0  0  0  0  0  0  0  0  0  0  0  0
  139.1810   77.3800  222.7130 C   0  0  0  0  0  0  0  0  0  0  0  0
  139.1390   76.1330  222.3370 O   0  0  0  0  0  0  0  0  0  0  0  0
  138.9340   69.8430  223.9940 C   0  0  0  0  0  0  0  0  0  0  0  0
  138.8370   68.4850  224.1580 C   0  0  0  0  0  0  0  0  0  0  0  0
  139.2980   67.8170  225.2750 C   0  0  0  0  0  0  0  0  0  0  0  0
  139.8840   68.5690  226.2680 C   0  0  0  0  0  0  0  0  0  0  0  0
  140.3440   67.9100  227.3820 C   0  0  0  0  0  0  0  0  0  0  0  0
  140.9370   68.6710  228.3870 C   0  0  0  0  0  0  0  0  0  0  0  0
  141.3780   67.9760  229.4720 F   0  0  0  0  0  0  0  0  0  0  0  0
  141.0570   70.0350  228.2680 C   0  0  0  0  0  0  0  0  0  0  0  0
  140.5740   70.6600  227.1180 C   0  0  0  0  0  0  0  0  0  0  0  0
  139.9780   69.9350  226.0940 C   0  0  0  0  0  0  0  0  0  0  0  0
  139.5120   70.5580  224.9810 N   0  0  0  0  0  0  0  0  0  0  0  0
  137.9930   72.2940  223.7560 H   0  0  0  0  0  0  0  0  0  0  0  0
  137.0782   71.7417  220.9117 H   0  0  0  0  0  0  0  0  0  0  0  0
  136.5885   73.1486  221.9475 H   0  0  0  0  0  0  0  0  0  0  0  0
  140.7430   71.5572  221.8059 H   0  0  0  0  0  0  0  0  0  0  0  0
  139.7168   71.3914  220.3160 H   0  0  0  0  0  0  0  0  0  0  0  0
  142.3537   71.3366  220.2939 H   0  0  0  0  0  0  0  0  0  0  0  0
  141.2715   72.0548  218.9618 H   0  0  0  0  0  0  0  0  0  0  0  0
  143.0935   73.3854  220.8717 H   0  0  0  0  0  0  0  0  0  0  0  0
  142.9163   73.4972  219.0522 H   0  0  0  0  0  0  0  0  0  0  0  0
  142.1364   75.5322  220.2428 H   0  0  0  0  0  0  0  0  0  0  0  0
  140.8757   74.7745  219.2828 H   0  0  0  0  0  0  0  0  0  0  0  0
  141.2614   73.9621  222.3405 H   0  0  0  0  0  0  0  0  0  0  0  0
  142.7553   78.4032  223.9080 H   0  0  0  0  0  0  0  0  0  0  0  0
  143.5868   80.6677  224.4181 H   0  0  0  0  0  0  0  0  0  0  0  0
  142.3215   82.7025  223.6843 H   0  0  0  0  0  0  0  0  0  0  0  0
  140.2097   82.3803  222.4300 H   0  0  0  0  0  0  0  0  0  0  0  0
  139.3621   80.1147  221.9156 H   0  0  0  0  0  0  0  0  0  0  0  0
  138.3429   77.9947  223.0732 H   0  0  0  0  0  0  0  0  0  0  0  0
  138.3667   67.8962  223.3567 H   0  0  0  0  0  0  0  0  0  0  0  0
  139.2007   66.7253  225.3679 H   0  0  0  0  0  0  0  0  0  0  0  0
  140.2474   66.8184  227.4773 H   0  0  0  0  0  0  0  0  0  0  0  0
  141.5272   70.6255  229.0681 H   0  0  0  0  0  0  0  0  0  0  0  0
  140.6673   71.7516  227.0200 H   0  0  0  0  0  0  0  0  0  0  0  0
  1  2  2  0
  2  3  1  0
  3  4  1  0
  4  5  1  0
  5  6  2  0
  5  7  1  0
  7  8  1  0
  8  9  1  0
  9 10  1  0
 10 11  1  0
 11 12  1  0
 12 13  1  0
 13 14  2  0
 14 15  1  0
 15 16  1  0
 16 17  2  0
 17 18  1  0
 18 19  2  0
 19 20  1  0
 20 21  2  0
 15 22  2  0
 22 23  1  0
  2 24  1  0
 24 25  2  0
 25 26  1  0
 26 27  2  0
 27 28  1  0
 28 29  2  0
 29 30  1  0
 29 31  1  0
 31 32  2  0
 32 33  1  0
 33 34  2  0
 12  7  1  0
 23 13  1  0
 34 24  1  0
 21 16  1  0
 33 27  1  0
  3 35  1  0
  4 36  1  0
  4 37  1  0
  8 38  1  0
  8 39  1  0
  9 40  1  0
  9 41  1  0
 10 42  1  0
 10 43  1  0
 11 44  1  0
 11 45  1  0
 12 46  1  1
 17 47  1  0
 18 48  1  0
 19 49  1  0
 20 50  1  0
 21 51  1  0
 22 52  1  0
 25 53  1  0
 26 54  1  0
 28 55  1  0
 31 56  1  0
 32 57  1  0
M  END
>  <smiles>  (50) 
O=C(NCC(=O)N1CCCC[C@H]1c1nc(-c2ccccc2)co1)c1ccc2cc(F)ccc2n1

>  <score_type>  (50) 
oracle

>  <origin>  (50) 
autodockgpu

>  <m_score__min__energy>  (50) 
-9.4100000000000001

>  <m_primary>  (50) 
energy

>  <rmsd>  (50) 
2.881729765746071

>  <m_score__min__rmsd>  (50) 
2.881729765746071

>  <meeko>  (50) 
{"free_energy": -8.97, "intermolecular_energy": -10.76, "internal_energy": -1.92, "cluster_size": 8, "cluster_id": 2, "rank_in_cluster": 1}

>  <energy>  (50) 
-6.53

>  <cluster_rmsd>  (50) 
0.0

>  <cluster>  (50) 
15

$$$$
