
     RDKit          3D

 48 51  0  0  0  0  0  0  0  0999 V2000
  139.7970   70.9930  221.1810 O   0  0  0  0  0  0  0  0  0  0  0  0
  139.7930   71.6880  222.2270 C   0  0  0  0  0  0  0  0  0  0  0  0
  139.7260   73.0960  222.1670 N   0  0  0  0  0  0  0  0  0  0  0  0
  139.6610   73.8090  220.9040 C   0  0  0  0  0  0  0  0  0  0  0  0
  140.9460   73.7180  220.1610 C   0  0  0  0  0  0  0  0  0  0  0  0
  141.3300   72.5800  219.7760 O   0  0  0  0  0  0  0  0  0  0  0  0
  141.6800   74.9100  219.9210 N   0  0  0  0  0  0  0  0  0  0  0  0
  141.4430   76.2260  220.5290 C   0  0  0  0  0  0  0  0  0  0  0  0
  142.5870   77.0890  220.0900 C   0  0  2  0  0  0  0  0  0  0  0  0
  142.1430   78.3810  219.7280 O   0  0  0  0  0  0  0  0  0  0  0  0
  143.1310   76.4520  218.8520 C   0  0  0  0  0  0  0  0  0  0  0  0
  142.7930   75.0000  219.0250 C   0  0  1  0  0  0  0  0  0  0  0  0
  143.9930   74.2540  219.4790 C   0  0  0  0  0  0  0  0  0  0  0  0
  144.3250   74.1400  220.8330 C   0  0  0  0  0  0  0  0  0  0  0  0
  145.4470   73.4420  221.2370 C   0  0  0  0  0  0  0  0  0  0  0  0
  146.2780   72.8350  220.3200 C   0  0  0  0  0  0  0  0  0  0  0  0
  145.9530   72.9500  219.0160 N   0  0  0  0  0  0  0  0  0  0  0  0
  144.8660   73.6250  218.6060 C   0  0  0  0  0  0  0  0  0  0  0  0
  139.8570   71.0360  223.5480 C   0  0  0  0  0  0  0  0  0  0  0  0
  139.3930   69.7480  223.7080 C   0  0  0  0  0  0  0  0  0  0  0  0
  139.4500   69.1240  224.9540 C   0  0  0  0  0  0  0  0  0  0  0  0
  139.9820   69.8070  226.0510 C   0  0  0  0  0  0  0  0  0  0  0  0
  140.0590   69.2310  227.3020 C   0  0  0  0  0  0  0  0  0  0  0  0
  140.5920   69.9330  228.3770 C   0  0  0  0  0  0  0  0  0  0  0  0
  141.0500   71.2340  228.1690 C   0  0  0  0  0  0  0  0  0  0  0  0
  140.9590   71.7830  226.9060 C   0  0  0  0  0  0  0  0  0  0  0  0
  140.4330   71.1010  225.8280 C   0  0  0  0  0  0  0  0  0  0  0  0
  140.3660   71.6820  224.6130 N   0  0  0  0  0  0  0  0  0  0  0  0
  139.7260   73.6380  223.0810 H   0  0  0  0  0  0  0  0  0  0  0  0
  138.8603   73.3734  220.2883 H   0  0  0  0  0  0  0  0  0  0  0  0
  139.4587   74.8693  221.1158 H   0  0  0  0  0  0  0  0  0  0  0  0
  140.4892   76.6451  220.1760 H   0  0  0  0  0  0  0  0  0  0  0  0
  141.3816   76.1610  221.6254 H   0  0  0  0  0  0  0  0  0  0  0  0
  143.3211   77.1793  220.9042 H   0  0  0  0  0  0  0  0  0  0  0  0
  142.2270   78.5320  218.7560 H   0  0  0  0  0  0  0  0  0  0  0  0
  142.6477   76.8635  217.9536 H   0  0  0  0  0  0  0  0  0  0  0  0
  144.2088   76.6273  218.7192 H   0  0  0  0  0  0  0  0  0  0  0  0
  142.4948   74.5324  218.0751 H   0  0  0  0  0  0  0  0  0  0  0  0
  143.6819   74.6141  221.5891 H   0  0  0  0  0  0  0  0  0  0  0  0
  145.6812   73.3695  222.3093 H   0  0  0  0  0  0  0  0  0  0  0  0
  147.1715   72.2784  220.6393 H   0  0  0  0  0  0  0  0  0  0  0  0
  144.6595   73.6809  217.5270 H   0  0  0  0  0  0  0  0  0  0  0  0
  138.9744   69.2079  222.8460 H   0  0  0  0  0  0  0  0  0  0  0  0
  139.0769   68.0961  225.0730 H   0  0  0  0  0  0  0  0  0  0  0  0
  139.6943   68.2039  227.4508 H   0  0  0  0  0  0  0  0  0  0  0  0
  140.6515   69.4709  229.3735 H   0  0  0  0  0  0  0  0  0  0  0  0
  141.4777   71.8143  228.9999 H   0  0  0  0  0  0  0  0  0  0  0  0
  141.3219   72.8099  226.7519 H   0  0  0  0  0  0  0  0  0  0  0  0
  1  2  2  0
  2  3  1  0
  3  4  1  0
  4  5  1  0
  5  6  2  0
  5  7  1  0
  7  8  1  0
  8  9  1  0
  9 10  1  0
  9 11  1  0
 11 12  1  0
 12 13  1  0
 13 14  2  0
 14 15  1  0
 15 16  2  0
 16 17  1  0
 17 18  2  0
  2 19  1  0
 19 20  2  0
 20 21  1  0
 21 22  2  0
 22 23  1  0
 23 24  2  0
 24 25  1  0
 25 26  2  0
 26 27  1  0
 27 28  2  0
 12  7  1  0
 18 13  1  0
 28 19  1  0
 27 22  1  0
  3 29  1  0
  4 30  1  0
  4 31  1  0
  8 32  1  0
  8 33  1  0
  9 34  1  1
 10 35  1  0
 11 36  1  0
 11 37  1  0
 12 38  1  6
 14 39  1  0
 15 40  1  0
 16 41  1  0
 18 42  1  0
 20 43  1  0
 21 44  1  0
 23 45  1  0
 24 46  1  0
 25 47  1  0
 26 48  1  0
M  END
>  <smiles>  (1) 
O=C(NCC(=O)N1C[C@H](O)C[C@H]1c1cccnc1)c1ccc2ccccc2n1

>  <score_type>  (1) 
oracle

>  <origin>  (1) 
autodockgpu

>  <m_score__min__energy>  (1) 
-8.9199999999999999

>  <m_primary>  (1) 
energy

>  <rmsd>  (1) 
2.284179439902233

>  <m_score__min__rmsd>  (1) 
2.284179439902233

>  <meeko>  (1) 
{"free_energy": -8.18, "intermolecular_energy": -9.97, "internal_energy": -1.38, "cluster_size": 29, "cluster_id": 1, "rank_in_cluster": 28}

>  <energy>  (1) 
-8.92

>  <cluster_rmsd>  (1) 
0.0

>  <cluster>  (1) 
1

$$$$

     RDKit          3D

 48 51  0  0  0  0  0  0  0  0999 V2000
  139.6450   74.4340  222.3420 O   0  0  0  0  0  0  0  0  0  0  0  0
  140.1660   75.3410  221.6460 C   0  0  0  0  0  0  0  0  0  0  0  0
  140.7540   75.0550  220.3950 N   0  0  0  0  0  0  0  0  0  0  0  0
  140.7880   73.7090  219.8520 C   0  0  0  0  0  0  0  0  0  0  0  0
  141.7550   72.8510  220.5860 C   0  0  0  0  0  0  0  0  0  0  0  0
  141.3120   72.1070  221.5040 O   0  0  0  0  0  0  0  0  0  0  0  0
  143.1280   72.9070  220.2240 N   0  0  0  0  0  0  0  0  0  0  0  0
  143.9480   71.7990  219.7170 C   0  0  0  0  0  0  0  0  0  0  0  0
  145.2560   72.4120  219.3180 C   0  0  2  0  0  0  0  0  0  0  0  0
  146.3440   71.6020  219.7190 O   0  0  0  0  0  0  0  0  0  0  0  0
  145.3600   73.6920  220.0830 C   0  0  0  0  0  0  0  0  0  0  0  0
  143.9300   74.0890  220.3030 C   0  0  1  0  0  0  0  0  0  0  0  0
  143.5460   75.1430  219.3310 C   0  0  0  0  0  0  0  0  0  0  0  0
  143.3260   76.4670  219.7240 C   0  0  0  0  0  0  0  0  0  0  0  0
  142.9680   77.4350  218.8050 C   0  0  0  0  0  0  0  0  0  0  0  0
  142.8160   77.1290  217.4700 C   0  0  0  0  0  0  0  0  0  0  0  0
  143.0290   75.8500  217.0970 N   0  0  0  0  0  0  0  0  0  0  0  0
  143.3770   74.8970  217.9780 C   0  0  0  0  0  0  0  0  0  0  0  0
  140.1710   76.7330  222.1310 C   0  0  0  0  0  0  0  0  0  0  0  0
  138.9850   77.3620  222.4470 C   0  0  0  0  0  0  0  0  0  0  0  0
  138.9810   78.6790  222.9060 C   0  0  0  0  0  0  0  0  0  0  0  0
  140.1870   79.3690  223.0490 C   0  0  0  0  0  0  0  0  0  0  0  0
  140.2330   80.6730  223.5000 C   0  0  0  0  0  0  0  0  0  0  0  0
  141.4460   81.3380  223.6320 C   0  0  0  0  0  0  0  0  0  0  0  0
  142.6220   80.6640  223.3010 C   0  0  0  0  0  0  0  0  0  0  0  0
  142.5440   79.3610  222.8530 C   0  0  0  0  0  0  0  0  0  0  0  0
  141.3480   78.6850  222.7150 C   0  0  0  0  0  0  0  0  0  0  0  0
  141.3250   77.4120  222.2730 N   0  0  0  0  0  0  0  0  0  0  0  0
  141.1820   75.8580  219.8460 H   0  0  0  0  0  0  0  0  0  0  0  0
  139.7844   73.2657  219.9316 H   0  0  0  0  0  0  0  0  0  0  0  0
  141.1069   73.7682  218.8009 H   0  0  0  0  0  0  0  0  0  0  0  0
  144.1018   71.0448  220.5028 H   0  0  0  0  0  0  0  0  0  0  0  0
  143.4636   71.2895  218.8710 H   0  0  0  0  0  0  0  0  0  0  0  0
  145.2910   72.5410  218.2261 H   0  0  0  0  0  0  0  0  0  0  0  0
  146.3730   71.4990  220.7010 H   0  0  0  0  0  0  0  0  0  0  0  0
  145.8761   73.5357  221.0417 H   0  0  0  0  0  0  0  0  0  0  0  0
  145.9402   74.4611  219.5522 H   0  0  0  0  0  0  0  0  0  0  0  0
  143.7745   74.5313  221.2981 H   0  0  0  0  0  0  0  0  0  0  0  0
  143.4399   76.7426  220.7828 H   0  0  0  0  0  0  0  0  0  0  0  0
  142.8015   78.4678  219.1451 H   0  0  0  0  0  0  0  0  0  0  0  0
  142.5319   77.8980  216.7366 H   0  0  0  0  0  0  0  0  0  0  0  0
  143.5351   73.8734  217.6076 H   0  0  0  0  0  0  0  0  0  0  0  0
  138.0341   76.8203  222.3361 H   0  0  0  0  0  0  0  0  0  0  0  0
  138.0303   79.1732  223.1548 H   0  0  0  0  0  0  0  0  0  0  0  0
  139.2980   81.1919  223.7580 H   0  0  0  0  0  0  0  0  0  0  0  0
  141.4785   82.3772  223.9911 H   0  0  0  0  0  0  0  0  0  0  0  0
  143.5972   81.1640  223.3957 H   0  0  0  0  0  0  0  0  0  0  0  0
  143.4763   78.8376  222.5943 H   0  0  0  0  0  0  0  0  0  0  0  0
  1  2  2  0
  2  3  1  0
  3  4  1  0
  4  5  1  0
  5  6  2  0
  5  7  1  0
  7  8  1  0
  8  9  1  0
  9 10  1  0
  9 11  1  0
 11 12  1  0
 12 13  1  0
 13 14  2  0
 14 15  1  0
 15 16  2  0
 16 17  1  0
 17 18  2  0
  2 19  1  0
 19 20  2  0
 20 21  1  0
 21 22  2  0
 22 23  1  0
 23 24  2  0
 24 25  1  0
 25 26  2  0
 26 27  1  0
 27 28  2  0
 12  7  1  0
 18 13  1  0
 28 19  1  0
 27 22  1  0
  3 29  1  0
  4 30  1  0
  4 31  1  0
  8 32  1  0
  8 33  1  0
  9 34  1  6
 10 35  1  0
 11 36  1  0
 11 37  1  0
 12 38  1  1
 14 39  1  0
 15 40  1  0
 16 41  1  0
 18 42  1  0
 20 43  1  0
 21 44  1  0
 23 45  1  0
 24 46  1  0
 25 47  1  0
 26 48  1  0
M  END
>  <smiles>  (2) 
O=C(NCC(=O)N1C[C@H](O)C[C@H]1c1cccnc1)c1ccc2ccccc2n1

>  <score_type>  (2) 
oracle

>  <origin>  (2) 
autodockgpu

>  <m_score__min__energy>  (2) 
-8.9199999999999999

>  <m_primary>  (2) 
energy

>  <rmsd>  (2) 
7.581445141716984

>  <m_score__min__rmsd>  (2) 
7.581445141716984

>  <meeko>  (2) 
{"free_energy": -7.85, "intermolecular_energy": -9.64, "internal_energy": -1.74, "cluster_size": 15, "cluster_id": 4, "rank_in_cluster": 3}

>  <energy>  (2) 
-8.83

>  <cluster_rmsd>  (2) 
0.24

>  <cluster>  (2) 
1

$$$$

     RDKit          3D

 48 51  0  0  0  0  0  0  0  0999 V2000
  140.7970   71.6620  221.3070 O   0  0  0  0  0  0  0  0  0  0  0  0
  140.3350   72.1960  222.3460 C   0  0  0  0  0  0  0  0  0  0  0  0
  139.9400   73.5500  222.3580 N   0  0  0  0  0  0  0  0  0  0  0  0
  140.0480   74.3910  221.1800 C   0  0  0  0  0  0  0  0  0  0  0  0
  140.1520   75.8290  221.5460 C   0  0  0  0  0  0  0  0  0  0  0  0
  139.8130   76.1710  222.7120 O   0  0  0  0  0  0  0  0  0  0  0  0
  140.6260   76.7480  220.5710 N   0  0  0  0  0  0  0  0  0  0  0  0
  139.9920   77.0700  219.2870 C   0  0  0  0  0  0  0  0  0  0  0  0
  140.7770   78.2140  218.7210 C   0  0  2  0  0  0  0  0  0  0  0  0
  141.0000   78.0460  217.3350 O   0  0  0  0  0  0  0  0  0  0  0  0
  142.1150   78.1630  219.3870 C   0  0  0  0  0  0  0  0  0  0  0  0
  141.8260   77.5150  220.7090 C   0  0  1  0  0  0  0  0  0  0  0  0
  141.7600   78.5500  221.7720 C   0  0  0  0  0  0  0  0  0  0  0  0
  141.8400   79.9160  221.4810 C   0  0  0  0  0  0  0  0  0  0  0  0
  141.7780   80.8640  222.4840 C   0  0  0  0  0  0  0  0  0  0  0  0
  141.6340   80.4960  223.8050 C   0  0  0  0  0  0  0  0  0  0  0  0
  141.5590   79.1780  224.0790 N   0  0  0  0  0  0  0  0  0  0  0  0
  141.6180   78.2430  223.1160 C   0  0  0  0  0  0  0  0  0  0  0  0
  140.1960   71.4050  223.5830 C   0  0  0  0  0  0  0  0  0  0  0  0
  139.5660   70.1780  223.5550 C   0  0  0  0  0  0  0  0  0  0  0  0
  139.4300   69.4240  224.7200 C   0  0  0  0  0  0  0  0  0  0  0  0
  139.9360   69.9130  225.9270 C   0  0  0  0  0  0  0  0  0  0  0  0
  139.8260   69.2020  227.1050 C   0  0  0  0  0  0  0  0  0  0  0  0
  140.3380   69.7110  228.2930 C   0  0  0  0  0  0  0  0  0  0  0  0
  140.9680   70.9550  228.2760 C   0  0  0  0  0  0  0  0  0  0  0  0
  141.0620   71.6410  227.0820 C   0  0  0  0  0  0  0  0  0  0  0  0
  140.5600   71.1520  225.8940 C   0  0  0  0  0  0  0  0  0  0  0  0
  140.6780   71.8620  224.7530 N   0  0  0  0  0  0  0  0  0  0  0  0
  139.5560   73.9530  223.2630 H   0  0  0  0  0  0  0  0  0  0  0  0
  140.9452   74.1002  220.6140 H   0  0  0  0  0  0  0  0  0  0  0  0
  139.1411   74.2535  220.5728 H   0  0  0  0  0  0  0  0  0  0  0  0
  140.0350   76.2037  218.6104 H   0  0  0  0  0  0  0  0  0  0  0  0
  138.9305   77.3297  219.4129 H   0  0  0  0  0  0  0  0  0  0  0  0
  140.2334   79.1565  218.8827 H   0  0  0  0  0  0  0  0  0  0  0  0
  141.9450   78.2050  217.1000 H   0  0  0  0  0  0  0  0  0  0  0  0
  142.8232   77.5595  218.8002 H   0  0  0  0  0  0  0  0  0  0  0  0
  142.5798   79.1547  219.4894 H   0  0  0  0  0  0  0  0  0  0  0  0
  142.6281   76.8264  221.0131 H   0  0  0  0  0  0  0  0  0  0  0  0
  141.9542   80.2407  220.4362 H   0  0  0  0  0  0  0  0  0  0  0  0
  141.8447   81.9308  222.2243 H   0  0  0  0  0  0  0  0  0  0  0  0
  141.5823   81.2492  224.6050 H   0  0  0  0  0  0  0  0  0  0  0  0
  141.5504   77.1846  223.4079 H   0  0  0  0  0  0  0  0  0  0  0  0
  139.1675   69.7912  222.6055 H   0  0  0  0  0  0  0  0  0  0  0  0
  138.9257   68.4469  224.6889 H   0  0  0  0  0  0  0  0  0  0  0  0
  139.3275   68.2214  227.1037 H   0  0  0  0  0  0  0  0  0  0  0  0
  140.2477   69.1423  229.2303 H   0  0  0  0  0  0  0  0  0  0  0  0
  141.3837   71.3830  229.2001 H   0  0  0  0  0  0  0  0  0  0  0  0
  141.5597   72.6219  227.0777 H   0  0  0  0  0  0  0  0  0  0  0  0
  1  2  2  0
  2  3  1  0
  3  4  1  0
  4  5  1  0
  5  6  2  0
  5  7  1  0
  7  8  1  0
  8  9  1  0
  9 10  1  0
  9 11  1  0
 11 12  1  0
 12 13  1  0
 13 14  2  0
 14 15  1  0
 15 16  2  0
 16 17  1  0
 17 18  2  0
  2 19  1  0
 19 20  2  0
 20 21  1  0
 21 22  2  0
 22 23  1  0
 23 24  2  0
 24 25  1  0
 25 26  2  0
 26 27  1  0
 27 28  2  0
 12  7  1  0
 18 13  1  0
 28 19  1  0
 27 22  1  0
  3 29  1  0
  4 30  1  0
  4 31  1  0
  8 32  1  0
  8 33  1  0
  9 34  1  6
 10 35  1  0
 11 36  1  0
 11 37  1  0
 12 38  1  1
 14 39  1  0
 15 40  1  0
 16 41  1  0
 18 42  1  0
 20 43  1  0
 21 44  1  0
 23 45  1  0
 24 46  1  0
 25 47  1  0
 26 48  1  0
M  END
>  <smiles>  (3) 
O=C(NCC(=O)N1C[C@H](O)C[C@H]1c1cccnc1)c1ccc2ccccc2n1

>  <score_type>  (3) 
oracle

>  <origin>  (3) 
autodockgpu

>  <m_score__min__energy>  (3) 
-8.9199999999999999

>  <m_primary>  (3) 
energy

>  <rmsd>  (3) 
1.7496974623472676

>  <m_score__min__rmsd>  (3) 
1.7496974623472676

>  <meeko>  (3) 
{"free_energy": -8.14, "intermolecular_energy": -9.93, "internal_energy": -1.52, "cluster_size": 3, "cluster_id": 2, "rank_in_cluster": 1}

>  <energy>  (3) 
-8.78

>  <cluster_rmsd>  (3) 
0.27

>  <cluster>  (3) 
1

$$$$

     RDKit          3D

 48 51  0  0  0  0  0  0  0  0999 V2000
  138.7410   75.1340  221.9180 O   0  0  0  0  0  0  0  0  0  0  0  0
  139.8910   75.6150  222.0720 C   0  0  0  0  0  0  0  0  0  0  0  0
  141.0440   74.8150  221.9230 N   0  0  0  0  0  0  0  0  0  0  0  0
  140.9610   73.4050  221.5870 C   0  0  0  0  0  0  0  0  0  0  0  0
  141.5830   73.1240  220.2660 C   0  0  0  0  0  0  0  0  0  0  0  0
  140.8310   72.7570  219.3210 O   0  0  0  0  0  0  0  0  0  0  0  0
  142.9880   73.2790  220.1260 N   0  0  0  0  0  0  0  0  0  0  0  0
  143.9430   72.2620  219.6710 C   0  0  0  0  0  0  0  0  0  0  0  0
  145.2560   72.9710  219.5280 C   0  0  2  0  0  0  0  0  0  0  0  0
  146.3190   72.1860  220.0310 O   0  0  0  0  0  0  0  0  0  0  0  0
  145.1620   74.1860  220.3950 C   0  0  0  0  0  0  0  0  0  0  0  0
  143.6930   74.4900  220.4190 C   0  0  1  0  0  0  0  0  0  0  0  0
  143.3950   75.6020  219.4820 C   0  0  0  0  0  0  0  0  0  0  0  0
  142.7860   76.7860  219.9100 C   0  0  0  0  0  0  0  0  0  0  0  0
  142.5150   77.8110  219.0230 C   0  0  0  0  0  0  0  0  0  0  0  0
  142.8350   77.7000  217.6870 C   0  0  0  0  0  0  0  0  0  0  0  0
  143.4210   76.5550  217.2810 N   0  0  0  0  0  0  0  0  0  0  0  0
  143.6910   75.5500  218.1300 C   0  0  0  0  0  0  0  0  0  0  0  0
  140.0550   77.0400  222.4150 C   0  0  0  0  0  0  0  0  0  0  0  0
  138.9500   77.8530  222.5480 C   0  0  0  0  0  0  0  0  0  0  0  0
  139.0970   79.2020  222.8710 C   0  0  0  0  0  0  0  0  0  0  0  0
  140.3740   79.7360  223.0640 C   0  0  0  0  0  0  0  0  0  0  0  0
  140.5690   81.0630  223.3850 C   0  0  0  0  0  0  0  0  0  0  0  0
  141.8490   81.5690  223.5710 C   0  0  0  0  0  0  0  0  0  0  0  0
  142.9390   80.7110  223.4270 C   0  0  0  0  0  0  0  0  0  0  0  0
  142.7120   79.3890  223.1050 C   0  0  0  0  0  0  0  0  0  0  0  0
  141.4470   78.8690  222.9170 C   0  0  0  0  0  0  0  0  0  0  0  0
  141.2780   77.5680  222.6030 N   0  0  0  0  0  0  0  0  0  0  0  0
  141.9930   75.2700  222.0640 H   0  0  0  0  0  0  0  0  0  0  0  0
  141.4832   72.8217  222.3597 H   0  0  0  0  0  0  0  0  0  0  0  0
  139.8989   73.1234  221.5362 H   0  0  0  0  0  0  0  0  0  0  0  0
  144.0231   71.4528  220.4118 H   0  0  0  0  0  0  0  0  0  0  0  0
  143.6251   71.8027  218.7234 H   0  0  0  0  0  0  0  0  0  0  0  0
  145.4482   73.1929  218.4679 H   0  0  0  0  0  0  0  0  0  0  0  0
  146.1090   71.8260  220.9260 H   0  0  0  0  0  0  0  0  0  0  0  0
  145.5360   73.9756  221.4078 H   0  0  0  0  0  0  0  0  0  0  0  0
  145.7660   75.0257  220.0208 H   0  0  0  0  0  0  0  0  0  0  0  0
  143.3610   74.8377  221.4084 H   0  0  0  0  0  0  0  0  0  0  0  0
  142.5181   76.9036  220.9704 H   0  0  0  0  0  0  0  0  0  0  0  0
  142.0359   78.7308  219.3896 H   0  0  0  0  0  0  0  0  0  0  0  0
  142.6207   78.5141  216.9789 H   0  0  0  0  0  0  0  0  0  0  0  0
  144.1698   74.6428  217.7329 H   0  0  0  0  0  0  0  0  0  0  0  0
  137.9438   77.4345  222.3982 H   0  0  0  0  0  0  0  0  0  0  0  0
  138.2098   79.8441  222.9736 H   0  0  0  0  0  0  0  0  0  0  0  0
  139.7003   81.7287  223.4950 H   0  0  0  0  0  0  0  0  0  0  0  0
  142.0004   82.6279  223.8274 H   0  0  0  0  0  0  0  0  0  0  0  0
  143.9645   81.0829  223.5681 H   0  0  0  0  0  0  0  0  0  0  0  0
  143.5774   78.7193  222.9930 H   0  0  0  0  0  0  0  0  0  0  0  0
  1  2  2  0
  2  3  1  0
  3  4  1  0
  4  5  1  0
  5  6  2  0
  5  7  1  0
  7  8  1  0
  8  9  1  0
  9 10  1  0
  9 11  1  0
 11 12  1  0
 12 13  1  0
 13 14  2  0
 14 15  1  0
 15 16  2  0
 16 17  1  0
 17 18  2  0
  2 19  1  0
 19 20  2  0
 20 21  1  0
 21 22  2  0
 22 23  1  0
 23 24  2  0
 24 25  1  0
 25 26  2  0
 26 27  1  0
 27 28  2  0
 12  7  1  0
 18 13  1  0
 28 19  1  0
 27 22  1  0
  3 29  1  0
  4 30  1  0
  4 31  1  0
  8 32  1  0
  8 33  1  0
  9 34  1  6
 10 35  1  0
 11 36  1  0
 11 37  1  0
 12 38  1  1
 14 39  1  0
 15 40  1  0
 16 41  1  0
 18 42  1  0
 20 43  1  0
 21 44  1  0
 23 45  1  0
 24 46  1  0
 25 47  1  0
 26 48  1  0
M  END
>  <smiles>  (4) 
O=C(NCC(=O)N1C[C@H](O)C[C@H]1c1cccnc1)c1ccc2ccccc2n1

>  <score_type>  (4) 
oracle

>  <origin>  (4) 
autodockgpu

>  <m_score__min__energy>  (4) 
-8.9199999999999999

>  <m_primary>  (4) 
energy

>  <rmsd>  (4) 
7.675907681723309

>  <m_score__min__rmsd>  (4) 
7.675907681723309

>  <meeko>  (4) 
{"free_energy": -7.82, "intermolecular_energy": -9.61, "internal_energy": -2.12, "cluster_size": 15, "cluster_id": 4, "rank_in_cluster": 6}

>  <energy>  (4) 
-8.77

>  <cluster_rmsd>  (4) 
0.24

>  <cluster>  (4) 
1

$$$$

     RDKit          3D

 48 51  0  0  0  0  0  0  0  0999 V2000
  141.4570   71.7410  221.5260 O   0  0  0  0  0  0  0  0  0  0  0  0
  140.6220   72.1890  222.3500 C   0  0  0  0  0  0  0  0  0  0  0  0
  139.9350   73.3980  222.1100 N   0  0  0  0  0  0  0  0  0  0  0  0
  140.1560   74.1810  220.9080 C   0  0  0  0  0  0  0  0  0  0  0  0
  141.0590   75.3340  221.1680 C   0  0  0  0  0  0  0  0  0  0  0  0
  141.0700   75.8290  222.3280 O   0  0  0  0  0  0  0  0  0  0  0  0
  141.8630   75.8230  220.1040 N   0  0  0  0  0  0  0  0  0  0  0  0
  142.1390   77.2300  219.7870 C   0  0  0  0  0  0  0  0  0  0  0  0
  143.1720   77.2080  218.7020 C   0  0  2  0  0  0  0  0  0  0  0  0
  142.8850   78.1660  217.7030 O   0  0  0  0  0  0  0  0  0  0  0  0
  143.0640   75.8620  218.0590 C   0  0  0  0  0  0  0  0  0  0  0  0
  142.5400   74.9870  219.1600 C   0  0  1  0  0  0  0  0  0  0  0  0
  143.6520   74.1970  219.7460 C   0  0  0  0  0  0  0  0  0  0  0  0
  144.6810   74.7980  220.4800 C   0  0  0  0  0  0  0  0  0  0  0  0
  145.7080   74.0450  221.0170 C   0  0  0  0  0  0  0  0  0  0  0  0
  145.7540   72.6780  220.8480 C   0  0  0  0  0  0  0  0  0  0  0  0
  144.7600   72.1050  220.1390 N   0  0  0  0  0  0  0  0  0  0  0  0
  143.7540   72.8220  219.6100 C   0  0  0  0  0  0  0  0  0  0  0  0
  140.3440   71.4500  223.5950 C   0  0  0  0  0  0  0  0  0  0  0  0
  139.5990   70.2900  223.5620 C   0  0  0  0  0  0  0  0  0  0  0  0
  139.3310   69.5860  224.7360 C   0  0  0  0  0  0  0  0  0  0  0  0
  139.8220   70.0550  225.9560 C   0  0  0  0  0  0  0  0  0  0  0  0
  139.5840   69.3910  227.1420 C   0  0  0  0  0  0  0  0  0  0  0  0
  140.0830   69.8800  228.3430 C   0  0  0  0  0  0  0  0  0  0  0  0
  140.8330   71.0560  228.3310 C   0  0  0  0  0  0  0  0  0  0  0  0
  141.0550   71.6970  227.1290 C   0  0  0  0  0  0  0  0  0  0  0  0
  140.5660   71.2260  225.9270 C   0  0  0  0  0  0  0  0  0  0  0  0
  140.8110   71.8900  224.7790 N   0  0  0  0  0  0  0  0  0  0  0  0
  139.2400   73.7340  222.8400 H   0  0  0  0  0  0  0  0  0  0  0  0
  140.6100   73.5372  220.1403 H   0  0  0  0  0  0  0  0  0  0  0  0
  139.1860   74.5718  220.5670 H   0  0  0  0  0  0  0  0  0  0  0  0
  141.2245   77.7301  219.4354 H   0  0  0  0  0  0  0  0  0  0  0  0
  142.4909   77.7829  220.6704 H   0  0  0  0  0  0  0  0  0  0  0  0
  144.1642   77.4215  219.1262 H   0  0  0  0  0  0  0  0  0  0  0  0
  143.7050   78.6240  217.3970 H   0  0  0  0  0  0  0  0  0  0  0  0
  142.3646   75.8869  217.2104 H   0  0  0  0  0  0  0  0  0  0  0  0
  144.0204   75.5062  217.6482 H   0  0  0  0  0  0  0  0  0  0  0  0
  141.8139   74.2494  218.7875 H   0  0  0  0  0  0  0  0  0  0  0  0
  144.6722   75.8874  220.6319 H   0  0  0  0  0  0  0  0  0  0  0  0
  146.5028   74.5456  221.5894 H   0  0  0  0  0  0  0  0  0  0  0  0
  146.5704   72.0771  221.2751 H   0  0  0  0  0  0  0  0  0  0  0  0
  142.9749   72.2923  219.0423 H   0  0  0  0  0  0  0  0  0  0  0  0
  139.2129   69.9168  222.6020 H   0  0  0  0  0  0  0  0  0  0  0  0
  138.7338   68.6629  224.7007 H   0  0  0  0  0  0  0  0  0  0  0  0
  138.9923   68.4637  227.1365 H   0  0  0  0  0  0  0  0  0  0  0  0
  139.8900   69.3490  229.2868 H   0  0  0  0  0  0  0  0  0  0  0  0
  141.2417   71.4666  229.2661 H   0  0  0  0  0  0  0  0  0  0  0  0
  141.6475   72.6238  227.1288 H   0  0  0  0  0  0  0  0  0  0  0  0
  1  2  2  0
  2  3  1  0
  3  4  1  0
  4  5  1  0
  5  6  2  0
  5  7  1  0
  7  8  1  0
  8  9  1  0
  9 10  1  0
  9 11  1  0
 11 12  1  0
 12 13  1  0
 13 14  2  0
 14 15  1  0
 15 16  2  0
 16 17  1  0
 17 18  2  0
  2 19  1  0
 19 20  2  0
 20 21  1  0
 21 22  2  0
 22 23  1  0
 23 24  2  0
 24 25  1  0
 25 26  2  0
 26 27  1  0
 27 28  2  0
 12  7  1  0
 18 13  1  0
 28 19  1  0
 27 22  1  0
  3 29  1  0
  4 30  1  0
  4 31  1  0
  8 32  1  0
  8 33  1  0
  9 34  1  1
 10 35  1  0
 11 36  1  0
 11 37  1  0
 12 38  1  6
 14 39  1  0
 15 40  1  0
 16 41  1  0
 18 42  1  0
 20 43  1  0
 21 44  1  0
 23 45  1  0
 24 46  1  0
 25 47  1  0
 26 48  1  0
M  END
>  <smiles>  (5) 
O=C(NCC(=O)N1C[C@H](O)C[C@H]1c1cccnc1)c1ccc2ccccc2n1

>  <score_type>  (5) 
oracle

>  <origin>  (5) 
autodockgpu

>  <m_score__min__energy>  (5) 
-8.9199999999999999

>  <m_primary>  (5) 
energy

>  <rmsd>  (5) 
2.4355726588968634

>  <m_score__min__rmsd>  (5) 
2.4355726588968634

>  <meeko>  (5) 
{"free_energy": -8.71, "intermolecular_energy": -10.5, "internal_energy": -1.52, "cluster_size": 29, "cluster_id": 1, "rank_in_cluster": 14}

>  <energy>  (5) 
-8.76

>  <cluster_rmsd>  (5) 
0.26

>  <cluster>  (5) 
1

$$$$

     RDKit          3D

 48 51  0  0  0  0  0  0  0  0999 V2000
  140.7430   70.9710  221.1220 O   0  0  0  0  0  0  0  0  0  0  0  0
  140.5510   71.7240  222.1090 C   0  0  0  0  0  0  0  0  0  0  0  0
  140.5820   73.1280  221.9730 N   0  0  0  0  0  0  0  0  0  0  0  0
  140.8360   73.7710  220.6960 C   0  0  0  0  0  0  0  0  0  0  0  0
  141.4180   75.1270  220.8760 C   0  0  0  0  0  0  0  0  0  0  0  0
  141.2340   75.7110  221.9800 O   0  0  0  0  0  0  0  0  0  0  0  0
  142.1520   75.7020  219.8040 N   0  0  0  0  0  0  0  0  0  0  0  0
  142.3100   77.1330  219.5160 C   0  0  0  0  0  0  0  0  0  0  0  0
  143.3100   77.2150  218.4030 C   0  0  2  0  0  0  0  0  0  0  0  0
  142.9230   78.1720  217.4360 O   0  0  0  0  0  0  0  0  0  0  0  0
  143.2870   75.8810  217.7300 C   0  0  0  0  0  0  0  0  0  0  0  0
  142.8640   74.9430  218.8220 C   0  0  1  0  0  0  0  0  0  0  0  0
  144.0500   74.2280  219.3580 C   0  0  0  0  0  0  0  0  0  0  0  0
  144.4780   74.3920  220.6800 C   0  0  0  0  0  0  0  0  0  0  0  0
  145.5850   73.7180  221.1610 C   0  0  0  0  0  0  0  0  0  0  0  0
  146.3040   72.8620  220.3550 C   0  0  0  0  0  0  0  0  0  0  0  0
  145.8860   72.7080  219.0810 N   0  0  0  0  0  0  0  0  0  0  0  0
  144.8130   73.3560  218.5980 C   0  0  0  0  0  0  0  0  0  0  0  0
  140.2860   71.1450  223.4390 C   0  0  0  0  0  0  0  0  0  0  0  0
  139.5900   69.9610  223.5540 C   0  0  0  0  0  0  0  0  0  0  0  0
  139.3350   69.4070  224.8080 C   0  0  0  0  0  0  0  0  0  0  0  0
  139.7900   70.0540  225.9590 C   0  0  0  0  0  0  0  0  0  0  0  0
  139.5630   69.5440  227.2210 C   0  0  0  0  0  0  0  0  0  0  0  0
  140.0260   70.2080  228.3510 C   0  0  0  0  0  0  0  0  0  0  0  0
  140.7270   71.4030  228.1880 C   0  0  0  0  0  0  0  0  0  0  0  0
  140.9380   71.8880  226.9140 C   0  0  0  0  0  0  0  0  0  0  0  0
  140.4860   71.2420  225.7810 C   0  0  0  0  0  0  0  0  0  0  0  0
  140.7180   71.7570  224.5570 N   0  0  0  0  0  0  0  0  0  0  0  0
  140.4130   73.7200  222.8390 H   0  0  0  0  0  0  0  0  0  0  0  0
  141.5397   73.1536  220.1184 H   0  0  0  0  0  0  0  0  0  0  0  0
  139.8785   73.8738  220.1644 H   0  0  0  0  0  0  0  0  0  0  0  0
  141.3502   77.5692  219.2021 H   0  0  0  0  0  0  0  0  0  0  0  0
  142.6436   77.6911  220.4033 H   0  0  0  0  0  0  0  0  0  0  0  0
  144.2948   77.4939  218.8059 H   0  0  0  0  0  0  0  0  0  0  0  0
  143.7010   78.6710  217.0920 H   0  0  0  0  0  0  0  0  0  0  0  0
  142.5634   75.8713  216.9016 H   0  0  0  0  0  0  0  0  0  0  0  0
  144.2556   75.6099  217.2846 H   0  0  0  0  0  0  0  0  0  0  0  0
  142.1866   74.1598  218.4509 H   0  0  0  0  0  0  0  0  0  0  0  0
  143.9244   75.0685  221.3477 H   0  0  0  0  0  0  0  0  0  0  0  0
  145.8974   73.8675  222.2051 H   0  0  0  0  0  0  0  0  0  0  0  0
  147.1851   72.3247  220.7356 H   0  0  0  0  0  0  0  0  0  0  0  0
  144.5265   73.1864  217.5496 H   0  0  0  0  0  0  0  0  0  0  0  0
  139.2325   69.4486  222.6487 H   0  0  0  0  0  0  0  0  0  0  0  0
  138.7769   68.4627  224.8904 H   0  0  0  0  0  0  0  0  0  0  0  0
  139.0089   68.6005  227.3341 H   0  0  0  0  0  0  0  0  0  0  0  0
  139.8430   69.7986  229.3554 H   0  0  0  0  0  0  0  0  0  0  0  0
  141.1062   71.9509  229.0632 H   0  0  0  0  0  0  0  0  0  0  0  0
  141.4910   72.8315  226.7957 H   0  0  0  0  0  0  0  0  0  0  0  0
  1  2  2  0
  2  3  1  0
  3  4  1  0
  4  5  1  0
  5  6  2  0
  5  7  1  0
  7  8  1  0
  8  9  1  0
  9 10  1  0
  9 11  1  0
 11 12  1  0
 12 13  1  0
 13 14  2  0
 14 15  1  0
 15 16  2  0
 16 17  1  0
 17 18  2  0
  2 19  1  0
 19 20  2  0
 20 21  1  0
 21 22  2  0
 22 23  1  0
 23 24  2  0
 24 25  1  0
 25 26  2  0
 26 27  1  0
 27 28  2  0
 12  7  1  0
 18 13  1  0
 28 19  1  0
 27 22  1  0
  3 29  1  0
  4 30  1  0
  4 31  1  0
  8 32  1  0
  8 33  1  0
  9 34  1  1
 10 35  1  0
 11 36  1  0
 11 37  1  0
 12 38  1  6
 14 39  1  0
 15 40  1  0
 16 41  1  0
 18 42  1  0
 20 43  1  0
 21 44  1  0
 23 45  1  0
 24 46  1  0
 25 47  1  0
 26 48  1  0
M  END
>  <smiles>  (6) 
O=C(NCC(=O)N1C[C@H](O)C[C@H]1c1cccnc1)c1ccc2ccccc2n1

>  <score_type>  (6) 
oracle

>  <origin>  (6) 
autodockgpu

>  <m_score__min__energy>  (6) 
-8.9199999999999999

>  <m_primary>  (6) 
energy

>  <rmsd>  (6) 
2.5560955800120637

>  <m_score__min__rmsd>  (6) 
2.5560955800120637

>  <meeko>  (6) 
{"free_energy": -8.78, "intermolecular_energy": -10.57, "internal_energy": -1.81, "cluster_size": 29, "cluster_id": 1, "rank_in_cluster": 3}

>  <energy>  (6) 
-8.76

>  <cluster_rmsd>  (6) 
0.28

>  <cluster>  (6) 
1

$$$$

     RDKit          3D

 48 51  0  0  0  0  0  0  0  0999 V2000
  139.9220   74.8140  222.3640 O   0  0  0  0  0  0  0  0  0  0  0  0
  140.3580   75.6290  221.5130 C   0  0  0  0  0  0  0  0  0  0  0  0
  140.8210   75.1920  220.2540 N   0  0  0  0  0  0  0  0  0  0  0  0
  140.8190   73.7900  219.8790 C   0  0  0  0  0  0  0  0  0  0  0  0
  141.7970   73.0100  220.6830 C   0  0  0  0  0  0  0  0  0  0  0  0
  141.3660   72.3590  221.6740 O   0  0  0  0  0  0  0  0  0  0  0  0
  143.1650   73.0350  220.3030 N   0  0  0  0  0  0  0  0  0  0  0  0
  143.9470   71.9160  219.7610 C   0  0  0  0  0  0  0  0  0  0  0  0
  145.2670   72.4990  219.3580 C   0  0  2  0  0  0  0  0  0  0  0  0
  146.3350   71.6500  219.7260 O   0  0  0  0  0  0  0  0  0  0  0  0
  145.4180   73.7580  220.1500 C   0  0  0  0  0  0  0  0  0  0  0  0
  144.0030   74.1910  220.3980 C   0  0  1  0  0  0  0  0  0  0  0  0
  143.6370   75.2780  219.4550 C   0  0  0  0  0  0  0  0  0  0  0  0
  143.6440   75.0890  218.0690 C   0  0  0  0  0  0  0  0  0  0  0  0
  143.3010   76.1130  217.2070 C   0  0  0  0  0  0  0  0  0  0  0  0
  142.9400   77.3550  217.6830 C   0  0  0  0  0  0  0  0  0  0  0  0
  142.9370   77.5310  219.0210 N   0  0  0  0  0  0  0  0  0  0  0  0
  143.2680   76.5460  219.8730 C   0  0  0  0  0  0  0  0  0  0  0  0
  140.3920   77.0700  221.8210 C   0  0  0  0  0  0  0  0  0  0  0  0
  139.3560   77.8890  221.4230 C   0  0  0  0  0  0  0  0  0  0  0  0
  139.3800   79.2540  221.7110 C   0  0  0  0  0  0  0  0  0  0  0  0
  140.4610   79.7980  222.4080 C   0  0  0  0  0  0  0  0  0  0  0  0
  140.5290   81.1420  222.7160 C   0  0  0  0  0  0  0  0  0  0  0  0
  141.6160   81.6580  223.4100 C   0  0  0  0  0  0  0  0  0  0  0  0
  142.6410   80.7940  223.7940 C   0  0  0  0  0  0  0  0  0  0  0  0
  142.5450   79.4560  223.4720 C   0  0  0  0  0  0  0  0  0  0  0  0
  141.4730   78.9250  222.7830 C   0  0  0  0  0  0  0  0  0  0  0  0
  141.4260   77.6090  222.4920 N   0  0  0  0  0  0  0  0  0  0  0  0
  141.1800   75.9220  219.5700 H   0  0  0  0  0  0  0  0  0  0  0  0
  139.8123   73.3777  220.0422 H   0  0  0  0  0  0  0  0  0  0  0  0
  141.1054   73.7155  218.8195 H   0  0  0  0  0  0  0  0  0  0  0  0
  144.0888   71.1405  220.5282 H   0  0  0  0  0  0  0  0  0  0  0  0
  143.4375   71.4401  218.9102 H   0  0  0  0  0  0  0  0  0  0  0  0
  145.2919   72.6510  218.2688 H   0  0  0  0  0  0  0  0  0  0  0  0
  146.3880   71.5400  220.7060 H   0  0  0  0  0  0  0  0  0  0  0  0
  145.9415   73.5652  221.0980 H   0  0  0  0  0  0  0  0  0  0  0  0
  146.0135   74.5219  219.6287 H   0  0  0  0  0  0  0  0  0  0  0  0
  143.8741   74.6144  221.4050 H   0  0  0  0  0  0  0  0  0  0  0  0
  143.9273   74.1086  217.6584 H   0  0  0  0  0  0  0  0  0  0  0  0
  143.3163   75.9338  216.1218 H   0  0  0  0  0  0  0  0  0  0  0  0
  142.6650   78.1712  216.9988 H   0  0  0  0  0  0  0  0  0  0  0  0
  143.2449   76.7564  220.9524 H   0  0  0  0  0  0  0  0  0  0  0  0
  138.5037   77.4624  220.8739 H   0  0  0  0  0  0  0  0  0  0  0  0
  138.5496   79.9000  221.3899 H   0  0  0  0  0  0  0  0  0  0  0  0
  139.7128   81.8121  222.4082 H   0  0  0  0  0  0  0  0  0  0  0  0
  141.6674   82.7297  223.6525 H   0  0  0  0  0  0  0  0  0  0  0  0
  143.5135   81.1739  224.3457 H   0  0  0  0  0  0  0  0  0  0  0  0
  143.3589   78.7822  223.7779 H   0  0  0  0  0  0  0  0  0  0  0  0
  1  2  2  0
  2  3  1  0
  3  4  1  0
  4  5  1  0
  5  6  2  0
  5  7  1  0
  7  8  1  0
  8  9  1  0
  9 10  1  0
  9 11  1  0
 11 12  1  0
 12 13  1  0
 13 14  2  0
 14 15  1  0
 15 16  2  0
 16 17  1  0
 17 18  2  0
  2 19  1  0
 19 20  2  0
 20 21  1  0
 21 22  2  0
 22 23  1  0
 23 24  2  0
 24 25  1  0
 25 26  2  0
 26 27  1  0
 27 28  2  0
 12  7  1  0
 18 13  1  0
 28 19  1  0
 27 22  1  0
  3 29  1  0
  4 30  1  0
  4 31  1  0
  8 32  1  0
  8 33  1  0
  9 34  1  6
 10 35  1  0
 11 36  1  0
 11 37  1  0
 12 38  1  1
 14 39  1  0
 15 40  1  0
 16 41  1  0
 18 42  1  0
 20 43  1  0
 21 44  1  0
 23 45  1  0
 24 46  1  0
 25 47  1  0
 26 48  1  0
M  END
>  <smiles>  (7) 
O=C(NCC(=O)N1C[C@H](O)C[C@H]1c1cccnc1)c1ccc2ccccc2n1

>  <score_type>  (7) 
oracle

>  <origin>  (7) 
autodockgpu

>  <m_score__min__energy>  (7) 
-8.9199999999999999

>  <m_primary>  (7) 
energy

>  <rmsd>  (7) 
7.81458484829031

>  <m_score__min__rmsd>  (7) 
7.81458484829031

>  <meeko>  (7) 
{"free_energy": -7.48, "intermolecular_energy": -9.27, "internal_energy": -1.96, "cluster_size": 15, "cluster_id": 4, "rank_in_cluster": 15}

>  <energy>  (7) 
-8.75

>  <cluster_rmsd>  (7) 
0.28

>  <cluster>  (7) 
1

$$$$

     RDKit          3D

 48 51  0  0  0  0  0  0  0  0999 V2000
  139.9110   71.1100  221.0960 O   0  0  0  0  0  0  0  0  0  0  0  0
  140.2410   71.7640  222.1160 C   0  0  0  0  0  0  0  0  0  0  0  0
  140.7060   73.0930  222.0130 N   0  0  0  0  0  0  0  0  0  0  0  0
  140.8260   73.7670  220.7330 C   0  0  0  0  0  0  0  0  0  0  0  0
  141.4560   75.1060  220.8810 C   0  0  0  0  0  0  0  0  0  0  0  0
  141.3250   75.7050  221.9840 O   0  0  0  0  0  0  0  0  0  0  0  0
  142.1720   75.6470  219.7800 N   0  0  0  0  0  0  0  0  0  0  0  0
  142.3330   77.0690  219.4520 C   0  0  0  0  0  0  0  0  0  0  0  0
  143.3120   77.1160  218.3180 C   0  0  2  0  0  0  0  0  0  0  0  0
  142.9120   78.0490  217.3340 O   0  0  0  0  0  0  0  0  0  0  0  0
  143.2690   75.7650  217.6810 C   0  0  0  0  0  0  0  0  0  0  0  0
  142.8610   74.8580  218.8050 C   0  0  1  0  0  0  0  0  0  0  0  0
  144.0520   74.1500  219.3370 C   0  0  0  0  0  0  0  0  0  0  0  0
  144.4340   74.2480  220.6790 C   0  0  0  0  0  0  0  0  0  0  0  0
  145.5460   73.5810  221.1560 C   0  0  0  0  0  0  0  0  0  0  0  0
  146.3180   72.7980  220.3260 C   0  0  0  0  0  0  0  0  0  0  0  0
  145.9460   72.7080  219.0320 N   0  0  0  0  0  0  0  0  0  0  0  0
  144.8670   73.3500  218.5530 C   0  0  0  0  0  0  0  0  0  0  0  0
  140.1460   71.1470  223.4520 C   0  0  0  0  0  0  0  0  0  0  0  0
  139.5440   69.9160  223.6060 C   0  0  0  0  0  0  0  0  0  0  0  0
  139.4500   69.3260  224.8660 C   0  0  0  0  0  0  0  0  0  0  0  0
  139.9700   69.9840  225.9830 C   0  0  0  0  0  0  0  0  0  0  0  0
  139.9000   69.4390  227.2490 C   0  0  0  0  0  0  0  0  0  0  0  0
  140.4250   70.1140  228.3440 C   0  0  0  0  0  0  0  0  0  0  0  0
  141.0260   71.3570  228.1420 C   0  0  0  0  0  0  0  0  0  0  0  0
  141.0800   71.8760  226.8650 C   0  0  0  0  0  0  0  0  0  0  0  0
  140.5640   71.2190  225.7660 C   0  0  0  0  0  0  0  0  0  0  0  0
  140.6420   71.7690  224.5370 N   0  0  0  0  0  0  0  0  0  0  0  0
  140.9720   73.6020  222.9060 H   0  0  0  0  0  0  0  0  0  0  0  0
  141.4444   73.1529  220.0619 H   0  0  0  0  0  0  0  0  0  0  0  0
  139.8165   73.9037  220.3181 H   0  0  0  0  0  0  0  0  0  0  0  0
  141.3699   77.5032  219.1454 H   0  0  0  0  0  0  0  0  0  0  0  0
  142.6871   77.6476  220.3179 H   0  0  0  0  0  0  0  0  0  0  0  0
  144.3058   77.3998  218.6947 H   0  0  0  0  0  0  0  0  0  0  0  0
  143.6510   78.6590  217.0950 H   0  0  0  0  0  0  0  0  0  0  0  0
  142.5301   75.7381  216.8666 H   0  0  0  0  0  0  0  0  0  0  0  0
  144.2277   75.4765  217.2253 H   0  0  0  0  0  0  0  0  0  0  0  0
  142.1723   74.0696  218.4671 H   0  0  0  0  0  0  0  0  0  0  0  0
  143.8388   74.8668  221.3665 H   0  0  0  0  0  0  0  0  0  0  0  0
  145.8197   73.6768  222.2171 H   0  0  0  0  0  0  0  0  0  0  0  0
  147.2039   72.2664  220.7037 H   0  0  0  0  0  0  0  0  0  0  0  0
  144.6191   73.2348  217.4875 H   0  0  0  0  0  0  0  0  0  0  0  0
  139.1346   69.3952  222.7278 H   0  0  0  0  0  0  0  0  0  0  0  0
  138.9672   68.3442  224.9801 H   0  0  0  0  0  0  0  0  0  0  0  0
  139.4228   68.4584  227.3928 H   0  0  0  0  0  0  0  0  0  0  0  0
  140.3679   69.6766  229.3517 H   0  0  0  0  0  0  0  0  0  0  0  0
  141.4508   71.9153  228.9893 H   0  0  0  0  0  0  0  0  0  0  0  0
  141.5553   72.8568  226.7158 H   0  0  0  0  0  0  0  0  0  0  0  0
  1  2  2  0
  2  3  1  0
  3  4  1  0
  4  5  1  0
  5  6  2  0
  5  7  1  0
  7  8  1  0
  8  9  1  0
  9 10  1  0
  9 11  1  0
 11 12  1  0
 12 13  1  0
 13 14  2  0
 14 15  1  0
 15 16  2  0
 16 17  1  0
 17 18  2  0
  2 19  1  0
 19 20  2  0
 20 21  1  0
 21 22  2  0
 22 23  1  0
 23 24  2  0
 24 25  1  0
 25 26  2  0
 26 27  1  0
 27 28  2  0
 12  7  1  0
 18 13  1  0
 28 19  1  0
 27 22  1  0
  3 29  1  0
  4 30  1  0
  4 31  1  0
  8 32  1  0
  8 33  1  0
  9 34  1  1
 10 35  1  0
 11 36  1  0
 11 37  1  0
 12 38  1  6
 14 39  1  0
 15 40  1  0
 16 41  1  0
 18 42  1  0
 20 43  1  0
 21 44  1  0
 23 45  1  0
 24 46  1  0
 25 47  1  0
 26 48  1  0
M  END
>  <smiles>  (8) 
O=C(NCC(=O)N1C[C@H](O)C[C@H]1c1cccnc1)c1ccc2ccccc2n1

>  <score_type>  (8) 
oracle

>  <origin>  (8) 
autodockgpu

>  <m_score__min__energy>  (8) 
-8.9199999999999999

>  <m_primary>  (8) 
energy

>  <rmsd>  (8) 
2.539603273144457

>  <m_score__min__rmsd>  (8) 
2.539603273144457

>  <meeko>  (8) 
{"free_energy": -8.72, "intermolecular_energy": -10.51, "internal_energy": -1.88, "cluster_size": 29, "cluster_id": 1, "rank_in_cluster": 10}

>  <energy>  (8) 
-8.75

>  <cluster_rmsd>  (8) 
0.41

>  <cluster>  (8) 
1

$$$$

     RDKit          3D

 48 51  0  0  0  0  0  0  0  0999 V2000
  139.4510   70.9380  221.1220 O   0  0  0  0  0  0  0  0  0  0  0  0
  140.0090   71.5640  222.0580 C   0  0  0  0  0  0  0  0  0  0  0  0
  140.6680   72.7900  221.8260 N   0  0  0  0  0  0  0  0  0  0  0  0
  140.7350   73.3870  220.5040 C   0  0  0  0  0  0  0  0  0  0  0  0
  141.8370   72.7980  219.6980 C   0  0  0  0  0  0  0  0  0  0  0  0
  141.5360   71.9680  218.7960 O   0  0  0  0  0  0  0  0  0  0  0  0
  143.1730   73.1930  219.9770 N   0  0  0  0  0  0  0  0  0  0  0  0
  144.3590   72.3280  219.9960 C   0  0  0  0  0  0  0  0  0  0  0  0
  145.5310   73.2470  220.1610 C   0  0  2  0  0  0  0  0  0  0  0  0
  146.4690   72.7210  221.0790 O   0  0  0  0  0  0  0  0  0  0  0  0
  144.9860   74.5020  220.7640 C   0  0  0  0  0  0  0  0  0  0  0  0
  143.5640   74.5340  220.2880 C   0  0  1  0  0  0  0  0  0  0  0  0
  143.4360   75.4780  219.1500 C   0  0  0  0  0  0  0  0  0  0  0  0
  143.0260   76.8030  219.3290 C   0  0  0  0  0  0  0  0  0  0  0  0
  142.9130   77.6670  218.2560 C   0  0  0  0  0  0  0  0  0  0  0  0
  143.1990   77.2520  216.9740 C   0  0  0  0  0  0  0  0  0  0  0  0
  143.5930   75.9730  216.8070 N   0  0  0  0  0  0  0  0  0  0  0  0
  143.7080   75.1200  217.8390 C   0  0  0  0  0  0  0  0  0  0  0  0
  139.9820   71.0210  223.4280 C   0  0  0  0  0  0  0  0  0  0  0  0
  139.3850   69.8040  223.6810 C   0  0  0  0  0  0  0  0  0  0  0  0
  139.3550   69.2840  224.9750 C   0  0  0  0  0  0  0  0  0  0  0  0
  139.9360   69.9990  226.0250 C   0  0  0  0  0  0  0  0  0  0  0  0
  139.9310   69.5240  227.3210 C   0  0  0  0  0  0  0  0  0  0  0  0
  140.5150   70.2550  228.3480 C   0  0  0  0  0  0  0  0  0  0  0  0
  141.1090   71.4810  228.0480 C   0  0  0  0  0  0  0  0  0  0  0  0
  141.0970   71.9290  226.7430 C   0  0  0  0  0  0  0  0  0  0  0  0
  140.5220   71.2160  225.7100 C   0  0  0  0  0  0  0  0  0  0  0  0
  140.5370   71.6980  224.4500 N   0  0  0  0  0  0  0  0  0  0  0  0
  141.1240   73.2790  222.6510 H   0  0  0  0  0  0  0  0  0  0  0  0
  139.7805   73.2151  219.9849 H   0  0  0  0  0  0  0  0  0  0  0  0
  140.9280   74.4637  220.6197 H   0  0  0  0  0  0  0  0  0  0  0  0
  144.3046   71.6215  220.8374 H   0  0  0  0  0  0  0  0  0  0  0  0
  144.4392   71.7302  219.0761 H   0  0  0  0  0  0  0  0  0  0  0  0
  146.0282   73.3972  219.1913 H   0  0  0  0  0  0  0  0  0  0  0  0
  146.0870   71.9710  221.5950 H   0  0  0  0  0  0  0  0  0  0  0  0
  145.0316   74.4619  221.8623 H   0  0  0  0  0  0  0  0  0  0  0  0
  145.5543   75.3977  220.4728 H   0  0  0  0  0  0  0  0  0  0  0  0
  142.8796   74.9088  221.0633 H   0  0  0  0  0  0  0  0  0  0  0  0
  142.7894   77.1637  220.3409 H   0  0  0  0  0  0  0  0  0  0  0  0
  142.5891   78.7039  218.4288 H   0  0  0  0  0  0  0  0  0  0  0  0
  143.1094   77.9379  216.1187 H   0  0  0  0  0  0  0  0  0  0  0  0
  144.0332   74.0894  217.6336 H   0  0  0  0  0  0  0  0  0  0  0  0
  138.9285   69.2384  222.8553 H   0  0  0  0  0  0  0  0  0  0  0  0
  138.8750   68.3133  225.1681 H   0  0  0  0  0  0  0  0  0  0  0  0
  139.4592   68.5555  227.5432 H   0  0  0  0  0  0  0  0  0  0  0  0
  140.5091   69.8736  229.3798 H   0  0  0  0  0  0  0  0  0  0  0  0
  141.5800   72.0817  228.8400 H   0  0  0  0  0  0  0  0  0  0  0  0
  141.5665   72.8974  226.5155 H   0  0  0  0  0  0  0  0  0  0  0  0
  1  2  2  0
  2  3  1  0
  3  4  1  0
  4  5  1  0
  5  6  2  0
  5  7  1  0
  7  8  1  0
  8  9  1  0
  9 10  1  0
  9 11  1  0
 11 12  1  0
 12 13  1  0
 13 14  2  0
 14 15  1  0
 15 16  2  0
 16 17  1  0
 17 18  2  0
  2 19  1  0
 19 20  2  0
 20 21  1  0
 21 22  2  0
 22 23  1  0
 23 24  2  0
 24 25  1  0
 25 26  2  0
 26 27  1  0
 27 28  2  0
 12  7  1  0
 18 13  1  0
 28 19  1  0
 27 22  1  0
  3 29  1  0
  4 30  1  0
  4 31  1  0
  8 32  1  0
  8 33  1  0
  9 34  1  6
 10 35  1  0
 11 36  1  0
 11 37  1  0
 12 38  1  1
 14 39  1  0
 15 40  1  0
 16 41  1  0
 18 42  1  0
 20 43  1  0
 21 44  1  0
 23 45  1  0
 24 46  1  0
 25 47  1  0
 26 48  1  0
M  END
>  <smiles>  (9) 
O=C(NCC(=O)N1C[C@H](O)C[C@H]1c1cccnc1)c1ccc2ccccc2n1

>  <score_type>  (9) 
oracle

>  <origin>  (9) 
autodockgpu

>  <m_score__min__energy>  (9) 
-8.9199999999999999

>  <m_primary>  (9) 
energy

>  <rmsd>  (9) 
3.497558202793454

>  <m_score__min__rmsd>  (9) 
3.497558202793454

>  <meeko>  (9) 
{"free_energy": -7.57, "intermolecular_energy": -9.36, "internal_energy": -1.51, "cluster_size": 2, "cluster_id": 3, "rank_in_cluster": 2}

>  <energy>  (9) 
-8.73

>  <cluster_rmsd>  (9) 
0.3

>  <cluster>  (9) 
1

$$$$

     RDKit          3D

 48 51  0  0  0  0  0  0  0  0999 V2000
  141.0920   71.5570  221.3470 O   0  0  0  0  0  0  0  0  0  0  0  0
  140.4890   72.1210  222.2940 C   0  0  0  0  0  0  0  0  0  0  0  0
  140.0170   73.4450  222.1740 N   0  0  0  0  0  0  0  0  0  0  0  0
  140.2020   74.2190  220.9600 C   0  0  0  0  0  0  0  0  0  0  0  0
  141.0770   75.3980  221.1950 C   0  0  0  0  0  0  0  0  0  0  0  0
  141.0720   75.9220  222.3430 O   0  0  0  0  0  0  0  0  0  0  0  0
  141.8740   75.8800  220.1230 N   0  0  0  0  0  0  0  0  0  0  0  0
  142.1580   77.2850  219.8020 C   0  0  0  0  0  0  0  0  0  0  0  0
  143.1800   77.2530  218.7060 C   0  0  2  0  0  0  0  0  0  0  0  0
  142.8910   78.2120  217.7090 O   0  0  0  0  0  0  0  0  0  0  0  0
  143.0550   75.9080  218.0660 C   0  0  0  0  0  0  0  0  0  0  0  0
  142.5360   75.0380  219.1730 C   0  0  1  0  0  0  0  0  0  0  0  0
  143.6470   74.2400  219.7490 C   0  0  0  0  0  0  0  0  0  0  0  0
  144.6940   74.8340  220.4610 C   0  0  0  0  0  0  0  0  0  0  0  0
  145.7200   74.0740  220.9890 C   0  0  0  0  0  0  0  0  0  0  0  0
  145.7470   72.7050  220.8320 C   0  0  0  0  0  0  0  0  0  0  0  0
  144.7350   72.1380  220.1440 N   0  0  0  0  0  0  0  0  0  0  0  0
  143.7300   72.8620  219.6240 C   0  0  0  0  0  0  0  0  0  0  0  0
  140.2630   71.3990  223.5590 C   0  0  0  0  0  0  0  0  0  0  0  0
  139.5700   70.2070  223.5630 C   0  0  0  0  0  0  0  0  0  0  0  0
  139.3510   69.5180  224.7560 C   0  0  0  0  0  0  0  0  0  0  0  0
  139.8390   70.0360  225.9580 C   0  0  0  0  0  0  0  0  0  0  0  0
  139.6480   69.3890  227.1620 C   0  0  0  0  0  0  0  0  0  0  0  0
  140.1430   69.9270  228.3440 C   0  0  0  0  0  0  0  0  0  0  0  0
  140.8400   71.1340  228.2940 C   0  0  0  0  0  0  0  0  0  0  0  0
  141.0150   71.7570  227.0750 C   0  0  0  0  0  0  0  0  0  0  0  0
  140.5300   71.2380  225.8920 C   0  0  0  0  0  0  0  0  0  0  0  0
  140.7270   71.8850  224.7250 N   0  0  0  0  0  0  0  0  0  0  0  0
  139.5140   73.8760  223.0040 H   0  0  0  0  0  0  0  0  0  0  0  0
  140.6633   73.5782  220.1941 H   0  0  0  0  0  0  0  0  0  0  0  0
  139.2178   74.5799  220.6268 H   0  0  0  0  0  0  0  0  0  0  0  0
  141.2441   77.7923  219.4593 H   0  0  0  0  0  0  0  0  0  0  0  0
  142.5232   77.8361  220.6812 H   0  0  0  0  0  0  0  0  0  0  0  0
  144.1781   77.4587  219.1201 H   0  0  0  0  0  0  0  0  0  0  0  0
  143.7090   78.6790  217.4100 H   0  0  0  0  0  0  0  0  0  0  0  0
  142.3469   75.9375  217.2247 H   0  0  0  0  0  0  0  0  0  0  0  0
  144.0043   75.5445  217.6457 H   0  0  0  0  0  0  0  0  0  0  0  0
  141.8012   74.3053  218.8081 H   0  0  0  0  0  0  0  0  0  0  0  0
  144.7008   75.9248  220.6031 H   0  0  0  0  0  0  0  0  0  0  0  0
  146.5295   74.5703  221.5444 H   0  0  0  0  0  0  0  0  0  0  0  0
  146.5627   72.0980  221.2518 H   0  0  0  0  0  0  0  0  0  0  0  0
  142.9358   72.3367  219.0732 H   0  0  0  0  0  0  0  0  0  0  0  0
  139.1866   69.7959  222.6175 H   0  0  0  0  0  0  0  0  0  0  0  0
  138.7952   68.5688  224.7502 H   0  0  0  0  0  0  0  0  0  0  0  0
  139.0978   68.4368  227.1864 H   0  0  0  0  0  0  0  0  0  0  0  0
  139.9878   69.4098  229.3023 H   0  0  0  0  0  0  0  0  0  0  0  0
  141.2445   71.5830  229.2131 H   0  0  0  0  0  0  0  0  0  0  0  0
  141.5652   72.7090  227.0452 H   0  0  0  0  0  0  0  0  0  0  0  0
  1  2  2  0
  2  3  1  0
  3  4  1  0
  4  5  1  0
  5  6  2  0
  5  7  1  0
  7  8  1  0
  8  9  1  0
  9 10  1  0
  9 11  1  0
 11 12  1  0
 12 13  1  0
 13 14  2  0
 14 15  1  0
 15 16  2  0
 16 17  1  0
 17 18  2  0
  2 19  1  0
 19 20  2  0
 20 21  1  0
 21 22  2  0
 22 23  1  0
 23 24  2  0
 24 25  1  0
 25 26  2  0
 26 27  1  0
 27 28  2  0
 12  7  1  0
 18 13  1  0
 28 19  1  0
 27 22  1  0
  3 29  1  0
  4 30  1  0
  4 31  1  0
  8 32  1  0
  8 33  1  0
  9 34  1  1
 10 35  1  0
 11 36  1  0
 11 37  1  0
 12 38  1  6
 14 39  1  0
 15 40  1  0
 16 41  1  0
 18 42  1  0
 20 43  1  0
 21 44  1  0
 23 45  1  0
 24 46  1  0
 25 47  1  0
 26 48  1  0
M  END
>  <smiles>  (10) 
O=C(NCC(=O)N1C[C@H](O)C[C@H]1c1cccnc1)c1ccc2ccccc2n1

>  <score_type>  (10) 
oracle

>  <origin>  (10) 
autodockgpu

>  <m_score__min__energy>  (10) 
-8.9199999999999999

>  <m_primary>  (10) 
energy

>  <rmsd>  (10) 
2.424553947480015

>  <m_score__min__rmsd>  (10) 
2.424553947480015

>  <meeko>  (10) 
{"free_energy": -8.71, "intermolecular_energy": -10.5, "internal_energy": -1.59, "cluster_size": 29, "cluster_id": 1, "rank_in_cluster": 13}

>  <energy>  (10) 
-8.72

>  <cluster_rmsd>  (10) 
0.4

>  <cluster>  (10) 
1

$$$$

     RDKit          3D

 48 51  0  0  0  0  0  0  0  0999 V2000
  140.5900   70.9810  221.1050 O   0  0  0  0  0  0  0  0  0  0  0  0
  140.4610   71.7230  222.1110 C   0  0  0  0  0  0  0  0  0  0  0  0
  140.5290   73.1270  221.9960 N   0  0  0  0  0  0  0  0  0  0  0  0
  140.7510   73.7830  220.7200 C   0  0  0  0  0  0  0  0  0  0  0  0
  141.4180   75.1010  220.8940 C   0  0  0  0  0  0  0  0  0  0  0  0
  141.3090   75.6780  222.0110 O   0  0  0  0  0  0  0  0  0  0  0  0
  142.1440   75.6480  219.8020 N   0  0  0  0  0  0  0  0  0  0  0  0
  142.3060   77.0710  219.4800 C   0  0  0  0  0  0  0  0  0  0  0  0
  143.2950   77.1240  218.3560 C   0  0  2  0  0  0  0  0  0  0  0  0
  142.9030   78.0600  217.3720 O   0  0  0  0  0  0  0  0  0  0  0  0
  143.2590   75.7740  217.7140 C   0  0  0  0  0  0  0  0  0  0  0  0
  142.8420   74.8630  218.8300 C   0  0  1  0  0  0  0  0  0  0  0  0
  144.0290   74.1540  219.3700 C   0  0  0  0  0  0  0  0  0  0  0  0
  144.3990   74.2480  220.7160 C   0  0  0  0  0  0  0  0  0  0  0  0
  145.5080   73.5810  221.2000 C   0  0  0  0  0  0  0  0  0  0  0  0
  146.2880   72.8010  220.3740 C   0  0  0  0  0  0  0  0  0  0  0  0
  145.9270   72.7150  219.0770 N   0  0  0  0  0  0  0  0  0  0  0  0
  144.8520   73.3570  218.5900 C   0  0  0  0  0  0  0  0  0  0  0  0
  140.2330   71.1300  223.4410 C   0  0  0  0  0  0  0  0  0  0  0  0
  139.5690   69.9270  223.5600 C   0  0  0  0  0  0  0  0  0  0  0  0
  139.3490   69.3600  224.8150 C   0  0  0  0  0  0  0  0  0  0  0  0
  139.8060   70.0120  225.9630 C   0  0  0  0  0  0  0  0  0  0  0  0
  139.6120   69.4890  227.2250 C   0  0  0  0  0  0  0  0  0  0  0  0
  140.0760   70.1590  228.3510 C   0  0  0  0  0  0  0  0  0  0  0  0
  140.7440   71.3720  228.1850 C   0  0  0  0  0  0  0  0  0  0  0  0
  140.9220   71.8690  226.9100 C   0  0  0  0  0  0  0  0  0  0  0  0
  140.4680   71.2180  225.7810 C   0  0  0  0  0  0  0  0  0  0  0  0
  140.6670   71.7460  224.5560 N   0  0  0  0  0  0  0  0  0  0  0  0
  140.4140   73.7090  222.8770 H   0  0  0  0  0  0  0  0  0  0  0  0
  141.3870   73.1404  220.0935 H   0  0  0  0  0  0  0  0  0  0  0  0
  139.7740   73.9507  220.2433 H   0  0  0  0  0  0  0  0  0  0  0  0
  141.3451   77.5046  219.1658 H   0  0  0  0  0  0  0  0  0  0  0  0
  142.6514   77.6469  220.3512 H   0  0  0  0  0  0  0  0  0  0  0  0
  144.2850   77.4082  218.7423 H   0  0  0  0  0  0  0  0  0  0  0  0
  143.6590   78.6330  217.0980 H   0  0  0  0  0  0  0  0  0  0  0  0
  142.5276   75.7492  216.8928 H   0  0  0  0  0  0  0  0  0  0  0  0
  144.2223   75.4880  217.2665 H   0  0  0  0  0  0  0  0  0  0  0  0
  142.1569   74.0754  218.4830 H   0  0  0  0  0  0  0  0  0  0  0  0
  143.7968   74.8634  221.4006 H   0  0  0  0  0  0  0  0  0  0  0  0
  145.7730   73.6742  222.2635 H   0  0  0  0  0  0  0  0  0  0  0  0
  147.1711   72.2689  220.7575 H   0  0  0  0  0  0  0  0  0  0  0  0
  144.6138   73.2448  217.5220 H   0  0  0  0  0  0  0  0  0  0  0  0
  139.2100   69.4105  222.6576 H   0  0  0  0  0  0  0  0  0  0  0  0
  138.8167   68.4012  224.9009 H   0  0  0  0  0  0  0  0  0  0  0  0
  139.0841   68.5310  227.3413 H   0  0  0  0  0  0  0  0  0  0  0  0
  139.9190   69.7397  229.3558 H   0  0  0  0  0  0  0  0  0  0  0  0
  141.1233   71.9243  229.0574 H   0  0  0  0  0  0  0  0  0  0  0  0
  141.4492   72.8267  226.7881 H   0  0  0  0  0  0  0  0  0  0  0  0
  1  2  2  0
  2  3  1  0
  3  4  1  0
  4  5  1  0
  5  6  2  0
  5  7  1  0
  7  8  1  0
  8  9  1  0
  9 10  1  0
  9 11  1  0
 11 12  1  0
 12 13  1  0
 13 14  2  0
 14 15  1  0
 15 16  2  0
 16 17  1  0
 17 18  2  0
  2 19  1  0
 19 20  2  0
 20 21  1  0
 21 22  2  0
 22 23  1  0
 23 24  2  0
 24 25  1  0
 25 26  2  0
 26 27  1  0
 27 28  2  0
 12  7  1  0
 18 13  1  0
 28 19  1  0
 27 22  1  0
  3 29  1  0
  4 30  1  0
  4 31  1  0
  8 32  1  0
  8 33  1  0
  9 34  1  1
 10 35  1  0
 11 36  1  0
 11 37  1  0
 12 38  1  6
 14 39  1  0
 15 40  1  0
 16 41  1  0
 18 42  1  0
 20 43  1  0
 21 44  1  0
 23 45  1  0
 24 46  1  0
 25 47  1  0
 26 48  1  0
M  END
>  <smiles>  (11) 
O=C(NCC(=O)N1C[C@H](O)C[C@H]1c1cccnc1)c1ccc2ccccc2n1

>  <score_type>  (11) 
oracle

>  <origin>  (11) 
autodockgpu

>  <m_score__min__energy>  (11) 
-8.9199999999999999

>  <m_primary>  (11) 
energy

>  <rmsd>  (11) 
2.527392013868951

>  <m_score__min__rmsd>  (11) 
2.527392013868951

>  <meeko>  (11) 
{"free_energy": -8.76, "intermolecular_energy": -10.55, "internal_energy": -1.81, "cluster_size": 29, "cluster_id": 1, "rank_in_cluster": 5}

>  <energy>  (11) 
-8.72

>  <cluster_rmsd>  (11) 
0.5

>  <cluster>  (11) 
1

$$$$

     RDKit          3D

 48 51  0  0  0  0  0  0  0  0999 V2000
  140.2510   70.8520  221.0710 O   0  0  0  0  0  0  0  0  0  0  0  0
  140.4570   71.5520  222.0940 C   0  0  0  0  0  0  0  0  0  0  0  0
  140.9120   72.8830  221.9880 N   0  0  0  0  0  0  0  0  0  0  0  0
  141.1650   73.5080  220.7020 C   0  0  0  0  0  0  0  0  0  0  0  0
  141.4070   74.9680  220.8460 C   0  0  0  0  0  0  0  0  0  0  0  0
  140.9440   75.5490  221.8660 O   0  0  0  0  0  0  0  0  0  0  0  0
  142.1440   75.6400  219.8340 N   0  0  0  0  0  0  0  0  0  0  0  0
  142.2860   77.0920  219.6690 C   0  0  0  0  0  0  0  0  0  0  0  0
  143.2970   77.2800  218.5790 C   0  0  2  0  0  0  0  0  0  0  0  0
  142.9070   78.3090  217.6910 O   0  0  0  0  0  0  0  0  0  0  0  0
  143.2980   76.0060  217.7960 C   0  0  0  0  0  0  0  0  0  0  0  0
  142.8760   74.9750  218.8000 C   0  0  1  0  0  0  0  0  0  0  0  0
  144.0650   74.2320  219.2880 C   0  0  0  0  0  0  0  0  0  0  0  0
  144.7260   74.5850  220.4690 C   0  0  0  0  0  0  0  0  0  0  0  0
  145.8320   73.8820  220.9070 C   0  0  0  0  0  0  0  0  0  0  0  0
  146.3220   72.8090  220.1950 C   0  0  0  0  0  0  0  0  0  0  0  0
  145.6810   72.4730  219.0560 N   0  0  0  0  0  0  0  0  0  0  0  0
  144.6050   73.1470  218.6160 C   0  0  0  0  0  0  0  0  0  0  0  0
  140.2230   70.9860  223.4350 C   0  0  0  0  0  0  0  0  0  0  0  0
  139.5600   69.7850  223.5750 C   0  0  0  0  0  0  0  0  0  0  0  0
  139.3340   69.2430  224.8410 C   0  0  0  0  0  0  0  0  0  0  0  0
  139.7840   69.9200  225.9770 C   0  0  0  0  0  0  0  0  0  0  0  0
  139.5840   69.4230  227.2490 C   0  0  0  0  0  0  0  0  0  0  0  0
  140.0410   70.1160  228.3630 C   0  0  0  0  0  0  0  0  0  0  0  0
  140.7080   71.3270  228.1750 C   0  0  0  0  0  0  0  0  0  0  0  0
  140.8920   71.7980  226.8910 C   0  0  0  0  0  0  0  0  0  0  0  0
  140.4450   71.1230  225.7730 C   0  0  0  0  0  0  0  0  0  0  0  0
  140.6500   71.6260  224.5390 N   0  0  0  0  0  0  0  0  0  0  0  0
  141.0710   73.4320  222.8840 H   0  0  0  0  0  0  0  0  0  0  0  0
  142.0507   73.0418  220.2457 H   0  0  0  0  0  0  0  0  0  0  0  0
  140.2778   73.3653  220.0675 H   0  0  0  0  0  0  0  0  0  0  0  0
  141.3240   77.5411  219.3813 H   0  0  0  0  0  0  0  0  0  0  0  0
  142.6024   77.5775  220.6040 H   0  0  0  0  0  0  0  0  0  0  0  0
  144.2736   77.5368  219.0152 H   0  0  0  0  0  0  0  0  0  0  0  0
  143.6880   78.7150  217.2450 H   0  0  0  0  0  0  0  0  0  0  0  0
  142.5832   76.0573  216.9615 H   0  0  0  0  0  0  0  0  0  0  0  0
  144.2746   75.7848  217.3407 H   0  0  0  0  0  0  0  0  0  0  0  0
  142.2129   74.2177  218.3563 H   0  0  0  0  0  0  0  0  0  0  0  0
  144.3589   75.4373  221.0596 H   0  0  0  0  0  0  0  0  0  0  0  0
  146.3298   74.1842  221.8402 H   0  0  0  0  0  0  0  0  0  0  0  0
  147.2021   72.2476  220.5418 H   0  0  0  0  0  0  0  0  0  0  0  0
  144.1305   72.8222  217.6783 H   0  0  0  0  0  0  0  0  0  0  0  0
  139.2063   69.2498  222.6814 H   0  0  0  0  0  0  0  0  0  0  0  0
  138.8029   68.2852  224.9441 H   0  0  0  0  0  0  0  0  0  0  0  0
  139.0566   68.4669  227.3823 H   0  0  0  0  0  0  0  0  0  0  0  0
  139.8798   69.7170  229.3754 H   0  0  0  0  0  0  0  0  0  0  0  0
  141.0817   71.8980  229.0377 H   0  0  0  0  0  0  0  0  0  0  0  0
  141.4183   72.7539  226.7523 H   0  0  0  0  0  0  0  0  0  0  0  0
  1  2  2  0
  2  3  1  0
  3  4  1  0
  4  5  1  0
  5  6  2  0
  5  7  1  0
  7  8  1  0
  8  9  1  0
  9 10  1  0
  9 11  1  0
 11 12  1  0
 12 13  1  0
 13 14  2  0
 14 15  1  0
 15 16  2  0
 16 17  1  0
 17 18  2  0
  2 19  1  0
 19 20  2  0
 20 21  1  0
 21 22  2  0
 22 23  1  0
 23 24  2  0
 24 25  1  0
 25 26  2  0
 26 27  1  0
 27 28  2  0
 12  7  1  0
 18 13  1  0
 28 19  1  0
 27 22  1  0
  3 29  1  0
  4 30  1  0
  4 31  1  0
  8 32  1  0
  8 33  1  0
  9 34  1  1
 10 35  1  0
 11 36  1  0
 11 37  1  0
 12 38  1  6
 14 39  1  0
 15 40  1  0
 16 41  1  0
 18 42  1  0
 20 43  1  0
 21 44  1  0
 23 45  1  0
 24 46  1  0
 25 47  1  0
 26 48  1  0
M  END
>  <smiles>  (12) 
O=C(NCC(=O)N1C[C@H](O)C[C@H]1c1cccnc1)c1ccc2ccccc2n1

>  <score_type>  (12) 
oracle

>  <origin>  (12) 
autodockgpu

>  <m_score__min__energy>  (12) 
-8.9199999999999999

>  <m_primary>  (12) 
energy

>  <rmsd>  (12) 
2.587846743770018

>  <m_score__min__rmsd>  (12) 
2.587846743770018

>  <meeko>  (12) 
{"free_energy": -8.61, "intermolecular_energy": -10.4, "internal_energy": -1.86, "cluster_size": 29, "cluster_id": 1, "rank_in_cluster": 18}

>  <energy>  (12) 
-8.72

>  <cluster_rmsd>  (12) 
0.39

>  <cluster>  (12) 
1

$$$$

     RDKit          3D

 48 51  0  0  0  0  0  0  0  0999 V2000
  140.8630   71.0200  221.1550 O   0  0  0  0  0  0  0  0  0  0  0  0
  140.5570   71.7570  222.1260 C   0  0  0  0  0  0  0  0  0  0  0  0
  140.4790   73.1590  221.9830 N   0  0  0  0  0  0  0  0  0  0  0  0
  140.7470   73.8170  220.7170 C   0  0  0  0  0  0  0  0  0  0  0  0
  141.4520   75.1110  220.9160 C   0  0  0  0  0  0  0  0  0  0  0  0
  141.3760   75.6610  222.0490 O   0  0  0  0  0  0  0  0  0  0  0  0
  142.1750   75.6680  219.8280 N   0  0  0  0  0  0  0  0  0  0  0  0
  142.3330   77.0940  219.5150 C   0  0  0  0  0  0  0  0  0  0  0  0
  143.3220   77.1570  218.3910 C   0  0  2  0  0  0  0  0  0  0  0  0
  142.9260   78.0980  217.4130 O   0  0  0  0  0  0  0  0  0  0  0  0
  143.2900   75.8120  217.7400 C   0  0  0  0  0  0  0  0  0  0  0  0
  142.8770   74.8920  218.8500 C   0  0  1  0  0  0  0  0  0  0  0  0
  144.0660   74.1830  219.3850 C   0  0  0  0  0  0  0  0  0  0  0  0
  144.4990   74.3550  220.7050 C   0  0  0  0  0  0  0  0  0  0  0  0
  145.6090   73.6870  221.1850 C   0  0  0  0  0  0  0  0  0  0  0  0
  146.3280   72.8290  220.3810 C   0  0  0  0  0  0  0  0  0  0  0  0
  145.9070   72.6690  219.1090 N   0  0  0  0  0  0  0  0  0  0  0  0
  144.8290   73.3110  218.6270 C   0  0  0  0  0  0  0  0  0  0  0  0
  140.2710   71.1610  223.4440 C   0  0  0  0  0  0  0  0  0  0  0  0
  139.5620   69.9820  223.5330 C   0  0  0  0  0  0  0  0  0  0  0  0
  139.2880   69.4120  224.7760 C   0  0  0  0  0  0  0  0  0  0  0  0
  139.7350   70.0380  225.9420 C   0  0  0  0  0  0  0  0  0  0  0  0
  139.4870   69.5110  227.1930 C   0  0  0  0  0  0  0  0  0  0  0  0
  139.9420   70.1540  228.3380 C   0  0  0  0  0  0  0  0  0  0  0  0
  140.6560   71.3440  228.2020 C   0  0  0  0  0  0  0  0  0  0  0  0
  140.8870   71.8460  226.9370 C   0  0  0  0  0  0  0  0  0  0  0  0
  140.4430   71.2210  225.7900 C   0  0  0  0  0  0  0  0  0  0  0  0
  140.6950   71.7520  224.5760 N   0  0  0  0  0  0  0  0  0  0  0  0
  140.2170   73.7370  222.8350 H   0  0  0  0  0  0  0  0  0  0  0  0
  141.3745   73.1592  220.0977 H   0  0  0  0  0  0  0  0  0  0  0  0
  139.7857   74.0193  220.2220 H   0  0  0  0  0  0  0  0  0  0  0  0
  141.3709   77.5269  219.2036 H   0  0  0  0  0  0  0  0  0  0  0  0
  142.6768   77.6653  220.3899 H   0  0  0  0  0  0  0  0  0  0  0  0
  144.3112   77.4413  218.7791 H   0  0  0  0  0  0  0  0  0  0  0  0
  143.6890   78.6500  217.1150 H   0  0  0  0  0  0  0  0  0  0  0  0
  142.5580   75.7904  216.9192 H   0  0  0  0  0  0  0  0  0  0  0  0
  144.2538   75.5323  217.2897 H   0  0  0  0  0  0  0  0  0  0  0  0
  142.1951   74.1041  218.4975 H   0  0  0  0  0  0  0  0  0  0  0  0
  143.9461   75.0335  221.3714 H   0  0  0  0  0  0  0  0  0  0  0  0
  145.9245   73.8427  222.2272 H   0  0  0  0  0  0  0  0  0  0  0  0
  147.2112   72.2951  220.7616 H   0  0  0  0  0  0  0  0  0  0  0  0
  144.5391   73.1353  217.5805 H   0  0  0  0  0  0  0  0  0  0  0  0
  139.2095   69.4868  222.6162 H   0  0  0  0  0  0  0  0  0  0  0  0
  138.7210   68.4714  224.8381 H   0  0  0  0  0  0  0  0  0  0  0  0
  138.9227   68.5712  227.2850 H   0  0  0  0  0  0  0  0  0  0  0  0
  139.7424   69.7317  229.3339 H   0  0  0  0  0  0  0  0  0  0  0  0
  141.0298   71.8750  229.0899 H   0  0  0  0  0  0  0  0  0  0  0  0
  141.4500   72.7859  226.8392 H   0  0  0  0  0  0  0  0  0  0  0  0
  1  2  2  0
  2  3  1  0
  3  4  1  0
  4  5  1  0
  5  6  2  0
  5  7  1  0
  7  8  1  0
  8  9  1  0
  9 10  1  0
  9 11  1  0
 11 12  1  0
 12 13  1  0
 13 14  2  0
 14 15  1  0
 15 16  2  0
 16 17  1  0
 17 18  2  0
  2 19  1  0
 19 20  2  0
 20 21  1  0
 21 22  2  0
 22 23  1  0
 23 24  2  0
 24 25  1  0
 25 26  2  0
 26 27  1  0
 27 28  2  0
 12  7  1  0
 18 13  1  0
 28 19  1  0
 27 22  1  0
  3 29  1  0
  4 30  1  0
  4 31  1  0
  8 32  1  0
  8 33  1  0
  9 34  1  1
 10 35  1  0
 11 36  1  0
 11 37  1  0
 12 38  1  6
 14 39  1  0
 15 40  1  0
 16 41  1  0
 18 42  1  0
 20 43  1  0
 21 44  1  0
 23 45  1  0
 24 46  1  0
 25 47  1  0
 26 48  1  0
M  END
>  <smiles>  (13) 
O=C(NCC(=O)N1C[C@H](O)C[C@H]1c1cccnc1)c1ccc2ccccc2n1

>  <score_type>  (13) 
oracle

>  <origin>  (13) 
autodockgpu

>  <m_score__min__energy>  (13) 
-8.9199999999999999

>  <m_primary>  (13) 
energy

>  <rmsd>  (13) 
2.545877531675963

>  <m_score__min__rmsd>  (13) 
2.545877531675963

>  <meeko>  (13) 
{"free_energy": -8.83, "intermolecular_energy": -10.62, "internal_energy": -1.72, "cluster_size": 29, "cluster_id": 1, "rank_in_cluster": 2}

>  <energy>  (13) 
-8.71

>  <cluster_rmsd>  (13) 
0.55

>  <cluster>  (13) 
1

$$$$

     RDKit          3D

 48 51  0  0  0  0  0  0  0  0999 V2000
  140.1170   70.9170  221.1200 O   0  0  0  0  0  0  0  0  0  0  0  0
  140.3350   71.6080  222.1460 C   0  0  0  0  0  0  0  0  0  0  0  0
  140.7590   72.9500  222.0470 N   0  0  0  0  0  0  0  0  0  0  0  0
  140.9640   73.5970  220.7640 C   0  0  0  0  0  0  0  0  0  0  0  0
  141.4120   75.0060  220.9310 C   0  0  0  0  0  0  0  0  0  0  0  0
  141.1150   75.6000  222.0030 O   0  0  0  0  0  0  0  0  0  0  0  0
  142.1490   75.6160  219.8810 N   0  0  0  0  0  0  0  0  0  0  0  0
  142.3020   77.0550  219.6360 C   0  0  0  0  0  0  0  0  0  0  0  0
  143.3090   77.1760  218.5330 C   0  0  2  0  0  0  0  0  0  0  0  0
  142.9230   78.1580  217.5930 O   0  0  0  0  0  0  0  0  0  0  0  0
  143.2980   75.8610  217.8210 C   0  0  0  0  0  0  0  0  0  0  0  0
  142.8720   74.8890  218.8820 C   0  0  1  0  0  0  0  0  0  0  0  0
  144.0580   74.1650  219.4050 C   0  0  0  0  0  0  0  0  0  0  0  0
  144.4180   74.2120  220.7560 C   0  0  0  0  0  0  0  0  0  0  0  0
  145.5260   73.5320  221.2240 C   0  0  0  0  0  0  0  0  0  0  0  0
  146.3130   72.7830  220.3760 C   0  0  0  0  0  0  0  0  0  0  0  0
  145.9610   72.7420  219.0740 N   0  0  0  0  0  0  0  0  0  0  0  0
  144.8880   73.3980  218.6030 C   0  0  0  0  0  0  0  0  0  0  0  0
  140.1480   71.0200  223.4850 C   0  0  0  0  0  0  0  0  0  0  0  0
  139.4910   69.8160  223.6280 C   0  0  0  0  0  0  0  0  0  0  0  0
  139.3100   69.2530  224.8920 C   0  0  0  0  0  0  0  0  0  0  0  0
  139.7990   69.9110  226.0230 C   0  0  0  0  0  0  0  0  0  0  0  0
  139.6440   69.3920  227.2920 C   0  0  0  0  0  0  0  0  0  0  0  0
  140.1390   70.0680  228.4010 C   0  0  0  0  0  0  0  0  0  0  0  0
  140.7980   71.2820  228.2110 C   0  0  0  0  0  0  0  0  0  0  0  0
  140.9370   71.7750  226.9290 C   0  0  0  0  0  0  0  0  0  0  0  0
  140.4520   71.1180  225.8160 C   0  0  0  0  0  0  0  0  0  0  0  0
  140.6130   71.6420  224.5840 N   0  0  0  0  0  0  0  0  0  0  0  0
  140.9300   73.4900  222.9450 H   0  0  0  0  0  0  0  0  0  0  0  0
  141.7298   73.0424  220.2020 H   0  0  0  0  0  0  0  0  0  0  0  0
  140.0070   73.6004  220.2216 H   0  0  0  0  0  0  0  0  0  0  0  0
  141.3421   77.4955  219.3285 H   0  0  0  0  0  0  0  0  0  0  0  0
  142.6273   77.5878  220.5417 H   0  0  0  0  0  0  0  0  0  0  0  0
  144.2896   77.4490  218.9501 H   0  0  0  0  0  0  0  0  0  0  0  0
  143.7060   78.6430  217.2360 H   0  0  0  0  0  0  0  0  0  0  0  0
  142.5805   75.8718  216.9873 H   0  0  0  0  0  0  0  0  0  0  0  0
  144.2714   75.6080  217.3754 H   0  0  0  0  0  0  0  0  0  0  0  0
  142.2013   74.1135  218.4836 H   0  0  0  0  0  0  0  0  0  0  0  0
  143.8086   74.8004  221.4577 H   0  0  0  0  0  0  0  0  0  0  0  0
  145.7844   73.5894  222.2917 H   0  0  0  0  0  0  0  0  0  0  0  0
  147.1946   72.2393  220.7465 H   0  0  0  0  0  0  0  0  0  0  0  0
  144.6571   73.3230  217.5301 H   0  0  0  0  0  0  0  0  0  0  0  0
  139.1065   69.2952  222.7386 H   0  0  0  0  0  0  0  0  0  0  0  0
  138.7833   68.2930  224.9975 H   0  0  0  0  0  0  0  0  0  0  0  0
  139.1230   68.4327  227.4275 H   0  0  0  0  0  0  0  0  0  0  0  0
  140.0130   69.6523  229.4116 H   0  0  0  0  0  0  0  0  0  0  0  0
  141.2012   71.8386  229.0698 H   0  0  0  0  0  0  0  0  0  0  0  0
  141.4573   72.7339  226.7882 H   0  0  0  0  0  0  0  0  0  0  0  0
  1  2  2  0
  2  3  1  0
  3  4  1  0
  4  5  1  0
  5  6  2  0
  5  7  1  0
  7  8  1  0
  8  9  1  0
  9 10  1  0
  9 11  1  0
 11 12  1  0
 12 13  1  0
 13 14  2  0
 14 15  1  0
 15 16  2  0
 16 17  1  0
 17 18  2  0
  2 19  1  0
 19 20  2  0
 20 21  1  0
 21 22  2  0
 22 23  1  0
 23 24  2  0
 24 25  1  0
 25 26  2  0
 26 27  1  0
 27 28  2  0
 12  7  1  0
 18 13  1  0
 28 19  1  0
 27 22  1  0
  3 29  1  0
  4 30  1  0
  4 31  1  0
  8 32  1  0
  8 33  1  0
  9 34  1  1
 10 35  1  0
 11 36  1  0
 11 37  1  0
 12 38  1  6
 14 39  1  0
 15 40  1  0
 16 41  1  0
 18 42  1  0
 20 43  1  0
 21 44  1  0
 23 45  1  0
 24 46  1  0
 25 47  1  0
 26 48  1  0
M  END
>  <smiles>  (14) 
O=C(NCC(=O)N1C[C@H](O)C[C@H]1c1cccnc1)c1ccc2ccccc2n1

>  <score_type>  (14) 
oracle

>  <origin>  (14) 
autodockgpu

>  <m_score__min__energy>  (14) 
-8.9199999999999999

>  <m_primary>  (14) 
energy

>  <rmsd>  (14) 
2.5497053938401315

>  <m_score__min__rmsd>  (14) 
2.5497053938401315

>  <meeko>  (14) 
{"free_energy": -8.72, "intermolecular_energy": -10.51, "internal_energy": -1.87, "cluster_size": 29, "cluster_id": 1, "rank_in_cluster": 12}

>  <energy>  (14) 
-8.71

>  <cluster_rmsd>  (14) 
0.58

>  <cluster>  (14) 
1

$$$$

     RDKit          3D

 48 51  0  0  0  0  0  0  0  0999 V2000
  140.9560   71.3120  221.2220 O   0  0  0  0  0  0  0  0  0  0  0  0
  140.5150   71.9850  222.1860 C   0  0  0  0  0  0  0  0  0  0  0  0
  140.2540   73.3650  222.0550 N   0  0  0  0  0  0  0  0  0  0  0  0
  140.4800   74.0740  220.8090 C   0  0  0  0  0  0  0  0  0  0  0  0
  141.3380   75.2720  221.0120 C   0  0  0  0  0  0  0  0  0  0  0  0
  141.3850   75.7790  222.1670 O   0  0  0  0  0  0  0  0  0  0  0  0
  142.0600   75.7900  219.9040 N   0  0  0  0  0  0  0  0  0  0  0  0
  142.2660   77.2050  219.5730 C   0  0  0  0  0  0  0  0  0  0  0  0
  143.2350   77.2190  218.4300 C   0  0  2  0  0  0  0  0  0  0  0  0
  142.8560   78.1650  217.4500 O   0  0  0  0  0  0  0  0  0  0  0  0
  143.1390   75.8700  217.7940 C   0  0  0  0  0  0  0  0  0  0  0  0
  142.7130   74.9780  218.9230 C   0  0  1  0  0  0  0  0  0  0  0  0
  143.8850   74.2300  219.4430 C   0  0  0  0  0  0  0  0  0  0  0  0
  144.0950   74.0430  220.8130 C   0  0  0  0  0  0  0  0  0  0  0  0
  145.1920   73.3440  221.2790 C   0  0  0  0  0  0  0  0  0  0  0  0
  146.1170   72.8080  220.4090 C   0  0  0  0  0  0  0  0  0  0  0  0
  145.9090   72.9920  219.0890 N   0  0  0  0  0  0  0  0  0  0  0  0
  144.8480   73.6690  218.6200 C   0  0  0  0  0  0  0  0  0  0  0  0
  140.2600   71.3350  223.4850 C   0  0  0  0  0  0  0  0  0  0  0  0
  139.5690   70.1430  223.5400 C   0  0  0  0  0  0  0  0  0  0  0  0
  139.3230   69.5210  224.7640 C   0  0  0  0  0  0  0  0  0  0  0  0
  139.7810   70.1090  225.9460 C   0  0  0  0  0  0  0  0  0  0  0  0
  139.5630   69.5300  227.1800 C   0  0  0  0  0  0  0  0  0  0  0  0
  140.0280   70.1360  228.3410 C   0  0  0  0  0  0  0  0  0  0  0  0
  140.7230   71.3400  228.2390 C   0  0  0  0  0  0  0  0  0  0  0  0
  140.9260   71.8940  226.9920 C   0  0  0  0  0  0  0  0  0  0  0  0
  140.4700   71.3070  225.8280 C   0  0  0  0  0  0  0  0  0  0  0  0
  140.6940   71.8880  224.6320 N   0  0  0  0  0  0  0  0  0  0  0  0
  139.8820   73.8890  222.9010 H   0  0  0  0  0  0  0  0  0  0  0  0
  140.9742   73.3968  220.0968 H   0  0  0  0  0  0  0  0  0  0  0  0
  139.5067   74.4081  220.4203 H   0  0  0  0  0  0  0  0  0  0  0  0
  141.3153   77.6712  219.2751 H   0  0  0  0  0  0  0  0  0  0  0  0
  142.6480   77.7714  220.4351 H   0  0  0  0  0  0  0  0  0  0  0  0
  144.2418   77.4688  218.7961 H   0  0  0  0  0  0  0  0  0  0  0  0
  143.6330   78.6830  217.1310 H   0  0  0  0  0  0  0  0  0  0  0  0
  142.3906   75.8681  216.9879 H   0  0  0  0  0  0  0  0  0  0  0  0
  144.0821   75.5489  217.3277 H   0  0  0  0  0  0  0  0  0  0  0  0
  141.9950   74.2126  218.5933 H   0  0  0  0  0  0  0  0  0  0  0  0
  143.3743   74.4596  221.5321 H   0  0  0  0  0  0  0  0  0  0  0  0
  145.3294   73.2131  222.3625 H   0  0  0  0  0  0  0  0  0  0  0  0
  146.9915   72.2514  220.7771 H   0  0  0  0  0  0  0  0  0  0  0  0
  144.7386   73.7834  217.5314 H   0  0  0  0  0  0  0  0  0  0  0  0
  139.2086   69.6785  222.6103 H   0  0  0  0  0  0  0  0  0  0  0  0
  138.7702   68.5706  224.7987 H   0  0  0  0  0  0  0  0  0  0  0  0
  139.0151   68.5784  227.2451 H   0  0  0  0  0  0  0  0  0  0  0  0
  139.8507   69.6736  229.3232 H   0  0  0  0  0  0  0  0  0  0  0  0
  141.1044   71.8416  229.1406 H   0  0  0  0  0  0  0  0  0  0  0  0
  141.4749   72.8446  226.9217 H   0  0  0  0  0  0  0  0  0  0  0  0
  1  2  2  0
  2  3  1  0
  3  4  1  0
  4  5  1  0
  5  6  2  0
  5  7  1  0
  7  8  1  0
  8  9  1  0
  9 10  1  0
  9 11  1  0
 11 12  1  0
 12 13  1  0
 13 14  2  0
 14 15  1  0
 15 16  2  0
 16 17  1  0
 17 18  2  0
  2 19  1  0
 19 20  2  0
 20 21  1  0
 21 22  2  0
 22 23  1  0
 23 24  2  0
 24 25  1  0
 25 26  2  0
 26 27  1  0
 27 28  2  0
 12  7  1  0
 18 13  1  0
 28 19  1  0
 27 22  1  0
  3 29  1  0
  4 30  1  0
  4 31  1  0
  8 32  1  0
  8 33  1  0
  9 34  1  1
 10 35  1  0
 11 36  1  0
 11 37  1  0
 12 38  1  6
 14 39  1  0
 15 40  1  0
 16 41  1  0
 18 42  1  0
 20 43  1  0
 21 44  1  0
 23 45  1  0
 24 46  1  0
 25 47  1  0
 26 48  1  0
M  END
>  <smiles>  (15) 
O=C(NCC(=O)N1C[C@H](O)C[C@H]1c1cccnc1)c1ccc2ccccc2n1

>  <score_type>  (15) 
oracle

>  <origin>  (15) 
autodockgpu

>  <m_score__min__energy>  (15) 
-8.9199999999999999

>  <m_primary>  (15) 
energy

>  <rmsd>  (15) 
2.488614642570928

>  <m_score__min__rmsd>  (15) 
2.488614642570928

>  <meeko>  (15) 
{"free_energy": -8.92, "intermolecular_energy": -10.71, "internal_energy": -1.57, "cluster_size": 29, "cluster_id": 1, "rank_in_cluster": 1}

>  <energy>  (15) 
-8.7

>  <cluster_rmsd>  (15) 
0.37

>  <cluster>  (15) 
1

$$$$

     RDKit          3D

 48 51  0  0  0  0  0  0  0  0999 V2000
  139.8850   71.0520  221.1040 O   0  0  0  0  0  0  0  0  0  0  0  0
  140.3190   71.6680  222.1090 C   0  0  0  0  0  0  0  0  0  0  0  0
  140.9440   72.9270  221.9820 N   0  0  0  0  0  0  0  0  0  0  0  0
  141.1170   73.5700  220.6920 C   0  0  0  0  0  0  0  0  0  0  0  0
  141.4010   75.0220  220.8420 C   0  0  0  0  0  0  0  0  0  0  0  0
  140.9590   75.6100  221.8670 O   0  0  0  0  0  0  0  0  0  0  0  0
  142.1520   75.6790  219.8310 N   0  0  0  0  0  0  0  0  0  0  0  0
  142.2980   77.1280  219.6460 C   0  0  0  0  0  0  0  0  0  0  0  0
  143.3230   77.2990  218.5670 C   0  0  2  0  0  0  0  0  0  0  0  0
  142.9470   78.3150  217.6590 O   0  0  0  0  0  0  0  0  0  0  0  0
  143.3350   76.0140  217.8030 C   0  0  0  0  0  0  0  0  0  0  0  0
  142.8980   74.9980  218.8170 C   0  0  1  0  0  0  0  0  0  0  0  0
  144.0790   74.2610  219.3310 C   0  0  0  0  0  0  0  0  0  0  0  0
  144.5390   74.4220  220.6430 C   0  0  0  0  0  0  0  0  0  0  0  0
  145.6410   73.7280  221.1040 C   0  0  0  0  0  0  0  0  0  0  0  0
  146.3260   72.8540  220.2880 C   0  0  0  0  0  0  0  0  0  0  0  0
  145.8790   72.7040  219.0240 N   0  0  0  0  0  0  0  0  0  0  0  0
  144.8090   73.3710  218.5600 C   0  0  0  0  0  0  0  0  0  0  0  0
  140.1790   71.0780  223.4530 C   0  0  0  0  0  0  0  0  0  0  0  0
  139.5390   69.8680  223.6170 C   0  0  0  0  0  0  0  0  0  0  0  0
  139.4020   69.3040  224.8850 C   0  0  0  0  0  0  0  0  0  0  0  0
  139.9200   69.9670  226.0000 C   0  0  0  0  0  0  0  0  0  0  0  0
  139.8090   69.4470  227.2740 C   0  0  0  0  0  0  0  0  0  0  0  0
  140.3320   70.1270  228.3670 C   0  0  0  0  0  0  0  0  0  0  0  0
  140.9730   71.3470  228.1560 C   0  0  0  0  0  0  0  0  0  0  0  0
  141.0680   71.8410  226.8710 C   0  0  0  0  0  0  0  0  0  0  0  0
  140.5540   71.1800  225.7740 C   0  0  0  0  0  0  0  0  0  0  0  0
  140.6720   71.7050  224.5370 N   0  0  0  0  0  0  0  0  0  0  0  0
  141.2940   73.4060  222.8630 H   0  0  0  0  0  0  0  0  0  0  0  0
  141.9568   73.0939  220.1648 H   0  0  0  0  0  0  0  0  0  0  0  0
  140.1832   73.4575  220.1216 H   0  0  0  0  0  0  0  0  0  0  0  0
  141.3403   77.5736  219.3390 H   0  0  0  0  0  0  0  0  0  0  0  0
  142.6030   77.6270  220.5777 H   0  0  0  0  0  0  0  0  0  0  0  0
  144.2936   77.5616  219.0132 H   0  0  0  0  0  0  0  0  0  0  0  0
  143.7240   78.8580  217.3830 H   0  0  0  0  0  0  0  0  0  0  0  0
  142.6323   76.0529  216.9576 H   0  0  0  0  0  0  0  0  0  0  0  0
  144.3178   75.7859  217.3648 H   0  0  0  0  0  0  0  0  0  0  0  0
  142.2399   74.2347  218.3762 H   0  0  0  0  0  0  0  0  0  0  0  0
  144.0140   75.1131  221.3188 H   0  0  0  0  0  0  0  0  0  0  0  0
  145.9776   73.8757  222.1408 H   0  0  0  0  0  0  0  0  0  0  0  0
  147.2034   72.3000  220.6531 H   0  0  0  0  0  0  0  0  0  0  0  0
  144.4978   73.2025  217.5185 H   0  0  0  0  0  0  0  0  0  0  0  0
  139.1329   69.3428  222.7400 H   0  0  0  0  0  0  0  0  0  0  0  0
  138.8873   68.3395  225.0068 H   0  0  0  0  0  0  0  0  0  0  0  0
  139.3007   68.4833  227.4256 H   0  0  0  0  0  0  0  0  0  0  0  0
  140.2419   69.7101  229.3810 H   0  0  0  0  0  0  0  0  0  0  0  0
  141.3971   71.9079  229.0019 H   0  0  0  0  0  0  0  0  0  0  0  0
  141.5758   72.8041  226.7142 H   0  0  0  0  0  0  0  0  0  0  0  0
  1  2  2  0
  2  3  1  0
  3  4  1  0
  4  5  1  0
  5  6  2  0
  5  7  1  0
  7  8  1  0
  8  9  1  0
  9 10  1  0
  9 11  1  0
 11 12  1  0
 12 13  1  0
 13 14  2  0
 14 15  1  0
 15 16  2  0
 16 17  1  0
 17 18  2  0
  2 19  1  0
 19 20  2  0
 20 21  1  0
 21 22  2  0
 22 23  1  0
 23 24  2  0
 24 25  1  0
 25 26  2  0
 26 27  1  0
 27 28  2  0
 12  7  1  0
 18 13  1  0
 28 19  1  0
 27 22  1  0
  3 29  1  0
  4 30  1  0
  4 31  1  0
  8 32  1  0
  8 33  1  0
  9 34  1  1
 10 35  1  0
 11 36  1  0
 11 37  1  0
 12 38  1  6
 14 39  1  0
 15 40  1  0
 16 41  1  0
 18 42  1  0
 20 43  1  0
 21 44  1  0
 23 45  1  0
 24 46  1  0
 25 47  1  0
 26 48  1  0
M  END
>  <smiles>  (16) 
O=C(NCC(=O)N1C[C@H](O)C[C@H]1c1cccnc1)c1ccc2ccccc2n1

>  <score_type>  (16) 
oracle

>  <origin>  (16) 
autodockgpu

>  <m_score__min__energy>  (16) 
-8.9199999999999999

>  <m_primary>  (16) 
energy

>  <rmsd>  (16) 
2.591824312362066

>  <m_score__min__rmsd>  (16) 
2.591824312362066

>  <meeko>  (16) 
{"free_energy": -8.72, "intermolecular_energy": -10.51, "internal_energy": -1.76, "cluster_size": 29, "cluster_id": 1, "rank_in_cluster": 11}

>  <energy>  (16) 
-8.69

>  <cluster_rmsd>  (16) 
0.58

>  <cluster>  (16) 
1

$$$$

     RDKit          3D

 48 51  0  0  0  0  0  0  0  0999 V2000
  140.4270   70.9450  221.0730 O   0  0  0  0  0  0  0  0  0  0  0  0
  140.4150   71.6830  222.0890 C   0  0  0  0  0  0  0  0  0  0  0  0
  140.6010   73.0770  221.9820 N   0  0  0  0  0  0  0  0  0  0  0  0
  140.8140   73.7270  220.7010 C   0  0  0  0  0  0  0  0  0  0  0  0
  141.4190   75.0750  220.8690 C   0  0  0  0  0  0  0  0  0  0  0  0
  141.2610   75.6630  221.9740 O   0  0  0  0  0  0  0  0  0  0  0  0
  142.1430   75.6370  219.7840 N   0  0  0  0  0  0  0  0  0  0  0  0
  142.2910   77.0650  219.4720 C   0  0  0  0  0  0  0  0  0  0  0  0
  143.2840   77.1360  218.3530 C   0  0  2  0  0  0  0  0  0  0  0  0
  142.8850   78.0740  217.3730 O   0  0  0  0  0  0  0  0  0  0  0  0
  143.2660   75.7900  217.7010 C   0  0  0  0  0  0  0  0  0  0  0  0
  142.8550   74.8670  218.8100 C   0  0  1  0  0  0  0  0  0  0  0  0
  144.0480   74.1680  219.3500 C   0  0  0  0  0  0  0  0  0  0  0  0
  144.4210   74.2730  220.6940 C   0  0  0  0  0  0  0  0  0  0  0  0
  145.5360   73.6150  221.1790 C   0  0  0  0  0  0  0  0  0  0  0  0
  146.3170   72.8340  220.3550 C   0  0  0  0  0  0  0  0  0  0  0  0
  145.9520   72.7370  219.0600 N   0  0  0  0  0  0  0  0  0  0  0  0
  144.8720   73.3700  218.5730 C   0  0  0  0  0  0  0  0  0  0  0  0
  140.2040   71.0960  223.4250 C   0  0  0  0  0  0  0  0  0  0  0  0
  139.5600   69.8840  223.5570 C   0  0  0  0  0  0  0  0  0  0  0  0
  139.3570   69.3220  224.8170 C   0  0  0  0  0  0  0  0  0  0  0  0
  139.8090   69.9900  225.9570 C   0  0  0  0  0  0  0  0  0  0  0  0
  139.6310   69.4730  227.2240 C   0  0  0  0  0  0  0  0  0  0  0  0
  140.0900   70.1580  228.3430 C   0  0  0  0  0  0  0  0  0  0  0  0
  140.7370   71.3800  228.1640 C   0  0  0  0  0  0  0  0  0  0  0  0
  140.9000   71.8710  226.8850 C   0  0  0  0  0  0  0  0  0  0  0  0
  140.4510   71.2050  225.7630 C   0  0  0  0  0  0  0  0  0  0  0  0
  140.6350   71.7270  224.5330 N   0  0  0  0  0  0  0  0  0  0  0  0
  140.5820   73.6570  222.8720 H   0  0  0  0  0  0  0  0  0  0  0  0
  141.4877   73.1059  220.0925 H   0  0  0  0  0  0  0  0  0  0  0  0
  139.8383   73.8452  220.2070 H   0  0  0  0  0  0  0  0  0  0  0  0
  141.3269   77.4903  219.1564 H   0  0  0  0  0  0  0  0  0  0  0  0
  142.6262   77.6389  220.3485 H   0  0  0  0  0  0  0  0  0  0  0  0
  144.2690   77.4282  218.7459 H   0  0  0  0  0  0  0  0  0  0  0  0
  143.6380   78.6510  217.0990 H   0  0  0  0  0  0  0  0  0  0  0  0
  142.5380   75.7624  216.8768 H   0  0  0  0  0  0  0  0  0  0  0  0
  144.2339   75.5180  217.2548 H   0  0  0  0  0  0  0  0  0  0  0  0
  142.1805   74.0738  218.4553 H   0  0  0  0  0  0  0  0  0  0  0  0
  143.8172   74.8893  221.3764 H   0  0  0  0  0  0  0  0  0  0  0  0
  145.8043   73.7166  222.2409 H   0  0  0  0  0  0  0  0  0  0  0  0
  147.2045   72.3095  220.7387 H   0  0  0  0  0  0  0  0  0  0  0  0
  144.6303   73.2491  217.5067 H   0  0  0  0  0  0  0  0  0  0  0  0
  139.2032   69.3557  222.6605 H   0  0  0  0  0  0  0  0  0  0  0  0
  138.8420   68.3547  224.9127 H   0  0  0  0  0  0  0  0  0  0  0  0
  139.1197   68.5072  227.3499 H   0  0  0  0  0  0  0  0  0  0  0  0
  139.9454   69.7435  229.3516 H   0  0  0  0  0  0  0  0  0  0  0  0
  141.1122   71.9446  229.0303 H   0  0  0  0  0  0  0  0  0  0  0  0
  141.4106   72.8364  226.7538 H   0  0  0  0  0  0  0  0  0  0  0  0
  1  2  2  0
  2  3  1  0
  3  4  1  0
  4  5  1  0
  5  6  2  0
  5  7  1  0
  7  8  1  0
  8  9  1  0
  9 10  1  0
  9 11  1  0
 11 12  1  0
 12 13  1  0
 13 14  2  0
 14 15  1  0
 15 16  2  0
 16 17  1  0
 17 18  2  0
  2 19  1  0
 19 20  2  0
 20 21  1  0
 21 22  2  0
 22 23  1  0
 23 24  2  0
 24 25  1  0
 25 26  2  0
 26 27  1  0
 27 28  2  0
 12  7  1  0
 18 13  1  0
 28 19  1  0
 27 22  1  0
  3 29  1  0
  4 30  1  0
  4 31  1  0
  8 32  1  0
  8 33  1  0
  9 34  1  1
 10 35  1  0
 11 36  1  0
 11 37  1  0
 12 38  1  6
 14 39  1  0
 15 40  1  0
 16 41  1  0
 18 42  1  0
 20 43  1  0
 21 44  1  0
 23 45  1  0
 24 46  1  0
 25 47  1  0
 26 48  1  0
M  END
>  <smiles>  (17) 
O=C(NCC(=O)N1C[C@H](O)C[C@H]1c1cccnc1)c1ccc2ccccc2n1

>  <score_type>  (17) 
oracle

>  <origin>  (17) 
autodockgpu

>  <m_score__min__energy>  (17) 
-8.9199999999999999

>  <m_primary>  (17) 
energy

>  <rmsd>  (17) 
2.528765691389611

>  <m_score__min__rmsd>  (17) 
2.528765691389611

>  <meeko>  (17) 
{"free_energy": -8.73, "intermolecular_energy": -10.52, "internal_energy": -1.86, "cluster_size": 29, "cluster_id": 1, "rank_in_cluster": 9}

>  <energy>  (17) 
-8.62

>  <cluster_rmsd>  (17) 
0.69

>  <cluster>  (17) 
1

$$$$

     RDKit          3D

 48 51  0  0  0  0  0  0  0  0999 V2000
  140.8260   71.2380  221.2390 O   0  0  0  0  0  0  0  0  0  0  0  0
  140.4530   71.9170  222.2280 C   0  0  0  0  0  0  0  0  0  0  0  0
  140.2370   73.3080  222.1190 N   0  0  0  0  0  0  0  0  0  0  0  0
  140.4350   74.0200  220.8690 C   0  0  0  0  0  0  0  0  0  0  0  0
  141.0530   75.3530  221.0950 C   0  0  0  0  0  0  0  0  0  0  0  0
  140.8900   75.9000  222.2200 O   0  0  0  0  0  0  0  0  0  0  0  0
  141.7950   75.9480  220.0400 N   0  0  0  0  0  0  0  0  0  0  0  0
  142.0100   77.3830  219.8170 C   0  0  0  0  0  0  0  0  0  0  0  0
  142.9970   77.4770  218.6940 C   0  0  2  0  0  0  0  0  0  0  0  0
  142.6370   78.4940  217.7800 O   0  0  0  0  0  0  0  0  0  0  0  0
  142.9080   76.1780  217.9590 C   0  0  0  0  0  0  0  0  0  0  0  0
  142.4610   75.2080  219.0120 C   0  0  1  0  0  0  0  0  0  0  0  0
  143.6220   74.4190  219.4940 C   0  0  0  0  0  0  0  0  0  0  0  0
  143.9110   73.1450  218.9940 C   0  0  0  0  0  0  0  0  0  0  0  0
  144.9970   72.4250  219.4550 C   0  0  0  0  0  0  0  0  0  0  0  0
  145.8320   72.9380  220.4250 C   0  0  0  0  0  0  0  0  0  0  0  0
  145.5480   74.1660  220.9040 N   0  0  0  0  0  0  0  0  0  0  0  0
  144.4960   74.8790  220.4660 C   0  0  0  0  0  0  0  0  0  0  0  0
  140.2320   71.2650  223.5310 C   0  0  0  0  0  0  0  0  0  0  0  0
  139.5670   70.0590  223.5990 C   0  0  0  0  0  0  0  0  0  0  0  0
  139.3530   69.4350  224.8280 C   0  0  0  0  0  0  0  0  0  0  0  0
  139.8170   70.0340  226.0020 C   0  0  0  0  0  0  0  0  0  0  0  0
  139.6300   69.4540  227.2400 C   0  0  0  0  0  0  0  0  0  0  0  0
  140.1010   70.0710  228.3930 C   0  0  0  0  0  0  0  0  0  0  0  0
  140.7690   71.2900  228.2780 C   0  0  0  0  0  0  0  0  0  0  0  0
  140.9400   71.8450  227.0260 C   0  0  0  0  0  0  0  0  0  0  0  0
  140.4790   71.2460  225.8710 C   0  0  0  0  0  0  0  0  0  0  0  0
  140.6730   71.8290  224.6700 N   0  0  0  0  0  0  0  0  0  0  0  0
  139.9230   73.8360  222.9850 H   0  0  0  0  0  0  0  0  0  0  0  0
  141.0942   73.4256  220.2193 H   0  0  0  0  0  0  0  0  0  0  0  0
  139.4527   74.1698  220.3970 H   0  0  0  0  0  0  0  0  0  0  0  0
  141.0654   77.8734  219.5391 H   0  0  0  0  0  0  0  0  0  0  0  0
  142.3795   77.8833  220.7243 H   0  0  0  0  0  0  0  0  0  0  0  0
  143.9983   77.6955  219.0936 H   0  0  0  0  0  0  0  0  0  0  0  0
  143.4320   78.8810  217.3400 H   0  0  0  0  0  0  0  0  0  0  0  0
  142.1732   76.2380  217.1427 H   0  0  0  0  0  0  0  0  0  0  0  0
  143.8578   75.8882  217.4859 H   0  0  0  0  0  0  0  0  0  0  0  0
  141.7457   74.4725  218.6153 H   0  0  0  0  0  0  0  0  0  0  0  0
  143.2625   72.7084  218.2202 H   0  0  0  0  0  0  0  0  0  0  0  0
  145.1986   71.4260  219.0411 H   0  0  0  0  0  0  0  0  0  0  0  0
  146.6969   72.3672  220.7940 H   0  0  0  0  0  0  0  0  0  0  0  0
  144.3206   75.8746  220.8996 H   0  0  0  0  0  0  0  0  0  0  0  0
  139.2021   69.5848  222.6760 H   0  0  0  0  0  0  0  0  0  0  0  0
  138.8202   68.4737  224.8729 H   0  0  0  0  0  0  0  0  0  0  0  0
  139.1019   68.4920  227.3153 H   0  0  0  0  0  0  0  0  0  0  0  0
  139.9496   69.6063  229.3785 H   0  0  0  0  0  0  0  0  0  0  0  0
  141.1540   71.8017  229.1724 H   0  0  0  0  0  0  0  0  0  0  0  0
  141.4669   72.8072  226.9450 H   0  0  0  0  0  0  0  0  0  0  0  0
  1  2  2  0
  2  3  1  0
  3  4  1  0
  4  5  1  0
  5  6  2  0
  5  7  1  0
  7  8  1  0
  8  9  1  0
  9 10  1  0
  9 11  1  0
 11 12  1  0
 12 13  1  0
 13 14  2  0
 14 15  1  0
 15 16  2  0
 16 17  1  0
 17 18  2  0
  2 19  1  0
 19 20  2  0
 20 21  1  0
 21 22  2  0
 22 23  1  0
 23 24  2  0
 24 25  1  0
 25 26  2  0
 26 27  1  0
 27 28  2  0
 12  7  1  0
 18 13  1  0
 28 19  1  0
 27 22  1  0
  3 29  1  0
  4 30  1  0
  4 31  1  0
  8 32  1  0
  8 33  1  0
  9 34  1  1
 10 35  1  0
 11 36  1  0
 11 37  1  0
 12 38  1  6
 14 39  1  0
 15 40  1  0
 16 41  1  0
 18 42  1  0
 20 43  1  0
 21 44  1  0
 23 45  1  0
 24 46  1  0
 25 47  1  0
 26 48  1  0
M  END
>  <smiles>  (18) 
O=C(NCC(=O)N1C[C@H](O)C[C@H]1c1cccnc1)c1ccc2ccccc2n1

>  <score_type>  (18) 
oracle

>  <origin>  (18) 
autodockgpu

>  <m_score__min__energy>  (18) 
-8.9199999999999999

>  <m_primary>  (18) 
energy

>  <rmsd>  (18) 
2.3939067892502006

>  <m_score__min__rmsd>  (18) 
2.3939067892502006

>  <meeko>  (18) 
{"free_energy": -8.29, "intermolecular_energy": -10.07, "internal_energy": -1.73, "cluster_size": 29, "cluster_id": 1, "rank_in_cluster": 26}

>  <energy>  (18) 
-8.61

>  <cluster_rmsd>  (18) 
0.51

>  <cluster>  (18) 
1

$$$$

     RDKit          3D

 48 51  0  0  0  0  0  0  0  0999 V2000
  140.8710   71.1010  221.2890 O   0  0  0  0  0  0  0  0  0  0  0  0
  140.4850   71.7850  222.2690 C   0  0  0  0  0  0  0  0  0  0  0  0
  140.2760   73.1760  222.1530 N   0  0  0  0  0  0  0  0  0  0  0  0
  140.4950   73.8830  220.9040 C   0  0  0  0  0  0  0  0  0  0  0  0
  141.1890   75.1790  221.1280 C   0  0  0  0  0  0  0  0  0  0  0  0
  141.1270   75.6950  222.2770 O   0  0  0  0  0  0  0  0  0  0  0  0
  141.8870   75.7750  220.0430 N   0  0  0  0  0  0  0  0  0  0  0  0
  142.0650   77.2110  219.7970 C   0  0  0  0  0  0  0  0  0  0  0  0
  143.0160   77.3110  218.6430 C   0  0  2  0  0  0  0  0  0  0  0  0
  142.6070   78.3090  217.7280 O   0  0  0  0  0  0  0  0  0  0  0  0
  142.9310   76.0020  217.9260 C   0  0  0  0  0  0  0  0  0  0  0  0
  142.5360   75.0350  219.0040 C   0  0  1  0  0  0  0  0  0  0  0  0
  143.7280   74.2760  219.4600 C   0  0  0  0  0  0  0  0  0  0  0  0
  144.0540   74.1550  220.8150 C   0  0  0  0  0  0  0  0  0  0  0  0
  145.1670   73.4440  221.2210 C   0  0  0  0  0  0  0  0  0  0  0  0
  145.9950   72.8320  220.3040 C   0  0  0  0  0  0  0  0  0  0  0  0
  145.6760   72.9540  218.9990 N   0  0  0  0  0  0  0  0  0  0  0  0
  144.5970   73.6410  218.5880 C   0  0  0  0  0  0  0  0  0  0  0  0
  140.2410   71.1380  223.5710 C   0  0  0  0  0  0  0  0  0  0  0  0
  139.5790   69.9290  223.6320 C   0  0  0  0  0  0  0  0  0  0  0  0
  139.3440   69.3110  224.8590 C   0  0  0  0  0  0  0  0  0  0  0  0
  139.7820   69.9170  226.0390 C   0  0  0  0  0  0  0  0  0  0  0  0
  139.5730   69.3420  227.2760 C   0  0  0  0  0  0  0  0  0  0  0  0
  140.0190   69.9660  228.4350 C   0  0  0  0  0  0  0  0  0  0  0  0
  140.6850   71.1860  228.3280 C   0  0  0  0  0  0  0  0  0  0  0  0
  140.8790   71.7360  227.0770 C   0  0  0  0  0  0  0  0  0  0  0  0
  140.4430   71.1310  225.9150 C   0  0  0  0  0  0  0  0  0  0  0  0
  140.6570   71.7090  224.7160 N   0  0  0  0  0  0  0  0  0  0  0  0
  139.9490   73.7080  223.0120 H   0  0  0  0  0  0  0  0  0  0  0  0
  141.1111   73.2570  220.2418 H   0  0  0  0  0  0  0  0  0  0  0  0
  139.5159   74.0893  220.4470 H   0  0  0  0  0  0  0  0  0  0  0  0
  141.1025   77.6785  219.5421 H   0  0  0  0  0  0  0  0  0  0  0  0
  142.4509   77.7301  220.6867 H   0  0  0  0  0  0  0  0  0  0  0  0
  144.0242   77.5544  219.0096 H   0  0  0  0  0  0  0  0  0  0  0  0
  141.6760   78.5920  217.8950 H   0  0  0  0  0  0  0  0  0  0  0  0
  142.1704   76.0376  217.1321 H   0  0  0  0  0  0  0  0  0  0  0  0
  143.8716   75.7257  217.4272 H   0  0  0  0  0  0  0  0  0  0  0  0
  141.8246   74.2799  218.6382 H   0  0  0  0  0  0  0  0  0  0  0  0
  143.4134   74.6340  221.5701 H   0  0  0  0  0  0  0  0  0  0  0  0
  145.3964   73.3649  222.2939 H   0  0  0  0  0  0  0  0  0  0  0  0
  146.8820   72.2658  220.6244 H   0  0  0  0  0  0  0  0  0  0  0  0
  144.3942   73.7021  217.5086 H   0  0  0  0  0  0  0  0  0  0  0  0
  139.2338   69.4488  222.7045 H   0  0  0  0  0  0  0  0  0  0  0  0
  138.8145   68.3476  224.8981 H   0  0  0  0  0  0  0  0  0  0  0  0
  139.0472   68.3783  227.3455 H   0  0  0  0  0  0  0  0  0  0  0  0
  139.8495   69.5053  229.4194 H   0  0  0  0  0  0  0  0  0  0  0  0
  141.0506   71.7029  229.2275 H   0  0  0  0  0  0  0  0  0  0  0  0
  141.4045   72.6995  227.0024 H   0  0  0  0  0  0  0  0  0  0  0  0
  1  2  2  0
  2  3  1  0
  3  4  1  0
  4  5  1  0
  5  6  2  0
  5  7  1  0
  7  8  1  0
  8  9  1  0
  9 10  1  0
  9 11  1  0
 11 12  1  0
 12 13  1  0
 13 14  2  0
 14 15  1  0
 15 16  2  0
 16 17  1  0
 17 18  2  0
  2 19  1  0
 19 20  2  0
 20 21  1  0
 21 22  2  0
 22 23  1  0
 23 24  2  0
 24 25  1  0
 25 26  2  0
 26 27  1  0
 27 28  2  0
 12  7  1  0
 18 13  1  0
 28 19  1  0
 27 22  1  0
  3 29  1  0
  4 30  1  0
  4 31  1  0
  8 32  1  0
  8 33  1  0
  9 34  1  1
 10 35  1  0
 11 36  1  0
 11 37  1  0
 12 38  1  6
 14 39  1  0
 15 40  1  0
 16 41  1  0
 18 42  1  0
 20 43  1  0
 21 44  1  0
 23 45  1  0
 24 46  1  0
 25 47  1  0
 26 48  1  0
M  END
>  <smiles>  (19) 
O=C(NCC(=O)N1C[C@H](O)C[C@H]1c1cccnc1)c1ccc2ccccc2n1

>  <score_type>  (19) 
oracle

>  <origin>  (19) 
autodockgpu

>  <m_score__min__energy>  (19) 
-8.9199999999999999

>  <m_primary>  (19) 
energy

>  <rmsd>  (19) 
2.39601818092449

>  <m_score__min__rmsd>  (19) 
2.39601818092449

>  <meeko>  (19) 
{"free_energy": -8.2, "intermolecular_energy": -9.99, "internal_energy": -1.68, "cluster_size": 29, "cluster_id": 1, "rank_in_cluster": 27}

>  <energy>  (19) 
-8.61

>  <cluster_rmsd>  (19) 
0.63

>  <cluster>  (19) 
1

$$$$

     RDKit          3D

 48 51  0  0  0  0  0  0  0  0999 V2000
  139.5980   74.4920  222.3380 O   0  0  0  0  0  0  0  0  0  0  0  0
  140.1480   75.4070  221.6750 C   0  0  0  0  0  0  0  0  0  0  0  0
  140.7610   75.1420  220.4330 N   0  0  0  0  0  0  0  0  0  0  0  0
  140.7890   73.8080  219.8600 C   0  0  0  0  0  0  0  0  0  0  0  0
  141.7450   72.9260  220.5810 C   0  0  0  0  0  0  0  0  0  0  0  0
  141.2880   72.1610  221.4740 O   0  0  0  0  0  0  0  0  0  0  0  0
  143.1210   72.9850  220.2340 N   0  0  0  0  0  0  0  0  0  0  0  0
  143.9390   71.8890  219.7000 C   0  0  0  0  0  0  0  0  0  0  0  0
  145.2550   72.5050  219.3340 C   0  0  2  0  0  0  0  0  0  0  0  0
  146.3340   71.6760  219.7200 O   0  0  0  0  0  0  0  0  0  0  0  0
  145.3600   73.7590  220.1410 C   0  0  0  0  0  0  0  0  0  0  0  0
  143.9300   74.1580  220.3590 C   0  0  1  0  0  0  0  0  0  0  0  0
  143.5630   75.2460  219.4190 C   0  0  0  0  0  0  0  0  0  0  0  0
  143.5290   75.0480  218.0340 C   0  0  0  0  0  0  0  0  0  0  0  0
  143.1840   76.0730  217.1740 C   0  0  0  0  0  0  0  0  0  0  0  0
  142.8630   77.3250  217.6500 C   0  0  0  0  0  0  0  0  0  0  0  0
  142.8990   77.5110  218.9860 N   0  0  0  0  0  0  0  0  0  0  0  0
  143.2310   76.5250  219.8360 C   0  0  0  0  0  0  0  0  0  0  0  0
  140.1600   76.7880  222.1920 C   0  0  0  0  0  0  0  0  0  0  0  0
  138.9790   77.4130  222.5300 C   0  0  0  0  0  0  0  0  0  0  0  0
  138.9820   78.7190  223.0190 C   0  0  0  0  0  0  0  0  0  0  0  0
  140.1920   79.4020  223.1710 C   0  0  0  0  0  0  0  0  0  0  0  0
  140.2440   80.6940  223.6520 C   0  0  0  0  0  0  0  0  0  0  0  0
  141.4610   81.3510  223.7940 C   0  0  0  0  0  0  0  0  0  0  0  0
  142.6320   80.6810  223.4410 C   0  0  0  0  0  0  0  0  0  0  0  0
  142.5470   79.3890  222.9630 C   0  0  0  0  0  0  0  0  0  0  0  0
  141.3480   78.7210  222.8160 C   0  0  0  0  0  0  0  0  0  0  0  0
  141.3170   77.4580  222.3440 N   0  0  0  0  0  0  0  0  0  0  0  0
  141.2130   75.9500  219.9130 H   0  0  0  0  0  0  0  0  0  0  0  0
  139.7817   73.3706  219.9229 H   0  0  0  0  0  0  0  0  0  0  0  0
  141.1157   73.8886  218.8127 H   0  0  0  0  0  0  0  0  0  0  0  0
  144.0797   71.1089  220.4627 H   0  0  0  0  0  0  0  0  0  0  0  0
  143.4600   71.4106  218.8330 H   0  0  0  0  0  0  0  0  0  0  0  0
  145.3014   72.6679  218.2471 H   0  0  0  0  0  0  0  0  0  0  0  0
  146.3370   71.5190  220.6950 H   0  0  0  0  0  0  0  0  0  0  0  0
  145.8652   73.5683  221.0994 H   0  0  0  0  0  0  0  0  0  0  0  0
  145.9509   74.5409  219.6416 H   0  0  0  0  0  0  0  0  0  0  0  0
  143.7670   74.5683  221.3665 H   0  0  0  0  0  0  0  0  0  0  0  0
  143.7813   74.0594  217.6230 H   0  0  0  0  0  0  0  0  0  0  0  0
  143.1654   75.8858  216.0902 H   0  0  0  0  0  0  0  0  0  0  0  0
  142.5878   78.1422  216.9670 H   0  0  0  0  0  0  0  0  0  0  0  0
  143.2397   76.7434  220.9141 H   0  0  0  0  0  0  0  0  0  0  0  0
  138.0256   76.8769  222.4130 H   0  0  0  0  0  0  0  0  0  0  0  0
  138.0344   79.2105  223.2845 H   0  0  0  0  0  0  0  0  0  0  0  0
  139.3121   81.2101  223.9262 H   0  0  0  0  0  0  0  0  0  0  0  0
  141.4995   82.3811  224.1780 H   0  0  0  0  0  0  0  0  0  0  0  0
  143.6095   81.1752  223.5421 H   0  0  0  0  0  0  0  0  0  0  0  0
  143.4759   78.8685  222.6869 H   0  0  0  0  0  0  0  0  0  0  0  0
  1  2  2  0
  2  3  1  0
  3  4  1  0
  4  5  1  0
  5  6  2  0
  5  7  1  0
  7  8  1  0
  8  9  1  0
  9 10  1  0
  9 11  1  0
 11 12  1  0
 12 13  1  0
 13 14  2  0
 14 15  1  0
 15 16  2  0
 16 17  1  0
 17 18  2  0
  2 19  1  0
 19 20  2  0
 20 21  1  0
 21 22  2  0
 22 23  1  0
 23 24  2  0
 24 25  1  0
 25 26  2  0
 26 27  1  0
 27 28  2  0
 12  7  1  0
 18 13  1  0
 28 19  1  0
 27 22  1  0
  3 29  1  0
  4 30  1  0
  4 31  1  0
  8 32  1  0
  8 33  1  0
  9 34  1  6
 10 35  1  0
 11 36  1  0
 11 37  1  0
 12 38  1  1
 14 39  1  0
 15 40  1  0
 16 41  1  0
 18 42  1  0
 20 43  1  0
 21 44  1  0
 23 45  1  0
 24 46  1  0
 25 47  1  0
 26 48  1  0
M  END
>  <smiles>  (20) 
O=C(NCC(=O)N1C[C@H](O)C[C@H]1c1cccnc1)c1ccc2ccccc2n1

>  <score_type>  (20) 
oracle

>  <origin>  (20) 
autodockgpu

>  <m_score__min__energy>  (20) 
-8.9199999999999999

>  <m_primary>  (20) 
energy

>  <rmsd>  (20) 
7.571043426523927

>  <m_score__min__rmsd>  (20) 
7.571043426523927

>  <meeko>  (20) 
{"free_energy": -7.84, "intermolecular_energy": -9.63, "internal_energy": -1.91, "cluster_size": 15, "cluster_id": 4, "rank_in_cluster": 4}

>  <energy>  (20) 
-8.6

>  <cluster_rmsd>  (20) 
0.4

>  <cluster>  (20) 
1

$$$$

     RDKit          3D

 48 51  0  0  0  0  0  0  0  0999 V2000
  141.1780   71.7820  221.4290 O   0  0  0  0  0  0  0  0  0  0  0  0
  140.5400   72.2770  222.3910 C   0  0  0  0  0  0  0  0  0  0  0  0
  140.0600   73.6020  222.3460 N   0  0  0  0  0  0  0  0  0  0  0  0
  140.2770   74.4580  221.1930 C   0  0  0  0  0  0  0  0  0  0  0  0
  140.0360   75.8880  221.5240 C   0  0  0  0  0  0  0  0  0  0  0  0
  139.5440   76.1610  222.6540 O   0  0  0  0  0  0  0  0  0  0  0  0
  140.3680   76.8760  220.5600 N   0  0  0  0  0  0  0  0  0  0  0  0
  139.5520   77.2940  219.4130 C   0  0  0  0  0  0  0  0  0  0  0  0
  140.2570   78.4760  218.8210 C   0  0  2  0  0  0  0  0  0  0  0  0
  140.2660   78.4120  217.4080 O   0  0  0  0  0  0  0  0  0  0  0  0
  141.6790   78.3750  219.2710 C   0  0  0  0  0  0  0  0  0  0  0  0
  141.5840   77.6310  220.5710 C   0  0  1  0  0  0  0  0  0  0  0  0
  141.6910   78.5830  221.7040 C   0  0  0  0  0  0  0  0  0  0  0  0
  141.4350   78.1950  223.0240 C   0  0  0  0  0  0  0  0  0  0  0  0
  141.5400   79.0970  224.0660 C   0  0  0  0  0  0  0  0  0  0  0  0
  141.8990   80.4080  223.8410 C   0  0  0  0  0  0  0  0  0  0  0  0
  142.1440   80.7760  222.5670 N   0  0  0  0  0  0  0  0  0  0  0  0
  142.0470   79.9130  221.5420 C   0  0  0  0  0  0  0  0  0  0  0  0
  140.2800   71.4690  223.5970 C   0  0  0  0  0  0  0  0  0  0  0  0
  139.6080   70.2690  223.4960 C   0  0  0  0  0  0  0  0  0  0  0  0
  139.3570   69.4990  224.6320 C   0  0  0  0  0  0  0  0  0  0  0  0
  139.7910   69.9440  225.8830 C   0  0  0  0  0  0  0  0  0  0  0  0
  139.5670   69.2160  227.0340 C   0  0  0  0  0  0  0  0  0  0  0  0
  140.0090   69.6810  228.2670 C   0  0  0  0  0  0  0  0  0  0  0  0
  140.6860   70.9000  228.3230 C   0  0  0  0  0  0  0  0  0  0  0  0
  140.8940   71.6040  227.1550 C   0  0  0  0  0  0  0  0  0  0  0  0
  140.4630   71.1580  225.9220 C   0  0  0  0  0  0  0  0  0  0  0  0
  140.6920   71.8840  224.8090 N   0  0  0  0  0  0  0  0  0  0  0  0
  139.5260   73.9730  223.1860 H   0  0  0  0  0  0  0  0  0  0  0  0
  141.3157   74.3403  220.8506 H   0  0  0  0  0  0  0  0  0  0  0  0
  139.5694   74.1618  220.4046 H   0  0  0  0  0  0  0  0  0  0  0  0
  139.4821   76.4807  218.6757 H   0  0  0  0  0  0  0  0  0  0  0  0
  138.5248   77.5448  219.7163 H   0  0  0  0  0  0  0  0  0  0  0  0
  139.7557   79.4042  219.1327 H   0  0  0  0  0  0  0  0  0  0  0  0
  140.5000   79.2840  217.0100 H   0  0  0  0  0  0  0  0  0  0  0  0
  142.2833   77.8160  218.5415 H   0  0  0  0  0  0  0  0  0  0  0  0
  142.1662   79.3559  219.3737 H   0  0  0  0  0  0  0  0  0  0  0  0
  142.4148   76.9215  220.6992 H   0  0  0  0  0  0  0  0  0  0  0  0
  141.1455   77.1551  223.2357 H   0  0  0  0  0  0  0  0  0  0  0  0
  141.3332   78.7622  225.0932 H   0  0  0  0  0  0  0  0  0  0  0  0
  141.9826   81.1272  224.6691 H   0  0  0  0  0  0  0  0  0  0  0  0
  142.2600   80.2788  220.5267 H   0  0  0  0  0  0  0  0  0  0  0  0
  139.2671   69.9160  222.5116 H   0  0  0  0  0  0  0  0  0  0  0  0
  138.8187   68.5439  224.5428 H   0  0  0  0  0  0  0  0  0  0  0  0
  139.0324   68.2565  226.9748 H   0  0  0  0  0  0  0  0  0  0  0  0
  139.8284   69.0985  229.1824 H   0  0  0  0  0  0  0  0  0  0  0  0
  141.0484   71.2936  229.2841 H   0  0  0  0  0  0  0  0  0  0  0  0
  141.4276   72.5644  227.2088 H   0  0  0  0  0  0  0  0  0  0  0  0
  1  2  2  0
  2  3  1  0
  3  4  1  0
  4  5  1  0
  5  6  2  0
  5  7  1  0
  7  8  1  0
  8  9  1  0
  9 10  1  0
  9 11  1  0
 11 12  1  0
 12 13  1  0
 13 14  2  0
 14 15  1  0
 15 16  2  0
 16 17  1  0
 17 18  2  0
  2 19  1  0
 19 20  2  0
 20 21  1  0
 21 22  2  0
 22 23  1  0
 23 24  2  0
 24 25  1  0
 25 26  2  0
 26 27  1  0
 27 28  2  0
 12  7  1  0
 18 13  1  0
 28 19  1  0
 27 22  1  0
  3 29  1  0
  4 30  1  0
  4 31  1  0
  8 32  1  0
  8 33  1  0
  9 34  1  6
 10 35  1  0
 11 36  1  0
 11 37  1  0
 12 38  1  1
 14 39  1  0
 15 40  1  0
 16 41  1  0
 18 42  1  0
 20 43  1  0
 21 44  1  0
 23 45  1  0
 24 46  1  0
 25 47  1  0
 26 48  1  0
M  END
>  <smiles>  (21) 
O=C(NCC(=O)N1C[C@H](O)C[C@H]1c1cccnc1)c1ccc2ccccc2n1

>  <score_type>  (21) 
oracle

>  <origin>  (21) 
autodockgpu

>  <m_score__min__energy>  (21) 
-8.9199999999999999

>  <m_primary>  (21) 
energy

>  <rmsd>  (21) 
1.8471350673316194

>  <m_score__min__rmsd>  (21) 
1.8471350673316194

>  <meeko>  (21) 
{"free_energy": -8.14, "intermolecular_energy": -9.93, "internal_energy": -1.54, "cluster_size": 3, "cluster_id": 2, "rank_in_cluster": 2}

>  <energy>  (21) 
-8.57

>  <cluster_rmsd>  (21) 
0.73

>  <cluster>  (21) 
1

$$$$

     RDKit          3D

 48 51  0  0  0  0  0  0  0  0999 V2000
  139.0120   75.5150  221.4410 O   0  0  0  0  0  0  0  0  0  0  0  0
  140.1570   75.9750  221.6800 C   0  0  0  0  0  0  0  0  0  0  0  0
  141.3190   75.2270  221.3970 N   0  0  0  0  0  0  0  0  0  0  0  0
  141.2530   73.8960  220.8210 C   0  0  0  0  0  0  0  0  0  0  0  0
  141.1130   73.9500  219.3410 C   0  0  0  0  0  0  0  0  0  0  0  0
  140.2160   73.2450  218.8030 O   0  0  0  0  0  0  0  0  0  0  0  0
  141.9910   74.7890  218.6040 N   0  0  0  0  0  0  0  0  0  0  0  0
  141.8600   76.2380  218.4040 C   0  0  0  0  0  0  0  0  0  0  0  0
  143.1210   76.6690  217.7190 C   0  0  2  0  0  0  0  0  0  0  0  0
  142.8510   77.5970  216.6870 O   0  0  0  0  0  0  0  0  0  0  0  0
  143.6760   75.4430  217.0690 C   0  0  0  0  0  0  0  0  0  0  0  0
  143.1660   74.3260  217.9310 C   0  0  1  0  0  0  0  0  0  0  0  0
  144.2410   73.8650  218.8450 C   0  0  0  0  0  0  0  0  0  0  0  0
  144.4430   74.4460  220.1020 C   0  0  0  0  0  0  0  0  0  0  0  0
  145.4500   74.0040  220.9390 C   0  0  0  0  0  0  0  0  0  0  0  0
  146.2890   72.9770  220.5650 C   0  0  0  0  0  0  0  0  0  0  0  0
  146.0900   72.4220  219.3510 N   0  0  0  0  0  0  0  0  0  0  0  0
  145.1160   72.8400  218.5250 C   0  0  0  0  0  0  0  0  0  0  0  0
  140.3040   77.3200  222.2660 C   0  0  0  0  0  0  0  0  0  0  0  0
  139.1880   78.0580  222.5990 C   0  0  0  0  0  0  0  0  0  0  0  0
  139.3190   79.3310  223.1530 C   0  0  0  0  0  0  0  0  0  0  0  0
  140.5910   79.8660  223.3740 C   0  0  0  0  0  0  0  0  0  0  0  0
  140.7690   81.1210  223.9200 C   0  0  0  0  0  0  0  0  0  0  0  0
  142.0460   81.6300  224.1290 C   0  0  0  0  0  0  0  0  0  0  0  0
  143.1470   80.8500  223.7780 C   0  0  0  0  0  0  0  0  0  0  0  0
  142.9360   79.5990  223.2340 C   0  0  0  0  0  0  0  0  0  0  0  0
  141.6760   79.0770  223.0190 C   0  0  0  0  0  0  0  0  0  0  0  0
  141.5220   77.8490  222.4840 N   0  0  0  0  0  0  0  0  0  0  0  0
  142.2620   75.6610  221.6180 H   0  0  0  0  0  0  0  0  0  0  0  0
  142.1745   73.3510  221.0734 H   0  0  0  0  0  0  0  0  0  0  0  0
  140.3708   73.3844  221.2332 H   0  0  0  0  0  0  0  0  0  0  0  0
  140.9861   76.4607  217.7741 H   0  0  0  0  0  0  0  0  0  0  0  0
  141.7146   76.7676  219.3571 H   0  0  0  0  0  0  0  0  0  0  0  0
  143.8016   77.1339  218.4474 H   0  0  0  0  0  0  0  0  0  0  0  0
  143.5220   78.3210  216.6690 H   0  0  0  0  0  0  0  0  0  0  0  0
  143.3064   75.3436  216.0377 H   0  0  0  0  0  0  0  0  0  0  0  0
  144.7733   75.4583  216.9936 H   0  0  0  0  0  0  0  0  0  0  0  0
  142.8833   73.4449  217.3361 H   0  0  0  0  0  0  0  0  0  0  0  0
  143.7895   75.2681  220.4293 H   0  0  0  0  0  0  0  0  0  0  0  0
  145.5841   74.4806  221.9213 H   0  0  0  0  0  0  0  0  0  0  0  0
  147.0903   72.6230  221.2304 H   0  0  0  0  0  0  0  0  0  0  0  0
  145.0085   72.3448  217.5486 H   0  0  0  0  0  0  0  0  0  0  0  0
  138.1857   77.6390  222.4262 H   0  0  0  0  0  0  0  0  0  0  0  0
  138.4231   79.9128  223.4155 H   0  0  0  0  0  0  0  0  0  0  0  0
  139.8912   81.7251  224.1928 H   0  0  0  0  0  0  0  0  0  0  0  0
  142.1852   82.6308  224.5638 H   0  0  0  0  0  0  0  0  0  0  0  0
  144.1691   81.2261  223.9324 H   0  0  0  0  0  0  0  0  0  0  0  0
  143.8106   78.9909  222.9596 H   0  0  0  0  0  0  0  0  0  0  0  0
  1  2  2  0
  2  3  1  0
  3  4  1  0
  4  5  1  0
  5  6  2  0
  5  7  1  0
  7  8  1  0
  8  9  1  0
  9 10  1  0
  9 11  1  0
 11 12  1  0
 12 13  1  0
 13 14  2  0
 14 15  1  0
 15 16  2  0
 16 17  1  0
 17 18  2  0
  2 19  1  0
 19 20  2  0
 20 21  1  0
 21 22  2  0
 22 23  1  0
 23 24  2  0
 24 25  1  0
 25 26  2  0
 26 27  1  0
 27 28  2  0
 12  7  1  0
 18 13  1  0
 28 19  1  0
 27 22  1  0
  3 29  1  0
  4 30  1  0
  4 31  1  0
  8 32  1  0
  8 33  1  0
  9 34  1  1
 10 35  1  0
 11 36  1  0
 11 37  1  0
 12 38  1  6
 14 39  1  0
 15 40  1  0
 16 41  1  0
 18 42  1  0
 20 43  1  0
 21 44  1  0
 23 45  1  0
 24 46  1  0
 25 47  1  0
 26 48  1  0
M  END
>  <smiles>  (22) 
O=C(NCC(=O)N1C[C@H](O)C[C@H]1c1cccnc1)c1ccc2ccccc2n1

>  <score_type>  (22) 
oracle

>  <origin>  (22) 
autodockgpu

>  <m_score__min__energy>  (22) 
-8.9199999999999999

>  <m_primary>  (22) 
energy

>  <rmsd>  (22) 
7.465226838861467

>  <m_score__min__rmsd>  (22) 
7.465226838861467

>  <meeko>  (22) 
{"free_energy": -7.62, "intermolecular_energy": -9.41, "internal_energy": -1.78, "cluster_size": 1, "cluster_id": 5, "rank_in_cluster": 1}

>  <energy>  (22) 
-8.56

>  <cluster_rmsd>  (22) 
0.72

>  <cluster>  (22) 
1

$$$$

     RDKit          3D

 48 51  0  0  0  0  0  0  0  0999 V2000
  138.7570   75.1600  221.8570 O   0  0  0  0  0  0  0  0  0  0  0  0
  139.9050   75.6230  222.0690 C   0  0  0  0  0  0  0  0  0  0  0  0
  141.0530   74.8100  221.9570 N   0  0  0  0  0  0  0  0  0  0  0  0
  140.9670   73.4070  221.5930 C   0  0  0  0  0  0  0  0  0  0  0  0
  141.5500   73.1570  220.2480 C   0  0  0  0  0  0  0  0  0  0  0  0
  140.7670   72.8450  219.3100 O   0  0  0  0  0  0  0  0  0  0  0  0
  142.9560   73.2810  220.0810 N   0  0  0  0  0  0  0  0  0  0  0  0
  143.8810   72.2360  219.6240 C   0  0  0  0  0  0  0  0  0  0  0  0
  145.2050   72.9140  219.4460 C   0  0  2  0  0  0  0  0  0  0  0  0
  146.2600   72.1150  219.9420 O   0  0  0  0  0  0  0  0  0  0  0  0
  145.1540   74.1440  220.2950 C   0  0  0  0  0  0  0  0  0  0  0  0
  143.6920   74.4800  220.3410 C   0  0  1  0  0  0  0  0  0  0  0  0
  143.4000   75.5830  219.3920 C   0  0  0  0  0  0  0  0  0  0  0  0
  142.8340   76.7910  219.8130 C   0  0  0  0  0  0  0  0  0  0  0  0
  142.5680   77.8070  218.9140 C   0  0  0  0  0  0  0  0  0  0  0  0
  142.8520   77.6640  217.5730 C   0  0  0  0  0  0  0  0  0  0  0  0
  143.3960   76.4970  217.1730 N   0  0  0  0  0  0  0  0  0  0  0  0
  143.6600   75.5000  218.0330 C   0  0  0  0  0  0  0  0  0  0  0  0
  140.0730   77.0390  222.4430 C   0  0  0  0  0  0  0  0  0  0  0  0
  138.9680   77.8450  222.6220 C   0  0  0  0  0  0  0  0  0  0  0  0
  139.1180   79.1860  222.9750 C   0  0  0  0  0  0  0  0  0  0  0  0
  140.3970   79.7200  223.1520 C   0  0  0  0  0  0  0  0  0  0  0  0
  140.5950   81.0400  223.5020 C   0  0  0  0  0  0  0  0  0  0  0  0
  141.8780   81.5460  223.6700 C   0  0  0  0  0  0  0  0  0  0  0  0
  142.9670   80.6960  223.4800 C   0  0  0  0  0  0  0  0  0  0  0  0
  142.7370   79.3810  223.1310 C   0  0  0  0  0  0  0  0  0  0  0  0
  141.4700   78.8610  222.9590 C   0  0  0  0  0  0  0  0  0  0  0  0
  141.2980   77.5680  222.6170 N   0  0  0  0  0  0  0  0  0  0  0  0
  142.0010   75.2500  222.1470 H   0  0  0  0  0  0  0  0  0  0  0  0
  141.5152   72.8103  222.3369 H   0  0  0  0  0  0  0  0  0  0  0  0
  139.9051   73.1211  221.5678 H   0  0  0  0  0  0  0  0  0  0  0  0
  143.9577   71.4366  220.3757 H   0  0  0  0  0  0  0  0  0  0  0  0
  143.5357   71.7693  218.6897 H   0  0  0  0  0  0  0  0  0  0  0  0
  145.3813   73.1150  218.3790 H   0  0  0  0  0  0  0  0  0  0  0  0
  146.0700   71.7930  220.8560 H   0  0  0  0  0  0  0  0  0  0  0  0
  145.5424   73.9413  221.3040 H   0  0  0  0  0  0  0  0  0  0  0  0
  145.7690   74.9644  219.8966 H   0  0  0  0  0  0  0  0  0  0  0  0
  143.3865   74.8503  221.3307 H   0  0  0  0  0  0  0  0  0  0  0  0
  142.5966   76.9349  220.8774 H   0  0  0  0  0  0  0  0  0  0  0  0
  142.1221   78.7455  219.2751 H   0  0  0  0  0  0  0  0  0  0  0  0
  142.6427   78.4716  216.8560 H   0  0  0  0  0  0  0  0  0  0  0  0
  144.1038   74.5733  217.6403 H   0  0  0  0  0  0  0  0  0  0  0  0
  137.9599   77.4266  222.4852 H   0  0  0  0  0  0  0  0  0  0  0  0
  138.2312   79.8219  223.1138 H   0  0  0  0  0  0  0  0  0  0  0  0
  139.7270   81.6993  223.6497 H   0  0  0  0  0  0  0  0  0  0  0  0
  142.0321   82.5990  223.9481 H   0  0  0  0  0  0  0  0  0  0  0  0
  143.9943   81.0683  223.6065 H   0  0  0  0  0  0  0  0  0  0  0  0
  143.6019   78.7175  222.9833 H   0  0  0  0  0  0  0  0  0  0  0  0
  1  2  2  0
  2  3  1  0
  3  4  1  0
  4  5  1  0
  5  6  2  0
  5  7  1  0
  7  8  1  0
  8  9  1  0
  9 10  1  0
  9 11  1  0
 11 12  1  0
 12 13  1  0
 13 14  2  0
 14 15  1  0
 15 16  2  0
 16 17  1  0
 17 18  2  0
  2 19  1  0
 19 20  2  0
 20 21  1  0
 21 22  2  0
 22 23  1  0
 23 24  2  0
 24 25  1  0
 25 26  2  0
 26 27  1  0
 27 28  2  0
 12  7  1  0
 18 13  1  0
 28 19  1  0
 27 22  1  0
  3 29  1  0
  4 30  1  0
  4 31  1  0
  8 32  1  0
  8 33  1  0
  9 34  1  6
 10 35  1  0
 11 36  1  0
 11 37  1  0
 12 38  1  1
 14 39  1  0
 15 40  1  0
 16 41  1  0
 18 42  1  0
 20 43  1  0
 21 44  1  0
 23 45  1  0
 24 46  1  0
 25 47  1  0
 26 48  1  0
M  END
>  <smiles>  (23) 
O=C(NCC(=O)N1C[C@H](O)C[C@H]1c1cccnc1)c1ccc2ccccc2n1

>  <score_type>  (23) 
oracle

>  <origin>  (23) 
autodockgpu

>  <m_score__min__energy>  (23) 
-8.9199999999999999

>  <m_primary>  (23) 
energy

>  <rmsd>  (23) 
7.652875581897088

>  <m_score__min__rmsd>  (23) 
7.652875581897088

>  <meeko>  (23) 
{"free_energy": -7.8, "intermolecular_energy": -9.59, "internal_energy": -2.11, "cluster_size": 15, "cluster_id": 4, "rank_in_cluster": 10}

>  <energy>  (23) 
-8.54

>  <cluster_rmsd>  (23) 
0.69

>  <cluster>  (23) 
1

$$$$

     RDKit          3D

 48 51  0  0  0  0  0  0  0  0999 V2000
  141.4720   71.7230  221.5260 O   0  0  0  0  0  0  0  0  0  0  0  0
  140.6190   72.1680  222.3340 C   0  0  0  0  0  0  0  0  0  0  0  0
  139.9180   73.3640  222.0700 N   0  0  0  0  0  0  0  0  0  0  0  0
  140.1450   74.1360  220.8620 C   0  0  0  0  0  0  0  0  0  0  0  0
  140.9620   75.3480  221.1360 C   0  0  0  0  0  0  0  0  0  0  0  0
  140.8770   75.8760  222.2790 O   0  0  0  0  0  0  0  0  0  0  0  0
  141.7980   75.8540  220.1050 N   0  0  0  0  0  0  0  0  0  0  0  0
  142.0630   77.2660  219.8020 C   0  0  0  0  0  0  0  0  0  0  0  0
  143.1360   77.2640  218.7570 C   0  0  2  0  0  0  0  0  0  0  0  0
  142.8720   78.2210  217.7500 O   0  0  0  0  0  0  0  0  0  0  0  0
  143.0750   75.9190  218.1080 C   0  0  0  0  0  0  0  0  0  0  0  0
  142.5250   75.0320  219.1850 C   0  0  1  0  0  0  0  0  0  0  0  0
  143.6260   74.2590  219.8110 C   0  0  0  0  0  0  0  0  0  0  0  0
  143.6590   72.8600  219.7800 C   0  0  0  0  0  0  0  0  0  0  0  0
  144.6930   72.1570  220.3690 C   0  0  0  0  0  0  0  0  0  0  0  0
  145.7260   72.8090  221.0060 C   0  0  0  0  0  0  0  0  0  0  0  0
  145.6890   74.1570  221.0330 N   0  0  0  0  0  0  0  0  0  0  0  0
  144.6910   74.8560  220.4660 C   0  0  0  0  0  0  0  0  0  0  0  0
  140.3340   71.4390  223.5830 C   0  0  0  0  0  0  0  0  0  0  0  0
  139.5630   70.2970  223.5590 C   0  0  0  0  0  0  0  0  0  0  0  0
  139.2890   69.6020  224.7370 C   0  0  0  0  0  0  0  0  0  0  0  0
  139.8000   70.0640  225.9520 C   0  0  0  0  0  0  0  0  0  0  0  0
  139.5560   69.4090  227.1420 C   0  0  0  0  0  0  0  0  0  0  0  0
  140.0750   69.8910  228.3380 C   0  0  0  0  0  0  0  0  0  0  0  0
  140.8500   71.0500  228.3170 C   0  0  0  0  0  0  0  0  0  0  0  0
  141.0770   71.6820  227.1110 C   0  0  0  0  0  0  0  0  0  0  0  0
  140.5690   71.2180  225.9140 C   0  0  0  0  0  0  0  0  0  0  0  0
  140.8190   71.8730  224.7620 N   0  0  0  0  0  0  0  0  0  0  0  0
  139.2080   73.6980  222.7860 H   0  0  0  0  0  0  0  0  0  0  0  0
  140.6726   73.5072  220.1297 H   0  0  0  0  0  0  0  0  0  0  0  0
  139.1693   74.4586  220.4698 H   0  0  0  0  0  0  0  0  0  0  0  0
  141.1545   77.7524  219.4174 H   0  0  0  0  0  0  0  0  0  0  0  0
  142.3725   77.8218  220.6994 H   0  0  0  0  0  0  0  0  0  0  0  0
  144.1078   77.4923  219.2189 H   0  0  0  0  0  0  0  0  0  0  0  0
  143.6960   78.6910  217.4750 H   0  0  0  0  0  0  0  0  0  0  0  0
  142.4079   75.9348  217.2335 H   0  0  0  0  0  0  0  0  0  0  0  0
  144.0523   75.5806  217.7334 H   0  0  0  0  0  0  0  0  0  0  0  0
  141.8267   74.2833  218.7828 H   0  0  0  0  0  0  0  0  0  0  0  0
  142.8485   72.3109  219.2785 H   0  0  0  0  0  0  0  0  0  0  0  0
  144.6911   71.0577  220.3285 H   0  0  0  0  0  0  0  0  0  0  0  0
  146.5500   72.2512  221.4749 H   0  0  0  0  0  0  0  0  0  0  0  0
  144.7211   75.9540  220.5247 H   0  0  0  0  0  0  0  0  0  0  0  0
  139.1604   69.9305  222.6032 H   0  0  0  0  0  0  0  0  0  0  0  0
  138.6717   68.6919  224.7091 H   0  0  0  0  0  0  0  0  0  0  0  0
  138.9438   68.4951  227.1440 H   0  0  0  0  0  0  0  0  0  0  0  0
  139.8777   69.3671  229.2849 H   0  0  0  0  0  0  0  0  0  0  0  0
  141.2742   71.4547  229.2477 H   0  0  0  0  0  0  0  0  0  0  0  0
  141.6896   72.5956  227.1033 H   0  0  0  0  0  0  0  0  0  0  0  0
  1  2  2  0
  2  3  1  0
  3  4  1  0
  4  5  1  0
  5  6  2  0
  5  7  1  0
  7  8  1  0
  8  9  1  0
  9 10  1  0
  9 11  1  0
 11 12  1  0
 12 13  1  0
 13 14  2  0
 14 15  1  0
 15 16  2  0
 16 17  1  0
 17 18  2  0
  2 19  1  0
 19 20  2  0
 20 21  1  0
 21 22  2  0
 22 23  1  0
 23 24  2  0
 24 25  1  0
 25 26  2  0
 26 27  1  0
 27 28  2  0
 12  7  1  0
 18 13  1  0
 28 19  1  0
 27 22  1  0
  3 29  1  0
  4 30  1  0
  4 31  1  0
  8 32  1  0
  8 33  1  0
  9 34  1  1
 10 35  1  0
 11 36  1  0
 11 37  1  0
 12 38  1  6
 14 39  1  0
 15 40  1  0
 16 41  1  0
 18 42  1  0
 20 43  1  0
 21 44  1  0
 23 45  1  0
 24 46  1  0
 25 47  1  0
 26 48  1  0
M  END
>  <smiles>  (24) 
O=C(NCC(=O)N1C[C@H](O)C[C@H]1c1cccnc1)c1ccc2ccccc2n1

>  <score_type>  (24) 
oracle

>  <origin>  (24) 
autodockgpu

>  <m_score__min__energy>  (24) 
-8.9199999999999999

>  <m_primary>  (24) 
energy

>  <rmsd>  (24) 
2.4203176687086967

>  <m_score__min__rmsd>  (24) 
2.4203176687086967

>  <meeko>  (24) 
{"free_energy": -8.62, "intermolecular_energy": -10.41, "internal_energy": -1.52, "cluster_size": 29, "cluster_id": 1, "rank_in_cluster": 17}

>  <energy>  (24) 
-8.54

>  <cluster_rmsd>  (24) 
0.72

>  <cluster>  (24) 
1

$$$$

     RDKit          3D

 48 51  0  0  0  0  0  0  0  0999 V2000
  140.7490   71.4220  221.2530 O   0  0  0  0  0  0  0  0  0  0  0  0
  140.3260   72.0290  222.2680 C   0  0  0  0  0  0  0  0  0  0  0  0
  139.9730   73.3940  222.2090 N   0  0  0  0  0  0  0  0  0  0  0  0
  140.0820   74.1630  220.9820 C   0  0  0  0  0  0  0  0  0  0  0  0
  140.7630   75.4640  221.2140 C   0  0  0  0  0  0  0  0  0  0  0  0
  140.5500   76.0600  222.3060 O   0  0  0  0  0  0  0  0  0  0  0  0
  141.6180   75.9760  220.2010 N   0  0  0  0  0  0  0  0  0  0  0  0
  141.8970   77.3900  219.9200 C   0  0  0  0  0  0  0  0  0  0  0  0
  142.9860   77.3920  218.8910 C   0  0  2  0  0  0  0  0  0  0  0  0
  142.7440   78.3630  217.8910 O   0  0  0  0  0  0  0  0  0  0  0  0
  142.9250   76.0550  218.2250 C   0  0  0  0  0  0  0  0  0  0  0  0
  142.3520   75.1600  219.2840 C   0  0  1  0  0  0  0  0  0  0  0  0
  143.4390   74.3710  219.9170 C   0  0  0  0  0  0  0  0  0  0  0  0
  143.3430   72.9870  220.0910 C   0  0  0  0  0  0  0  0  0  0  0  0
  144.3650   72.2690  220.6830 C   0  0  0  0  0  0  0  0  0  0  0  0
  145.5130   72.8940  221.1220 C   0  0  0  0  0  0  0  0  0  0  0  0
  145.5990   74.2290  220.9520 N   0  0  0  0  0  0  0  0  0  0  0  0
  144.6150   74.9410  220.3780 C   0  0  0  0  0  0  0  0  0  0  0  0
  140.1880   71.3160  223.5510 C   0  0  0  0  0  0  0  0  0  0  0  0
  139.5720   70.0830  223.5960 C   0  0  0  0  0  0  0  0  0  0  0  0
  139.4380   69.4020  224.8060 C   0  0  0  0  0  0  0  0  0  0  0  0
  139.9320   69.9700  225.9830 C   0  0  0  0  0  0  0  0  0  0  0  0
  139.8230   69.3330  227.2020 C   0  0  0  0  0  0  0  0  0  0  0  0
  140.3220   69.9200  228.3580 C   0  0  0  0  0  0  0  0  0  0  0  0
  140.9380   71.1680  228.2660 C   0  0  0  0  0  0  0  0  0  0  0  0
  141.0320   71.7800  227.0330 C   0  0  0  0  0  0  0  0  0  0  0  0
  140.5420   71.2110  225.8750 C   0  0  0  0  0  0  0  0  0  0  0  0
  140.6590   71.8500  224.6930 N   0  0  0  0  0  0  0  0  0  0  0  0
  139.6210   73.8610  223.0960 H   0  0  0  0  0  0  0  0  0  0  0  0
  140.6594   73.5833  220.2467 H   0  0  0  0  0  0  0  0  0  0  0  0
  139.0669   74.3659  220.6101 H   0  0  0  0  0  0  0  0  0  0  0  0
  140.9979   77.8877  219.5278 H   0  0  0  0  0  0  0  0  0  0  0  0
  142.1962   77.9330  220.8286 H   0  0  0  0  0  0  0  0  0  0  0  0
  143.9524   77.6075  219.3703 H   0  0  0  0  0  0  0  0  0  0  0  0
  143.5860   78.6830  217.4880 H   0  0  0  0  0  0  0  0  0  0  0  0
  142.2713   76.0860  217.3409 H   0  0  0  0  0  0  0  0  0  0  0  0
  143.9052   75.7135  217.8608 H   0  0  0  0  0  0  0  0  0  0  0  0
  141.6538   74.4212  218.8637 H   0  0  0  0  0  0  0  0  0  0  0  0
  142.4389   72.4607  219.7510 H   0  0  0  0  0  0  0  0  0  0  0  0
  144.2608   71.1809  220.8060 H   0  0  0  0  0  0  0  0  0  0  0  0
  146.3280   72.3250  221.5932 H   0  0  0  0  0  0  0  0  0  0  0  0
  144.7490   76.0273  220.2688 H   0  0  0  0  0  0  0  0  0  0  0  0
  139.1833   69.6330  222.6706 H   0  0  0  0  0  0  0  0  0  0  0  0
  138.9442   68.4194  224.8334 H   0  0  0  0  0  0  0  0  0  0  0  0
  139.3352   68.3487  227.2592 H   0  0  0  0  0  0  0  0  0  0  0  0
  140.2329   69.4097  229.3284 H   0  0  0  0  0  0  0  0  0  0  0  0
  141.3432   71.6575  229.1639 H   0  0  0  0  0  0  0  0  0  0  0  0
  141.5187   72.7644  226.9702 H   0  0  0  0  0  0  0  0  0  0  0  0
  1  2  2  0
  2  3  1  0
  3  4  1  0
  4  5  1  0
  5  6  2  0
  5  7  1  0
  7  8  1  0
  8  9  1  0
  9 10  1  0
  9 11  1  0
 11 12  1  0
 12 13  1  0
 13 14  2  0
 14 15  1  0
 15 16  2  0
 16 17  1  0
 17 18  2  0
  2 19  1  0
 19 20  2  0
 20 21  1  0
 21 22  2  0
 22 23  1  0
 23 24  2  0
 24 25  1  0
 25 26  2  0
 26 27  1  0
 27 28  2  0
 12  7  1  0
 18 13  1  0
 28 19  1  0
 27 22  1  0
  3 29  1  0
  4 30  1  0
  4 31  1  0
  8 32  1  0
  8 33  1  0
  9 34  1  1
 10 35  1  0
 11 36  1  0
 11 37  1  0
 12 38  1  6
 14 39  1  0
 15 40  1  0
 16 41  1  0
 18 42  1  0
 20 43  1  0
 21 44  1  0
 23 45  1  0
 24 46  1  0
 25 47  1  0
 26 48  1  0
M  END
>  <smiles>  (25) 
O=C(NCC(=O)N1C[C@H](O)C[C@H]1c1cccnc1)c1ccc2ccccc2n1

>  <score_type>  (25) 
oracle

>  <origin>  (25) 
autodockgpu

>  <m_score__min__energy>  (25) 
-8.9199999999999999

>  <m_primary>  (25) 
energy

>  <rmsd>  (25) 
2.3261562107448523

>  <m_score__min__rmsd>  (25) 
2.3261562107448523

>  <meeko>  (25) 
{"free_energy": -8.54, "intermolecular_energy": -10.33, "internal_energy": -1.75, "cluster_size": 29, "cluster_id": 1, "rank_in_cluster": 24}

>  <energy>  (25) 
-8.44

>  <cluster_rmsd>  (25) 
0.73

>  <cluster>  (25) 
1

$$$$

     RDKit          3D

 48 51  0  0  0  0  0  0  0  0999 V2000
  138.7710   75.2040  222.0500 O   0  0  0  0  0  0  0  0  0  0  0  0
  139.9290   75.6840  222.1370 C   0  0  0  0  0  0  0  0  0  0  0  0
  141.0700   74.8840  221.9150 N   0  0  0  0  0  0  0  0  0  0  0  0
  140.9660   73.4750  221.5780 C   0  0  0  0  0  0  0  0  0  0  0  0
  141.6090   73.1810  220.2700 C   0  0  0  0  0  0  0  0  0  0  0  0
  140.8750   72.7890  219.3220 O   0  0  0  0  0  0  0  0  0  0  0  0
  143.0140   73.3520  220.1470 N   0  0  0  0  0  0  0  0  0  0  0  0
  143.9870   72.3440  219.7070 C   0  0  0  0  0  0  0  0  0  0  0  0
  145.2920   73.0680  219.5770 C   0  0  2  0  0  0  0  0  0  0  0  0
  146.3590   72.2980  220.0960 O   0  0  0  0  0  0  0  0  0  0  0  0
  145.1750   74.2850  220.4380 C   0  0  0  0  0  0  0  0  0  0  0  0
  143.7020   74.5720  220.4430 C   0  0  1  0  0  0  0  0  0  0  0  0
  143.4020   75.6770  219.4990 C   0  0  0  0  0  0  0  0  0  0  0  0
  142.7880   76.8620  219.9170 C   0  0  0  0  0  0  0  0  0  0  0  0
  142.5160   77.8800  219.0230 C   0  0  0  0  0  0  0  0  0  0  0  0
  142.8400   77.7620  217.6880 C   0  0  0  0  0  0  0  0  0  0  0  0
  143.4310   76.6160  217.2910 N   0  0  0  0  0  0  0  0  0  0  0  0
  143.7020   75.6170  218.1470 C   0  0  0  0  0  0  0  0  0  0  0  0
  140.1150   77.1060  222.4760 C   0  0  0  0  0  0  0  0  0  0  0  0
  139.0210   77.9300  222.6350 C   0  0  0  0  0  0  0  0  0  0  0  0
  139.1880   79.2780  222.9550 C   0  0  0  0  0  0  0  0  0  0  0  0
  140.4740   79.7990  223.1190 C   0  0  0  0  0  0  0  0  0  0  0  0
  140.6890   81.1250  223.4360 C   0  0  0  0  0  0  0  0  0  0  0  0
  141.9780   81.6180  223.5930 C   0  0  0  0  0  0  0  0  0  0  0  0
  143.0560   80.7500  223.4240 C   0  0  0  0  0  0  0  0  0  0  0  0
  142.8090   79.4300  223.1070 C   0  0  0  0  0  0  0  0  0  0  0  0
  141.5360   78.9220  222.9470 C   0  0  0  0  0  0  0  0  0  0  0  0
  141.3470   77.6230  222.6370 N   0  0  0  0  0  0  0  0  0  0  0  0
  142.0260   75.3380  222.0020 H   0  0  0  0  0  0  0  0  0  0  0  0
  141.4609   72.8822  222.3613 H   0  0  0  0  0  0  0  0  0  0  0  0
  139.8998   73.2141  221.5060 H   0  0  0  0  0  0  0  0  0  0  0  0
  144.0680   71.5386  220.4519 H   0  0  0  0  0  0  0  0  0  0  0  0
  143.6860   71.8772  218.7575 H   0  0  0  0  0  0  0  0  0  0  0  0
  145.4926   73.2879  218.5180 H   0  0  0  0  0  0  0  0  0  0  0  0
  146.1100   71.8660  220.9480 H   0  0  0  0  0  0  0  0  0  0  0  0
  145.5394   74.0827  221.4560 H   0  0  0  0  0  0  0  0  0  0  0  0
  145.7743   75.1300  220.0682 H   0  0  0  0  0  0  0  0  0  0  0  0
  143.3545   74.9195  221.4271 H   0  0  0  0  0  0  0  0  0  0  0  0
  142.5169   76.9858  220.9759 H   0  0  0  0  0  0  0  0  0  0  0  0
  142.0327   78.8004  219.3826 H   0  0  0  0  0  0  0  0  0  0  0  0
  142.6249   78.5709  216.9743 H   0  0  0  0  0  0  0  0  0  0  0  0
  144.1846   74.7087  217.7569 H   0  0  0  0  0  0  0  0  0  0  0  0
  138.0076   77.5212  222.5085 H   0  0  0  0  0  0  0  0  0  0  0  0
  138.3096   79.9286  223.0778 H   0  0  0  0  0  0  0  0  0  0  0  0
  139.8296   81.7992  223.5658 H   0  0  0  0  0  0  0  0  0  0  0  0
  142.1455   82.6752  223.8464 H   0  0  0  0  0  0  0  0  0  0  0  0
  144.0880   81.1121  223.5416 H   0  0  0  0  0  0  0  0  0  0  0  0
  143.6654   78.7522  222.9759 H   0  0  0  0  0  0  0  0  0  0  0  0
  1  2  2  0
  2  3  1  0
  3  4  1  0
  4  5  1  0
  5  6  2  0
  5  7  1  0
  7  8  1  0
  8  9  1  0
  9 10  1  0
  9 11  1  0
 11 12  1  0
 12 13  1  0
 13 14  2  0
 14 15  1  0
 15 16  2  0
 16 17  1  0
 17 18  2  0
  2 19  1  0
 19 20  2  0
 20 21  1  0
 21 22  2  0
 22 23  1  0
 23 24  2  0
 24 25  1  0
 25 26  2  0
 26 27  1  0
 27 28  2  0
 12  7  1  0
 18 13  1  0
 28 19  1  0
 27 22  1  0
  3 29  1  0
  4 30  1  0
  4 31  1  0
  8 32  1  0
  8 33  1  0
  9 34  1  6
 10 35  1  0
 11 36  1  0
 11 37  1  0
 12 38  1  1
 14 39  1  0
 15 40  1  0
 16 41  1  0
 18 42  1  0
 20 43  1  0
 21 44  1  0
 23 45  1  0
 24 46  1  0
 25 47  1  0
 26 48  1  0
M  END
>  <smiles>  (26) 
O=C(NCC(=O)N1C[C@H](O)C[C@H]1c1cccnc1)c1ccc2ccccc2n1

>  <score_type>  (26) 
oracle

>  <origin>  (26) 
autodockgpu

>  <m_score__min__energy>  (26) 
-8.9199999999999999

>  <m_primary>  (26) 
energy

>  <rmsd>  (26) 
7.711407628160038

>  <m_score__min__rmsd>  (26) 
7.711407628160038

>  <meeko>  (26) 
{"free_energy": -7.81, "intermolecular_energy": -9.59, "internal_energy": -2.12, "cluster_size": 15, "cluster_id": 4, "rank_in_cluster": 8}

>  <energy>  (26) 
-8.29

>  <cluster_rmsd>  (26) 
0.61

>  <cluster>  (26) 
1

$$$$

     RDKit          3D

 48 51  0  0  0  0  0  0  0  0999 V2000
  138.7630   75.1710  221.8620 O   0  0  0  0  0  0  0  0  0  0  0  0
  139.9100   75.6580  222.0210 C   0  0  0  0  0  0  0  0  0  0  0  0
  141.0670   74.8580  221.9030 N   0  0  0  0  0  0  0  0  0  0  0  0
  140.9920   73.4420  221.5940 C   0  0  0  0  0  0  0  0  0  0  0  0
  141.6160   73.1380  220.2790 C   0  0  0  0  0  0  0  0  0  0  0  0
  140.8680   72.7320  219.3470 O   0  0  0  0  0  0  0  0  0  0  0  0
  143.0170   73.3180  220.1310 N   0  0  0  0  0  0  0  0  0  0  0  0
  143.9870   72.3160  219.6720 C   0  0  0  0  0  0  0  0  0  0  0  0
  145.2860   73.0470  219.5210 C   0  0  2  0  0  0  0  0  0  0  0  0
  146.3660   72.2820  220.0190 O   0  0  0  0  0  0  0  0  0  0  0  0
  145.1770   74.2620  220.3860 C   0  0  0  0  0  0  0  0  0  0  0  0
  143.7030   74.5410  220.4170 C   0  0  1  0  0  0  0  0  0  0  0  0
  143.3800   75.6450  219.4800 C   0  0  0  0  0  0  0  0  0  0  0  0
  142.7640   76.8250  219.9100 C   0  0  0  0  0  0  0  0  0  0  0  0
  142.4700   77.8430  219.0230 C   0  0  0  0  0  0  0  0  0  0  0  0
  142.7740   77.7300  217.6830 C   0  0  0  0  0  0  0  0  0  0  0  0
  143.3670   76.5890  217.2740 N   0  0  0  0  0  0  0  0  0  0  0  0
  143.6590   75.5910  218.1240 C   0  0  0  0  0  0  0  0  0  0  0  0
  140.0670   77.0900  222.3370 C   0  0  0  0  0  0  0  0  0  0  0  0
  138.9590   77.9070  222.4210 C   0  0  0  0  0  0  0  0  0  0  0  0
  139.0990   79.2620  222.7190 C   0  0  0  0  0  0  0  0  0  0  0  0
  140.3710   79.7990  222.9360 C   0  0  0  0  0  0  0  0  0  0  0  0
  140.5580   81.1330  223.2350 C   0  0  0  0  0  0  0  0  0  0  0  0
  141.8330   81.6420  223.4460 C   0  0  0  0  0  0  0  0  0  0  0  0
  142.9260   80.7800  223.3520 C   0  0  0  0  0  0  0  0  0  0  0  0
  142.7060   79.4510  223.0530 C   0  0  0  0  0  0  0  0  0  0  0  0
  141.4470   78.9280  222.8390 C   0  0  0  0  0  0  0  0  0  0  0  0
  141.2850   77.6210  222.5490 N   0  0  0  0  0  0  0  0  0  0  0  0
  142.0130   75.3190  222.0470 H   0  0  0  0  0  0  0  0  0  0  0  0
  141.5169   72.8766  222.3781 H   0  0  0  0  0  0  0  0  0  0  0  0
  139.9313   73.1543  221.5477 H   0  0  0  0  0  0  0  0  0  0  0  0
  144.0850   71.5095  220.4135 H   0  0  0  0  0  0  0  0  0  0  0  0
  143.6719   71.8497  218.7269 H   0  0  0  0  0  0  0  0  0  0  0  0
  145.4674   73.2698  218.4592 H   0  0  0  0  0  0  0  0  0  0  0  0
  146.1550   71.8950  220.9030 H   0  0  0  0  0  0  0  0  0  0  0  0
  145.5600   74.0600  221.3972 H   0  0  0  0  0  0  0  0  0  0  0  0
  145.7651   75.1109  220.0072 H   0  0  0  0  0  0  0  0  0  0  0  0
  143.3713   74.8856  221.4076 H   0  0  0  0  0  0  0  0  0  0  0  0
  142.5091   76.9447  220.9733 H   0  0  0  0  0  0  0  0  0  0  0  0
  141.9853   78.7588  219.3922 H   0  0  0  0  0  0  0  0  0  0  0  0
  142.5421   78.5389  216.9745 H   0  0  0  0  0  0  0  0  0  0  0  0
  144.1428   74.6875  217.7244 H   0  0  0  0  0  0  0  0  0  0  0  0
  137.9568   77.4863  222.2516 H   0  0  0  0  0  0  0  0  0  0  0  0
  138.2102   79.9069  222.7831 H   0  0  0  0  0  0  0  0  0  0  0  0
  139.6872   81.8012  223.3071 H   0  0  0  0  0  0  0  0  0  0  0  0
  141.9785   82.7062  223.6831 H   0  0  0  0  0  0  0  0  0  0  0  0
  143.9477   81.1542  223.5138 H   0  0  0  0  0  0  0  0  0  0  0  0
  143.5733   78.7781  222.9820 H   0  0  0  0  0  0  0  0  0  0  0  0
  1  2  2  0
  2  3  1  0
  3  4  1  0
  4  5  1  0
  5  6  2  0
  5  7  1  0
  7  8  1  0
  8  9  1  0
  9 10  1  0
  9 11  1  0
 11 12  1  0
 12 13  1  0
 13 14  2  0
 14 15  1  0
 15 16  2  0
 16 17  1  0
 17 18  2  0
  2 19  1  0
 19 20  2  0
 20 21  1  0
 21 22  2  0
 22 23  1  0
 23 24  2  0
 24 25  1  0
 25 26  2  0
 26 27  1  0
 27 28  2  0
 12  7  1  0
 18 13  1  0
 28 19  1  0
 27 22  1  0
  3 29  1  0
  4 30  1  0
  4 31  1  0
  8 32  1  0
  8 33  1  0
  9 34  1  6
 10 35  1  0
 11 36  1  0
 11 37  1  0
 12 38  1  1
 14 39  1  0
 15 40  1  0
 16 41  1  0
 18 42  1  0
 20 43  1  0
 21 44  1  0
 23 45  1  0
 24 46  1  0
 25 47  1  0
 26 48  1  0
M  END
>  <smiles>  (27) 
O=C(NCC(=O)N1C[C@H](O)C[C@H]1c1cccnc1)c1ccc2ccccc2n1

>  <score_type>  (27) 
oracle

>  <origin>  (27) 
autodockgpu

>  <m_score__min__energy>  (27) 
-8.9199999999999999

>  <m_primary>  (27) 
energy

>  <rmsd>  (27) 
7.723372128408556

>  <m_score__min__rmsd>  (27) 
7.723372128408556

>  <meeko>  (27) 
{"free_energy": -7.77, "intermolecular_energy": -9.56, "internal_energy": -2.14, "cluster_size": 15, "cluster_id": 4, "rank_in_cluster": 12}

>  <energy>  (27) 
-8.2

>  <cluster_rmsd>  (27) 
0.45

>  <cluster>  (27) 
1

$$$$

     RDKit          3D

 48 51  0  0  0  0  0  0  0  0999 V2000
  138.7580   75.1260  221.9270 O   0  0  0  0  0  0  0  0  0  0  0  0
  139.9080   75.6070  222.0860 C   0  0  0  0  0  0  0  0  0  0  0  0
  141.0610   74.8050  221.9470 N   0  0  0  0  0  0  0  0  0  0  0  0
  140.9790   73.3930  221.6180 C   0  0  0  0  0  0  0  0  0  0  0  0
  141.5980   73.1070  220.2970 C   0  0  0  0  0  0  0  0  0  0  0  0
  140.8460   72.7270  219.3580 O   0  0  0  0  0  0  0  0  0  0  0  0
  143.0020   73.2710  220.1510 N   0  0  0  0  0  0  0  0  0  0  0  0
  143.9590   72.2680  219.6690 C   0  0  0  0  0  0  0  0  0  0  0  0
  145.2670   72.9860  219.5320 C   0  0  2  0  0  0  0  0  0  0  0  0
  146.3370   72.1960  220.0120 O   0  0  0  0  0  0  0  0  0  0  0  0
  145.1740   74.1820  220.4240 C   0  0  0  0  0  0  0  0  0  0  0  0
  143.7040   74.4790  220.4630 C   0  0  1  0  0  0  0  0  0  0  0  0
  143.3940   75.6080  219.5510 C   0  0  0  0  0  0  0  0  0  0  0  0
  143.6860   75.5570  218.1840 C   0  0  0  0  0  0  0  0  0  0  0  0
  143.3910   76.6180  217.3500 C   0  0  0  0  0  0  0  0  0  0  0  0
  142.7990   77.7630  217.8360 C   0  0  0  0  0  0  0  0  0  0  0  0
  142.5200   77.8080  219.1550 N   0  0  0  0  0  0  0  0  0  0  0  0
  142.8010   76.7840  219.9800 C   0  0  0  0  0  0  0  0  0  0  0  0
  140.0720   77.0330  222.4220 C   0  0  0  0  0  0  0  0  0  0  0  0
  138.9660   77.8470  222.5480 C   0  0  0  0  0  0  0  0  0  0  0  0
  139.1130   79.1970  222.8660 C   0  0  0  0  0  0  0  0  0  0  0  0
  140.3890   79.7320  223.0600 C   0  0  0  0  0  0  0  0  0  0  0  0
  140.5830   81.0610  223.3760 C   0  0  0  0  0  0  0  0  0  0  0  0
  141.8630   81.5680  223.5630 C   0  0  0  0  0  0  0  0  0  0  0  0
  142.9530   80.7080  223.4270 C   0  0  0  0  0  0  0  0  0  0  0  0
  142.7270   79.3840  223.1100 C   0  0  0  0  0  0  0  0  0  0  0  0
  141.4630   78.8640  222.9210 C   0  0  0  0  0  0  0  0  0  0  0  0
  141.2940   77.5620  222.6120 N   0  0  0  0  0  0  0  0  0  0  0  0
  142.0100   75.2600  222.0920 H   0  0  0  0  0  0  0  0  0  0  0  0
  141.5040   72.8141  222.3921 H   0  0  0  0  0  0  0  0  0  0  0  0
  139.9172   73.1095  221.5714 H   0  0  0  0  0  0  0  0  0  0  0  0
  144.0479   71.4443  220.3926 H   0  0  0  0  0  0  0  0  0  0  0  0
  143.6371   71.8265  218.7143 H   0  0  0  0  0  0  0  0  0  0  0  0
  145.4505   73.2306  218.4753 H   0  0  0  0  0  0  0  0  0  0  0  0
  146.1410   71.8310  220.9090 H   0  0  0  0  0  0  0  0  0  0  0  0
  145.5552   73.9524  221.4300 H   0  0  0  0  0  0  0  0  0  0  0  0
  145.7725   75.0317  220.0637 H   0  0  0  0  0  0  0  0  0  0  0  0
  143.3777   74.8058  221.4613 H   0  0  0  0  0  0  0  0  0  0  0  0
  144.1589   74.6562  217.7657 H   0  0  0  0  0  0  0  0  0  0  0  0
  143.6330   76.5473  216.2793 H   0  0  0  0  0  0  0  0  0  0  0  0
  142.5627   78.6087  217.1735 H   0  0  0  0  0  0  0  0  0  0  0  0
  142.5480   76.8850  221.0457 H   0  0  0  0  0  0  0  0  0  0  0  0
  137.9601   77.4284  222.3966 H   0  0  0  0  0  0  0  0  0  0  0  0
  138.2256   79.8396  222.9639 H   0  0  0  0  0  0  0  0  0  0  0  0
  139.7139   81.7271  223.4811 H   0  0  0  0  0  0  0  0  0  0  0  0
  142.0142   82.6283  223.8137 H   0  0  0  0  0  0  0  0  0  0  0  0
  143.9782   81.0800  223.5704 H   0  0  0  0  0  0  0  0  0  0  0  0
  143.5927   78.7137  223.0033 H   0  0  0  0  0  0  0  0  0  0  0  0
  1  2  2  0
  2  3  1  0
  3  4  1  0
  4  5  1  0
  5  6  2  0
  5  7  1  0
  7  8  1  0
  8  9  1  0
  9 10  1  0
  9 11  1  0
 11 12  1  0
 12 13  1  0
 13 14  2  0
 14 15  1  0
 15 16  2  0
 16 17  1  0
 17 18  2  0
  2 19  1  0
 19 20  2  0
 20 21  1  0
 21 22  2  0
 22 23  1  0
 23 24  2  0
 24 25  1  0
 25 26  2  0
 26 27  1  0
 27 28  2  0
 12  7  1  0
 18 13  1  0
 28 19  1  0
 27 22  1  0
  3 29  1  0
  4 30  1  0
  4 31  1  0
  8 32  1  0
  8 33  1  0
  9 34  1  6
 10 35  1  0
 11 36  1  0
 11 37  1  0
 12 38  1  1
 14 39  1  0
 15 40  1  0
 16 41  1  0
 18 42  1  0
 20 43  1  0
 21 44  1  0
 23 45  1  0
 24 46  1  0
 25 47  1  0
 26 48  1  0
M  END
>  <smiles>  (28) 
O=C(NCC(=O)N1C[C@H](O)C[C@H]1c1cccnc1)c1ccc2ccccc2n1

>  <score_type>  (28) 
oracle

>  <origin>  (28) 
autodockgpu

>  <m_score__min__energy>  (28) 
-8.9199999999999999

>  <m_primary>  (28) 
energy

>  <rmsd>  (28) 
7.678320324681763

>  <m_score__min__rmsd>  (28) 
7.678320324681763

>  <meeko>  (28) 
{"free_energy": -7.77, "intermolecular_energy": -9.56, "internal_energy": -2.11, "cluster_size": 15, "cluster_id": 4, "rank_in_cluster": 11}

>  <energy>  (28) 
-8.18

>  <cluster_rmsd>  (28) 
0.89

>  <cluster>  (28) 
1

$$$$

     RDKit          3D

 48 51  0  0  0  0  0  0  0  0999 V2000
  140.4400   71.3950  221.1830 O   0  0  0  0  0  0  0  0  0  0  0  0
  140.1460   72.0260  222.2280 C   0  0  0  0  0  0  0  0  0  0  0  0
  139.9050   73.4160  222.1990 N   0  0  0  0  0  0  0  0  0  0  0  0
  139.9850   74.1830  220.9680 C   0  0  0  0  0  0  0  0  0  0  0  0
  140.6870   75.4770  221.1790 C   0  0  0  0  0  0  0  0  0  0  0  0
  140.4960   76.0850  222.2680 O   0  0  0  0  0  0  0  0  0  0  0  0
  141.5350   75.9680  220.1510 N   0  0  0  0  0  0  0  0  0  0  0  0
  141.8350   77.3750  219.8570 C   0  0  0  0  0  0  0  0  0  0  0  0
  142.9080   77.3520  218.8120 C   0  0  2  0  0  0  0  0  0  0  0  0
  142.6680   78.3210  217.8110 O   0  0  0  0  0  0  0  0  0  0  0  0
  142.8120   76.0130  218.1540 C   0  0  0  0  0  0  0  0  0  0  0  0
  142.2400   75.1340  219.2260 C   0  0  1  0  0  0  0  0  0  0  0  0
  143.3220   74.3290  219.8470 C   0  0  0  0  0  0  0  0  0  0  0  0
  144.5250   74.9040  220.2680 C   0  0  0  0  0  0  0  0  0  0  0  0
  145.5210   74.1380  220.8430 C   0  0  0  0  0  0  0  0  0  0  0  0
  145.3630   72.7810  221.0210 C   0  0  0  0  0  0  0  0  0  0  0  0
  144.2010   72.2310  220.6120 N   0  0  0  0  0  0  0  0  0  0  0  0
  143.2220   72.9620  220.0510 C   0  0  0  0  0  0  0  0  0  0  0  0
  140.0450   71.3160  223.5160 C   0  0  0  0  0  0  0  0  0  0  0  0
  139.5450   70.0320  223.5630 C   0  0  0  0  0  0  0  0  0  0  0  0
  139.4470   69.3530  224.7770 C   0  0  0  0  0  0  0  0  0  0  0  0
  139.8590   69.9760  225.9580 C   0  0  0  0  0  0  0  0  0  0  0  0
  139.7810   69.3440  227.1820 C   0  0  0  0  0  0  0  0  0  0  0  0
  140.1970   69.9870  228.3420 C   0  0  0  0  0  0  0  0  0  0  0  0
  140.6980   71.2850  228.2480 C   0  0  0  0  0  0  0  0  0  0  0  0
  140.7630   71.8910  227.0100 C   0  0  0  0  0  0  0  0  0  0  0  0
  140.3540   71.2680  225.8480 C   0  0  0  0  0  0  0  0  0  0  0  0
  140.4380   71.9030  224.6610 N   0  0  0  0  0  0  0  0  0  0  0  0
  139.6600   73.9030  223.1100 H   0  0  0  0  0  0  0  0  0  0  0  0
  140.5337   73.5967  220.2162 H   0  0  0  0  0  0  0  0  0  0  0  0
  138.9615   74.3964  220.6262 H   0  0  0  0  0  0  0  0  0  0  0  0
  140.9390   77.8863  219.4752 H   0  0  0  0  0  0  0  0  0  0  0  0
  142.1577   77.9177  220.7578 H   0  0  0  0  0  0  0  0  0  0  0  0
  143.8853   77.5524  219.2754 H   0  0  0  0  0  0  0  0  0  0  0  0
  143.5130   78.6790  217.4450 H   0  0  0  0  0  0  0  0  0  0  0  0
  142.1449   76.0516  217.2802 H   0  0  0  0  0  0  0  0  0  0  0  0
  143.7799   75.6519  217.7761 H   0  0  0  0  0  0  0  0  0  0  0  0
  141.5225   74.4059  218.8196 H   0  0  0  0  0  0  0  0  0  0  0  0
  144.6813   75.9852  220.1392 H   0  0  0  0  0  0  0  0  0  0  0  0
  146.4562   74.6200  221.1642 H   0  0  0  0  0  0  0  0  0  0  0  0
  146.1542   72.1693  221.4791 H   0  0  0  0  0  0  0  0  0  0  0  0
  142.2989   72.4513  219.7395 H   0  0  0  0  0  0  0  0  0  0  0  0
  139.2206   69.5389  222.6348 H   0  0  0  0  0  0  0  0  0  0  0  0
  139.0462   68.3290  224.8049 H   0  0  0  0  0  0  0  0  0  0  0  0
  139.3850   68.3194  227.2405 H   0  0  0  0  0  0  0  0  0  0  0  0
  140.1322   69.4811  229.3166 H   0  0  0  0  0  0  0  0  0  0  0  0
  141.0367   71.8185  229.1484 H   0  0  0  0  0  0  0  0  0  0  0  0
  141.1581   72.9156  226.9462 H   0  0  0  0  0  0  0  0  0  0  0  0
  1  2  2  0
  2  3  1  0
  3  4  1  0
  4  5  1  0
  5  6  2  0
  5  7  1  0
  7  8  1  0
  8  9  1  0
  9 10  1  0
  9 11  1  0
 11 12  1  0
 12 13  1  0
 13 14  2  0
 14 15  1  0
 15 16  2  0
 16 17  1  0
 17 18  2  0
  2 19  1  0
 19 20  2  0
 20 21  1  0
 21 22  2  0
 22 23  1  0
 23 24  2  0
 24 25  1  0
 25 26  2  0
 26 27  1  0
 27 28  2  0
 12  7  1  0
 18 13  1  0
 28 19  1  0
 27 22  1  0
  3 29  1  0
  4 30  1  0
  4 31  1  0
  8 32  1  0
  8 33  1  0
  9 34  1  1
 10 35  1  0
 11 36  1  0
 11 37  1  0
 12 38  1  6
 14 39  1  0
 15 40  1  0
 16 41  1  0
 18 42  1  0
 20 43  1  0
 21 44  1  0
 23 45  1  0
 24 46  1  0
 25 47  1  0
 26 48  1  0
M  END
>  <smiles>  (29) 
O=C(NCC(=O)N1C[C@H](O)C[C@H]1c1cccnc1)c1ccc2ccccc2n1

>  <score_type>  (29) 
oracle

>  <origin>  (29) 
autodockgpu

>  <m_score__min__energy>  (29) 
-8.9199999999999999

>  <m_primary>  (29) 
energy

>  <rmsd>  (29) 
2.273708419958369

>  <m_score__min__rmsd>  (29) 
2.273708419958369

>  <meeko>  (29) 
{"free_energy": -8.44, "intermolecular_energy": -10.23, "internal_energy": -1.8, "cluster_size": 29, "cluster_id": 1, "rank_in_cluster": 25}

>  <energy>  (29) 
-7.97

>  <cluster_rmsd>  (29) 
0.94

>  <cluster>  (29) 
1

$$$$

     RDKit          3D

 48 51  0  0  0  0  0  0  0  0999 V2000
  140.8380   71.4660  221.2840 O   0  0  0  0  0  0  0  0  0  0  0  0
  140.3760   72.0650  222.2870 C   0  0  0  0  0  0  0  0  0  0  0  0
  139.9920   73.4210  222.2160 N   0  0  0  0  0  0  0  0  0  0  0  0
  140.1110   74.1880  220.9900 C   0  0  0  0  0  0  0  0  0  0  0  0
  140.8480   75.4600  221.2140 C   0  0  0  0  0  0  0  0  0  0  0  0
  140.7210   76.0320  222.3310 O   0  0  0  0  0  0  0  0  0  0  0  0
  141.6580   75.9730  220.1650 N   0  0  0  0  0  0  0  0  0  0  0  0
  141.9480   77.3860  219.8900 C   0  0  0  0  0  0  0  0  0  0  0  0
  142.9820   77.3850  218.8050 C   0  0  2  0  0  0  0  0  0  0  0  0
  142.7050   78.3750  217.8340 O   0  0  0  0  0  0  0  0  0  0  0  0
  142.8610   76.0600  218.1230 C   0  0  0  0  0  0  0  0  0  0  0  0
  142.3280   75.1580  219.1980 C   0  0  1  0  0  0  0  0  0  0  0  0
  143.4310   74.3400  219.7610 C   0  0  0  0  0  0  0  0  0  0  0  0
  144.5300   74.9210  220.4030 C   0  0  0  0  0  0  0  0  0  0  0  0
  145.5490   74.1440  220.9200 C   0  0  0  0  0  0  0  0  0  0  0  0
  145.5160   72.7690  220.8220 C   0  0  0  0  0  0  0  0  0  0  0  0
  144.4550   72.2150  220.2010 N   0  0  0  0  0  0  0  0  0  0  0  0
  143.4570   72.9570  219.6920 C   0  0  0  0  0  0  0  0  0  0  0  0
  140.2250   71.3510  223.5690 C   0  0  0  0  0  0  0  0  0  0  0  0
  139.5980   70.1240  223.6100 C   0  0  0  0  0  0  0  0  0  0  0  0
  139.4510   69.4430  224.8190 C   0  0  0  0  0  0  0  0  0  0  0  0
  139.9440   70.0050  225.9980 C   0  0  0  0  0  0  0  0  0  0  0  0
  139.8230   69.3680  227.2160 C   0  0  0  0  0  0  0  0  0  0  0  0
  140.3220   69.9500  228.3760 C   0  0  0  0  0  0  0  0  0  0  0  0
  140.9510   71.1920  228.2880 C   0  0  0  0  0  0  0  0  0  0  0  0
  141.0570   71.8040  227.0560 C   0  0  0  0  0  0  0  0  0  0  0  0
  140.5670   71.2410  225.8940 C   0  0  0  0  0  0  0  0  0  0  0  0
  140.6950   71.8800  224.7140 N   0  0  0  0  0  0  0  0  0  0  0  0
  139.6080   73.8810  223.0930 H   0  0  0  0  0  0  0  0  0  0  0  0
  140.6520   73.5878  220.2436 H   0  0  0  0  0  0  0  0  0  0  0  0
  139.0988   74.4327  220.6356 H   0  0  0  0  0  0  0  0  0  0  0  0
  141.0389   77.9054  219.5527 H   0  0  0  0  0  0  0  0  0  0  0  0
  142.3043   77.9095  220.7894 H   0  0  0  0  0  0  0  0  0  0  0  0
  143.9760   77.5757  219.2357 H   0  0  0  0  0  0  0  0  0  0  0  0
  143.5370   78.7500  217.4560 H   0  0  0  0  0  0  0  0  0  0  0  0
  142.1621   76.1167  217.2755 H   0  0  0  0  0  0  0  0  0  0  0  0
  143.8140   75.7070  217.7020 H   0  0  0  0  0  0  0  0  0  0  0  0
  141.5955   74.4381  218.8040 H   0  0  0  0  0  0  0  0  0  0  0  0
  144.5838   76.0156  220.4979 H   0  0  0  0  0  0  0  0  0  0  0  0
  146.4007   74.6305  221.4180 H   0  0  0  0  0  0  0  0  0  0  0  0
  146.3245   72.1477  221.2347 H   0  0  0  0  0  0  0  0  0  0  0  0
  142.6209   72.4414  219.1970 H   0  0  0  0  0  0  0  0  0  0  0  0
  139.2104   69.6781  222.6821 H   0  0  0  0  0  0  0  0  0  0  0  0
  138.9476   68.4652  224.8431 H   0  0  0  0  0  0  0  0  0  0  0  0
  139.3259   68.3882  227.2699 H   0  0  0  0  0  0  0  0  0  0  0  0
  140.2226   69.4402  229.3457 H   0  0  0  0  0  0  0  0  0  0  0  0
  141.3568   71.6767  229.1882 H   0  0  0  0  0  0  0  0  0  0  0  0
  141.5538   72.7837  226.9967 H   0  0  0  0  0  0  0  0  0  0  0  0
  1  2  2  0
  2  3  1  0
  3  4  1  0
  4  5  1  0
  5  6  2  0
  5  7  1  0
  7  8  1  0
  8  9  1  0
  9 10  1  0
  9 11  1  0
 11 12  1  0
 12 13  1  0
 13 14  2  0
 14 15  1  0
 15 16  2  0
 16 17  1  0
 17 18  2  0
  2 19  1  0
 19 20  2  0
 20 21  1  0
 21 22  2  0
 22 23  1  0
 23 24  2  0
 24 25  1  0
 25 26  2  0
 26 27  1  0
 27 28  2  0
 12  7  1  0
 18 13  1  0
 28 19  1  0
 27 22  1  0
  3 29  1  0
  4 30  1  0
  4 31  1  0
  8 32  1  0
  8 33  1  0
  9 34  1  1
 10 35  1  0
 11 36  1  0
 11 37  1  0
 12 38  1  6
 14 39  1  0
 15 40  1  0
 16 41  1  0
 18 42  1  0
 20 43  1  0
 21 44  1  0
 23 45  1  0
 24 46  1  0
 25 47  1  0
 26 48  1  0
M  END
>  <smiles>  (30) 
O=C(NCC(=O)N1C[C@H](O)C[C@H]1c1cccnc1)c1ccc2ccccc2n1

>  <score_type>  (30) 
oracle

>  <origin>  (30) 
autodockgpu

>  <m_score__min__energy>  (30) 
-8.9199999999999999

>  <m_primary>  (30) 
energy

>  <rmsd>  (30) 
2.3407154123560563

>  <m_score__min__rmsd>  (30) 
2.3407154123560563

>  <meeko>  (30) 
{"free_energy": -8.61, "intermolecular_energy": -10.4, "internal_energy": -1.69, "cluster_size": 29, "cluster_id": 1, "rank_in_cluster": 19}

>  <energy>  (30) 
-8.14

>  <cluster_rmsd>  (30) 
0.0

>  <cluster>  (30) 
2

$$$$

     RDKit          3D

 48 51  0  0  0  0  0  0  0  0999 V2000
  141.0010   71.5690  221.3040 O   0  0  0  0  0  0  0  0  0  0  0  0
  140.4640   72.1360  222.2870 C   0  0  0  0  0  0  0  0  0  0  0  0
  140.0270   73.4760  222.2100 N   0  0  0  0  0  0  0  0  0  0  0  0
  140.1760   74.2620  220.9980 C   0  0  0  0  0  0  0  0  0  0  0  0
  141.0790   75.4240  221.2120 C   0  0  0  0  0  0  0  0  0  0  0  0
  141.0990   75.9590  222.3550 O   0  0  0  0  0  0  0  0  0  0  0  0
  141.8760   75.8770  220.1270 N   0  0  0  0  0  0  0  0  0  0  0  0
  142.1670   77.2720  219.7730 C   0  0  0  0  0  0  0  0  0  0  0  0
  143.1840   77.2100  218.6750 C   0  0  2  0  0  0  0  0  0  0  0  0
  142.8970   78.1490  217.6580 O   0  0  0  0  0  0  0  0  0  0  0  0
  143.0490   75.8520  218.0660 C   0  0  0  0  0  0  0  0  0  0  0  0
  142.5290   75.0100  219.1940 C   0  0  1  0  0  0  0  0  0  0  0  0
  143.6370   74.2180  219.7830 C   0  0  0  0  0  0  0  0  0  0  0  0
  144.7110   74.8250  220.4440 C   0  0  0  0  0  0  0  0  0  0  0  0
  145.7340   74.0710  220.9860 C   0  0  0  0  0  0  0  0  0  0  0  0
  145.7320   72.6960  220.8940 C   0  0  0  0  0  0  0  0  0  0  0  0
  144.6950   72.1170  220.2550 N   0  0  0  0  0  0  0  0  0  0  0  0
  143.6920   72.8350  219.7230 C   0  0  0  0  0  0  0  0  0  0  0  0
  140.2780   71.4020  223.5520 C   0  0  0  0  0  0  0  0  0  0  0  0
  139.6160   70.1920  223.5610 C   0  0  0  0  0  0  0  0  0  0  0  0
  139.4360   69.4910  224.7540 C   0  0  0  0  0  0  0  0  0  0  0  0
  139.9310   70.0160  225.9500 C   0  0  0  0  0  0  0  0  0  0  0  0
  139.7780   69.3580  227.1540 C   0  0  0  0  0  0  0  0  0  0  0  0
  140.2790   69.9020  228.3300 C   0  0  0  0  0  0  0  0  0  0  0  0
  140.9430   71.1280  228.2750 C   0  0  0  0  0  0  0  0  0  0  0  0
  141.0810   71.7610  227.0570 C   0  0  0  0  0  0  0  0  0  0  0  0
  140.5890   71.2360  225.8790 C   0  0  0  0  0  0  0  0  0  0  0  0
  140.7490   71.8940  224.7130 N   0  0  0  0  0  0  0  0  0  0  0  0
  139.5790   73.9090  223.0700 H   0  0  0  0  0  0  0  0  0  0  0  0
  140.5959   73.6235  220.2068 H   0  0  0  0  0  0  0  0  0  0  0  0
  139.1853   74.6424  220.7083 H   0  0  0  0  0  0  0  0  0  0  0  0
  141.2547   77.7766  219.4222 H   0  0  0  0  0  0  0  0  0  0  0  0
  142.5390   77.8404  220.6382 H   0  0  0  0  0  0  0  0  0  0  0  0
  144.1849   77.4191  219.0805 H   0  0  0  0  0  0  0  0  0  0  0  0
  143.7070   78.6450  217.3870 H   0  0  0  0  0  0  0  0  0  0  0  0
  142.3381   75.8668  217.2267 H   0  0  0  0  0  0  0  0  0  0  0  0
  143.9947   75.4737  217.6507 H   0  0  0  0  0  0  0  0  0  0  0  0
  141.7883   74.2738  218.8485 H   0  0  0  0  0  0  0  0  0  0  0  0
  144.7411   75.9209  220.5335 H   0  0  0  0  0  0  0  0  0  0  0  0
  146.5645   74.5770  221.4999 H   0  0  0  0  0  0  0  0  0  0  0  0
  146.5451   72.0937  221.3253 H   0  0  0  0  0  0  0  0  0  0  0  0
  142.8759   72.2996  219.2158 H   0  0  0  0  0  0  0  0  0  0  0  0
  139.2267   69.7762  222.6200 H   0  0  0  0  0  0  0  0  0  0  0  0
  138.9056   68.5273  224.7526 H   0  0  0  0  0  0  0  0  0  0  0  0
  139.2532   68.3917  227.1825 H   0  0  0  0  0  0  0  0  0  0  0  0
  140.1545   69.3755  229.2877 H   0  0  0  0  0  0  0  0  0  0  0  0
  141.3506   71.5832  229.1897 H   0  0  0  0  0  0  0  0  0  0  0  0
  141.6063   72.7268  227.0231 H   0  0  0  0  0  0  0  0  0  0  0  0
  1  2  2  0
  2  3  1  0
  3  4  1  0
  4  5  1  0
  5  6  2  0
  5  7  1  0
  7  8  1  0
  8  9  1  0
  9 10  1  0
  9 11  1  0
 11 12  1  0
 12 13  1  0
 13 14  2  0
 14 15  1  0
 15 16  2  0
 16 17  1  0
 17 18  2  0
  2 19  1  0
 19 20  2  0
 20 21  1  0
 21 22  2  0
 22 23  1  0
 23 24  2  0
 24 25  1  0
 25 26  2  0
 26 27  1  0
 27 28  2  0
 12  7  1  0
 18 13  1  0
 28 19  1  0
 27 22  1  0
  3 29  1  0
  4 30  1  0
  4 31  1  0
  8 32  1  0
  8 33  1  0
  9 34  1  1
 10 35  1  0
 11 36  1  0
 11 37  1  0
 12 38  1  6
 14 39  1  0
 15 40  1  0
 16 41  1  0
 18 42  1  0
 20 43  1  0
 21 44  1  0
 23 45  1  0
 24 46  1  0
 25 47  1  0
 26 48  1  0
M  END
>  <smiles>  (31) 
O=C(NCC(=O)N1C[C@H](O)C[C@H]1c1cccnc1)c1ccc2ccccc2n1

>  <score_type>  (31) 
oracle

>  <origin>  (31) 
autodockgpu

>  <m_score__min__energy>  (31) 
-8.9199999999999999

>  <m_primary>  (31) 
energy

>  <rmsd>  (31) 
2.419023779934032

>  <m_score__min__rmsd>  (31) 
2.419023779934032

>  <meeko>  (31) 
{"free_energy": -8.69, "intermolecular_energy": -10.48, "internal_energy": -1.62, "cluster_size": 29, "cluster_id": 1, "rank_in_cluster": 16}

>  <energy>  (31) 
-8.14

>  <cluster_rmsd>  (31) 
0.65

>  <cluster>  (31) 
2

$$$$

     RDKit          3D

 48 51  0  0  0  0  0  0  0  0999 V2000
  138.7450   75.1680  221.9520 O   0  0  0  0  0  0  0  0  0  0  0  0
  139.9000   75.6430  222.0930 C   0  0  0  0  0  0  0  0  0  0  0  0
  141.0470   74.8390  221.9230 N   0  0  0  0  0  0  0  0  0  0  0  0
  140.9530   73.4310  221.5800 C   0  0  0  0  0  0  0  0  0  0  0  0
  141.5890   73.1480  220.2660 C   0  0  0  0  0  0  0  0  0  0  0  0
  140.8500   72.7590  219.3200 O   0  0  0  0  0  0  0  0  0  0  0  0
  142.9920   73.3280  220.1350 N   0  0  0  0  0  0  0  0  0  0  0  0
  143.9670   72.3290  219.6790 C   0  0  0  0  0  0  0  0  0  0  0  0
  145.2680   73.0600  219.5480 C   0  0  2  0  0  0  0  0  0  0  0  0
  146.3410   72.2900  220.0520 O   0  0  0  0  0  0  0  0  0  0  0  0
  145.1500   74.2680  220.4210 C   0  0  0  0  0  0  0  0  0  0  0  0
  143.6760   74.5480  220.4390 C   0  0  1  0  0  0  0  0  0  0  0  0
  143.3650   75.6600  219.5070 C   0  0  0  0  0  0  0  0  0  0  0  0
  142.7190   76.8250  219.9340 C   0  0  0  0  0  0  0  0  0  0  0  0
  142.4360   77.8500  219.0520 C   0  0  0  0  0  0  0  0  0  0  0  0
  142.7810   77.7600  217.7200 C   0  0  0  0  0  0  0  0  0  0  0  0
  143.4020   76.6340  217.3140 N   0  0  0  0  0  0  0  0  0  0  0  0
  143.6840   75.6280  218.1590 C   0  0  0  0  0  0  0  0  0  0  0  0
  140.0760   77.0650  222.4420 C   0  0  0  0  0  0  0  0  0  0  0  0
  138.9760   77.8810  222.6010 C   0  0  0  0  0  0  0  0  0  0  0  0
  139.1340   79.2270  222.9310 C   0  0  0  0  0  0  0  0  0  0  0  0
  140.4160   79.7550  223.1030 C   0  0  0  0  0  0  0  0  0  0  0  0
  140.6210   81.0800  223.4300 C   0  0  0  0  0  0  0  0  0  0  0  0
  141.9070   81.5800  223.5950 C   0  0  0  0  0  0  0  0  0  0  0  0
  142.9910   80.7190  223.4250 C   0  0  0  0  0  0  0  0  0  0  0  0
  142.7530   79.4000  223.0990 C   0  0  0  0  0  0  0  0  0  0  0  0
  141.4830   78.8860  222.9310 C   0  0  0  0  0  0  0  0  0  0  0  0
  141.3040   77.5880  222.6110 N   0  0  0  0  0  0  0  0  0  0  0  0
  142.0000   75.2880  222.0540 H   0  0  0  0  0  0  0  0  0  0  0  0
  141.4587   72.8390  222.3571 H   0  0  0  0  0  0  0  0  0  0  0  0
  139.8886   73.1615  221.5141 H   0  0  0  0  0  0  0  0  0  0  0  0
  144.0563   71.5167  220.4154 H   0  0  0  0  0  0  0  0  0  0  0  0
  143.6621   71.8704  218.7268 H   0  0  0  0  0  0  0  0  0  0  0  0
  145.4618   73.2912  218.4902 H   0  0  0  0  0  0  0  0  0  0  0  0
  146.0960   71.8380  220.8950 H   0  0  0  0  0  0  0  0  0  0  0  0
  145.5222   74.0579  221.4346 H   0  0  0  0  0  0  0  0  0  0  0  0
  145.7423   75.1195  220.0547 H   0  0  0  0  0  0  0  0  0  0  0  0
  143.3336   74.8842  221.4288 H   0  0  0  0  0  0  0  0  0  0  0  0
  142.4312   76.9268  220.9908 H   0  0  0  0  0  0  0  0  0  0  0  0
  141.9267   78.7534  219.4186 H   0  0  0  0  0  0  0  0  0  0  0  0
  142.5583   78.5752  217.0158 H   0  0  0  0  0  0  0  0  0  0  0  0
  144.1921   74.7369  217.7618 H   0  0  0  0  0  0  0  0  0  0  0  0
  137.9657   77.4672  222.4665 H   0  0  0  0  0  0  0  0  0  0  0  0
  138.2512   79.8713  223.0555 H   0  0  0  0  0  0  0  0  0  0  0  0
  139.7568   81.7477  223.5615 H   0  0  0  0  0  0  0  0  0  0  0  0
  142.0673   82.6367  223.8552 H   0  0  0  0  0  0  0  0  0  0  0  0
  144.0204   81.0863  223.5491 H   0  0  0  0  0  0  0  0  0  0  0  0
  143.6137   78.7278  222.9670 H   0  0  0  0  0  0  0  0  0  0  0  0
  1  2  2  0
  2  3  1  0
  3  4  1  0
  4  5  1  0
  5  6  2  0
  5  7  1  0
  7  8  1  0
  8  9  1  0
  9 10  1  0
  9 11  1  0
 11 12  1  0
 12 13  1  0
 13 14  2  0
 14 15  1  0
 15 16  2  0
 16 17  1  0
 17 18  2  0
  2 19  1  0
 19 20  2  0
 20 21  1  0
 21 22  2  0
 22 23  1  0
 23 24  2  0
 24 25  1  0
 25 26  2  0
 26 27  1  0
 27 28  2  0
 12  7  1  0
 18 13  1  0
 28 19  1  0
 27 22  1  0
  3 29  1  0
  4 30  1  0
  4 31  1  0
  8 32  1  0
  8 33  1  0
  9 34  1  6
 10 35  1  0
 11 36  1  0
 11 37  1  0
 12 38  1  1
 14 39  1  0
 15 40  1  0
 16 41  1  0
 18 42  1  0
 20 43  1  0
 21 44  1  0
 23 45  1  0
 24 46  1  0
 25 47  1  0
 26 48  1  0
M  END
>  <smiles>  (32) 
O=C(NCC(=O)N1C[C@H](O)C[C@H]1c1cccnc1)c1ccc2ccccc2n1

>  <score_type>  (32) 
oracle

>  <origin>  (32) 
autodockgpu

>  <m_score__min__energy>  (32) 
-8.9199999999999999

>  <m_primary>  (32) 
energy

>  <rmsd>  (32) 
7.679985272446063

>  <m_score__min__rmsd>  (32) 
7.679985272446063

>  <meeko>  (32) 
{"free_energy": -7.82, "intermolecular_energy": -9.61, "internal_energy": -2.13, "cluster_size": 15, "cluster_id": 4, "rank_in_cluster": 7}

>  <energy>  (32) 
-8.11

>  <cluster_rmsd>  (32) 
0.31

>  <cluster>  (32) 
2

$$$$

     RDKit          3D

 48 51  0  0  0  0  0  0  0  0999 V2000
  140.7360   70.9090  221.1130 O   0  0  0  0  0  0  0  0  0  0  0  0
  140.5990   71.6750  222.0990 C   0  0  0  0  0  0  0  0  0  0  0  0
  140.7190   73.0740  221.9600 N   0  0  0  0  0  0  0  0  0  0  0  0
  141.0070   73.6960  220.6800 C   0  0  0  0  0  0  0  0  0  0  0  0
  141.2680   75.1520  220.8290 C   0  0  0  0  0  0  0  0  0  0  0  0
  140.8590   75.7240  221.8770 O   0  0  0  0  0  0  0  0  0  0  0  0
  141.9610   75.8310  219.7910 N   0  0  0  0  0  0  0  0  0  0  0  0
  142.0770   77.2840  219.6170 C   0  0  0  0  0  0  0  0  0  0  0  0
  143.0480   77.4820  218.4930 C   0  0  2  0  0  0  0  0  0  0  0  0
  142.6140   78.5030  217.6160 O   0  0  0  0  0  0  0  0  0  0  0  0
  143.0400   76.2060  217.7140 C   0  0  0  0  0  0  0  0  0  0  0  0
  142.6670   75.1730  218.7350 C   0  0  1  0  0  0  0  0  0  0  0  0
  143.8820   74.4470  219.1840 C   0  0  0  0  0  0  0  0  0  0  0  0
  144.4170   74.6210  220.4650 C   0  0  0  0  0  0  0  0  0  0  0  0
  145.5490   73.9380  220.8650 C   0  0  0  0  0  0  0  0  0  0  0  0
  146.1900   73.0620  220.0160 C   0  0  0  0  0  0  0  0  0  0  0  0
  145.6700   72.8990  218.7820 N   0  0  0  0  0  0  0  0  0  0  0  0
  144.5700   73.5560  218.3770 C   0  0  0  0  0  0  0  0  0  0  0  0
  140.3060   71.1180  223.4320 C   0  0  0  0  0  0  0  0  0  0  0  0
  139.5740   69.9550  223.5520 C   0  0  0  0  0  0  0  0  0  0  0  0
  139.2920   69.4210  224.8100 C   0  0  0  0  0  0  0  0  0  0  0  0
  139.7550   70.0670  225.9590 C   0  0  0  0  0  0  0  0  0  0  0  0
  139.5020   69.5760  227.2230 C   0  0  0  0  0  0  0  0  0  0  0  0
  139.9740   70.2380  228.3510 C   0  0  0  0  0  0  0  0  0  0  0  0
  140.7100   71.4100  228.1830 C   0  0  0  0  0  0  0  0  0  0  0  0
  140.9470   71.8760  226.9060 C   0  0  0  0  0  0  0  0  0  0  0  0
  140.4860   71.2320  225.7750 C   0  0  0  0  0  0  0  0  0  0  0  0
  140.7450   71.7280  224.5480 N   0  0  0  0  0  0  0  0  0  0  0  0
  140.5950   73.6780  222.8250 H   0  0  0  0  0  0  0  0  0  0  0  0
  141.8945   73.2167  220.2412 H   0  0  0  0  0  0  0  0  0  0  0  0
  140.1303   73.5671  220.0283 H   0  0  0  0  0  0  0  0  0  0  0  0
  141.0996   77.7187  219.3605 H   0  0  0  0  0  0  0  0  0  0  0  0
  142.4178   77.7772  220.5393 H   0  0  0  0  0  0  0  0  0  0  0  0
  144.0353   77.7531  218.8951 H   0  0  0  0  0  0  0  0  0  0  0  0
  143.3760   78.9360  217.1620 H   0  0  0  0  0  0  0  0  0  0  0  0
  142.2964   76.2446  216.9044 H   0  0  0  0  0  0  0  0  0  0  0  0
  144.0033   75.9967  217.2259 H   0  0  0  0  0  0  0  0  0  0  0  0
  141.9997   74.4051  218.3165 H   0  0  0  0  0  0  0  0  0  0  0  0
  143.9277   75.3136  221.1656 H   0  0  0  0  0  0  0  0  0  0  0  0
  145.9457   74.0961  221.8787 H   0  0  0  0  0  0  0  0  0  0  0  0
  147.0913   72.5165  220.3325 H   0  0  0  0  0  0  0  0  0  0  0  0
  144.1986   73.3779  217.3570 H   0  0  0  0  0  0  0  0  0  0  0  0
  139.2095   69.4443  222.6485 H   0  0  0  0  0  0  0  0  0  0  0  0
  138.7066   68.4937  224.8968 H   0  0  0  0  0  0  0  0  0  0  0  0
  138.9200   68.6499  227.3400 H   0  0  0  0  0  0  0  0  0  0  0  0
  139.7704   69.8441  229.3577 H   0  0  0  0  0  0  0  0  0  0  0  0
  141.0965   71.9557  229.0564 H   0  0  0  0  0  0  0  0  0  0  0  0
  141.5289   72.8014  226.7837 H   0  0  0  0  0  0  0  0  0  0  0  0
  1  2  2  0
  2  3  1  0
  3  4  1  0
  4  5  1  0
  5  6  2  0
  5  7  1  0
  7  8  1  0
  8  9  1  0
  9 10  1  0
  9 11  1  0
 11 12  1  0
 12 13  1  0
 13 14  2  0
 14 15  1  0
 15 16  2  0
 16 17  1  0
 17 18  2  0
  2 19  1  0
 19 20  2  0
 20 21  1  0
 21 22  2  0
 22 23  1  0
 23 24  2  0
 24 25  1  0
 25 26  2  0
 26 27  1  0
 27 28  2  0
 12  7  1  0
 18 13  1  0
 28 19  1  0
 27 22  1  0
  3 29  1  0
  4 30  1  0
  4 31  1  0
  8 32  1  0
  8 33  1  0
  9 34  1  1
 10 35  1  0
 11 36  1  0
 11 37  1  0
 12 38  1  6
 14 39  1  0
 15 40  1  0
 16 41  1  0
 18 42  1  0
 20 43  1  0
 21 44  1  0
 23 45  1  0
 24 46  1  0
 25 47  1  0
 26 48  1  0
M  END
>  <smiles>  (33) 
O=C(NCC(=O)N1C[C@H](O)C[C@H]1c1cccnc1)c1ccc2ccccc2n1

>  <score_type>  (33) 
oracle

>  <origin>  (33) 
autodockgpu

>  <m_score__min__energy>  (33) 
-8.9199999999999999

>  <m_primary>  (33) 
energy

>  <rmsd>  (33) 
2.5127532737997216

>  <m_score__min__rmsd>  (33) 
2.5127532737997216

>  <meeko>  (33) 
{"free_energy": -8.6, "intermolecular_energy": -10.39, "internal_energy": -1.86, "cluster_size": 29, "cluster_id": 1, "rank_in_cluster": 20}

>  <energy>  (33) 
-7.96

>  <cluster_rmsd>  (33) 
0.0

>  <cluster>  (33) 
3

$$$$

     RDKit          3D

 48 51  0  0  0  0  0  0  0  0999 V2000
  141.0410   71.6610  221.3970 O   0  0  0  0  0  0  0  0  0  0  0  0
  140.4770   72.1940  222.3840 C   0  0  0  0  0  0  0  0  0  0  0  0
  140.0460   73.5370  222.3420 N   0  0  0  0  0  0  0  0  0  0  0  0
  140.2310   74.3660  221.1640 C   0  0  0  0  0  0  0  0  0  0  0  0
  139.9870   75.8010  221.4650 C   0  0  0  0  0  0  0  0  0  0  0  0
  139.4320   76.0920  222.5600 O   0  0  0  0  0  0  0  0  0  0  0  0
  140.3870   76.7750  220.5110 N   0  0  0  0  0  0  0  0  0  0  0  0
  139.6370   77.2020  219.3230 C   0  0  0  0  0  0  0  0  0  0  0  0
  140.3950   78.3640  218.7590 C   0  0  2  0  0  0  0  0  0  0  0  0
  140.4720   78.2890  217.3490 O   0  0  0  0  0  0  0  0  0  0  0  0
  141.7910   78.2350  219.2790 C   0  0  0  0  0  0  0  0  0  0  0  0
  141.6170   77.5030  220.5760 C   0  0  1  0  0  0  0  0  0  0  0  0
  141.6900   78.4620  221.7080 C   0  0  0  0  0  0  0  0  0  0  0  0
  142.0150   79.8090  221.5170 C   0  0  0  0  0  0  0  0  0  0  0  0
  142.0790   80.6860  222.5830 C   0  0  0  0  0  0  0  0  0  0  0  0
  141.8240   80.2640  223.8700 C   0  0  0  0  0  0  0  0  0  0  0  0
  141.5120   78.9630  224.0470 N   0  0  0  0  0  0  0  0  0  0  0  0
  141.4460   78.0980  223.0220 C   0  0  0  0  0  0  0  0  0  0  0  0
  140.2540   71.4170  223.6170 C   0  0  0  0  0  0  0  0  0  0  0  0
  139.5830   70.2130  223.5660 C   0  0  0  0  0  0  0  0  0  0  0  0
  139.3680   69.4710  224.7270 C   0  0  0  0  0  0  0  0  0  0  0  0
  139.8370   69.9490  225.9540 C   0  0  0  0  0  0  0  0  0  0  0  0
  139.6480   69.2490  227.1290 C   0  0  0  0  0  0  0  0  0  0  0  0
  140.1230   69.7470  228.3360 C   0  0  0  0  0  0  0  0  0  0  0  0
  140.7970   70.9680  228.3420 C   0  0  0  0  0  0  0  0  0  0  0  0
  140.9700   71.6430  227.1510 C   0  0  0  0  0  0  0  0  0  0  0  0
  140.5050   71.1650  225.9430 C   0  0  0  0  0  0  0  0  0  0  0  0
  140.6990   71.8630  224.8060 N   0  0  0  0  0  0  0  0  0  0  0  0
  139.5740   73.9410  223.2040 H   0  0  0  0  0  0  0  0  0  0  0  0
  141.2627   74.2471  220.8015 H   0  0  0  0  0  0  0  0  0  0  0  0
  139.5083   74.0457  220.3991 H   0  0  0  0  0  0  0  0  0  0  0  0
  139.5855   76.3850  218.5882 H   0  0  0  0  0  0  0  0  0  0  0  0
  138.6020   77.4769  219.5743 H   0  0  0  0  0  0  0  0  0  0  0  0
  139.8994   79.3051  219.0395 H   0  0  0  0  0  0  0  0  0  0  0  0
  141.1270   77.6100  217.0590 H   0  0  0  0  0  0  0  0  0  0  0  0
  142.4177   77.6579  218.5832 H   0  0  0  0  0  0  0  0  0  0  0  0
  142.2939   79.2058  219.3999 H   0  0  0  0  0  0  0  0  0  0  0  0
  142.4245   76.7763  220.7485 H   0  0  0  0  0  0  0  0  0  0  0  0
  142.2231   80.1763  220.5012 H   0  0  0  0  0  0  0  0  0  0  0  0
  142.3380   81.7395  222.4011 H   0  0  0  0  0  0  0  0  0  0  0  0
  141.8729   80.9606  224.7199 H   0  0  0  0  0  0  0  0  0  0  0  0
  141.1859   77.0508  223.2360 H   0  0  0  0  0  0  0  0  0  0  0  0
  139.2142   69.8348  222.6011 H   0  0  0  0  0  0  0  0  0  0  0  0
  138.8309   68.5123  224.6774 H   0  0  0  0  0  0  0  0  0  0  0  0
  139.1156   68.2866  227.1093 H   0  0  0  0  0  0  0  0  0  0  0  0
  139.9701   69.1878  229.2708 H   0  0  0  0  0  0  0  0  0  0  0  0
  141.1849   71.3867  229.2823 H   0  0  0  0  0  0  0  0  0  0  0  0
  141.5025   72.6054  227.1652 H   0  0  0  0  0  0  0  0  0  0  0  0
  1  2  2  0
  2  3  1  0
  3  4  1  0
  4  5  1  0
  5  6  2  0
  5  7  1  0
  7  8  1  0
  8  9  1  0
  9 10  1  0
  9 11  1  0
 11 12  1  0
 12 13  1  0
 13 14  2  0
 14 15  1  0
 15 16  2  0
 16 17  1  0
 17 18  2  0
  2 19  1  0
 19 20  2  0
 20 21  1  0
 21 22  2  0
 22 23  1  0
 23 24  2  0
 24 25  1  0
 25 26  2  0
 26 27  1  0
 27 28  2  0
 12  7  1  0
 18 13  1  0
 28 19  1  0
 27 22  1  0
  3 29  1  0
  4 30  1  0
  4 31  1  0
  8 32  1  0
  8 33  1  0
  9 34  1  6
 10 35  1  0
 11 36  1  0
 11 37  1  0
 12 38  1  1
 14 39  1  0
 15 40  1  0
 16 41  1  0
 18 42  1  0
 20 43  1  0
 21 44  1  0
 23 45  1  0
 24 46  1  0
 25 47  1  0
 26 48  1  0
M  END
>  <smiles>  (34) 
O=C(NCC(=O)N1C[C@H](O)C[C@H]1c1cccnc1)c1ccc2ccccc2n1

>  <score_type>  (34) 
oracle

>  <origin>  (34) 
autodockgpu

>  <m_score__min__energy>  (34) 
-8.9199999999999999

>  <m_primary>  (34) 
energy

>  <rmsd>  (34) 
1.7942659992377483

>  <m_score__min__rmsd>  (34) 
1.7942659992377483

>  <meeko>  (34) 
{"free_energy": -8.11, "intermolecular_energy": -9.9, "internal_energy": -1.58, "cluster_size": 3, "cluster_id": 2, "rank_in_cluster": 3}

>  <energy>  (34) 
-7.57

>  <cluster_rmsd>  (34) 
1.02

>  <cluster>  (34) 
3

$$$$

     RDKit          3D

 48 51  0  0  0  0  0  0  0  0999 V2000
  140.4830   70.8900  221.0800 O   0  0  0  0  0  0  0  0  0  0  0  0
  140.5090   71.6370  222.0900 C   0  0  0  0  0  0  0  0  0  0  0  0
  140.7750   73.0180  221.9710 N   0  0  0  0  0  0  0  0  0  0  0  0
  141.0310   73.6420  220.6850 C   0  0  0  0  0  0  0  0  0  0  0  0
  141.4080   75.0720  220.8400 C   0  0  0  0  0  0  0  0  0  0  0  0
  141.0610   75.6660  221.8970 O   0  0  0  0  0  0  0  0  0  0  0  0
  142.1390   75.7010  219.7970 N   0  0  0  0  0  0  0  0  0  0  0  0
  142.2850   77.1450  219.5740 C   0  0  0  0  0  0  0  0  0  0  0  0
  143.2860   77.2870  218.4690 C   0  0  2  0  0  0  0  0  0  0  0  0
  142.8920   78.2830  217.5460 O   0  0  0  0  0  0  0  0  0  0  0  0
  143.2760   75.9840  217.7360 C   0  0  0  0  0  0  0  0  0  0  0  0
  142.8600   74.9940  218.7830 C   0  0  1  0  0  0  0  0  0  0  0  0
  144.0500   74.2650  219.2880 C   0  0  0  0  0  0  0  0  0  0  0  0
  144.5320   74.4460  220.5890 C   0  0  0  0  0  0  0  0  0  0  0  0
  145.6420   73.7590  221.0410 C   0  0  0  0  0  0  0  0  0  0  0  0
  146.3130   72.8730  220.2260 C   0  0  0  0  0  0  0  0  0  0  0  0
  145.8440   72.7030  218.9730 N   0  0  0  0  0  0  0  0  0  0  0  0
  144.7660   73.3630  218.5170 C   0  0  0  0  0  0  0  0  0  0  0  0
  140.2580   71.0760  223.4300 C   0  0  0  0  0  0  0  0  0  0  0  0
  139.5550   69.8980  223.5680 C   0  0  0  0  0  0  0  0  0  0  0  0
  139.3140   69.3610  224.8330 C   0  0  0  0  0  0  0  0  0  0  0  0
  139.7880   70.0190  225.9700 C   0  0  0  0  0  0  0  0  0  0  0  0
  139.5740   69.5250  227.2410 C   0  0  0  0  0  0  0  0  0  0  0  0
  140.0560   70.2000  228.3560 C   0  0  0  0  0  0  0  0  0  0  0  0
  140.7630   71.3880  228.1700 C   0  0  0  0  0  0  0  0  0  0  0  0
  140.9600   71.8560  226.8870 C   0  0  0  0  0  0  0  0  0  0  0  0
  140.4890   71.1990  225.7680 C   0  0  0  0  0  0  0  0  0  0  0  0
  140.7090   71.6990  224.5350 N   0  0  0  0  0  0  0  0  0  0  0  0
  140.7860   73.6060  222.8550 H   0  0  0  0  0  0  0  0  0  0  0  0
  141.8525   73.1077  220.1854 H   0  0  0  0  0  0  0  0  0  0  0  0
  140.1097   73.5903  220.0862 H   0  0  0  0  0  0  0  0  0  0  0  0
  141.3220   77.5863  219.2778 H   0  0  0  0  0  0  0  0  0  0  0  0
  142.6121   77.6650  220.4865 H   0  0  0  0  0  0  0  0  0  0  0  0
  144.2675   77.5566  218.8861 H   0  0  0  0  0  0  0  0  0  0  0  0
  143.6750   78.7170  217.1280 H   0  0  0  0  0  0  0  0  0  0  0  0
  142.5538   76.0054  216.9066 H   0  0  0  0  0  0  0  0  0  0  0  0
  144.2477   75.7420  217.2808 H   0  0  0  0  0  0  0  0  0  0  0  0
  142.1904   74.2226  218.3749 H   0  0  0  0  0  0  0  0  0  0  0  0
  144.0184   75.1471  221.2633 H   0  0  0  0  0  0  0  0  0  0  0  0
  145.9965   73.9220  222.0695 H   0  0  0  0  0  0  0  0  0  0  0  0
  147.1974   72.3254  220.5838 H   0  0  0  0  0  0  0  0  0  0  0  0
  144.4365   73.1788  217.4838 H   0  0  0  0  0  0  0  0  0  0  0  0
  139.1812   69.3775  222.6739 H   0  0  0  0  0  0  0  0  0  0  0  0
  138.7517   68.4211  224.9346 H   0  0  0  0  0  0  0  0  0  0  0  0
  139.0157   68.5865  227.3728 H   0  0  0  0  0  0  0  0  0  0  0  0
  139.8830   69.8043  229.3677 H   0  0  0  0  0  0  0  0  0  0  0  0
  141.1577   71.9436  229.0335 H   0  0  0  0  0  0  0  0  0  0  0  0
  141.5172   72.7944  226.7497 H   0  0  0  0  0  0  0  0  0  0  0  0
  1  2  2  0
  2  3  1  0
  3  4  1  0
  4  5  1  0
  5  6  2  0
  5  7  1  0
  7  8  1  0
  8  9  1  0
  9 10  1  0
  9 11  1  0
 11 12  1  0
 12 13  1  0
 13 14  2  0
 14 15  1  0
 15 16  2  0
 16 17  1  0
 17 18  2  0
  2 19  1  0
 19 20  2  0
 20 21  1  0
 21 22  2  0
 22 23  1  0
 23 24  2  0
 24 25  1  0
 25 26  2  0
 26 27  1  0
 27 28  2  0
 12  7  1  0
 18 13  1  0
 28 19  1  0
 27 22  1  0
  3 29  1  0
  4 30  1  0
  4 31  1  0
  8 32  1  0
  8 33  1  0
  9 34  1  1
 10 35  1  0
 11 36  1  0
 11 37  1  0
 12 38  1  6
 14 39  1  0
 15 40  1  0
 16 41  1  0
 18 42  1  0
 20 43  1  0
 21 44  1  0
 23 45  1  0
 24 46  1  0
 25 47  1  0
 26 48  1  0
M  END
>  <smiles>  (35) 
O=C(NCC(=O)N1C[C@H](O)C[C@H]1c1cccnc1)c1ccc2ccccc2n1

>  <score_type>  (35) 
oracle

>  <origin>  (35) 
autodockgpu

>  <m_score__min__energy>  (35) 
-8.9199999999999999

>  <m_primary>  (35) 
energy

>  <rmsd>  (35) 
2.5742717160951583

>  <m_score__min__rmsd>  (35) 
2.5742717160951583

>  <meeko>  (35) 
{"free_energy": -8.7, "intermolecular_energy": -10.49, "internal_energy": -1.89, "cluster_size": 29, "cluster_id": 1, "rank_in_cluster": 15}

>  <energy>  (35) 
-7.87

>  <cluster_rmsd>  (35) 
0.0

>  <cluster>  (35) 
4

$$$$

     RDKit          3D

 48 51  0  0  0  0  0  0  0  0999 V2000
  140.3450   71.0250  221.3250 O   0  0  0  0  0  0  0  0  0  0  0  0
  140.0520   71.6170  222.3940 C   0  0  0  0  0  0  0  0  0  0  0  0
  139.8190   73.0080  222.4190 N   0  0  0  0  0  0  0  0  0  0  0  0
  139.9060   73.8220  221.2190 C   0  0  0  0  0  0  0  0  0  0  0  0
  141.1180   74.6830  221.2330 C   0  0  0  0  0  0  0  0  0  0  0  0
  141.0080   75.8570  221.6840 O   0  0  0  0  0  0  0  0  0  0  0  0
  142.3390   74.1500  220.7400 N   0  0  0  0  0  0  0  0  0  0  0  0
  142.6360   72.7370  220.4730 C   0  0  0  0  0  0  0  0  0  0  0  0
  143.9760   72.7230  219.8030 C   0  0  2  0  0  0  0  0  0  0  0  0
  144.7870   71.6770  220.3020 O   0  0  0  0  0  0  0  0  0  0  0  0
  144.6400   74.0070  220.1830 C   0  0  0  0  0  0  0  0  0  0  0  0
  143.4890   74.9400  220.4230 C   0  0  1  0  0  0  0  0  0  0  0  0
  143.3050   75.8250  219.2460 C   0  0  0  0  0  0  0  0  0  0  0  0
  142.7690   77.1110  219.3630 C   0  0  0  0  0  0  0  0  0  0  0  0
  142.6050   77.9210  218.2540 C   0  0  0  0  0  0  0  0  0  0  0  0
  142.9640   77.4870  216.9960 C   0  0  0  0  0  0  0  0  0  0  0  0
  143.4800   76.2450  216.8900 N   0  0  0  0  0  0  0  0  0  0  0  0
  143.6460   75.4460  217.9570 C   0  0  0  0  0  0  0  0  0  0  0  0
  139.9460   70.8570  223.6530 C   0  0  0  0  0  0  0  0  0  0  0  0
  139.3380   69.6200  223.6680 C   0  0  0  0  0  0  0  0  0  0  0  0
  139.2330   68.8950  224.8550 C   0  0  0  0  0  0  0  0  0  0  0  0
  139.7480   69.4250  226.0410 C   0  0  0  0  0  0  0  0  0  0  0  0
  139.6690   68.7440  227.2390 C   0  0  0  0  0  0  0  0  0  0  0  0
  140.1890   69.2940  228.4040 C   0  0  0  0  0  0  0  0  0  0  0  0
  140.7960   70.5480  228.3440 C   0  0  0  0  0  0  0  0  0  0  0  0
  140.8610   71.2030  227.1310 C   0  0  0  0  0  0  0  0  0  0  0  0
  140.3490   70.6730  225.9640 C   0  0  0  0  0  0  0  0  0  0  0  0
  140.4380   71.3540  224.8030 N   0  0  0  0  0  0  0  0  0  0  0  0
  139.5760   73.4610  223.3480 H   0  0  0  0  0  0  0  0  0  0  0  0
  139.9469   73.1611  220.3406 H   0  0  0  0  0  0  0  0  0  0  0  0
  139.0201   74.4727  221.1776 H   0  0  0  0  0  0  0  0  0  0  0  0
  142.6719   72.1684  221.4139 H   0  0  0  0  0  0  0  0  0  0  0  0
  141.8629   72.2719  219.8437 H   0  0  0  0  0  0  0  0  0  0  0  0
  143.8492   72.5903  218.7184 H   0  0  0  0  0  0  0  0  0  0  0  0
  145.0970   71.8680  221.2190 H   0  0  0  0  0  0  0  0  0  0  0  0
  145.2423   73.8831  221.0951 H   0  0  0  0  0  0  0  0  0  0  0  0
  145.3350   74.3737  219.4133 H   0  0  0  0  0  0  0  0  0  0  0  0
  143.6762   75.6116  221.2738 H   0  0  0  0  0  0  0  0  0  0  0  0
  142.4726   77.4850  220.3541 H   0  0  0  0  0  0  0  0  0  0  0  0
  142.1810   78.9284  218.3780 H   0  0  0  0  0  0  0  0  0  0  0  0
  142.8347   78.1289  216.1121 H   0  0  0  0  0  0  0  0  0  0  0  0
  144.0725   74.4442  217.8005 H   0  0  0  0  0  0  0  0  0  0  0  0
  138.9320   69.2009  222.7355 H   0  0  0  0  0  0  0  0  0  0  0  0
  138.7461   67.9086  224.8575 H   0  0  0  0  0  0  0  0  0  0  0  0
  139.1890   67.7548  227.2717 H   0  0  0  0  0  0  0  0  0  0  0  0
  140.1230   68.7496  229.3575 H   0  0  0  0  0  0  0  0  0  0  0  0
  141.2168   71.0083  229.2501 H   0  0  0  0  0  0  0  0  0  0  0  0
  141.3422   72.1914  227.0925 H   0  0  0  0  0  0  0  0  0  0  0  0
  1  2  2  0
  2  3  1  0
  3  4  1  0
  4  5  1  0
  5  6  2  0
  5  7  1  0
  7  8  1  0
  8  9  1  0
  9 10  1  0
  9 11  1  0
 11 12  1  0
 12 13  1  0
 13 14  2  0
 14 15  1  0
 15 16  2  0
 16 17  1  0
 17 18  2  0
  2 19  1  0
 19 20  2  0
 20 21  1  0
 21 22  2  0
 22 23  1  0
 23 24  2  0
 24 25  1  0
 25 26  2  0
 26 27  1  0
 27 28  2  0
 12  7  1  0
 18 13  1  0
 28 19  1  0
 27 22  1  0
  3 29  1  0
  4 30  1  0
  4 31  1  0
  8 32  1  0
  8 33  1  0
  9 34  1  6
 10 35  1  0
 11 36  1  0
 11 37  1  0
 12 38  1  1
 14 39  1  0
 15 40  1  0
 16 41  1  0
 18 42  1  0
 20 43  1  0
 21 44  1  0
 23 45  1  0
 24 46  1  0
 25 47  1  0
 26 48  1  0
M  END
>  <smiles>  (36) 
O=C(NCC(=O)N1C[C@H](O)C[C@H]1c1cccnc1)c1ccc2ccccc2n1

>  <score_type>  (36) 
oracle

>  <origin>  (36) 
autodockgpu

>  <m_score__min__energy>  (36) 
-8.9199999999999999

>  <m_primary>  (36) 
energy

>  <rmsd>  (36) 
2.833323932414134

>  <m_score__min__rmsd>  (36) 
2.833323932414134

>  <meeko>  (36) 
{"free_energy": -7.96, "intermolecular_energy": -9.75, "internal_energy": -1.39, "cluster_size": 2, "cluster_id": 3, "rank_in_cluster": 1}

>  <energy>  (36) 
-7.85

>  <cluster_rmsd>  (36) 
0.07

>  <cluster>  (36) 
4

$$$$

     RDKit          3D

 48 51  0  0  0  0  0  0  0  0999 V2000
  140.4770   71.0200  221.2610 O   0  0  0  0  0  0  0  0  0  0  0  0
  140.1390   71.6520  222.2930 C   0  0  0  0  0  0  0  0  0  0  0  0
  139.8900   73.0400  222.2500 N   0  0  0  0  0  0  0  0  0  0  0  0
  140.0110   73.8040  221.0210 C   0  0  0  0  0  0  0  0  0  0  0  0
  140.4940   75.1860  221.2850 C   0  0  0  0  0  0  0  0  0  0  0  0
  140.1510   75.7380  222.3660 O   0  0  0  0  0  0  0  0  0  0  0  0
  141.3150   75.8180  220.3130 N   0  0  0  0  0  0  0  0  0  0  0  0
  141.4920   77.2630  220.1190 C   0  0  0  0  0  0  0  0  0  0  0  0
  142.5840   77.4050  219.1030 C   0  0  2  0  0  0  0  0  0  0  0  0
  142.2780   78.4140  218.1600 O   0  0  0  0  0  0  0  0  0  0  0  0
  142.6250   76.1100  218.3580 C   0  0  0  0  0  0  0  0  0  0  0  0
  142.1130   75.1140  219.3560 C   0  0  1  0  0  0  0  0  0  0  0  0
  143.2500   74.3690  219.9530 C   0  0  0  0  0  0  0  0  0  0  0  0
  143.1640   73.0070  220.2600 C   0  0  0  0  0  0  0  0  0  0  0  0
  144.2340   72.3310  220.8160 C   0  0  0  0  0  0  0  0  0  0  0  0
  145.4210   72.9760  221.0860 C   0  0  0  0  0  0  0  0  0  0  0  0
  145.4980   74.2890  220.7880 N   0  0  0  0  0  0  0  0  0  0  0  0
  144.4680   74.9610  220.2480 C   0  0  0  0  0  0  0  0  0  0  0  0
  139.9950   70.9450  223.5780 C   0  0  0  0  0  0  0  0  0  0  0  0
  139.4230   69.6910  223.6200 C   0  0  0  0  0  0  0  0  0  0  0  0
  139.2840   69.0160  224.8320 C   0  0  0  0  0  0  0  0  0  0  0  0
  139.7270   69.6110  226.0160 C   0  0  0  0  0  0  0  0  0  0  0  0
  139.6100   68.9810  227.2380 C   0  0  0  0  0  0  0  0  0  0  0  0
  140.0590   69.5960  228.4000 C   0  0  0  0  0  0  0  0  0  0  0  0
  140.6320   70.8650  228.3120 C   0  0  0  0  0  0  0  0  0  0  0  0
  140.7340   71.4690  227.0760 C   0  0  0  0  0  0  0  0  0  0  0  0
  140.2940   70.8730  225.9110 C   0  0  0  0  0  0  0  0  0  0  0  0
  140.4180   71.5060  224.7260 N   0  0  0  0  0  0  0  0  0  0  0  0
  139.6070   73.5280  223.1500 H   0  0  0  0  0  0  0  0  0  0  0  0
  140.7237   73.2974  220.3536 H   0  0  0  0  0  0  0  0  0  0  0  0
  139.0168   73.8684  220.5547 H   0  0  0  0  0  0  0  0  0  0  0  0
  140.5614   77.7170  219.7478 H   0  0  0  0  0  0  0  0  0  0  0  0
  141.7455   77.7710  221.0611 H   0  0  0  0  0  0  0  0  0  0  0  0
  143.5291   77.6603  219.6045 H   0  0  0  0  0  0  0  0  0  0  0  0
  142.1780   79.2950  218.5950 H   0  0  0  0  0  0  0  0  0  0  0  0
  141.9759   76.1464  217.4707 H   0  0  0  0  0  0  0  0  0  0  0  0
  143.6295   75.8632  217.9839 H   0  0  0  0  0  0  0  0  0  0  0  0
  141.4737   74.3532  218.8843 H   0  0  0  0  0  0  0  0  0  0  0  0
  142.2291   72.4647  220.0555 H   0  0  0  0  0  0  0  0  0  0  0  0
  144.1360   71.2600  221.0467 H   0  0  0  0  0  0  0  0  0  0  0  0
  146.2739   72.4402  221.5280 H   0  0  0  0  0  0  0  0  0  0  0  0
  144.5972   76.0313  220.0297 H   0  0  0  0  0  0  0  0  0  0  0  0
  139.0735   69.2194  222.6897 H   0  0  0  0  0  0  0  0  0  0  0  0
  138.8261   68.0161  224.8560 H   0  0  0  0  0  0  0  0  0  0  0  0
  139.1561   67.9805  227.2928 H   0  0  0  0  0  0  0  0  0  0  0  0
  139.9644   69.0911  229.3727 H   0  0  0  0  0  0  0  0  0  0  0  0
  140.9971   71.3764  229.2149 H   0  0  0  0  0  0  0  0  0  0  0  0
  141.1860   72.4700  227.0160 H   0  0  0  0  0  0  0  0  0  0  0  0
  1  2  2  0
  2  3  1  0
  3  4  1  0
  4  5  1  0
  5  6  2  0
  5  7  1  0
  7  8  1  0
  8  9  1  0
  9 10  1  0
  9 11  1  0
 11 12  1  0
 12 13  1  0
 13 14  2  0
 14 15  1  0
 15 16  2  0
 16 17  1  0
 17 18  2  0
  2 19  1  0
 19 20  2  0
 20 21  1  0
 21 22  2  0
 22 23  1  0
 23 24  2  0
 24 25  1  0
 25 26  2  0
 26 27  1  0
 27 28  2  0
 12  7  1  0
 18 13  1  0
 28 19  1  0
 27 22  1  0
  3 29  1  0
  4 30  1  0
  4 31  1  0
  8 32  1  0
  8 33  1  0
  9 34  1  1
 10 35  1  0
 11 36  1  0
 11 37  1  0
 12 38  1  6
 14 39  1  0
 15 40  1  0
 16 41  1  0
 18 42  1  0
 20 43  1  0
 21 44  1  0
 23 45  1  0
 24 46  1  0
 25 47  1  0
 26 48  1  0
M  END
>  <smiles>  (37) 
O=C(NCC(=O)N1C[C@H](O)C[C@H]1c1cccnc1)c1ccc2ccccc2n1

>  <score_type>  (37) 
oracle

>  <origin>  (37) 
autodockgpu

>  <m_score__min__energy>  (37) 
-8.9199999999999999

>  <m_primary>  (37) 
energy

>  <rmsd>  (37) 
2.1475256360763946

>  <m_score__min__rmsd>  (37) 
2.1475256360763946

>  <meeko>  (37) 
{"free_energy": -7.97, "intermolecular_energy": -9.76, "internal_energy": -1.82, "cluster_size": 29, "cluster_id": 1, "rank_in_cluster": 29}

>  <energy>  (37) 
-7.85

>  <cluster_rmsd>  (37) 
0.55

>  <cluster>  (37) 
4

$$$$

     RDKit          3D

 48 51  0  0  0  0  0  0  0  0999 V2000
  139.5790   74.6660  222.4860 O   0  0  0  0  0  0  0  0  0  0  0  0
  140.1930   75.5410  221.8250 C   0  0  0  0  0  0  0  0  0  0  0  0
  140.8500   75.2180  220.6180 N   0  0  0  0  0  0  0  0  0  0  0  0
  140.8510   73.8690  220.0820 C   0  0  0  0  0  0  0  0  0  0  0  0
  141.8260   73.0020  220.7950 C   0  0  0  0  0  0  0  0  0  0  0  0
  141.4040   72.2950  221.7510 O   0  0  0  0  0  0  0  0  0  0  0  0
  143.1810   73.0070  220.3700 N   0  0  0  0  0  0  0  0  0  0  0  0
  143.9390   71.8690  219.8350 C   0  0  0  0  0  0  0  0  0  0  0  0
  145.2480   72.4340  219.3730 C   0  0  2  0  0  0  0  0  0  0  0  0
  146.3240   71.5890  219.7300 O   0  0  0  0  0  0  0  0  0  0  0  0
  145.4310   73.7140  220.1220 C   0  0  0  0  0  0  0  0  0  0  0  0
  144.0270   74.1610  220.4040 C   0  0  1  0  0  0  0  0  0  0  0  0
  143.6360   75.2230  219.4430 C   0  0  0  0  0  0  0  0  0  0  0  0
  143.5540   74.9820  218.0670 C   0  0  0  0  0  0  0  0  0  0  0  0
  143.1880   75.9830  217.1870 C   0  0  0  0  0  0  0  0  0  0  0  0
  142.8910   77.2520  217.6350 C   0  0  0  0  0  0  0  0  0  0  0  0
  142.9720   77.4780  218.9620 N   0  0  0  0  0  0  0  0  0  0  0  0
  143.3270   76.5160  219.8310 C   0  0  0  0  0  0  0  0  0  0  0  0
  140.2360   76.9340  222.3060 C   0  0  0  0  0  0  0  0  0  0  0  0
  139.0680   77.5940  222.6260 C   0  0  0  0  0  0  0  0  0  0  0  0
  139.1000   78.9120  223.0810 C   0  0  0  0  0  0  0  0  0  0  0  0
  140.3250   79.5710  223.2160 C   0  0  0  0  0  0  0  0  0  0  0  0
  140.4060   80.8740  223.6630 C   0  0  0  0  0  0  0  0  0  0  0  0
  141.6360   81.5070  223.7890 C   0  0  0  0  0  0  0  0  0  0  0  0
  142.7930   80.8020  223.4550 C   0  0  0  0  0  0  0  0  0  0  0  0
  142.6790   79.5010  223.0110 C   0  0  0  0  0  0  0  0  0  0  0  0
  141.4650   78.8560  222.8800 C   0  0  0  0  0  0  0  0  0  0  0  0
  141.4070   77.5820  222.4410 N   0  0  0  0  0  0  0  0  0  0  0  0
  141.3540   75.9940  220.0980 H   0  0  0  0  0  0  0  0  0  0  0  0
  139.8440   73.4399  220.1911 H   0  0  0  0  0  0  0  0  0  0  0  0
  141.1420   73.9180  219.0223 H   0  0  0  0  0  0  0  0  0  0  0  0
  144.1022   71.1146  220.6187 H   0  0  0  0  0  0  0  0  0  0  0  0
  143.3998   71.3717  219.0153 H   0  0  0  0  0  0  0  0  0  0  0  0
  145.2377   72.5555  218.2798 H   0  0  0  0  0  0  0  0  0  0  0  0
  146.4000   71.4970  220.7100 H   0  0  0  0  0  0  0  0  0  0  0  0
  145.9851   73.5461  221.0573 H   0  0  0  0  0  0  0  0  0  0  0  0
  146.0122   74.4594  219.5593 H   0  0  0  0  0  0  0  0  0  0  0  0
  143.9323   74.6130  221.4024 H   0  0  0  0  0  0  0  0  0  0  0  0
  143.7847   73.9789  217.6791 H   0  0  0  0  0  0  0  0  0  0  0  0
  143.1328   75.7630  216.1106 H   0  0  0  0  0  0  0  0  0  0  0  0
  142.5990   78.0502  216.9367 H   0  0  0  0  0  0  0  0  0  0  0  0
  143.3743   76.7676  220.9008 H   0  0  0  0  0  0  0  0  0  0  0  0
  138.1030   77.0765  222.5215 H   0  0  0  0  0  0  0  0  0  0  0  0
  138.1636   79.4314  223.3329 H   0  0  0  0  0  0  0  0  0  0  0  0
  139.4857   81.4178  223.9226 H   0  0  0  0  0  0  0  0  0  0  0  0
  141.6969   82.5457  224.1458 H   0  0  0  0  0  0  0  0  0  0  0  0
  143.7813   81.2767  223.5445 H   0  0  0  0  0  0  0  0  0  0  0  0
  143.5961   78.9528  222.7496 H   0  0  0  0  0  0  0  0  0  0  0  0
  1  2  2  0
  2  3  1  0
  3  4  1  0
  4  5  1  0
  5  6  2  0
  5  7  1  0
  7  8  1  0
  8  9  1  0
  9 10  1  0
  9 11  1  0
 11 12  1  0
 12 13  1  0
 13 14  2  0
 14 15  1  0
 15 16  2  0
 16 17  1  0
 17 18  2  0
  2 19  1  0
 19 20  2  0
 20 21  1  0
 21 22  2  0
 22 23  1  0
 23 24  2  0
 24 25  1  0
 25 26  2  0
 26 27  1  0
 27 28  2  0
 12  7  1  0
 18 13  1  0
 28 19  1  0
 27 22  1  0
  3 29  1  0
  4 30  1  0
  4 31  1  0
  8 32  1  0
  8 33  1  0
  9 34  1  6
 10 35  1  0
 11 36  1  0
 11 37  1  0
 12 38  1  1
 14 39  1  0
 15 40  1  0
 16 41  1  0
 18 42  1  0
 20 43  1  0
 21 44  1  0
 23 45  1  0
 24 46  1  0
 25 47  1  0
 26 48  1  0
M  END
>  <smiles>  (38) 
O=C(NCC(=O)N1C[C@H](O)C[C@H]1c1cccnc1)c1ccc2ccccc2n1

>  <score_type>  (38) 
oracle

>  <origin>  (38) 
autodockgpu

>  <m_score__min__energy>  (38) 
-8.9199999999999999

>  <m_primary>  (38) 
energy

>  <rmsd>  (38) 
7.6724323119585724

>  <m_score__min__rmsd>  (38) 
7.6724323119585724

>  <meeko>  (38) 
{"free_energy": -7.87, "intermolecular_energy": -9.66, "internal_energy": -1.87, "cluster_size": 15, "cluster_id": 4, "rank_in_cluster": 1}

>  <energy>  (38) 
-7.84

>  <cluster_rmsd>  (38) 
0.18

>  <cluster>  (38) 
4

$$$$

     RDKit          3D

 48 51  0  0  0  0  0  0  0  0999 V2000
  140.6000   71.0230  221.1030 O   0  0  0  0  0  0  0  0  0  0  0  0
  140.4570   71.7580  222.1120 C   0  0  0  0  0  0  0  0  0  0  0  0
  140.5030   73.1640  222.0040 N   0  0  0  0  0  0  0  0  0  0  0  0
  140.7180   73.8290  220.7310 C   0  0  0  0  0  0  0  0  0  0  0  0
  141.4310   75.1230  220.9070 C   0  0  0  0  0  0  0  0  0  0  0  0
  141.3630   75.6900  222.0320 O   0  0  0  0  0  0  0  0  0  0  0  0
  142.1510   75.6590  219.8070 N   0  0  0  0  0  0  0  0  0  0  0  0
  142.3140   77.0790  219.4720 C   0  0  0  0  0  0  0  0  0  0  0  0
  143.2980   77.1210  218.3430 C   0  0  2  0  0  0  0  0  0  0  0  0
  142.9020   78.0490  217.3520 O   0  0  0  0  0  0  0  0  0  0  0  0
  143.2570   75.7660  217.7120 C   0  0  0  0  0  0  0  0  0  0  0  0
  142.8440   74.8650  218.8390 C   0  0  1  0  0  0  0  0  0  0  0  0
  144.0330   74.1600  219.3790 C   0  0  0  0  0  0  0  0  0  0  0  0
  144.3840   74.2290  220.7310 C   0  0  0  0  0  0  0  0  0  0  0  0
  145.4950   73.5650  221.2160 C   0  0  0  0  0  0  0  0  0  0  0  0
  146.2950   72.8130  220.3830 C   0  0  0  0  0  0  0  0  0  0  0  0
  145.9530   72.7510  219.0800 N   0  0  0  0  0  0  0  0  0  0  0  0
  144.8760   73.3900  218.5930 C   0  0  0  0  0  0  0  0  0  0  0  0
  140.2350   71.1560  223.4390 C   0  0  0  0  0  0  0  0  0  0  0  0
  139.5740   69.9510  223.5520 C   0  0  0  0  0  0  0  0  0  0  0  0
  139.3600   69.3740  224.8040 C   0  0  0  0  0  0  0  0  0  0  0  0
  139.8190   70.0200  225.9550 C   0  0  0  0  0  0  0  0  0  0  0  0
  139.6310   69.4880  227.2140 C   0  0  0  0  0  0  0  0  0  0  0  0
  140.0980   70.1500  228.3430 C   0  0  0  0  0  0  0  0  0  0  0  0
  140.7620   71.3660  228.1830 C   0  0  0  0  0  0  0  0  0  0  0  0
  140.9350   71.8730  226.9110 C   0  0  0  0  0  0  0  0  0  0  0  0
  140.4780   71.2280  225.7790 C   0  0  0  0  0  0  0  0  0  0  0  0
  140.6720   71.7650  224.5570 N   0  0  0  0  0  0  0  0  0  0  0  0
  140.3770   73.7400  222.8870 H   0  0  0  0  0  0  0  0  0  0  0  0
  141.3192   73.1746  220.0826 H   0  0  0  0  0  0  0  0  0  0  0  0
  139.7368   74.0337  220.2778 H   0  0  0  0  0  0  0  0  0  0  0  0
  141.3524   77.5115  219.1585 H   0  0  0  0  0  0  0  0  0  0  0  0
  142.6644   77.6616  220.3367 H   0  0  0  0  0  0  0  0  0  0  0  0
  144.2900   77.4070  218.7228 H   0  0  0  0  0  0  0  0  0  0  0  0
  143.6450   78.6490  217.1030 H   0  0  0  0  0  0  0  0  0  0  0  0
  142.5214   75.7353  216.8947 H   0  0  0  0  0  0  0  0  0  0  0  0
  144.2173   75.4747  217.2615 H   0  0  0  0  0  0  0  0  0  0  0  0
  142.1563   74.0750  218.5029 H   0  0  0  0  0  0  0  0  0  0  0  0
  143.7651   74.8220  221.4204 H   0  0  0  0  0  0  0  0  0  0  0  0
  145.7448   73.6380  222.2848 H   0  0  0  0  0  0  0  0  0  0  0  0
  147.1794   72.2832  220.7666 H   0  0  0  0  0  0  0  0  0  0  0  0
  144.6528   73.2977  217.5199 H   0  0  0  0  0  0  0  0  0  0  0  0
  139.2124   69.4404  222.6473 H   0  0  0  0  0  0  0  0  0  0  0  0
  138.8312   68.4128  224.8850 H   0  0  0  0  0  0  0  0  0  0  0  0
  139.1051   68.5283  227.3254 H   0  0  0  0  0  0  0  0  0  0  0  0
  139.9467   69.7225  229.3452 H   0  0  0  0  0  0  0  0  0  0  0  0
  141.1424   71.9132  229.0581 H   0  0  0  0  0  0  0  0  0  0  0  0
  141.4598   72.8326  226.7940 H   0  0  0  0  0  0  0  0  0  0  0  0
  1  2  2  0
  2  3  1  0
  3  4  1  0
  4  5  1  0
  5  6  2  0
  5  7  1  0
  7  8  1  0
  8  9  1  0
  9 10  1  0
  9 11  1  0
 11 12  1  0
 12 13  1  0
 13 14  2  0
 14 15  1  0
 15 16  2  0
 16 17  1  0
 17 18  2  0
  2 19  1  0
 19 20  2  0
 20 21  1  0
 21 22  2  0
 22 23  1  0
 23 24  2  0
 24 25  1  0
 25 26  2  0
 26 27  1  0
 27 28  2  0
 12  7  1  0
 18 13  1  0
 28 19  1  0
 27 22  1  0
  3 29  1  0
  4 30  1  0
  4 31  1  0
  8 32  1  0
  8 33  1  0
  9 34  1  1
 10 35  1  0
 11 36  1  0
 11 37  1  0
 12 38  1  6
 14 39  1  0
 15 40  1  0
 16 41  1  0
 18 42  1  0
 20 43  1  0
 21 44  1  0
 23 45  1  0
 24 46  1  0
 25 47  1  0
 26 48  1  0
M  END
>  <smiles>  (39) 
O=C(NCC(=O)N1C[C@H](O)C[C@H]1c1cccnc1)c1ccc2ccccc2n1

>  <score_type>  (39) 
oracle

>  <origin>  (39) 
autodockgpu

>  <m_score__min__energy>  (39) 
-8.9199999999999999

>  <m_primary>  (39) 
energy

>  <rmsd>  (39) 
2.5247486631491847

>  <m_score__min__rmsd>  (39) 
2.5247486631491847

>  <meeko>  (39) 
{"free_energy": -8.77, "intermolecular_energy": -10.56, "internal_energy": -1.78, "cluster_size": 29, "cluster_id": 1, "rank_in_cluster": 4}

>  <energy>  (39) 
-7.83

>  <cluster_rmsd>  (39) 
0.16

>  <cluster>  (39) 
4

$$$$

     RDKit          3D

 48 51  0  0  0  0  0  0  0  0999 V2000
  138.7150   75.1610  221.8740 O   0  0  0  0  0  0  0  0  0  0  0  0
  139.8660   75.6350  222.0420 C   0  0  0  0  0  0  0  0  0  0  0  0
  141.0150   74.8250  221.9210 N   0  0  0  0  0  0  0  0  0  0  0  0
  140.9270   73.4110  221.6010 C   0  0  0  0  0  0  0  0  0  0  0  0
  141.5570   73.1110  220.2880 C   0  0  0  0  0  0  0  0  0  0  0  0
  140.8150   72.7030  219.3520 O   0  0  0  0  0  0  0  0  0  0  0  0
  142.9580   73.2950  220.1460 N   0  0  0  0  0  0  0  0  0  0  0  0
  143.9330   72.2980  219.6870 C   0  0  0  0  0  0  0  0  0  0  0  0
  145.2300   73.0340  219.5430 C   0  0  2  0  0  0  0  0  0  0  0  0
  146.3100   72.2700  220.0420 O   0  0  0  0  0  0  0  0  0  0  0  0
  145.1150   74.2450  220.4120 C   0  0  0  0  0  0  0  0  0  0  0  0
  143.6400   74.5190  220.4390 C   0  0  1  0  0  0  0  0  0  0  0  0
  143.3170   75.6260  219.5050 C   0  0  0  0  0  0  0  0  0  0  0  0
  142.6590   76.7850  219.9300 C   0  0  0  0  0  0  0  0  0  0  0  0
  142.3660   77.8060  219.0460 C   0  0  0  0  0  0  0  0  0  0  0  0
  142.7130   77.7160  217.7150 C   0  0  0  0  0  0  0  0  0  0  0  0
  143.3460   76.5960  217.3110 N   0  0  0  0  0  0  0  0  0  0  0  0
  143.6380   75.5950  218.1580 C   0  0  0  0  0  0  0  0  0  0  0  0
  140.0370   77.0630  222.3700 C   0  0  0  0  0  0  0  0  0  0  0  0
  138.9360   77.8880  222.4680 C   0  0  0  0  0  0  0  0  0  0  0  0
  139.0890   79.2390  222.7780 C   0  0  0  0  0  0  0  0  0  0  0  0
  140.3660   79.7640  222.9910 C   0  0  0  0  0  0  0  0  0  0  0  0
  140.5660   81.0940  223.3010 C   0  0  0  0  0  0  0  0  0  0  0  0
  141.8470   81.5910  223.5080 C   0  0  0  0  0  0  0  0  0  0  0  0
  142.9310   80.7210  223.3990 C   0  0  0  0  0  0  0  0  0  0  0  0
  142.6990   79.3960  223.0880 C   0  0  0  0  0  0  0  0  0  0  0  0
  141.4340   78.8860  222.8790 C   0  0  0  0  0  0  0  0  0  0  0  0
  141.2600   77.5820  222.5780 N   0  0  0  0  0  0  0  0  0  0  0  0
  141.9650   75.2740  222.0730 H   0  0  0  0  0  0  0  0  0  0  0  0
  141.4406   72.8343  222.3843 H   0  0  0  0  0  0  0  0  0  0  0  0
  139.8638   73.1344  221.5458 H   0  0  0  0  0  0  0  0  0  0  0  0
  144.0312   71.4893  220.4261 H   0  0  0  0  0  0  0  0  0  0  0  0
  143.6228   71.8338  218.7392 H   0  0  0  0  0  0  0  0  0  0  0  0
  145.4140   73.2620  218.4827 H   0  0  0  0  0  0  0  0  0  0  0  0
  146.0680   71.8090  220.8810 H   0  0  0  0  0  0  0  0  0  0  0  0
  145.4953   74.0404  221.4237 H   0  0  0  0  0  0  0  0  0  0  0  0
  145.7020   75.0971  220.0387 H   0  0  0  0  0  0  0  0  0  0  0  0
  143.3040   74.8582  221.4300 H   0  0  0  0  0  0  0  0  0  0  0  0
  142.3697   76.8854  220.9865 H   0  0  0  0  0  0  0  0  0  0  0  0
  141.8475   78.7051  219.4104 H   0  0  0  0  0  0  0  0  0  0  0  0
  142.4822   78.5273  217.0090 H   0  0  0  0  0  0  0  0  0  0  0  0
  144.1565   74.7089  217.7631 H   0  0  0  0  0  0  0  0  0  0  0  0
  137.9295   77.4771  222.3003 H   0  0  0  0  0  0  0  0  0  0  0  0
  138.2058   79.8901  222.8547 H   0  0  0  0  0  0  0  0  0  0  0  0
  139.7011   81.7685  223.3852 H   0  0  0  0  0  0  0  0  0  0  0  0
  142.0030   82.6519  223.7535 H   0  0  0  0  0  0  0  0  0  0  0  0
  143.9566   81.0851  223.5586 H   0  0  0  0  0  0  0  0  0  0  0  0
  143.5604   78.7171  223.0031 H   0  0  0  0  0  0  0  0  0  0  0  0
  1  2  2  0
  2  3  1  0
  3  4  1  0
  4  5  1  0
  5  6  2  0
  5  7  1  0
  7  8  1  0
  8  9  1  0
  9 10  1  0
  9 11  1  0
 11 12  1  0
 12 13  1  0
 13 14  2  0
 14 15  1  0
 15 16  2  0
 16 17  1  0
 17 18  2  0
  2 19  1  0
 19 20  2  0
 20 21  1  0
 21 22  2  0
 22 23  1  0
 23 24  2  0
 24 25  1  0
 25 26  2  0
 26 27  1  0
 27 28  2  0
 12  7  1  0
 18 13  1  0
 28 19  1  0
 27 22  1  0
  3 29  1  0
  4 30  1  0
  4 31  1  0
  8 32  1  0
  8 33  1  0
  9 34  1  6
 10 35  1  0
 11 36  1  0
 11 37  1  0
 12 38  1  1
 14 39  1  0
 15 40  1  0
 16 41  1  0
 18 42  1  0
 20 43  1  0
 21 44  1  0
 23 45  1  0
 24 46  1  0
 25 47  1  0
 26 48  1  0
M  END
>  <smiles>  (40) 
O=C(NCC(=O)N1C[C@H](O)C[C@H]1c1cccnc1)c1ccc2ccccc2n1

>  <score_type>  (40) 
oracle

>  <origin>  (40) 
autodockgpu

>  <m_score__min__energy>  (40) 
-8.9199999999999999

>  <m_primary>  (40) 
energy

>  <rmsd>  (40) 
7.6843608805635775

>  <m_score__min__rmsd>  (40) 
7.6843608805635775

>  <meeko>  (40) 
{"free_energy": -7.8, "intermolecular_energy": -9.59, "internal_energy": -2.15, "cluster_size": 15, "cluster_id": 4, "rank_in_cluster": 9}

>  <energy>  (40) 
-7.82

>  <cluster_rmsd>  (40) 
0.94

>  <cluster>  (40) 
4

$$$$

     RDKit          3D

 48 51  0  0  0  0  0  0  0  0999 V2000
  140.8470   71.0540  221.1670 O   0  0  0  0  0  0  0  0  0  0  0  0
  140.5230   71.7910  222.1320 C   0  0  0  0  0  0  0  0  0  0  0  0
  140.4150   73.1890  221.9790 N   0  0  0  0  0  0  0  0  0  0  0  0
  140.6710   73.8450  220.7090 C   0  0  0  0  0  0  0  0  0  0  0  0
  141.2280   75.2090  220.9040 C   0  0  0  0  0  0  0  0  0  0  0  0
  141.0660   75.7620  222.0260 O   0  0  0  0  0  0  0  0  0  0  0  0
  141.9140   75.8270  219.8240 N   0  0  0  0  0  0  0  0  0  0  0  0
  142.0690   77.2680  219.5900 C   0  0  0  0  0  0  0  0  0  0  0  0
  143.0150   77.3940  218.4360 C   0  0  2  0  0  0  0  0  0  0  0  0
  142.5890   78.3930  217.5310 O   0  0  0  0  0  0  0  0  0  0  0  0
  142.9510   76.0900  217.7070 C   0  0  0  0  0  0  0  0  0  0  0  0
  142.5730   75.1070  218.7770 C   0  0  1  0  0  0  0  0  0  0  0  0
  143.7780   74.3630  219.2240 C   0  0  0  0  0  0  0  0  0  0  0  0
  144.2680   74.4650  220.5300 C   0  0  0  0  0  0  0  0  0  0  0  0
  145.3910   73.7650  220.9280 C   0  0  0  0  0  0  0  0  0  0  0  0
  146.0670   72.9430  220.0510 C   0  0  0  0  0  0  0  0  0  0  0  0
  145.5900   72.8510  218.7920 N   0  0  0  0  0  0  0  0  0  0  0  0
  144.4990   73.5240  218.3900 C   0  0  0  0  0  0  0  0  0  0  0  0
  140.2470   71.1980  223.4530 C   0  0  0  0  0  0  0  0  0  0  0  0
  139.5290   70.0250  223.5510 C   0  0  0  0  0  0  0  0  0  0  0  0
  139.2640   69.4580  224.7980 C   0  0  0  0  0  0  0  0  0  0  0  0
  139.7290   70.0810  225.9580 C   0  0  0  0  0  0  0  0  0  0  0  0
  139.4920   69.5570  227.2130 C   0  0  0  0  0  0  0  0  0  0  0  0
  139.9650   70.1970  228.3520 C   0  0  0  0  0  0  0  0  0  0  0  0
  140.6870   71.3820  228.2070 C   0  0  0  0  0  0  0  0  0  0  0  0
  140.9080   71.8810  226.9390 C   0  0  0  0  0  0  0  0  0  0  0  0
  140.4450   71.2580  225.7970 C   0  0  0  0  0  0  0  0  0  0  0  0
  140.6880   71.7870  224.5800 N   0  0  0  0  0  0  0  0  0  0  0  0
  140.1380   73.7670  222.8260 H   0  0  0  0  0  0  0  0  0  0  0  0
  141.3909   73.2435  220.1346 H   0  0  0  0  0  0  0  0  0  0  0  0
  139.7173   73.9353  220.1683 H   0  0  0  0  0  0  0  0  0  0  0  0
  141.0986   77.7223  219.3413 H   0  0  0  0  0  0  0  0  0  0  0  0
  142.4490   77.7849  220.4835 H   0  0  0  0  0  0  0  0  0  0  0  0
  144.0195   77.6508  218.8036 H   0  0  0  0  0  0  0  0  0  0  0  0
  143.3570   78.8400  217.1000 H   0  0  0  0  0  0  0  0  0  0  0  0
  142.1892   76.1200  216.9141 H   0  0  0  0  0  0  0  0  0  0  0  0
  143.8955   75.8337  217.2048 H   0  0  0  0  0  0  0  0  0  0  0  0
  141.8729   74.3442  218.4056 H   0  0  0  0  0  0  0  0  0  0  0  0
  143.7507   75.1134  221.2525 H   0  0  0  0  0  0  0  0  0  0  0  0
  145.7520   73.8652  221.9622 H   0  0  0  0  0  0  0  0  0  0  0  0
  146.9606   72.3839  220.3656 H   0  0  0  0  0  0  0  0  0  0  0  0
  144.1623   73.4032  217.3498 H   0  0  0  0  0  0  0  0  0  0  0  0
  139.1621   69.5322  222.6386 H   0  0  0  0  0  0  0  0  0  0  0  0
  138.6900   68.5222  224.8672 H   0  0  0  0  0  0  0  0  0  0  0  0
  138.9219   68.6216  227.3125 H   0  0  0  0  0  0  0  0  0  0  0  0
  139.7736   69.7768  229.3504 H   0  0  0  0  0  0  0  0  0  0  0  0
  141.0745   71.9110  229.0902 H   0  0  0  0  0  0  0  0  0  0  0  0
  141.4780   72.8159  226.8337 H   0  0  0  0  0  0  0  0  0  0  0  0
  1  2  2  0
  2  3  1  0
  3  4  1  0
  4  5  1  0
  5  6  2  0
  5  7  1  0
  7  8  1  0
  8  9  1  0
  9 10  1  0
  9 11  1  0
 11 12  1  0
 12 13  1  0
 13 14  2  0
 14 15  1  0
 15 16  2  0
 16 17  1  0
 17 18  2  0
  2 19  1  0
 19 20  2  0
 20 21  1  0
 21 22  2  0
 22 23  1  0
 23 24  2  0
 24 25  1  0
 25 26  2  0
 26 27  1  0
 27 28  2  0
 12  7  1  0
 18 13  1  0
 28 19  1  0
 27 22  1  0
  3 29  1  0
  4 30  1  0
  4 31  1  0
  8 32  1  0
  8 33  1  0
  9 34  1  1
 10 35  1  0
 11 36  1  0
 11 37  1  0
 12 38  1  6
 14 39  1  0
 15 40  1  0
 16 41  1  0
 18 42  1  0
 20 43  1  0
 21 44  1  0
 23 45  1  0
 24 46  1  0
 25 47  1  0
 26 48  1  0
M  END
>  <smiles>  (41) 
O=C(NCC(=O)N1C[C@H](O)C[C@H]1c1cccnc1)c1ccc2ccccc2n1

>  <score_type>  (41) 
oracle

>  <origin>  (41) 
autodockgpu

>  <m_score__min__energy>  (41) 
-8.9199999999999999

>  <m_primary>  (41) 
energy

>  <rmsd>  (41) 
2.4431390271427422

>  <m_score__min__rmsd>  (41) 
2.4431390271427422

>  <meeko>  (41) 
{"free_energy": -8.75, "intermolecular_energy": -10.54, "internal_energy": -1.75, "cluster_size": 29, "cluster_id": 1, "rank_in_cluster": 7}

>  <energy>  (41) 
-7.82

>  <cluster_rmsd>  (41) 
0.95

>  <cluster>  (41) 
4

$$$$

     RDKit          3D

 48 51  0  0  0  0  0  0  0  0999 V2000
  140.6880   71.4860  221.2430 O   0  0  0  0  0  0  0  0  0  0  0  0
  140.2780   72.0830  222.2690 C   0  0  0  0  0  0  0  0  0  0  0  0
  139.9220   73.4480  222.2270 N   0  0  0  0  0  0  0  0  0  0  0  0
  140.0110   74.2270  221.0050 C   0  0  0  0  0  0  0  0  0  0  0  0
  140.7260   75.5110  221.2300 C   0  0  0  0  0  0  0  0  0  0  0  0
  140.5420   76.1100  222.3250 O   0  0  0  0  0  0  0  0  0  0  0  0
  141.5800   76.0040  220.2070 N   0  0  0  0  0  0  0  0  0  0  0  0
  141.8590   77.4120  219.8980 C   0  0  0  0  0  0  0  0  0  0  0  0
  142.9470   77.3950  218.8680 C   0  0  2  0  0  0  0  0  0  0  0  0
  142.7040   78.3460  217.8510 O   0  0  0  0  0  0  0  0  0  0  0  0
  142.8860   76.0460  218.2280 C   0  0  0  0  0  0  0  0  0  0  0  0
  142.3140   75.1710  219.3040 C   0  0  1  0  0  0  0  0  0  0  0  0
  143.4010   74.3940  219.9510 C   0  0  0  0  0  0  0  0  0  0  0  0
  143.2820   73.0240  220.2060 C   0  0  0  0  0  0  0  0  0  0  0  0
  144.3050   72.3180  220.8090 C   0  0  0  0  0  0  0  0  0  0  0  0
  145.4770   72.9390  221.1810 C   0  0  0  0  0  0  0  0  0  0  0  0
  145.5860   74.2610  220.9340 N   0  0  0  0  0  0  0  0  0  0  0  0
  144.6010   74.9620  220.3480 C   0  0  0  0  0  0  0  0  0  0  0  0
  140.1610   71.3590  223.5480 C   0  0  0  0  0  0  0  0  0  0  0  0
  139.5660   70.1150  223.5880 C   0  0  0  0  0  0  0  0  0  0  0  0
  139.4520   69.4230  224.7940 C   0  0  0  0  0  0  0  0  0  0  0  0
  139.9440   69.9920  225.9720 C   0  0  0  0  0  0  0  0  0  0  0  0
  139.8530   69.3450  227.1870 C   0  0  0  0  0  0  0  0  0  0  0  0
  140.3500   69.9320  228.3440 C   0  0  0  0  0  0  0  0  0  0  0  0
  140.9450   71.1910  228.2570 C   0  0  0  0  0  0  0  0  0  0  0  0
  141.0200   71.8130  227.0280 C   0  0  0  0  0  0  0  0  0  0  0  0
  140.5320   71.2440  225.8680 C   0  0  0  0  0  0  0  0  0  0  0  0
  140.6300   71.8930  224.6900 N   0  0  0  0  0  0  0  0  0  0  0  0
  139.5820   73.9060  223.1230 H   0  0  0  0  0  0  0  0  0  0  0  0
  140.5541   73.6431  220.2473 H   0  0  0  0  0  0  0  0  0  0  0  0
  138.9900   74.4547  220.6650 H   0  0  0  0  0  0  0  0  0  0  0  0
  140.9594   77.9019  219.4971 H   0  0  0  0  0  0  0  0  0  0  0  0
  142.1595   77.9721  220.7958 H   0  0  0  0  0  0  0  0  0  0  0  0
  143.9138   77.6200  219.3420 H   0  0  0  0  0  0  0  0  0  0  0  0
  143.5480   78.6990  217.4790 H   0  0  0  0  0  0  0  0  0  0  0  0
  142.2317   76.0599  217.3438 H   0  0  0  0  0  0  0  0  0  0  0  0
  143.8661   75.6979  217.8699 H   0  0  0  0  0  0  0  0  0  0  0  0
  141.6157   74.4246  218.8976 H   0  0  0  0  0  0  0  0  0  0  0  0
  142.3579   72.4996  219.9215 H   0  0  0  0  0  0  0  0  0  0  0  0
  144.1815   71.2410  220.9954 H   0  0  0  0  0  0  0  0  0  0  0  0
  146.2928   72.3786  221.6610 H   0  0  0  0  0  0  0  0  0  0  0  0
  144.7543   76.0375  220.1752 H   0  0  0  0  0  0  0  0  0  0  0  0
  139.1785   69.6653  222.6619 H   0  0  0  0  0  0  0  0  0  0  0  0
  138.9759   68.4317  224.8178 H   0  0  0  0  0  0  0  0  0  0  0  0
  139.3814   68.3527  227.2404 H   0  0  0  0  0  0  0  0  0  0  0  0
  140.2757   69.4135  229.3113 H   0  0  0  0  0  0  0  0  0  0  0  0
  141.3485   71.6806  229.1556 H   0  0  0  0  0  0  0  0  0  0  0  0
  141.4893   72.8062  226.9693 H   0  0  0  0  0  0  0  0  0  0  0  0
  1  2  2  0
  2  3  1  0
  3  4  1  0
  4  5  1  0
  5  6  2  0
  5  7  1  0
  7  8  1  0
  8  9  1  0
  9 10  1  0
  9 11  1  0
 11 12  1  0
 12 13  1  0
 13 14  2  0
 14 15  1  0
 15 16  2  0
 16 17  1  0
 17 18  2  0
  2 19  1  0
 19 20  2  0
 20 21  1  0
 21 22  2  0
 22 23  1  0
 23 24  2  0
 24 25  1  0
 25 26  2  0
 26 27  1  0
 27 28  2  0
 12  7  1  0
 18 13  1  0
 28 19  1  0
 27 22  1  0
  3 29  1  0
  4 30  1  0
  4 31  1  0
  8 32  1  0
  8 33  1  0
  9 34  1  1
 10 35  1  0
 11 36  1  0
 11 37  1  0
 12 38  1  6
 14 39  1  0
 15 40  1  0
 16 41  1  0
 18 42  1  0
 20 43  1  0
 21 44  1  0
 23 45  1  0
 24 46  1  0
 25 47  1  0
 26 48  1  0
M  END
>  <smiles>  (42) 
O=C(NCC(=O)N1C[C@H](O)C[C@H]1c1cccnc1)c1ccc2ccccc2n1

>  <score_type>  (42) 
oracle

>  <origin>  (42) 
autodockgpu

>  <m_score__min__energy>  (42) 
-8.9199999999999999

>  <m_primary>  (42) 
energy

>  <rmsd>  (42) 
2.30824484739371

>  <m_score__min__rmsd>  (42) 
2.30824484739371

>  <meeko>  (42) 
{"free_energy": -8.57, "intermolecular_energy": -10.36, "internal_energy": -1.75, "cluster_size": 29, "cluster_id": 1, "rank_in_cluster": 21}

>  <energy>  (42) 
-7.81

>  <cluster_rmsd>  (42) 
0.95

>  <cluster>  (42) 
4

$$$$

     RDKit          3D

 48 51  0  0  0  0  0  0  0  0999 V2000
  139.6550   74.5330  222.3380 O   0  0  0  0  0  0  0  0  0  0  0  0
  140.2030   75.4390  221.6620 C   0  0  0  0  0  0  0  0  0  0  0  0
  140.7990   75.1600  220.4140 N   0  0  0  0  0  0  0  0  0  0  0  0
  140.8100   73.8220  219.8500 C   0  0  0  0  0  0  0  0  0  0  0  0
  141.7610   72.9360  220.5730 C   0  0  0  0  0  0  0  0  0  0  0  0
  141.2990   72.1670  221.4590 O   0  0  0  0  0  0  0  0  0  0  0  0
  143.1390   72.9960  220.2340 N   0  0  0  0  0  0  0  0  0  0  0  0
  143.9630   71.8990  219.7090 C   0  0  0  0  0  0  0  0  0  0  0  0
  145.2800   72.5170  219.3490 C   0  0  2  0  0  0  0  0  0  0  0  0
  146.3580   71.6910  219.7450 O   0  0  0  0  0  0  0  0  0  0  0  0
  145.3780   73.7740  220.1520 C   0  0  0  0  0  0  0  0  0  0  0  0
  143.9460   74.1710  220.3590 C   0  0  1  0  0  0  0  0  0  0  0  0
  143.5820   75.2540  219.4120 C   0  0  0  0  0  0  0  0  0  0  0  0
  143.5210   75.0400  218.0310 C   0  0  0  0  0  0  0  0  0  0  0  0
  143.1800   76.0610  217.1640 C   0  0  0  0  0  0  0  0  0  0  0  0
  142.8900   77.3250  217.6310 C   0  0  0  0  0  0  0  0  0  0  0  0
  142.9520   77.5260  218.9630 N   0  0  0  0  0  0  0  0  0  0  0  0
  143.2810   76.5440  219.8190 C   0  0  0  0  0  0  0  0  0  0  0  0
  140.2320   76.8240  222.1690 C   0  0  0  0  0  0  0  0  0  0  0  0
  139.0610   77.4530  222.5330 C   0  0  0  0  0  0  0  0  0  0  0  0
  139.0800   78.7630  223.0130 C   0  0  0  0  0  0  0  0  0  0  0  0
  140.2940   79.4440  223.1280 C   0  0  0  0  0  0  0  0  0  0  0  0
  140.3620   80.7400  223.5970 C   0  0  0  0  0  0  0  0  0  0  0  0
  141.5830   81.3960  223.7010 C   0  0  0  0  0  0  0  0  0  0  0  0
  142.7430   80.7210  223.3220 C   0  0  0  0  0  0  0  0  0  0  0  0
  142.6430   79.4260  222.8560 C   0  0  0  0  0  0  0  0  0  0  0  0
  141.4390   78.7590  222.7460 C   0  0  0  0  0  0  0  0  0  0  0  0
  141.3940   77.4930  222.2850 N   0  0  0  0  0  0  0  0  0  0  0  0
  141.2490   75.9620  219.8820 H   0  0  0  0  0  0  0  0  0  0  0  0
  139.7986   73.3953  219.9212 H   0  0  0  0  0  0  0  0  0  0  0  0
  141.1314   73.8915  218.8003 H   0  0  0  0  0  0  0  0  0  0  0  0
  144.1007   71.1221  220.4755 H   0  0  0  0  0  0  0  0  0  0  0  0
  143.4905   71.4160  218.8410 H   0  0  0  0  0  0  0  0  0  0  0  0
  145.3326   72.6767  218.2619 H   0  0  0  0  0  0  0  0  0  0  0  0
  146.3400   71.5160  220.7160 H   0  0  0  0  0  0  0  0  0  0  0  0
  145.8773   73.5877  221.1143 H   0  0  0  0  0  0  0  0  0  0  0  0
  145.9710   74.5551  219.6538 H   0  0  0  0  0  0  0  0  0  0  0  0
  143.7770   74.5853  221.3639 H   0  0  0  0  0  0  0  0  0  0  0  0
  143.7483   74.0420  217.6281 H   0  0  0  0  0  0  0  0  0  0  0  0
  143.1393   75.8614  216.0830 H   0  0  0  0  0  0  0  0  0  0  0  0
  142.6182   78.1391  216.9430 H   0  0  0  0  0  0  0  0  0  0  0  0
  143.3130   76.7750  220.8940 H   0  0  0  0  0  0  0  0  0  0  0  0
  138.1039   76.9181  222.4444 H   0  0  0  0  0  0  0  0  0  0  0  0
  138.1408   79.2584  223.3002 H   0  0  0  0  0  0  0  0  0  0  0  0
  139.4388   81.2602  223.8921 H   0  0  0  0  0  0  0  0  0  0  0  0
  141.6334   82.4291  224.0755 H   0  0  0  0  0  0  0  0  0  0  0  0
  143.7238   81.2139  223.3935 H   0  0  0  0  0  0  0  0  0  0  0  0
  143.5633   78.9018  222.5590 H   0  0  0  0  0  0  0  0  0  0  0  0
  1  2  2  0
  2  3  1  0
  3  4  1  0
  4  5  1  0
  5  6  2  0
  5  7  1  0
  7  8  1  0
  8  9  1  0
  9 10  1  0
  9 11  1  0
 11 12  1  0
 12 13  1  0
 13 14  2  0
 14 15  1  0
 15 16  2  0
 16 17  1  0
 17 18  2  0
  2 19  1  0
 19 20  2  0
 20 21  1  0
 21 22  2  0
 22 23  1  0
 23 24  2  0
 24 25  1  0
 25 26  2  0
 26 27  1  0
 27 28  2  0
 12  7  1  0
 18 13  1  0
 28 19  1  0
 27 22  1  0
  3 29  1  0
  4 30  1  0
  4 31  1  0
  8 32  1  0
  8 33  1  0
  9 34  1  6
 10 35  1  0
 11 36  1  0
 11 37  1  0
 12 38  1  1
 14 39  1  0
 15 40  1  0
 16 41  1  0
 18 42  1  0
 20 43  1  0
 21 44  1  0
 23 45  1  0
 24 46  1  0
 25 47  1  0
 26 48  1  0
M  END
>  <smiles>  (43) 
O=C(NCC(=O)N1C[C@H](O)C[C@H]1c1cccnc1)c1ccc2ccccc2n1

>  <score_type>  (43) 
oracle

>  <origin>  (43) 
autodockgpu

>  <m_score__min__energy>  (43) 
-8.9199999999999999

>  <m_primary>  (43) 
energy

>  <rmsd>  (43) 
7.615792451943968

>  <m_score__min__rmsd>  (43) 
7.615792451943968

>  <meeko>  (43) 
{"free_energy": -7.83, "intermolecular_energy": -9.62, "internal_energy": -1.92, "cluster_size": 15, "cluster_id": 4, "rank_in_cluster": 5}

>  <energy>  (43) 
-7.8

>  <cluster_rmsd>  (43) 
0.95

>  <cluster>  (43) 
4

$$$$

     RDKit          3D

 48 51  0  0  0  0  0  0  0  0999 V2000
  139.5790   74.6120  222.4210 O   0  0  0  0  0  0  0  0  0  0  0  0
  140.1820   75.4890  221.7540 C   0  0  0  0  0  0  0  0  0  0  0  0
  140.8320   75.1680  220.5440 N   0  0  0  0  0  0  0  0  0  0  0  0
  140.8380   73.8170  220.0110 C   0  0  0  0  0  0  0  0  0  0  0  0
  141.8090   72.9520  220.7330 C   0  0  0  0  0  0  0  0  0  0  0  0
  141.3770   72.2340  221.6760 O   0  0  0  0  0  0  0  0  0  0  0  0
  143.1710   72.9730  220.3310 N   0  0  0  0  0  0  0  0  0  0  0  0
  143.9470   71.8470  219.7980 C   0  0  0  0  0  0  0  0  0  0  0  0
  145.2590   72.4260  219.3630 C   0  0  2  0  0  0  0  0  0  0  0  0
  146.3360   71.5870  219.7310 O   0  0  0  0  0  0  0  0  0  0  0  0
  145.4190   73.7010  220.1280 C   0  0  0  0  0  0  0  0  0  0  0  0
  144.0070   74.1340  220.3900 C   0  0  1  0  0  0  0  0  0  0  0  0
  143.6220   75.2010  219.4320 C   0  0  0  0  0  0  0  0  0  0  0  0
  143.5500   74.9690  218.0550 C   0  0  0  0  0  0  0  0  0  0  0  0
  143.1900   75.9750  217.1780 C   0  0  0  0  0  0  0  0  0  0  0  0
  142.8920   77.2420  217.6320 C   0  0  0  0  0  0  0  0  0  0  0  0
  142.9650   77.4600  218.9610 N   0  0  0  0  0  0  0  0  0  0  0  0
  143.3130   76.4930  219.8260 C   0  0  0  0  0  0  0  0  0  0  0  0
  140.2190   76.8840  222.2310 C   0  0  0  0  0  0  0  0  0  0  0  0
  139.0470   77.5490  222.5210 C   0  0  0  0  0  0  0  0  0  0  0  0
  139.0740   78.8690  222.9730 C   0  0  0  0  0  0  0  0  0  0  0  0
  140.2970   79.5230  223.1350 C   0  0  0  0  0  0  0  0  0  0  0  0
  140.3730   80.8270  223.5800 C   0  0  0  0  0  0  0  0  0  0  0  0
  141.6030   81.4560  223.7320 C   0  0  0  0  0  0  0  0  0  0  0  0
  142.7640   80.7460  223.4270 C   0  0  0  0  0  0  0  0  0  0  0  0
  142.6560   79.4430  222.9850 C   0  0  0  0  0  0  0  0  0  0  0  0
  141.4430   78.8030  222.8280 C   0  0  0  0  0  0  0  0  0  0  0  0
  141.3900   77.5270  222.3920 N   0  0  0  0  0  0  0  0  0  0  0  0
  141.3280   75.9460  220.0180 H   0  0  0  0  0  0  0  0  0  0  0  0
  139.8306   73.3873  220.1141 H   0  0  0  0  0  0  0  0  0  0  0  0
  141.1366   73.8639  218.9533 H   0  0  0  0  0  0  0  0  0  0  0  0
  144.1033   71.0864  220.5772 H   0  0  0  0  0  0  0  0  0  0  0  0
  143.4254   71.3539  218.9645 H   0  0  0  0  0  0  0  0  0  0  0  0
  145.2660   72.5568  218.2708 H   0  0  0  0  0  0  0  0  0  0  0  0
  146.4220   71.5200  220.7120 H   0  0  0  0  0  0  0  0  0  0  0  0
  145.9583   73.5283  221.0710 H   0  0  0  0  0  0  0  0  0  0  0  0
  146.0038   74.4564  219.5827 H   0  0  0  0  0  0  0  0  0  0  0  0
  143.8929   74.5765  221.3906 H   0  0  0  0  0  0  0  0  0  0  0  0
  143.7840   73.9683  217.6627 H   0  0  0  0  0  0  0  0  0  0  0  0
  143.1405   75.7610  216.1001 H   0  0  0  0  0  0  0  0  0  0  0  0
  142.6055   78.0448  216.9367 H   0  0  0  0  0  0  0  0  0  0  0  0
  143.3546   76.7383  220.8975 H   0  0  0  0  0  0  0  0  0  0  0  0
  138.0826   77.0351  222.3951 H   0  0  0  0  0  0  0  0  0  0  0  0
  138.1341   79.3930  223.2011 H   0  0  0  0  0  0  0  0  0  0  0  0
  139.4492   81.3751  223.8172 H   0  0  0  0  0  0  0  0  0  0  0  0
  141.6598   82.4957  224.0867 H   0  0  0  0  0  0  0  0  0  0  0  0
  143.7516   81.2177  223.5371 H   0  0  0  0  0  0  0  0  0  0  0  0
  143.5769   78.8902  222.7474 H   0  0  0  0  0  0  0  0  0  0  0  0
  1  2  2  0
  2  3  1  0
  3  4  1  0
  4  5  1  0
  5  6  2  0
  5  7  1  0
  7  8  1  0
  8  9  1  0
  9 10  1  0
  9 11  1  0
 11 12  1  0
 12 13  1  0
 13 14  2  0
 14 15  1  0
 15 16  2  0
 16 17  1  0
 17 18  2  0
  2 19  1  0
 19 20  2  0
 20 21  1  0
 21 22  2  0
 22 23  1  0
 23 24  2  0
 24 25  1  0
 25 26  2  0
 26 27  1  0
 27 28  2  0
 12  7  1  0
 18 13  1  0
 28 19  1  0
 27 22  1  0
  3 29  1  0
  4 30  1  0
  4 31  1  0
  8 32  1  0
  8 33  1  0
  9 34  1  6
 10 35  1  0
 11 36  1  0
 11 37  1  0
 12 38  1  1
 14 39  1  0
 15 40  1  0
 16 41  1  0
 18 42  1  0
 20 43  1  0
 21 44  1  0
 23 45  1  0
 24 46  1  0
 25 47  1  0
 26 48  1  0
M  END
>  <smiles>  (44) 
O=C(NCC(=O)N1C[C@H](O)C[C@H]1c1cccnc1)c1ccc2ccccc2n1

>  <score_type>  (44) 
oracle

>  <origin>  (44) 
autodockgpu

>  <m_score__min__energy>  (44) 
-8.9199999999999999

>  <m_primary>  (44) 
energy

>  <rmsd>  (44) 
7.6531055570423

>  <m_score__min__rmsd>  (44) 
7.6531055570423

>  <meeko>  (44) 
{"free_energy": -7.85, "intermolecular_energy": -9.64, "internal_energy": -1.88, "cluster_size": 15, "cluster_id": 4, "rank_in_cluster": 2}

>  <energy>  (44) 
-7.8

>  <cluster_rmsd>  (44) 
0.95

>  <cluster>  (44) 
4

$$$$

     RDKit          3D

 48 51  0  0  0  0  0  0  0  0999 V2000
  140.9640   71.7560  221.2390 O   0  0  0  0  0  0  0  0  0  0  0  0
  140.4010   72.2630  222.2410 C   0  0  0  0  0  0  0  0  0  0  0  0
  139.9250   73.5910  222.2190 N   0  0  0  0  0  0  0  0  0  0  0  0
  140.0610   74.4350  221.0450 C   0  0  0  0  0  0  0  0  0  0  0  0
  141.0780   75.4990  221.2550 C   0  0  0  0  0  0  0  0  0  0  0  0
  141.1780   76.0050  222.4070 O   0  0  0  0  0  0  0  0  0  0  0  0
  141.8860   75.8960  220.1570 N   0  0  0  0  0  0  0  0  0  0  0  0
  142.1420   77.2700  219.7060 C   0  0  0  0  0  0  0  0  0  0  0  0
  143.1880   77.1600  218.6390 C   0  0  2  0  0  0  0  0  0  0  0  0
  142.8970   78.0100  217.5480 O   0  0  0  0  0  0  0  0  0  0  0  0
  143.1110   75.7560  218.1310 C   0  0  0  0  0  0  0  0  0  0  0  0
  142.5890   74.9840  219.3070 C   0  0  1  0  0  0  0  0  0  0  0  0
  143.7070   74.2760  219.9790 C   0  0  0  0  0  0  0  0  0  0  0  0
  143.7050   72.8880  220.1550 C   0  0  0  0  0  0  0  0  0  0  0  0
  144.7550   72.2460  220.7830 C   0  0  0  0  0  0  0  0  0  0  0  0
  145.8390   72.9510  221.2590 C   0  0  0  0  0  0  0  0  0  0  0  0
  145.8350   74.2890  221.0880 N   0  0  0  0  0  0  0  0  0  0  0  0
  144.8220   74.9280  220.4790 C   0  0  0  0  0  0  0  0  0  0  0  0
  140.2260   71.4670  223.4700 C   0  0  0  0  0  0  0  0  0  0  0  0
  139.5550   70.2630  223.4280 C   0  0  0  0  0  0  0  0  0  0  0  0
  139.3860   69.5050  224.5860 C   0  0  0  0  0  0  0  0  0  0  0  0
  139.9000   69.9660  225.8010 C   0  0  0  0  0  0  0  0  0  0  0  0
  139.7580   69.2500  226.9720 C   0  0  0  0  0  0  0  0  0  0  0  0
  140.2780   69.7320  228.1670 C   0  0  0  0  0  0  0  0  0  0  0  0
  140.9500   70.9540  228.1640 C   0  0  0  0  0  0  0  0  0  0  0  0
  141.0770   71.6460  226.9770 C   0  0  0  0  0  0  0  0  0  0  0  0
  140.5660   71.1830  225.7810 C   0  0  0  0  0  0  0  0  0  0  0  0
  140.7160   71.8980  224.6470 N   0  0  0  0  0  0  0  0  0  0  0  0
  139.4560   73.9720  223.0920 H   0  0  0  0  0  0  0  0  0  0  0  0
  140.3656   73.8128  220.1906 H   0  0  0  0  0  0  0  0  0  0  0  0
  139.0913   74.9171  220.8517 H   0  0  0  0  0  0  0  0  0  0  0  0
  141.2235   77.7167  219.2976 H   0  0  0  0  0  0  0  0  0  0  0  0
  142.4740   77.9132  220.5343 H   0  0  0  0  0  0  0  0  0  0  0  0
  144.1714   77.4319  219.0502 H   0  0  0  0  0  0  0  0  0  0  0  0
  143.6800   78.5600  217.3010 H   0  0  0  0  0  0  0  0  0  0  0  0
  142.4216   75.6845  217.2768 H   0  0  0  0  0  0  0  0  0  0  0  0
  144.0783   75.3791  217.7673 H   0  0  0  0  0  0  0  0  0  0  0  0
  141.8803   74.2001  219.0016 H   0  0  0  0  0  0  0  0  0  0  0  0
  142.8528   72.2977  219.7871 H   0  0  0  0  0  0  0  0  0  0  0  0
  144.7251   71.1532  220.9051 H   0  0  0  0  0  0  0  0  0  0  0  0
  146.6759   72.4420  221.7595 H   0  0  0  0  0  0  0  0  0  0  0  0
  144.8811   76.0212  220.3724 H   0  0  0  0  0  0  0  0  0  0  0  0
  139.1497   69.8975  222.4729 H   0  0  0  0  0  0  0  0  0  0  0  0
  138.8491   68.5459  224.5433 H   0  0  0  0  0  0  0  0  0  0  0  0
  139.2271   68.2867  226.9593 H   0  0  0  0  0  0  0  0  0  0  0  0
  140.1616   69.1597  229.0992 H   0  0  0  0  0  0  0  0  0  0  0  0
  141.3728   71.3604  229.0946 H   0  0  0  0  0  0  0  0  0  0  0  0
  141.6088   72.6089  226.9840 H   0  0  0  0  0  0  0  0  0  0  0  0
  1  2  2  0
  2  3  1  0
  3  4  1  0
  4  5  1  0
  5  6  2  0
  5  7  1  0
  7  8  1  0
  8  9  1  0
  9 10  1  0
  9 11  1  0
 11 12  1  0
 12 13  1  0
 13 14  2  0
 14 15  1  0
 15 16  2  0
 16 17  1  0
 17 18  2  0
  2 19  1  0
 19 20  2  0
 20 21  1  0
 21 22  2  0
 22 23  1  0
 23 24  2  0
 24 25  1  0
 25 26  2  0
 26 27  1  0
 27 28  2  0
 12  7  1  0
 18 13  1  0
 28 19  1  0
 27 22  1  0
  3 29  1  0
  4 30  1  0
  4 31  1  0
  8 32  1  0
  8 33  1  0
  9 34  1  1
 10 35  1  0
 11 36  1  0
 11 37  1  0
 12 38  1  6
 14 39  1  0
 15 40  1  0
 16 41  1  0
 18 42  1  0
 20 43  1  0
 21 44  1  0
 23 45  1  0
 24 46  1  0
 25 47  1  0
 26 48  1  0
M  END
>  <smiles>  (45) 
O=C(NCC(=O)N1C[C@H](O)C[C@H]1c1cccnc1)c1ccc2ccccc2n1

>  <score_type>  (45) 
oracle

>  <origin>  (45) 
autodockgpu

>  <m_score__min__energy>  (45) 
-8.9199999999999999

>  <m_primary>  (45) 
energy

>  <rmsd>  (45) 
2.3995461593727505

>  <m_score__min__rmsd>  (45) 
2.3995461593727505

>  <meeko>  (45) 
{"free_energy": -8.54, "intermolecular_energy": -10.33, "internal_energy": -1.6, "cluster_size": 29, "cluster_id": 1, "rank_in_cluster": 23}

>  <energy>  (45) 
-7.77

>  <cluster_rmsd>  (45) 
0.84

>  <cluster>  (45) 
4

$$$$

     RDKit          3D

 48 51  0  0  0  0  0  0  0  0999 V2000
  138.7290   75.2970  221.8650 O   0  0  0  0  0  0  0  0  0  0  0  0
  139.8980   75.7190  222.0480 C   0  0  0  0  0  0  0  0  0  0  0  0
  141.0140   74.8720  221.8810 N   0  0  0  0  0  0  0  0  0  0  0  0
  140.8710   73.4800  221.4940 C   0  0  0  0  0  0  0  0  0  0  0  0
  141.5500   73.2030  220.2010 C   0  0  0  0  0  0  0  0  0  0  0  0
  140.8470   72.7990  219.2350 O   0  0  0  0  0  0  0  0  0  0  0  0
  142.9540   73.4040  220.1120 N   0  0  0  0  0  0  0  0  0  0  0  0
  143.9560   72.4230  219.6770 C   0  0  0  0  0  0  0  0  0  0  0  0
  145.2490   73.1740  219.5880 C   0  0  2  0  0  0  0  0  0  0  0  0
  146.3190   72.4160  220.1170 O   0  0  0  0  0  0  0  0  0  0  0  0
  145.0880   74.3740  220.4650 C   0  0  0  0  0  0  0  0  0  0  0  0
  143.6110   74.6320  220.4420 C   0  0  1  0  0  0  0  0  0  0  0  0
  143.3090   75.7460  219.5090 C   0  0  0  0  0  0  0  0  0  0  0  0
  143.6320   75.6810  218.1490 C   0  0  0  0  0  0  0  0  0  0  0  0
  143.3440   76.7290  217.2960 C   0  0  0  0  0  0  0  0  0  0  0  0
  142.7280   77.8730  217.7550 C   0  0  0  0  0  0  0  0  0  0  0  0
  142.4200   77.9300  219.0660 N   0  0  0  0  0  0  0  0  0  0  0  0
  142.6930   76.9210  219.9100 C   0  0  0  0  0  0  0  0  0  0  0  0
  140.1240   77.1210  222.4430 C   0  0  0  0  0  0  0  0  0  0  0  0
  139.0520   77.9580  222.6740 C   0  0  0  0  0  0  0  0  0  0  0  0
  139.2580   79.2860  223.0480 C   0  0  0  0  0  0  0  0  0  0  0  0
  140.5590   79.7750  223.1910 C   0  0  0  0  0  0  0  0  0  0  0  0
  140.8100   81.0810  223.5600 C   0  0  0  0  0  0  0  0  0  0  0  0
  142.1140   81.5420  223.6950 C   0  0  0  0  0  0  0  0  0  0  0  0
  143.1680   80.6620  223.4520 C   0  0  0  0  0  0  0  0  0  0  0  0
  142.8840   79.3620  223.0850 C   0  0  0  0  0  0  0  0  0  0  0  0
  141.5960   78.8870  222.9460 C   0  0  0  0  0  0  0  0  0  0  0  0
  141.3710   77.6070  222.5850 N   0  0  0  0  0  0  0  0  0  0  0  0
  141.9820   75.2780  222.0490 H   0  0  0  0  0  0  0  0  0  0  0  0
  141.3147   72.8444  222.2744 H   0  0  0  0  0  0  0  0  0  0  0  0
  139.7993   73.2625  221.3753 H   0  0  0  0  0  0  0  0  0  0  0  0
  144.0366   71.6067  220.4100 H   0  0  0  0  0  0  0  0  0  0  0  0
  143.6850   71.9669  218.7134 H   0  0  0  0  0  0  0  0  0  0  0  0
  145.4695   73.4157  218.5378 H   0  0  0  0  0  0  0  0  0  0  0  0
  146.0240   71.8580  220.8760 H   0  0  0  0  0  0  0  0  0  0  0  0
  145.4338   74.1624  221.4875 H   0  0  0  0  0  0  0  0  0  0  0  0
  145.6779   75.2366  220.1216 H   0  0  0  0  0  0  0  0  0  0  0  0
  143.2359   74.9571  221.4236 H   0  0  0  0  0  0  0  0  0  0  0  0
  144.1235   74.7804  217.7524 H   0  0  0  0  0  0  0  0  0  0  0  0
  143.6111   76.6488  216.2319 H   0  0  0  0  0  0  0  0  0  0  0  0
  142.4964   78.7079  217.0773 H   0  0  0  0  0  0  0  0  0  0  0  0
  142.4147   77.0326  220.9684 H   0  0  0  0  0  0  0  0  0  0  0  0
  138.0268   77.5752  222.5624 H   0  0  0  0  0  0  0  0  0  0  0  0
  138.3978   79.9470  223.2300 H   0  0  0  0  0  0  0  0  0  0  0  0
  139.9689   81.7642  223.7492 H   0  0  0  0  0  0  0  0  0  0  0  0
  142.3114   82.5835  223.9886 H   0  0  0  0  0  0  0  0  0  0  0  0
  144.2104   80.9988  223.5513 H   0  0  0  0  0  0  0  0  0  0  0  0
  143.7213   78.6744  222.8950 H   0  0  0  0  0  0  0  0  0  0  0  0
  1  2  2  0
  2  3  1  0
  3  4  1  0
  4  5  1  0
  5  6  2  0
  5  7  1  0
  7  8  1  0
  8  9  1  0
  9 10  1  0
  9 11  1  0
 11 12  1  0
 12 13  1  0
 13 14  2  0
 14 15  1  0
 15 16  2  0
 16 17  1  0
 17 18  2  0
  2 19  1  0
 19 20  2  0
 20 21  1  0
 21 22  2  0
 22 23  1  0
 23 24  2  0
 24 25  1  0
 25 26  2  0
 26 27  1  0
 27 28  2  0
 12  7  1  0
 18 13  1  0
 28 19  1  0
 27 22  1  0
  3 29  1  0
  4 30  1  0
  4 31  1  0
  8 32  1  0
  8 33  1  0
  9 34  1  6
 10 35  1  0
 11 36  1  0
 11 37  1  0
 12 38  1  1
 14 39  1  0
 15 40  1  0
 16 41  1  0
 18 42  1  0
 20 43  1  0
 21 44  1  0
 23 45  1  0
 24 46  1  0
 25 47  1  0
 26 48  1  0
M  END
>  <smiles>  (46) 
O=C(NCC(=O)N1C[C@H](O)C[C@H]1c1cccnc1)c1ccc2ccccc2n1

>  <score_type>  (46) 
oracle

>  <origin>  (46) 
autodockgpu

>  <m_score__min__energy>  (46) 
-8.9199999999999999

>  <m_primary>  (46) 
energy

>  <rmsd>  (46) 
7.67076602041836

>  <m_score__min__rmsd>  (46) 
7.67076602041836

>  <meeko>  (46) 
{"free_energy": -7.76, "intermolecular_energy": -9.55, "internal_energy": -2.1, "cluster_size": 15, "cluster_id": 4, "rank_in_cluster": 13}

>  <energy>  (46) 
-7.77

>  <cluster_rmsd>  (46) 
0.95

>  <cluster>  (46) 
4

$$$$

     RDKit          3D

 48 51  0  0  0  0  0  0  0  0999 V2000
  139.9040   71.0760  221.1050 O   0  0  0  0  0  0  0  0  0  0  0  0
  140.2580   71.7250  222.1210 C   0  0  0  0  0  0  0  0  0  0  0  0
  140.7630   73.0370  222.0110 N   0  0  0  0  0  0  0  0  0  0  0  0
  140.8990   73.7020  220.7270 C   0  0  0  0  0  0  0  0  0  0  0  0
  141.4140   75.0880  220.8850 C   0  0  0  0  0  0  0  0  0  0  0  0
  141.1770   75.6900  221.9680 O   0  0  0  0  0  0  0  0  0  0  0  0
  142.1450   75.6700  219.8140 N   0  0  0  0  0  0  0  0  0  0  0  0
  142.2940   77.1020  219.5280 C   0  0  0  0  0  0  0  0  0  0  0  0
  143.2940   77.1930  218.4170 C   0  0  2  0  0  0  0  0  0  0  0  0
  142.9020   78.1480  217.4510 O   0  0  0  0  0  0  0  0  0  0  0  0
  143.2810   75.8590  217.7420 C   0  0  0  0  0  0  0  0  0  0  0  0
  142.8630   74.9170  218.8320 C   0  0  1  0  0  0  0  0  0  0  0  0
  144.0530   74.2090  219.3680 C   0  0  0  0  0  0  0  0  0  0  0  0
  144.4430   74.3250  220.7070 C   0  0  0  0  0  0  0  0  0  0  0  0
  145.5530   73.6590  221.1880 C   0  0  0  0  0  0  0  0  0  0  0  0
  146.3160   72.8580  220.3660 C   0  0  0  0  0  0  0  0  0  0  0  0
  145.9350   72.7500  219.0760 N   0  0  0  0  0  0  0  0  0  0  0  0
  144.8580   73.3910  218.5920 C   0  0  0  0  0  0  0  0  0  0  0  0
  140.1500   71.1160  223.4600 C   0  0  0  0  0  0  0  0  0  0  0  0
  139.5450   69.8870  223.6160 C   0  0  0  0  0  0  0  0  0  0  0  0
  139.4390   69.3050  224.8790 C   0  0  0  0  0  0  0  0  0  0  0  0
  139.9490   69.9690  225.9970 C   0  0  0  0  0  0  0  0  0  0  0  0
  139.8680   69.4320  227.2660 C   0  0  0  0  0  0  0  0  0  0  0  0
  140.3830   70.1150  228.3610 C   0  0  0  0  0  0  0  0  0  0  0  0
  140.9870   71.3550  228.1570 C   0  0  0  0  0  0  0  0  0  0  0  0
  141.0540   71.8660  226.8770 C   0  0  0  0  0  0  0  0  0  0  0  0
  140.5470   71.2020  225.7780 C   0  0  0  0  0  0  0  0  0  0  0  0
  140.6370   71.7440  224.5460 N   0  0  0  0  0  0  0  0  0  0  0  0
  141.0490   73.5420  222.9010 H   0  0  0  0  0  0  0  0  0  0  0  0
  141.5985   73.1297  220.1000 H   0  0  0  0  0  0  0  0  0  0  0  0
  139.9057   73.7535  220.2572 H   0  0  0  0  0  0  0  0  0  0  0  0
  141.3317   77.5322  219.2136 H   0  0  0  0  0  0  0  0  0  0  0  0
  142.6232   77.6607  220.4165 H   0  0  0  0  0  0  0  0  0  0  0  0
  144.2762   77.4788  218.8216 H   0  0  0  0  0  0  0  0  0  0  0  0
  143.6770   78.6560  217.1100 H   0  0  0  0  0  0  0  0  0  0  0  0
  142.5586   75.8454  216.9126 H   0  0  0  0  0  0  0  0  0  0  0  0
  144.2520   75.5950  217.2976 H   0  0  0  0  0  0  0  0  0  0  0  0
  142.1911   74.1298  218.4593 H   0  0  0  0  0  0  0  0  0  0  0  0
  143.8551   74.9577  221.3882 H   0  0  0  0  0  0  0  0  0  0  0  0
  145.8331   73.7698  222.2459 H   0  0  0  0  0  0  0  0  0  0  0  0
  147.2011   72.3274  220.7467 H   0  0  0  0  0  0  0  0  0  0  0  0
  144.6035   73.2602  217.5299 H   0  0  0  0  0  0  0  0  0  0  0  0
  139.1428   69.3613  222.7374 H   0  0  0  0  0  0  0  0  0  0  0  0
  138.9544   68.3243  224.9945 H   0  0  0  0  0  0  0  0  0  0  0  0
  139.3902   68.4520  227.4121 H   0  0  0  0  0  0  0  0  0  0  0  0
  140.3154   69.6849  229.3712 H   0  0  0  0  0  0  0  0  0  0  0  0
  141.4043   71.9182  229.0048 H   0  0  0  0  0  0  0  0  0  0  0  0
  141.5322   72.8450  226.7257 H   0  0  0  0  0  0  0  0  0  0  0  0
  1  2  2  0
  2  3  1  0
  3  4  1  0
  4  5  1  0
  5  6  2  0
  5  7  1  0
  7  8  1  0
  8  9  1  0
  9 10  1  0
  9 11  1  0
 11 12  1  0
 12 13  1  0
 13 14  2  0
 14 15  1  0
 15 16  2  0
 16 17  1  0
 17 18  2  0
  2 19  1  0
 19 20  2  0
 20 21  1  0
 21 22  2  0
 22 23  1  0
 23 24  2  0
 24 25  1  0
 25 26  2  0
 26 27  1  0
 27 28  2  0
 12  7  1  0
 18 13  1  0
 28 19  1  0
 27 22  1  0
  3 29  1  0
  4 30  1  0
  4 31  1  0
  8 32  1  0
  8 33  1  0
  9 34  1  1
 10 35  1  0
 11 36  1  0
 11 37  1  0
 12 38  1  6
 14 39  1  0
 15 40  1  0
 16 41  1  0
 18 42  1  0
 20 43  1  0
 21 44  1  0
 23 45  1  0
 24 46  1  0
 25 47  1  0
 26 48  1  0
M  END
>  <smiles>  (47) 
O=C(NCC(=O)N1C[C@H](O)C[C@H]1c1cccnc1)c1ccc2ccccc2n1

>  <score_type>  (47) 
oracle

>  <origin>  (47) 
autodockgpu

>  <m_score__min__energy>  (47) 
-8.9199999999999999

>  <m_primary>  (47) 
energy

>  <rmsd>  (47) 
2.542027390061396

>  <m_score__min__rmsd>  (47) 
2.542027390061396

>  <meeko>  (47) 
{"free_energy": -8.75, "intermolecular_energy": -10.54, "internal_energy": -1.86, "cluster_size": 29, "cluster_id": 1, "rank_in_cluster": 8}

>  <energy>  (47) 
-7.76

>  <cluster_rmsd>  (47) 
0.91

>  <cluster>  (47) 
4

$$$$

     RDKit          3D

 48 51  0  0  0  0  0  0  0  0999 V2000
  138.7780   75.7240  221.1670 O   0  0  0  0  0  0  0  0  0  0  0  0
  139.9460   76.0870  221.4520 C   0  0  0  0  0  0  0  0  0  0  0  0
  141.0540   75.2510  221.1960 N   0  0  0  0  0  0  0  0  0  0  0  0
  140.9020   73.9380  220.5950 C   0  0  0  0  0  0  0  0  0  0  0  0
  141.9160   72.9820  221.1130 C   0  0  0  0  0  0  0  0  0  0  0  0
  141.5760   72.2020  222.0440 O   0  0  0  0  0  0  0  0  0  0  0  0
  143.2170   72.9910  220.5410 N   0  0  0  0  0  0  0  0  0  0  0  0
  143.9510   71.8350  220.0120 C   0  0  0  0  0  0  0  0  0  0  0  0
  145.1820   72.3960  219.3670 C   0  0  2  0  0  0  0  0  0  0  0  0
  146.3190   71.6110  219.6640 O   0  0  0  0  0  0  0  0  0  0  0  0
  145.4000   73.7360  219.9920 C   0  0  0  0  0  0  0  0  0  0  0  0
  144.0200   74.1660  220.3930 C   0  0  1  0  0  0  0  0  0  0  0  0
  143.4890   75.1380  219.4040 C   0  0  0  0  0  0  0  0  0  0  0  0
  143.3840   76.5030  219.6900 C   0  0  0  0  0  0  0  0  0  0  0  0
  142.8860   77.3920  218.7570 C   0  0  0  0  0  0  0  0  0  0  0  0
  142.4760   76.9640  217.5130 C   0  0  0  0  0  0  0  0  0  0  0  0
  142.5790   75.6460  217.2430 N   0  0  0  0  0  0  0  0  0  0  0  0
  143.0600   74.7690  218.1390 C   0  0  0  0  0  0  0  0  0  0  0  0
  140.1800   77.4070  222.0660 C   0  0  0  0  0  0  0  0  0  0  0  0
  139.1150   78.1740  222.4880 C   0  0  0  0  0  0  0  0  0  0  0  0
  139.3280   79.4240  223.0690 C   0  0  0  0  0  0  0  0  0  0  0  0
  140.6300   79.9050  223.2270 C   0  0  0  0  0  0  0  0  0  0  0  0
  140.8890   81.1350  223.7960 C   0  0  0  0  0  0  0  0  0  0  0  0
  142.1940   81.5900  223.9410 C   0  0  0  0  0  0  0  0  0  0  0  0
  143.2410   80.7810  223.5010 C   0  0  0  0  0  0  0  0  0  0  0  0
  142.9500   79.5570  222.9360 C   0  0  0  0  0  0  0  0  0  0  0  0
  141.6610   79.0890  222.7840 C   0  0  0  0  0  0  0  0  0  0  0  0
  141.4280   77.8830  222.2250 N   0  0  0  0  0  0  0  0  0  0  0  0
  142.0210   75.6050  221.4570 H   0  0  0  0  0  0  0  0  0  0  0  0
  139.8975   73.5534  220.8252 H   0  0  0  0  0  0  0  0  0  0  0  0
  141.0434   74.0368  219.5086 H   0  0  0  0  0  0  0  0  0  0  0  0
  144.2241   71.1485  220.8270 H   0  0  0  0  0  0  0  0  0  0  0  0
  143.3435   71.2615  219.2965 H   0  0  0  0  0  0  0  0  0  0  0  0
  145.0490   72.4303  218.2756 H   0  0  0  0  0  0  0  0  0  0  0  0
  146.4080   71.4590  220.6360 H   0  0  0  0  0  0  0  0  0  0  0  0
  146.0578   73.6576  220.8702 H   0  0  0  0  0  0  0  0  0  0  0  0
  145.8902   74.4498  219.3136 H   0  0  0  0  0  0  0  0  0  0  0  0
  144.0187   74.6932  221.3584 H   0  0  0  0  0  0  0  0  0  0  0  0
  143.7034   76.8752  220.6746 H   0  0  0  0  0  0  0  0  0  0  0  0
  142.8156   78.4598  219.0116 H   0  0  0  0  0  0  0  0  0  0  0  0
  142.0798   77.6700  216.7683 H   0  0  0  0  0  0  0  0  0  0  0  0
  143.1161   73.7077  217.8555 H   0  0  0  0  0  0  0  0  0  0  0  0
  138.0889   77.7971  222.3655 H   0  0  0  0  0  0  0  0  0  0  0  0
  138.4725   80.0299  223.4021 H   0  0  0  0  0  0  0  0  0  0  0  0
  140.0531   81.7625  224.1387 H   0  0  0  0  0  0  0  0  0  0  0  0
  142.3975   82.5711  224.3949 H   0  0  0  0  0  0  0  0  0  0  0  0
  144.2843   81.1143  223.6031 H   0  0  0  0  0  0  0  0  0  0  0  0
  143.7824   78.9259  222.5913 H   0  0  0  0  0  0  0  0  0  0  0  0
  1  2  2  0
  2  3  1  0
  3  4  1  0
  4  5  1  0
  5  6  2  0
  5  7  1  0
  7  8  1  0
  8  9  1  0
  9 10  1  0
  9 11  1  0
 11 12  1  0
 12 13  1  0
 13 14  2  0
 14 15  1  0
 15 16  2  0
 16 17  1  0
 17 18  2  0
  2 19  1  0
 19 20  2  0
 20 21  1  0
 21 22  2  0
 22 23  1  0
 23 24  2  0
 24 25  1  0
 25 26  2  0
 26 27  1  0
 27 28  2  0
 12  7  1  0
 18 13  1  0
 28 19  1  0
 27 22  1  0
  3 29  1  0
  4 30  1  0
  4 31  1  0
  8 32  1  0
  8 33  1  0
  9 34  1  6
 10 35  1  0
 11 36  1  0
 11 37  1  0
 12 38  1  1
 14 39  1  0
 15 40  1  0
 16 41  1  0
 18 42  1  0
 20 43  1  0
 21 44  1  0
 23 45  1  0
 24 46  1  0
 25 47  1  0
 26 48  1  0
M  END
>  <smiles>  (48) 
O=C(NCC(=O)N1C[C@H](O)C[C@H]1c1cccnc1)c1ccc2ccccc2n1

>  <score_type>  (48) 
oracle

>  <origin>  (48) 
autodockgpu

>  <m_score__min__energy>  (48) 
-8.9199999999999999

>  <m_primary>  (48) 
energy

>  <rmsd>  (48) 
7.846457598751985

>  <m_score__min__rmsd>  (48) 
7.846457598751985

>  <meeko>  (48) 
{"free_energy": -7.69, "intermolecular_energy": -9.48, "internal_energy": -1.89, "cluster_size": 15, "cluster_id": 4, "rank_in_cluster": 14}

>  <energy>  (48) 
-7.69

>  <cluster_rmsd>  (48) 
0.78

>  <cluster>  (48) 
4

$$$$

     RDKit          3D

 48 51  0  0  0  0  0  0  0  0999 V2000
  140.5160   70.9500  221.0860 O   0  0  0  0  0  0  0  0  0  0  0  0
  140.4410   71.6980  222.0920 C   0  0  0  0  0  0  0  0  0  0  0  0
  140.5720   73.0980  221.9740 N   0  0  0  0  0  0  0  0  0  0  0  0
  140.8000   73.7420  220.6920 C   0  0  0  0  0  0  0  0  0  0  0  0
  141.4060   75.0890  220.8610 C   0  0  0  0  0  0  0  0  0  0  0  0
  141.2420   75.6800  221.9640 O   0  0  0  0  0  0  0  0  0  0  0  0
  142.1370   75.6480  219.7790 N   0  0  0  0  0  0  0  0  0  0  0  0
  142.2940   77.0740  219.4680 C   0  0  0  0  0  0  0  0  0  0  0  0
  143.2930   77.1400  218.3530 C   0  0  2  0  0  0  0  0  0  0  0  0
  142.9030   78.0810  217.3720 O   0  0  0  0  0  0  0  0  0  0  0  0
  143.2710   75.7950  217.7010 C   0  0  0  0  0  0  0  0  0  0  0  0
  142.8500   74.8740  218.8080 C   0  0  1  0  0  0  0  0  0  0  0  0
  144.0360   74.1690  219.3540 C   0  0  0  0  0  0  0  0  0  0  0  0
  144.4160   74.2870  220.6950 C   0  0  0  0  0  0  0  0  0  0  0  0
  145.5240   73.6230  221.1850 C   0  0  0  0  0  0  0  0  0  0  0  0
  146.2940   72.8220  220.3690 C   0  0  0  0  0  0  0  0  0  0  0  0
  145.9240   72.7140  219.0760 N   0  0  0  0  0  0  0  0  0  0  0  0
  144.8490   73.3520  218.5840 C   0  0  0  0  0  0  0  0  0  0  0  0
  140.2110   71.1180  223.4280 C   0  0  0  0  0  0  0  0  0  0  0  0
  139.5350   69.9230  223.5580 C   0  0  0  0  0  0  0  0  0  0  0  0
  139.3130   69.3680  224.8180 C   0  0  0  0  0  0  0  0  0  0  0  0
  139.7800   70.0240  225.9600 C   0  0  0  0  0  0  0  0  0  0  0  0
  139.5850   69.5120  227.2270 C   0  0  0  0  0  0  0  0  0  0  0  0
  140.0600   70.1850  228.3460 C   0  0  0  0  0  0  0  0  0  0  0  0
  140.7400   71.3900  228.1680 C   0  0  0  0  0  0  0  0  0  0  0  0
  140.9190   71.8760  226.8890 C   0  0  0  0  0  0  0  0  0  0  0  0
  140.4540   71.2210  225.7660 C   0  0  0  0  0  0  0  0  0  0  0  0
  140.6550   71.7380  224.5370 N   0  0  0  0  0  0  0  0  0  0  0  0
  140.5010   73.6860  222.8560 H   0  0  0  0  0  0  0  0  0  0  0  0
  141.4788   73.1169  220.0933 H   0  0  0  0  0  0  0  0  0  0  0  0
  139.8300   73.8600  220.1868 H   0  0  0  0  0  0  0  0  0  0  0  0
  141.3336   77.5045  219.1481 H   0  0  0  0  0  0  0  0  0  0  0  0
  142.6284   77.6459  220.3461 H   0  0  0  0  0  0  0  0  0  0  0  0
  144.2780   77.4265  218.7500 H   0  0  0  0  0  0  0  0  0  0  0  0
  143.6660   78.6380  217.0840 H   0  0  0  0  0  0  0  0  0  0  0  0
  142.5467   75.7714  216.8734 H   0  0  0  0  0  0  0  0  0  0  0  0
  144.2395   75.5180  217.2592 H   0  0  0  0  0  0  0  0  0  0  0  0
  142.1734   74.0842  218.4496 H   0  0  0  0  0  0  0  0  0  0  0  0
  143.8222   74.9196  221.3713 H   0  0  0  0  0  0  0  0  0  0  0  0
  145.7965   73.7354  222.2448 H   0  0  0  0  0  0  0  0  0  0  0  0
  147.1760   72.2914  220.7570 H   0  0  0  0  0  0  0  0  0  0  0  0
  144.6024   73.2199  217.5202 H   0  0  0  0  0  0  0  0  0  0  0  0
  139.1680   69.4034  222.6606 H   0  0  0  0  0  0  0  0  0  0  0  0
  138.7712   68.4154  224.9127 H   0  0  0  0  0  0  0  0  0  0  0  0
  139.0475   68.5605  227.3522 H   0  0  0  0  0  0  0  0  0  0  0  0
  139.9026   69.7748  229.3545 H   0  0  0  0  0  0  0  0  0  0  0  0
  141.1280   71.9449  229.0349 H   0  0  0  0  0  0  0  0  0  0  0  0
  141.4558   72.8272  226.7583 H   0  0  0  0  0  0  0  0  0  0  0  0
  1  2  2  0
  2  3  1  0
  3  4  1  0
  4  5  1  0
  5  6  2  0
  5  7  1  0
  7  8  1  0
  8  9  1  0
  9 10  1  0
  9 11  1  0
 11 12  1  0
 12 13  1  0
 13 14  2  0
 14 15  1  0
 15 16  2  0
 16 17  1  0
 17 18  2  0
  2 19  1  0
 19 20  2  0
 20 21  1  0
 21 22  2  0
 22 23  1  0
 23 24  2  0
 24 25  1  0
 25 26  2  0
 26 27  1  0
 27 28  2  0
 12  7  1  0
 18 13  1  0
 28 19  1  0
 27 22  1  0
  3 29  1  0
  4 30  1  0
  4 31  1  0
  8 32  1  0
  8 33  1  0
  9 34  1  1
 10 35  1  0
 11 36  1  0
 11 37  1  0
 12 38  1  6
 14 39  1  0
 15 40  1  0
 16 41  1  0
 18 42  1  0
 20 43  1  0
 21 44  1  0
 23 45  1  0
 24 46  1  0
 25 47  1  0
 26 48  1  0
M  END
>  <smiles>  (49) 
O=C(NCC(=O)N1C[C@H](O)C[C@H]1c1cccnc1)c1ccc2ccccc2n1

>  <score_type>  (49) 
oracle

>  <origin>  (49) 
autodockgpu

>  <m_score__min__energy>  (49) 
-8.9199999999999999

>  <m_primary>  (49) 
energy

>  <rmsd>  (49) 
2.5336797245735614

>  <m_score__min__rmsd>  (49) 
2.5336797245735614

>  <meeko>  (49) 
{"free_energy": -8.76, "intermolecular_energy": -10.55, "internal_energy": -1.84, "cluster_size": 29, "cluster_id": 1, "rank_in_cluster": 6}

>  <energy>  (49) 
-7.48

>  <cluster_rmsd>  (49) 
0.49

>  <cluster>  (49) 
4

$$$$

     RDKit          3D

 48 51  0  0  0  0  0  0  0  0999 V2000
  140.6620   71.4450  221.2400 O   0  0  0  0  0  0  0  0  0  0  0  0
  140.2750   72.0400  222.2760 C   0  0  0  0  0  0  0  0  0  0  0  0
  139.9340   73.4100  222.2470 N   0  0  0  0  0  0  0  0  0  0  0  0
  140.0140   74.1950  221.0290 C   0  0  0  0  0  0  0  0  0  0  0  0
  140.7490   75.4690  221.2500 C   0  0  0  0  0  0  0  0  0  0  0  0
  140.5820   76.0680  222.3480 O   0  0  0  0  0  0  0  0  0  0  0  0
  141.6010   75.9520  220.2210 N   0  0  0  0  0  0  0  0  0  0  0  0
  141.8860   77.3570  219.9040 C   0  0  0  0  0  0  0  0  0  0  0  0
  142.9700   77.3280  218.8700 C   0  0  2  0  0  0  0  0  0  0  0  0
  142.7280   78.2750  217.8480 O   0  0  0  0  0  0  0  0  0  0  0  0
  142.8990   75.9760  218.2370 C   0  0  0  0  0  0  0  0  0  0  0  0
  142.3280   75.1090  219.3200 C   0  0  1  0  0  0  0  0  0  0  0  0
  143.4130   74.3310  219.9670 C   0  0  0  0  0  0  0  0  0  0  0  0
  143.2850   72.9650  220.2380 C   0  0  0  0  0  0  0  0  0  0  0  0
  144.3070   72.2570  220.8420 C   0  0  0  0  0  0  0  0  0  0  0  0
  145.4870   72.8730  221.1980 C   0  0  0  0  0  0  0  0  0  0  0  0
  145.6040   74.1910  220.9360 N   0  0  0  0  0  0  0  0  0  0  0  0
  144.6210   74.8940  220.3500 C   0  0  0  0  0  0  0  0  0  0  0  0
  140.1680   71.3090  223.5520 C   0  0  0  0  0  0  0  0  0  0  0  0
  139.5820   70.0620  223.5890 C   0  0  0  0  0  0  0  0  0  0  0  0
  139.4770   69.3640  224.7920 C   0  0  0  0  0  0  0  0  0  0  0  0
  139.9710   69.9300  225.9700 C   0  0  0  0  0  0  0  0  0  0  0  0
  139.8900   69.2770  227.1830 C   0  0  0  0  0  0  0  0  0  0  0  0
  140.3880   69.8630  228.3410 C   0  0  0  0  0  0  0  0  0  0  0  0
  140.9740   71.1260  228.2570 C   0  0  0  0  0  0  0  0  0  0  0  0
  141.0400   71.7530  227.0300 C   0  0  0  0  0  0  0  0  0  0  0  0
  140.5500   71.1870  225.8700 C   0  0  0  0  0  0  0  0  0  0  0  0
  140.6390   71.8420  224.6940 N   0  0  0  0  0  0  0  0  0  0  0  0
  139.6130   73.8660  223.1510 H   0  0  0  0  0  0  0  0  0  0  0  0
  140.5378   73.6088  220.2595 H   0  0  0  0  0  0  0  0  0  0  0  0
  138.9907   74.4379  220.7066 H   0  0  0  0  0  0  0  0  0  0  0  0
  140.9876   77.8497  219.5040 H   0  0  0  0  0  0  0  0  0  0  0  0
  142.1925   77.9205  220.7976 H   0  0  0  0  0  0  0  0  0  0  0  0
  143.9397   77.5499  219.3395 H   0  0  0  0  0  0  0  0  0  0  0  0
  143.5710   78.6520  217.4990 H   0  0  0  0  0  0  0  0  0  0  0  0
  142.2404   75.9889  217.3560 H   0  0  0  0  0  0  0  0  0  0  0  0
  143.8756   75.6213  217.8759 H   0  0  0  0  0  0  0  0  0  0  0  0
  141.6255   74.3625  218.9209 H   0  0  0  0  0  0  0  0  0  0  0  0
  142.3547   72.4449  219.9658 H   0  0  0  0  0  0  0  0  0  0  0  0
  144.1761   71.1833  221.0419 H   0  0  0  0  0  0  0  0  0  0  0  0
  146.3023   72.3115  221.6775 H   0  0  0  0  0  0  0  0  0  0  0  0
  144.7817   75.9664  220.1653 H   0  0  0  0  0  0  0  0  0  0  0  0
  139.1941   69.6137  222.6624 H   0  0  0  0  0  0  0  0  0  0  0  0
  139.0063   68.3700  224.8133 H   0  0  0  0  0  0  0  0  0  0  0  0
  139.4259   68.2810  227.2342 H   0  0  0  0  0  0  0  0  0  0  0  0
  140.3211   69.3400  229.3064 H   0  0  0  0  0  0  0  0  0  0  0  0
  141.3776   71.6149  229.1560 H   0  0  0  0  0  0  0  0  0  0  0  0
  141.5039   72.7488  226.9733 H   0  0  0  0  0  0  0  0  0  0  0  0
  1  2  2  0
  2  3  1  0
  3  4  1  0
  4  5  1  0
  5  6  2  0
  5  7  1  0
  7  8  1  0
  8  9  1  0
  9 10  1  0
  9 11  1  0
 11 12  1  0
 12 13  1  0
 13 14  2  0
 14 15  1  0
 15 16  2  0
 16 17  1  0
 17 18  2  0
  2 19  1  0
 19 20  2  0
 20 21  1  0
 21 22  2  0
 22 23  1  0
 23 24  2  0
 24 25  1  0
 25 26  2  0
 26 27  1  0
 27 28  2  0
 12  7  1  0
 18 13  1  0
 28 19  1  0
 27 22  1  0
  3 29  1  0
  4 30  1  0
  4 31  1  0
  8 32  1  0
  8 33  1  0
  9 34  1  1
 10 35  1  0
 11 36  1  0
 11 37  1  0
 12 38  1  6
 14 39  1  0
 15 40  1  0
 16 41  1  0
 18 42  1  0
 20 43  1  0
 21 44  1  0
 23 45  1  0
 24 46  1  0
 25 47  1  0
 26 48  1  0
M  END
>  <smiles>  (50) 
O=C(NCC(=O)N1C[C@H](O)C[C@H]1c1cccnc1)c1ccc2ccccc2n1

>  <score_type>  (50) 
oracle

>  <origin>  (50) 
autodockgpu

>  <m_score__min__energy>  (50) 
-8.9199999999999999

>  <m_primary>  (50) 
energy

>  <rmsd>  (50) 
2.3043892359692726

>  <m_score__min__rmsd>  (50) 
2.3043892359692726

>  <meeko>  (50) 
{"free_energy": -8.56, "intermolecular_energy": -10.35, "internal_energy": -1.76, "cluster_size": 29, "cluster_id": 1, "rank_in_cluster": 22}

>  <energy>  (50) 
-7.62

>  <cluster_rmsd>  (50) 
0.0

>  <cluster>  (50) 
5

$$$$
