
     RDKit          3D

 59 62  0  0  0  0  0  0  0  0999 V2000
  139.5030   74.7380  222.1520 O   0  0  0  0  0  0  0  0  0  0  0  0
  140.6550   74.9970  221.7820 C   0  0  0  0  0  0  0  0  0  0  0  0
  141.1510   76.3120  221.8710 N   0  0  0  0  0  0  0  0  0  0  0  0
  140.4370   77.4580  222.3650 C   0  0  0  0  0  0  0  0  0  0  0  0
  141.3720   78.5380  222.8320 C   0  0  0  0  0  0  0  0  0  0  0  0
  142.0360   78.4150  223.8760 O   0  0  0  0  0  0  0  0  0  0  0  0
  141.4560   79.7190  222.0050 N   0  0  0  0  0  0  0  0  0  0  0  0
  141.8160   81.0180  222.5800 C   0  0  0  0  0  0  0  0  0  0  0  0
  140.7170   81.9750  222.0810 C   0  0  0  0  0  0  0  0  0  0  0  0
  141.0610   82.1320  220.5960 C   0  0  0  0  0  0  0  0  0  0  0  0
  140.6670   80.8570  219.9460 C   0  0  0  0  0  0  0  0  0  0  0  0
  141.1480   79.5950  220.6290 C   0  0  1  0  0  0  0  0  0  0  0  0
  142.0770   78.8300  219.7460 C   0  0  0  0  0  0  0  0  0  0  0  0
  141.8980   77.4190  219.6310 N   0  0  0  0  0  0  0  0  0  0  0  0
  143.1910   76.7620  219.3300 C   0  0  0  0  0  0  0  0  0  0  0  0
  143.3220   76.3770  217.8860 C   0  0  0  0  0  0  0  0  0  0  0  0
  142.2760   75.3390  217.4930 C   0  0  0  0  0  0  0  0  0  0  0  0
  141.0410   75.5830  218.3540 C   0  0  0  0  0  0  0  0  0  0  0  0
  140.9950   77.1120  218.5120 C   0  0  0  0  0  0  0  0  0  0  0  0
  141.5410   73.9440  221.2400 C   0  0  0  0  0  0  0  0  0  0  0  0
  141.1330   72.6660  221.0140 C   0  0  0  0  0  0  0  0  0  0  0  0
  141.9740   71.6960  220.5120 C   0  0  0  0  0  0  0  0  0  0  0  0
  143.2910   72.0600  220.2320 C   0  0  0  0  0  0  0  0  0  0  0  0
  144.1650   71.1200  219.7270 C   0  0  0  0  0  0  0  0  0  0  0  0
  145.4640   71.5200  219.4600 C   0  0  0  0  0  0  0  0  0  0  0  0
  146.3640   70.6140  218.9590 F   0  0  0  0  0  0  0  0  0  0  0  0
  145.8800   72.8150  219.6880 C   0  0  0  0  0  0  0  0  0  0  0  0
  145.0100   73.7650  220.1940 C   0  0  0  0  0  0  0  0  0  0  0  0
  143.7120   73.3550  220.4580 C   0  0  0  0  0  0  0  0  0  0  0  0
  142.8320   74.2400  220.9490 N   0  0  0  0  0  0  0  0  0  0  0  0
  142.1370   76.4710  221.5470 H   0  0  0  0  0  0  0  0  0  0  0  0
  139.8045   77.8583  221.5590 H   0  0  0  0  0  0  0  0  0  0  0  0
  139.8276   77.1380  223.2231 H   0  0  0  0  0  0  0  0  0  0  0  0
  141.8205   80.9695  223.6789 H   0  0  0  0  0  0  0  0  0  0  0  0
  142.8233   81.3441  222.2818 H   0  0  0  0  0  0  0  0  0  0  0  0
  139.7174   81.5353  222.2129 H   0  0  0  0  0  0  0  0  0  0  0  0
  140.6866   82.9296  222.6268 H   0  0  0  0  0  0  0  0  0  0  0  0
  140.4998   82.9720  220.1607 H   0  0  0  0  0  0  0  0  0  0  0  0
  142.1307   82.3436  220.4511 H   0  0  0  0  0  0  0  0  0  0  0  0
  139.5682   80.8227  219.9080 H   0  0  0  0  0  0  0  0  0  0  0  0
  141.1481   80.8641  218.9568 H   0  0  0  0  0  0  0  0  0  0  0  0
  140.2869   78.9206  220.7457 H   0  0  0  0  0  0  0  0  0  0  0  0
  141.9858   79.2526  218.7345 H   0  0  0  0  0  0  0  0  0  0  0  0
  143.0593   78.9389  220.2290 H   0  0  0  0  0  0  0  0  0  0  0  0
  144.0059   77.4556  219.5847 H   0  0  0  0  0  0  0  0  0  0  0  0
  143.2415   75.8389  219.9261 H   0  0  0  0  0  0  0  0  0  0  0  0
  143.1893   77.2735  217.2625 H   0  0  0  0  0  0  0  0  0  0  0  0
  144.3198   75.9405  217.7319 H   0  0  0  0  0  0  0  0  0  0  0  0
  142.0195   75.4487  216.4290 H   0  0  0  0  0  0  0  0  0  0  0  0
  142.6625   74.3212  217.6500 H   0  0  0  0  0  0  0  0  0  0  0  0
  140.1347   75.2142  217.8514 H   0  0  0  0  0  0  0  0  0  0  0  0
  141.0873   75.0584  219.3197 H   0  0  0  0  0  0  0  0  0  0  0  0
  141.3424   77.6041  217.5916 H   0  0  0  0  0  0  0  0  0  0  0  0
  139.9730   77.4719  218.7019 H   0  0  0  0  0  0  0  0  0  0  0  0
  140.0910   72.3961  221.2408 H   0  0  0  0  0  0  0  0  0  0  0  0
  141.6185   70.6697  220.3381 H   0  0  0  0  0  0  0  0  0  0  0  0
  143.8406   70.0853  219.5421 H   0  0  0  0  0  0  0  0  0  0  0  0
  146.9194   73.0972  219.4642 H   0  0  0  0  0  0  0  0  0  0  0  0
  145.3340   74.7999  220.3786 H   0  0  0  0  0  0  0  0  0  0  0  0
  1  2  2  0
  2  3  1  0
  3  4  1  0
  4  5  1  0
  5  6  2  0
  5  7  1  0
  7  8  1  0
  8  9  1  0
  9 10  1  0
 10 11  1  0
 11 12  1  0
 12 13  1  0
 13 14  1  0
 14 15  1  0
 15 16  1  0
 16 17  1  0
 17 18  1  0
 18 19  1  0
  2 20  1  0
 20 21  2  0
 21 22  1  0
 22 23  2  0
 23 24  1  0
 24 25  2  0
 25 26  1  0
 25 27  1  0
 27 28  2  0
 28 29  1  0
 29 30  2  0
 12  7  1  0
 19 14  1  0
 30 20  1  0
 29 23  1  0
  3 31  1  0
  4 32  1  0
  4 33  1  0
  8 34  1  0
  8 35  1  0
  9 36  1  0
  9 37  1  0
 10 38  1  0
 10 39  1  0
 11 40  1  0
 11 41  1  0
 12 42  1  1
 13 43  1  0
 13 44  1  0
 15 45  1  0
 15 46  1  0
 16 47  1  0
 16 48  1  0
 17 49  1  0
 17 50  1  0
 18 51  1  0
 18 52  1  0
 19 53  1  0
 19 54  1  0
 21 55  1  0
 22 56  1  0
 24 57  1  0
 27 58  1  0
 28 59  1  0
M  END
>  <smiles>  (1) 
O=C(NCC(=O)N1CCCC[C@H]1CN1CCCCC1)c1ccc2cc(F)ccc2n1

>  <score_type>  (1) 
oracle

>  <origin>  (1) 
autodockgpu

>  <m_score__min__energy>  (1) 
-8.6999999999999993

>  <m_primary>  (1) 
energy

>  <rmsd>  (1) 
6.483568814778917

>  <m_score__min__rmsd>  (1) 
6.483568814778917

>  <meeko>  (1) 
{"free_energy": -6.56, "intermolecular_energy": -8.35, "internal_energy": -3.52, "cluster_size": 8, "cluster_id": 7, "rank_in_cluster": 3}

>  <energy>  (1) 
-8.7

>  <cluster_rmsd>  (1) 
0.0

>  <cluster>  (1) 
1

$$$$

     RDKit          3D

 59 62  0  0  0  0  0  0  0  0999 V2000
  139.4910   74.7820  222.1620 O   0  0  0  0  0  0  0  0  0  0  0  0
  140.6440   75.0340  221.7910 C   0  0  0  0  0  0  0  0  0  0  0  0
  141.1480   76.3450  221.8840 N   0  0  0  0  0  0  0  0  0  0  0  0
  140.4430   77.4950  222.3830 C   0  0  0  0  0  0  0  0  0  0  0  0
  141.3850   78.5830  222.8130 C   0  0  0  0  0  0  0  0  0  0  0  0
  142.0690   78.4790  223.8460 O   0  0  0  0  0  0  0  0  0  0  0  0
  141.4510   79.7500  221.9640 N   0  0  0  0  0  0  0  0  0  0  0  0
  141.8000   81.0630  222.5140 C   0  0  0  0  0  0  0  0  0  0  0  0
  140.6880   81.9990  222.0040 C   0  0  0  0  0  0  0  0  0  0  0  0
  141.0210   82.1330  220.5150 C   0  0  0  0  0  0  0  0  0  0  0  0
  140.6380   80.8420  219.8900 C   0  0  0  0  0  0  0  0  0  0  0  0
  141.1360   79.5980  220.5930 C   0  0  1  0  0  0  0  0  0  0  0  0
  142.0680   78.8270  219.7180 C   0  0  0  0  0  0  0  0  0  0  0  0
  141.8870   77.4160  219.6090 N   0  0  0  0  0  0  0  0  0  0  0  0
  143.1800   76.7560  219.3120 C   0  0  0  0  0  0  0  0  0  0  0  0
  143.3120   76.3650  217.8690 C   0  0  0  0  0  0  0  0  0  0  0  0
  142.2650   75.3280  217.4790 C   0  0  0  0  0  0  0  0  0  0  0  0
  141.0290   75.5770  218.3380 C   0  0  0  0  0  0  0  0  0  0  0  0
  140.9850   77.1060  218.4900 C   0  0  0  0  0  0  0  0  0  0  0  0
  141.5230   73.9770  221.2440 C   0  0  0  0  0  0  0  0  0  0  0  0
  141.0990   72.7100  220.9890 C   0  0  0  0  0  0  0  0  0  0  0  0
  141.9330   71.7360  220.4830 C   0  0  0  0  0  0  0  0  0  0  0  0
  143.2590   72.0850  220.2280 C   0  0  0  0  0  0  0  0  0  0  0  0
  144.1270   71.1410  219.7200 C   0  0  0  0  0  0  0  0  0  0  0  0
  145.4360   71.5260  219.4800 C   0  0  0  0  0  0  0  0  0  0  0  0
  146.3300   70.6150  218.9760 F   0  0  0  0  0  0  0  0  0  0  0  0
  145.8670   72.8100  219.7370 C   0  0  0  0  0  0  0  0  0  0  0  0
  145.0050   73.7650  220.2470 C   0  0  0  0  0  0  0  0  0  0  0  0
  143.6970   73.3690  220.4840 C   0  0  0  0  0  0  0  0  0  0  0  0
  142.8220   74.2590  220.9770 N   0  0  0  0  0  0  0  0  0  0  0  0
  142.1350   76.5000  221.5580 H   0  0  0  0  0  0  0  0  0  0  0  0
  139.7886   77.8838  221.5889 H   0  0  0  0  0  0  0  0  0  0  0  0
  139.8573   77.1831  223.2603 H   0  0  0  0  0  0  0  0  0  0  0  0
  141.8108   81.0342  223.6136 H   0  0  0  0  0  0  0  0  0  0  0  0
  142.8022   81.3946  222.2047 H   0  0  0  0  0  0  0  0  0  0  0  0
  139.6940   81.5511  222.1499 H   0  0  0  0  0  0  0  0  0  0  0  0
  140.6509   82.9630  222.5325 H   0  0  0  0  0  0  0  0  0  0  0  0
  140.4474   82.9585  220.0683 H   0  0  0  0  0  0  0  0  0  0  0  0
  142.0873   82.3541  220.3598 H   0  0  0  0  0  0  0  0  0  0  0  0
  139.5395   80.7950  219.8581 H   0  0  0  0  0  0  0  0  0  0  0  0
  141.1144   80.8365  218.8985 H   0  0  0  0  0  0  0  0  0  0  0  0
  140.2826   78.9172  220.7277 H   0  0  0  0  0  0  0  0  0  0  0  0
  141.9823   79.2449  218.7041 H   0  0  0  0  0  0  0  0  0  0  0  0
  143.0482   78.9365  220.2051 H   0  0  0  0  0  0  0  0  0  0  0  0
  143.9955   77.4495  219.5648 H   0  0  0  0  0  0  0  0  0  0  0  0
  143.2289   75.8352  219.9118 H   0  0  0  0  0  0  0  0  0  0  0  0
  143.1817   77.2593  217.2419 H   0  0  0  0  0  0  0  0  0  0  0  0
  144.3092   75.9260  217.7177 H   0  0  0  0  0  0  0  0  0  0  0  0
  142.0098   75.4343  216.4143 H   0  0  0  0  0  0  0  0  0  0  0  0
  142.6497   74.3102  217.6403 H   0  0  0  0  0  0  0  0  0  0  0  0
  140.1227   75.2076  217.8358 H   0  0  0  0  0  0  0  0  0  0  0  0
  141.0735   75.0560  219.3058 H   0  0  0  0  0  0  0  0  0  0  0  0
  141.3343   77.5941  217.5682 H   0  0  0  0  0  0  0  0  0  0  0  0
  139.9633   77.4681  218.6772 H   0  0  0  0  0  0  0  0  0  0  0  0
  140.0495   72.4525  221.1946 H   0  0  0  0  0  0  0  0  0  0  0  0
  141.5651   70.7180  220.2870 H   0  0  0  0  0  0  0  0  0  0  0  0
  143.7904   70.1146  219.5120 H   0  0  0  0  0  0  0  0  0  0  0  0
  146.9137   73.0800  219.5333 H   0  0  0  0  0  0  0  0  0  0  0  0
  145.3418   74.7913  220.4549 H   0  0  0  0  0  0  0  0  0  0  0  0
  1  2  2  0
  2  3  1  0
  3  4  1  0
  4  5  1  0
  5  6  2  0
  5  7  1  0
  7  8  1  0
  8  9  1  0
  9 10  1  0
 10 11  1  0
 11 12  1  0
 12 13  1  0
 13 14  1  0
 14 15  1  0
 15 16  1  0
 16 17  1  0
 17 18  1  0
 18 19  1  0
  2 20  1  0
 20 21  2  0
 21 22  1  0
 22 23  2  0
 23 24  1  0
 24 25  2  0
 25 26  1  0
 25 27  1  0
 27 28  2  0
 28 29  1  0
 29 30  2  0
 12  7  1  0
 19 14  1  0
 30 20  1  0
 29 23  1  0
  3 31  1  0
  4 32  1  0
  4 33  1  0
  8 34  1  0
  8 35  1  0
  9 36  1  0
  9 37  1  0
 10 38  1  0
 10 39  1  0
 11 40  1  0
 11 41  1  0
 12 42  1  1
 13 43  1  0
 13 44  1  0
 15 45  1  0
 15 46  1  0
 16 47  1  0
 16 48  1  0
 17 49  1  0
 17 50  1  0
 18 51  1  0
 18 52  1  0
 19 53  1  0
 19 54  1  0
 21 55  1  0
 22 56  1  0
 24 57  1  0
 27 58  1  0
 28 59  1  0
M  END
>  <smiles>  (2) 
O=C(NCC(=O)N1CCCC[C@H]1CN1CCCCC1)c1ccc2cc(F)ccc2n1

>  <score_type>  (2) 
oracle

>  <origin>  (2) 
autodockgpu

>  <m_score__min__energy>  (2) 
-8.6999999999999993

>  <m_primary>  (2) 
energy

>  <rmsd>  (2) 
6.480037897068068

>  <m_score__min__rmsd>  (2) 
6.480037897068068

>  <meeko>  (2) 
{"free_energy": -6.53, "intermolecular_energy": -8.32, "internal_energy": -3.53, "cluster_size": 8, "cluster_id": 7, "rank_in_cluster": 5}

>  <energy>  (2) 
-8.65

>  <cluster_rmsd>  (2) 
1.94

>  <cluster>  (2) 
1

$$$$

     RDKit          3D

 59 62  0  0  0  0  0  0  0  0999 V2000
  141.1570   72.1680  221.3360 O   0  0  0  0  0  0  0  0  0  0  0  0
  140.3530   72.4180  222.2420 C   0  0  0  0  0  0  0  0  0  0  0  0
  139.5680   73.5850  222.1920 N   0  0  0  0  0  0  0  0  0  0  0  0
  139.5910   74.5830  221.1570 C   0  0  0  0  0  0  0  0  0  0  0  0
  140.2030   75.8680  221.6350 C   0  0  0  0  0  0  0  0  0  0  0  0
  139.8580   76.3930  222.7080 O   0  0  0  0  0  0  0  0  0  0  0  0
  141.2110   76.4570  220.7840 N   0  0  0  0  0  0  0  0  0  0  0  0
  141.4110   77.9090  220.7450 C   0  0  0  0  0  0  0  0  0  0  0  0
  141.3800   78.2590  219.2450 C   0  0  0  0  0  0  0  0  0  0  0  0
  142.7150   77.6990  218.7440 C   0  0  0  0  0  0  0  0  0  0  0  0
  142.5560   76.2240  218.7120 C   0  0  0  0  0  0  0  0  0  0  0  0
  141.9780   75.5970  219.9620 C   0  0  1  0  0  0  0  0  0  0  0  0
  142.9630   74.6750  220.6010 C   0  0  0  0  0  0  0  0  0  0  0  0
  144.1080   74.2770  219.8500 N   0  0  0  0  0  0  0  0  0  0  0  0
  143.8160   73.0410  219.0860 C   0  0  0  0  0  0  0  0  0  0  0  0
  144.4060   71.8160  219.7210 C   0  0  0  0  0  0  0  0  0  0  0  0
  145.9280   71.8860  219.7490 C   0  0  0  0  0  0  0  0  0  0  0  0
  146.3190   73.3570  219.8620 C   0  0  0  0  0  0  0  0  0  0  0  0
  145.2240   73.9640  220.7540 C   0  0  0  0  0  0  0  0  0  0  0  0
  140.1910   71.5070  223.3970 C   0  0  0  0  0  0  0  0  0  0  0  0
  139.5830   70.2930  223.3110 C   0  0  0  0  0  0  0  0  0  0  0  0
  139.4370   69.4590  224.3990 C   0  0  0  0  0  0  0  0  0  0  0  0
  139.9390   69.8950  225.6250 C   0  0  0  0  0  0  0  0  0  0  0  0
  139.8150   69.0900  226.7380 C   0  0  0  0  0  0  0  0  0  0  0  0
  140.3270   69.5580  227.9370 C   0  0  0  0  0  0  0  0  0  0  0  0
  140.2220   68.7870  229.0680 F   0  0  0  0  0  0  0  0  0  0  0  0
  140.9450   70.7880  228.0250 C   0  0  0  0  0  0  0  0  0  0  0  0
  141.0740   71.6030  226.9140 C   0  0  0  0  0  0  0  0  0  0  0  0
  140.5580   71.1260  225.7190 C   0  0  0  0  0  0  0  0  0  0  0  0
  140.6600   71.8790  224.6130 N   0  0  0  0  0  0  0  0  0  0  0  0
  138.8990   73.7430  222.9860 H   0  0  0  0  0  0  0  0  0  0  0  0
  140.1788   74.2026  220.3086 H   0  0  0  0  0  0  0  0  0  0  0  0
  138.5528   74.7893  220.8578 H   0  0  0  0  0  0  0  0  0  0  0  0
  140.6037   78.4278  221.2827 H   0  0  0  0  0  0  0  0  0  0  0  0
  142.3501   78.2164  221.2283 H   0  0  0  0  0  0  0  0  0  0  0  0
  140.5314   77.7731  218.7412 H   0  0  0  0  0  0  0  0  0  0  0  0
  141.2552   79.3342  219.0489 H   0  0  0  0  0  0  0  0  0  0  0  0
  142.9354   78.0812  217.7364 H   0  0  0  0  0  0  0  0  0  0  0  0
  143.5475   77.9995  219.3971 H   0  0  0  0  0  0  0  0  0  0  0  0
  141.8922   75.9742  217.8712 H   0  0  0  0  0  0  0  0  0  0  0  0
  143.5729   75.8158  218.6156 H   0  0  0  0  0  0  0  0  0  0  0  0
  141.1553   74.9316  219.6614 H   0  0  0  0  0  0  0  0  0  0  0  0
  143.3285   75.1711  221.5122 H   0  0  0  0  0  0  0  0  0  0  0  0
  142.4008   73.7414  220.7504 H   0  0  0  0  0  0  0  0  0  0  0  0
  142.7250   72.9148  219.0241 H   0  0  0  0  0  0  0  0  0  0  0  0
  144.2694   73.1506  218.0898 H   0  0  0  0  0  0  0  0  0  0  0  0
  144.0321   71.7313  220.7520 H   0  0  0  0  0  0  0  0  0  0  0  0
  144.1094   70.9393  219.1265 H   0  0  0  0  0  0  0  0  0  0  0  0
  146.3135   71.3276  220.6148 H   0  0  0  0  0  0  0  0  0  0  0  0
  146.3525   71.4419  218.8366 H   0  0  0  0  0  0  0  0  0  0  0  0
  147.3087   73.4639  220.3300 H   0  0  0  0  0  0  0  0  0  0  0  0
  146.3913   73.8528  218.8828 H   0  0  0  0  0  0  0  0  0  0  0  0
  144.9070   73.2404  221.5195 H   0  0  0  0  0  0  0  0  0  0  0  0
  145.5808   74.8583  221.2858 H   0  0  0  0  0  0  0  0  0  0  0  0
  139.1931   69.9644  222.3363 H   0  0  0  0  0  0  0  0  0  0  0  0
  138.9409   68.4819  224.3033 H   0  0  0  0  0  0  0  0  0  0  0  0
  139.3249   68.1072  226.6755 H   0  0  0  0  0  0  0  0  0  0  0  0
  141.3416   71.1265  228.9936 H   0  0  0  0  0  0  0  0  0  0  0  0
  141.5643   72.5857  226.9764 H   0  0  0  0  0  0  0  0  0  0  0  0
  1  2  2  0
  2  3  1  0
  3  4  1  0
  4  5  1  0
  5  6  2  0
  5  7  1  0
  7  8  1  0
  8  9  1  0
  9 10  1  0
 10 11  1  0
 11 12  1  0
 12 13  1  0
 13 14  1  0
 14 15  1  0
 15 16  1  0
 16 17  1  0
 17 18  1  0
 18 19  1  0
  2 20  1  0
 20 21  2  0
 21 22  1  0
 22 23  2  0
 23 24  1  0
 24 25  2  0
 25 26  1  0
 25 27  1  0
 27 28  2  0
 28 29  1  0
 29 30  2  0
 12  7  1  0
 19 14  1  0
 30 20  1  0
 29 23  1  0
  3 31  1  0
  4 32  1  0
  4 33  1  0
  8 34  1  0
  8 35  1  0
  9 36  1  0
  9 37  1  0
 10 38  1  0
 10 39  1  0
 11 40  1  0
 11 41  1  0
 12 42  1  6
 13 43  1  0
 13 44  1  0
 15 45  1  0
 15 46  1  0
 16 47  1  0
 16 48  1  0
 17 49  1  0
 17 50  1  0
 18 51  1  0
 18 52  1  0
 19 53  1  0
 19 54  1  0
 21 55  1  0
 22 56  1  0
 24 57  1  0
 27 58  1  0
 28 59  1  0
M  END
>  <smiles>  (3) 
O=C(NCC(=O)N1CCCC[C@H]1CN1CCCCC1)c1ccc2cc(F)ccc2n1

>  <score_type>  (3) 
oracle

>  <origin>  (3) 
autodockgpu

>  <m_score__min__energy>  (3) 
-8.6999999999999993

>  <m_primary>  (3) 
energy

>  <rmsd>  (3) 
4.664914141539591

>  <m_score__min__rmsd>  (3) 
4.664914141539591

>  <meeko>  (3) 
{"free_energy": -8.29, "intermolecular_energy": -10.08, "internal_energy": -1.79, "cluster_size": 5, "cluster_id": 4, "rank_in_cluster": 2}

>  <energy>  (3) 
-8.65

>  <cluster_rmsd>  (3) 
1.99

>  <cluster>  (3) 
1

$$$$

     RDKit          3D

 59 62  0  0  0  0  0  0  0  0999 V2000
  138.5530   71.3840  221.1680 O   0  0  0  0  0  0  0  0  0  0  0  0
  139.0750   71.8360  222.1940 C   0  0  0  0  0  0  0  0  0  0  0  0
  139.5060   73.1760  222.2400 N   0  0  0  0  0  0  0  0  0  0  0  0
  139.4100   74.1370  221.1750 C   0  0  0  0  0  0  0  0  0  0  0  0
  140.4320   75.2290  221.3160 C   0  0  0  0  0  0  0  0  0  0  0  0
  141.1170   75.3490  222.3460 O   0  0  0  0  0  0  0  0  0  0  0  0
  140.5750   76.1250  220.1920 N   0  0  0  0  0  0  0  0  0  0  0  0
  140.4190   75.6420  218.8170 C   0  0  0  0  0  0  0  0  0  0  0  0
  141.6780   76.1470  218.0880 C   0  0  0  0  0  0  0  0  0  0  0  0
  141.4160   77.6510  217.9730 C   0  0  0  0  0  0  0  0  0  0  0  0
  141.6120   78.2090  219.3340 C   0  0  0  0  0  0  0  0  0  0  0  0
  140.9050   77.4760  220.4530 C   0  0  1  0  0  0  0  0  0  0  0  0
  139.8910   78.3540  221.1090 C   0  0  0  0  0  0  0  0  0  0  0  0
  140.2450   79.0110  222.3250 N   0  0  0  0  0  0  0  0  0  0  0  0
  140.7050   80.3920  222.0450 C   0  0  0  0  0  0  0  0  0  0  0  0
  142.1990   80.5260  222.1010 C   0  0  0  0  0  0  0  0  0  0  0  0
  142.7290   80.2320  223.5000 C   0  0  0  0  0  0  0  0  0  0  0  0
  141.7930   79.2130  224.1410 C   0  0  0  0  0  0  0  0  0  0  0  0
  141.3660   78.3120  222.9700 C   0  0  0  0  0  0  0  0  0  0  0  0
  139.2620   70.9930  223.3950 C   0  0  0  0  0  0  0  0  0  0  0  0
  138.8190   69.7100  223.4840 C   0  0  0  0  0  0  0  0  0  0  0  0
  138.9990   68.9400  224.6140 C   0  0  0  0  0  0  0  0  0  0  0  0
  139.6640   69.5180  225.6950 C   0  0  0  0  0  0  0  0  0  0  0  0
  139.8670   68.7810  226.8440 C   0  0  0  0  0  0  0  0  0  0  0  0
  140.5320   69.3900  227.8950 C   0  0  0  0  0  0  0  0  0  0  0  0
  140.7510   68.6910  229.0560 F   0  0  0  0  0  0  0  0  0  0  0  0
  140.9830   70.6900  227.8060 C   0  0  0  0  0  0  0  0  0  0  0  0
  140.7850   71.4370  226.6580 C   0  0  0  0  0  0  0  0  0  0  0  0
  140.1170   70.8190  225.6110 C   0  0  0  0  0  0  0  0  0  0  0  0
  139.9030   71.5020  224.4760 N   0  0  0  0  0  0  0  0  0  0  0  0
  139.9380   73.5060  223.1390 H   0  0  0  0  0  0  0  0  0  0  0  0
  139.5685   73.6226  220.2157 H   0  0  0  0  0  0  0  0  0  0  0  0
  138.4111   74.5957  221.2170 H   0  0  0  0  0  0  0  0  0  0  0  0
  140.3702   74.5433  218.7936 H   0  0  0  0  0  0  0  0  0  0  0  0
  139.4909   76.0021  218.3490 H   0  0  0  0  0  0  0  0  0  0  0  0
  142.5853   75.9458  218.6765 H   0  0  0  0  0  0  0  0  0  0  0  0
  141.8483   75.6570  217.1180 H   0  0  0  0  0  0  0  0  0  0  0  0
  142.1246   78.1089  217.2671 H   0  0  0  0  0  0  0  0  0  0  0  0
  140.4022   77.8544  217.5978 H   0  0  0  0  0  0  0  0  0  0  0  0
  142.6902   78.1981  219.5514 H   0  0  0  0  0  0  0  0  0  0  0  0
  141.1711   79.2165  219.3107 H   0  0  0  0  0  0  0  0  0  0  0  0
  141.6374   77.2823  221.2506 H   0  0  0  0  0  0  0  0  0  0  0  0
  139.6207   79.1359  220.3841 H   0  0  0  0  0  0  0  0  0  0  0  0
  139.0851   77.6642  221.4000 H   0  0  0  0  0  0  0  0  0  0  0  0
  140.3630   80.6802  221.0400 H   0  0  0  0  0  0  0  0  0  0  0  0
  140.2827   81.0473  222.8211 H   0  0  0  0  0  0  0  0  0  0  0  0
  142.6493   79.8169  221.3908 H   0  0  0  0  0  0  0  0  0  0  0  0
  142.4651   81.5607  221.8390 H   0  0  0  0  0  0  0  0  0  0  0  0
  143.7467   79.8193  223.4368 H   0  0  0  0  0  0  0  0  0  0  0  0
  142.7683   81.1528  224.1004 H   0  0  0  0  0  0  0  0  0  0  0  0
  142.3185   78.6299  224.9116 H   0  0  0  0  0  0  0  0  0  0  0  0
  140.9372   79.6837  224.6470 H   0  0  0  0  0  0  0  0  0  0  0  0
  142.1973   78.1828  222.2614 H   0  0  0  0  0  0  0  0  0  0  0  0
  141.0776   77.3072  223.3123 H   0  0  0  0  0  0  0  0  0  0  0  0
  138.2972   69.2697  222.6216 H   0  0  0  0  0  0  0  0  0  0  0  0
  138.6304   67.9047  224.6610 H   0  0  0  0  0  0  0  0  0  0  0  0
  139.5119   67.7429  226.9225 H   0  0  0  0  0  0  0  0  0  0  0  0
  141.5085   71.1404  228.6610 H   0  0  0  0  0  0  0  0  0  0  0  0
  141.1415   72.4747  226.5792 H   0  0  0  0  0  0  0  0  0  0  0  0
  1  2  2  0
  2  3  1  0
  3  4  1  0
  4  5  1  0
  5  6  2  0
  5  7  1  0
  7  8  1  0
  8  9  1  0
  9 10  1  0
 10 11  1  0
 11 12  1  0
 12 13  1  0
 13 14  1  0
 14 15  1  0
 15 16  1  0
 16 17  1  0
 17 18  1  0
 18 19  1  0
  2 20  1  0
 20 21  2  0
 21 22  1  0
 22 23  2  0
 23 24  1  0
 24 25  2  0
 25 26  1  0
 25 27  1  0
 27 28  2  0
 28 29  1  0
 29 30  2  0
 12  7  1  0
 19 14  1  0
 30 20  1  0
 29 23  1  0
  3 31  1  0
  4 32  1  0
  4 33  1  0
  8 34  1  0
  8 35  1  0
  9 36  1  0
  9 37  1  0
 10 38  1  0
 10 39  1  0
 11 40  1  0
 11 41  1  0
 12 42  1  1
 13 43  1  0
 13 44  1  0
 15 45  1  0
 15 46  1  0
 16 47  1  0
 16 48  1  0
 17 49  1  0
 17 50  1  0
 18 51  1  0
 18 52  1  0
 19 53  1  0
 19 54  1  0
 21 55  1  0
 22 56  1  0
 24 57  1  0
 27 58  1  0
 28 59  1  0
M  END
>  <smiles>  (4) 
O=C(NCC(=O)N1CCCC[C@H]1CN1CCCCC1)c1ccc2cc(F)ccc2n1

>  <score_type>  (4) 
oracle

>  <origin>  (4) 
autodockgpu

>  <m_score__min__energy>  (4) 
-8.6999999999999993

>  <m_primary>  (4) 
energy

>  <rmsd>  (4) 
2.1722261606226536

>  <m_score__min__rmsd>  (4) 
2.1722261606226536

>  <meeko>  (4) 
{"free_energy": -7.84, "intermolecular_energy": -9.63, "internal_energy": -2.29, "cluster_size": 24, "cluster_id": 1, "rank_in_cluster": 21}

>  <energy>  (4) 
-8.58

>  <cluster_rmsd>  (4) 
0.97

>  <cluster>  (4) 
1

$$$$

     RDKit          3D

 59 62  0  0  0  0  0  0  0  0999 V2000
  136.9470   75.8110  221.2490 O   0  0  0  0  0  0  0  0  0  0  0  0
  137.9810   75.8900  221.9230 C   0  0  0  0  0  0  0  0  0  0  0  0
  138.6680   74.7230  222.3080 N   0  0  0  0  0  0  0  0  0  0  0  0
  138.2900   73.3710  221.9990 C   0  0  0  0  0  0  0  0  0  0  0  0
  139.1860   72.3720  222.6730 C   0  0  0  0  0  0  0  0  0  0  0  0
  140.3870   72.6150  222.8850 O   0  0  0  0  0  0  0  0  0  0  0  0
  138.5780   71.1200  223.0610 N   0  0  0  0  0  0  0  0  0  0  0  0
  137.5870   70.4650  222.2020 C   0  0  0  0  0  0  0  0  0  0  0  0
  136.4010   70.1720  223.1400 C   0  0  0  0  0  0  0  0  0  0  0  0
  136.9370   69.0290  224.0080 C   0  0  0  0  0  0  0  0  0  0  0  0
  137.9140   69.6430  224.9410 C   0  0  0  0  0  0  0  0  0  0  0  0
  138.9390   70.5600  224.3090 C   0  0  1  0  0  0  0  0  0  0  0  0
  140.3200   70.0200  224.4870 C   0  0  0  0  0  0  0  0  0  0  0  0
  141.1050   70.5080  225.5740 N   0  0  0  0  0  0  0  0  0  0  0  0
  140.9160   69.6490  226.7670 C   0  0  0  0  0  0  0  0  0  0  0  0
  139.9990   70.2650  227.7830 C   0  0  0  0  0  0  0  0  0  0  0  0
  140.5830   71.5570  228.3430 C   0  0  0  0  0  0  0  0  0  0  0  0
  141.4270   72.1940  227.2440 C   0  0  0  0  0  0  0  0  0  0  0  0
  140.6660   71.8600  225.9500 C   0  0  0  0  0  0  0  0  0  0  0  0
  138.5260   77.2000  222.3420 C   0  0  0  0  0  0  0  0  0  0  0  0
  137.7640   78.3200  222.4680 C   0  0  0  0  0  0  0  0  0  0  0  0
  138.2900   79.5350  222.8560 C   0  0  0  0  0  0  0  0  0  0  0  0
  139.6560   79.5950  223.1260 C   0  0  0  0  0  0  0  0  0  0  0  0
  140.2220   80.7900  223.5180 C   0  0  0  0  0  0  0  0  0  0  0  0
  141.5820   80.8090  223.7780 C   0  0  0  0  0  0  0  0  0  0  0  0
  142.1820   81.9800  224.1690 F   0  0  0  0  0  0  0  0  0  0  0  0
  142.3550   79.6740  223.6520 C   0  0  0  0  0  0  0  0  0  0  0  0
  141.7980   78.4700  223.2590 C   0  0  0  0  0  0  0  0  0  0  0  0
  140.4350   78.4620  223.0010 C   0  0  0  0  0  0  0  0  0  0  0  0
  139.8480   77.3180  222.6180 N   0  0  0  0  0  0  0  0  0  0  0  0
  139.5430   74.8510  222.8760 H   0  0  0  0  0  0  0  0  0  0  0  0
  137.2558   73.2050  222.3351 H   0  0  0  0  0  0  0  0  0  0  0  0
  138.3803   73.2314  220.9116 H   0  0  0  0  0  0  0  0  0  0  0  0
  137.2800   71.1322  221.3831 H   0  0  0  0  0  0  0  0  0  0  0  0
  137.9806   69.5544  221.7267 H   0  0  0  0  0  0  0  0  0  0  0  0
  136.1514   71.0517  223.7514 H   0  0  0  0  0  0  0  0  0  0  0  0
  135.4730   69.9185  222.6065 H   0  0  0  0  0  0  0  0  0  0  0  0
  136.1162   68.5592  224.5697 H   0  0  0  0  0  0  0  0  0  0  0  0
  137.4053   68.2449  223.3950 H   0  0  0  0  0  0  0  0  0  0  0  0
  137.3508   70.2269  225.6839 H   0  0  0  0  0  0  0  0  0  0  0  0
  138.4848   68.8064  225.3703 H   0  0  0  0  0  0  0  0  0  0  0  0
  138.9516   71.5014  224.8779 H   0  0  0  0  0  0  0  0  0  0  0  0
  140.2294   68.9312  224.6145 H   0  0  0  0  0  0  0  0  0  0  0  0
  140.8601   70.3584  223.5904 H   0  0  0  0  0  0  0  0  0  0  0  0
  140.4896   68.6876  226.4448 H   0  0  0  0  0  0  0  0  0  0  0  0
  141.8994   69.5181  227.2422 H   0  0  0  0  0  0  0  0  0  0  0  0
  139.0323   70.4854  227.3066 H   0  0  0  0  0  0  0  0  0  0  0  0
  139.8703   69.5535  228.6120 H   0  0  0  0  0  0  0  0  0  0  0  0
  139.7717   72.2394  228.6364 H   0  0  0  0  0  0  0  0  0  0  0  0
  141.1970   71.3507  229.2320 H   0  0  0  0  0  0  0  0  0  0  0  0
  141.4975   73.2825  227.3864 H   0  0  0  0  0  0  0  0  0  0  0  0
  142.4618   71.8211  227.2349 H   0  0  0  0  0  0  0  0  0  0  0  0
  139.5805   71.8763  226.1273 H   0  0  0  0  0  0  0  0  0  0  0  0
  140.8719   72.5918  225.1550 H   0  0  0  0  0  0  0  0  0  0  0  0
  136.6874   78.2543  222.2523 H   0  0  0  0  0  0  0  0  0  0  0  0
  137.6525   80.4266  222.9491 H   0  0  0  0  0  0  0  0  0  0  0  0
  139.6121   81.6997  223.6209 H   0  0  0  0  0  0  0  0  0  0  0  0
  143.4324   79.7267  223.8675 H   0  0  0  0  0  0  0  0  0  0  0  0
  142.4082   77.5606  223.1558 H   0  0  0  0  0  0  0  0  0  0  0  0
  1  2  2  0
  2  3  1  0
  3  4  1  0
  4  5  1  0
  5  6  2  0
  5  7  1  0
  7  8  1  0
  8  9  1  0
  9 10  1  0
 10 11  1  0
 11 12  1  0
 12 13  1  0
 13 14  1  0
 14 15  1  0
 15 16  1  0
 16 17  1  0
 17 18  1  0
 18 19  1  0
  2 20  1  0
 20 21  2  0
 21 22  1  0
 22 23  2  0
 23 24  1  0
 24 25  2  0
 25 26  1  0
 25 27  1  0
 27 28  2  0
 28 29  1  0
 29 30  2  0
 12  7  1  0
 19 14  1  0
 30 20  1  0
 29 23  1  0
  3 31  1  0
  4 32  1  0
  4 33  1  0
  8 34  1  0
  8 35  1  0
  9 36  1  0
  9 37  1  0
 10 38  1  0
 10 39  1  0
 11 40  1  0
 11 41  1  0
 12 42  1  1
 13 43  1  0
 13 44  1  0
 15 45  1  0
 15 46  1  0
 16 47  1  0
 16 48  1  0
 17 49  1  0
 17 50  1  0
 18 51  1  0
 18 52  1  0
 19 53  1  0
 19 54  1  0
 21 55  1  0
 22 56  1  0
 24 57  1  0
 27 58  1  0
 28 59  1  0
M  END
>  <smiles>  (5) 
O=C(NCC(=O)N1CCCC[C@H]1CN1CCCCC1)c1ccc2cc(F)ccc2n1

>  <score_type>  (5) 
oracle

>  <origin>  (5) 
autodockgpu

>  <m_score__min__energy>  (5) 
-8.6999999999999993

>  <m_primary>  (5) 
energy

>  <rmsd>  (5) 
9.281171042602432

>  <m_score__min__rmsd>  (5) 
9.281171042602432

>  <meeko>  (5) 
{"free_energy": -8.07, "intermolecular_energy": -9.86, "internal_energy": -2.12, "cluster_size": 3, "cluster_id": 5, "rank_in_cluster": 1}

>  <energy>  (5) 
-8.54

>  <cluster_rmsd>  (5) 
1.51

>  <cluster>  (5) 
1

$$$$

     RDKit          3D

 59 62  0  0  0  0  0  0  0  0999 V2000
  139.5700   71.3790  220.8780 O   0  0  0  0  0  0  0  0  0  0  0  0
  139.6160   71.9060  221.9960 C   0  0  0  0  0  0  0  0  0  0  0  0
  139.6310   73.3090  222.1180 N   0  0  0  0  0  0  0  0  0  0  0  0
  139.6010   74.2580  221.0380 C   0  0  0  0  0  0  0  0  0  0  0  0
  140.5910   75.3680  221.2430 C   0  0  0  0  0  0  0  0  0  0  0  0
  141.0660   75.6160  222.3650 O   0  0  0  0  0  0  0  0  0  0  0  0
  140.9580   76.1280  220.0710 N   0  0  0  0  0  0  0  0  0  0  0  0
  141.0040   75.4980  218.7480 C   0  0  0  0  0  0  0  0  0  0  0  0
  142.3880   75.8780  218.1910 C   0  0  0  0  0  0  0  0  0  0  0  0
  142.2230   77.3680  217.8740 C   0  0  0  0  0  0  0  0  0  0  0  0
  142.2230   78.0690  219.1820 C   0  0  0  0  0  0  0  0  0  0  0  0
  141.3070   77.4890  220.2390 C   0  0  1  0  0  0  0  0  0  0  0  0
  140.2450   78.4660  220.6190 C   0  0  0  0  0  0  0  0  0  0  0  0
  140.3940   79.1910  221.8390 N   0  0  0  0  0  0  0  0  0  0  0  0
  141.0480   80.4960  221.5820 C   0  0  0  0  0  0  0  0  0  0  0  0
  142.4990   80.5000  221.9640 C   0  0  0  0  0  0  0  0  0  0  0  0
  142.6780   80.2830  223.4620 C   0  0  0  0  0  0  0  0  0  0  0  0
  141.5210   79.4100  223.9410 C   0  0  0  0  0  0  0  0  0  0  0  0
  141.2660   78.4530  222.7640 C   0  0  0  0  0  0  0  0  0  0  0  0
  139.6570   71.0900  223.2290 C   0  0  0  0  0  0  0  0  0  0  0  0
  139.1970   69.8120  223.2950 C   0  0  0  0  0  0  0  0  0  0  0  0
  139.2390   69.0670  224.4540 C   0  0  0  0  0  0  0  0  0  0  0  0
  139.7780   69.6660  225.5920 C   0  0  0  0  0  0  0  0  0  0  0  0
  139.8410   68.9550  226.7720 C   0  0  0  0  0  0  0  0  0  0  0  0
  140.3840   69.5840  227.8810 C   0  0  0  0  0  0  0  0  0  0  0  0
  140.4610   68.9110  229.0740 F   0  0  0  0  0  0  0  0  0  0  0  0
  140.8510   70.8800  227.8150 C   0  0  0  0  0  0  0  0  0  0  0  0
  140.7930   71.6020  226.6360 C   0  0  0  0  0  0  0  0  0  0  0  0
  140.2470   70.9630  225.5330 C   0  0  0  0  0  0  0  0  0  0  0  0
  140.1710   71.6210  224.3660 N   0  0  0  0  0  0  0  0  0  0  0  0
  139.6660   73.7010  223.0920 H   0  0  0  0  0  0  0  0  0  0  0  0
  139.8400   73.7367  220.0993 H   0  0  0  0  0  0  0  0  0  0  0  0
  138.5946   74.7004  220.9996 H   0  0  0  0  0  0  0  0  0  0  0  0
  140.9052   74.4058  218.8333 H   0  0  0  0  0  0  0  0  0  0  0  0
  140.1834   75.8318  218.0959 H   0  0  0  0  0  0  0  0  0  0  0  0
  143.1760   75.7165  218.9413 H   0  0  0  0  0  0  0  0  0  0  0  0
  142.6897   75.2764  217.3209 H   0  0  0  0  0  0  0  0  0  0  0  0
  143.0586   77.7208  217.2517 H   0  0  0  0  0  0  0  0  0  0  0  0
  141.2952   77.5598  217.3150 H   0  0  0  0  0  0  0  0  0  0  0  0
  143.2497   78.0481  219.5764 H   0  0  0  0  0  0  0  0  0  0  0  0
  141.8429   79.0811  218.9792 H   0  0  0  0  0  0  0  0  0  0  0  0
  141.8886   77.3640  221.1642 H   0  0  0  0  0  0  0  0  0  0  0  0
  140.1782   79.2056  219.8075 H   0  0  0  0  0  0  0  0  0  0  0  0
  139.3520   77.8446  220.7815 H   0  0  0  0  0  0  0  0  0  0  0  0
  140.9655   80.7261  220.5095 H   0  0  0  0  0  0  0  0  0  0  0  0
  140.5391   81.2508  222.1995 H   0  0  0  0  0  0  0  0  0  0  0  0
  143.0147   79.6942  221.4211 H   0  0  0  0  0  0  0  0  0  0  0  0
  142.9243   81.4800  221.7019 H   0  0  0  0  0  0  0  0  0  0  0  0
  143.6354   79.7774  223.6564 H   0  0  0  0  0  0  0  0  0  0  0  0
  142.6834   81.2453  223.9948 H   0  0  0  0  0  0  0  0  0  0  0  0
  141.8013   78.8510  224.8460 H   0  0  0  0  0  0  0  0  0  0  0  0
  140.6306   79.9970  224.2104 H   0  0  0  0  0  0  0  0  0  0  0  0
  142.2133   78.1890  222.2711 H   0  0  0  0  0  0  0  0  0  0  0  0
  140.8042   77.5116  223.0964 H   0  0  0  0  0  0  0  0  0  0  0  0
  138.7749   69.3548  222.3879 H   0  0  0  0  0  0  0  0  0  0  0  0
  138.8601   68.0347  224.4803 H   0  0  0  0  0  0  0  0  0  0  0  0
  139.4716   67.9206  226.8311 H   0  0  0  0  0  0  0  0  0  0  0  0
  141.2768   71.3477  228.7150 H   0  0  0  0  0  0  0  0  0  0  0  0
  141.1633   72.6361  226.5764 H   0  0  0  0  0  0  0  0  0  0  0  0
  1  2  2  0
  2  3  1  0
  3  4  1  0
  4  5  1  0
  5  6  2  0
  5  7  1  0
  7  8  1  0
  8  9  1  0
  9 10  1  0
 10 11  1  0
 11 12  1  0
 12 13  1  0
 13 14  1  0
 14 15  1  0
 15 16  1  0
 16 17  1  0
 17 18  1  0
 18 19  1  0
  2 20  1  0
 20 21  2  0
 21 22  1  0
 22 23  2  0
 23 24  1  0
 24 25  2  0
 25 26  1  0
 25 27  1  0
 27 28  2  0
 28 29  1  0
 29 30  2  0
 12  7  1  0
 19 14  1  0
 30 20  1  0
 29 23  1  0
  3 31  1  0
  4 32  1  0
  4 33  1  0
  8 34  1  0
  8 35  1  0
  9 36  1  0
  9 37  1  0
 10 38  1  0
 10 39  1  0
 11 40  1  0
 11 41  1  0
 12 42  1  1
 13 43  1  0
 13 44  1  0
 15 45  1  0
 15 46  1  0
 16 47  1  0
 16 48  1  0
 17 49  1  0
 17 50  1  0
 18 51  1  0
 18 52  1  0
 19 53  1  0
 19 54  1  0
 21 55  1  0
 22 56  1  0
 24 57  1  0
 27 58  1  0
 28 59  1  0
M  END
>  <smiles>  (6) 
O=C(NCC(=O)N1CCCC[C@H]1CN1CCCCC1)c1ccc2cc(F)ccc2n1

>  <score_type>  (6) 
oracle

>  <origin>  (6) 
autodockgpu

>  <m_score__min__energy>  (6) 
-8.6999999999999993

>  <m_primary>  (6) 
energy

>  <rmsd>  (6) 
2.2328013443661434

>  <m_score__min__rmsd>  (6) 
2.2328013443661434

>  <meeko>  (6) 
{"free_energy": -8.2, "intermolecular_energy": -9.99, "internal_energy": -2.04, "cluster_size": 5, "cluster_id": 3, "rank_in_cluster": 3}

>  <energy>  (6) 
-8.51

>  <cluster_rmsd>  (6) 
1.72

>  <cluster>  (6) 
1

$$$$

     RDKit          3D

 59 62  0  0  0  0  0  0  0  0999 V2000
  139.0300   71.4780  220.9790 O   0  0  0  0  0  0  0  0  0  0  0  0
  139.3680   71.9730  222.0610 C   0  0  0  0  0  0  0  0  0  0  0  0
  139.6340   73.3520  222.1590 N   0  0  0  0  0  0  0  0  0  0  0  0
  139.5590   74.3110  221.0900 C   0  0  0  0  0  0  0  0  0  0  0  0
  140.5390   75.4330  221.2790 C   0  0  0  0  0  0  0  0  0  0  0  0
  141.1330   75.6030  222.3570 O   0  0  0  0  0  0  0  0  0  0  0  0
  140.7510   76.3000  220.1420 N   0  0  0  0  0  0  0  0  0  0  0  0
  140.6600   75.7840  218.7730 C   0  0  0  0  0  0  0  0  0  0  0  0
  141.9620   76.2550  218.0990 C   0  0  0  0  0  0  0  0  0  0  0  0
  141.7260   77.7590  217.9330 C   0  0  0  0  0  0  0  0  0  0  0  0
  141.8590   78.3490  219.2880 C   0  0  0  0  0  0  0  0  0  0  0  0
  141.0840   77.6530  220.3870 C   0  0  1  0  0  0  0  0  0  0  0  0
  140.0490   78.5590  220.9670 C   0  0  0  0  0  0  0  0  0  0  0  0
  140.3220   79.1890  222.2180 N   0  0  0  0  0  0  0  0  0  0  0  0
  140.7410   80.5940  222.0030 C   0  0  0  0  0  0  0  0  0  0  0  0
  142.2240   80.7810  222.1330 C   0  0  0  0  0  0  0  0  0  0  0  0
  142.7000   80.4620  223.5460 C   0  0  0  0  0  0  0  0  0  0  0  0
  141.7750   79.3880  224.1110 C   0  0  0  0  0  0  0  0  0  0  0  0
  141.4370   78.5110  222.8940 C   0  0  0  0  0  0  0  0  0  0  0  0
  139.5030   71.1400  223.2760 C   0  0  0  0  0  0  0  0  0  0  0  0
  139.0540   69.8590  223.3580 C   0  0  0  0  0  0  0  0  0  0  0  0
  139.1850   69.0980  224.5010 C   0  0  0  0  0  0  0  0  0  0  0  0
  139.8060   69.6840  225.6030 C   0  0  0  0  0  0  0  0  0  0  0  0
  139.9580   68.9570  226.7660 C   0  0  0  0  0  0  0  0  0  0  0  0
  140.5800   69.5740  227.8390 C   0  0  0  0  0  0  0  0  0  0  0  0
  140.7490   68.8840  229.0130 F   0  0  0  0  0  0  0  0  0  0  0  0
  141.0380   70.8720  227.7570 C   0  0  0  0  0  0  0  0  0  0  0  0
  140.8890   71.6090  226.5960 C   0  0  0  0  0  0  0  0  0  0  0  0
  140.2650   70.9840  225.5270 C   0  0  0  0  0  0  0  0  0  0  0  0
  140.0990   71.6570  224.3780 N   0  0  0  0  0  0  0  0  0  0  0  0
  139.9130   73.7160  223.1040 H   0  0  0  0  0  0  0  0  0  0  0  0
  139.7783   73.8028  220.1394 H   0  0  0  0  0  0  0  0  0  0  0  0
  138.5456   74.7388  221.0843 H   0  0  0  0  0  0  0  0  0  0  0  0
  140.5976   74.6858  218.7743 H   0  0  0  0  0  0  0  0  0  0  0  0
  139.7624   76.1432  218.2483 H   0  0  0  0  0  0  0  0  0  0  0  0
  142.8345   76.0581  218.7393 H   0  0  0  0  0  0  0  0  0  0  0  0
  142.1765   75.7383  217.1519 H   0  0  0  0  0  0  0  0  0  0  0  0
  142.4759   78.1903  217.2536 H   0  0  0  0  0  0  0  0  0  0  0  0
  140.7357   77.9648  217.5007 H   0  0  0  0  0  0  0  0  0  0  0  0
  142.9242   78.3299  219.5617 H   0  0  0  0  0  0  0  0  0  0  0  0
  141.4343   79.3612  219.2169 H   0  0  0  0  0  0  0  0  0  0  0  0
  141.7703   77.4716  221.2273 H   0  0  0  0  0  0  0  0  0  0  0  0
  139.8684   79.3582  220.2331 H   0  0  0  0  0  0  0  0  0  0  0  0
  139.1974   77.8957  221.1787 H   0  0  0  0  0  0  0  0  0  0  0  0
  140.4344   80.9022  220.9925 H   0  0  0  0  0  0  0  0  0  0  0  0
  140.2590   81.2074  222.7785 H   0  0  0  0  0  0  0  0  0  0  0  0
  142.7332   80.1121  221.4236 H   0  0  0  0  0  0  0  0  0  0  0  0
  142.4621   81.8326  221.9151 H   0  0  0  0  0  0  0  0  0  0  0  0
  143.7347   80.0897  223.5185 H   0  0  0  0  0  0  0  0  0  0  0  0
  142.6759   81.3638  224.1754 H   0  0  0  0  0  0  0  0  0  0  0  0
  142.2868   78.7997  224.8869 H   0  0  0  0  0  0  0  0  0  0  0  0
  140.8796   79.8099  224.5908 H   0  0  0  0  0  0  0  0  0  0  0  0
  142.3047   78.4351  222.2222 H   0  0  0  0  0  0  0  0  0  0  0  0
  141.1709   77.4859  223.1914 H   0  0  0  0  0  0  0  0  0  0  0  0
  138.5673   69.4122  222.4785 H   0  0  0  0  0  0  0  0  0  0  0  0
  138.8121   68.0639  224.5416 H   0  0  0  0  0  0  0  0  0  0  0  0
  139.5967   67.9206  226.8387 H   0  0  0  0  0  0  0  0  0  0  0  0
  141.5296   71.3286  228.6287 H   0  0  0  0  0  0  0  0  0  0  0  0
  141.2498   72.6456  226.5239 H   0  0  0  0  0  0  0  0  0  0  0  0
  1  2  2  0
  2  3  1  0
  3  4  1  0
  4  5  1  0
  5  6  2  0
  5  7  1  0
  7  8  1  0
  8  9  1  0
  9 10  1  0
 10 11  1  0
 11 12  1  0
 12 13  1  0
 13 14  1  0
 14 15  1  0
 15 16  1  0
 16 17  1  0
 17 18  1  0
 18 19  1  0
  2 20  1  0
 20 21  2  0
 21 22  1  0
 22 23  2  0
 23 24  1  0
 24 25  2  0
 25 26  1  0
 25 27  1  0
 27 28  2  0
 28 29  1  0
 29 30  2  0
 12  7  1  0
 19 14  1  0
 30 20  1  0
 29 23  1  0
  3 31  1  0
  4 32  1  0
  4 33  1  0
  8 34  1  0
  8 35  1  0
  9 36  1  0
  9 37  1  0
 10 38  1  0
 10 39  1  0
 11 40  1  0
 11 41  1  0
 12 42  1  1
 13 43  1  0
 13 44  1  0
 15 45  1  0
 15 46  1  0
 16 47  1  0
 16 48  1  0
 17 49  1  0
 17 50  1  0
 18 51  1  0
 18 52  1  0
 19 53  1  0
 19 54  1  0
 21 55  1  0
 22 56  1  0
 24 57  1  0
 27 58  1  0
 28 59  1  0
M  END
>  <smiles>  (7) 
O=C(NCC(=O)N1CCCC[C@H]1CN1CCCCC1)c1ccc2cc(F)ccc2n1

>  <score_type>  (7) 
oracle

>  <origin>  (7) 
autodockgpu

>  <m_score__min__energy>  (7) 
-8.6999999999999993

>  <m_primary>  (7) 
energy

>  <rmsd>  (7) 
2.222422674905766

>  <m_score__min__rmsd>  (7) 
2.222422674905766

>  <meeko>  (7) 
{"free_energy": -7.98, "intermolecular_energy": -9.77, "internal_energy": -2.21, "cluster_size": 24, "cluster_id": 1, "rank_in_cluster": 19}

>  <energy>  (7) 
-8.48

>  <cluster_rmsd>  (7) 
1.53

>  <cluster>  (7) 
1

$$$$

     RDKit          3D

 59 62  0  0  0  0  0  0  0  0999 V2000
  139.1580   71.1860  221.0910 O   0  0  0  0  0  0  0  0  0  0  0  0
  139.3700   71.6800  222.2050 C   0  0  0  0  0  0  0  0  0  0  0  0
  139.4390   73.0780  222.3600 N   0  0  0  0  0  0  0  0  0  0  0  0
  139.2870   74.0580  221.3190 C   0  0  0  0  0  0  0  0  0  0  0  0
  139.6410   75.4370  221.7970 C   0  0  0  0  0  0  0  0  0  0  0  0
  139.0190   75.9840  222.7240 O   0  0  0  0  0  0  0  0  0  0  0  0
  140.7400   76.0890  221.1220 N   0  0  0  0  0  0  0  0  0  0  0  0
  141.1060   77.4730  221.4400 C   0  0  0  0  0  0  0  0  0  0  0  0
  141.1690   78.1760  220.0710 C   0  0  0  0  0  0  0  0  0  0  0  0
  142.4490   77.5980  219.4590 C   0  0  0  0  0  0  0  0  0  0  0  0
  142.1240   76.2040  219.0660 C   0  0  0  0  0  0  0  0  0  0  0  0
  141.4330   75.3680  220.1220 C   0  0  1  0  0  0  0  0  0  0  0  0
  142.2830   74.2070  220.5240 C   0  0  0  0  0  0  0  0  0  0  0  0
  143.4310   73.9000  219.7350 N   0  0  0  0  0  0  0  0  0  0  0  0
  143.3030   72.5430  219.1530 C   0  0  0  0  0  0  0  0  0  0  0  0
  144.1260   71.5210  219.8810 C   0  0  0  0  0  0  0  0  0  0  0  0
  145.6150   71.8340  219.7760 C   0  0  0  0  0  0  0  0  0  0  0  0
  145.7610   73.3490  219.6780 C   0  0  0  0  0  0  0  0  0  0  0  0
  144.6360   73.8890  220.5770 C   0  0  0  0  0  0  0  0  0  0  0  0
  139.5560   70.8270  223.3990 C   0  0  0  0  0  0  0  0  0  0  0  0
  139.2120   69.5120  223.4390 C   0  0  0  0  0  0  0  0  0  0  0  0
  139.3880   68.7330  224.5630 C   0  0  0  0  0  0  0  0  0  0  0  0
  139.9440   69.3360  225.6910 C   0  0  0  0  0  0  0  0  0  0  0  0
  140.1390   68.5920  226.8360 C   0  0  0  0  0  0  0  0  0  0  0  0
  140.6950   69.2260  227.9350 C   0  0  0  0  0  0  0  0  0  0  0  0
  140.9030   68.5200  229.0930 F   0  0  0  0  0  0  0  0  0  0  0  0
  141.0450   70.5590  227.8950 C   0  0  0  0  0  0  0  0  0  0  0  0
  140.8530   71.3140  226.7520 C   0  0  0  0  0  0  0  0  0  0  0  0
  140.2960   70.6700  225.6570 C   0  0  0  0  0  0  0  0  0  0  0  0
  140.0920   71.3600  224.5240 N   0  0  0  0  0  0  0  0  0  0  0  0
  139.6160   73.4400  223.3300 H   0  0  0  0  0  0  0  0  0  0  0  0
  139.9464   73.7916  220.4798 H   0  0  0  0  0  0  0  0  0  0  0  0
  138.2325   74.0643  221.0058 H   0  0  0  0  0  0  0  0  0  0  0  0
  140.3446   77.9393  222.0825 H   0  0  0  0  0  0  0  0  0  0  0  0
  142.0562   77.5399  221.9901 H   0  0  0  0  0  0  0  0  0  0  0  0
  140.2894   77.9309  219.4576 H   0  0  0  0  0  0  0  0  0  0  0  0
  141.1742   79.2737  220.1420 H   0  0  0  0  0  0  0  0  0  0  0  0
  142.7487   78.1833  218.5772 H   0  0  0  0  0  0  0  0  0  0  0  0
  143.2856   77.6298  220.1725 H   0  0  0  0  0  0  0  0  0  0  0  0
  141.4669   76.2458  218.1848 H   0  0  0  0  0  0  0  0  0  0  0  0
  143.0901   75.7123  218.8794 H   0  0  0  0  0  0  0  0  0  0  0  0
  140.5506   74.8983  219.6629 H   0  0  0  0  0  0  0  0  0  0  0  0
  142.6349   74.4010  221.5480 H   0  0  0  0  0  0  0  0  0  0  0  0
  141.6260   73.3342  220.3955 H   0  0  0  0  0  0  0  0  0  0  0  0
  142.2465   72.2397  219.1961 H   0  0  0  0  0  0  0  0  0  0  0  0
  143.6707   72.5895  218.1173 H   0  0  0  0  0  0  0  0  0  0  0  0
  143.8347   71.5154  220.9417 H   0  0  0  0  0  0  0  0  0  0  0  0
  143.9441   70.5375  219.4231 H   0  0  0  0  0  0  0  0  0  0  0  0
  146.1402   71.4634  220.6686 H   0  0  0  0  0  0  0  0  0  0  0  0
  146.0515   71.3455  218.8924 H   0  0  0  0  0  0  0  0  0  0  0  0
  146.7457   73.6718  220.0471 H   0  0  0  0  0  0  0  0  0  0  0  0
  145.6896   73.7156  218.6433 H   0  0  0  0  0  0  0  0  0  0  0  0
  144.4908   73.2322  221.4473 H   0  0  0  0  0  0  0  0  0  0  0  0
  144.8705   74.8906  220.9667 H   0  0  0  0  0  0  0  0  0  0  0  0
  138.7764   69.0519  222.5398 H   0  0  0  0  0  0  0  0  0  0  0  0
  139.0995   67.6715  224.5698 H   0  0  0  0  0  0  0  0  0  0  0  0
  139.8616   67.5283  226.8752 H   0  0  0  0  0  0  0  0  0  0  0  0
  141.4842   71.0299  228.7868 H   0  0  0  0  0  0  0  0  0  0  0  0
  141.1297   72.3779  226.7131 H   0  0  0  0  0  0  0  0  0  0  0  0
  1  2  2  0
  2  3  1  0
  3  4  1  0
  4  5  1  0
  5  6  2  0
  5  7  1  0
  7  8  1  0
  8  9  1  0
  9 10  1  0
 10 11  1  0
 11 12  1  0
 12 13  1  0
 13 14  1  0
 14 15  1  0
 15 16  1  0
 16 17  1  0
 17 18  1  0
 18 19  1  0
  2 20  1  0
 20 21  2  0
 21 22  1  0
 22 23  2  0
 23 24  1  0
 24 25  2  0
 25 26  1  0
 25 27  1  0
 27 28  2  0
 28 29  1  0
 29 30  2  0
 12  7  1  0
 19 14  1  0
 30 20  1  0
 29 23  1  0
  3 31  1  0
  4 32  1  0
  4 33  1  0
  8 34  1  0
  8 35  1  0
  9 36  1  0
  9 37  1  0
 10 38  1  0
 10 39  1  0
 11 40  1  0
 11 41  1  0
 12 42  1  6
 13 43  1  0
 13 44  1  0
 15 45  1  0
 15 46  1  0
 16 47  1  0
 16 48  1  0
 17 49  1  0
 17 50  1  0
 18 51  1  0
 18 52  1  0
 19 53  1  0
 19 54  1  0
 21 55  1  0
 22 56  1  0
 24 57  1  0
 27 58  1  0
 28 59  1  0
M  END
>  <smiles>  (8) 
O=C(NCC(=O)N1CCCC[C@H]1CN1CCCCC1)c1ccc2cc(F)ccc2n1

>  <score_type>  (8) 
oracle

>  <origin>  (8) 
autodockgpu

>  <m_score__min__energy>  (8) 
-8.6999999999999993

>  <m_primary>  (8) 
energy

>  <rmsd>  (8) 
4.5743663583065866

>  <m_score__min__rmsd>  (8) 
4.5743663583065866

>  <meeko>  (8) 
{"free_energy": -7.66, "intermolecular_energy": -9.45, "internal_energy": -1.91, "cluster_size": 5, "cluster_id": 4, "rank_in_cluster": 5}

>  <energy>  (8) 
-8.44

>  <cluster_rmsd>  (8) 
1.93

>  <cluster>  (8) 
1

$$$$

     RDKit          3D

 59 62  0  0  0  0  0  0  0  0999 V2000
  141.2790   72.4110  221.5080 O   0  0  0  0  0  0  0  0  0  0  0  0
  140.4020   72.5840  222.3640 C   0  0  0  0  0  0  0  0  0  0  0  0
  139.5760   73.7240  222.3120 N   0  0  0  0  0  0  0  0  0  0  0  0
  139.6340   74.7730  221.3310 C   0  0  0  0  0  0  0  0  0  0  0  0
  139.3610   76.1190  221.9370 C   0  0  0  0  0  0  0  0  0  0  0  0
  138.2650   76.3870  222.4610 O   0  0  0  0  0  0  0  0  0  0  0  0
  140.4370   77.0810  221.8790 N   0  0  0  0  0  0  0  0  0  0  0  0
  141.1620   77.4760  223.0910 C   0  0  0  0  0  0  0  0  0  0  0  0
  141.1330   79.0150  223.0700 C   0  0  0  0  0  0  0  0  0  0  0  0
  142.1110   79.3520  221.9400 C   0  0  0  0  0  0  0  0  0  0  0  0
  141.4090   79.0210  220.6750 C   0  0  0  0  0  0  0  0  0  0  0  0
  140.7510   77.6590  220.6260 C   0  0  1  0  0  0  0  0  0  0  0  0
  141.3700   76.8040  219.5700 C   0  0  0  0  0  0  0  0  0  0  0  0
  142.6930   76.3150  219.7820 N   0  0  0  0  0  0  0  0  0  0  0  0
  143.3690   76.0900  218.4820 C   0  0  0  0  0  0  0  0  0  0  0  0
  143.4130   74.6400  218.0980 C   0  0  0  0  0  0  0  0  0  0  0  0
  144.2360   73.8280  219.0920 C   0  0  0  0  0  0  0  0  0  0  0  0
  144.0980   74.4960  220.4570 C   0  0  0  0  0  0  0  0  0  0  0  0
  142.6500   75.0170  220.4700 C   0  0  0  0  0  0  0  0  0  0  0  0
  140.1940   71.6110  223.4580 C   0  0  0  0  0  0  0  0  0  0  0  0
  139.5490   70.4260  223.2920 C   0  0  0  0  0  0  0  0  0  0  0  0
  139.3600   69.5320  224.3250 C   0  0  0  0  0  0  0  0  0  0  0  0
  139.8600   69.8750  225.5800 C   0  0  0  0  0  0  0  0  0  0  0  0
  139.6950   69.0090  226.6410 C   0  0  0  0  0  0  0  0  0  0  0  0
  140.2060   69.3850  227.8720 C   0  0  0  0  0  0  0  0  0  0  0  0
  140.0600   68.5510  228.9510 F   0  0  0  0  0  0  0  0  0  0  0  0
  140.8620   70.5860  228.0420 C   0  0  0  0  0  0  0  0  0  0  0  0
  141.0330   71.4620  226.9850 C   0  0  0  0  0  0  0  0  0  0  0  0
  140.5170   71.0770  225.7570 C   0  0  0  0  0  0  0  0  0  0  0  0
  140.6590   71.8920  224.7000 N   0  0  0  0  0  0  0  0  0  0  0  0
  138.8470   73.8160  223.0620 H   0  0  0  0  0  0  0  0  0  0  0  0
  140.6369   74.7828  220.8791 H   0  0  0  0  0  0  0  0  0  0  0  0
  138.8609   74.5759  220.5737 H   0  0  0  0  0  0  0  0  0  0  0  0
  140.6583   77.0894  223.9893 H   0  0  0  0  0  0  0  0  0  0  0  0
  142.1865   77.0762  223.1158 H   0  0  0  0  0  0  0  0  0  0  0  0
  140.1234   79.3902  222.8465 H   0  0  0  0  0  0  0  0  0  0  0  0
  141.4039   79.4710  224.0337 H   0  0  0  0  0  0  0  0  0  0  0  0
  142.3692   80.4210  221.9648 H   0  0  0  0  0  0  0  0  0  0  0  0
  143.0491   78.7861  222.0387 H   0  0  0  0  0  0  0  0  0  0  0  0
  140.6287   79.7792  220.5133 H   0  0  0  0  0  0  0  0  0  0  0  0
  142.1857   79.0067  219.8962 H   0  0  0  0  0  0  0  0  0  0  0  0
  139.7159   77.7928  220.2787 H   0  0  0  0  0  0  0  0  0  0  0  0
  140.7173   75.9287  219.4364 H   0  0  0  0  0  0  0  0  0  0  0  0
  141.4650   77.4729  218.7019 H   0  0  0  0  0  0  0  0  0  0  0  0
  142.8266   76.6447  217.7022 H   0  0  0  0  0  0  0  0  0  0  0  0
  144.4071   76.4401  218.5812 H   0  0  0  0  0  0  0  0  0  0  0  0
  142.3869   74.2443  218.0748 H   0  0  0  0  0  0  0  0  0  0  0  0
  143.8847   74.5574  217.1077 H   0  0  0  0  0  0  0  0  0  0  0  0
  143.8570   72.7964  219.1389 H   0  0  0  0  0  0  0  0  0  0  0  0
  145.2912   73.7928  218.7832 H   0  0  0  0  0  0  0  0  0  0  0  0
  144.2595   73.7690  221.2665 H   0  0  0  0  0  0  0  0  0  0  0  0
  144.8375   75.2949  220.6148 H   0  0  0  0  0  0  0  0  0  0  0  0
  141.9863   74.3209  219.9362 H   0  0  0  0  0  0  0  0  0  0  0  0
  142.2595   75.1109  221.4941 H   0  0  0  0  0  0  0  0  0  0  0  0
  139.1625   70.1700  222.2944 H   0  0  0  0  0  0  0  0  0  0  0  0
  138.8324   68.5803  224.1639 H   0  0  0  0  0  0  0  0  0  0  0  0
  139.1734   68.0490  226.5132 H   0  0  0  0  0  0  0  0  0  0  0  0
  141.2557   70.8518  229.0342 H   0  0  0  0  0  0  0  0  0  0  0  0
  141.5553   72.4216  227.1131 H   0  0  0  0  0  0  0  0  0  0  0  0
  1  2  2  0
  2  3  1  0
  3  4  1  0
  4  5  1  0
  5  6  2  0
  5  7  1  0
  7  8  1  0
  8  9  1  0
  9 10  1  0
 10 11  1  0
 11 12  1  0
 12 13  1  0
 13 14  1  0
 14 15  1  0
 15 16  1  0
 16 17  1  0
 17 18  1  0
 18 19  1  0
  2 20  1  0
 20 21  2  0
 21 22  1  0
 22 23  2  0
 23 24  1  0
 24 25  2  0
 25 26  1  0
 25 27  1  0
 27 28  2  0
 28 29  1  0
 29 30  2  0
 12  7  1  0
 19 14  1  0
 30 20  1  0
 29 23  1  0
  3 31  1  0
  4 32  1  0
  4 33  1  0
  8 34  1  0
  8 35  1  0
  9 36  1  0
  9 37  1  0
 10 38  1  0
 10 39  1  0
 11 40  1  0
 11 41  1  0
 12 42  1  6
 13 43  1  0
 13 44  1  0
 15 45  1  0
 15 46  1  0
 16 47  1  0
 16 48  1  0
 17 49  1  0
 17 50  1  0
 18 51  1  0
 18 52  1  0
 19 53  1  0
 19 54  1  0
 21 55  1  0
 22 56  1  0
 24 57  1  0
 27 58  1  0
 28 59  1  0
M  END
>  <smiles>  (9) 
O=C(NCC(=O)N1CCCC[C@H]1CN1CCCCC1)c1ccc2cc(F)ccc2n1

>  <score_type>  (9) 
oracle

>  <origin>  (9) 
autodockgpu

>  <m_score__min__energy>  (9) 
-8.6999999999999993

>  <m_primary>  (9) 
energy

>  <rmsd>  (9) 
4.292655847970142

>  <m_score__min__rmsd>  (9) 
4.292655847970142

>  <meeko>  (9) 
{"free_energy": -8.27, "intermolecular_energy": -10.06, "internal_energy": -1.86, "cluster_size": 5, "cluster_id": 3, "rank_in_cluster": 2}

>  <energy>  (9) 
-8.42

>  <cluster_rmsd>  (9) 
1.82

>  <cluster>  (9) 
1

$$$$

     RDKit          3D

 59 62  0  0  0  0  0  0  0  0999 V2000
  141.3020   72.7380  222.0560 O   0  0  0  0  0  0  0  0  0  0  0  0
  140.2420   72.5700  222.6710 C   0  0  0  0  0  0  0  0  0  0  0  0
  139.1120   73.3530  222.3650 N   0  0  0  0  0  0  0  0  0  0  0  0
  139.0380   74.3870  221.3690 C   0  0  0  0  0  0  0  0  0  0  0  0
  140.0980   75.4320  221.5700 C   0  0  0  0  0  0  0  0  0  0  0  0
  140.1380   76.1280  222.5990 O   0  0  0  0  0  0  0  0  0  0  0  0
  141.0640   75.5810  220.5060 N   0  0  0  0  0  0  0  0  0  0  0  0
  141.3550   74.4750  219.5890 C   0  0  0  0  0  0  0  0  0  0  0  0
  142.8900   74.3590  219.6040 C   0  0  0  0  0  0  0  0  0  0  0  0
  143.3250   75.6000  218.8180 C   0  0  0  0  0  0  0  0  0  0  0  0
  143.1020   76.7570  219.7190 C   0  0  0  0  0  0  0  0  0  0  0  0
  141.7480   76.8150  220.3930 C   0  0  1  0  0  0  0  0  0  0  0  0
  140.9890   78.0260  219.9630 C   0  0  0  0  0  0  0  0  0  0  0  0
  140.9020   79.1290  220.8650 N   0  0  0  0  0  0  0  0  0  0  0  0
  142.0790   79.1480  221.7650 C   0  0  0  0  0  0  0  0  0  0  0  0
  141.7660   78.6240  223.1360 C   0  0  0  0  0  0  0  0  0  0  0  0
  140.7410   79.5020  223.8440 C   0  0  0  0  0  0  0  0  0  0  0  0
  139.8350   80.1050  222.7740 C   0  0  0  0  0  0  0  0  0  0  0  0
  139.7140   78.9910  221.7200 C   0  0  0  0  0  0  0  0  0  0  0  0
  140.1270   71.5510  223.7380 C   0  0  0  0  0  0  0  0  0  0  0  0
  139.5700   70.3260  223.5440 C   0  0  0  0  0  0  0  0  0  0  0  0
  139.4670   69.3890  224.5510 C   0  0  0  0  0  0  0  0  0  0  0  0
  139.9600   69.7320  225.8090 C   0  0  0  0  0  0  0  0  0  0  0  0
  139.8790   68.8240  226.8440 C   0  0  0  0  0  0  0  0  0  0  0  0
  140.3800   69.2010  228.0790 C   0  0  0  0  0  0  0  0  0  0  0  0
  140.3160   68.3260  229.1340 F   0  0  0  0  0  0  0  0  0  0  0  0
  140.9470   70.4430  228.2770 C   0  0  0  0  0  0  0  0  0  0  0  0
  141.0330   71.3610  227.2450 C   0  0  0  0  0  0  0  0  0  0  0  0
  140.5280   70.9740  226.0130 C   0  0  0  0  0  0  0  0  0  0  0  0
  140.5900   71.8290  224.9810 N   0  0  0  0  0  0  0  0  0  0  0  0
  138.2390   73.1630  222.9170 H   0  0  0  0  0  0  0  0  0  0  0  0
  139.1685   73.9340  220.3751 H   0  0  0  0  0  0  0  0  0  0  0  0
  138.0560   74.8751  221.4552 H   0  0  0  0  0  0  0  0  0  0  0  0
  140.8907   73.5429  219.9436 H   0  0  0  0  0  0  0  0  0  0  0  0
  140.9578   74.6524  218.5787 H   0  0  0  0  0  0  0  0  0  0  0  0
  143.2803   74.3829  220.6322 H   0  0  0  0  0  0  0  0  0  0  0  0
  143.2624   73.4166  219.1760 H   0  0  0  0  0  0  0  0  0  0  0  0
  144.3885   75.5267  218.5469 H   0  0  0  0  0  0  0  0  0  0  0  0
  142.7551   75.7034  217.8828 H   0  0  0  0  0  0  0  0  0  0  0  0
  143.8698   76.7249  220.5060 H   0  0  0  0  0  0  0  0  0  0  0  0
  143.1555   77.6496  219.0783 H   0  0  0  0  0  0  0  0  0  0  0  0
  141.9081   76.9776  221.4691 H   0  0  0  0  0  0  0  0  0  0  0  0
  141.4623   78.3961  219.0416 H   0  0  0  0  0  0  0  0  0  0  0  0
  139.9514   77.6741  219.8657 H   0  0  0  0  0  0  0  0  0  0  0  0
  142.8709   78.5259  221.3224 H   0  0  0  0  0  0  0  0  0  0  0  0
  142.3984   80.1950  221.8735 H   0  0  0  0  0  0  0  0  0  0  0  0
  141.3634   77.6042  223.0465 H   0  0  0  0  0  0  0  0  0  0  0  0
  142.6929   78.6260  223.7283 H   0  0  0  0  0  0  0  0  0  0  0  0
  140.1453   78.8954  224.5420 H   0  0  0  0  0  0  0  0  0  0  0  0
  141.2418   80.2949  224.4189 H   0  0  0  0  0  0  0  0  0  0  0  0
  138.8493   80.3566  223.1924 H   0  0  0  0  0  0  0  0  0  0  0  0
  140.2356   81.0410  222.3575 H   0  0  0  0  0  0  0  0  0  0  0  0
  139.7013   78.0033  222.2041 H   0  0  0  0  0  0  0  0  0  0  0  0
  138.7824   79.0760  221.1413 H   0  0  0  0  0  0  0  0  0  0  0  0
  139.1865   70.0722  222.5448 H   0  0  0  0  0  0  0  0  0  0  0  0
  139.0114   68.4047  224.3676 H   0  0  0  0  0  0  0  0  0  0  0  0
  139.4303   67.8310  226.6933 H   0  0  0  0  0  0  0  0  0  0  0  0
  141.3369   70.7078  229.2709 H   0  0  0  0  0  0  0  0  0  0  0  0
  141.4821   72.3538  227.3954 H   0  0  0  0  0  0  0  0  0  0  0  0
  1  2  2  0
  2  3  1  0
  3  4  1  0
  4  5  1  0
  5  6  2  0
  5  7  1  0
  7  8  1  0
  8  9  1  0
  9 10  1  0
 10 11  1  0
 11 12  1  0
 12 13  1  0
 13 14  1  0
 14 15  1  0
 15 16  1  0
 16 17  1  0
 17 18  1  0
 18 19  1  0
  2 20  1  0
 20 21  2  0
 21 22  1  0
 22 23  2  0
 23 24  1  0
 24 25  2  0
 25 26  1  0
 25 27  1  0
 27 28  2  0
 28 29  1  0
 29 30  2  0
 12  7  1  0
 19 14  1  0
 30 20  1  0
 29 23  1  0
  3 31  1  0
  4 32  1  0
  4 33  1  0
  8 34  1  0
  8 35  1  0
  9 36  1  0
  9 37  1  0
 10 38  1  0
 10 39  1  0
 11 40  1  0
 11 41  1  0
 12 42  1  1
 13 43  1  0
 13 44  1  0
 15 45  1  0
 15 46  1  0
 16 47  1  0
 16 48  1  0
 17 49  1  0
 17 50  1  0
 18 51  1  0
 18 52  1  0
 19 53  1  0
 19 54  1  0
 21 55  1  0
 22 56  1  0
 24 57  1  0
 27 58  1  0
 28 59  1  0
M  END
>  <smiles>  (10) 
O=C(NCC(=O)N1CCCC[C@H]1CN1CCCCC1)c1ccc2cc(F)ccc2n1

>  <score_type>  (10) 
oracle

>  <origin>  (10) 
autodockgpu

>  <m_score__min__energy>  (10) 
-8.6999999999999993

>  <m_primary>  (10) 
energy

>  <rmsd>  (10) 
2.3259188845633596

>  <m_score__min__rmsd>  (10) 
2.3259188845633596

>  <meeko>  (10) 
{"free_energy": -8.42, "intermolecular_energy": -10.21, "internal_energy": -1.77, "cluster_size": 24, "cluster_id": 1, "rank_in_cluster": 10}

>  <energy>  (10) 
-8.42

>  <cluster_rmsd>  (10) 
1.97

>  <cluster>  (10) 
1

$$$$

     RDKit          3D

 59 62  0  0  0  0  0  0  0  0999 V2000
  141.0670   71.6020  221.0250 O   0  0  0  0  0  0  0  0  0  0  0  0
  140.5910   72.1550  222.0240 C   0  0  0  0  0  0  0  0  0  0  0  0
  140.3530   73.5430  222.0220 N   0  0  0  0  0  0  0  0  0  0  0  0
  140.6150   74.4490  220.9370 C   0  0  0  0  0  0  0  0  0  0  0  0
  140.9830   75.8190  221.4310 C   0  0  0  0  0  0  0  0  0  0  0  0
  140.7100   76.1880  222.5860 O   0  0  0  0  0  0  0  0  0  0  0  0
  141.6700   76.6780  220.4950 N   0  0  0  0  0  0  0  0  0  0  0  0
  141.4160   78.1220  220.4690 C   0  0  0  0  0  0  0  0  0  0  0  0
  141.1230   78.4320  218.9900 C   0  0  0  0  0  0  0  0  0  0  0  0
  142.5040   78.2990  218.3410 C   0  0  0  0  0  0  0  0  0  0  0  0
  142.7970   76.8450  218.2910 C   0  0  0  0  0  0  0  0  0  0  0  0
  142.5710   76.0840  219.5790 C   0  0  1  0  0  0  0  0  0  0  0  0
  143.8500   75.5100  220.0920 C   0  0  0  0  0  0  0  0  0  0  0  0
  143.8660   74.1430  220.4990 N   0  0  0  0  0  0  0  0  0  0  0  0
  145.2260   73.7580  220.9470 C   0  0  0  0  0  0  0  0  0  0  0  0
  145.9700   72.9600  219.9170 C   0  0  0  0  0  0  0  0  0  0  0  0
  145.2780   71.6290  219.6430 C   0  0  0  0  0  0  0  0  0  0  0  0
  143.7810   71.8370  219.8560 C   0  0  0  0  0  0  0  0  0  0  0  0
  143.5320   73.2720  219.3620 C   0  0  0  0  0  0  0  0  0  0  0  0
  140.2590   71.3840  223.2420 C   0  0  0  0  0  0  0  0  0  0  0  0
  139.5260   70.2380  223.2250 C   0  0  0  0  0  0  0  0  0  0  0  0
  139.2220   69.5340  224.3710 C   0  0  0  0  0  0  0  0  0  0  0  0
  139.6950   70.0330  225.5840 C   0  0  0  0  0  0  0  0  0  0  0  0
  139.4150   69.3590  226.7550 C   0  0  0  0  0  0  0  0  0  0  0  0
  139.9030   69.8860  227.9390 C   0  0  0  0  0  0  0  0  0  0  0  0
  139.6440   69.2450  229.1250 F   0  0  0  0  0  0  0  0  0  0  0  0
  140.6470   71.0460  227.9580 C   0  0  0  0  0  0  0  0  0  0  0  0
  140.9340   71.7300  226.7900 C   0  0  0  0  0  0  0  0  0  0  0  0
  140.4400   71.1950  225.6090 C   0  0  0  0  0  0  0  0  0  0  0  0
  140.6930   71.8210  224.4500 N   0  0  0  0  0  0  0  0  0  0  0  0
  139.9440   73.9560  222.8960 H   0  0  0  0  0  0  0  0  0  0  0  0
  141.4458   74.0526  220.3348 H   0  0  0  0  0  0  0  0  0  0  0  0
  139.6980   74.5371  220.3359 H   0  0  0  0  0  0  0  0  0  0  0  0
  140.5509   78.3766  221.0989 H   0  0  0  0  0  0  0  0  0  0  0  0
  142.2636   78.7042  220.8597 H   0  0  0  0  0  0  0  0  0  0  0  0
  140.4132   77.7069  218.5653 H   0  0  0  0  0  0  0  0  0  0  0  0
  140.6587   79.4168  218.8330 H   0  0  0  0  0  0  0  0  0  0  0  0
  142.4907   78.7209  217.3252 H   0  0  0  0  0  0  0  0  0  0  0  0
  143.2704   78.8440  218.9117 H   0  0  0  0  0  0  0  0  0  0  0  0
  142.1555   76.3977  217.5175 H   0  0  0  0  0  0  0  0  0  0  0  0
  143.8736   76.7639  218.0806 H   0  0  0  0  0  0  0  0  0  0  0  0
  141.9619   75.1973  219.3492 H   0  0  0  0  0  0  0  0  0  0  0  0
  144.5990   75.6203  219.2939 H   0  0  0  0  0  0  0  0  0  0  0  0
  144.0447   76.0699  221.0186 H   0  0  0  0  0  0  0  0  0  0  0  0
  145.7973   74.6727  221.1638 H   0  0  0  0  0  0  0  0  0  0  0  0
  145.1153   73.1264  221.8408 H   0  0  0  0  0  0  0  0  0  0  0  0
  146.0188   73.5378  218.9823 H   0  0  0  0  0  0  0  0  0  0  0  0
  146.9805   72.7542  220.2998 H   0  0  0  0  0  0  0  0  0  0  0  0
  145.4694   71.3126  218.6070 H   0  0  0  0  0  0  0  0  0  0  0  0
  145.6601   70.8481  220.3169 H   0  0  0  0  0  0  0  0  0  0  0  0
  143.1979   71.1138  219.2670 H   0  0  0  0  0  0  0  0  0  0  0  0
  143.4775   71.6906  220.9031 H   0  0  0  0  0  0  0  0  0  0  0  0
  144.1776   73.4995  218.5009 H   0  0  0  0  0  0  0  0  0  0  0  0
  142.4929   73.4147  219.0303 H   0  0  0  0  0  0  0  0  0  0  0  0
  139.1616   69.8581  222.2592 H   0  0  0  0  0  0  0  0  0  0  0  0
  138.6265   68.6100  224.3297 H   0  0  0  0  0  0  0  0  0  0  0  0
  138.8227   68.4321  226.7483 H   0  0  0  0  0  0  0  0  0  0  0  0
  141.0188   71.4345  228.9176 H   0  0  0  0  0  0  0  0  0  0  0  0
  141.5272   72.6563  226.7974 H   0  0  0  0  0  0  0  0  0  0  0  0
  1  2  2  0
  2  3  1  0
  3  4  1  0
  4  5  1  0
  5  6  2  0
  5  7  1  0
  7  8  1  0
  8  9  1  0
  9 10  1  0
 10 11  1  0
 11 12  1  0
 12 13  1  0
 13 14  1  0
 14 15  1  0
 15 16  1  0
 16 17  1  0
 17 18  1  0
 18 19  1  0
  2 20  1  0
 20 21  2  0
 21 22  1  0
 22 23  2  0
 23 24  1  0
 24 25  2  0
 25 26  1  0
 25 27  1  0
 27 28  2  0
 28 29  1  0
 29 30  2  0
 12  7  1  0
 19 14  1  0
 30 20  1  0
 29 23  1  0
  3 31  1  0
  4 32  1  0
  4 33  1  0
  8 34  1  0
  8 35  1  0
  9 36  1  0
  9 37  1  0
 10 38  1  0
 10 39  1  0
 11 40  1  0
 11 41  1  0
 12 42  1  6
 13 43  1  0
 13 44  1  0
 15 45  1  0
 15 46  1  0
 16 47  1  0
 16 48  1  0
 17 49  1  0
 17 50  1  0
 18 51  1  0
 18 52  1  0
 19 53  1  0
 19 54  1  0
 21 55  1  0
 22 56  1  0
 24 57  1  0
 27 58  1  0
 28 59  1  0
M  END
>  <smiles>  (11) 
O=C(NCC(=O)N1CCCC[C@H]1CN1CCCCC1)c1ccc2cc(F)ccc2n1

>  <score_type>  (11) 
oracle

>  <origin>  (11) 
autodockgpu

>  <m_score__min__energy>  (11) 
-8.6999999999999993

>  <m_primary>  (11) 
energy

>  <rmsd>  (11) 
4.67638772093395

>  <m_score__min__rmsd>  (11) 
4.67638772093395

>  <meeko>  (11) 
{"free_energy": -7.95, "intermolecular_energy": -9.74, "internal_energy": -2.27, "cluster_size": 5, "cluster_id": 4, "rank_in_cluster": 3}

>  <energy>  (11) 
-8.4

>  <cluster_rmsd>  (11) 
1.98

>  <cluster>  (11) 
1

$$$$

     RDKit          3D

 59 62  0  0  0  0  0  0  0  0999 V2000
  139.0490   71.0760  221.1060 O   0  0  0  0  0  0  0  0  0  0  0  0
  139.2770   71.5970  222.2040 C   0  0  0  0  0  0  0  0  0  0  0  0
  139.3890   72.9960  222.3150 N   0  0  0  0  0  0  0  0  0  0  0  0
  139.2670   73.9480  221.2440 C   0  0  0  0  0  0  0  0  0  0  0  0
  139.9520   75.2440  221.5690 C   0  0  0  0  0  0  0  0  0  0  0  0
  139.9290   75.7220  222.7170 O   0  0  0  0  0  0  0  0  0  0  0  0
  140.6380   75.9000  220.4800 N   0  0  0  0  0  0  0  0  0  0  0  0
  140.5310   75.3950  219.1080 C   0  0  0  0  0  0  0  0  0  0  0  0
  141.9890   75.2820  218.6260 C   0  0  0  0  0  0  0  0  0  0  0  0
  142.3930   76.7480  218.4400 C   0  0  0  0  0  0  0  0  0  0  0  0
  142.5690   77.3040  219.8050 C   0  0  0  0  0  0  0  0  0  0  0  0
  141.4460   77.0230  220.7790 C   0  0  1  0  0  0  0  0  0  0  0  0
  140.7880   78.2910  221.2150 C   0  0  0  0  0  0  0  0  0  0  0  0
  141.1070   78.8120  222.5040 N   0  0  0  0  0  0  0  0  0  0  0  0
  140.1480   79.8800  222.8750 C   0  0  0  0  0  0  0  0  0  0  0  0
  140.7220   81.2560  222.7080 C   0  0  0  0  0  0  0  0  0  0  0  0
  141.9070   81.4780  223.6420 C   0  0  0  0  0  0  0  0  0  0  0  0
  142.5900   80.1290  223.8470 C   0  0  0  0  0  0  0  0  0  0  0  0
  142.4420   79.4270  222.4870 C   0  0  0  0  0  0  0  0  0  0  0  0
  139.4370   70.7770  223.4240 C   0  0  0  0  0  0  0  0  0  0  0  0
  139.0390   69.4790  223.5100 C   0  0  0  0  0  0  0  0  0  0  0  0
  139.1930   68.7300  224.6580 C   0  0  0  0  0  0  0  0  0  0  0  0
  139.7830   69.3460  225.7610 C   0  0  0  0  0  0  0  0  0  0  0  0
  139.9570   68.6320  226.9280 C   0  0  0  0  0  0  0  0  0  0  0  0
  140.5470   69.2780  228.0020 C   0  0  0  0  0  0  0  0  0  0  0  0
  140.7360   68.6020  229.1810 F   0  0  0  0  0  0  0  0  0  0  0  0
  140.9530   70.5940  227.9160 C   0  0  0  0  0  0  0  0  0  0  0  0
  140.7820   71.3190  226.7500 C   0  0  0  0  0  0  0  0  0  0  0  0
  140.1900   70.6630  225.6810 C   0  0  0  0  0  0  0  0  0  0  0  0
  140.0050   71.3230  224.5270 N   0  0  0  0  0  0  0  0  0  0  0  0
  139.5780   73.3830  223.2730 H   0  0  0  0  0  0  0  0  0  0  0  0
  139.7210   73.5231  220.3366 H   0  0  0  0  0  0  0  0  0  0  0  0
  138.1976   74.1555  221.0913 H   0  0  0  0  0  0  0  0  0  0  0  0
  140.0388   74.4114  219.0927 H   0  0  0  0  0  0  0  0  0  0  0  0
  139.9270   76.0525  218.4654 H   0  0  0  0  0  0  0  0  0  0  0  0
  142.6197   74.7888  219.3803 H   0  0  0  0  0  0  0  0  0  0  0  0
  142.1032   74.6773  217.7143 H   0  0  0  0  0  0  0  0  0  0  0  0
  143.3350   76.8156  217.8761 H   0  0  0  0  0  0  0  0  0  0  0  0
  141.6318   77.3055  217.8745 H   0  0  0  0  0  0  0  0  0  0  0  0
  143.4939   76.8818  220.2250 H   0  0  0  0  0  0  0  0  0  0  0  0
  142.5922   78.3969  219.6823 H   0  0  0  0  0  0  0  0  0  0  0  0
  141.8884   76.6264  221.7048 H   0  0  0  0  0  0  0  0  0  0  0  0
  141.0505   79.0639  220.4777 H   0  0  0  0  0  0  0  0  0  0  0  0
  139.7211   78.0323  221.2842 H   0  0  0  0  0  0  0  0  0  0  0  0
  139.2569   79.7904  222.2364 H   0  0  0  0  0  0  0  0  0  0  0  0
  139.9003   79.7498  223.9388 H   0  0  0  0  0  0  0  0  0  0  0  0
  141.0571   81.3808  221.6677 H   0  0  0  0  0  0  0  0  0  0  0  0
  139.9417   81.9906  222.9557 H   0  0  0  0  0  0  0  0  0  0  0  0
  142.6124   82.1911  223.1904 H   0  0  0  0  0  0  0  0  0  0  0  0
  141.5693   81.8909  224.6040 H   0  0  0  0  0  0  0  0  0  0  0  0
  143.6510   80.2630  224.1045 H   0  0  0  0  0  0  0  0  0  0  0  0
  142.1477   79.5514  224.6721 H   0  0  0  0  0  0  0  0  0  0  0  0
  142.5183   80.1569  221.6676 H   0  0  0  0  0  0  0  0  0  0  0  0
  143.2329   78.6796  222.3260 H   0  0  0  0  0  0  0  0  0  0  0  0
  138.5764   69.0085  222.6299 H   0  0  0  0  0  0  0  0  0  0  0  0
  138.8615   67.6821  224.7019 H   0  0  0  0  0  0  0  0  0  0  0  0
  139.6372   67.5822  227.0036 H   0  0  0  0  0  0  0  0  0  0  0  0
  141.4201   71.0744  228.7884 H   0  0  0  0  0  0  0  0  0  0  0  0
  141.1013   72.3689  226.6742 H   0  0  0  0  0  0  0  0  0  0  0  0
  1  2  2  0
  2  3  1  0
  3  4  1  0
  4  5  1  0
  5  6  2  0
  5  7  1  0
  7  8  1  0
  8  9  1  0
  9 10  1  0
 10 11  1  0
 11 12  1  0
 12 13  1  0
 13 14  1  0
 14 15  1  0
 15 16  1  0
 16 17  1  0
 17 18  1  0
 18 19  1  0
  2 20  1  0
 20 21  2  0
 21 22  1  0
 22 23  2  0
 23 24  1  0
 24 25  2  0
 25 26  1  0
 25 27  1  0
 27 28  2  0
 28 29  1  0
 29 30  2  0
 12  7  1  0
 19 14  1  0
 30 20  1  0
 29 23  1  0
  3 31  1  0
  4 32  1  0
  4 33  1  0
  8 34  1  0
  8 35  1  0
  9 36  1  0
  9 37  1  0
 10 38  1  0
 10 39  1  0
 11 40  1  0
 11 41  1  0
 12 42  1  1
 13 43  1  0
 13 44  1  0
 15 45  1  0
 15 46  1  0
 16 47  1  0
 16 48  1  0
 17 49  1  0
 17 50  1  0
 18 51  1  0
 18 52  1  0
 19 53  1  0
 19 54  1  0
 21 55  1  0
 22 56  1  0
 24 57  1  0
 27 58  1  0
 28 59  1  0
M  END
>  <smiles>  (12) 
O=C(NCC(=O)N1CCCC[C@H]1CN1CCCCC1)c1ccc2cc(F)ccc2n1

>  <score_type>  (12) 
oracle

>  <origin>  (12) 
autodockgpu

>  <m_score__min__energy>  (12) 
-8.6999999999999993

>  <m_primary>  (12) 
energy

>  <rmsd>  (12) 
2.0554098643399024

>  <m_score__min__rmsd>  (12) 
2.0554098643399024

>  <meeko>  (12) 
{"free_energy": -8.39, "intermolecular_energy": -10.18, "internal_energy": -1.93, "cluster_size": 24, "cluster_id": 1, "rank_in_cluster": 12}

>  <energy>  (12) 
-8.39

>  <cluster_rmsd>  (12) 
1.73

>  <cluster>  (12) 
1

$$$$

     RDKit          3D

 59 62  0  0  0  0  0  0  0  0999 V2000
  139.5320   74.7710  222.1540 O   0  0  0  0  0  0  0  0  0  0  0  0
  140.6810   75.0210  221.7700 C   0  0  0  0  0  0  0  0  0  0  0  0
  141.1840   76.3340  221.8470 N   0  0  0  0  0  0  0  0  0  0  0  0
  140.4830   77.4870  222.3440 C   0  0  0  0  0  0  0  0  0  0  0  0
  141.4270   78.5750  222.7680 C   0  0  0  0  0  0  0  0  0  0  0  0
  142.1230   78.4690  223.7930 O   0  0  0  0  0  0  0  0  0  0  0  0
  141.4830   79.7440  221.9220 N   0  0  0  0  0  0  0  0  0  0  0  0
  141.8200   81.0600  222.4750 C   0  0  0  0  0  0  0  0  0  0  0  0
  140.7000   81.9870  221.9680 C   0  0  0  0  0  0  0  0  0  0  0  0
  141.0320   82.1270  220.4790 C   0  0  0  0  0  0  0  0  0  0  0  0
  140.6600   80.8350  219.8510 C   0  0  0  0  0  0  0  0  0  0  0  0
  141.1700   79.5930  220.5500 C   0  0  1  0  0  0  0  0  0  0  0  0
  142.1090   78.8330  219.6730 C   0  0  0  0  0  0  0  0  0  0  0  0
  141.9490   77.4200  219.5700 N   0  0  0  0  0  0  0  0  0  0  0  0
  143.2420   76.7820  219.2270 C   0  0  0  0  0  0  0  0  0  0  0  0
  143.3280   76.3930  217.7800 C   0  0  0  0  0  0  0  0  0  0  0  0
  142.2870   75.3370  217.4280 C   0  0  0  0  0  0  0  0  0  0  0  0
  141.0780   75.5640  218.3310 C   0  0  0  0  0  0  0  0  0  0  0  0
  141.0130   77.0930  218.4850 C   0  0  0  0  0  0  0  0  0  0  0  0
  141.5560   73.9610  221.2220 C   0  0  0  0  0  0  0  0  0  0  0  0
  141.1310   72.6910  220.9840 C   0  0  0  0  0  0  0  0  0  0  0  0
  141.9620   71.7140  220.4770 C   0  0  0  0  0  0  0  0  0  0  0  0
  143.2840   72.0630  220.2040 C   0  0  0  0  0  0  0  0  0  0  0  0
  144.1480   71.1160  219.6950 C   0  0  0  0  0  0  0  0  0  0  0  0
  145.4530   71.5010  219.4360 C   0  0  0  0  0  0  0  0  0  0  0  0
  146.3430   70.5870  218.9310 F   0  0  0  0  0  0  0  0  0  0  0  0
  145.8850   72.7890  219.6770 C   0  0  0  0  0  0  0  0  0  0  0  0
  145.0260   73.7460  220.1880 C   0  0  0  0  0  0  0  0  0  0  0  0
  143.7220   73.3510  220.4440 C   0  0  0  0  0  0  0  0  0  0  0  0
  142.8510   74.2430  220.9380 N   0  0  0  0  0  0  0  0  0  0  0  0
  142.1670   76.4870  221.5100 H   0  0  0  0  0  0  0  0  0  0  0  0
  139.8272   77.8742  221.5503 H   0  0  0  0  0  0  0  0  0  0  0  0
  139.8998   77.1788  223.2242 H   0  0  0  0  0  0  0  0  0  0  0  0
  141.8315   81.0288  223.5745 H   0  0  0  0  0  0  0  0  0  0  0  0
  142.8189   81.4014  222.1656 H   0  0  0  0  0  0  0  0  0  0  0  0
  139.7100   81.5300  222.1130 H   0  0  0  0  0  0  0  0  0  0  0  0
  140.6542   82.9494  222.4988 H   0  0  0  0  0  0  0  0  0  0  0  0
  140.4517   82.9488  220.0341 H   0  0  0  0  0  0  0  0  0  0  0  0
  142.0965   82.3570  220.3246 H   0  0  0  0  0  0  0  0  0  0  0  0
  139.5619   80.7783  219.8201 H   0  0  0  0  0  0  0  0  0  0  0  0
  141.1354   80.8366  218.8590 H   0  0  0  0  0  0  0  0  0  0  0  0
  140.3233   78.9033  220.6818 H   0  0  0  0  0  0  0  0  0  0  0  0
  142.0118   79.2459  218.6581 H   0  0  0  0  0  0  0  0  0  0  0  0
  143.0898   78.9591  220.1547 H   0  0  0  0  0  0  0  0  0  0  0  0
  144.0541   77.4895  219.4504 H   0  0  0  0  0  0  0  0  0  0  0  0
  143.3287   75.8627  219.8248 H   0  0  0  0  0  0  0  0  0  0  0  0
  143.1584   77.2846  217.1585 H   0  0  0  0  0  0  0  0  0  0  0  0
  144.3268   75.9722  217.5922 H   0  0  0  0  0  0  0  0  0  0  0  0
  141.9918   75.4379  216.3731 H   0  0  0  0  0  0  0  0  0  0  0  0
  142.6958   74.3265  217.5755 H   0  0  0  0  0  0  0  0  0  0  0  0
  140.1610   75.1786  217.8614 H   0  0  0  0  0  0  0  0  0  0  0  0
  141.1659   75.0438  219.2962 H   0  0  0  0  0  0  0  0  0  0  0  0
  141.3199   77.5866  217.5511 H   0  0  0  0  0  0  0  0  0  0  0  0
  139.9926   77.4369  218.7097 H   0  0  0  0  0  0  0  0  0  0  0  0
  140.0845   72.4333  221.2043 H   0  0  0  0  0  0  0  0  0  0  0  0
  141.5941   70.6936  220.2942 H   0  0  0  0  0  0  0  0  0  0  0  0
  143.8111   70.0870  219.5008 H   0  0  0  0  0  0  0  0  0  0  0  0
  146.9288   73.0594  219.4595 H   0  0  0  0  0  0  0  0  0  0  0  0
  145.3630   74.7749  220.3825 H   0  0  0  0  0  0  0  0  0  0  0  0
  1  2  2  0
  2  3  1  0
  3  4  1  0
  4  5  1  0
  5  6  2  0
  5  7  1  0
  7  8  1  0
  8  9  1  0
  9 10  1  0
 10 11  1  0
 11 12  1  0
 12 13  1  0
 13 14  1  0
 14 15  1  0
 15 16  1  0
 16 17  1  0
 17 18  1  0
 18 19  1  0
  2 20  1  0
 20 21  2  0
 21 22  1  0
 22 23  2  0
 23 24  1  0
 24 25  2  0
 25 26  1  0
 25 27  1  0
 27 28  2  0
 28 29  1  0
 29 30  2  0
 12  7  1  0
 19 14  1  0
 30 20  1  0
 29 23  1  0
  3 31  1  0
  4 32  1  0
  4 33  1  0
  8 34  1  0
  8 35  1  0
  9 36  1  0
  9 37  1  0
 10 38  1  0
 10 39  1  0
 11 40  1  0
 11 41  1  0
 12 42  1  1
 13 43  1  0
 13 44  1  0
 15 45  1  0
 15 46  1  0
 16 47  1  0
 16 48  1  0
 17 49  1  0
 17 50  1  0
 18 51  1  0
 18 52  1  0
 19 53  1  0
 19 54  1  0
 21 55  1  0
 22 56  1  0
 24 57  1  0
 27 58  1  0
 28 59  1  0
M  END
>  <smiles>  (13) 
O=C(NCC(=O)N1CCCC[C@H]1CN1CCCCC1)c1ccc2cc(F)ccc2n1

>  <score_type>  (13) 
oracle

>  <origin>  (13) 
autodockgpu

>  <m_score__min__energy>  (13) 
-8.6999999999999993

>  <m_primary>  (13) 
energy

>  <rmsd>  (13) 
6.494954183242952

>  <m_score__min__rmsd>  (13) 
6.494954183242952

>  <meeko>  (13) 
{"free_energy": -6.51, "intermolecular_energy": -8.3, "internal_energy": -3.56, "cluster_size": 8, "cluster_id": 7, "rank_in_cluster": 6}

>  <energy>  (13) 
-8.35

>  <cluster_rmsd>  (13) 
1.72

>  <cluster>  (13) 
1

$$$$

     RDKit          3D

 59 62  0  0  0  0  0  0  0  0999 V2000
  139.0490   70.9340  221.0820 O   0  0  0  0  0  0  0  0  0  0  0  0
  139.2810   71.4590  222.1780 C   0  0  0  0  0  0  0  0  0  0  0  0
  139.3900   72.8580  222.2860 N   0  0  0  0  0  0  0  0  0  0  0  0
  139.2620   73.8070  221.2130 C   0  0  0  0  0  0  0  0  0  0  0  0
  139.8780   75.1310  221.5630 C   0  0  0  0  0  0  0  0  0  0  0  0
  139.8030   75.6000  222.7120 O   0  0  0  0  0  0  0  0  0  0  0  0
  140.5610   75.8260  220.4960 N   0  0  0  0  0  0  0  0  0  0  0  0
  140.3570   75.4430  219.0950 C   0  0  0  0  0  0  0  0  0  0  0  0
  141.7810   75.2720  218.5350 C   0  0  0  0  0  0  0  0  0  0  0  0
  142.2800   76.7170  218.4440 C   0  0  0  0  0  0  0  0  0  0  0  0
  142.5560   77.1460  219.8370 C   0  0  0  0  0  0  0  0  0  0  0  0
  141.4590   76.8640  220.8410 C   0  0  1  0  0  0  0  0  0  0  0  0
  140.9130   78.1330  221.4070 C   0  0  0  0  0  0  0  0  0  0  0  0
  141.4740   78.6320  222.6200 N   0  0  0  0  0  0  0  0  0  0  0  0
  140.4530   79.3880  223.3830 C   0  0  0  0  0  0  0  0  0  0  0  0
  140.6220   80.8740  223.2590 C   0  0  0  0  0  0  0  0  0  0  0  0
  141.9480   81.3320  223.8560 C   0  0  0  0  0  0  0  0  0  0  0  0
  142.9490   80.1940  223.6790 C   0  0  0  0  0  0  0  0  0  0  0  0
  142.5660   79.5710  222.3260 C   0  0  0  0  0  0  0  0  0  0  0  0
  139.4480   70.6410  223.4000 C   0  0  0  0  0  0  0  0  0  0  0  0
  139.0620   69.3400  223.4870 C   0  0  0  0  0  0  0  0  0  0  0  0
  139.2220   68.5940  224.6360 C   0  0  0  0  0  0  0  0  0  0  0  0
  139.8040   69.2180  225.7390 C   0  0  0  0  0  0  0  0  0  0  0  0
  139.9840   68.5070  226.9080 C   0  0  0  0  0  0  0  0  0  0  0  0
  140.5660   69.1610  227.9820 C   0  0  0  0  0  0  0  0  0  0  0  0
  140.7590   68.4890  229.1620 F   0  0  0  0  0  0  0  0  0  0  0  0
  140.9580   70.4800  227.8940 C   0  0  0  0  0  0  0  0  0  0  0  0
  140.7820   71.2020  226.7270 C   0  0  0  0  0  0  0  0  0  0  0  0
  140.1980   70.5380  225.6580 C   0  0  0  0  0  0  0  0  0  0  0  0
  140.0080   71.1950  224.5030 N   0  0  0  0  0  0  0  0  0  0  0  0
  139.5830   73.2480  223.2420 H   0  0  0  0  0  0  0  0  0  0  0  0
  139.7643   73.4054  220.3206 H   0  0  0  0  0  0  0  0  0  0  0  0
  138.1902   73.9677  221.0247 H   0  0  0  0  0  0  0  0  0  0  0  0
  139.7958   74.4994  219.0269 H   0  0  0  0  0  0  0  0  0  0  0  0
  139.7730   76.1893  218.5365 H   0  0  0  0  0  0  0  0  0  0  0  0
  142.4072   74.6779  219.2169 H   0  0  0  0  0  0  0  0  0  0  0  0
  141.8120   74.7371  217.5743 H   0  0  0  0  0  0  0  0  0  0  0  0
  143.1983   76.7664  217.8404 H   0  0  0  0  0  0  0  0  0  0  0  0
  141.5363   77.3692  217.9628 H   0  0  0  0  0  0  0  0  0  0  0  0
  143.4654   76.6283  220.1760 H   0  0  0  0  0  0  0  0  0  0  0  0
  142.6533   78.2410  219.7994 H   0  0  0  0  0  0  0  0  0  0  0  0
  141.9126   76.3653  221.7103 H   0  0  0  0  0  0  0  0  0  0  0  0
  141.0448   78.9131  220.6427 H   0  0  0  0  0  0  0  0  0  0  0  0
  139.8742   77.8860  221.6713 H   0  0  0  0  0  0  0  0  0  0  0  0
  139.4568   79.1141  223.0053 H   0  0  0  0  0  0  0  0  0  0  0  0
  140.5705   79.1271  224.4451 H   0  0  0  0  0  0  0  0  0  0  0  0
  140.5936   81.1504  222.1947 H   0  0  0  0  0  0  0  0  0  0  0  0
  139.8054   81.3637  223.8099 H   0  0  0  0  0  0  0  0  0  0  0  0
  142.3050   82.2309  223.3321 H   0  0  0  0  0  0  0  0  0  0  0  0
  141.8280   81.5799  224.9210 H   0  0  0  0  0  0  0  0  0  0  0  0
  143.9791   80.5792  223.6548 H   0  0  0  0  0  0  0  0  0  0  0  0
  142.9160   79.4680  224.5047 H   0  0  0  0  0  0  0  0  0  0  0  0
  142.2258   80.3493  221.6271 H   0  0  0  0  0  0  0  0  0  0  0  0
  143.4213   79.0664  221.8528 H   0  0  0  0  0  0  0  0  0  0  0  0
  138.6045   68.8642  222.6071 H   0  0  0  0  0  0  0  0  0  0  0  0
  138.9015   67.5427  224.6808 H   0  0  0  0  0  0  0  0  0  0  0  0
  139.6751   67.4541  226.9848 H   0  0  0  0  0  0  0  0  0  0  0  0
  141.4185   70.9665  228.7665 H   0  0  0  0  0  0  0  0  0  0  0  0
  141.0911   72.2549  226.6502 H   0  0  0  0  0  0  0  0  0  0  0  0
  1  2  2  0
  2  3  1  0
  3  4  1  0
  4  5  1  0
  5  6  2  0
  5  7  1  0
  7  8  1  0
  8  9  1  0
  9 10  1  0
 10 11  1  0
 11 12  1  0
 12 13  1  0
 13 14  1  0
 14 15  1  0
 15 16  1  0
 16 17  1  0
 17 18  1  0
 18 19  1  0
  2 20  1  0
 20 21  2  0
 21 22  1  0
 22 23  2  0
 23 24  1  0
 24 25  2  0
 25 26  1  0
 25 27  1  0
 27 28  2  0
 28 29  1  0
 29 30  2  0
 12  7  1  0
 19 14  1  0
 30 20  1  0
 29 23  1  0
  3 31  1  0
  4 32  1  0
  4 33  1  0
  8 34  1  0
  8 35  1  0
  9 36  1  0
  9 37  1  0
 10 38  1  0
 10 39  1  0
 11 40  1  0
 11 41  1  0
 12 42  1  1
 13 43  1  0
 13 44  1  0
 15 45  1  0
 15 46  1  0
 16 47  1  0
 16 48  1  0
 17 49  1  0
 17 50  1  0
 18 51  1  0
 18 52  1  0
 19 53  1  0
 19 54  1  0
 21 55  1  0
 22 56  1  0
 24 57  1  0
 27 58  1  0
 28 59  1  0
M  END
>  <smiles>  (14) 
O=C(NCC(=O)N1CCCC[C@H]1CN1CCCCC1)c1ccc2cc(F)ccc2n1

>  <score_type>  (14) 
oracle

>  <origin>  (14) 
autodockgpu

>  <m_score__min__energy>  (14) 
-8.6999999999999993

>  <m_primary>  (14) 
energy

>  <rmsd>  (14) 
2.0175912166719217

>  <m_score__min__rmsd>  (14) 
2.0175912166719217

>  <meeko>  (14) 
{"free_energy": -8.51, "intermolecular_energy": -10.3, "internal_energy": -1.93, "cluster_size": 24, "cluster_id": 1, "rank_in_cluster": 6}

>  <energy>  (14) 
-8.34

>  <cluster_rmsd>  (14) 
1.78

>  <cluster>  (14) 
1

$$$$

     RDKit          3D

 59 62  0  0  0  0  0  0  0  0999 V2000
  139.5220   74.7110  222.1050 O   0  0  0  0  0  0  0  0  0  0  0  0
  140.6790   74.9680  221.7520 C   0  0  0  0  0  0  0  0  0  0  0  0
  141.1760   76.2820  221.8530 N   0  0  0  0  0  0  0  0  0  0  0  0
  140.4580   77.4280  222.3430 C   0  0  0  0  0  0  0  0  0  0  0  0
  141.3890   78.5070  222.8170 C   0  0  0  0  0  0  0  0  0  0  0  0
  142.0470   78.3830  223.8650 O   0  0  0  0  0  0  0  0  0  0  0  0
  141.4760   79.6900  221.9930 N   0  0  0  0  0  0  0  0  0  0  0  0
  141.8290   80.9890  222.5730 C   0  0  0  0  0  0  0  0  0  0  0  0
  140.7310   81.9440  222.0670 C   0  0  0  0  0  0  0  0  0  0  0  0
  141.0870   82.1040  220.5860 C   0  0  0  0  0  0  0  0  0  0  0  0
  140.7020   80.8300  219.9300 C   0  0  0  0  0  0  0  0  0  0  0  0
  141.1800   79.5680  220.6150 C   0  0  1  0  0  0  0  0  0  0  0  0
  142.1180   78.8070  219.7380 C   0  0  0  0  0  0  0  0  0  0  0  0
  141.9390   77.3970  219.6120 N   0  0  0  0  0  0  0  0  0  0  0  0
  143.2280   76.7440  219.2830 C   0  0  0  0  0  0  0  0  0  0  0  0
  143.3340   76.3740  217.8330 C   0  0  0  0  0  0  0  0  0  0  0  0
  142.2830   75.3390  217.4480 C   0  0  0  0  0  0  0  0  0  0  0  0
  141.0620   75.5730  218.3320 C   0  0  0  0  0  0  0  0  0  0  0  0
  141.0170   77.1000  218.5060 C   0  0  0  0  0  0  0  0  0  0  0  0
  141.5700   73.9160  221.2170 C   0  0  0  0  0  0  0  0  0  0  0  0
  141.1650   72.6370  220.9910 C   0  0  0  0  0  0  0  0  0  0  0  0
  142.0120   71.6670  220.4960 C   0  0  0  0  0  0  0  0  0  0  0  0
  143.3290   72.0330  220.2220 C   0  0  0  0  0  0  0  0  0  0  0  0
  144.2080   71.0940  219.7230 C   0  0  0  0  0  0  0  0  0  0  0  0
  145.5080   71.4960  219.4630 C   0  0  0  0  0  0  0  0  0  0  0  0
  146.4120   70.5900  218.9690 F   0  0  0  0  0  0  0  0  0  0  0  0
  145.9190   72.7920  219.6900 C   0  0  0  0  0  0  0  0  0  0  0  0
  145.0460   73.7420  220.1900 C   0  0  0  0  0  0  0  0  0  0  0  0
  143.7470   73.3290  220.4480 C   0  0  0  0  0  0  0  0  0  0  0  0
  142.8620   74.2140  220.9320 N   0  0  0  0  0  0  0  0  0  0  0  0
  142.1670   76.4400  221.5430 H   0  0  0  0  0  0  0  0  0  0  0  0
  139.8311   77.8288  221.5329 H   0  0  0  0  0  0  0  0  0  0  0  0
  139.8425   77.1074  223.1965 H   0  0  0  0  0  0  0  0  0  0  0  0
  141.8255   80.9388  223.6718 H   0  0  0  0  0  0  0  0  0  0  0  0
  142.8378   81.3180  222.2832 H   0  0  0  0  0  0  0  0  0  0  0  0
  139.7316   81.5013  222.1900 H   0  0  0  0  0  0  0  0  0  0  0  0
  140.6930   82.8975  222.6142 H   0  0  0  0  0  0  0  0  0  0  0  0
  140.5275   82.9435  220.1475 H   0  0  0  0  0  0  0  0  0  0  0  0
  142.1575   82.3179  220.4510 H   0  0  0  0  0  0  0  0  0  0  0  0
  139.6037   80.7931  219.8820 H   0  0  0  0  0  0  0  0  0  0  0  0
  141.1917   80.8402  218.9451 H   0  0  0  0  0  0  0  0  0  0  0  0
  140.3196   78.8914  220.7240 H   0  0  0  0  0  0  0  0  0  0  0  0
  142.0388   79.2360  218.7282 H   0  0  0  0  0  0  0  0  0  0  0  0
  143.0946   78.9115  220.2333 H   0  0  0  0  0  0  0  0  0  0  0  0
  144.0466   77.4357  219.5308 H   0  0  0  0  0  0  0  0  0  0  0  0
  143.2900   75.8152  219.8691 H   0  0  0  0  0  0  0  0  0  0  0  0
  143.1892   77.2766  217.2212 H   0  0  0  0  0  0  0  0  0  0  0  0
  144.3295   75.9405  217.6568 H   0  0  0  0  0  0  0  0  0  0  0  0
  142.0085   75.4585  216.3895 H   0  0  0  0  0  0  0  0  0  0  0  0
  142.6733   74.3203  217.5890 H   0  0  0  0  0  0  0  0  0  0  0  0
  140.1478   75.2082  217.8409 H   0  0  0  0  0  0  0  0  0  0  0  0
  141.1250   75.0389  219.2916 H   0  0  0  0  0  0  0  0  0  0  0  0
  141.3477   77.6018  217.5846 H   0  0  0  0  0  0  0  0  0  0  0  0
  139.9981   77.4567  218.7173 H   0  0  0  0  0  0  0  0  0  0  0  0
  140.1220   72.3658  221.2114 H   0  0  0  0  0  0  0  0  0  0  0  0
  141.6600   70.6393  220.3233 H   0  0  0  0  0  0  0  0  0  0  0  0
  143.8867   70.0585  219.5374 H   0  0  0  0  0  0  0  0  0  0  0  0
  146.9587   73.0758  219.4699 H   0  0  0  0  0  0  0  0  0  0  0  0
  145.3674   74.7777  220.3745 H   0  0  0  0  0  0  0  0  0  0  0  0
  1  2  2  0
  2  3  1  0
  3  4  1  0
  4  5  1  0
  5  6  2  0
  5  7  1  0
  7  8  1  0
  8  9  1  0
  9 10  1  0
 10 11  1  0
 11 12  1  0
 12 13  1  0
 13 14  1  0
 14 15  1  0
 15 16  1  0
 16 17  1  0
 17 18  1  0
 18 19  1  0
  2 20  1  0
 20 21  2  0
 21 22  1  0
 22 23  2  0
 23 24  1  0
 24 25  2  0
 25 26  1  0
 25 27  1  0
 27 28  2  0
 28 29  1  0
 29 30  2  0
 12  7  1  0
 19 14  1  0
 30 20  1  0
 29 23  1  0
  3 31  1  0
  4 32  1  0
  4 33  1  0
  8 34  1  0
  8 35  1  0
  9 36  1  0
  9 37  1  0
 10 38  1  0
 10 39  1  0
 11 40  1  0
 11 41  1  0
 12 42  1  1
 13 43  1  0
 13 44  1  0
 15 45  1  0
 15 46  1  0
 16 47  1  0
 16 48  1  0
 17 49  1  0
 17 50  1  0
 18 51  1  0
 18 52  1  0
 19 53  1  0
 19 54  1  0
 21 55  1  0
 22 56  1  0
 24 57  1  0
 27 58  1  0
 28 59  1  0
M  END
>  <smiles>  (15) 
O=C(NCC(=O)N1CCCC[C@H]1CN1CCCCC1)c1ccc2cc(F)ccc2n1

>  <score_type>  (15) 
oracle

>  <origin>  (15) 
autodockgpu

>  <m_score__min__energy>  (15) 
-8.6999999999999993

>  <m_primary>  (15) 
energy

>  <rmsd>  (15) 
6.484210091168885

>  <m_score__min__rmsd>  (15) 
6.484210091168885

>  <meeko>  (15) 
{"free_energy": -6.55, "intermolecular_energy": -8.34, "internal_energy": -3.52, "cluster_size": 8, "cluster_id": 7, "rank_in_cluster": 4}

>  <energy>  (15) 
-8.34

>  <cluster_rmsd>  (15) 
1.71

>  <cluster>  (15) 
1

$$$$

     RDKit          3D

 59 62  0  0  0  0  0  0  0  0999 V2000
  139.5380   74.6300  222.0880 O   0  0  0  0  0  0  0  0  0  0  0  0
  140.6930   74.9000  221.7400 C   0  0  0  0  0  0  0  0  0  0  0  0
  141.1750   76.2190  221.8440 N   0  0  0  0  0  0  0  0  0  0  0  0
  140.4430   77.3570  222.3310 C   0  0  0  0  0  0  0  0  0  0  0  0
  141.3590   78.4250  222.8570 C   0  0  0  0  0  0  0  0  0  0  0  0
  142.0000   78.2710  223.9110 O   0  0  0  0  0  0  0  0  0  0  0  0
  141.4520   79.6350  222.0740 N   0  0  0  0  0  0  0  0  0  0  0  0
  141.8360   80.9070  222.6940 C   0  0  0  0  0  0  0  0  0  0  0  0
  140.7470   81.8980  222.2410 C   0  0  0  0  0  0  0  0  0  0  0  0
  141.0800   82.1050  220.7610 C   0  0  0  0  0  0  0  0  0  0  0  0
  140.6630   80.8610  220.0670 C   0  0  0  0  0  0  0  0  0  0  0  0
  141.1310   79.5680  220.6980 C   0  0  1  0  0  0  0  0  0  0  0  0
  142.0420   78.8240  219.7780 C   0  0  0  0  0  0  0  0  0  0  0  0
  141.8690   77.4140  219.6440 N   0  0  0  0  0  0  0  0  0  0  0  0
  143.1700   76.7640  219.3570 C   0  0  0  0  0  0  0  0  0  0  0  0
  143.3240   76.3960  217.9100 C   0  0  0  0  0  0  0  0  0  0  0  0
  142.2880   75.3600  217.4890 C   0  0  0  0  0  0  0  0  0  0  0  0
  141.0380   75.5900  218.3330 C   0  0  0  0  0  0  0  0  0  0  0  0
  140.9850   77.1170  218.5080 C   0  0  0  0  0  0  0  0  0  0  0  0
  141.5980   73.8580  221.2090 C   0  0  0  0  0  0  0  0  0  0  0  0
  141.2050   72.5780  220.9700 C   0  0  0  0  0  0  0  0  0  0  0  0
  142.0640   71.6170  220.4780 C   0  0  0  0  0  0  0  0  0  0  0  0
  143.3820   71.9950  220.2210 C   0  0  0  0  0  0  0  0  0  0  0  0
  144.2730   71.0650  219.7270 C   0  0  0  0  0  0  0  0  0  0  0  0
  145.5730   71.4780  219.4840 C   0  0  0  0  0  0  0  0  0  0  0  0
  146.4900   70.5820  218.9940 F   0  0  0  0  0  0  0  0  0  0  0  0
  145.9720   72.7760  219.7250 C   0  0  0  0  0  0  0  0  0  0  0  0
  145.0860   73.7160  220.2210 C   0  0  0  0  0  0  0  0  0  0  0  0
  143.7880   73.2920  220.4610 C   0  0  0  0  0  0  0  0  0  0  0  0
  142.8900   74.1670  220.9400 N   0  0  0  0  0  0  0  0  0  0  0  0
  142.1660   76.3890  221.5370 H   0  0  0  0  0  0  0  0  0  0  0  0
  139.8447   77.7746  221.5078 H   0  0  0  0  0  0  0  0  0  0  0  0
  139.7986   77.0215  223.1569 H   0  0  0  0  0  0  0  0  0  0  0  0
  141.8491   80.8174  223.7903 H   0  0  0  0  0  0  0  0  0  0  0  0
  142.8454   81.2295  222.3989 H   0  0  0  0  0  0  0  0  0  0  0  0
  139.7421   81.4683  222.3658 H   0  0  0  0  0  0  0  0  0  0  0  0
  140.7357   82.8319  222.8221 H   0  0  0  0  0  0  0  0  0  0  0  0
  140.5268   82.9682  220.3624 H   0  0  0  0  0  0  0  0  0  0  0  0
  142.1514   82.3068  220.6147 H   0  0  0  0  0  0  0  0  0  0  0  0
  139.5636   80.8435  220.0367 H   0  0  0  0  0  0  0  0  0  0  0  0
  141.1367   80.8985  219.0749 H   0  0  0  0  0  0  0  0  0  0  0  0
  140.2610   78.9023  220.7976 H   0  0  0  0  0  0  0  0  0  0  0  0
  141.9218   79.2628  218.7765 H   0  0  0  0  0  0  0  0  0  0  0  0
  143.0359   78.9316  220.2370 H   0  0  0  0  0  0  0  0  0  0  0  0
  143.9786   77.4571  219.6323 H   0  0  0  0  0  0  0  0  0  0  0  0
  143.2151   75.8348  219.9439 H   0  0  0  0  0  0  0  0  0  0  0  0
  143.1979   77.2993  217.2951 H   0  0  0  0  0  0  0  0  0  0  0  0
  144.3254   75.9641  217.7661 H   0  0  0  0  0  0  0  0  0  0  0  0
  142.0481   75.4811  216.4223 H   0  0  0  0  0  0  0  0  0  0  0  0
  142.6753   74.3417  217.6410 H   0  0  0  0  0  0  0  0  0  0  0  0
  140.1411   75.2246  217.8115 H   0  0  0  0  0  0  0  0  0  0  0  0
  141.0701   75.0540  219.2931 H   0  0  0  0  0  0  0  0  0  0  0  0
  141.3452   77.6207  217.5989 H   0  0  0  0  0  0  0  0  0  0  0  0
  139.9591   77.4715  218.6862 H   0  0  0  0  0  0  0  0  0  0  0  0
  140.1616   72.2981  221.1771 H   0  0  0  0  0  0  0  0  0  0  0  0
  141.7213   70.5879  220.2946 H   0  0  0  0  0  0  0  0  0  0  0  0
  143.9612   70.0283  219.5322 H   0  0  0  0  0  0  0  0  0  0  0  0
  147.0122   73.0689  219.5195 H   0  0  0  0  0  0  0  0  0  0  0  0
  145.3974   74.7528  220.4161 H   0  0  0  0  0  0  0  0  0  0  0  0
  1  2  2  0
  2  3  1  0
  3  4  1  0
  4  5  1  0
  5  6  2  0
  5  7  1  0
  7  8  1  0
  8  9  1  0
  9 10  1  0
 10 11  1  0
 11 12  1  0
 12 13  1  0
 13 14  1  0
 14 15  1  0
 15 16  1  0
 16 17  1  0
 17 18  1  0
 18 19  1  0
  2 20  1  0
 20 21  2  0
 21 22  1  0
 22 23  2  0
 23 24  1  0
 24 25  2  0
 25 26  1  0
 25 27  1  0
 27 28  2  0
 28 29  1  0
 29 30  2  0
 12  7  1  0
 19 14  1  0
 30 20  1  0
 29 23  1  0
  3 31  1  0
  4 32  1  0
  4 33  1  0
  8 34  1  0
  8 35  1  0
  9 36  1  0
  9 37  1  0
 10 38  1  0
 10 39  1  0
 11 40  1  0
 11 41  1  0
 12 42  1  1
 13 43  1  0
 13 44  1  0
 15 45  1  0
 15 46  1  0
 16 47  1  0
 16 48  1  0
 17 49  1  0
 17 50  1  0
 18 51  1  0
 18 52  1  0
 19 53  1  0
 19 54  1  0
 21 55  1  0
 22 56  1  0
 24 57  1  0
 27 58  1  0
 28 59  1  0
M  END
>  <smiles>  (16) 
O=C(NCC(=O)N1CCCC[C@H]1CN1CCCCC1)c1ccc2cc(F)ccc2n1

>  <score_type>  (16) 
oracle

>  <origin>  (16) 
autodockgpu

>  <m_score__min__energy>  (16) 
-8.6999999999999993

>  <m_primary>  (16) 
energy

>  <rmsd>  (16) 
6.477522683289877

>  <m_score__min__rmsd>  (16) 
6.477522683289877

>  <meeko>  (16) 
{"free_energy": -6.61, "intermolecular_energy": -8.4, "internal_energy": -3.46, "cluster_size": 8, "cluster_id": 7, "rank_in_cluster": 2}

>  <energy>  (16) 
-8.29

>  <cluster_rmsd>  (16) 
1.71

>  <cluster>  (16) 
1

$$$$

     RDKit          3D

 59 62  0  0  0  0  0  0  0  0999 V2000
  139.3510   71.4640  220.9130 O   0  0  0  0  0  0  0  0  0  0  0  0
  139.5310   71.9840  222.0210 C   0  0  0  0  0  0  0  0  0  0  0  0
  139.6370   73.3830  222.1400 N   0  0  0  0  0  0  0  0  0  0  0  0
  139.5600   74.3370  221.0660 C   0  0  0  0  0  0  0  0  0  0  0  0
  140.5580   75.4460  221.2330 C   0  0  0  0  0  0  0  0  0  0  0  0
  140.9810   75.7770  222.3550 O   0  0  0  0  0  0  0  0  0  0  0  0
  140.9970   76.1040  220.0250 N   0  0  0  0  0  0  0  0  0  0  0  0
  140.8300   75.4670  218.7150 C   0  0  0  0  0  0  0  0  0  0  0  0
  142.2250   75.5510  218.0670 C   0  0  0  0  0  0  0  0  0  0  0  0
  142.3450   77.0400  217.7290 C   0  0  0  0  0  0  0  0  0  0  0  0
  142.5700   77.7390  219.0190 C   0  0  0  0  0  0  0  0  0  0  0  0
  141.6250   77.3670  220.1410 C   0  0  1  0  0  0  0  0  0  0  0  0
  140.8090   78.5440  220.5640 C   0  0  0  0  0  0  0  0  0  0  0  0
  140.8440   78.9380  221.9350 N   0  0  0  0  0  0  0  0  0  0  0  0
  140.2280   80.2750  222.0990 C   0  0  0  0  0  0  0  0  0  0  0  0
  141.2470   81.3650  222.2600 C   0  0  0  0  0  0  0  0  0  0  0  0
  142.0660   81.1730  223.5310 C   0  0  0  0  0  0  0  0  0  0  0  0
  142.1560   79.6740  223.7980 C   0  0  0  0  0  0  0  0  0  0  0  0
  142.2360   79.0510  222.3940 C   0  0  0  0  0  0  0  0  0  0  0  0
  139.6400   71.1620  223.2460 C   0  0  0  0  0  0  0  0  0  0  0  0
  139.1900   69.8810  223.3290 C   0  0  0  0  0  0  0  0  0  0  0  0
  139.2960   69.1300  224.4810 C   0  0  0  0  0  0  0  0  0  0  0  0
  139.8920   69.7260  225.5920 C   0  0  0  0  0  0  0  0  0  0  0  0
  140.0200   69.0100  226.7630 C   0  0  0  0  0  0  0  0  0  0  0  0
  140.6170   69.6360  227.8450 C   0  0  0  0  0  0  0  0  0  0  0  0
  140.7600   68.9560  229.0290 F   0  0  0  0  0  0  0  0  0  0  0  0
  141.0750   70.9340  227.7620 C   0  0  0  0  0  0  0  0  0  0  0  0
  140.9520   71.6610  226.5910 C   0  0  0  0  0  0  0  0  0  0  0  0
  140.3510   71.0260  225.5150 C   0  0  0  0  0  0  0  0  0  0  0  0
  140.2110   71.6890  224.3570 N   0  0  0  0  0  0  0  0  0  0  0  0
  139.7850   73.7690  223.1060 H   0  0  0  0  0  0  0  0  0  0  0  0
  139.7580   73.8199  220.1155 H   0  0  0  0  0  0  0  0  0  0  0  0
  138.5529   74.7793  221.0730 H   0  0  0  0  0  0  0  0  0  0  0  0
  140.5164   74.4189  218.8291 H   0  0  0  0  0  0  0  0  0  0  0  0
  140.0552   75.9565  218.1067 H   0  0  0  0  0  0  0  0  0  0  0  0
  143.0100   75.2389  218.7716 H   0  0  0  0  0  0  0  0  0  0  0  0
  142.3431   74.8925  217.1939 H   0  0  0  0  0  0  0  0  0  0  0  0
  143.1934   77.2100  217.0498 H   0  0  0  0  0  0  0  0  0  0  0  0
  141.4412   77.4111  217.2236 H   0  0  0  0  0  0  0  0  0  0  0  0
  143.5942   77.5138  219.3512 H   0  0  0  0  0  0  0  0  0  0  0  0
  142.3906   78.8054  218.8173 H   0  0  0  0  0  0  0  0  0  0  0  0
  142.2277   77.1337  221.0311 H   0  0  0  0  0  0  0  0  0  0  0  0
  141.1483   79.4052  219.9696 H   0  0  0  0  0  0  0  0  0  0  0  0
  139.7692   78.2238  220.4017 H   0  0  0  0  0  0  0  0  0  0  0  0
  139.6170   80.4926  221.2106 H   0  0  0  0  0  0  0  0  0  0  0  0
  139.6190   80.2508  223.0147 H   0  0  0  0  0  0  0  0  0  0  0  0
  141.9234   81.3543  221.3926 H   0  0  0  0  0  0  0  0  0  0  0  0
  140.7186   82.3273  222.3291 H   0  0  0  0  0  0  0  0  0  0  0  0
  143.0742   81.5911  223.3946 H   0  0  0  0  0  0  0  0  0  0  0  0
  141.5915   81.6891  224.3786 H   0  0  0  0  0  0  0  0  0  0  0  0
  143.0555   79.4344  224.3841 H   0  0  0  0  0  0  0  0  0  0  0  0
  141.3037   79.2956  224.3815 H   0  0  0  0  0  0  0  0  0  0  0  0
  142.8124   79.6995  221.7178 H   0  0  0  0  0  0  0  0  0  0  0  0
  142.7415   78.0741  222.4090 H   0  0  0  0  0  0  0  0  0  0  0  0
  138.7233   69.4263  222.4427 H   0  0  0  0  0  0  0  0  0  0  0  0
  138.9231   68.0960  224.5220 H   0  0  0  0  0  0  0  0  0  0  0  0
  139.6592   67.9734  226.8360 H   0  0  0  0  0  0  0  0  0  0  0  0
  141.5457   71.3990  228.6407 H   0  0  0  0  0  0  0  0  0  0  0  0
  141.3149   72.6968  226.5171 H   0  0  0  0  0  0  0  0  0  0  0  0
  1  2  2  0
  2  3  1  0
  3  4  1  0
  4  5  1  0
  5  6  2  0
  5  7  1  0
  7  8  1  0
  8  9  1  0
  9 10  1  0
 10 11  1  0
 11 12  1  0
 12 13  1  0
 13 14  1  0
 14 15  1  0
 15 16  1  0
 16 17  1  0
 17 18  1  0
 18 19  1  0
  2 20  1  0
 20 21  2  0
 21 22  1  0
 22 23  2  0
 23 24  1  0
 24 25  2  0
 25 26  1  0
 25 27  1  0
 27 28  2  0
 28 29  1  0
 29 30  2  0
 12  7  1  0
 19 14  1  0
 30 20  1  0
 29 23  1  0
  3 31  1  0
  4 32  1  0
  4 33  1  0
  8 34  1  0
  8 35  1  0
  9 36  1  0
  9 37  1  0
 10 38  1  0
 10 39  1  0
 11 40  1  0
 11 41  1  0
 12 42  1  1
 13 43  1  0
 13 44  1  0
 15 45  1  0
 15 46  1  0
 16 47  1  0
 16 48  1  0
 17 49  1  0
 17 50  1  0
 18 51  1  0
 18 52  1  0
 19 53  1  0
 19 54  1  0
 21 55  1  0
 22 56  1  0
 24 57  1  0
 27 58  1  0
 28 59  1  0
M  END
>  <smiles>  (17) 
O=C(NCC(=O)N1CCCC[C@H]1CN1CCCCC1)c1ccc2cc(F)ccc2n1

>  <score_type>  (17) 
oracle

>  <origin>  (17) 
autodockgpu

>  <m_score__min__energy>  (17) 
-8.6999999999999993

>  <m_primary>  (17) 
energy

>  <rmsd>  (17) 
2.122862470320698

>  <m_score__min__rmsd>  (17) 
2.122862470320698

>  <meeko>  (17) 
{"free_energy": -8.12, "intermolecular_energy": -9.91, "internal_energy": -2.0, "cluster_size": 5, "cluster_id": 3, "rank_in_cluster": 4}

>  <energy>  (17) 
-8.25

>  <cluster_rmsd>  (17) 
1.88

>  <cluster>  (17) 
1

$$$$

     RDKit          3D

 59 62  0  0  0  0  0  0  0  0999 V2000
  140.2300   81.6040  218.5420 O   0  0  0  0  0  0  0  0  0  0  0  0
  140.0700   80.6420  219.3030 C   0  0  0  0  0  0  0  0  0  0  0  0
  139.0160   80.6450  220.2370 N   0  0  0  0  0  0  0  0  0  0  0  0
  138.0500   81.6930  220.4280 C   0  0  0  0  0  0  0  0  0  0  0  0
  138.2380   82.3920  221.7440 C   0  0  0  0  0  0  0  0  0  0  0  0
  138.9490   83.4060  221.8460 O   0  0  0  0  0  0  0  0  0  0  0  0
  137.5480   81.8230  222.8780 N   0  0  0  0  0  0  0  0  0  0  0  0
  136.0970   81.9730  223.0320 C   0  0  0  0  0  0  0  0  0  0  0  0
  135.9170   82.5030  224.4670 C   0  0  0  0  0  0  0  0  0  0  0  0
  136.2430   81.2730  225.3190 C   0  0  0  0  0  0  0  0  0  0  0  0
  137.7150   81.0990  225.2450 C   0  0  0  0  0  0  0  0  0  0  0  0
  138.3140   81.1460  223.8560 C   0  0  1  0  0  0  0  0  0  0  0  0
  138.9470   79.8400  223.5030 C   0  0  0  0  0  0  0  0  0  0  0  0
  140.1080   79.8510  222.6740 N   0  0  0  0  0  0  0  0  0  0  0  0
  141.0110   78.7360  223.0460 C   0  0  0  0  0  0  0  0  0  0  0  0
  142.1830   79.1910  223.8660 C   0  0  0  0  0  0  0  0  0  0  0  0
  143.0730   80.1460  223.0780 C   0  0  0  0  0  0  0  0  0  0  0  0
  142.1800   80.9070  222.1030 C   0  0  0  0  0  0  0  0  0  0  0  0
  140.8630   81.0960  222.8750 C   0  0  0  0  0  0  0  0  0  0  0  0
  140.9690   79.4690  219.2580 C   0  0  0  0  0  0  0  0  0  0  0  0
  142.0690   79.4000  218.4600 C   0  0  0  0  0  0  0  0  0  0  0  0
  142.8950   78.2960  218.4280 C   0  0  0  0  0  0  0  0  0  0  0  0
  142.5720   77.2200  219.2530 C   0  0  0  0  0  0  0  0  0  0  0  0
  143.3720   76.0960  219.2520 C   0  0  0  0  0  0  0  0  0  0  0  0
  143.0190   75.0480  220.0860 C   0  0  0  0  0  0  0  0  0  0  0  0
  143.7890   73.9120  220.1120 F   0  0  0  0  0  0  0  0  0  0  0  0
  141.9050   75.1160  220.8960 C   0  0  0  0  0  0  0  0  0  0  0  0
  141.0960   76.2380  220.9040 C   0  0  0  0  0  0  0  0  0  0  0  0
  141.4570   77.2820  220.0650 C   0  0  0  0  0  0  0  0  0  0  0  0
  140.7050   78.3930  220.0390 N   0  0  0  0  0  0  0  0  0  0  0  0
  138.9260   79.8000  220.8550 H   0  0  0  0  0  0  0  0  0  0  0  0
  138.1565   82.4276  219.6162 H   0  0  0  0  0  0  0  0  0  0  0  0
  137.0479   81.2395  220.4219 H   0  0  0  0  0  0  0  0  0  0  0  0
  135.6999   82.6909  222.2992 H   0  0  0  0  0  0  0  0  0  0  0  0
  135.5575   81.0294  222.8627 H   0  0  0  0  0  0  0  0  0  0  0  0
  136.6143   83.3276  224.6764 H   0  0  0  0  0  0  0  0  0  0  0  0
  134.9158   82.9162  224.6591 H   0  0  0  0  0  0  0  0  0  0  0  0
  135.9299   81.4364  226.3607 H   0  0  0  0  0  0  0  0  0  0  0  0
  135.7141   80.3801  224.9543 H   0  0  0  0  0  0  0  0  0  0  0  0
  138.1799   81.8986  225.8404 H   0  0  0  0  0  0  0  0  0  0  0  0
  137.9158   80.0858  225.6232 H   0  0  0  0  0  0  0  0  0  0  0  0
  139.1597   81.8492  223.8722 H   0  0  0  0  0  0  0  0  0  0  0  0
  139.2258   79.3481  224.4466 H   0  0  0  0  0  0  0  0  0  0  0  0
  138.1866   79.3260  222.8967 H   0  0  0  0  0  0  0  0  0  0  0  0
  140.4389   77.9986  223.6282 H   0  0  0  0  0  0  0  0  0  0  0  0
  141.4044   78.3014  222.1152 H   0  0  0  0  0  0  0  0  0  0  0  0
  141.8131   79.7055  224.7651 H   0  0  0  0  0  0  0  0  0  0  0  0
  142.7786   78.3078  224.1403 H   0  0  0  0  0  0  0  0  0  0  0  0
  143.5667   80.8507  223.7633 H   0  0  0  0  0  0  0  0  0  0  0  0
  143.8526   79.5905  222.5361 H   0  0  0  0  0  0  0  0  0  0  0  0
  142.6241   81.8793  221.8433 H   0  0  0  0  0  0  0  0  0  0  0  0
  142.0403   80.3729  221.1515 H   0  0  0  0  0  0  0  0  0  0  0  0
  141.0639   81.2554  223.9447 H   0  0  0  0  0  0  0  0  0  0  0  0
  140.3040   81.9742  222.5196 H   0  0  0  0  0  0  0  0  0  0  0  0
  142.3088   80.2583  217.8152 H   0  0  0  0  0  0  0  0  0  0  0  0
  143.7787   78.2657  217.7736 H   0  0  0  0  0  0  0  0  0  0  0  0
  144.2623   76.0340  218.6090 H   0  0  0  0  0  0  0  0  0  0  0  0
  141.6558   74.2644  221.5461 H   0  0  0  0  0  0  0  0  0  0  0  0
  140.2058   76.2996  221.5472 H   0  0  0  0  0  0  0  0  0  0  0  0
  1  2  2  0
  2  3  1  0
  3  4  1  0
  4  5  1  0
  5  6  2  0
  5  7  1  0
  7  8  1  0
  8  9  1  0
  9 10  1  0
 10 11  1  0
 11 12  1  0
 12 13  1  0
 13 14  1  0
 14 15  1  0
 15 16  1  0
 16 17  1  0
 17 18  1  0
 18 19  1  0
  2 20  1  0
 20 21  2  0
 21 22  1  0
 22 23  2  0
 23 24  1  0
 24 25  2  0
 25 26  1  0
 25 27  1  0
 27 28  2  0
 28 29  1  0
 29 30  2  0
 12  7  1  0
 19 14  1  0
 30 20  1  0
 29 23  1  0
  3 31  1  0
  4 32  1  0
  4 33  1  0
  8 34  1  0
  8 35  1  0
  9 36  1  0
  9 37  1  0
 10 38  1  0
 10 39  1  0
 11 40  1  0
 11 41  1  0
 12 42  1  1
 13 43  1  0
 13 44  1  0
 15 45  1  0
 15 46  1  0
 16 47  1  0
 16 48  1  0
 17 49  1  0
 17 50  1  0
 18 51  1  0
 18 52  1  0
 19 53  1  0
 19 54  1  0
 21 55  1  0
 22 56  1  0
 24 57  1  0
 27 58  1  0
 28 59  1  0
M  END
>  <smiles>  (18) 
O=C(NCC(=O)N1CCCC[C@H]1CN1CCCCC1)c1ccc2cc(F)ccc2n1

>  <score_type>  (18) 
oracle

>  <origin>  (18) 
autodockgpu

>  <m_score__min__energy>  (18) 
-8.6999999999999993

>  <m_primary>  (18) 
energy

>  <rmsd>  (18) 
8.608267646691575

>  <m_score__min__rmsd>  (18) 
8.608267646691575

>  <meeko>  (18) 
{"free_energy": -5.57, "intermolecular_energy": -7.36, "internal_energy": -3.73, "cluster_size": 1, "cluster_id": 8, "rank_in_cluster": 1}

>  <energy>  (18) 
-8.1

>  <cluster_rmsd>  (18) 
1.54

>  <cluster>  (18) 
1

$$$$

     RDKit          3D

 59 62  0  0  0  0  0  0  0  0999 V2000
  141.1800   72.1900  221.3450 O   0  0  0  0  0  0  0  0  0  0  0  0
  140.3180   72.4020  222.2060 C   0  0  0  0  0  0  0  0  0  0  0  0
  139.4630   73.5160  222.0940 N   0  0  0  0  0  0  0  0  0  0  0  0
  139.4750   74.4950  221.0420 C   0  0  0  0  0  0  0  0  0  0  0  0
  140.5670   75.5080  221.2360 C   0  0  0  0  0  0  0  0  0  0  0  0
  141.1410   75.6440  222.3300 O   0  0  0  0  0  0  0  0  0  0  0  0
  140.9120   76.3110  220.0850 N   0  0  0  0  0  0  0  0  0  0  0  0
  140.8870   75.7430  218.7340 C   0  0  0  0  0  0  0  0  0  0  0  0
  142.2600   76.1090  218.1400 C   0  0  0  0  0  0  0  0  0  0  0  0
  142.1270   77.6160  217.8980 C   0  0  0  0  0  0  0  0  0  0  0  0
  142.1980   78.2550  219.2360 C   0  0  0  0  0  0  0  0  0  0  0  0
  141.3080   77.6520  220.3000 C   0  0  1  0  0  0  0  0  0  0  0  0
  140.2900   78.6400  220.7670 C   0  0  0  0  0  0  0  0  0  0  0  0
  140.4140   79.1710  222.0860 N   0  0  0  0  0  0  0  0  0  0  0  0
  140.7160   80.6210  222.0270 C   0  0  0  0  0  0  0  0  0  0  0  0
  142.1620   80.9210  222.2910 C   0  0  0  0  0  0  0  0  0  0  0  0
  142.5640   80.5130  223.7040 C   0  0  0  0  0  0  0  0  0  0  0  0
  141.7040   79.3160  224.0980 C   0  0  0  0  0  0  0  0  0  0  0  0
  141.5370   78.5310  222.7870 C   0  0  0  0  0  0  0  0  0  0  0  0
  140.1560   71.5020  223.3680 C   0  0  0  0  0  0  0  0  0  0  0  0
  139.5530   70.2850  223.2930 C   0  0  0  0  0  0  0  0  0  0  0  0
  139.4070   69.4600  224.3890 C   0  0  0  0  0  0  0  0  0  0  0  0
  139.9060   69.9100  225.6110 C   0  0  0  0  0  0  0  0  0  0  0  0
  139.7830   69.1150  226.7320 C   0  0  0  0  0  0  0  0  0  0  0  0
  140.2910   69.5960  227.9270 C   0  0  0  0  0  0  0  0  0  0  0  0
  140.1860   68.8360  229.0650 F   0  0  0  0  0  0  0  0  0  0  0  0
  140.9040   70.8290  228.0040 C   0  0  0  0  0  0  0  0  0  0  0  0
  141.0330   71.6340  226.8860 C   0  0  0  0  0  0  0  0  0  0  0  0
  140.5200   71.1430  225.6950 C   0  0  0  0  0  0  0  0  0  0  0  0
  140.6220   71.8860  224.5820 N   0  0  0  0  0  0  0  0  0  0  0  0
  138.7470   73.6430  222.8520 H   0  0  0  0  0  0  0  0  0  0  0  0
  139.6307   73.9831  220.0809 H   0  0  0  0  0  0  0  0  0  0  0  0
  138.5108   75.0243  221.0561 H   0  0  0  0  0  0  0  0  0  0  0  0
  140.7581   74.6513  218.7729 H   0  0  0  0  0  0  0  0  0  0  0  0
  140.0523   76.1304  218.1313 H   0  0  0  0  0  0  0  0  0  0  0  0
  143.0711   75.8907  218.8502 H   0  0  0  0  0  0  0  0  0  0  0  0
  142.5103   75.5401  217.2325 H   0  0  0  0  0  0  0  0  0  0  0  0
  142.9481   77.9742  217.2597 H   0  0  0  0  0  0  0  0  0  0  0  0
  141.1845   77.8594  217.3856 H   0  0  0  0  0  0  0  0  0  0  0  0
  143.2381   78.1877  219.5877 H   0  0  0  0  0  0  0  0  0  0  0  0
  141.8400   79.2855  219.0950 H   0  0  0  0  0  0  0  0  0  0  0  0
  141.9223   77.4672  221.1936 H   0  0  0  0  0  0  0  0  0  0  0  0
  140.3188   79.4906  220.0701 H   0  0  0  0  0  0  0  0  0  0  0  0
  139.3507   78.0682  220.7931 H   0  0  0  0  0  0  0  0  0  0  0  0
  140.4560   80.9944  221.0255 H   0  0  0  0  0  0  0  0  0  0  0  0
  140.1247   81.1164  222.8112 H   0  0  0  0  0  0  0  0  0  0  0  0
  142.7803   80.3677  221.5688 H   0  0  0  0  0  0  0  0  0  0  0  0
  142.3163   82.0050  222.1858 H   0  0  0  0  0  0  0  0  0  0  0  0
  143.6279   80.2345  223.7261 H   0  0  0  0  0  0  0  0  0  0  0  0
  142.4126   81.3465  224.4057 H   0  0  0  0  0  0  0  0  0  0  0  0
  142.2107   78.7038  224.8586 H   0  0  0  0  0  0  0  0  0  0  0  0
  140.7412   79.6132  224.5393 H   0  0  0  0  0  0  0  0  0  0  0  0
  142.4536   78.5936  222.1821 H   0  0  0  0  0  0  0  0  0  0  0  0
  141.3473   77.4634  222.9720 H   0  0  0  0  0  0  0  0  0  0  0  0
  139.1667   69.9455  222.3206 H   0  0  0  0  0  0  0  0  0  0  0  0
  138.9138   68.4806  224.3020 H   0  0  0  0  0  0  0  0  0  0  0  0
  139.2966   68.1299  226.6781 H   0  0  0  0  0  0  0  0  0  0  0  0
  141.2969   71.1783  228.9702 H   0  0  0  0  0  0  0  0  0  0  0  0
  141.5204   72.6187  226.9396 H   0  0  0  0  0  0  0  0  0  0  0  0
  1  2  2  0
  2  3  1  0
  3  4  1  0
  4  5  1  0
  5  6  2  0
  5  7  1  0
  7  8  1  0
  8  9  1  0
  9 10  1  0
 10 11  1  0
 11 12  1  0
 12 13  1  0
 13 14  1  0
 14 15  1  0
 15 16  1  0
 16 17  1  0
 17 18  1  0
 18 19  1  0
  2 20  1  0
 20 21  2  0
 21 22  1  0
 22 23  2  0
 23 24  1  0
 24 25  2  0
 25 26  1  0
 25 27  1  0
 27 28  2  0
 28 29  1  0
 29 30  2  0
 12  7  1  0
 19 14  1  0
 30 20  1  0
 29 23  1  0
  3 31  1  0
  4 32  1  0
  4 33  1  0
  8 34  1  0
  8 35  1  0
  9 36  1  0
  9 37  1  0
 10 38  1  0
 10 39  1  0
 11 40  1  0
 11 41  1  0
 12 42  1  1
 13 43  1  0
 13 44  1  0
 15 45  1  0
 15 46  1  0
 16 47  1  0
 16 48  1  0
 17 49  1  0
 17 50  1  0
 18 51  1  0
 18 52  1  0
 19 53  1  0
 19 54  1  0
 21 55  1  0
 22 56  1  0
 24 57  1  0
 27 58  1  0
 28 59  1  0
M  END
>  <smiles>  (19) 
O=C(NCC(=O)N1CCCC[C@H]1CN1CCCCC1)c1ccc2cc(F)ccc2n1

>  <score_type>  (19) 
oracle

>  <origin>  (19) 
autodockgpu

>  <m_score__min__energy>  (19) 
-8.6999999999999993

>  <m_primary>  (19) 
energy

>  <rmsd>  (19) 
2.330930277970025

>  <m_score__min__rmsd>  (19) 
2.330930277970025

>  <meeko>  (19) 
{"free_energy": -8.65, "intermolecular_energy": -10.44, "internal_energy": -1.58, "cluster_size": 24, "cluster_id": 1, "rank_in_cluster": 3}

>  <energy>  (19) 
-7.98

>  <cluster_rmsd>  (19) 
1.95

>  <cluster>  (19) 
1

$$$$

     RDKit          3D

 59 62  0  0  0  0  0  0  0  0999 V2000
  140.2650   71.1190  221.6250 O   0  0  0  0  0  0  0  0  0  0  0  0
  139.5930   71.3310  222.6410 C   0  0  0  0  0  0  0  0  0  0  0  0
  138.7280   72.4410  222.7010 N   0  0  0  0  0  0  0  0  0  0  0  0
  138.5220   73.4170  221.6650 C   0  0  0  0  0  0  0  0  0  0  0  0
  139.2130   74.7140  221.9760 C   0  0  0  0  0  0  0  0  0  0  0  0
  140.4520   74.8080  221.9700 O   0  0  0  0  0  0  0  0  0  0  0  0
  138.3600   75.8400  222.2800 N   0  0  0  0  0  0  0  0  0  0  0  0
  137.0360   75.6440  222.8780 C   0  0  0  0  0  0  0  0  0  0  0  0
  136.0860   76.4560  221.9780 C   0  0  0  0  0  0  0  0  0  0  0  0
  136.4350   77.9020  222.3440 C   0  0  0  0  0  0  0  0  0  0  0  0
  137.7520   78.1790  221.7170 C   0  0  0  0  0  0  0  0  0  0  0  0
  138.8240   77.1360  221.9530 C   0  0  1  0  0  0  0  0  0  0  0  0
  139.9680   77.7110  222.7210 C   0  0  0  0  0  0  0  0  0  0  0  0
  140.4210   79.0220  222.3870 N   0  0  0  0  0  0  0  0  0  0  0  0
  141.8970   79.0340  222.2540 C   0  0  0  0  0  0  0  0  0  0  0  0
  142.5800   79.6270  223.4520 C   0  0  0  0  0  0  0  0  0  0  0  0
  142.2090   81.0940  223.6310 C   0  0  0  0  0  0  0  0  0  0  0  0
  140.7920   81.2790  223.0970 C   0  0  0  0  0  0  0  0  0  0  0  0
  140.0830   79.9640  223.4630 C   0  0  0  0  0  0  0  0  0  0  0  0
  139.6730   70.4350  223.8150 C   0  0  0  0  0  0  0  0  0  0  0  0
  139.1910   69.1630  223.8190 C   0  0  0  0  0  0  0  0  0  0  0  0
  139.2720   68.3430  224.9250 C   0  0  0  0  0  0  0  0  0  0  0  0
  139.8750   68.8570  226.0720 C   0  0  0  0  0  0  0  0  0  0  0  0
  139.9770   68.0690  227.2000 C   0  0  0  0  0  0  0  0  0  0  0  0
  140.5840   68.6140  228.3190 C   0  0  0  0  0  0  0  0  0  0  0  0
  140.7030   67.8620  229.4610 F   0  0  0  0  0  0  0  0  0  0  0  0
  141.0740   69.9030  228.3160 C   0  0  0  0  0  0  0  0  0  0  0  0
  140.9760   70.7020  227.1910 C   0  0  0  0  0  0  0  0  0  0  0  0
  140.3670   70.1460  226.0750 C   0  0  0  0  0  0  0  0  0  0  0  0
  140.2500   70.8810  224.9580 N   0  0  0  0  0  0  0  0  0  0  0  0
  138.1790   72.5680  223.5870 H   0  0  0  0  0  0  0  0  0  0  0  0
  138.9179   73.0206  220.7184 H   0  0  0  0  0  0  0  0  0  0  0  0
  137.4424   73.6138  221.5901 H   0  0  0  0  0  0  0  0  0  0  0  0
  136.7607   74.5790  222.8740 H   0  0  0  0  0  0  0  0  0  0  0  0
  136.9979   75.9680  223.9285 H   0  0  0  0  0  0  0  0  0  0  0  0
  136.2807   76.2576  220.9137 H   0  0  0  0  0  0  0  0  0  0  0  0
  135.0243   76.2104  222.1279 H   0  0  0  0  0  0  0  0  0  0  0  0
  135.6725   78.5901  221.9503 H   0  0  0  0  0  0  0  0  0  0  0  0
  136.4714   78.0430  223.4343 H   0  0  0  0  0  0  0  0  0  0  0  0
  137.5979   78.2656  220.6313 H   0  0  0  0  0  0  0  0  0  0  0  0
  138.1213   79.1009  222.1901 H   0  0  0  0  0  0  0  0  0  0  0  0
  139.2686   76.8756  220.9811 H   0  0  0  0  0  0  0  0  0  0  0  0
  139.6715   77.7298  223.7801 H   0  0  0  0  0  0  0  0  0  0  0  0
  140.8174   77.0596  222.4675 H   0  0  0  0  0  0  0  0  0  0  0  0
  142.2475   77.9993  222.1250 H   0  0  0  0  0  0  0  0  0  0  0  0
  142.1480   79.6590  221.3843 H   0  0  0  0  0  0  0  0  0  0  0  0
  142.2771   79.0686  224.3500 H   0  0  0  0  0  0  0  0  0  0  0  0
  143.6674   79.5599  223.3003 H   0  0  0  0  0  0  0  0  0  0  0  0
  142.2464   81.3632  224.6969 H   0  0  0  0  0  0  0  0  0  0  0  0
  142.9143   81.7403  223.0880 H   0  0  0  0  0  0  0  0  0  0  0  0
  140.3005   82.1361  223.5805 H   0  0  0  0  0  0  0  0  0  0  0  0
  140.7698   81.4861  222.0169 H   0  0  0  0  0  0  0  0  0  0  0  0
  140.4461   79.5881  224.4309 H   0  0  0  0  0  0  0  0  0  0  0  0
  138.9957   80.1001  223.5591 H   0  0  0  0  0  0  0  0  0  0  0  0
  138.7185   68.7735  222.9052 H   0  0  0  0  0  0  0  0  0  0  0  0
  138.8741   67.3177  224.9028 H   0  0  0  0  0  0  0  0  0  0  0  0
  139.5883   67.0400  227.2101 H   0  0  0  0  0  0  0  0  0  0  0  0
  141.5507   70.3025  229.2233 H   0  0  0  0  0  0  0  0  0  0  0  0
  141.3633   71.7315  227.1815 H   0  0  0  0  0  0  0  0  0  0  0  0
  1  2  2  0
  2  3  1  0
  3  4  1  0
  4  5  1  0
  5  6  2  0
  5  7  1  0
  7  8  1  0
  8  9  1  0
  9 10  1  0
 10 11  1  0
 11 12  1  0
 12 13  1  0
 13 14  1  0
 14 15  1  0
 15 16  1  0
 16 17  1  0
 17 18  1  0
 18 19  1  0
  2 20  1  0
 20 21  2  0
 21 22  1  0
 22 23  2  0
 23 24  1  0
 24 25  2  0
 25 26  1  0
 25 27  1  0
 27 28  2  0
 28 29  1  0
 29 30  2  0
 12  7  1  0
 19 14  1  0
 30 20  1  0
 29 23  1  0
  3 31  1  0
  4 32  1  0
  4 33  1  0
  8 34  1  0
  8 35  1  0
  9 36  1  0
  9 37  1  0
 10 38  1  0
 10 39  1  0
 11 40  1  0
 11 41  1  0
 12 42  1  6
 13 43  1  0
 13 44  1  0
 15 45  1  0
 15 46  1  0
 16 47  1  0
 16 48  1  0
 17 49  1  0
 17 50  1  0
 18 51  1  0
 18 52  1  0
 19 53  1  0
 19 54  1  0
 21 55  1  0
 22 56  1  0
 24 57  1  0
 27 58  1  0
 28 59  1  0
M  END
>  <smiles>  (20) 
O=C(NCC(=O)N1CCCC[C@H]1CN1CCCCC1)c1ccc2cc(F)ccc2n1

>  <score_type>  (20) 
oracle

>  <origin>  (20) 
autodockgpu

>  <m_score__min__energy>  (20) 
-8.6999999999999993

>  <m_primary>  (20) 
energy

>  <rmsd>  (20) 
3.001872890135972

>  <m_score__min__rmsd>  (20) 
3.001872890135972

>  <meeko>  (20) 
{"free_energy": -8.7, "intermolecular_energy": -10.49, "internal_energy": -1.3, "cluster_size": 24, "cluster_id": 1, "rank_in_cluster": 1}

>  <energy>  (20) 
-7.94

>  <cluster_rmsd>  (20) 
1.07

>  <cluster>  (20) 
1

$$$$

     RDKit          3D

 59 62  0  0  0  0  0  0  0  0999 V2000
  137.0430   75.9570  221.9890 O   0  0  0  0  0  0  0  0  0  0  0  0
  138.2490   76.0870  222.2290 C   0  0  0  0  0  0  0  0  0  0  0  0
  139.1200   74.9880  222.1060 N   0  0  0  0  0  0  0  0  0  0  0  0
  138.7550   73.6520  221.7180 C   0  0  0  0  0  0  0  0  0  0  0  0
  139.8310   72.6600  222.0540 C   0  0  0  0  0  0  0  0  0  0  0  0
  140.9700   73.0260  222.3920 O   0  0  0  0  0  0  0  0  0  0  0  0
  139.4700   71.2640  221.9650 N   0  0  0  0  0  0  0  0  0  0  0  0
  140.1980   70.3510  221.0790 C   0  0  0  0  0  0  0  0  0  0  0  0
  139.0960   69.6490  220.2640 C   0  0  0  0  0  0  0  0  0  0  0  0
  138.4610   68.7150  221.2980 C   0  0  0  0  0  0  0  0  0  0  0  0
  137.6620   69.5810  222.2000 C   0  0  0  0  0  0  0  0  0  0  0  0
  138.3710   70.8070  222.7310 C   0  0  1  0  0  0  0  0  0  0  0  0
  138.5010   70.7470  224.2180 C   0  0  0  0  0  0  0  0  0  0  0  0
  139.7750   70.4310  224.7750 N   0  0  0  0  0  0  0  0  0  0  0  0
  139.6980   69.1660  225.5430 C   0  0  0  0  0  0  0  0  0  0  0  0
  139.6430   69.3920  227.0260 C   0  0  0  0  0  0  0  0  0  0  0  0
  140.9180   70.0580  227.5320 C   0  0  0  0  0  0  0  0  0  0  0  0
  141.4550   70.9370  226.4070 C   0  0  0  0  0  0  0  0  0  0  0  0
  140.1880   71.4780  225.7210 C   0  0  0  0  0  0  0  0  0  0  0  0
  138.8120   77.3900  222.6470 C   0  0  0  0  0  0  0  0  0  0  0  0
  138.0460   78.4680  222.9650 C   0  0  0  0  0  0  0  0  0  0  0  0
  138.5880   79.6760  223.3490 C   0  0  0  0  0  0  0  0  0  0  0  0
  139.9780   79.7750  223.4080 C   0  0  0  0  0  0  0  0  0  0  0  0
  140.5610   80.9660  223.7890 C   0  0  0  0  0  0  0  0  0  0  0  0
  141.9440   81.0250  223.8360 C   0  0  0  0  0  0  0  0  0  0  0  0
  142.5620   82.1920  224.2090 F   0  0  0  0  0  0  0  0  0  0  0  0
  142.7220   79.9320  223.5150 C   0  0  0  0  0  0  0  0  0  0  0  0
  142.1470   78.7340  223.1320 C   0  0  0  0  0  0  0  0  0  0  0  0
  140.7620   78.6850  223.0870 C   0  0  0  0  0  0  0  0  0  0  0  0
  140.1570   77.5440  222.7230 N   0  0  0  0  0  0  0  0  0  0  0  0
  140.1340   75.1580  222.3180 H   0  0  0  0  0  0  0  0  0  0  0  0
  137.8319   73.3680  222.2445 H   0  0  0  0  0  0  0  0  0  0  0  0
  138.6079   73.6407  220.6279 H   0  0  0  0  0  0  0  0  0  0  0  0
  140.8761   70.9093  220.4168 H   0  0  0  0  0  0  0  0  0  0  0  0
  140.8265   69.6395  221.6346 H   0  0  0  0  0  0  0  0  0  0  0  0
  138.3629   70.3738  219.8803 H   0  0  0  0  0  0  0  0  0  0  0  0
  139.4758   69.1244  219.3749 H   0  0  0  0  0  0  0  0  0  0  0  0
  137.8113   67.9800  220.8003 H   0  0  0  0  0  0  0  0  0  0  0  0
  139.2255   68.1528  221.8543 H   0  0  0  0  0  0  0  0  0  0  0  0
  136.7738   69.9180  221.6454 H   0  0  0  0  0  0  0  0  0  0  0  0
  137.4308   68.9637  223.0806 H   0  0  0  0  0  0  0  0  0  0  0  0
  137.7202   71.6773  222.5609 H   0  0  0  0  0  0  0  0  0  0  0  0
  138.2102   71.7328  224.6099 H   0  0  0  0  0  0  0  0  0  0  0  0
  137.8604   69.9023  224.5116 H   0  0  0  0  0  0  0  0  0  0  0  0
  138.7924   68.6223  225.2359 H   0  0  0  0  0  0  0  0  0  0  0  0
  140.6103   68.5903  225.3279 H   0  0  0  0  0  0  0  0  0  0  0  0
  138.7842   70.0389  227.2584 H   0  0  0  0  0  0  0  0  0  0  0  0
  139.5402   68.4159  227.5226 H   0  0  0  0  0  0  0  0  0  0  0  0
  140.6945   70.6740  228.4155 H   0  0  0  0  0  0  0  0  0  0  0  0
  141.6620   69.3007  227.8201 H   0  0  0  0  0  0  0  0  0  0  0  0
  142.0632   71.7601  226.8102 H   0  0  0  0  0  0  0  0  0  0  0  0
  142.1093   70.3866  225.7149 H   0  0  0  0  0  0  0  0  0  0  0  0
  139.3967   71.6591  226.4633 H   0  0  0  0  0  0  0  0  0  0  0  0
  140.3765   72.4353  225.2129 H   0  0  0  0  0  0  0  0  0  0  0  0
  136.9514   78.3722  222.9138 H   0  0  0  0  0  0  0  0  0  0  0  0
  137.9458   80.5330  223.6004 H   0  0  0  0  0  0  0  0  0  0  0  0
  139.9468   81.8412  224.0473 H   0  0  0  0  0  0  0  0  0  0  0  0
  143.8178   80.0147  223.5645 H   0  0  0  0  0  0  0  0  0  0  0  0
  142.7613   77.8586  222.8744 H   0  0  0  0  0  0  0  0  0  0  0  0
  1  2  2  0
  2  3  1  0
  3  4  1  0
  4  5  1  0
  5  6  2  0
  5  7  1  0
  7  8  1  0
  8  9  1  0
  9 10  1  0
 10 11  1  0
 11 12  1  0
 12 13  1  0
 13 14  1  0
 14 15  1  0
 15 16  1  0
 16 17  1  0
 17 18  1  0
 18 19  1  0
  2 20  1  0
 20 21  2  0
 21 22  1  0
 22 23  2  0
 23 24  1  0
 24 25  2  0
 25 26  1  0
 25 27  1  0
 27 28  2  0
 28 29  1  0
 29 30  2  0
 12  7  1  0
 19 14  1  0
 30 20  1  0
 29 23  1  0
  3 31  1  0
  4 32  1  0
  4 33  1  0
  8 34  1  0
  8 35  1  0
  9 36  1  0
  9 37  1  0
 10 38  1  0
 10 39  1  0
 11 40  1  0
 11 41  1  0
 12 42  1  1
 13 43  1  0
 13 44  1  0
 15 45  1  0
 15 46  1  0
 16 47  1  0
 16 48  1  0
 17 49  1  0
 17 50  1  0
 18 51  1  0
 18 52  1  0
 19 53  1  0
 19 54  1  0
 21 55  1  0
 22 56  1  0
 24 57  1  0
 27 58  1  0
 28 59  1  0
M  END
>  <smiles>  (21) 
O=C(NCC(=O)N1CCCC[C@H]1CN1CCCCC1)c1ccc2cc(F)ccc2n1

>  <score_type>  (21) 
oracle

>  <origin>  (21) 
autodockgpu

>  <m_score__min__energy>  (21) 
-8.6999999999999993

>  <m_primary>  (21) 
energy

>  <rmsd>  (21) 
9.1793629528591

>  <m_score__min__rmsd>  (21) 
9.1793629528591

>  <meeko>  (21) 
{"free_energy": -7.26, "intermolecular_energy": -9.05, "internal_energy": -2.36, "cluster_size": 3, "cluster_id": 5, "rank_in_cluster": 3}

>  <energy>  (21) 
-7.84

>  <cluster_rmsd>  (21) 
1.9

>  <cluster>  (21) 
1

$$$$

     RDKit          3D

 59 62  0  0  0  0  0  0  0  0999 V2000
  137.0140   75.7230  221.8620 O   0  0  0  0  0  0  0  0  0  0  0  0
  138.2090   75.8860  222.1380 C   0  0  0  0  0  0  0  0  0  0  0  0
  139.1020   74.7990  222.0900 N   0  0  0  0  0  0  0  0  0  0  0  0
  138.7750   73.4420  221.7440 C   0  0  0  0  0  0  0  0  0  0  0  0
  139.5020   72.4550  222.6100 C   0  0  0  0  0  0  0  0  0  0  0  0
  140.6590   72.6700  223.0120 O   0  0  0  0  0  0  0  0  0  0  0  0
  138.7870   71.2470  222.9500 N   0  0  0  0  0  0  0  0  0  0  0  0
  137.8090   70.6640  222.0250 C   0  0  0  0  0  0  0  0  0  0  0  0
  136.5490   70.4510  222.8840 C   0  0  0  0  0  0  0  0  0  0  0  0
  136.9490   69.2710  223.7750 C   0  0  0  0  0  0  0  0  0  0  0  0
  137.9050   69.8130  224.7730 C   0  0  0  0  0  0  0  0  0  0  0  0
  139.0280   70.6590  224.2140 C   0  0  1  0  0  0  0  0  0  0  0  0
  140.3550   70.0250  224.4750 C   0  0  0  0  0  0  0  0  0  0  0  0
  141.1170   70.4790  225.5920 N   0  0  0  0  0  0  0  0  0  0  0  0
  140.8670   69.6120  226.7680 C   0  0  0  0  0  0  0  0  0  0  0  0
  139.9350   70.2410  227.7620 C   0  0  0  0  0  0  0  0  0  0  0  0
  140.5340   71.5120  228.3550 C   0  0  0  0  0  0  0  0  0  0  0  0
  141.4300   72.1380  227.2910 C   0  0  0  0  0  0  0  0  0  0  0  0
  140.7020   71.8380  225.9700 C   0  0  0  0  0  0  0  0  0  0  0  0
  138.7330   77.2150  222.5220 C   0  0  0  0  0  0  0  0  0  0  0  0
  137.9410   78.3030  222.7160 C   0  0  0  0  0  0  0  0  0  0  0  0
  138.4480   79.5360  223.0700 C   0  0  0  0  0  0  0  0  0  0  0  0
  139.8280   79.6480  223.2310 C   0  0  0  0  0  0  0  0  0  0  0  0
  140.3760   80.8640  223.5870 C   0  0  0  0  0  0  0  0  0  0  0  0
  141.7510   80.9360  223.7370 C   0  0  0  0  0  0  0  0  0  0  0  0
  142.3340   82.1270  224.0880 F   0  0  0  0  0  0  0  0  0  0  0  0
  142.5550   79.8330  223.5420 C   0  0  0  0  0  0  0  0  0  0  0  0
  142.0160   78.6100  223.1850 C   0  0  0  0  0  0  0  0  0  0  0  0
  140.6380   78.5480  223.0360 C   0  0  0  0  0  0  0  0  0  0  0  0
  140.0670   77.3830  222.6920 N   0  0  0  0  0  0  0  0  0  0  0  0
  140.1060   74.9980  222.3300 H   0  0  0  0  0  0  0  0  0  0  0  0
  137.6920   73.2942  221.8677 H   0  0  0  0  0  0  0  0  0  0  0  0
  139.0808   73.2720  220.7011 H   0  0  0  0  0  0  0  0  0  0  0  0
  137.6011   71.3531  221.1932 H   0  0  0  0  0  0  0  0  0  0  0  0
  138.1684   69.7297  221.5690 H   0  0  0  0  0  0  0  0  0  0  0  0
  136.3224   71.3439  223.4852 H   0  0  0  0  0  0  0  0  0  0  0  0
  135.6413   70.2643  222.2913 H   0  0  0  0  0  0  0  0  0  0  0  0
  136.0639   68.8570  224.2801 H   0  0  0  0  0  0  0  0  0  0  0  0
  137.4004   68.4586  223.1866 H   0  0  0  0  0  0  0  0  0  0  0  0
  137.3372   70.4318  225.4835 H   0  0  0  0  0  0  0  0  0  0  0  0
  138.3886   68.9376  225.2310 H   0  0  0  0  0  0  0  0  0  0  0  0
  139.0678   71.5954  224.7898 H   0  0  0  0  0  0  0  0  0  0  0  0
  140.1784   68.9487  224.6180 H   0  0  0  0  0  0  0  0  0  0  0  0
  140.9635   70.3037  223.6021 H   0  0  0  0  0  0  0  0  0  0  0  0
  140.4254   68.6662  226.4208 H   0  0  0  0  0  0  0  0  0  0  0  0
  141.8309   69.4491  227.2724 H   0  0  0  0  0  0  0  0  0  0  0  0
  138.9897   70.4914  227.2584 H   0  0  0  0  0  0  0  0  0  0  0  0
  139.7626   69.5243  228.5785 H   0  0  0  0  0  0  0  0  0  0  0  0
  139.7315   72.2125  228.6294 H   0  0  0  0  0  0  0  0  0  0  0  0
  141.1131   71.2805  229.2611 H   0  0  0  0  0  0  0  0  0  0  0  0
  141.5246   73.2226  227.4480 H   0  0  0  0  0  0  0  0  0  0  0  0
  142.4545   71.7380  227.3107 H   0  0  0  0  0  0  0  0  0  0  0  0
  139.6122   71.8812  226.1133 H   0  0  0  0  0  0  0  0  0  0  0  0
  140.9523   72.5726  225.1904 H   0  0  0  0  0  0  0  0  0  0  0  0
  136.8540   78.1958  222.5856 H   0  0  0  0  0  0  0  0  0  0  0  0
  137.7858   80.4014  223.2201 H   0  0  0  0  0  0  0  0  0  0  0  0
  139.7408   81.7478  223.7465 H   0  0  0  0  0  0  0  0  0  0  0  0
  143.6432   79.9271  223.6725 H   0  0  0  0  0  0  0  0  0  0  0  0
  142.6515   77.7263  223.0264 H   0  0  0  0  0  0  0  0  0  0  0  0
  1  2  2  0
  2  3  1  0
  3  4  1  0
  4  5  1  0
  5  6  2  0
  5  7  1  0
  7  8  1  0
  8  9  1  0
  9 10  1  0
 10 11  1  0
 11 12  1  0
 12 13  1  0
 13 14  1  0
 14 15  1  0
 15 16  1  0
 16 17  1  0
 17 18  1  0
 18 19  1  0
  2 20  1  0
 20 21  2  0
 21 22  1  0
 22 23  2  0
 23 24  1  0
 24 25  2  0
 25 26  1  0
 25 27  1  0
 27 28  2  0
 28 29  1  0
 29 30  2  0
 12  7  1  0
 19 14  1  0
 30 20  1  0
 29 23  1  0
  3 31  1  0
  4 32  1  0
  4 33  1  0
  8 34  1  0
  8 35  1  0
  9 36  1  0
  9 37  1  0
 10 38  1  0
 10 39  1  0
 11 40  1  0
 11 41  1  0
 12 42  1  1
 13 43  1  0
 13 44  1  0
 15 45  1  0
 15 46  1  0
 16 47  1  0
 16 48  1  0
 17 49  1  0
 17 50  1  0
 18 51  1  0
 18 52  1  0
 19 53  1  0
 19 54  1  0
 21 55  1  0
 22 56  1  0
 24 57  1  0
 27 58  1  0
 28 59  1  0
M  END
>  <smiles>  (22) 
O=C(NCC(=O)N1CCCC[C@H]1CN1CCCCC1)c1ccc2cc(F)ccc2n1

>  <score_type>  (22) 
oracle

>  <origin>  (22) 
autodockgpu

>  <m_score__min__energy>  (22) 
-8.6999999999999993

>  <m_primary>  (22) 
energy

>  <rmsd>  (22) 
9.260257479494587

>  <m_score__min__rmsd>  (22) 
9.260257479494587

>  <meeko>  (22) 
{"free_energy": -7.99, "intermolecular_energy": -9.78, "internal_energy": -2.14, "cluster_size": 3, "cluster_id": 5, "rank_in_cluster": 2}

>  <energy>  (22) 
-7.82

>  <cluster_rmsd>  (22) 
1.95

>  <cluster>  (22) 
1

$$$$

     RDKit          3D

 59 62  0  0  0  0  0  0  0  0999 V2000
  138.9610   71.1190  221.1390 O   0  0  0  0  0  0  0  0  0  0  0  0
  139.2300   71.6250  222.2350 C   0  0  0  0  0  0  0  0  0  0  0  0
  139.3610   73.0220  222.3580 N   0  0  0  0  0  0  0  0  0  0  0  0
  139.2160   73.9870  221.3020 C   0  0  0  0  0  0  0  0  0  0  0  0
  139.9860   75.2440  221.5850 C   0  0  0  0  0  0  0  0  0  0  0  0
  139.9750   75.7740  222.7100 O   0  0  0  0  0  0  0  0  0  0  0  0
  140.7370   75.8020  220.4840 N   0  0  0  0  0  0  0  0  0  0  0  0
  140.8870   75.0660  219.2250 C   0  0  0  0  0  0  0  0  0  0  0  0
  142.4020   75.0850  218.9500 C   0  0  0  0  0  0  0  0  0  0  0  0
  142.6500   76.5410  218.5470 C   0  0  0  0  0  0  0  0  0  0  0  0
  142.5620   77.3360  219.7980 C   0  0  0  0  0  0  0  0  0  0  0  0
  141.3530   77.0630  220.6650 C   0  0  1  0  0  0  0  0  0  0  0  0
  140.4920   78.2780  220.7800 C   0  0  0  0  0  0  0  0  0  0  0  0
  140.5480   79.0380  221.9860 N   0  0  0  0  0  0  0  0  0  0  0  0
  141.1090   80.3830  221.7170 C   0  0  0  0  0  0  0  0  0  0  0  0
  142.5430   80.5070  222.1420 C   0  0  0  0  0  0  0  0  0  0  0  0
  142.6900   80.3350  223.6500 C   0  0  0  0  0  0  0  0  0  0  0  0
  141.5890   79.3870  224.1150 C   0  0  0  0  0  0  0  0  0  0  0  0
  141.4440   78.3890  222.9540 C   0  0  0  0  0  0  0  0  0  0  0  0
  139.4200   70.7900  223.4410 C   0  0  0  0  0  0  0  0  0  0  0  0
  139.0160   69.4940  223.5230 C   0  0  0  0  0  0  0  0  0  0  0  0
  139.1980   68.7310  224.6570 C   0  0  0  0  0  0  0  0  0  0  0  0
  139.8230   69.3300  225.7500 C   0  0  0  0  0  0  0  0  0  0  0  0
  140.0250   68.6020  226.9040 C   0  0  0  0  0  0  0  0  0  0  0  0
  140.6500   69.2320  227.9680 C   0  0  0  0  0  0  0  0  0  0  0  0
  140.8680   68.5410  229.1340 F   0  0  0  0  0  0  0  0  0  0  0  0
  141.0610   70.5460  227.8850 C   0  0  0  0  0  0  0  0  0  0  0  0
  140.8620   71.2850  226.7330 C   0  0  0  0  0  0  0  0  0  0  0  0
  140.2360   70.6450  225.6740 C   0  0  0  0  0  0  0  0  0  0  0  0
  140.0220   71.3200  224.5340 N   0  0  0  0  0  0  0  0  0  0  0  0
  139.5850   73.3960  223.3130 H   0  0  0  0  0  0  0  0  0  0  0  0
  139.5857   73.5467  220.3642 H   0  0  0  0  0  0  0  0  0  0  0  0
  138.1507   74.2494  221.2230 H   0  0  0  0  0  0  0  0  0  0  0  0
  140.5235   74.0333  219.3319 H   0  0  0  0  0  0  0  0  0  0  0  0
  140.3059   75.5136  218.4053 H   0  0  0  0  0  0  0  0  0  0  0  0
  142.9727   74.8200  219.8522 H   0  0  0  0  0  0  0  0  0  0  0  0
  142.7170   74.3597  218.1854 H   0  0  0  0  0  0  0  0  0  0  0  0
  143.6478   76.6476  218.0965 H   0  0  0  0  0  0  0  0  0  0  0  0
  141.9160   76.8821  217.8020 H   0  0  0  0  0  0  0  0  0  0  0  0
  143.4611   77.1258  220.3959 H   0  0  0  0  0  0  0  0  0  0  0  0
  142.4726   78.3854  219.4807 H   0  0  0  0  0  0  0  0  0  0  0  0
  141.7033   76.8935  221.6939 H   0  0  0  0  0  0  0  0  0  0  0  0
  140.7704   78.9529  219.9572 H   0  0  0  0  0  0  0  0  0  0  0  0
  139.4650   77.8847  220.7559 H   0  0  0  0  0  0  0  0  0  0  0  0
  141.0433   80.5824  220.6372 H   0  0  0  0  0  0  0  0  0  0  0  0
  140.5250   81.1098  222.3007 H   0  0  0  0  0  0  0  0  0  0  0  0
  143.1359   79.7325  221.6334 H   0  0  0  0  0  0  0  0  0  0  0  0
  142.9004   81.5112  221.8703 H   0  0  0  0  0  0  0  0  0  0  0  0
  143.6764   79.9083  223.8846 H   0  0  0  0  0  0  0  0  0  0  0  0
  142.6049   81.3059  224.1599 H   0  0  0  0  0  0  0  0  0  0  0  0
  141.8828   78.8703  225.0406 H   0  0  0  0  0  0  0  0  0  0  0  0
  140.6487   79.9097  224.3445 H   0  0  0  0  0  0  0  0  0  0  0  0
  142.4236   78.1877  222.4958 H   0  0  0  0  0  0  0  0  0  0  0  0
  141.0443   77.4225  223.2949 H   0  0  0  0  0  0  0  0  0  0  0  0
  138.5252   69.0369  222.6511 H   0  0  0  0  0  0  0  0  0  0  0  0
  138.8613   67.6846  224.6980 H   0  0  0  0  0  0  0  0  0  0  0  0
  139.6999   67.5537  226.9773 H   0  0  0  0  0  0  0  0  0  0  0  0
  141.5552   71.0139  228.7492 H   0  0  0  0  0  0  0  0  0  0  0  0
  141.1859   72.3337  226.6601 H   0  0  0  0  0  0  0  0  0  0  0  0
  1  2  2  0
  2  3  1  0
  3  4  1  0
  4  5  1  0
  5  6  2  0
  5  7  1  0
  7  8  1  0
  8  9  1  0
  9 10  1  0
 10 11  1  0
 11 12  1  0
 12 13  1  0
 13 14  1  0
 14 15  1  0
 15 16  1  0
 16 17  1  0
 17 18  1  0
 18 19  1  0
  2 20  1  0
 20 21  2  0
 21 22  1  0
 22 23  2  0
 23 24  1  0
 24 25  2  0
 25 26  1  0
 25 27  1  0
 27 28  2  0
 28 29  1  0
 29 30  2  0
 12  7  1  0
 19 14  1  0
 30 20  1  0
 29 23  1  0
  3 31  1  0
  4 32  1  0
  4 33  1  0
  8 34  1  0
  8 35  1  0
  9 36  1  0
  9 37  1  0
 10 38  1  0
 10 39  1  0
 11 40  1  0
 11 41  1  0
 12 42  1  1
 13 43  1  0
 13 44  1  0
 15 45  1  0
 15 46  1  0
 16 47  1  0
 16 48  1  0
 17 49  1  0
 17 50  1  0
 18 51  1  0
 18 52  1  0
 19 53  1  0
 19 54  1  0
 21 55  1  0
 22 56  1  0
 24 57  1  0
 27 58  1  0
 28 59  1  0
M  END
>  <smiles>  (23) 
O=C(NCC(=O)N1CCCC[C@H]1CN1CCCCC1)c1ccc2cc(F)ccc2n1

>  <score_type>  (23) 
oracle

>  <origin>  (23) 
autodockgpu

>  <m_score__min__energy>  (23) 
-8.6999999999999993

>  <m_primary>  (23) 
energy

>  <rmsd>  (23) 
2.2808367289266034

>  <m_score__min__rmsd>  (23) 
2.2808367289266034

>  <meeko>  (23) 
{"free_energy": -8.42, "intermolecular_energy": -10.21, "internal_energy": -2.06, "cluster_size": 24, "cluster_id": 1, "rank_in_cluster": 9}

>  <energy>  (23) 
-7.8

>  <cluster_rmsd>  (23) 
1.71

>  <cluster>  (23) 
1

$$$$

     RDKit          3D

 59 62  0  0  0  0  0  0  0  0999 V2000
  138.6220   71.3510  221.1370 O   0  0  0  0  0  0  0  0  0  0  0  0
  139.2260   71.7890  222.1240 C   0  0  0  0  0  0  0  0  0  0  0  0
  139.7800   73.0830  222.1000 N   0  0  0  0  0  0  0  0  0  0  0  0
  139.7290   74.0110  221.0030 C   0  0  0  0  0  0  0  0  0  0  0  0
  140.6000   75.2100  221.2460 C   0  0  0  0  0  0  0  0  0  0  0  0
  141.1220   75.4200  222.3550 O   0  0  0  0  0  0  0  0  0  0  0  0
  140.7970   76.1000  220.1260 N   0  0  0  0  0  0  0  0  0  0  0  0
  140.2940   75.7570  218.7920 C   0  0  0  0  0  0  0  0  0  0  0  0
  141.5080   75.9510  217.8640 C   0  0  0  0  0  0  0  0  0  0  0  0
  141.6490   77.4750  217.8140 C   0  0  0  0  0  0  0  0  0  0  0  0
  142.2070   77.8810  219.1280 C   0  0  0  0  0  0  0  0  0  0  0  0
  141.5190   77.2980  220.3430 C   0  0  1  0  0  0  0  0  0  0  0  0
  140.9010   78.3740  221.1740 C   0  0  0  0  0  0  0  0  0  0  0  0
  141.5580   78.7620  222.3790 N   0  0  0  0  0  0  0  0  0  0  0  0
  140.5770   79.3250  223.3380 C   0  0  0  0  0  0  0  0  0  0  0  0
  140.6240   80.8240  223.3990 C   0  0  0  0  0  0  0  0  0  0  0  0
  141.9720   81.3150  223.9130 C   0  0  0  0  0  0  0  0  0  0  0  0
  143.0260   80.3000  223.4820 C   0  0  0  0  0  0  0  0  0  0  0  0
  142.5390   79.8210  222.1040 C   0  0  0  0  0  0  0  0  0  0  0  0
  139.3840   70.9750  223.3490 C   0  0  0  0  0  0  0  0  0  0  0  0
  138.9200   69.7020  223.4660 C   0  0  0  0  0  0  0  0  0  0  0  0
  139.0720   68.9600  224.6180 C   0  0  0  0  0  0  0  0  0  0  0  0
  139.7320   69.5560  225.6920 C   0  0  0  0  0  0  0  0  0  0  0  0
  139.9080   68.8470  226.8630 C   0  0  0  0  0  0  0  0  0  0  0  0
  140.5680   69.4730  227.9070 C   0  0  0  0  0  0  0  0  0  0  0  0
  140.7610   68.8020  229.0890 F   0  0  0  0  0  0  0  0  0  0  0  0
  141.0410   70.7640  227.7890 C   0  0  0  0  0  0  0  0  0  0  0  0
  140.8700   71.4830  226.6200 C   0  0  0  0  0  0  0  0  0  0  0  0
  140.2060   70.8470  225.5810 C   0  0  0  0  0  0  0  0  0  0  0  0
  140.0170   71.5030  224.4250 N   0  0  0  0  0  0  0  0  0  0  0  0
  140.2780   73.4030  222.9680 H   0  0  0  0  0  0  0  0  0  0  0  0
  140.0707   73.5019  220.0897 H   0  0  0  0  0  0  0  0  0  0  0  0
  138.6907   74.3584  220.8970 H   0  0  0  0  0  0  0  0  0  0  0  0
  139.9450   74.7142  218.7637 H   0  0  0  0  0  0  0  0  0  0  0  0
  139.4355   76.3774  218.4950 H   0  0  0  0  0  0  0  0  0  0  0  0
  142.4093   75.4823  218.2858 H   0  0  0  0  0  0  0  0  0  0  0  0
  141.3798   75.4904  216.8733 H   0  0  0  0  0  0  0  0  0  0  0  0
  142.3311   77.7687  217.0026 H   0  0  0  0  0  0  0  0  0  0  0  0
  140.6815   77.9616  217.6210 H   0  0  0  0  0  0  0  0  0  0  0  0
  143.2623   77.5720  219.1568 H   0  0  0  0  0  0  0  0  0  0  0  0
  142.0580   78.9689  219.1931 H   0  0  0  0  0  0  0  0  0  0  0  0
  142.2907   76.8713  221.0006 H   0  0  0  0  0  0  0  0  0  0  0  0
  140.8257   79.2707  220.5414 H   0  0  0  0  0  0  0  0  0  0  0  0
  139.9484   77.9406  221.5128 H   0  0  0  0  0  0  0  0  0  0  0  0
  139.5669   79.0165  223.0305 H   0  0  0  0  0  0  0  0  0  0  0  0
  140.8314   78.9429  224.3376 H   0  0  0  0  0  0  0  0  0  0  0  0
  140.4559   81.2292  222.3902 H   0  0  0  0  0  0  0  0  0  0  0  0
  139.8419   81.1681  224.0918 H   0  0  0  0  0  0  0  0  0  0  0  0
  142.2017   82.3006  223.4819 H   0  0  0  0  0  0  0  0  0  0  0  0
  141.9555   81.4142  225.0084 H   0  0  0  0  0  0  0  0  0  0  0  0
  144.0159   80.7733  223.4041 H   0  0  0  0  0  0  0  0  0  0  0  0
  143.1392   79.4755  224.2013 H   0  0  0  0  0  0  0  0  0  0  0  0
  142.0669   80.6487  221.5543 H   0  0  0  0  0  0  0  0  0  0  0  0
  143.3698   79.4554  221.4826 H   0  0  0  0  0  0  0  0  0  0  0  0
  138.4034   69.2467  222.6082 H   0  0  0  0  0  0  0  0  0  0  0  0
  138.6857   67.9324  224.6875 H   0  0  0  0  0  0  0  0  0  0  0  0
  139.5356   67.8169  226.9638 H   0  0  0  0  0  0  0  0  0  0  0  0
  141.5626   71.2288  228.6386 H   0  0  0  0  0  0  0  0  0  0  0  0
  141.2436   72.5126  226.5186 H   0  0  0  0  0  0  0  0  0  0  0  0
  1  2  2  0
  2  3  1  0
  3  4  1  0
  4  5  1  0
  5  6  2  0
  5  7  1  0
  7  8  1  0
  8  9  1  0
  9 10  1  0
 10 11  1  0
 11 12  1  0
 12 13  1  0
 13 14  1  0
 14 15  1  0
 15 16  1  0
 16 17  1  0
 17 18  1  0
 18 19  1  0
  2 20  1  0
 20 21  2  0
 21 22  1  0
 22 23  2  0
 23 24  1  0
 24 25  2  0
 25 26  1  0
 25 27  1  0
 27 28  2  0
 28 29  1  0
 29 30  2  0
 12  7  1  0
 19 14  1  0
 30 20  1  0
 29 23  1  0
  3 31  1  0
  4 32  1  0
  4 33  1  0
  8 34  1  0
  8 35  1  0
  9 36  1  0
  9 37  1  0
 10 38  1  0
 10 39  1  0
 11 40  1  0
 11 41  1  0
 12 42  1  1
 13 43  1  0
 13 44  1  0
 15 45  1  0
 15 46  1  0
 16 47  1  0
 16 48  1  0
 17 49  1  0
 17 50  1  0
 18 51  1  0
 18 52  1  0
 19 53  1  0
 19 54  1  0
 21 55  1  0
 22 56  1  0
 24 57  1  0
 27 58  1  0
 28 59  1  0
M  END
>  <smiles>  (24) 
O=C(NCC(=O)N1CCCC[C@H]1CN1CCCCC1)c1ccc2cc(F)ccc2n1

>  <score_type>  (24) 
oracle

>  <origin>  (24) 
autodockgpu

>  <m_score__min__energy>  (24) 
-8.6999999999999993

>  <m_primary>  (24) 
energy

>  <rmsd>  (24) 
1.9539375485982429

>  <m_score__min__rmsd>  (24) 
1.9539375485982429

>  <meeko>  (24) 
{"free_energy": -7.82, "intermolecular_energy": -9.61, "internal_energy": -2.15, "cluster_size": 24, "cluster_id": 1, "rank_in_cluster": 22}

>  <energy>  (24) 
-7.79

>  <cluster_rmsd>  (24) 
1.71

>  <cluster>  (24) 
1

$$$$

     RDKit          3D

 59 62  0  0  0  0  0  0  0  0999 V2000
  140.2840   73.6530  222.3490 O   0  0  0  0  0  0  0  0  0  0  0  0
  140.3260   72.4230  222.2210 C   0  0  0  0  0  0  0  0  0  0  0  0
  140.5490   71.8480  220.9550 N   0  0  0  0  0  0  0  0  0  0  0  0
  140.7420   72.5590  219.7200 C   0  0  0  0  0  0  0  0  0  0  0  0
  141.8450   71.9570  218.8970 C   0  0  0  0  0  0  0  0  0  0  0  0
  141.6120   71.3760  217.8230 O   0  0  0  0  0  0  0  0  0  0  0  0
  143.1850   72.0910  219.4200 N   0  0  0  0  0  0  0  0  0  0  0  0
  143.4150   72.4380  220.8260 C   0  0  0  0  0  0  0  0  0  0  0  0
  144.4000   73.6200  220.7720 C   0  0  0  0  0  0  0  0  0  0  0  0
  145.7090   72.9440  220.3510 C   0  0  0  0  0  0  0  0  0  0  0  0
  145.5570   72.6140  218.9120 C   0  0  0  0  0  0  0  0  0  0  0  0
  144.2710   71.9120  218.5310 C   0  0  1  0  0  0  0  0  0  0  0  0
  144.5470   70.5470  217.9920 C   0  0  0  0  0  0  0  0  0  0  0  0
  145.4540   69.7070  218.7040 N   0  0  0  0  0  0  0  0  0  0  0  0
  146.2760   68.9210  217.7530 C   0  0  0  0  0  0  0  0  0  0  0  0
  145.8130   67.4990  217.6270 C   0  0  0  0  0  0  0  0  0  0  0  0
  145.9530   66.7520  218.9480 C   0  0  0  0  0  0  0  0  0  0  0  0
  145.7680   67.7660  220.0720 C   0  0  0  0  0  0  0  0  0  0  0  0
  144.7100   68.7390  219.5240 C   0  0  0  0  0  0  0  0  0  0  0  0
  140.1450   71.5240  223.3820 C   0  0  0  0  0  0  0  0  0  0  0  0
  139.4860   70.3370  223.3130 C   0  0  0  0  0  0  0  0  0  0  0  0
  139.3240   69.5130  224.4070 C   0  0  0  0  0  0  0  0  0  0  0  0
  139.8650   69.9330  225.6220 C   0  0  0  0  0  0  0  0  0  0  0  0
  139.7260   69.1380  226.7410 C   0  0  0  0  0  0  0  0  0  0  0  0
  140.2770   69.5890  227.9290 C   0  0  0  0  0  0  0  0  0  0  0  0
  140.1580   68.8280  229.0640 F   0  0  0  0  0  0  0  0  0  0  0  0
  140.9460   70.7930  228.0000 C   0  0  0  0  0  0  0  0  0  0  0  0
  141.0910   71.5970  226.8840 C   0  0  0  0  0  0  0  0  0  0  0  0
  140.5350   71.1370  225.7000 C   0  0  0  0  0  0  0  0  0  0  0  0
  140.6500   71.8810  224.5890 N   0  0  0  0  0  0  0  0  0  0  0  0
  140.5790   70.7990  220.9080 H   0  0  0  0  0  0  0  0  0  0  0  0
  139.8074   72.5271  219.1408 H   0  0  0  0  0  0  0  0  0  0  0  0
  141.0218   73.5950  219.9617 H   0  0  0  0  0  0  0  0  0  0  0  0
  142.4746   72.7368  221.3121 H   0  0  0  0  0  0  0  0  0  0  0  0
  143.8074   71.5912  221.4083 H   0  0  0  0  0  0  0  0  0  0  0  0
  144.0827   74.3679  220.0304 H   0  0  0  0  0  0  0  0  0  0  0  0
  144.4768   74.1697  221.7217 H   0  0  0  0  0  0  0  0  0  0  0  0
  146.5570   73.6290  220.4982 H   0  0  0  0  0  0  0  0  0  0  0  0
  145.9077   72.0438  220.9511 H   0  0  0  0  0  0  0  0  0  0  0  0
  145.6105   73.5536  218.3425 H   0  0  0  0  0  0  0  0  0  0  0  0
  146.3653   71.9048  218.6804 H   0  0  0  0  0  0  0  0  0  0  0  0
  143.8314   72.4458  217.6755 H   0  0  0  0  0  0  0  0  0  0  0  0
  143.5846   70.0168  217.9409 H   0  0  0  0  0  0  0  0  0  0  0  0
  145.0481   70.7322  217.0304 H   0  0  0  0  0  0  0  0  0  0  0  0
  146.2220   69.3979  216.7632 H   0  0  0  0  0  0  0  0  0  0  0  0
  147.3057   68.9027  218.1395 H   0  0  0  0  0  0  0  0  0  0  0  0
  144.7563   67.4919  217.3216 H   0  0  0  0  0  0  0  0  0  0  0  0
  146.4387   66.9954  216.8754 H   0  0  0  0  0  0  0  0  0  0  0  0
  145.1843   65.9684  219.0193 H   0  0  0  0  0  0  0  0  0  0  0  0
  146.9406   66.2726  219.0184 H   0  0  0  0  0  0  0  0  0  0  0  0
  145.4094   67.2736  220.9879 H   0  0  0  0  0  0  0  0  0  0  0  0
  146.7062   68.2707  220.3460 H   0  0  0  0  0  0  0  0  0  0  0  0
  143.9738   68.2002  218.9095 H   0  0  0  0  0  0  0  0  0  0  0  0
  144.1519   69.2331  220.3330 H   0  0  0  0  0  0  0  0  0  0  0  0
  139.0655   70.0214  222.3468 H   0  0  0  0  0  0  0  0  0  0  0  0
  138.7863   68.5569  224.3241 H   0  0  0  0  0  0  0  0  0  0  0  0
  139.1943   68.1763  226.6912 H   0  0  0  0  0  0  0  0  0  0  0  0
  141.3714   71.1193  228.9605 H   0  0  0  0  0  0  0  0  0  0  0  0
  141.6235   72.5582  226.9335 H   0  0  0  0  0  0  0  0  0  0  0  0
  1  2  2  0
  2  3  1  0
  3  4  1  0
  4  5  1  0
  5  6  2  0
  5  7  1  0
  7  8  1  0
  8  9  1  0
  9 10  1  0
 10 11  1  0
 11 12  1  0
 12 13  1  0
 13 14  1  0
 14 15  1  0
 15 16  1  0
 16 17  1  0
 17 18  1  0
 18 19  1  0
  2 20  1  0
 20 21  2  0
 21 22  1  0
 22 23  2  0
 23 24  1  0
 24 25  2  0
 25 26  1  0
 25 27  1  0
 27 28  2  0
 28 29  1  0
 29 30  2  0
 12  7  1  0
 19 14  1  0
 30 20  1  0
 29 23  1  0
  3 31  1  0
  4 32  1  0
  4 33  1  0
  8 34  1  0
  8 35  1  0
  9 36  1  0
  9 37  1  0
 10 38  1  0
 10 39  1  0
 11 40  1  0
 11 41  1  0
 12 42  1  6
 13 43  1  0
 13 44  1  0
 15 45  1  0
 15 46  1  0
 16 47  1  0
 16 48  1  0
 17 49  1  0
 17 50  1  0
 18 51  1  0
 18 52  1  0
 19 53  1  0
 19 54  1  0
 21 55  1  0
 22 56  1  0
 24 57  1  0
 27 58  1  0
 28 59  1  0
M  END
>  <smiles>  (25) 
O=C(NCC(=O)N1CCCC[C@H]1CN1CCCCC1)c1ccc2cc(F)ccc2n1

>  <score_type>  (25) 
oracle

>  <origin>  (25) 
autodockgpu

>  <m_score__min__energy>  (25) 
-8.6999999999999993

>  <m_primary>  (25) 
energy

>  <rmsd>  (25) 
7.255998825942069

>  <m_score__min__rmsd>  (25) 
7.255998825942069

>  <meeko>  (25) 
{"free_energy": -7.93, "intermolecular_energy": -9.72, "internal_energy": -1.55, "cluster_size": 2, "cluster_id": 2, "rank_in_cluster": 2}

>  <energy>  (25) 
-8.42

>  <cluster_rmsd>  (25) 
0.0

>  <cluster>  (25) 
2

$$$$

     RDKit          3D

 59 62  0  0  0  0  0  0  0  0999 V2000
  141.3420   72.3770  221.6480 O   0  0  0  0  0  0  0  0  0  0  0  0
  140.3340   72.4720  222.3590 C   0  0  0  0  0  0  0  0  0  0  0  0
  139.3720   73.4660  222.0950 N   0  0  0  0  0  0  0  0  0  0  0  0
  139.4240   74.4430  221.0410 C   0  0  0  0  0  0  0  0  0  0  0  0
  140.5210   75.4450  221.2630 C   0  0  0  0  0  0  0  0  0  0  0  0
  141.1290   75.5140  222.3450 O   0  0  0  0  0  0  0  0  0  0  0  0
  140.8280   76.3180  220.1540 N   0  0  0  0  0  0  0  0  0  0  0  0
  140.7940   75.8260  218.7730 C   0  0  0  0  0  0  0  0  0  0  0  0
  142.1480   76.2560  218.1800 C   0  0  0  0  0  0  0  0  0  0  0  0
  141.9780   77.7700  218.0250 C   0  0  0  0  0  0  0  0  0  0  0  0
  142.0570   78.3360  219.3950 C   0  0  0  0  0  0  0  0  0  0  0  0
  141.1980   77.6540  220.4380 C   0  0  1  0  0  0  0  0  0  0  0  0
  140.1670   78.5910  220.9760 C   0  0  0  0  0  0  0  0  0  0  0  0
  140.4010   79.2040  222.2420 N   0  0  0  0  0  0  0  0  0  0  0  0
  140.8810   80.5940  222.0560 C   0  0  0  0  0  0  0  0  0  0  0  0
  142.3620   80.7270  222.2600 C   0  0  0  0  0  0  0  0  0  0  0  0
  142.7560   80.3840  223.6920 C   0  0  0  0  0  0  0  0  0  0  0  0
  141.7670   79.3430  224.2050 C   0  0  0  0  0  0  0  0  0  0  0  0
  141.4570   78.4840  222.9670 C   0  0  0  0  0  0  0  0  0  0  0  0
  140.1080   71.5550  223.4970 C   0  0  0  0  0  0  0  0  0  0  0  0
  139.3750   70.4130  223.4030 C   0  0  0  0  0  0  0  0  0  0  0  0
  139.1710   69.5720  224.4760 C   0  0  0  0  0  0  0  0  0  0  0  0
  139.7480   69.9230  225.6960 C   0  0  0  0  0  0  0  0  0  0  0  0
  139.5690   69.1080  226.7940 C   0  0  0  0  0  0  0  0  0  0  0  0
  140.1590   69.4900  227.9880 C   0  0  0  0  0  0  0  0  0  0  0  0
  140.0030   68.7070  229.1040 F   0  0  0  0  0  0  0  0  0  0  0  0
  140.9030   70.6470  228.0850 C   0  0  0  0  0  0  0  0  0  0  0  0
  141.0880   71.4720  226.9890 C   0  0  0  0  0  0  0  0  0  0  0  0
  140.4930   71.0800  225.7990 C   0  0  0  0  0  0  0  0  0  0  0  0
  140.6450   71.8460  224.7070 N   0  0  0  0  0  0  0  0  0  0  0  0
  138.5350   73.4970  222.7280 H   0  0  0  0  0  0  0  0  0  0  0  0
  139.6009   73.9271  220.0857 H   0  0  0  0  0  0  0  0  0  0  0  0
  138.4656   74.9826  221.0273 H   0  0  0  0  0  0  0  0  0  0  0  0
  140.6901   74.7311  218.7523 H   0  0  0  0  0  0  0  0  0  0  0  0
  139.9413   76.2274  218.2057 H   0  0  0  0  0  0  0  0  0  0  0  0
  142.9753   76.0172  218.8645 H   0  0  0  0  0  0  0  0  0  0  0  0
  142.3958   75.7445  217.2382 H   0  0  0  0  0  0  0  0  0  0  0  0
  142.7803   78.1817  217.3951 H   0  0  0  0  0  0  0  0  0  0  0  0
  141.0218   78.0194  217.5419 H   0  0  0  0  0  0  0  0  0  0  0  0
  143.1041   78.2738  219.7264 H   0  0  0  0  0  0  0  0  0  0  0  0
  141.6738   79.3641  219.3170 H   0  0  0  0  0  0  0  0  0  0  0  0
  141.8309   77.4335  221.3102 H   0  0  0  0  0  0  0  0  0  0  0  0
  140.0476   79.4000  220.2403 H   0  0  0  0  0  0  0  0  0  0  0  0
  139.2852   77.9550  221.1429 H   0  0  0  0  0  0  0  0  0  0  0  0
  140.6361   80.9171  221.0334 H   0  0  0  0  0  0  0  0  0  0  0  0
  140.3838   81.2212  222.8106 H   0  0  0  0  0  0  0  0  0  0  0  0
  142.8814   80.0438  221.5719 H   0  0  0  0  0  0  0  0  0  0  0  0
  142.6479   81.7705  222.0613 H   0  0  0  0  0  0  0  0  0  0  0  0
  143.7765   79.9740  223.7124 H   0  0  0  0  0  0  0  0  0  0  0  0
  142.7336   81.2833  224.3250 H   0  0  0  0  0  0  0  0  0  0  0  0
  142.2188   78.7331  225.0012 H   0  0  0  0  0  0  0  0  0  0  0  0
  140.8653   79.7951  224.6437 H   0  0  0  0  0  0  0  0  0  0  0  0
  142.3530   78.3801  222.3374 H   0  0  0  0  0  0  0  0  0  0  0  0
  141.1403   77.4679  223.2450 H   0  0  0  0  0  0  0  0  0  0  0  0
  138.9276   70.1504  222.4330 H   0  0  0  0  0  0  0  0  0  0  0  0
  138.5729   68.6545  224.3733 H   0  0  0  0  0  0  0  0  0  0  0  0
  138.9765   68.1838  226.7241 H   0  0  0  0  0  0  0  0  0  0  0  0
  141.3570   70.9188  229.0494 H   0  0  0  0  0  0  0  0  0  0  0  0
  141.6800   72.3965  227.0586 H   0  0  0  0  0  0  0  0  0  0  0  0
  1  2  2  0
  2  3  1  0
  3  4  1  0
  4  5  1  0
  5  6  2  0
  5  7  1  0
  7  8  1  0
  8  9  1  0
  9 10  1  0
 10 11  1  0
 11 12  1  0
 12 13  1  0
 13 14  1  0
 14 15  1  0
 15 16  1  0
 16 17  1  0
 17 18  1  0
 18 19  1  0
  2 20  1  0
 20 21  2  0
 21 22  1  0
 22 23  2  0
 23 24  1  0
 24 25  2  0
 25 26  1  0
 25 27  1  0
 27 28  2  0
 28 29  1  0
 29 30  2  0
 12  7  1  0
 19 14  1  0
 30 20  1  0
 29 23  1  0
  3 31  1  0
  4 32  1  0
  4 33  1  0
  8 34  1  0
  8 35  1  0
  9 36  1  0
  9 37  1  0
 10 38  1  0
 10 39  1  0
 11 40  1  0
 11 41  1  0
 12 42  1  1
 13 43  1  0
 13 44  1  0
 15 45  1  0
 15 46  1  0
 16 47  1  0
 16 48  1  0
 17 49  1  0
 17 50  1  0
 18 51  1  0
 18 52  1  0
 19 53  1  0
 19 54  1  0
 21 55  1  0
 22 56  1  0
 24 57  1  0
 27 58  1  0
 28 59  1  0
M  END
>  <smiles>  (26) 
O=C(NCC(=O)N1CCCC[C@H]1CN1CCCCC1)c1ccc2cc(F)ccc2n1

>  <score_type>  (26) 
oracle

>  <origin>  (26) 
autodockgpu

>  <m_score__min__energy>  (26) 
-8.6999999999999993

>  <m_primary>  (26) 
energy

>  <rmsd>  (26) 
2.3690392204652815

>  <m_score__min__rmsd>  (26) 
2.3690392204652815

>  <meeko>  (26) 
{"free_energy": -8.65, "intermolecular_energy": -10.44, "internal_energy": -1.56, "cluster_size": 24, "cluster_id": 1, "rank_in_cluster": 2}

>  <energy>  (26) 
-7.93

>  <cluster_rmsd>  (26) 
0.61

>  <cluster>  (26) 
2

$$$$

     RDKit          3D

 59 62  0  0  0  0  0  0  0  0999 V2000
  140.8660   73.0890  222.2840 O   0  0  0  0  0  0  0  0  0  0  0  0
  139.8390   72.6070  222.7770 C   0  0  0  0  0  0  0  0  0  0  0  0
  138.5720   73.0560  222.3570 N   0  0  0  0  0  0  0  0  0  0  0  0
  138.3120   74.0690  221.3710 C   0  0  0  0  0  0  0  0  0  0  0  0
  138.6640   75.4400  221.8740 C   0  0  0  0  0  0  0  0  0  0  0  0
  138.2050   75.8780  222.9430 O   0  0  0  0  0  0  0  0  0  0  0  0
  139.5610   76.2170  221.0500 N   0  0  0  0  0  0  0  0  0  0  0  0
  139.1360   76.7210  219.7400 C   0  0  0  0  0  0  0  0  0  0  0  0
  140.2550   76.2790  218.7790 C   0  0  0  0  0  0  0  0  0  0  0  0
  141.4110   77.2070  219.1640 C   0  0  0  0  0  0  0  0  0  0  0  0
  141.9210   76.7120  220.4670 C   0  0  0  0  0  0  0  0  0  0  0  0
  140.8730   76.4510  221.5270 C   0  0  1  0  0  0  0  0  0  0  0  0
  141.0660   77.3520  222.7020 C   0  0  0  0  0  0  0  0  0  0  0  0
  140.9070   78.7570  222.5140 N   0  0  0  0  0  0  0  0  0  0  0  0
  142.2110   79.3790  222.1810 C   0  0  0  0  0  0  0  0  0  0  0  0
  142.8260   80.0920  223.3490 C   0  0  0  0  0  0  0  0  0  0  0  0
  141.9600   81.2610  223.8020 C   0  0  0  0  0  0  0  0  0  0  0  0
  140.5080   80.9010  223.5050 C   0  0  0  0  0  0  0  0  0  0  0  0
  140.4420   79.3850  223.7590 C   0  0  0  0  0  0  0  0  0  0  0  0
  139.9070   71.5520  223.8120 C   0  0  0  0  0  0  0  0  0  0  0  0
  139.4940   70.2730  223.6050 C   0  0  0  0  0  0  0  0  0  0  0  0
  139.5610   69.3040  224.5830 C   0  0  0  0  0  0  0  0  0  0  0  0
  140.0760   69.6700  225.8260 C   0  0  0  0  0  0  0  0  0  0  0  0
  140.1620   68.7300  226.8320 C   0  0  0  0  0  0  0  0  0  0  0  0
  140.6800   69.1320  228.0520 C   0  0  0  0  0  0  0  0  0  0  0  0
  140.7800   68.2270  229.0790 F   0  0  0  0  0  0  0  0  0  0  0  0
  141.1010   70.4280  228.2640 C   0  0  0  0  0  0  0  0  0  0  0  0
  141.0190   71.3780  227.2610 C   0  0  0  0  0  0  0  0  0  0  0  0
  140.4980   70.9660  226.0440 C   0  0  0  0  0  0  0  0  0  0  0  0
  140.4000   71.8510  225.0390 N   0  0  0  0  0  0  0  0  0  0  0  0
  137.7360   72.6070  222.8070 H   0  0  0  0  0  0  0  0  0  0  0  0
  138.9107   73.8544  220.4735 H   0  0  0  0  0  0  0  0  0  0  0  0
  137.2363   74.0547  221.1413 H   0  0  0  0  0  0  0  0  0  0  0  0
  138.1729   76.2781  219.4462 H   0  0  0  0  0  0  0  0  0  0  0  0
  138.9873   77.8109  219.7379 H   0  0  0  0  0  0  0  0  0  0  0  0
  140.5223   75.2241  218.9391 H   0  0  0  0  0  0  0  0  0  0  0  0
  139.9733   76.3477  217.7179 H   0  0  0  0  0  0  0  0  0  0  0  0
  142.2040   77.1647  218.4029 H   0  0  0  0  0  0  0  0  0  0  0  0
  141.0795   78.2535  219.2340 H   0  0  0  0  0  0  0  0  0  0  0  0
  142.4578   75.7696  220.2835 H   0  0  0  0  0  0  0  0  0  0  0  0
  142.5555   77.5174  220.8654 H   0  0  0  0  0  0  0  0  0  0  0  0
  141.0460   75.4460  221.9394 H   0  0  0  0  0  0  0  0  0  0  0  0
  140.3425   77.0430  223.4708 H   0  0  0  0  0  0  0  0  0  0  0  0
  142.1282   77.2329  222.9618 H   0  0  0  0  0  0  0  0  0  0  0  0
  142.9016   78.5911  221.8460 H   0  0  0  0  0  0  0  0  0  0  0  0
  142.0323   80.1247  221.3923 H   0  0  0  0  0  0  0  0  0  0  0  0
  142.9369   79.3837  224.1833 H   0  0  0  0  0  0  0  0  0  0  0  0
  143.8057   80.4849  223.0395 H   0  0  0  0  0  0  0  0  0  0  0  0
  142.0916   81.4294  224.8810 H   0  0  0  0  0  0  0  0  0  0  0  0
  142.2460   82.1818  223.2725 H   0  0  0  0  0  0  0  0  0  0  0  0
  139.8256   81.4405  224.1783 H   0  0  0  0  0  0  0  0  0  0  0  0
  140.2044   81.1731  222.4833 H   0  0  0  0  0  0  0  0  0  0  0  0
  141.0972   79.1070  224.5977 H   0  0  0  0  0  0  0  0  0  0  0  0
  139.4253   79.0599  224.0248 H   0  0  0  0  0  0  0  0  0  0  0  0
  139.0907   70.0011  222.6184 H   0  0  0  0  0  0  0  0  0  0  0  0
  139.2196   68.2764  224.3894 H   0  0  0  0  0  0  0  0  0  0  0  0
  139.8297   67.6939  226.6704 H   0  0  0  0  0  0  0  0  0  0  0  0
  141.5084   70.7111  229.2458 H   0  0  0  0  0  0  0  0  0  0  0  0
  141.3523   72.4138  227.4221 H   0  0  0  0  0  0  0  0  0  0  0  0
  1  2  2  0
  2  3  1  0
  3  4  1  0
  4  5  1  0
  5  6  2  0
  5  7  1  0
  7  8  1  0
  8  9  1  0
  9 10  1  0
 10 11  1  0
 11 12  1  0
 12 13  1  0
 13 14  1  0
 14 15  1  0
 15 16  1  0
 16 17  1  0
 17 18  1  0
 18 19  1  0
  2 20  1  0
 20 21  2  0
 21 22  1  0
 22 23  2  0
 23 24  1  0
 24 25  2  0
 25 26  1  0
 25 27  1  0
 27 28  2  0
 28 29  1  0
 29 30  2  0
 12  7  1  0
 19 14  1  0
 30 20  1  0
 29 23  1  0
  3 31  1  0
  4 32  1  0
  4 33  1  0
  8 34  1  0
  8 35  1  0
  9 36  1  0
  9 37  1  0
 10 38  1  0
 10 39  1  0
 11 40  1  0
 11 41  1  0
 12 42  1  1
 13 43  1  0
 13 44  1  0
 15 45  1  0
 15 46  1  0
 16 47  1  0
 16 48  1  0
 17 49  1  0
 17 50  1  0
 18 51  1  0
 18 52  1  0
 19 53  1  0
 19 54  1  0
 21 55  1  0
 22 56  1  0
 24 57  1  0
 27 58  1  0
 28 59  1  0
M  END
>  <smiles>  (27) 
O=C(NCC(=O)N1CCCC[C@H]1CN1CCCCC1)c1ccc2cc(F)ccc2n1

>  <score_type>  (27) 
oracle

>  <origin>  (27) 
autodockgpu

>  <m_score__min__energy>  (27) 
-8.6999999999999993

>  <m_primary>  (27) 
energy

>  <rmsd>  (27) 
2.2518020198764073

>  <m_score__min__rmsd>  (27) 
2.2518020198764073

>  <meeko>  (27) 
{"free_energy": -8.54, "intermolecular_energy": -10.33, "internal_energy": -1.59, "cluster_size": 24, "cluster_id": 1, "rank_in_cluster": 5}

>  <energy>  (27) 
-8.37

>  <cluster_rmsd>  (27) 
0.0

>  <cluster>  (27) 
3

$$$$

     RDKit          3D

 59 62  0  0  0  0  0  0  0  0999 V2000
  140.6550   71.9450  221.0110 O   0  0  0  0  0  0  0  0  0  0  0  0
  140.2250   72.3570  222.0950 C   0  0  0  0  0  0  0  0  0  0  0  0
  139.8150   73.6970  222.2330 N   0  0  0  0  0  0  0  0  0  0  0  0
  139.8410   74.7050  221.2080 C   0  0  0  0  0  0  0  0  0  0  0  0
  141.2430   75.0170  220.7690 C   0  0  0  0  0  0  0  0  0  0  0  0
  142.2200   74.3980  221.2230 O   0  0  0  0  0  0  0  0  0  0  0  0
  141.3910   76.0730  219.7930 N   0  0  0  0  0  0  0  0  0  0  0  0
  141.4960   75.7690  218.3630 C   0  0  0  0  0  0  0  0  0  0  0  0
  142.7460   76.5390  217.8990 C   0  0  0  0  0  0  0  0  0  0  0  0
  142.2690   77.9940  217.9230 C   0  0  0  0  0  0  0  0  0  0  0  0
  142.1920   78.3790  219.3540 C   0  0  0  0  0  0  0  0  0  0  0  0
  141.4660   77.4070  220.2580 C   0  0  1  0  0  0  0  0  0  0  0  0
  140.2490   78.0360  220.8510 C   0  0  0  0  0  0  0  0  0  0  0  0
  140.3740   78.7150  222.1000 N   0  0  0  0  0  0  0  0  0  0  0  0
  140.7490   80.1310  221.8770 C   0  0  0  0  0  0  0  0  0  0  0  0
  142.2030   80.3930  222.1370 C   0  0  0  0  0  0  0  0  0  0  0  0
  142.5580   80.1390  223.5980 C   0  0  0  0  0  0  0  0  0  0  0  0
  141.6330   79.0390  224.1110 C   0  0  0  0  0  0  0  0  0  0  0  0
  141.4510   78.1110  222.8980 C   0  0  0  0  0  0  0  0  0  0  0  0
  140.1280   71.4640  223.2710 C   0  0  0  0  0  0  0  0  0  0  0  0
  139.5780   70.2210  223.2220 C   0  0  0  0  0  0  0  0  0  0  0  0
  139.4920   69.4040  224.3300 C   0  0  0  0  0  0  0  0  0  0  0  0
  139.9950   69.8900  225.5360 C   0  0  0  0  0  0  0  0  0  0  0  0
  139.9300   69.1040  226.6680 C   0  0  0  0  0  0  0  0  0  0  0  0
  140.4410   69.6210  227.8470 C   0  0  0  0  0  0  0  0  0  0  0  0
  140.3930   68.8710  228.9950 F   0  0  0  0  0  0  0  0  0  0  0  0
  141.0000   70.8810  227.8980 C   0  0  0  0  0  0  0  0  0  0  0  0
  141.0690   71.6770  226.7680 C   0  0  0  0  0  0  0  0  0  0  0  0
  140.5550   71.1500  225.5930 C   0  0  0  0  0  0  0  0  0  0  0  0
  140.6010   71.8840  224.4700 N   0  0  0  0  0  0  0  0  0  0  0  0
  139.4550   73.9890  223.1760 H   0  0  0  0  0  0  0  0  0  0  0  0
  139.2678   74.3458  220.3406 H   0  0  0  0  0  0  0  0  0  0  0  0
  139.3990   75.6240  221.6205 H   0  0  0  0  0  0  0  0  0  0  0  0
  141.6229   74.6881  218.2031 H   0  0  0  0  0  0  0  0  0  0  0  0
  140.5935   76.0592  217.8051 H   0  0  0  0  0  0  0  0  0  0  0  0
  143.5870   76.3852  218.5912 H   0  0  0  0  0  0  0  0  0  0  0  0
  143.1189   76.2166  216.9156 H   0  0  0  0  0  0  0  0  0  0  0  0
  142.9847   78.6391  217.3922 H   0  0  0  0  0  0  0  0  0  0  0  0
  141.2950   78.1056  217.4242 H   0  0  0  0  0  0  0  0  0  0  0  0
  143.2199   78.4870  219.7305 H   0  0  0  0  0  0  0  0  0  0  0  0
  141.6057   79.3093  219.3825 H   0  0  0  0  0  0  0  0  0  0  0  0
  142.1063   77.2078  221.1300 H   0  0  0  0  0  0  0  0  0  0  0  0
  139.8722   78.7668  220.1203 H   0  0  0  0  0  0  0  0  0  0  0  0
  139.5864   77.1860  221.0714 H   0  0  0  0  0  0  0  0  0  0  0  0
  140.5254   80.3939  220.8325 H   0  0  0  0  0  0  0  0  0  0  0  0
  140.1697   80.7432  222.5838 H   0  0  0  0  0  0  0  0  0  0  0  0
  142.8063   79.7288  221.5007 H   0  0  0  0  0  0  0  0  0  0  0  0
  142.4128   81.4479  221.9066 H   0  0  0  0  0  0  0  0  0  0  0  0
  143.6064   79.8160  223.6790 H   0  0  0  0  0  0  0  0  0  0  0  0
  142.4345   81.0568  224.1916 H   0  0  0  0  0  0  0  0  0  0  0  0
  142.0953   78.4992  224.9505 H   0  0  0  0  0  0  0  0  0  0  0  0
  140.6783   79.4314  224.4911 H   0  0  0  0  0  0  0  0  0  0  0  0
  142.3803   78.0576  222.3118 H   0  0  0  0  0  0  0  0  0  0  0  0
  141.2056   77.0832  223.2035 H   0  0  0  0  0  0  0  0  0  0  0  0
  139.1868   69.8532  222.2620 H   0  0  0  0  0  0  0  0  0  0  0  0
  139.0417   68.4026  224.2643 H   0  0  0  0  0  0  0  0  0  0  0  0
  139.4862   68.0980  226.6352 H   0  0  0  0  0  0  0  0  0  0  0  0
  141.3971   71.2590  228.8516 H   0  0  0  0  0  0  0  0  0  0  0  0
  141.5120   72.6833  226.8006 H   0  0  0  0  0  0  0  0  0  0  0  0
  1  2  2  0
  2  3  1  0
  3  4  1  0
  4  5  1  0
  5  6  2  0
  5  7  1  0
  7  8  1  0
  8  9  1  0
  9 10  1  0
 10 11  1  0
 11 12  1  0
 12 13  1  0
 13 14  1  0
 14 15  1  0
 15 16  1  0
 16 17  1  0
 17 18  1  0
 18 19  1  0
  2 20  1  0
 20 21  2  0
 21 22  1  0
 22 23  2  0
 23 24  1  0
 24 25  2  0
 25 26  1  0
 25 27  1  0
 27 28  2  0
 28 29  1  0
 29 30  2  0
 12  7  1  0
 19 14  1  0
 30 20  1  0
 29 23  1  0
  3 31  1  0
  4 32  1  0
  4 33  1  0
  8 34  1  0
  8 35  1  0
  9 36  1  0
  9 37  1  0
 10 38  1  0
 10 39  1  0
 11 40  1  0
 11 41  1  0
 12 42  1  1
 13 43  1  0
 13 44  1  0
 15 45  1  0
 15 46  1  0
 16 47  1  0
 16 48  1  0
 17 49  1  0
 17 50  1  0
 18 51  1  0
 18 52  1  0
 19 53  1  0
 19 54  1  0
 21 55  1  0
 22 56  1  0
 24 57  1  0
 27 58  1  0
 28 59  1  0
M  END
>  <smiles>  (28) 
O=C(NCC(=O)N1CCCC[C@H]1CN1CCCCC1)c1ccc2cc(F)ccc2n1

>  <score_type>  (28) 
oracle

>  <origin>  (28) 
autodockgpu

>  <m_score__min__energy>  (28) 
-8.6999999999999993

>  <m_primary>  (28) 
energy

>  <rmsd>  (28) 
2.4611018021819966

>  <m_score__min__rmsd>  (28) 
2.4611018021819966

>  <meeko>  (28) 
{"free_energy": -8.37, "intermolecular_energy": -10.16, "internal_energy": -1.65, "cluster_size": 5, "cluster_id": 3, "rank_in_cluster": 1}

>  <energy>  (28) 
-8.27

>  <cluster_rmsd>  (28) 
1.63

>  <cluster>  (28) 
3

$$$$

     RDKit          3D

 59 62  0  0  0  0  0  0  0  0999 V2000
  139.4650   70.8740  221.0000 O   0  0  0  0  0  0  0  0  0  0  0  0
  139.5210   71.4160  222.1100 C   0  0  0  0  0  0  0  0  0  0  0  0
  139.5400   72.8200  222.2150 N   0  0  0  0  0  0  0  0  0  0  0  0
  139.5040   73.7550  221.1230 C   0  0  0  0  0  0  0  0  0  0  0  0
  139.9740   75.1190  221.5420 C   0  0  0  0  0  0  0  0  0  0  0  0
  139.8380   75.5240  222.7090 O   0  0  0  0  0  0  0  0  0  0  0  0
  140.5920   75.9290  220.5170 N   0  0  0  0  0  0  0  0  0  0  0  0
  140.7370   75.4300  219.1460 C   0  0  0  0  0  0  0  0  0  0  0  0
  142.2210   75.6640  218.8090 C   0  0  0  0  0  0  0  0  0  0  0  0
  142.2910   77.1850  218.6470 C   0  0  0  0  0  0  0  0  0  0  0  0
  142.2010   77.7500  220.0170 C   0  0  0  0  0  0  0  0  0  0  0  0
  141.0840   77.2050  220.8800 C   0  0  1  0  0  0  0  0  0  0  0  0
  140.1120   78.2800  221.2380 C   0  0  0  0  0  0  0  0  0  0  0  0
  140.4140   79.1290  222.3440 N   0  0  0  0  0  0  0  0  0  0  0  0
  140.9630   80.4190  221.8640 C   0  0  0  0  0  0  0  0  0  0  0  0
  142.4540   80.5030  222.0120 C   0  0  0  0  0  0  0  0  0  0  0  0
  142.8690   80.4430  223.4770 C   0  0  0  0  0  0  0  0  0  0  0  0
  141.8390   79.5920  224.2120 C   0  0  0  0  0  0  0  0  0  0  0  0
  141.4490   78.5140  223.1870 C   0  0  0  0  0  0  0  0  0  0  0  0
  139.5700   70.6150  223.3530 C   0  0  0  0  0  0  0  0  0  0  0  0
  139.1250   69.3320  223.4330 C   0  0  0  0  0  0  0  0  0  0  0  0
  139.1740   68.6010  224.6020 C   0  0  0  0  0  0  0  0  0  0  0  0
  139.7050   69.2200  225.7330 C   0  0  0  0  0  0  0  0  0  0  0  0
  139.7750   68.5240  226.9220 C   0  0  0  0  0  0  0  0  0  0  0  0
  140.3090   69.1720  228.0230 C   0  0  0  0  0  0  0  0  0  0  0  0
  140.3930   68.5140  229.2240 F   0  0  0  0  0  0  0  0  0  0  0  0
  140.7620   70.4730  227.9430 C   0  0  0  0  0  0  0  0  0  0  0  0
  140.6960   71.1790  226.7550 C   0  0  0  0  0  0  0  0  0  0  0  0
  140.1590   70.5220  225.6590 C   0  0  0  0  0  0  0  0  0  0  0  0
  140.0760   71.1650  224.4840 N   0  0  0  0  0  0  0  0  0  0  0  0
  139.5850   73.2240  223.1830 H   0  0  0  0  0  0  0  0  0  0  0  0
  140.1548   73.3861  220.3166 H   0  0  0  0  0  0  0  0  0  0  0  0
  138.4621   73.8420  220.7810 H   0  0  0  0  0  0  0  0  0  0  0  0
  140.4898   74.3594  219.0931 H   0  0  0  0  0  0  0  0  0  0  0  0
  140.0617   75.9373  218.4413 H   0  0  0  0  0  0  0  0  0  0  0  0
  142.8726   75.3213  219.6263 H   0  0  0  0  0  0  0  0  0  0  0  0
  142.5596   75.1132  217.9191 H   0  0  0  0  0  0  0  0  0  0  0  0
  143.2418   77.4753  218.1761 H   0  0  0  0  0  0  0  0  0  0  0  0
  141.4799   77.5583  218.0045 H   0  0  0  0  0  0  0  0  0  0  0  0
  143.1532   77.5475  220.5292 H   0  0  0  0  0  0  0  0  0  0  0  0
  141.9834   78.8203  219.8860 H   0  0  0  0  0  0  0  0  0  0  0  0
  141.5140   76.9105  221.8487 H   0  0  0  0  0  0  0  0  0  0  0  0
  140.0010   78.9252  220.3540 H   0  0  0  0  0  0  0  0  0  0  0  0
  139.2111   77.7343  221.5551 H   0  0  0  0  0  0  0  0  0  0  0  0
  140.7074   80.5367  220.8006 H   0  0  0  0  0  0  0  0  0  0  0  0
  140.5219   81.2178  222.4783 H   0  0  0  0  0  0  0  0  0  0  0  0
  142.9155   79.6618  221.4741 H   0  0  0  0  0  0  0  0  0  0  0  0
  142.7909   81.4634  221.5947 H   0  0  0  0  0  0  0  0  0  0  0  0
  143.8657   79.9864  223.5664 H   0  0  0  0  0  0  0  0  0  0  0  0
  142.9141   81.4540  223.9081 H   0  0  0  0  0  0  0  0  0  0  0  0
  142.2785   79.1359  225.1114 H   0  0  0  0  0  0  0  0  0  0  0  0
  140.9756   80.1781  224.5599 H   0  0  0  0  0  0  0  0  0  0  0  0
  142.3202   78.2285  222.5791 H   0  0  0  0  0  0  0  0  0  0  0  0
  141.0855   77.5984  223.6764 H   0  0  0  0  0  0  0  0  0  0  0  0
  138.7100   68.8591  222.5307 H   0  0  0  0  0  0  0  0  0  0  0  0
  138.8066   67.5649  224.6406 H   0  0  0  0  0  0  0  0  0  0  0  0
  139.4176   67.4861  226.9932 H   0  0  0  0  0  0  0  0  0  0  0  0
  141.1820   70.9562  228.8375 H   0  0  0  0  0  0  0  0  0  0  0  0
  141.0541   72.2166  226.6834 H   0  0  0  0  0  0  0  0  0  0  0  0
  1  2  2  0
  2  3  1  0
  3  4  1  0
  4  5  1  0
  5  6  2  0
  5  7  1  0
  7  8  1  0
  8  9  1  0
  9 10  1  0
 10 11  1  0
 11 12  1  0
 12 13  1  0
 13 14  1  0
 14 15  1  0
 15 16  1  0
 16 17  1  0
 17 18  1  0
 18 19  1  0
  2 20  1  0
 20 21  2  0
 21 22  1  0
 22 23  2  0
 23 24  1  0
 24 25  2  0
 25 26  1  0
 25 27  1  0
 27 28  2  0
 28 29  1  0
 29 30  2  0
 12  7  1  0
 19 14  1  0
 30 20  1  0
 29 23  1  0
  3 31  1  0
  4 32  1  0
  4 33  1  0
  8 34  1  0
  8 35  1  0
  9 36  1  0
  9 37  1  0
 10 38  1  0
 10 39  1  0
 11 40  1  0
 11 41  1  0
 12 42  1  1
 13 43  1  0
 13 44  1  0
 15 45  1  0
 15 46  1  0
 16 47  1  0
 16 48  1  0
 17 49  1  0
 17 50  1  0
 18 51  1  0
 18 52  1  0
 19 53  1  0
 19 54  1  0
 21 55  1  0
 22 56  1  0
 24 57  1  0
 27 58  1  0
 28 59  1  0
M  END
>  <smiles>  (29) 
O=C(NCC(=O)N1CCCC[C@H]1CN1CCCCC1)c1ccc2cc(F)ccc2n1

>  <score_type>  (29) 
oracle

>  <origin>  (29) 
autodockgpu

>  <m_score__min__energy>  (29) 
-8.6999999999999993

>  <m_primary>  (29) 
energy

>  <rmsd>  (29) 
2.2682016602847774

>  <m_score__min__rmsd>  (29) 
2.2682016602847774

>  <meeko>  (29) 
{"free_energy": -8.34, "intermolecular_energy": -10.13, "internal_energy": -2.13, "cluster_size": 24, "cluster_id": 1, "rank_in_cluster": 15}

>  <energy>  (29) 
-8.2

>  <cluster_rmsd>  (29) 
0.63

>  <cluster>  (29) 
3

$$$$

     RDKit          3D

 59 62  0  0  0  0  0  0  0  0999 V2000
  139.5100   74.6480  222.1120 O   0  0  0  0  0  0  0  0  0  0  0  0
  140.6620   74.9170  221.7520 C   0  0  0  0  0  0  0  0  0  0  0  0
  141.1440   76.2370  221.8430 N   0  0  0  0  0  0  0  0  0  0  0  0
  140.4150   77.3780  222.3280 C   0  0  0  0  0  0  0  0  0  0  0  0
  141.3330   78.4420  222.8560 C   0  0  0  0  0  0  0  0  0  0  0  0
  141.9830   78.2790  223.9030 O   0  0  0  0  0  0  0  0  0  0  0  0
  141.4180   79.6600  222.0840 N   0  0  0  0  0  0  0  0  0  0  0  0
  141.8240   80.9230  222.7080 C   0  0  0  0  0  0  0  0  0  0  0  0
  140.7320   81.9250  222.2890 C   0  0  0  0  0  0  0  0  0  0  0  0
  141.0350   82.1450  220.8040 C   0  0  0  0  0  0  0  0  0  0  0  0
  140.5940   80.9110  220.1060 C   0  0  0  0  0  0  0  0  0  0  0  0
  141.0660   79.6090  220.7140 C   0  0  1  0  0  0  0  0  0  0  0  0
  141.9520   78.8680  219.7670 C   0  0  0  0  0  0  0  0  0  0  0  0
  141.7890   77.4550  219.6490 N   0  0  0  0  0  0  0  0  0  0  0  0
  143.1000   76.8080  219.4030 C   0  0  0  0  0  0  0  0  0  0  0  0
  143.2920   76.4210  217.9650 C   0  0  0  0  0  0  0  0  0  0  0  0
  142.2720   75.3740  217.5340 C   0  0  0  0  0  0  0  0  0  0  0  0
  141.0000   75.6090  218.3440 C   0  0  0  0  0  0  0  0  0  0  0  0
  140.9350   77.1380  218.4960 C   0  0  0  0  0  0  0  0  0  0  0  0
  141.5640   73.8720  221.2200 C   0  0  0  0  0  0  0  0  0  0  0  0
  141.1700   72.5900  220.9940 C   0  0  0  0  0  0  0  0  0  0  0  0
  142.0260   71.6270  220.5010 C   0  0  0  0  0  0  0  0  0  0  0  0
  143.3400   72.0040  220.2300 C   0  0  0  0  0  0  0  0  0  0  0  0
  144.2290   71.0720  219.7340 C   0  0  0  0  0  0  0  0  0  0  0  0
  145.5250   71.4850  219.4760 C   0  0  0  0  0  0  0  0  0  0  0  0
  146.4390   70.5870  218.9840 F   0  0  0  0  0  0  0  0  0  0  0  0
  145.9250   72.7850  219.7030 C   0  0  0  0  0  0  0  0  0  0  0  0
  145.0420   73.7270  220.2000 C   0  0  0  0  0  0  0  0  0  0  0  0
  143.7470   73.3040  220.4560 C   0  0  0  0  0  0  0  0  0  0  0  0
  142.8530   74.1810  220.9370 N   0  0  0  0  0  0  0  0  0  0  0  0
  142.1310   76.4060  221.5270 H   0  0  0  0  0  0  0  0  0  0  0  0
  139.8205   77.7977  221.5032 H   0  0  0  0  0  0  0  0  0  0  0  0
  139.7672   77.0451  223.1523 H   0  0  0  0  0  0  0  0  0  0  0  0
  141.8607   80.8223  223.8028 H   0  0  0  0  0  0  0  0  0  0  0  0
  142.8288   81.2420  222.3941 H   0  0  0  0  0  0  0  0  0  0  0  0
  139.7273   81.5002  222.4309 H   0  0  0  0  0  0  0  0  0  0  0  0
  140.7387   82.8529  222.8797 H   0  0  0  0  0  0  0  0  0  0  0  0
  140.4799   83.0163  220.4262 H   0  0  0  0  0  0  0  0  0  0  0  0
  142.1045   82.3405  220.6370 H   0  0  0  0  0  0  0  0  0  0  0  0
  139.4941   80.9015  220.0989 H   0  0  0  0  0  0  0  0  0  0  0  0
  141.0463   80.9554  219.1043 H   0  0  0  0  0  0  0  0  0  0  0  0
  140.1933   78.9489  220.8262 H   0  0  0  0  0  0  0  0  0  0  0  0
  141.7917   79.2984  218.7675 H   0  0  0  0  0  0  0  0  0  0  0  0
  142.9604   78.9893  220.1893 H   0  0  0  0  0  0  0  0  0  0  0  0
  143.8980   77.5091  219.6888 H   0  0  0  0  0  0  0  0  0  0  0  0
  143.1349   75.8870  220.0034 H   0  0  0  0  0  0  0  0  0  0  0  0
  143.1765   77.3150  217.3346 H   0  0  0  0  0  0  0  0  0  0  0  0
  144.2990   75.9931  217.8514 H   0  0  0  0  0  0  0  0  0  0  0  0
  142.0577   75.4787  216.4602 H   0  0  0  0  0  0  0  0  0  0  0  0
  142.6607   74.3602  217.7102 H   0  0  0  0  0  0  0  0  0  0  0  0
  140.1181   75.2314  217.8058 H   0  0  0  0  0  0  0  0  0  0  0  0
  141.0111   75.0867  219.3120 H   0  0  0  0  0  0  0  0  0  0  0  0
  141.3151   77.6309  217.5891 H   0  0  0  0  0  0  0  0  0  0  0  0
  139.9033   77.4897  218.6436 H   0  0  0  0  0  0  0  0  0  0  0  0
  140.1289   72.3103  221.2127 H   0  0  0  0  0  0  0  0  0  0  0  0
  141.6830   70.5963  220.3277 H   0  0  0  0  0  0  0  0  0  0  0  0
  143.9175   70.0333  219.5494 H   0  0  0  0  0  0  0  0  0  0  0  0
  146.9628   73.0777  219.4854 H   0  0  0  0  0  0  0  0  0  0  0  0
  145.3538   74.7657  220.3839 H   0  0  0  0  0  0  0  0  0  0  0  0
  1  2  2  0
  2  3  1  0
  3  4  1  0
  4  5  1  0
  5  6  2  0
  5  7  1  0
  7  8  1  0
  8  9  1  0
  9 10  1  0
 10 11  1  0
 11 12  1  0
 12 13  1  0
 13 14  1  0
 14 15  1  0
 15 16  1  0
 16 17  1  0
 17 18  1  0
 18 19  1  0
  2 20  1  0
 20 21  2  0
 21 22  1  0
 22 23  2  0
 23 24  1  0
 24 25  2  0
 25 26  1  0
 25 27  1  0
 27 28  2  0
 28 29  1  0
 29 30  2  0
 12  7  1  0
 19 14  1  0
 30 20  1  0
 29 23  1  0
  3 31  1  0
  4 32  1  0
  4 33  1  0
  8 34  1  0
  8 35  1  0
  9 36  1  0
  9 37  1  0
 10 38  1  0
 10 39  1  0
 11 40  1  0
 11 41  1  0
 12 42  1  1
 13 43  1  0
 13 44  1  0
 15 45  1  0
 15 46  1  0
 16 47  1  0
 16 48  1  0
 17 49  1  0
 17 50  1  0
 18 51  1  0
 18 52  1  0
 19 53  1  0
 19 54  1  0
 21 55  1  0
 22 56  1  0
 24 57  1  0
 27 58  1  0
 28 59  1  0
M  END
>  <smiles>  (30) 
O=C(NCC(=O)N1CCCC[C@H]1CN1CCCCC1)c1ccc2cc(F)ccc2n1

>  <score_type>  (30) 
oracle

>  <origin>  (30) 
autodockgpu

>  <m_score__min__energy>  (30) 
-8.6999999999999993

>  <m_primary>  (30) 
energy

>  <rmsd>  (30) 
6.474200263067425

>  <m_score__min__rmsd>  (30) 
6.474200263067425

>  <meeko>  (30) 
{"free_energy": -6.62, "intermolecular_energy": -8.41, "internal_energy": -3.43, "cluster_size": 8, "cluster_id": 7, "rank_in_cluster": 1}

>  <energy>  (30) 
-8.12

>  <cluster_rmsd>  (30) 
0.79

>  <cluster>  (30) 
3

$$$$

     RDKit          3D

 59 62  0  0  0  0  0  0  0  0999 V2000
  139.4080   71.4080  220.9720 O   0  0  0  0  0  0  0  0  0  0  0  0
  139.5010   71.9270  222.0910 C   0  0  0  0  0  0  0  0  0  0  0  0
  139.5230   73.3280  222.2240 N   0  0  0  0  0  0  0  0  0  0  0  0
  139.4490   74.2860  221.1540 C   0  0  0  0  0  0  0  0  0  0  0  0
  140.3020   75.4920  221.4250 C   0  0  0  0  0  0  0  0  0  0  0  0
  140.6130   75.8210  222.5830 O   0  0  0  0  0  0  0  0  0  0  0  0
  140.7390   76.2440  220.2720 N   0  0  0  0  0  0  0  0  0  0  0  0
  140.6970   75.6570  218.9290 C   0  0  0  0  0  0  0  0  0  0  0  0
  142.1090   75.8970  218.3630 C   0  0  0  0  0  0  0  0  0  0  0  0
  142.1090   77.4050  218.0950 C   0  0  0  0  0  0  0  0  0  0  0  0
  142.2020   78.0590  219.4250 C   0  0  0  0  0  0  0  0  0  0  0  0
  141.2400   77.5510  220.4760 C   0  0  1  0  0  0  0  0  0  0  0  0
  140.2990   78.6280  220.9040 C   0  0  0  0  0  0  0  0  0  0  0  0
  140.4360   79.1690  222.2170 N   0  0  0  0  0  0  0  0  0  0  0  0
  140.7520   80.6150  222.1440 C   0  0  0  0  0  0  0  0  0  0  0  0
  142.2030   80.9030  222.3960 C   0  0  0  0  0  0  0  0  0  0  0  0
  142.6090   80.5030  223.8100 C   0  0  0  0  0  0  0  0  0  0  0  0
  141.7400   79.3180  224.2200 C   0  0  0  0  0  0  0  0  0  0  0  0
  141.5570   78.5230  222.9160 C   0  0  0  0  0  0  0  0  0  0  0  0
  139.5920   71.1000  223.3150 C   0  0  0  0  0  0  0  0  0  0  0  0
  139.1290   69.8240  223.3910 C   0  0  0  0  0  0  0  0  0  0  0  0
  139.2180   69.0690  224.5410 C   0  0  0  0  0  0  0  0  0  0  0  0
  139.8120   69.6560  225.6590 C   0  0  0  0  0  0  0  0  0  0  0  0
  139.9230   68.9350  226.8290 C   0  0  0  0  0  0  0  0  0  0  0  0
  140.5180   69.5530  227.9170 C   0  0  0  0  0  0  0  0  0  0  0  0
  140.6450   68.8690  229.1000 F   0  0  0  0  0  0  0  0  0  0  0  0
  140.9900   70.8460  227.8410 C   0  0  0  0  0  0  0  0  0  0  0  0
  140.8830   71.5780  226.6720 C   0  0  0  0  0  0  0  0  0  0  0  0
  140.2850   70.9510  225.5890 C   0  0  0  0  0  0  0  0  0  0  0  0
  140.1600   71.6190  224.4310 N   0  0  0  0  0  0  0  0  0  0  0  0
  139.5990   73.7120  223.1990 H   0  0  0  0  0  0  0  0  0  0  0  0
  139.7924   73.8087  220.2244 H   0  0  0  0  0  0  0  0  0  0  0  0
  138.4044   74.6191  221.0650 H   0  0  0  0  0  0  0  0  0  0  0  0
  140.4761   74.5807  218.9812 H   0  0  0  0  0  0  0  0  0  0  0  0
  139.9116   76.1024  218.3006 H   0  0  0  0  0  0  0  0  0  0  0  0
  142.8824   75.6239  219.0959 H   0  0  0  0  0  0  0  0  0  0  0  0
  142.3311   75.2938  217.4704 H   0  0  0  0  0  0  0  0  0  0  0  0
  142.9722   77.6821  217.4720 H   0  0  0  0  0  0  0  0  0  0  0  0
  141.2027   77.7176  217.5557 H   0  0  0  0  0  0  0  0  0  0  0  0
  143.2243   77.9112  219.8033 H   0  0  0  0  0  0  0  0  0  0  0  0
  141.9349   79.1131  219.2594 H   0  0  0  0  0  0  0  0  0  0  0  0
  141.8152   77.3311  221.3875 H   0  0  0  0  0  0  0  0  0  0  0  0
  140.4153   79.4614  220.1956 H   0  0  0  0  0  0  0  0  0  0  0  0
  139.3149   78.1367  220.9163 H   0  0  0  0  0  0  0  0  0  0  0  0
  140.4890   80.9827  221.1412 H   0  0  0  0  0  0  0  0  0  0  0  0
  140.1710   81.1226  222.9281 H   0  0  0  0  0  0  0  0  0  0  0  0
  142.8112   80.3373  221.6749 H   0  0  0  0  0  0  0  0  0  0  0  0
  142.3679   81.9844  222.2799 H   0  0  0  0  0  0  0  0  0  0  0  0
  143.6703   80.2143  223.8283 H   0  0  0  0  0  0  0  0  0  0  0  0
  142.4694   81.3440  224.5052 H   0  0  0  0  0  0  0  0  0  0  0  0
  142.2457   78.7075  224.9826 H   0  0  0  0  0  0  0  0  0  0  0  0
  140.7830   79.6282  224.6649 H   0  0  0  0  0  0  0  0  0  0  0  0
  142.4703   78.5711  222.3048 H   0  0  0  0  0  0  0  0  0  0  0  0
  141.3580   77.4589  223.1109 H   0  0  0  0  0  0  0  0  0  0  0  0
  138.6651   69.3764  222.4997 H   0  0  0  0  0  0  0  0  0  0  0  0
  138.8338   68.0389  224.5761 H   0  0  0  0  0  0  0  0  0  0  0  0
  139.5510   67.9020  226.8965 H   0  0  0  0  0  0  0  0  0  0  0  0
  141.4595   71.3033  228.7245 H   0  0  0  0  0  0  0  0  0  0  0  0
  141.2554   72.6108  226.6045 H   0  0  0  0  0  0  0  0  0  0  0  0
  1  2  2  0
  2  3  1  0
  3  4  1  0
  4  5  1  0
  5  6  2  0
  5  7  1  0
  7  8  1  0
  8  9  1  0
  9 10  1  0
 10 11  1  0
 11 12  1  0
 12 13  1  0
 13 14  1  0
 14 15  1  0
 15 16  1  0
 16 17  1  0
 17 18  1  0
 18 19  1  0
  2 20  1  0
 20 21  2  0
 21 22  1  0
 22 23  2  0
 23 24  1  0
 24 25  2  0
 25 26  1  0
 25 27  1  0
 27 28  2  0
 28 29  1  0
 29 30  2  0
 12  7  1  0
 19 14  1  0
 30 20  1  0
 29 23  1  0
  3 31  1  0
  4 32  1  0
  4 33  1  0
  8 34  1  0
  8 35  1  0
  9 36  1  0
  9 37  1  0
 10 38  1  0
 10 39  1  0
 11 40  1  0
 11 41  1  0
 12 42  1  1
 13 43  1  0
 13 44  1  0
 15 45  1  0
 15 46  1  0
 16 47  1  0
 16 48  1  0
 17 49  1  0
 17 50  1  0
 18 51  1  0
 18 52  1  0
 19 53  1  0
 19 54  1  0
 21 55  1  0
 22 56  1  0
 24 57  1  0
 27 58  1  0
 28 59  1  0
M  END
>  <smiles>  (31) 
O=C(NCC(=O)N1CCCC[C@H]1CN1CCCCC1)c1ccc2cc(F)ccc2n1

>  <score_type>  (31) 
oracle

>  <origin>  (31) 
autodockgpu

>  <m_score__min__energy>  (31) 
-8.6999999999999993

>  <m_primary>  (31) 
energy

>  <rmsd>  (31) 
2.2603527001686157

>  <m_score__min__rmsd>  (31) 
2.2603527001686157

>  <meeko>  (31) 
{"free_energy": -8.25, "intermolecular_energy": -10.03, "internal_energy": -2.06, "cluster_size": 24, "cluster_id": 1, "rank_in_cluster": 17}

>  <energy>  (31) 
-7.33

>  <cluster_rmsd>  (31) 
1.88

>  <cluster>  (31) 
3

$$$$

     RDKit          3D

 59 62  0  0  0  0  0  0  0  0999 V2000
  139.6630   71.2320  220.9100 O   0  0  0  0  0  0  0  0  0  0  0  0
  139.6490   71.7730  222.0220 C   0  0  0  0  0  0  0  0  0  0  0  0
  139.6240   73.1770  222.1280 N   0  0  0  0  0  0  0  0  0  0  0  0
  139.6160   74.1130  221.0370 C   0  0  0  0  0  0  0  0  0  0  0  0
  139.6890   75.5330  221.5200 C   0  0  0  0  0  0  0  0  0  0  0  0
  139.7640   75.8050  222.7300 O   0  0  0  0  0  0  0  0  0  0  0  0
  139.6670   76.5600  220.5040 N   0  0  0  0  0  0  0  0  0  0  0  0
  138.3990   77.0920  219.9950 C   0  0  0  0  0  0  0  0  0  0  0  0
  138.5300   76.9930  218.4640 C   0  0  0  0  0  0  0  0  0  0  0  0
  139.5380   78.1000  218.1430 C   0  0  0  0  0  0  0  0  0  0  0  0
  140.8600   77.5960  218.5910 C   0  0  0  0  0  0  0  0  0  0  0  0
  140.9040   77.0160  219.9880 C   0  0  1  0  0  0  0  0  0  0  0  0
  141.8050   77.8150  220.8700 C   0  0  0  0  0  0  0  0  0  0  0  0
  141.2320   78.8480  221.6690 N   0  0  0  0  0  0  0  0  0  0  0  0
  141.9420   80.1280  221.4360 C   0  0  0  0  0  0  0  0  0  0  0  0
  142.8990   80.4670  222.5420 C   0  0  0  0  0  0  0  0  0  0  0  0
  142.1670   80.6820  223.8610 C   0  0  0  0  0  0  0  0  0  0  0  0
  140.9290   79.7900  223.8510 C   0  0  0  0  0  0  0  0  0  0  0  0
  141.3860   78.5300  223.0960 C   0  0  0  0  0  0  0  0  0  0  0  0
  139.6570   70.9720  223.2660 C   0  0  0  0  0  0  0  0  0  0  0  0
  139.1920   69.6960  223.3350 C   0  0  0  0  0  0  0  0  0  0  0  0
  139.2040   68.9640  224.5040 C   0  0  0  0  0  0  0  0  0  0  0  0
  139.7180   69.5750  225.6470 C   0  0  0  0  0  0  0  0  0  0  0  0
  139.7500   68.8780  226.8370 C   0  0  0  0  0  0  0  0  0  0  0  0
  140.2690   69.5190  227.9510 C   0  0  0  0  0  0  0  0  0  0  0  0
  140.3160   68.8590  229.1530 F   0  0  0  0  0  0  0  0  0  0  0  0
  140.7430   70.8120  227.8810 C   0  0  0  0  0  0  0  0  0  0  0  0
  140.7150   71.5200  226.6920 C   0  0  0  0  0  0  0  0  0  0  0  0
  140.1930   70.8700  225.5840 C   0  0  0  0  0  0  0  0  0  0  0  0
  140.1460   71.5140  224.4080 N   0  0  0  0  0  0  0  0  0  0  0  0
  139.6090   73.5800  223.0980 H   0  0  0  0  0  0  0  0  0  0  0  0
  140.4821   73.9122  220.3893 H   0  0  0  0  0  0  0  0  0  0  0  0
  138.6725   73.9874  220.4857 H   0  0  0  0  0  0  0  0  0  0  0  0
  137.5518   76.4886  220.3531 H   0  0  0  0  0  0  0  0  0  0  0  0
  138.2094   78.1211  220.3342 H   0  0  0  0  0  0  0  0  0  0  0  0
  138.9128   76.0073  218.1611 H   0  0  0  0  0  0  0  0  0  0  0  0
  137.5724   77.1061  217.9346 H   0  0  0  0  0  0  0  0  0  0  0  0
  139.5526   78.3010  217.0616 H   0  0  0  0  0  0  0  0  0  0  0  0
  139.2750   79.0414  218.6476 H   0  0  0  0  0  0  0  0  0  0  0  0
  141.1774   76.8107  217.8892 H   0  0  0  0  0  0  0  0  0  0  0  0
  141.5236   78.4731  218.6103 H   0  0  0  0  0  0  0  0  0  0  0  0
  141.3967   76.0339  219.9350 H   0  0  0  0  0  0  0  0  0  0  0  0
  142.2980   77.1098  221.5552 H   0  0  0  0  0  0  0  0  0  0  0  0
  142.4637   78.3495  220.1697 H   0  0  0  0  0  0  0  0  0  0  0  0
  142.5049   80.0522  220.4940 H   0  0  0  0  0  0  0  0  0  0  0  0
  141.1857   80.9256  221.3937 H   0  0  0  0  0  0  0  0  0  0  0  0
  143.6163   79.6416  222.6607 H   0  0  0  0  0  0  0  0  0  0  0  0
  143.4190   81.3995  222.2775 H   0  0  0  0  0  0  0  0  0  0  0  0
  142.8206   80.4074  224.7020 H   0  0  0  0  0  0  0  0  0  0  0  0
  141.8819   81.7380  223.9775 H   0  0  0  0  0  0  0  0  0  0  0  0
  140.6182   79.5406  224.8763 H   0  0  0  0  0  0  0  0  0  0  0  0
  140.0610   80.2748  223.3803 H   0  0  0  0  0  0  0  0  0  0  0  0
  142.4371   78.3033  223.3278 H   0  0  0  0  0  0  0  0  0  0  0  0
  140.7963   77.6468  223.3826 H   0  0  0  0  0  0  0  0  0  0  0  0
  138.7907   69.2295  222.4232 H   0  0  0  0  0  0  0  0  0  0  0  0
  138.8211   67.9332  224.5335 H   0  0  0  0  0  0  0  0  0  0  0  0
  139.3753   67.8457  226.8999 H   0  0  0  0  0  0  0  0  0  0  0  0
  141.1501   71.2886  228.7849 H   0  0  0  0  0  0  0  0  0  0  0  0
  141.0901   72.5521  226.6289 H   0  0  0  0  0  0  0  0  0  0  0  0
  1  2  2  0
  2  3  1  0
  3  4  1  0
  4  5  1  0
  5  6  2  0
  5  7  1  0
  7  8  1  0
  8  9  1  0
  9 10  1  0
 10 11  1  0
 11 12  1  0
 12 13  1  0
 13 14  1  0
 14 15  1  0
 15 16  1  0
 16 17  1  0
 17 18  1  0
 18 19  1  0
  2 20  1  0
 20 21  2  0
 21 22  1  0
 22 23  2  0
 23 24  1  0
 24 25  2  0
 25 26  1  0
 25 27  1  0
 27 28  2  0
 28 29  1  0
 29 30  2  0
 12  7  1  0
 19 14  1  0
 30 20  1  0
 29 23  1  0
  3 31  1  0
  4 32  1  0
  4 33  1  0
  8 34  1  0
  8 35  1  0
  9 36  1  0
  9 37  1  0
 10 38  1  0
 10 39  1  0
 11 40  1  0
 11 41  1  0
 12 42  1  6
 13 43  1  0
 13 44  1  0
 15 45  1  0
 15 46  1  0
 16 47  1  0
 16 48  1  0
 17 49  1  0
 17 50  1  0
 18 51  1  0
 18 52  1  0
 19 53  1  0
 19 54  1  0
 21 55  1  0
 22 56  1  0
 24 57  1  0
 27 58  1  0
 28 59  1  0
M  END
>  <smiles>  (32) 
O=C(NCC(=O)N1CCCC[C@H]1CN1CCCCC1)c1ccc2cc(F)ccc2n1

>  <score_type>  (32) 
oracle

>  <origin>  (32) 
autodockgpu

>  <m_score__min__energy>  (32) 
-8.6999999999999993

>  <m_primary>  (32) 
energy

>  <rmsd>  (32) 
2.2469492026548386

>  <m_score__min__rmsd>  (32) 
2.2469492026548386

>  <meeko>  (32) 
{"free_energy": -7.8, "intermolecular_energy": -9.59, "internal_energy": -2.26, "cluster_size": 24, "cluster_id": 1, "rank_in_cluster": 23}

>  <energy>  (32) 
-8.31

>  <cluster_rmsd>  (32) 
0.0

>  <cluster>  (32) 
4

$$$$

     RDKit          3D

 59 62  0  0  0  0  0  0  0  0999 V2000
  137.2560   71.5720  222.8390 O   0  0  0  0  0  0  0  0  0  0  0  0
  138.4480   71.5280  223.1660 C   0  0  0  0  0  0  0  0  0  0  0  0
  139.3790   72.4040  222.5750 N   0  0  0  0  0  0  0  0  0  0  0  0
  139.0960   73.3980  221.5750 C   0  0  0  0  0  0  0  0  0  0  0  0
  139.8510   74.6720  221.8270 C   0  0  0  0  0  0  0  0  0  0  0  0
  141.0810   74.6740  222.0060 O   0  0  0  0  0  0  0  0  0  0  0  0
  139.0720   75.8890  221.8470 N   0  0  0  0  0  0  0  0  0  0  0  0
  137.9100   76.0260  222.7300 C   0  0  0  0  0  0  0  0  0  0  0  0
  136.7800   76.5110  221.8030 C   0  0  0  0  0  0  0  0  0  0  0  0
  137.1840   77.9590  221.5140 C   0  0  0  0  0  0  0  0  0  0  0  0
  138.3320   77.8870  220.5760 C   0  0  0  0  0  0  0  0  0  0  0  0
  139.4400   76.9330  220.9660 C   0  0  1  0  0  0  0  0  0  0  0  0
  140.7170   77.6680  221.2100 C   0  0  0  0  0  0  0  0  0  0  0  0
  140.6510   78.9680  221.7950 N   0  0  0  0  0  0  0  0  0  0  0  0
  141.8900   79.7250  221.5000 C   0  0  0  0  0  0  0  0  0  0  0  0
  142.8310   79.7740  222.6680 C   0  0  0  0  0  0  0  0  0  0  0  0
  142.2110   80.5170  223.8460 C   0  0  0  0  0  0  0  0  0  0  0  0
  140.7020   80.2980  223.7860 C   0  0  0  0  0  0  0  0  0  0  0  0
  140.5570   78.8600  223.2580 C   0  0  0  0  0  0  0  0  0  0  0  0
  138.9310   70.5650  224.1800 C   0  0  0  0  0  0  0  0  0  0  0  0
  138.7870   69.2180  224.0590 C   0  0  0  0  0  0  0  0  0  0  0  0
  139.2390   68.3350  225.0170 C   0  0  0  0  0  0  0  0  0  0  0  0
  139.8680   68.8640  226.1430 C   0  0  0  0  0  0  0  0  0  0  0  0
  140.3370   68.0160  227.1240 C   0  0  0  0  0  0  0  0  0  0  0  0
  140.9560   68.5790  228.2280 C   0  0  0  0  0  0  0  0  0  0  0  0
  141.4340   67.7680  229.2260 F   0  0  0  0  0  0  0  0  0  0  0  0
  141.1040   69.9450  228.3510 C   0  0  0  0  0  0  0  0  0  0  0  0
  140.6370   70.8050  227.3730 C   0  0  0  0  0  0  0  0  0  0  0  0
  140.0180   70.2300  226.2720 C   0  0  0  0  0  0  0  0  0  0  0  0
  139.5500   71.0230  225.2960 N   0  0  0  0  0  0  0  0  0  0  0  0
  140.3760   72.3250  222.8950 H   0  0  0  0  0  0  0  0  0  0  0  0
  139.3825   73.0032  220.5891 H   0  0  0  0  0  0  0  0  0  0  0  0
  138.0202   73.6245  221.6122 H   0  0  0  0  0  0  0  0  0  0  0  0
  137.6514   75.0589  223.1860 H   0  0  0  0  0  0  0  0  0  0  0  0
  138.0958   76.7198  223.5632 H   0  0  0  0  0  0  0  0  0  0  0  0
  136.7427   75.9169  220.8780 H   0  0  0  0  0  0  0  0  0  0  0  0
  135.7783   76.4165  222.2476 H   0  0  0  0  0  0  0  0  0  0  0  0
  136.3474   78.5038  221.0522 H   0  0  0  0  0  0  0  0  0  0  0  0
  137.4526   78.4931  222.4374 H   0  0  0  0  0  0  0  0  0  0  0  0
  137.9470   77.5743  219.5942 H   0  0  0  0  0  0  0  0  0  0  0  0
  138.7849   78.8895  220.5793 H   0  0  0  0  0  0  0  0  0  0  0  0
  139.6661   76.2994  220.0957 H   0  0  0  0  0  0  0  0  0  0  0  0
  141.3300   77.0426  221.8757 H   0  0  0  0  0  0  0  0  0  0  0  0
  141.1236   77.8449  220.2033 H   0  0  0  0  0  0  0  0  0  0  0  0
  142.4034   79.2439  220.6545 H   0  0  0  0  0  0  0  0  0  0  0  0
  141.5991   80.7593  221.2642 H   0  0  0  0  0  0  0  0  0  0  0  0
  143.0711   78.7464  222.9784 H   0  0  0  0  0  0  0  0  0  0  0  0
  143.7411   80.3091  222.3593 H   0  0  0  0  0  0  0  0  0  0  0  0
  142.6103   80.1212  224.7914 H   0  0  0  0  0  0  0  0  0  0  0  0
  142.4483   81.5899  223.7946 H   0  0  0  0  0  0  0  0  0  0  0  0
  140.2525   80.3951  224.7852 H   0  0  0  0  0  0  0  0  0  0  0  0
  140.1913   81.0365  223.1506 H   0  0  0  0  0  0  0  0  0  0  0  0
  141.3643   78.2235  223.6492 H   0  0  0  0  0  0  0  0  0  0  0  0
  139.6075   78.4030  223.5735 H   0  0  0  0  0  0  0  0  0  0  0  0
  138.2910   68.8175  223.1626 H   0  0  0  0  0  0  0  0  0  0  0  0
  139.1076   67.2495  224.8967 H   0  0  0  0  0  0  0  0  0  0  0  0
  140.2231   66.9257  227.0327 H   0  0  0  0  0  0  0  0  0  0  0  0
  141.6015   70.3573  229.2413 H   0  0  0  0  0  0  0  0  0  0  0  0
  140.7512   71.8953  227.4640 H   0  0  0  0  0  0  0  0  0  0  0  0
  1  2  2  0
  2  3  1  0
  3  4  1  0
  4  5  1  0
  5  6  2  0
  5  7  1  0
  7  8  1  0
  8  9  1  0
  9 10  1  0
 10 11  1  0
 11 12  1  0
 12 13  1  0
 13 14  1  0
 14 15  1  0
 15 16  1  0
 16 17  1  0
 17 18  1  0
 18 19  1  0
  2 20  1  0
 20 21  2  0
 21 22  1  0
 22 23  2  0
 23 24  1  0
 24 25  2  0
 25 26  1  0
 25 27  1  0
 27 28  2  0
 28 29  1  0
 29 30  2  0
 12  7  1  0
 19 14  1  0
 30 20  1  0
 29 23  1  0
  3 31  1  0
  4 32  1  0
  4 33  1  0
  8 34  1  0
  8 35  1  0
  9 36  1  0
  9 37  1  0
 10 38  1  0
 10 39  1  0
 11 40  1  0
 11 41  1  0
 12 42  1  6
 13 43  1  0
 13 44  1  0
 15 45  1  0
 15 46  1  0
 16 47  1  0
 16 48  1  0
 17 49  1  0
 17 50  1  0
 18 51  1  0
 18 52  1  0
 19 53  1  0
 19 54  1  0
 21 55  1  0
 22 56  1  0
 24 57  1  0
 27 58  1  0
 28 59  1  0
M  END
>  <smiles>  (33) 
O=C(NCC(=O)N1CCCC[C@H]1CN1CCCCC1)c1ccc2cc(F)ccc2n1

>  <score_type>  (33) 
oracle

>  <origin>  (33) 
autodockgpu

>  <m_score__min__energy>  (33) 
-8.6999999999999993

>  <m_primary>  (33) 
energy

>  <rmsd>  (33) 
2.907873373006413

>  <m_score__min__rmsd>  (33) 
2.907873373006413

>  <meeko>  (33) 
{"free_energy": -7.94, "intermolecular_energy": -9.73, "internal_energy": -1.72, "cluster_size": 24, "cluster_id": 1, "rank_in_cluster": 20}

>  <energy>  (33) 
-8.29

>  <cluster_rmsd>  (33) 
0.15

>  <cluster>  (33) 
4

$$$$

     RDKit          3D

 59 62  0  0  0  0  0  0  0  0999 V2000
  139.7320   71.6230  220.9650 O   0  0  0  0  0  0  0  0  0  0  0  0
  139.7120   72.1080  222.1020 C   0  0  0  0  0  0  0  0  0  0  0  0
  139.6050   73.5010  222.2780 N   0  0  0  0  0  0  0  0  0  0  0  0
  139.5150   74.4860  221.2340 C   0  0  0  0  0  0  0  0  0  0  0  0
  140.3240   75.7110  221.5520 C   0  0  0  0  0  0  0  0  0  0  0  0
  140.3350   76.2050  222.6930 O   0  0  0  0  0  0  0  0  0  0  0  0
  141.0850   76.2800  220.4640 N   0  0  0  0  0  0  0  0  0  0  0  0
  141.8760   77.5000  220.6540 C   0  0  0  0  0  0  0  0  0  0  0  0
  141.4420   78.4200  219.4980 C   0  0  0  0  0  0  0  0  0  0  0  0
  142.0930   77.7550  218.2810 C   0  0  0  0  0  0  0  0  0  0  0  0
  141.2990   76.5320  218.0060 C   0  0  0  0  0  0  0  0  0  0  0  0
  141.0210   75.6460  219.2010 C   0  0  1  0  0  0  0  0  0  0  0  0
  141.6540   74.3050  219.0300 C   0  0  0  0  0  0  0  0  0  0  0  0
  142.3760   73.7510  220.1290 N   0  0  0  0  0  0  0  0  0  0  0  0
  143.5620   74.5860  220.4360 C   0  0  0  0  0  0  0  0  0  0  0  0
  144.8380   73.9890  219.9190 C   0  0  0  0  0  0  0  0  0  0  0  0
  145.1380   72.6550  220.5930 C   0  0  0  0  0  0  0  0  0  0  0  0
  143.8020   72.0060  220.9420 C   0  0  0  0  0  0  0  0  0  0  0  0
  142.8770   72.4130  219.7820 C   0  0  0  0  0  0  0  0  0  0  0  0
  139.7980   71.2500  223.3040 C   0  0  0  0  0  0  0  0  0  0  0  0
  139.4210   69.9430  223.3180 C   0  0  0  0  0  0  0  0  0  0  0  0
  139.5040   69.1590  224.4490 C   0  0  0  0  0  0  0  0  0  0  0  0
  139.9980   69.7470  225.6120 C   0  0  0  0  0  0  0  0  0  0  0  0
  140.0990   68.9970  226.7660 C   0  0  0  0  0  0  0  0  0  0  0  0
  140.5950   69.6170  227.9010 C   0  0  0  0  0  0  0  0  0  0  0  0
  140.7090   68.9050  229.0690 F   0  0  0  0  0  0  0  0  0  0  0  0
  140.9780   70.9420  227.8880 C   0  0  0  0  0  0  0  0  0  0  0  0
  140.8800   71.7030  226.7370 C   0  0  0  0  0  0  0  0  0  0  0  0
  140.3830   71.0730  225.6060 C   0  0  0  0  0  0  0  0  0  0  0  0
  140.2700   71.7690  224.4640 N   0  0  0  0  0  0  0  0  0  0  0  0
  139.5870   73.8560  223.2670 H   0  0  0  0  0  0  0  0  0  0  0  0
  139.8874   74.0467  220.2968 H   0  0  0  0  0  0  0  0  0  0  0  0
  138.4614   74.7873  221.1379 H   0  0  0  0  0  0  0  0  0  0  0  0
  141.6504   77.9630  221.6260 H   0  0  0  0  0  0  0  0  0  0  0  0
  142.9583   77.3035  220.6505 H   0  0  0  0  0  0  0  0  0  0  0  0
  140.3467   78.4441  219.3991 H   0  0  0  0  0  0  0  0  0  0  0  0
  141.7422   79.4691  219.6367 H   0  0  0  0  0  0  0  0  0  0  0  0
  142.0634   78.4322  217.4146 H   0  0  0  0  0  0  0  0  0  0  0  0
  143.1491   77.5138  218.4721 H   0  0  0  0  0  0  0  0  0  0  0  0
  140.3320   76.8447  217.5852 H   0  0  0  0  0  0  0  0  0  0  0  0
  141.9099   75.9265  217.3202 H   0  0  0  0  0  0  0  0  0  0  0  0
  139.9440   75.4229  219.2198 H   0  0  0  0  0  0  0  0  0  0  0  0
  140.8516   73.5963  218.7775 H   0  0  0  0  0  0  0  0  0  0  0  0
  142.4192   74.4636  218.2558 H   0  0  0  0  0  0  0  0  0  0  0  0
  143.4245   75.5758  219.9761 H   0  0  0  0  0  0  0  0  0  0  0  0
  143.6462   74.6552  221.5306 H   0  0  0  0  0  0  0  0  0  0  0  0
  144.7456   73.8298  218.8345 H   0  0  0  0  0  0  0  0  0  0  0  0
  145.6615   74.6835  220.1415 H   0  0  0  0  0  0  0  0  0  0  0  0
  145.7027   72.0064  219.9071 H   0  0  0  0  0  0  0  0  0  0  0  0
  145.7432   72.8064  221.4990 H   0  0  0  0  0  0  0  0  0  0  0  0
  143.9014   70.9119  220.9976 H   0  0  0  0  0  0  0  0  0  0  0  0
  143.4186   72.3263  221.9220 H   0  0  0  0  0  0  0  0  0  0  0  0
  143.4381   72.4460  218.8365 H   0  0  0  0  0  0  0  0  0  0  0  0
  142.0564   71.6937  219.6431 H   0  0  0  0  0  0  0  0  0  0  0  0
  139.0349   69.4942  222.3909 H   0  0  0  0  0  0  0  0  0  0  0  0
  139.1908   68.1046  224.4340 H   0  0  0  0  0  0  0  0  0  0  0  0
  139.7951   67.9400  226.7840 H   0  0  0  0  0  0  0  0  0  0  0  0
  141.3679   71.4013  228.8084 H   0  0  0  0  0  0  0  0  0  0  0  0
  141.1827   72.7604  226.7196 H   0  0  0  0  0  0  0  0  0  0  0  0
  1  2  2  0
  2  3  1  0
  3  4  1  0
  4  5  1  0
  5  6  2  0
  5  7  1  0
  7  8  1  0
  8  9  1  0
  9 10  1  0
 10 11  1  0
 11 12  1  0
 12 13  1  0
 13 14  1  0
 14 15  1  0
 15 16  1  0
 16 17  1  0
 17 18  1  0
 18 19  1  0
  2 20  1  0
 20 21  2  0
 21 22  1  0
 22 23  2  0
 23 24  1  0
 24 25  2  0
 25 26  1  0
 25 27  1  0
 27 28  2  0
 28 29  1  0
 29 30  2  0
 12  7  1  0
 19 14  1  0
 30 20  1  0
 29 23  1  0
  3 31  1  0
  4 32  1  0
  4 33  1  0
  8 34  1  0
  8 35  1  0
  9 36  1  0
  9 37  1  0
 10 38  1  0
 10 39  1  0
 11 40  1  0
 11 41  1  0
 12 42  1  6
 13 43  1  0
 13 44  1  0
 15 45  1  0
 15 46  1  0
 16 47  1  0
 16 48  1  0
 17 49  1  0
 17 50  1  0
 18 51  1  0
 18 52  1  0
 19 53  1  0
 19 54  1  0
 21 55  1  0
 22 56  1  0
 24 57  1  0
 27 58  1  0
 28 59  1  0
M  END
>  <smiles>  (34) 
O=C(NCC(=O)N1CCCC[C@H]1CN1CCCCC1)c1ccc2cc(F)ccc2n1

>  <score_type>  (34) 
oracle

>  <origin>  (34) 
autodockgpu

>  <m_score__min__energy>  (34) 
-8.6999999999999993

>  <m_primary>  (34) 
energy

>  <rmsd>  (34) 
4.386061708510406

>  <m_score__min__rmsd>  (34) 
4.386061708510406

>  <meeko>  (34) 
{"free_energy": -7.33, "intermolecular_energy": -9.12, "internal_energy": -2.45, "cluster_size": 5, "cluster_id": 3, "rank_in_cluster": 5}

>  <energy>  (34) 
-7.95

>  <cluster_rmsd>  (34) 
0.7

>  <cluster>  (34) 
4

$$$$

     RDKit          3D

 59 62  0  0  0  0  0  0  0  0999 V2000
  133.8970   69.0320  226.1810 O   0  0  0  0  0  0  0  0  0  0  0  0
  134.4040   70.0960  225.8040 C   0  0  0  0  0  0  0  0  0  0  0  0
  135.5430   70.0840  224.9760 N   0  0  0  0  0  0  0  0  0  0  0  0
  136.2310   68.9180  224.4910 C   0  0  0  0  0  0  0  0  0  0  0  0
  137.7220   69.0800  224.5640 C   0  0  0  0  0  0  0  0  0  0  0  0
  138.4420   68.2290  225.1130 O   0  0  0  0  0  0  0  0  0  0  0  0
  138.2700   70.2740  223.9630 N   0  0  0  0  0  0  0  0  0  0  0  0
  137.5380   70.9980  222.9190 C   0  0  0  0  0  0  0  0  0  0  0  0
  138.5620   71.1700  221.7820 C   0  0  0  0  0  0  0  0  0  0  0  0
  139.5150   72.2270  222.3500 C   0  0  0  0  0  0  0  0  0  0  0  0
  140.3260   71.5360  223.3840 C   0  0  0  0  0  0  0  0  0  0  0  0
  139.5490   70.7080  224.3840 C   0  0  1  0  0  0  0  0  0  0  0  0
  139.7100   71.2510  225.7660 C   0  0  0  0  0  0  0  0  0  0  0  0
  140.6220   70.6000  226.6490 N   0  0  0  0  0  0  0  0  0  0  0  0
  141.4210   69.5940  225.9100 C   0  0  0  0  0  0  0  0  0  0  0  0
  140.9440   68.1910  226.1460 C   0  0  0  0  0  0  0  0  0  0  0  0
  141.1010   67.7910  227.6080 C   0  0  0  0  0  0  0  0  0  0  0  0
  140.9440   69.0540  228.4500 C   0  0  0  0  0  0  0  0  0  0  0  0
  139.8850   69.8740  227.6940 C   0  0  0  0  0  0  0  0  0  0  0  0
  133.8360   71.4010  226.2050 C   0  0  0  0  0  0  0  0  0  0  0  0
  132.7280   71.5270  226.9850 C   0  0  0  0  0  0  0  0  0  0  0  0
  132.2100   72.7520  227.3460 C   0  0  0  0  0  0  0  0  0  0  0  0
  132.8630   73.8950  226.8840 C   0  0  0  0  0  0  0  0  0  0  0  0
  132.3790   75.1410  227.2240 C   0  0  0  0  0  0  0  0  0  0  0  0
  133.0550   76.2520  226.7470 C   0  0  0  0  0  0  0  0  0  0  0  0
  132.6030   77.5090  227.0610 F   0  0  0  0  0  0  0  0  0  0  0  0
  134.1790   76.1260  225.9570 C   0  0  0  0  0  0  0  0  0  0  0  0
  134.6720   74.8810  225.6110 C   0  0  0  0  0  0  0  0  0  0  0  0
  133.9880   73.7750  226.0930 C   0  0  0  0  0  0  0  0  0  0  0  0
  134.4290   72.5460  225.7860 N   0  0  0  0  0  0  0  0  0  0  0  0
  135.9270   71.0170  224.6840 H   0  0  0  0  0  0  0  0  0  0  0  0
  135.9367   68.0513  225.1011 H   0  0  0  0  0  0  0  0  0  0  0  0
  135.9541   68.7714  223.4366 H   0  0  0  0  0  0  0  0  0  0  0  0
  136.6703   70.4150  222.5765 H   0  0  0  0  0  0  0  0  0  0  0  0
  137.1418   71.9603  223.2754 H   0  0  0  0  0  0  0  0  0  0  0  0
  139.0906   70.2273  221.5773 H   0  0  0  0  0  0  0  0  0  0  0  0
  138.1075   71.4598  220.8231 H   0  0  0  0  0  0  0  0  0  0  0  0
  140.1652   72.6215  221.5553 H   0  0  0  0  0  0  0  0  0  0  0  0
  138.9637   73.0790  222.7744 H   0  0  0  0  0  0  0  0  0  0  0  0
  141.0322   70.8682  222.8688 H   0  0  0  0  0  0  0  0  0  0  0  0
  140.8096   72.3334  223.9673 H   0  0  0  0  0  0  0  0  0  0  0  0
  140.0147   69.7130  224.4387 H   0  0  0  0  0  0  0  0  0  0  0  0
  140.0413   72.2954  225.6685 H   0  0  0  0  0  0  0  0  0  0  0  0
  138.7259   71.0979  226.2329 H   0  0  0  0  0  0  0  0  0  0  0  0
  141.3542   69.8124  224.8340 H   0  0  0  0  0  0  0  0  0  0  0  0
  142.4570   69.6591  226.2738 H   0  0  0  0  0  0  0  0  0  0  0  0
  139.8820   68.1221  225.8678 H   0  0  0  0  0  0  0  0  0  0  0  0
  141.5522   67.5099  225.5326 H   0  0  0  0  0  0  0  0  0  0  0  0
  140.3272   67.0587  227.8819 H   0  0  0  0  0  0  0  0  0  0  0  0
  142.0855   67.3315  227.7798 H   0  0  0  0  0  0  0  0  0  0  0  0
  140.5972   68.8074  229.4643 H   0  0  0  0  0  0  0  0  0  0  0  0
  141.8909   69.5991  228.5773 H   0  0  0  0  0  0  0  0  0  0  0  0
  139.1338   69.2090  227.2430 H   0  0  0  0  0  0  0  0  0  0  0  0
  139.3454   70.5597  228.3638 H   0  0  0  0  0  0  0  0  0  0  0  0
  132.2261   70.6153  227.3413 H   0  0  0  0  0  0  0  0  0  0  0  0
  131.3121   72.8260  227.9770 H   0  0  0  0  0  0  0  0  0  0  0  0
  131.4840   75.2491  227.8543 H   0  0  0  0  0  0  0  0  0  0  0  0
  134.6913   77.0302  225.5965 H   0  0  0  0  0  0  0  0  0  0  0  0
  135.5673   74.7728  224.9811 H   0  0  0  0  0  0  0  0  0  0  0  0
  1  2  2  0
  2  3  1  0
  3  4  1  0
  4  5  1  0
  5  6  2  0
  5  7  1  0
  7  8  1  0
  8  9  1  0
  9 10  1  0
 10 11  1  0
 11 12  1  0
 12 13  1  0
 13 14  1  0
 14 15  1  0
 15 16  1  0
 16 17  1  0
 17 18  1  0
 18 19  1  0
  2 20  1  0
 20 21  2  0
 21 22  1  0
 22 23  2  0
 23 24  1  0
 24 25  2  0
 25 26  1  0
 25 27  1  0
 27 28  2  0
 28 29  1  0
 29 30  2  0
 12  7  1  0
 19 14  1  0
 30 20  1  0
 29 23  1  0
  3 31  1  0
  4 32  1  0
  4 33  1  0
  8 34  1  0
  8 35  1  0
  9 36  1  0
  9 37  1  0
 10 38  1  0
 10 39  1  0
 11 40  1  0
 11 41  1  0
 12 42  1  1
 13 43  1  0
 13 44  1  0
 15 45  1  0
 15 46  1  0
 16 47  1  0
 16 48  1  0
 17 49  1  0
 17 50  1  0
 18 51  1  0
 18 52  1  0
 19 53  1  0
 19 54  1  0
 21 55  1  0
 22 56  1  0
 24 57  1  0
 27 58  1  0
 28 59  1  0
M  END
>  <smiles>  (35) 
O=C(NCC(=O)N1CCCC[C@H]1CN1CCCCC1)c1ccc2cc(F)ccc2n1

>  <score_type>  (35) 
oracle

>  <origin>  (35) 
autodockgpu

>  <m_score__min__energy>  (35) 
-8.6999999999999993

>  <m_primary>  (35) 
energy

>  <rmsd>  (35) 
9.2180471312958

>  <m_score__min__rmsd>  (35) 
9.2180471312958

>  <meeko>  (35) 
{"free_energy": -7.7, "intermolecular_energy": -9.49, "internal_energy": -2.01, "cluster_size": 2, "cluster_id": 6, "rank_in_cluster": 1}

>  <energy>  (35) 
-7.93

>  <cluster_rmsd>  (35) 
0.7

>  <cluster>  (35) 
4

$$$$

     RDKit          3D

 59 62  0  0  0  0  0  0  0  0999 V2000
  138.9970   71.0930  221.0780 O   0  0  0  0  0  0  0  0  0  0  0  0
  139.2080   71.5990  222.1870 C   0  0  0  0  0  0  0  0  0  0  0  0
  139.2750   72.9990  222.3260 N   0  0  0  0  0  0  0  0  0  0  0  0
  139.1220   73.9670  221.2740 C   0  0  0  0  0  0  0  0  0  0  0  0
  140.0060   75.1630  221.4840 C   0  0  0  0  0  0  0  0  0  0  0  0
  139.9720   75.8190  222.5390 O   0  0  0  0  0  0  0  0  0  0  0  0
  140.8940   75.5060  220.3980 N   0  0  0  0  0  0  0  0  0  0  0  0
  141.0860   74.5960  219.2640 C   0  0  0  0  0  0  0  0  0  0  0  0
  142.6150   74.4610  219.1360 C   0  0  0  0  0  0  0  0  0  0  0  0
  143.0240   75.8260  218.5740 C   0  0  0  0  0  0  0  0  0  0  0  0
  142.9000   76.7880  219.6980 C   0  0  0  0  0  0  0  0  0  0  0  0
  141.6020   76.7290  220.4730 C   0  0  1  0  0  0  0  0  0  0  0  0
  140.8460   78.0100  220.3470 C   0  0  0  0  0  0  0  0  0  0  0  0
  140.5840   78.7640  221.5290 N   0  0  0  0  0  0  0  0  0  0  0  0
  140.9440   80.1860  221.3200 C   0  0  0  0  0  0  0  0  0  0  0  0
  142.2530   80.5510  221.9570 C   0  0  0  0  0  0  0  0  0  0  0  0
  142.1910   80.4010  223.4730 C   0  0  0  0  0  0  0  0  0  0  0  0
  141.2070   79.2770  223.7840 C   0  0  0  0  0  0  0  0  0  0  0  0
  141.4160   78.2730  222.6380 C   0  0  0  0  0  0  0  0  0  0  0  0
  139.3950   70.7610  223.3910 C   0  0  0  0  0  0  0  0  0  0  0  0
  139.0160   69.4560  223.4590 C   0  0  0  0  0  0  0  0  0  0  0  0
  139.1940   68.6900  224.5920 C   0  0  0  0  0  0  0  0  0  0  0  0
  139.7900   69.2960  225.6980 C   0  0  0  0  0  0  0  0  0  0  0  0
  139.9880   68.5640  226.8510 C   0  0  0  0  0  0  0  0  0  0  0  0
  140.5830   69.2000  227.9280 C   0  0  0  0  0  0  0  0  0  0  0  0
  140.7960   68.5070  229.0930 F   0  0  0  0  0  0  0  0  0  0  0  0
  140.9700   70.5220  227.8590 C   0  0  0  0  0  0  0  0  0  0  0  0
  140.7750   71.2640  226.7080 C   0  0  0  0  0  0  0  0  0  0  0  0
  140.1780   70.6190  225.6350 C   0  0  0  0  0  0  0  0  0  0  0  0
  139.9690   71.2960  224.4960 N   0  0  0  0  0  0  0  0  0  0  0  0
  139.4520   73.3730  223.2910 H   0  0  0  0  0  0  0  0  0  0  0  0
  139.3830   73.4952  220.3152 H   0  0  0  0  0  0  0  0  0  0  0  0
  138.0768   74.3100  221.2741 H   0  0  0  0  0  0  0  0  0  0  0  0
  140.6245   73.6183  219.4670 H   0  0  0  0  0  0  0  0  0  0  0  0
  140.6195   74.9715  218.3413 H   0  0  0  0  0  0  0  0  0  0  0  0
  143.0811   74.2788  220.1156 H   0  0  0  0  0  0  0  0  0  0  0  0
  142.9288   73.6160  218.5055 H   0  0  0  0  0  0  0  0  0  0  0  0
  144.0621   75.7941  218.2116 H   0  0  0  0  0  0  0  0  0  0  0  0
  142.3894   76.1171  217.7240 H   0  0  0  0  0  0  0  0  0  0  0  0
  143.7227   76.5932  220.4017 H   0  0  0  0  0  0  0  0  0  0  0  0
  142.9306   77.7881  219.2409 H   0  0  0  0  0  0  0  0  0  0  0  0
  141.8473   76.6747  221.5439 H   0  0  0  0  0  0  0  0  0  0  0  0
  141.4178   78.6592  219.6676 H   0  0  0  0  0  0  0  0  0  0  0  0
  139.8496   77.7017  219.9975 H   0  0  0  0  0  0  0  0  0  0  0  0
  141.0134   80.3763  220.2388 H   0  0  0  0  0  0  0  0  0  0  0  0
  140.1622   80.7997  221.7913 H   0  0  0  0  0  0  0  0  0  0  0  0
  143.0398   79.8907  221.5633 H   0  0  0  0  0  0  0  0  0  0  0  0
  142.4736   81.6024  221.7204 H   0  0  0  0  0  0  0  0  0  0  0  0
  143.1866   80.1477  223.8662 H   0  0  0  0  0  0  0  0  0  0  0  0
  141.8652   81.3412  223.9419 H   0  0  0  0  0  0  0  0  0  0  0  0
  141.4356   78.8147  224.7556 H   0  0  0  0  0  0  0  0  0  0  0  0
  140.1677   79.6308  223.8531 H   0  0  0  0  0  0  0  0  0  0  0  0
  142.4747   78.2438  222.3407 H   0  0  0  0  0  0  0  0  0  0  0  0
  141.1384   77.2509  222.9351 H   0  0  0  0  0  0  0  0  0  0  0  0
  138.5497   68.9941  222.5763 H   0  0  0  0  0  0  0  0  0  0  0  0
  138.8768   67.6372  224.6224 H   0  0  0  0  0  0  0  0  0  0  0  0
  139.6830   67.5089  226.9128 H   0  0  0  0  0  0  0  0  0  0  0  0
  141.4415   70.9940  228.7336 H   0  0  0  0  0  0  0  0  0  0  0  0
  141.0799   72.3191  226.6464 H   0  0  0  0  0  0  0  0  0  0  0  0
  1  2  2  0
  2  3  1  0
  3  4  1  0
  4  5  1  0
  5  6  2  0
  5  7  1  0
  7  8  1  0
  8  9  1  0
  9 10  1  0
 10 11  1  0
 11 12  1  0
 12 13  1  0
 13 14  1  0
 14 15  1  0
 15 16  1  0
 16 17  1  0
 17 18  1  0
 18 19  1  0
  2 20  1  0
 20 21  2  0
 21 22  1  0
 22 23  2  0
 23 24  1  0
 24 25  2  0
 25 26  1  0
 25 27  1  0
 27 28  2  0
 28 29  1  0
 29 30  2  0
 12  7  1  0
 19 14  1  0
 30 20  1  0
 29 23  1  0
  3 31  1  0
  4 32  1  0
  4 33  1  0
  8 34  1  0
  8 35  1  0
  9 36  1  0
  9 37  1  0
 10 38  1  0
 10 39  1  0
 11 40  1  0
 11 41  1  0
 12 42  1  1
 13 43  1  0
 13 44  1  0
 15 45  1  0
 15 46  1  0
 16 47  1  0
 16 48  1  0
 17 49  1  0
 17 50  1  0
 18 51  1  0
 18 52  1  0
 19 53  1  0
 19 54  1  0
 21 55  1  0
 22 56  1  0
 24 57  1  0
 27 58  1  0
 28 59  1  0
M  END
>  <smiles>  (36) 
O=C(NCC(=O)N1CCCC[C@H]1CN1CCCCC1)c1ccc2cc(F)ccc2n1

>  <score_type>  (36) 
oracle

>  <origin>  (36) 
autodockgpu

>  <m_score__min__energy>  (36) 
-8.6999999999999993

>  <m_primary>  (36) 
energy

>  <rmsd>  (36) 
2.2678124168481566

>  <m_score__min__rmsd>  (36) 
2.2678124168481566

>  <meeko>  (36) 
{"free_energy": -8.44, "intermolecular_energy": -10.23, "internal_energy": -1.93, "cluster_size": 24, "cluster_id": 1, "rank_in_cluster": 8}

>  <energy>  (36) 
-7.66

>  <cluster_rmsd>  (36) 
0.8

>  <cluster>  (36) 
4

$$$$

     RDKit          3D

 59 62  0  0  0  0  0  0  0  0999 V2000
  140.7190   73.1480  222.1940 O   0  0  0  0  0  0  0  0  0  0  0  0
  139.7150   72.6650  222.7320 C   0  0  0  0  0  0  0  0  0  0  0  0
  138.4320   73.1300  222.3860 N   0  0  0  0  0  0  0  0  0  0  0  0
  138.1290   74.1600  221.4300 C   0  0  0  0  0  0  0  0  0  0  0  0
  138.5690   75.5140  221.9110 C   0  0  0  0  0  0  0  0  0  0  0  0
  138.1460   75.9930  222.9770 O   0  0  0  0  0  0  0  0  0  0  0  0
  139.5060   76.2220  221.0700 N   0  0  0  0  0  0  0  0  0  0  0  0
  139.1130   76.7050  219.7430 C   0  0  0  0  0  0  0  0  0  0  0  0
  140.2160   76.1810  218.8040 C   0  0  0  0  0  0  0  0  0  0  0  0
  141.4120   77.0660  219.1680 C   0  0  0  0  0  0  0  0  0  0  0  0
  141.8900   76.5880  220.4890 C   0  0  0  0  0  0  0  0  0  0  0  0
  140.8240   76.4090  221.5490 C   0  0  1  0  0  0  0  0  0  0  0  0
  141.0530   77.3350  222.6970 C   0  0  0  0  0  0  0  0  0  0  0  0
  140.8650   78.7340  222.4900 N   0  0  0  0  0  0  0  0  0  0  0  0
  142.1420   79.3670  222.0850 C   0  0  0  0  0  0  0  0  0  0  0  0
  142.8000   80.1130  223.2090 C   0  0  0  0  0  0  0  0  0  0  0  0
  141.9370   81.2790  223.6790 C   0  0  0  0  0  0  0  0  0  0  0  0
  140.4790   80.8910  223.4560 C   0  0  0  0  0  0  0  0  0  0  0  0
  140.4480   79.3810  223.7430 C   0  0  0  0  0  0  0  0  0  0  0  0
  139.8280   71.5940  223.7460 C   0  0  0  0  0  0  0  0  0  0  0  0
  139.4640   70.3040  223.5150 C   0  0  0  0  0  0  0  0  0  0  0  0
  139.5720   69.3190  224.4740 C   0  0  0  0  0  0  0  0  0  0  0  0
  140.0790   69.6810  225.7220 C   0  0  0  0  0  0  0  0  0  0  0  0
  140.2050   68.7260  226.7090 C   0  0  0  0  0  0  0  0  0  0  0  0
  140.7130   69.1230  227.9350 C   0  0  0  0  0  0  0  0  0  0  0  0
  140.8520   68.2030  228.9430 F   0  0  0  0  0  0  0  0  0  0  0  0
  141.0840   70.4300  228.1710 C   0  0  0  0  0  0  0  0  0  0  0  0
  140.9610   71.3960  227.1870 C   0  0  0  0  0  0  0  0  0  0  0  0
  140.4510   70.9880  225.9640 C   0  0  0  0  0  0  0  0  0  0  0  0
  140.3140   71.8870  224.9770 N   0  0  0  0  0  0  0  0  0  0  0  0
  137.6170   72.6800  222.8710 H   0  0  0  0  0  0  0  0  0  0  0  0
  138.6452   73.9324  220.4856 H   0  0  0  0  0  0  0  0  0  0  0  0
  137.0385   74.1850  221.2881 H   0  0  0  0  0  0  0  0  0  0  0  0
  138.1317   76.2993  219.4557 H   0  0  0  0  0  0  0  0  0  0  0  0
  139.0159   77.8001  219.7066 H   0  0  0  0  0  0  0  0  0  0  0  0
  140.4328   75.1204  218.9990 H   0  0  0  0  0  0  0  0  0  0  0  0
  139.9438   76.2291  217.7393 H   0  0  0  0  0  0  0  0  0  0  0  0
  142.2066   76.9631  218.4143 H   0  0  0  0  0  0  0  0  0  0  0  0
  141.1300   78.1287  219.2029 H   0  0  0  0  0  0  0  0  0  0  0  0
  142.3829   75.6162  220.3383 H   0  0  0  0  0  0  0  0  0  0  0  0
  142.5592   77.3746  220.8676 H   0  0  0  0  0  0  0  0  0  0  0  0
  140.9460   75.4100  221.9931 H   0  0  0  0  0  0  0  0  0  0  0  0
  140.3675   77.0306  223.5017 H   0  0  0  0  0  0  0  0  0  0  0  0
  142.1270   77.2363  222.9131 H   0  0  0  0  0  0  0  0  0  0  0  0
  142.8282   78.5822  221.7341 H   0  0  0  0  0  0  0  0  0  0  0  0
  141.9157   80.0938  221.2910 H   0  0  0  0  0  0  0  0  0  0  0  0
  142.9608   79.4237  224.0511 H   0  0  0  0  0  0  0  0  0  0  0  0
  143.7581   80.5137  222.8463 H   0  0  0  0  0  0  0  0  0  0  0  0
  142.1151   81.4710  224.7474 H   0  0  0  0  0  0  0  0  0  0  0  0
  142.1840   82.1933  223.1195 H   0  0  0  0  0  0  0  0  0  0  0  0
  139.8195   81.4343  224.1487 H   0  0  0  0  0  0  0  0  0  0  0  0
  140.1255   81.1369  222.4438 H   0  0  0  0  0  0  0  0  0  0  0  0
  141.1453   79.1298  224.5559 H   0  0  0  0  0  0  0  0  0  0  0  0
  139.4498   79.0468  224.0622 H   0  0  0  0  0  0  0  0  0  0  0  0
  139.0680   70.0360  222.5244 H   0  0  0  0  0  0  0  0  0  0  0  0
  139.2687   68.2831  224.2620 H   0  0  0  0  0  0  0  0  0  0  0  0
  139.9112   67.6815  226.5282 H   0  0  0  0  0  0  0  0  0  0  0  0
  141.4840   70.7095  229.1568 H   0  0  0  0  0  0  0  0  0  0  0  0
  141.2548   72.4406  227.3674 H   0  0  0  0  0  0  0  0  0  0  0  0
  1  2  2  0
  2  3  1  0
  3  4  1  0
  4  5  1  0
  5  6  2  0
  5  7  1  0
  7  8  1  0
  8  9  1  0
  9 10  1  0
 10 11  1  0
 11 12  1  0
 12 13  1  0
 13 14  1  0
 14 15  1  0
 15 16  1  0
 16 17  1  0
 17 18  1  0
 18 19  1  0
  2 20  1  0
 20 21  2  0
 21 22  1  0
 22 23  2  0
 23 24  1  0
 24 25  2  0
 25 26  1  0
 25 27  1  0
 27 28  2  0
 28 29  1  0
 29 30  2  0
 12  7  1  0
 19 14  1  0
 30 20  1  0
 29 23  1  0
  3 31  1  0
  4 32  1  0
  4 33  1  0
  8 34  1  0
  8 35  1  0
  9 36  1  0
  9 37  1  0
 10 38  1  0
 10 39  1  0
 11 40  1  0
 11 41  1  0
 12 42  1  1
 13 43  1  0
 13 44  1  0
 15 45  1  0
 15 46  1  0
 16 47  1  0
 16 48  1  0
 17 49  1  0
 17 50  1  0
 18 51  1  0
 18 52  1  0
 19 53  1  0
 19 54  1  0
 21 55  1  0
 22 56  1  0
 24 57  1  0
 27 58  1  0
 28 59  1  0
M  END
>  <smiles>  (37) 
O=C(NCC(=O)N1CCCC[C@H]1CN1CCCCC1)c1ccc2cc(F)ccc2n1

>  <score_type>  (37) 
oracle

>  <origin>  (37) 
autodockgpu

>  <m_score__min__energy>  (37) 
-8.6999999999999993

>  <m_primary>  (37) 
energy

>  <rmsd>  (37) 
2.2400004302979344

>  <m_score__min__rmsd>  (37) 
2.2400004302979344

>  <meeko>  (37) 
{"free_energy": -8.48, "intermolecular_energy": -10.27, "internal_energy": -1.64, "cluster_size": 24, "cluster_id": 1, "rank_in_cluster": 7}

>  <energy>  (37) 
-8.07

>  <cluster_rmsd>  (37) 
0.0

>  <cluster>  (37) 
5

$$$$

     RDKit          3D

 59 62  0  0  0  0  0  0  0  0999 V2000
  141.1770   71.7190  221.0730 O   0  0  0  0  0  0  0  0  0  0  0  0
  140.6430   72.2460  222.0560 C   0  0  0  0  0  0  0  0  0  0  0  0
  140.3550   73.6250  222.0520 N   0  0  0  0  0  0  0  0  0  0  0  0
  140.6260   74.5480  220.9840 C   0  0  0  0  0  0  0  0  0  0  0  0
  140.9660   75.9160  221.5020 C   0  0  0  0  0  0  0  0  0  0  0  0
  140.7040   76.2520  222.6700 O   0  0  0  0  0  0  0  0  0  0  0  0
  141.6120   76.8140  220.5730 N   0  0  0  0  0  0  0  0  0  0  0  0
  141.4430   78.2660  220.6860 C   0  0  0  0  0  0  0  0  0  0  0  0
  141.0310   78.7150  219.2720 C   0  0  0  0  0  0  0  0  0  0  0  0
  142.3340   78.5650  218.4820 C   0  0  0  0  0  0  0  0  0  0  0  0
  142.5340   77.1070  218.2880 C   0  0  0  0  0  0  0  0  0  0  0  0
  142.3850   76.2530  219.5280 C   0  0  1  0  0  0  0  0  0  0  0  0
  143.6700   75.5720  219.8650 C   0  0  0  0  0  0  0  0  0  0  0  0
  143.6430   74.1750  220.1530 N   0  0  0  0  0  0  0  0  0  0  0  0
  144.8550   73.7850  220.9110 C   0  0  0  0  0  0  0  0  0  0  0  0
  145.8780   73.0980  220.0540 C   0  0  0  0  0  0  0  0  0  0  0  0
  145.3430   71.7810  219.5030 C   0  0  0  0  0  0  0  0  0  0  0  0
  143.8350   71.9330  219.3310 C   0  0  0  0  0  0  0  0  0  0  0  0
  143.6560   73.4000  218.9040 C   0  0  0  0  0  0  0  0  0  0  0  0
  140.2930   71.4550  223.2560 C   0  0  0  0  0  0  0  0  0  0  0  0
  139.5630   70.3080  223.2070 C   0  0  0  0  0  0  0  0  0  0  0  0
  139.2420   69.5850  224.3370 C   0  0  0  0  0  0  0  0  0  0  0  0
  139.6930   70.0650  225.5650 C   0  0  0  0  0  0  0  0  0  0  0  0
  139.3950   69.3710  226.7200 C   0  0  0  0  0  0  0  0  0  0  0  0
  139.8610   69.8800  227.9210 C   0  0  0  0  0  0  0  0  0  0  0  0
  139.5840   69.2190  229.0910 F   0  0  0  0  0  0  0  0  0  0  0  0
  140.6020   71.0420  227.9710 C   0  0  0  0  0  0  0  0  0  0  0  0
  140.9060   71.7460  226.8190 C   0  0  0  0  0  0  0  0  0  0  0  0
  140.4340   71.2280  225.6220 C   0  0  0  0  0  0  0  0  0  0  0  0
  140.7050   71.8740  224.4770 N   0  0  0  0  0  0  0  0  0  0  0  0
  139.8980   74.0170  222.9130 H   0  0  0  0  0  0  0  0  0  0  0  0
  141.4735   74.1701  220.3933 H   0  0  0  0  0  0  0  0  0  0  0  0
  139.7197   74.6318  220.3663 H   0  0  0  0  0  0  0  0  0  0  0  0
  140.6577   78.5108  221.4163 H   0  0  0  0  0  0  0  0  0  0  0  0
  142.3569   78.7684  221.0357 H   0  0  0  0  0  0  0  0  0  0  0  0
  140.2419   78.0666  218.8635 H   0  0  0  0  0  0  0  0  0  0  0  0
  140.6141   79.7324  219.2398 H   0  0  0  0  0  0  0  0  0  0  0  0
  142.2507   79.0714  217.5091 H   0  0  0  0  0  0  0  0  0  0  0  0
  143.1817   79.0187  219.0163 H   0  0  0  0  0  0  0  0  0  0  0  0
  141.7971   76.7604  217.5485 H   0  0  0  0  0  0  0  0  0  0  0  0
  143.5792   76.9882  217.9663 H   0  0  0  0  0  0  0  0  0  0  0  0
  141.7044   75.4221  219.2903 H   0  0  0  0  0  0  0  0  0  0  0  0
  144.3474   75.7147  219.0102 H   0  0  0  0  0  0  0  0  0  0  0  0
  143.9819   76.0370  220.8118 H   0  0  0  0  0  0  0  0  0  0  0  0
  145.3074   74.6905  221.3415 H   0  0  0  0  0  0  0  0  0  0  0  0
  144.5445   73.0749  221.6916 H   0  0  0  0  0  0  0  0  0  0  0  0
  146.1428   73.7569  219.2139 H   0  0  0  0  0  0  0  0  0  0  0  0
  146.7618   72.8827  220.6726 H   0  0  0  0  0  0  0  0  0  0  0  0
  145.8114   71.5625  218.5320 H   0  0  0  0  0  0  0  0  0  0  0  0
  145.5724   70.9528  220.1896 H   0  0  0  0  0  0  0  0  0  0  0  0
  143.4592   71.2509  218.5541 H   0  0  0  0  0  0  0  0  0  0  0  0
  143.2772   71.6871  220.2466 H   0  0  0  0  0  0  0  0  0  0  0  0
  144.4914   73.7183  218.2630 H   0  0  0  0  0  0  0  0  0  0  0  0
  142.7327   73.5460  218.3241 H   0  0  0  0  0  0  0  0  0  0  0  0
  139.2156   69.9433  222.2291 H   0  0  0  0  0  0  0  0  0  0  0  0
  138.6498   68.6604  224.2710 H   0  0  0  0  0  0  0  0  0  0  0  0
  138.8058   68.4426  226.6879 H   0  0  0  0  0  0  0  0  0  0  0  0
  140.9573   71.4155  228.9427 H   0  0  0  0  0  0  0  0  0  0  0  0
  141.4953   72.6743  226.8511 H   0  0  0  0  0  0  0  0  0  0  0  0
  1  2  2  0
  2  3  1  0
  3  4  1  0
  4  5  1  0
  5  6  2  0
  5  7  1  0
  7  8  1  0
  8  9  1  0
  9 10  1  0
 10 11  1  0
 11 12  1  0
 12 13  1  0
 13 14  1  0
 14 15  1  0
 15 16  1  0
 16 17  1  0
 17 18  1  0
 18 19  1  0
  2 20  1  0
 20 21  2  0
 21 22  1  0
 22 23  2  0
 23 24  1  0
 24 25  2  0
 25 26  1  0
 25 27  1  0
 27 28  2  0
 28 29  1  0
 29 30  2  0
 12  7  1  0
 19 14  1  0
 30 20  1  0
 29 23  1  0
  3 31  1  0
  4 32  1  0
  4 33  1  0
  8 34  1  0
  8 35  1  0
  9 36  1  0
  9 37  1  0
 10 38  1  0
 10 39  1  0
 11 40  1  0
 11 41  1  0
 12 42  1  6
 13 43  1  0
 13 44  1  0
 15 45  1  0
 15 46  1  0
 16 47  1  0
 16 48  1  0
 17 49  1  0
 17 50  1  0
 18 51  1  0
 18 52  1  0
 19 53  1  0
 19 54  1  0
 21 55  1  0
 22 56  1  0
 24 57  1  0
 27 58  1  0
 28 59  1  0
M  END
>  <smiles>  (38) 
O=C(NCC(=O)N1CCCC[C@H]1CN1CCCCC1)c1ccc2cc(F)ccc2n1

>  <score_type>  (38) 
oracle

>  <origin>  (38) 
autodockgpu

>  <m_score__min__energy>  (38) 
-8.6999999999999993

>  <m_primary>  (38) 
energy

>  <rmsd>  (38) 
4.656189920991997

>  <m_score__min__rmsd>  (38) 
4.656189920991997

>  <meeko>  (38) 
{"free_energy": -7.93, "intermolecular_energy": -9.72, "internal_energy": -2.23, "cluster_size": 5, "cluster_id": 4, "rank_in_cluster": 4}

>  <energy>  (38) 
-7.99

>  <cluster_rmsd>  (38) 
0.32

>  <cluster>  (38) 
5

$$$$

     RDKit          3D

 59 62  0  0  0  0  0  0  0  0999 V2000
  139.1230   71.2280  220.9970 O   0  0  0  0  0  0  0  0  0  0  0  0
  139.3370   71.7630  222.0910 C   0  0  0  0  0  0  0  0  0  0  0  0
  139.4280   73.1650  222.1890 N   0  0  0  0  0  0  0  0  0  0  0  0
  139.2980   74.1040  221.1080 C   0  0  0  0  0  0  0  0  0  0  0  0
  139.6650   75.4970  221.5320 C   0  0  0  0  0  0  0  0  0  0  0  0
  139.9410   75.7650  222.7140 O   0  0  0  0  0  0  0  0  0  0  0  0
  139.6800   76.5030  220.4950 N   0  0  0  0  0  0  0  0  0  0  0  0
  138.4310   77.0300  219.9380 C   0  0  0  0  0  0  0  0  0  0  0  0
  138.6070   76.8990  218.4130 C   0  0  0  0  0  0  0  0  0  0  0  0
  139.6310   77.9940  218.1000 C   0  0  0  0  0  0  0  0  0  0  0  0
  140.9360   77.4920  218.5980 C   0  0  0  0  0  0  0  0  0  0  0  0
  140.9340   76.9410  220.0070 C   0  0  1  0  0  0  0  0  0  0  0  0
  141.8140   77.7530  220.8990 C   0  0  0  0  0  0  0  0  0  0  0  0
  141.2180   78.7850  221.6840 N   0  0  0  0  0  0  0  0  0  0  0  0
  141.8870   80.0810  221.4180 C   0  0  0  0  0  0  0  0  0  0  0  0
  142.8440   80.4710  222.5050 C   0  0  0  0  0  0  0  0  0  0  0  0
  142.1190   80.6910  223.8280 C   0  0  0  0  0  0  0  0  0  0  0  0
  140.9090   79.7620  223.8490 C   0  0  0  0  0  0  0  0  0  0  0  0
  141.3960   78.5010  223.1150 C   0  0  0  0  0  0  0  0  0  0  0  0
  139.5020   70.9580  223.3210 C   0  0  0  0  0  0  0  0  0  0  0  0
  139.1130   69.6590  223.4210 C   0  0  0  0  0  0  0  0  0  0  0  0
  139.2710   68.9240  224.5770 C   0  0  0  0  0  0  0  0  0  0  0  0
  139.8560   69.5560  225.6740 C   0  0  0  0  0  0  0  0  0  0  0  0
  140.0350   68.8560  226.8490 C   0  0  0  0  0  0  0  0  0  0  0  0
  140.6200   69.5180  227.9160 C   0  0  0  0  0  0  0  0  0  0  0  0
  140.8130   68.8570  229.1020 F   0  0  0  0  0  0  0  0  0  0  0  0
  141.0170   70.8350  227.8150 C   0  0  0  0  0  0  0  0  0  0  0  0
  140.8430   71.5460  226.6400 C   0  0  0  0  0  0  0  0  0  0  0  0
  140.2550   70.8740  225.5790 C   0  0  0  0  0  0  0  0  0  0  0  0
  140.0660   71.5200  224.4180 N   0  0  0  0  0  0  0  0  0  0  0  0
  139.6070   73.5640  223.1440 H   0  0  0  0  0  0  0  0  0  0  0  0
  139.9614   73.7954  220.2866 H   0  0  0  0  0  0  0  0  0  0  0  0
  138.2463   74.1107  220.7856 H   0  0  0  0  0  0  0  0  0  0  0  0
  137.5705   76.4379  220.2829 H   0  0  0  0  0  0  0  0  0  0  0  0
  138.2368   78.0667  220.2504 H   0  0  0  0  0  0  0  0  0  0  0  0
  138.9927   75.9052  218.1416 H   0  0  0  0  0  0  0  0  0  0  0  0
  137.6663   77.0065  217.8530 H   0  0  0  0  0  0  0  0  0  0  0  0
  139.6794   78.1727  217.0157 H   0  0  0  0  0  0  0  0  0  0  0  0
  139.3586   78.9470  218.5770 H   0  0  0  0  0  0  0  0  0  0  0  0
  141.2696   76.6905  217.9225 H   0  0  0  0  0  0  0  0  0  0  0  0
  141.6043   78.3655  218.6192 H   0  0  0  0  0  0  0  0  0  0  0  0
  141.4209   75.9548  219.9890 H   0  0  0  0  0  0  0  0  0  0  0  0
  142.3029   77.0559  221.5955 H   0  0  0  0  0  0  0  0  0  0  0  0
  142.4789   78.2900  220.2065 H   0  0  0  0  0  0  0  0  0  0  0  0
  142.4420   80.0030  220.4715 H   0  0  0  0  0  0  0  0  0  0  0  0
  141.1064   80.8544  221.3686 H   0  0  0  0  0  0  0  0  0  0  0  0
  143.5873   79.6702  222.6325 H   0  0  0  0  0  0  0  0  0  0  0  0
  143.3329   81.4130  222.2159 H   0  0  0  0  0  0  0  0  0  0  0  0
  142.7892   80.4536  224.6673 H   0  0  0  0  0  0  0  0  0  0  0  0
  141.8032   81.7401  223.9265 H   0  0  0  0  0  0  0  0  0  0  0  0
  140.6162   79.5245  224.8824 H   0  0  0  0  0  0  0  0  0  0  0  0
  140.0222   80.2107  223.3775 H   0  0  0  0  0  0  0  0  0  0  0  0
  142.4558   78.3106  223.3400 H   0  0  0  0  0  0  0  0  0  0  0  0
  140.8362   77.6066  223.4258 H   0  0  0  0  0  0  0  0  0  0  0  0
  138.6545   69.1756  222.5458 H   0  0  0  0  0  0  0  0  0  0  0  0
  138.9465   67.8744  224.6321 H   0  0  0  0  0  0  0  0  0  0  0  0
  139.7229   67.8048  226.9360 H   0  0  0  0  0  0  0  0  0  0  0  0
  141.4795   71.3286  228.6824 H   0  0  0  0  0  0  0  0  0  0  0  0
  141.1570   72.5966  226.5519 H   0  0  0  0  0  0  0  0  0  0  0  0
  1  2  2  0
  2  3  1  0
  3  4  1  0
  4  5  1  0
  5  6  2  0
  5  7  1  0
  7  8  1  0
  8  9  1  0
  9 10  1  0
 10 11  1  0
 11 12  1  0
 12 13  1  0
 13 14  1  0
 14 15  1  0
 15 16  1  0
 16 17  1  0
 17 18  1  0
 18 19  1  0
  2 20  1  0
 20 21  2  0
 21 22  1  0
 22 23  2  0
 23 24  1  0
 24 25  2  0
 25 26  1  0
 25 27  1  0
 27 28  2  0
 28 29  1  0
 29 30  2  0
 12  7  1  0
 19 14  1  0
 30 20  1  0
 29 23  1  0
  3 31  1  0
  4 32  1  0
  4 33  1  0
  8 34  1  0
  8 35  1  0
  9 36  1  0
  9 37  1  0
 10 38  1  0
 10 39  1  0
 11 40  1  0
 11 41  1  0
 12 42  1  6
 13 43  1  0
 13 44  1  0
 15 45  1  0
 15 46  1  0
 16 47  1  0
 16 48  1  0
 17 49  1  0
 17 50  1  0
 18 51  1  0
 18 52  1  0
 19 53  1  0
 19 54  1  0
 21 55  1  0
 22 56  1  0
 24 57  1  0
 27 58  1  0
 28 59  1  0
M  END
>  <smiles>  (39) 
O=C(NCC(=O)N1CCCC[C@H]1CN1CCCCC1)c1ccc2cc(F)ccc2n1

>  <score_type>  (39) 
oracle

>  <origin>  (39) 
autodockgpu

>  <m_score__min__energy>  (39) 
-8.6999999999999993

>  <m_primary>  (39) 
energy

>  <rmsd>  (39) 
2.196993871414781

>  <m_score__min__rmsd>  (39) 
2.196993871414781

>  <meeko>  (39) 
{"free_energy": -7.79, "intermolecular_energy": -9.58, "internal_energy": -2.3, "cluster_size": 24, "cluster_id": 1, "rank_in_cluster": 24}

>  <energy>  (39) 
-7.26

>  <cluster_rmsd>  (39) 
1.11

>  <cluster>  (39) 
5

$$$$

     RDKit          3D

 59 62  0  0  0  0  0  0  0  0999 V2000
  133.7000   69.6650  226.4840 O   0  0  0  0  0  0  0  0  0  0  0  0
  134.0260   70.8050  226.1300 C   0  0  0  0  0  0  0  0  0  0  0  0
  135.1260   70.9930  225.2720 N   0  0  0  0  0  0  0  0  0  0  0  0
  135.9680   69.9620  224.7280 C   0  0  0  0  0  0  0  0  0  0  0  0
  137.0930   70.5330  223.9130 C   0  0  0  0  0  0  0  0  0  0  0  0
  137.3080   71.7570  223.8700 O   0  0  0  0  0  0  0  0  0  0  0  0
  137.9070   69.5860  223.1880 N   0  0  0  0  0  0  0  0  0  0  0  0
  138.0970   69.7080  221.7390 C   0  0  0  0  0  0  0  0  0  0  0  0
  137.7620   68.3080  221.1910 C   0  0  0  0  0  0  0  0  0  0  0  0
  138.9670   67.4770  221.6410 C   0  0  0  0  0  0  0  0  0  0  0  0
  138.8030   67.2740  223.1030 C   0  0  0  0  0  0  0  0  0  0  0  0
  138.4910   68.5170  223.9080 C   0  0  1  0  0  0  0  0  0  0  0  0
  139.5840   68.8110  224.8810 C   0  0  0  0  0  0  0  0  0  0  0  0
  139.3610   69.8160  225.8690 N   0  0  0  0  0  0  0  0  0  0  0  0
  139.9400   71.1070  225.4260 C   0  0  0  0  0  0  0  0  0  0  0  0
  141.2450   71.4160  226.0990 C   0  0  0  0  0  0  0  0  0  0  0  0
  141.0650   71.5850  227.6030 C   0  0  0  0  0  0  0  0  0  0  0  0
  139.9090   70.6870  228.0320 C   0  0  0  0  0  0  0  0  0  0  0  0
  140.0390   69.4540  227.1220 C   0  0  0  0  0  0  0  0  0  0  0  0
  133.2780   71.9950  226.5910 C   0  0  0  0  0  0  0  0  0  0  0  0
  132.0600   71.9250  227.1930 C   0  0  0  0  0  0  0  0  0  0  0  0
  131.3750   73.0460  227.6130 C   0  0  0  0  0  0  0  0  0  0  0  0
  131.9730   74.2890  227.4040 C   0  0  0  0  0  0  0  0  0  0  0  0
  131.3220   75.4350  227.8110 C   0  0  0  0  0  0  0  0  0  0  0  0
  131.9480   76.6500  227.5860 C   0  0  0  0  0  0  0  0  0  0  0  0
  131.3320   77.8130  227.9750 F   0  0  0  0  0  0  0  0  0  0  0  0
  133.1830   76.7220  226.9770 C   0  0  0  0  0  0  0  0  0  0  0  0
  133.8440   75.5780  226.5650 C   0  0  0  0  0  0  0  0  0  0  0  0
  133.2090   74.3670  226.7940 C   0  0  0  0  0  0  0  0  0  0  0  0
  133.8100   73.2290  226.4150 N   0  0  0  0  0  0  0  0  0  0  0  0
  135.3530   71.9820  225.0010 H   0  0  0  0  0  0  0  0  0  0  0  0
  136.3908   69.3739  225.5558 H   0  0  0  0  0  0  0  0  0  0  0  0
  135.3537   69.3314  224.0685 H   0  0  0  0  0  0  0  0  0  0  0  0
  137.4167   70.4636  221.3192 H   0  0  0  0  0  0  0  0  0  0  0  0
  139.1151   70.0298  221.4747 H   0  0  0  0  0  0  0  0  0  0  0  0
  136.8287   67.9233  221.6279 H   0  0  0  0  0  0  0  0  0  0  0  0
  137.6000   68.2909  220.1031 H   0  0  0  0  0  0  0  0  0  0  0  0
  138.9790   66.5084  221.1199 H   0  0  0  0  0  0  0  0  0  0  0  0
  139.9149   67.9846  221.4091 H   0  0  0  0  0  0  0  0  0  0  0  0
  137.9815   66.5583  223.2546 H   0  0  0  0  0  0  0  0  0  0  0  0
  139.7781   66.9182  223.4672 H   0  0  0  0  0  0  0  0  0  0  0  0
  137.6239   68.3007  224.5494 H   0  0  0  0  0  0  0  0  0  0  0  0
  139.8055   67.8746  225.4139 H   0  0  0  0  0  0  0  0  0  0  0  0
  140.3962   69.2175  224.2605 H   0  0  0  0  0  0  0  0  0  0  0  0
  140.1056   71.0643  224.3394 H   0  0  0  0  0  0  0  0  0  0  0  0
  139.2291   71.9013  225.6975 H   0  0  0  0  0  0  0  0  0  0  0  0
  141.9486   70.5913  225.9126 H   0  0  0  0  0  0  0  0  0  0  0  0
  141.6337   72.3591  225.6873 H   0  0  0  0  0  0  0  0  0  0  0  0
  141.9855   71.2878  228.1268 H   0  0  0  0  0  0  0  0  0  0  0  0
  140.8516   72.6351  227.8513 H   0  0  0  0  0  0  0  0  0  0  0  0
  140.0057   70.4038  229.0905 H   0  0  0  0  0  0  0  0  0  0  0  0
  138.9310   71.1816  227.9381 H   0  0  0  0  0  0  0  0  0  0  0  0
  141.0984   69.2256  226.9335 H   0  0  0  0  0  0  0  0  0  0  0  0
  139.5946   68.5591  227.5821 H   0  0  0  0  0  0  0  0  0  0  0  0
  131.6040   70.9365  227.3508 H   0  0  0  0  0  0  0  0  0  0  0  0
  130.3904   72.9628  228.0964 H   0  0  0  0  0  0  0  0  0  0  0  0
  130.3372   75.3856  228.2987 H   0  0  0  0  0  0  0  0  0  0  0  0
  133.6504   77.7046  226.8160 H   0  0  0  0  0  0  0  0  0  0  0  0
  134.8289   75.6273  226.0777 H   0  0  0  0  0  0  0  0  0  0  0  0
  1  2  2  0
  2  3  1  0
  3  4  1  0
  4  5  1  0
  5  6  2  0
  5  7  1  0
  7  8  1  0
  8  9  1  0
  9 10  1  0
 10 11  1  0
 11 12  1  0
 12 13  1  0
 13 14  1  0
 14 15  1  0
 15 16  1  0
 16 17  1  0
 17 18  1  0
 18 19  1  0
  2 20  1  0
 20 21  2  0
 21 22  1  0
 22 23  2  0
 23 24  1  0
 24 25  2  0
 25 26  1  0
 25 27  1  0
 27 28  2  0
 28 29  1  0
 29 30  2  0
 12  7  1  0
 19 14  1  0
 30 20  1  0
 29 23  1  0
  3 31  1  0
  4 32  1  0
  4 33  1  0
  8 34  1  0
  8 35  1  0
  9 36  1  0
  9 37  1  0
 10 38  1  0
 10 39  1  0
 11 40  1  0
 11 41  1  0
 12 42  1  1
 13 43  1  0
 13 44  1  0
 15 45  1  0
 15 46  1  0
 16 47  1  0
 16 48  1  0
 17 49  1  0
 17 50  1  0
 18 51  1  0
 18 52  1  0
 19 53  1  0
 19 54  1  0
 21 55  1  0
 22 56  1  0
 24 57  1  0
 27 58  1  0
 28 59  1  0
M  END
>  <smiles>  (40) 
O=C(NCC(=O)N1CCCC[C@H]1CN1CCCCC1)c1ccc2cc(F)ccc2n1

>  <score_type>  (40) 
oracle

>  <origin>  (40) 
autodockgpu

>  <m_score__min__energy>  (40) 
-8.6999999999999993

>  <m_primary>  (40) 
energy

>  <rmsd>  (40) 
9.514217625936263

>  <m_score__min__rmsd>  (40) 
9.514217625936263

>  <meeko>  (40) 
{"free_energy": -7.69, "intermolecular_energy": -9.48, "internal_energy": -2.35, "cluster_size": 2, "cluster_id": 6, "rank_in_cluster": 2}

>  <energy>  (40) 
-7.7

>  <cluster_rmsd>  (40) 
0.0

>  <cluster>  (40) 
6

$$$$

     RDKit          3D

 59 62  0  0  0  0  0  0  0  0999 V2000
  138.8470   70.9810  221.1330 O   0  0  0  0  0  0  0  0  0  0  0  0
  139.1610   71.4980  222.2120 C   0  0  0  0  0  0  0  0  0  0  0  0
  139.3230   72.8940  222.3090 N   0  0  0  0  0  0  0  0  0  0  0  0
  139.1630   73.8450  221.2440 C   0  0  0  0  0  0  0  0  0  0  0  0
  139.7740   75.1740  221.5860 C   0  0  0  0  0  0  0  0  0  0  0  0
  139.6800   75.6580  222.7280 O   0  0  0  0  0  0  0  0  0  0  0  0
  140.4730   75.8550  220.5210 N   0  0  0  0  0  0  0  0  0  0  0  0
  140.5910   75.2520  219.1900 C   0  0  0  0  0  0  0  0  0  0  0  0
  142.0940   75.3310  218.8650 C   0  0  0  0  0  0  0  0  0  0  0  0
  142.3000   76.8260  218.6020 C   0  0  0  0  0  0  0  0  0  0  0  0
  142.2430   77.4890  219.9290 C   0  0  0  0  0  0  0  0  0  0  0  0
  141.0720   77.1050  220.8060 C   0  0  1  0  0  0  0  0  0  0  0  0
  140.1940   78.2830  221.0720 C   0  0  0  0  0  0  0  0  0  0  0  0
  140.4300   79.0530  222.2490 N   0  0  0  0  0  0  0  0  0  0  0  0
  140.9660   80.3870  221.8890 C   0  0  0  0  0  0  0  0  0  0  0  0
  142.4480   80.4920  222.1070 C   0  0  0  0  0  0  0  0  0  0  0  0
  142.8030   80.3320  223.5800 C   0  0  0  0  0  0  0  0  0  0  0  0
  141.7650   79.4060  224.2060 C   0  0  0  0  0  0  0  0  0  0  0  0
  141.4440   78.3990  223.0890 C   0  0  0  0  0  0  0  0  0  0  0  0
  139.3730   70.6770  223.4240 C   0  0  0  0  0  0  0  0  0  0  0  0
  139.0070   69.3700  223.5140 C   0  0  0  0  0  0  0  0  0  0  0  0
  139.2100   68.6200  224.6540 C   0  0  0  0  0  0  0  0  0  0  0  0
  139.8150   69.2450  225.7440 C   0  0  0  0  0  0  0  0  0  0  0  0
  140.0370   68.5310  226.9030 C   0  0  0  0  0  0  0  0  0  0  0  0
  140.6410   69.1860  227.9630 C   0  0  0  0  0  0  0  0  0  0  0  0
  140.8770   68.5100  229.1340 F   0  0  0  0  0  0  0  0  0  0  0  0
  141.0130   70.5110  227.8720 C   0  0  0  0  0  0  0  0  0  0  0  0
  140.7950   71.2360  226.7140 C   0  0  0  0  0  0  0  0  0  0  0  0
  140.1890   70.5710  225.6590 C   0  0  0  0  0  0  0  0  0  0  0  0
  139.9580   71.2320  224.5140 N   0  0  0  0  0  0  0  0  0  0  0  0
  139.5860   73.2770  223.2510 H   0  0  0  0  0  0  0  0  0  0  0  0
  139.6497   73.4516  220.3394 H   0  0  0  0  0  0  0  0  0  0  0  0
  138.0859   73.9962  221.0797 H   0  0  0  0  0  0  0  0  0  0  0  0
  140.2506   74.2061  219.2051 H   0  0  0  0  0  0  0  0  0  0  0  0
  139.9725   75.7671  218.4403 H   0  0  0  0  0  0  0  0  0  0  0  0
  142.7027   74.9897  219.7153 H   0  0  0  0  0  0  0  0  0  0  0  0
  142.3935   74.6926  218.0208 H   0  0  0  0  0  0  0  0  0  0  0  0
  143.2785   76.9994  218.1303 H   0  0  0  0  0  0  0  0  0  0  0  0
  141.5333   77.2236  217.9208 H   0  0  0  0  0  0  0  0  0  0  0  0
  143.1670   77.2394  220.4711 H   0  0  0  0  0  0  0  0  0  0  0  0
  142.1223   78.5626  219.7221 H   0  0  0  0  0  0  0  0  0  0  0  0
  141.4629   76.8421  221.8000 H   0  0  0  0  0  0  0  0  0  0  0  0
  140.2933   78.9631  220.2132 H   0  0  0  0  0  0  0  0  0  0  0  0
  139.1967   77.8466  221.2300 H   0  0  0  0  0  0  0  0  0  0  0  0
  140.7517   80.5779  220.8271 H   0  0  0  0  0  0  0  0  0  0  0  0
  140.4801   81.1282  222.5406 H   0  0  0  0  0  0  0  0  0  0  0  0
  142.9520   79.7033  221.5291 H   0  0  0  0  0  0  0  0  0  0  0  0
  142.7781   81.4878  221.7762 H   0  0  0  0  0  0  0  0  0  0  0  0
  143.8063   79.8920  223.6785 H   0  0  0  0  0  0  0  0  0  0  0  0
  142.8045   81.3089  224.0856 H   0  0  0  0  0  0  0  0  0  0  0  0
  142.1786   78.8939  225.0873 H   0  0  0  0  0  0  0  0  0  0  0  0
  140.8738   79.9457  224.5588 H   0  0  0  0  0  0  0  0  0  0  0  0
  142.3463   78.1777  222.5001 H   0  0  0  0  0  0  0  0  0  0  0  0
  141.0826   77.4422  223.4940 H   0  0  0  0  0  0  0  0  0  0  0  0
  138.5310   68.8929  222.6447 H   0  0  0  0  0  0  0  0  0  0  0  0
  138.9048   67.5643  224.7016 H   0  0  0  0  0  0  0  0  0  0  0  0
  139.7433   67.4739  226.9828 H   0  0  0  0  0  0  0  0  0  0  0  0
  141.4908   70.9993  228.7342 H   0  0  0  0  0  0  0  0  0  0  0  0
  141.0893   72.2929  226.6339 H   0  0  0  0  0  0  0  0  0  0  0  0
  1  2  2  0
  2  3  1  0
  3  4  1  0
  4  5  1  0
  5  6  2  0
  5  7  1  0
  7  8  1  0
  8  9  1  0
  9 10  1  0
 10 11  1  0
 11 12  1  0
 12 13  1  0
 13 14  1  0
 14 15  1  0
 15 16  1  0
 16 17  1  0
 17 18  1  0
 18 19  1  0
  2 20  1  0
 20 21  2  0
 21 22  1  0
 22 23  2  0
 23 24  1  0
 24 25  2  0
 25 26  1  0
 25 27  1  0
 27 28  2  0
 28 29  1  0
 29 30  2  0
 12  7  1  0
 19 14  1  0
 30 20  1  0
 29 23  1  0
  3 31  1  0
  4 32  1  0
  4 33  1  0
  8 34  1  0
  8 35  1  0
  9 36  1  0
  9 37  1  0
 10 38  1  0
 10 39  1  0
 11 40  1  0
 11 41  1  0
 12 42  1  1
 13 43  1  0
 13 44  1  0
 15 45  1  0
 15 46  1  0
 16 47  1  0
 16 48  1  0
 17 49  1  0
 17 50  1  0
 18 51  1  0
 18 52  1  0
 19 53  1  0
 19 54  1  0
 21 55  1  0
 22 56  1  0
 24 57  1  0
 27 58  1  0
 28 59  1  0
M  END
>  <smiles>  (41) 
O=C(NCC(=O)N1CCCC[C@H]1CN1CCCCC1)c1ccc2cc(F)ccc2n1

>  <score_type>  (41) 
oracle

>  <origin>  (41) 
autodockgpu

>  <m_score__min__energy>  (41) 
-8.6999999999999993

>  <m_primary>  (41) 
energy

>  <rmsd>  (41) 
2.2429076806157884

>  <m_score__min__rmsd>  (41) 
2.2429076806157884

>  <meeko>  (41) 
{"free_energy": -8.35, "intermolecular_energy": -10.14, "internal_energy": -2.11, "cluster_size": 24, "cluster_id": 1, "rank_in_cluster": 13}

>  <energy>  (41) 
-7.69

>  <cluster_rmsd>  (41) 
1.62

>  <cluster>  (41) 
6

$$$$

     RDKit          3D

 59 62  0  0  0  0  0  0  0  0999 V2000
  141.3810   72.2840  221.6150 O   0  0  0  0  0  0  0  0  0  0  0  0
  140.4310   72.4340  222.3940 C   0  0  0  0  0  0  0  0  0  0  0  0
  139.5220   73.4930  222.2080 N   0  0  0  0  0  0  0  0  0  0  0  0
  139.5680   74.4810  221.1640 C   0  0  0  0  0  0  0  0  0  0  0  0
  140.1170   75.7880  221.6580 C   0  0  0  0  0  0  0  0  0  0  0  0
  139.6980   76.3160  222.7030 O   0  0  0  0  0  0  0  0  0  0  0  0
  141.1530   76.3960  220.8550 N   0  0  0  0  0  0  0  0  0  0  0  0
  141.3950   77.8410  220.9030 C   0  0  0  0  0  0  0  0  0  0  0  0
  141.3950   78.2780  219.4270 C   0  0  0  0  0  0  0  0  0  0  0  0
  142.7200   77.7090  218.9110 C   0  0  0  0  0  0  0  0  0  0  0  0
  142.5200   76.2430  218.7900 C   0  0  0  0  0  0  0  0  0  0  0  0
  141.9060   75.5620  219.9950 C   0  0  1  0  0  0  0  0  0  0  0  0
  142.8550   74.5760  220.5920 C   0  0  0  0  0  0  0  0  0  0  0  0
  144.0370   74.2440  219.8650 N   0  0  0  0  0  0  0  0  0  0  0  0
  143.8040   73.0410  219.0310 C   0  0  0  0  0  0  0  0  0  0  0  0
  144.4030   71.8010  219.6280 C   0  0  0  0  0  0  0  0  0  0  0  0
  145.9220   71.9060  219.7150 C   0  0  0  0  0  0  0  0  0  0  0  0
  146.2700   73.3780  219.9140 C   0  0  0  0  0  0  0  0  0  0  0  0
  145.1270   73.9140  220.7940 C   0  0  0  0  0  0  0  0  0  0  0  0
  140.2220   71.5160  223.5350 C   0  0  0  0  0  0  0  0  0  0  0  0
  139.5640   70.3300  223.4280 C   0  0  0  0  0  0  0  0  0  0  0  0
  139.3740   69.4880  224.5030 C   0  0  0  0  0  0  0  0  0  0  0  0
  139.8850   69.8860  225.7380 C   0  0  0  0  0  0  0  0  0  0  0  0
  139.7190   69.0720  226.8400 C   0  0  0  0  0  0  0  0  0  0  0  0
  140.2410   69.5010  228.0490 C   0  0  0  0  0  0  0  0  0  0  0  0
  140.0940   68.7200  229.1670 F   0  0  0  0  0  0  0  0  0  0  0  0
  140.9090   70.7030  228.1580 C   0  0  0  0  0  0  0  0  0  0  0  0
  141.0810   71.5260  227.0590 C   0  0  0  0  0  0  0  0  0  0  0  0
  140.5540   71.0880  225.8540 C   0  0  0  0  0  0  0  0  0  0  0  0
  140.6970   71.8510  224.7590 N   0  0  0  0  0  0  0  0  0  0  0  0
  138.7330   73.5690  222.8970 H   0  0  0  0  0  0  0  0  0  0  0  0
  140.2089   74.1101  220.3506 H   0  0  0  0  0  0  0  0  0  0  0  0
  138.5407   74.6532  220.8103 H   0  0  0  0  0  0  0  0  0  0  0  0
  140.5955   78.3513  221.4601 H   0  0  0  0  0  0  0  0  0  0  0  0
  142.3358   78.0920  221.4147 H   0  0  0  0  0  0  0  0  0  0  0  0
  140.5400   77.8474  218.8852 H   0  0  0  0  0  0  0  0  0  0  0  0
  141.3037   79.3659  219.2925 H   0  0  0  0  0  0  0  0  0  0  0  0
  142.9656   78.1429  217.9305 H   0  0  0  0  0  0  0  0  0  0  0  0
  143.5510   77.9461  219.5916 H   0  0  0  0  0  0  0  0  0  0  0  0
  141.8617   76.0618  217.9276 H   0  0  0  0  0  0  0  0  0  0  0  0
  143.5260   75.8112  218.6820 H   0  0  0  0  0  0  0  0  0  0  0  0
  141.0690   74.9391  219.6466 H   0  0  0  0  0  0  0  0  0  0  0  0
  143.1741   74.9797  221.5642 H   0  0  0  0  0  0  0  0  0  0  0  0
  142.2840   73.6363  220.6222 H   0  0  0  0  0  0  0  0  0  0  0  0
  142.7196   72.8917  218.9229 H   0  0  0  0  0  0  0  0  0  0  0  0
  144.2887   73.2105  218.0582 H   0  0  0  0  0  0  0  0  0  0  0  0
  143.9952   71.6573  220.6395 H   0  0  0  0  0  0  0  0  0  0  0  0
  144.1504   70.9475  218.9817 H   0  0  0  0  0  0  0  0  0  0  0  0
  146.2911   71.3146  220.5659 H   0  0  0  0  0  0  0  0  0  0  0  0
  146.3900   71.5181  218.7982 H   0  0  0  0  0  0  0  0  0  0  0  0
  147.2391   73.4855  220.4232 H   0  0  0  0  0  0  0  0  0  0  0  0
  146.3645   73.9234  218.9634 H   0  0  0  0  0  0  0  0  0  0  0  0
  144.8015   73.1460  221.5111 H   0  0  0  0  0  0  0  0  0  0  0  0
  145.4409   74.7892  221.3818 H   0  0  0  0  0  0  0  0  0  0  0  0
  139.1684   70.0314  222.4460 H   0  0  0  0  0  0  0  0  0  0  0  0
  138.8374   68.5344  224.3904 H   0  0  0  0  0  0  0  0  0  0  0  0
  139.1883   68.1118  226.7606 H   0  0  0  0  0  0  0  0  0  0  0  0
  141.3113   71.0121  229.1340 H   0  0  0  0  0  0  0  0  0  0  0  0
  141.6126   72.4858  227.1381 H   0  0  0  0  0  0  0  0  0  0  0  0
  1  2  2  0
  2  3  1  0
  3  4  1  0
  4  5  1  0
  5  6  2  0
  5  7  1  0
  7  8  1  0
  8  9  1  0
  9 10  1  0
 10 11  1  0
 11 12  1  0
 12 13  1  0
 13 14  1  0
 14 15  1  0
 15 16  1  0
 16 17  1  0
 17 18  1  0
 18 19  1  0
  2 20  1  0
 20 21  2  0
 21 22  1  0
 22 23  2  0
 23 24  1  0
 24 25  2  0
 25 26  1  0
 25 27  1  0
 27 28  2  0
 28 29  1  0
 29 30  2  0
 12  7  1  0
 19 14  1  0
 30 20  1  0
 29 23  1  0
  3 31  1  0
  4 32  1  0
  4 33  1  0
  8 34  1  0
  8 35  1  0
  9 36  1  0
  9 37  1  0
 10 38  1  0
 10 39  1  0
 11 40  1  0
 11 41  1  0
 12 42  1  6
 13 43  1  0
 13 44  1  0
 15 45  1  0
 15 46  1  0
 16 47  1  0
 16 48  1  0
 17 49  1  0
 17 50  1  0
 18 51  1  0
 18 52  1  0
 19 53  1  0
 19 54  1  0
 21 55  1  0
 22 56  1  0
 24 57  1  0
 27 58  1  0
 28 59  1  0
M  END
>  <smiles>  (42) 
O=C(NCC(=O)N1CCCC[C@H]1CN1CCCCC1)c1ccc2cc(F)ccc2n1

>  <score_type>  (42) 
oracle

>  <origin>  (42) 
autodockgpu

>  <m_score__min__energy>  (42) 
-8.6999999999999993

>  <m_primary>  (42) 
energy

>  <rmsd>  (42) 
4.6735874104816455

>  <m_score__min__rmsd>  (42) 
4.6735874104816455

>  <meeko>  (42) 
{"free_energy": -8.31, "intermolecular_energy": -10.1, "internal_energy": -1.72, "cluster_size": 5, "cluster_id": 4, "rank_in_cluster": 1}

>  <energy>  (42) 
-6.62

>  <cluster_rmsd>  (42) 
0.0

>  <cluster>  (42) 
7

$$$$

     RDKit          3D

 59 62  0  0  0  0  0  0  0  0999 V2000
  138.4650   74.6340  222.3210 O   0  0  0  0  0  0  0  0  0  0  0  0
  139.4870   75.1220  221.8240 C   0  0  0  0  0  0  0  0  0  0  0  0
  139.5590   76.5050  221.5650 N   0  0  0  0  0  0  0  0  0  0  0  0
  138.5270   77.4730  221.8200 C   0  0  0  0  0  0  0  0  0  0  0  0
  139.0220   78.6010  222.6800 C   0  0  0  0  0  0  0  0  0  0  0  0
  138.2790   79.1660  223.5010 O   0  0  0  0  0  0  0  0  0  0  0  0
  140.4010   78.9900  222.5000 N   0  0  0  0  0  0  0  0  0  0  0  0
  141.4490   78.4890  223.3950 C   0  0  0  0  0  0  0  0  0  0  0  0
  142.2020   79.7540  223.8480 C   0  0  0  0  0  0  0  0  0  0  0  0
  142.9700   80.1540  222.5840 C   0  0  0  0  0  0  0  0  0  0  0  0
  141.9630   80.7210  221.6530 C   0  0  0  0  0  0  0  0  0  0  0  0
  140.7100   79.8960  221.4580 C   0  0  1  0  0  0  0  0  0  0  0  0
  140.5860   79.4390  220.0420 C   0  0  0  0  0  0  0  0  0  0  0  0
  140.7810   78.0550  219.7560 N   0  0  0  0  0  0  0  0  0  0  0  0
  142.2120   77.6980  219.9050 C   0  0  0  0  0  0  0  0  0  0  0  0
  142.9170   77.5750  218.5860 C   0  0  0  0  0  0  0  0  0  0  0  0
  142.3350   76.4400  217.7510 C   0  0  0  0  0  0  0  0  0  0  0  0
  140.8570   76.3180  218.1090 C   0  0  0  0  0  0  0  0  0  0  0  0
  140.4150   77.7690  218.3610 C   0  0  0  0  0  0  0  0  0  0  0  0
  140.6560   74.2800  221.4890 C   0  0  0  0  0  0  0  0  0  0  0  0
  140.6360   72.9210  221.5380 C   0  0  0  0  0  0  0  0  0  0  0  0
  141.7370   72.1510  221.2260 C   0  0  0  0  0  0  0  0  0  0  0  0
  142.9050   72.8110  220.8470 C   0  0  0  0  0  0  0  0  0  0  0  0
  144.0280   72.0780  220.5250 C   0  0  0  0  0  0  0  0  0  0  0  0
  145.1690   72.7700  220.1540 C   0  0  0  0  0  0  0  0  0  0  0  0
  146.3080   72.0770  219.8280 F   0  0  0  0  0  0  0  0  0  0  0  0
  145.1910   74.1480  220.1020 C   0  0  0  0  0  0  0  0  0  0  0  0
  144.0690   74.8920  220.4230 C   0  0  0  0  0  0  0  0  0  0  0  0
  142.9320   74.1900  220.7950 C   0  0  0  0  0  0  0  0  0  0  0  0
  141.8190   74.8670  221.1140 N   0  0  0  0  0  0  0  0  0  0  0  0
  140.4530   76.8640  221.1470 H   0  0  0  0  0  0  0  0  0  0  0  0
  138.1781   77.8829  220.8607 H   0  0  0  0  0  0  0  0  0  0  0  0
  137.7087   76.9684  222.3546 H   0  0  0  0  0  0  0  0  0  0  0  0
  141.0080   77.9684  224.2579 H   0  0  0  0  0  0  0  0  0  0  0  0
  142.1100   77.7615  222.9012 H   0  0  0  0  0  0  0  0  0  0  0  0
  141.5017   80.5450  224.1546 H   0  0  0  0  0  0  0  0  0  0  0  0
  142.8505   79.5890  224.7211 H   0  0  0  0  0  0  0  0  0  0  0  0
  143.7347   80.9073  222.8242 H   0  0  0  0  0  0  0  0  0  0  0  0
  143.4884   79.2919  222.1390 H   0  0  0  0  0  0  0  0  0  0  0  0
  141.6621   81.7058  222.0399 H   0  0  0  0  0  0  0  0  0  0  0  0
  142.4529   80.7582  220.6688 H   0  0  0  0  0  0  0  0  0  0  0  0
  139.8416   80.5571  221.5949 H   0  0  0  0  0  0  0  0  0  0  0  0
  139.5729   79.7015  219.7032 H   0  0  0  0  0  0  0  0  0  0  0  0
  141.4148   79.9418  219.5221 H   0  0  0  0  0  0  0  0  0  0  0  0
  142.7098   78.4787  220.4989 H   0  0  0  0  0  0  0  0  0  0  0  0
  142.2606   76.7175  220.4012 H   0  0  0  0  0  0  0  0  0  0  0  0
  142.8087   78.5193  218.0323 H   0  0  0  0  0  0  0  0  0  0  0  0
  143.9778   77.3563  218.7782 H   0  0  0  0  0  0  0  0  0  0  0  0
  142.4445   76.6672  216.6803 H   0  0  0  0  0  0  0  0  0  0  0  0
  142.8626   75.4972  217.9577 H   0  0  0  0  0  0  0  0  0  0  0  0
  140.2886   75.8747  217.2781 H   0  0  0  0  0  0  0  0  0  0  0  0
  140.6839   75.6655  218.9775 H   0  0  0  0  0  0  0  0  0  0  0  0
  140.9384   78.4543  217.6781 H   0  0  0  0  0  0  0  0  0  0  0  0
  139.3373   77.9033  218.1863 H   0  0  0  0  0  0  0  0  0  0  0  0
  139.7058   72.4164  221.8381 H   0  0  0  0  0  0  0  0  0  0  0  0
  141.6949   71.0529  221.2746 H   0  0  0  0  0  0  0  0  0  0  0  0
  144.0178   70.9787  220.5616 H   0  0  0  0  0  0  0  0  0  0  0  0
  146.1147   74.6638  219.8007 H   0  0  0  0  0  0  0  0  0  0  0  0
  144.0785   75.9913  220.3848 H   0  0  0  0  0  0  0  0  0  0  0  0
  1  2  2  0
  2  3  1  0
  3  4  1  0
  4  5  1  0
  5  6  2  0
  5  7  1  0
  7  8  1  0
  8  9  1  0
  9 10  1  0
 10 11  1  0
 11 12  1  0
 12 13  1  0
 13 14  1  0
 14 15  1  0
 15 16  1  0
 16 17  1  0
 17 18  1  0
 18 19  1  0
  2 20  1  0
 20 21  2  0
 21 22  1  0
 22 23  2  0
 23 24  1  0
 24 25  2  0
 25 26  1  0
 25 27  1  0
 27 28  2  0
 28 29  1  0
 29 30  2  0
 12  7  1  0
 19 14  1  0
 30 20  1  0
 29 23  1  0
  3 31  1  0
  4 32  1  0
  4 33  1  0
  8 34  1  0
  8 35  1  0
  9 36  1  0
  9 37  1  0
 10 38  1  0
 10 39  1  0
 11 40  1  0
 11 41  1  0
 12 42  1  6
 13 43  1  0
 13 44  1  0
 15 45  1  0
 15 46  1  0
 16 47  1  0
 16 48  1  0
 17 49  1  0
 17 50  1  0
 18 51  1  0
 18 52  1  0
 19 53  1  0
 19 54  1  0
 21 55  1  0
 22 56  1  0
 24 57  1  0
 27 58  1  0
 28 59  1  0
M  END
>  <smiles>  (43) 
O=C(NCC(=O)N1CCCC[C@H]1CN1CCCCC1)c1ccc2cc(F)ccc2n1

>  <score_type>  (43) 
oracle

>  <origin>  (43) 
autodockgpu

>  <m_score__min__energy>  (43) 
-8.6999999999999993

>  <m_primary>  (43) 
energy

>  <rmsd>  (43) 
6.139524176979727

>  <m_score__min__rmsd>  (43) 
6.139524176979727

>  <meeko>  (43) 
{"free_energy": -6.07, "intermolecular_energy": -7.86, "internal_energy": -3.86, "cluster_size": 8, "cluster_id": 7, "rank_in_cluster": 7}

>  <energy>  (43) 
-6.61

>  <cluster_rmsd>  (43) 
0.06

>  <cluster>  (43) 
7

$$$$

     RDKit          3D

 59 62  0  0  0  0  0  0  0  0999 V2000
  138.4000   74.5320  222.2210 O   0  0  0  0  0  0  0  0  0  0  0  0
  139.4480   75.0470  221.8120 C   0  0  0  0  0  0  0  0  0  0  0  0
  139.5360   76.4440  221.6530 N   0  0  0  0  0  0  0  0  0  0  0  0
  138.4950   77.3990  221.9190 C   0  0  0  0  0  0  0  0  0  0  0  0
  138.9970   78.5590  222.7300 C   0  0  0  0  0  0  0  0  0  0  0  0
  138.2590   79.1640  223.5260 O   0  0  0  0  0  0  0  0  0  0  0  0
  140.3790   78.9310  222.5330 N   0  0  0  0  0  0  0  0  0  0  0  0
  141.4290   78.4300  223.4250 C   0  0  0  0  0  0  0  0  0  0  0  0
  142.2010   79.6920  223.8550 C   0  0  0  0  0  0  0  0  0  0  0  0
  142.9620   80.0670  222.5800 C   0  0  0  0  0  0  0  0  0  0  0  0
  141.9530   80.6340  221.6500 C   0  0  0  0  0  0  0  0  0  0  0  0
  140.6890   79.8200  221.4770 C   0  0  1  0  0  0  0  0  0  0  0  0
  140.5480   79.3470  220.0680 C   0  0  0  0  0  0  0  0  0  0  0  0
  140.7780   77.9670  219.7890 N   0  0  0  0  0  0  0  0  0  0  0  0
  142.2220   77.6560  219.9010 C   0  0  0  0  0  0  0  0  0  0  0  0
  142.8950   77.5420  218.5640 C   0  0  0  0  0  0  0  0  0  0  0  0
  142.3250   76.3810  217.7560 C   0  0  0  0  0  0  0  0  0  0  0  0
  140.8620   76.2170  218.1560 C   0  0  0  0  0  0  0  0  0  0  0  0
  140.3820   77.6560  218.4080 C   0  0  0  0  0  0  0  0  0  0  0  0
  140.6300   74.2230  221.4810 C   0  0  0  0  0  0  0  0  0  0  0  0
  140.6280   72.8630  221.5210 C   0  0  0  0  0  0  0  0  0  0  0  0
  141.7410   72.1100  221.2130 C   0  0  0  0  0  0  0  0  0  0  0  0
  142.9040   72.7890  220.8480 C   0  0  0  0  0  0  0  0  0  0  0  0
  144.0400   72.0730  220.5310 C   0  0  0  0  0  0  0  0  0  0  0  0
  145.1740   72.7830  220.1730 C   0  0  0  0  0  0  0  0  0  0  0  0
  146.3250   72.1070  219.8520 F   0  0  0  0  0  0  0  0  0  0  0  0
  145.1780   74.1610  220.1310 C   0  0  0  0  0  0  0  0  0  0  0  0
  144.0440   74.8880  220.4480 C   0  0  0  0  0  0  0  0  0  0  0  0
  142.9130   74.1680  220.8050 C   0  0  0  0  0  0  0  0  0  0  0  0
  141.7880   74.8280  221.1200 N   0  0  0  0  0  0  0  0  0  0  0  0
  140.4520   76.8250  221.3070 H   0  0  0  0  0  0  0  0  0  0  0  0
  138.1044   77.7759  220.9622 H   0  0  0  0  0  0  0  0  0  0  0  0
  137.7065   76.8938  222.4961 H   0  0  0  0  0  0  0  0  0  0  0  0
  140.9898   77.9259  224.2985 H   0  0  0  0  0  0  0  0  0  0  0  0
  142.0772   77.6887  222.9347 H   0  0  0  0  0  0  0  0  0  0  0  0
  141.5128   80.4950  224.1576 H   0  0  0  0  0  0  0  0  0  0  0  0
  142.8555   79.5302  224.7242 H   0  0  0  0  0  0  0  0  0  0  0  0
  143.7373   80.8145  222.8040 H   0  0  0  0  0  0  0  0  0  0  0  0
  143.4666   79.1934  222.1415 H   0  0  0  0  0  0  0  0  0  0  0  0
  141.6665   81.6270  222.0267 H   0  0  0  0  0  0  0  0  0  0  0  0
  142.4345   80.6537  220.6612 H   0  0  0  0  0  0  0  0  0  0  0  0
  139.8287   80.4917  221.6140 H   0  0  0  0  0  0  0  0  0  0  0  0
  139.5204   79.5763  219.7494 H   0  0  0  0  0  0  0  0  0  0  0  0
  141.3500   79.8696  219.5260 H   0  0  0  0  0  0  0  0  0  0  0  0
  142.7112   78.4573  220.4742 H   0  0  0  0  0  0  0  0  0  0  0  0
  142.3143   76.6820  220.4038 H   0  0  0  0  0  0  0  0  0  0  0  0
  142.7427   78.4770  218.0049 H   0  0  0  0  0  0  0  0  0  0  0  0
  143.9670   77.3583  218.7286 H   0  0  0  0  0  0  0  0  0  0  0  0
  142.3977   76.6006  216.6806 H   0  0  0  0  0  0  0  0  0  0  0  0
  142.8870   75.4570  217.9569 H   0  0  0  0  0  0  0  0  0  0  0  0
  140.2850   75.7487  217.3450 H   0  0  0  0  0  0  0  0  0  0  0  0
  140.7334   75.5677  219.0346 H   0  0  0  0  0  0  0  0  0  0  0  0
  140.8640   78.3506  217.7044 H   0  0  0  0  0  0  0  0  0  0  0  0
  139.2961   77.7548  218.2632 H   0  0  0  0  0  0  0  0  0  0  0  0
  139.7023   72.3441  221.8104 H   0  0  0  0  0  0  0  0  0  0  0  0
  141.7131   71.0111  221.2536 H   0  0  0  0  0  0  0  0  0  0  0  0
  144.0449   70.9734  220.5616 H   0  0  0  0  0  0  0  0  0  0  0  0
  146.0972   74.6910  219.8409 H   0  0  0  0  0  0  0  0  0  0  0  0
  144.0395   75.9876  220.4183 H   0  0  0  0  0  0  0  0  0  0  0  0
  1  2  2  0
  2  3  1  0
  3  4  1  0
  4  5  1  0
  5  6  2  0
  5  7  1  0
  7  8  1  0
  8  9  1  0
  9 10  1  0
 10 11  1  0
 11 12  1  0
 12 13  1  0
 13 14  1  0
 14 15  1  0
 15 16  1  0
 16 17  1  0
 17 18  1  0
 18 19  1  0
  2 20  1  0
 20 21  2  0
 21 22  1  0
 22 23  2  0
 23 24  1  0
 24 25  2  0
 25 26  1  0
 25 27  1  0
 27 28  2  0
 28 29  1  0
 29 30  2  0
 12  7  1  0
 19 14  1  0
 30 20  1  0
 29 23  1  0
  3 31  1  0
  4 32  1  0
  4 33  1  0
  8 34  1  0
  8 35  1  0
  9 36  1  0
  9 37  1  0
 10 38  1  0
 10 39  1  0
 11 40  1  0
 11 41  1  0
 12 42  1  6
 13 43  1  0
 13 44  1  0
 15 45  1  0
 15 46  1  0
 16 47  1  0
 16 48  1  0
 17 49  1  0
 17 50  1  0
 18 51  1  0
 18 52  1  0
 19 53  1  0
 19 54  1  0
 21 55  1  0
 22 56  1  0
 24 57  1  0
 27 58  1  0
 28 59  1  0
M  END
>  <smiles>  (44) 
O=C(NCC(=O)N1CCCC[C@H]1CN1CCCCC1)c1ccc2cc(F)ccc2n1

>  <score_type>  (44) 
oracle

>  <origin>  (44) 
autodockgpu

>  <m_score__min__energy>  (44) 
-8.6999999999999993

>  <m_primary>  (44) 
energy

>  <rmsd>  (44) 
6.122191421676019

>  <m_score__min__rmsd>  (44) 
6.122191421676019

>  <meeko>  (44) 
{"free_energy": -6.02, "intermolecular_energy": -7.81, "internal_energy": -3.92, "cluster_size": 8, "cluster_id": 7, "rank_in_cluster": 8}

>  <energy>  (44) 
-6.56

>  <cluster_rmsd>  (44) 
0.11

>  <cluster>  (44) 
7

$$$$

     RDKit          3D

 59 62  0  0  0  0  0  0  0  0999 V2000
  141.1080   72.9820  222.1860 O   0  0  0  0  0  0  0  0  0  0  0  0
  140.0450   72.6370  222.7170 C   0  0  0  0  0  0  0  0  0  0  0  0
  138.8350   73.2610  222.3540 N   0  0  0  0  0  0  0  0  0  0  0  0
  138.6770   74.3140  221.3880 C   0  0  0  0  0  0  0  0  0  0  0  0
  139.1050   75.6440  221.9390 C   0  0  0  0  0  0  0  0  0  0  0  0
  140.3010   75.9820  221.9660 O   0  0  0  0  0  0  0  0  0  0  0  0
  138.0540   76.5040  222.4320 N   0  0  0  0  0  0  0  0  0  0  0  0
  136.8660   75.9460  223.0830 C   0  0  0  0  0  0  0  0  0  0  0  0
  135.6830   76.6070  222.3520 C   0  0  0  0  0  0  0  0  0  0  0  0
  135.7330   78.0480  222.8700 C   0  0  0  0  0  0  0  0  0  0  0  0
  136.8940   78.6850  222.2010 C   0  0  0  0  0  0  0  0  0  0  0  0
  138.1870   77.9000  222.2380 C   0  0  1  0  0  0  0  0  0  0  0  0
  139.2390   78.6380  222.9980 C   0  0  0  0  0  0  0  0  0  0  0  0
  140.5300   78.7790  222.4090 N   0  0  0  0  0  0  0  0  0  0  0  0
  141.5840   78.5120  223.4160 C   0  0  0  0  0  0  0  0  0  0  0  0
  142.2170   79.7680  223.9390 C   0  0  0  0  0  0  0  0  0  0  0  0
  142.9420   80.5250  222.8320 C   0  0  0  0  0  0  0  0  0  0  0  0
  142.2050   80.2460  221.5250 C   0  0  0  0  0  0  0  0  0  0  0  0
  140.7270   80.1600  221.9440 C   0  0  0  0  0  0  0  0  0  0  0  0
  140.0090   71.5680  223.7390 C   0  0  0  0  0  0  0  0  0  0  0  0
  139.4810   70.3360  223.5130 C   0  0  0  0  0  0  0  0  0  0  0  0
  139.4530   69.3520  224.4800 C   0  0  0  0  0  0  0  0  0  0  0  0
  139.9920   69.6540  225.7290 C   0  0  0  0  0  0  0  0  0  0  0  0
  139.9860   68.6980  226.7240 C   0  0  0  0  0  0  0  0  0  0  0  0
  140.5310   69.0360  227.9520 C   0  0  0  0  0  0  0  0  0  0  0  0
  140.5410   68.1130  228.9670 F   0  0  0  0  0  0  0  0  0  0  0  0
  141.0690   70.2850  228.1810 C   0  0  0  0  0  0  0  0  0  0  0  0
  141.0800   71.2510  227.1910 C   0  0  0  0  0  0  0  0  0  0  0  0
  140.5310   70.9030  225.9650 C   0  0  0  0  0  0  0  0  0  0  0  0
  140.5200   71.8050  224.9720 N   0  0  0  0  0  0  0  0  0  0  0  0
  137.9640   72.9230  222.8340 H   0  0  0  0  0  0  0  0  0  0  0  0
  139.2887   74.0811  220.5039 H   0  0  0  0  0  0  0  0  0  0  0  0
  137.6111   74.3797  221.1245 H   0  0  0  0  0  0  0  0  0  0  0  0
  136.8347   74.8528  222.9650 H   0  0  0  0  0  0  0  0  0  0  0  0
  136.8511   76.1397  224.1657 H   0  0  0  0  0  0  0  0  0  0  0  0
  135.8207   76.5722  221.2612 H   0  0  0  0  0  0  0  0  0  0  0  0
  134.7202   76.1085  222.5378 H   0  0  0  0  0  0  0  0  0  0  0  0
  134.8049   78.5790  222.6118 H   0  0  0  0  0  0  0  0  0  0  0  0
  135.8334   78.0784  223.9650 H   0  0  0  0  0  0  0  0  0  0  0  0
  136.6281   78.8480  221.1461 H   0  0  0  0  0  0  0  0  0  0  0  0
  137.0905   79.6112  222.7609 H   0  0  0  0  0  0  0  0  0  0  0  0
  138.5884   77.8555  221.2148 H   0  0  0  0  0  0  0  0  0  0  0  0
  138.8544   79.6516  223.1843 H   0  0  0  0  0  0  0  0  0  0  0  0
  139.4151   78.0160  223.8880 H   0  0  0  0  0  0  0  0  0  0  0  0
  141.1350   77.9668  224.2593 H   0  0  0  0  0  0  0  0  0  0  0  0
  142.3720   77.9229  222.9239 H   0  0  0  0  0  0  0  0  0  0  0  0
  141.4341   80.4146  224.3619 H   0  0  0  0  0  0  0  0  0  0  0  0
  142.9517   79.4918  224.7096 H   0  0  0  0  0  0  0  0  0  0  0  0
  142.9314   81.6039  223.0460 H   0  0  0  0  0  0  0  0  0  0  0  0
  143.9901   80.1986  222.7624 H   0  0  0  0  0  0  0  0  0  0  0  0
  142.3608   81.0635  220.8057 H   0  0  0  0  0  0  0  0  0  0  0  0
  142.5581   79.3315  221.0260 H   0  0  0  0  0  0  0  0  0  0  0  0
  140.5152   80.8725  222.7548 H   0  0  0  0  0  0  0  0  0  0  0  0
  140.0519   80.4108  221.1125 H   0  0  0  0  0  0  0  0  0  0  0  0
  139.0599   70.1149  222.5212 H   0  0  0  0  0  0  0  0  0  0  0  0
  139.0198   68.3625  224.2719 H   0  0  0  0  0  0  0  0  0  0  0  0
  139.5616   67.6986  226.5476 H   0  0  0  0  0  0  0  0  0  0  0  0
  141.4966   70.5170  229.1676 H   0  0  0  0  0  0  0  0  0  0  0  0
  141.5049   72.2501  227.3676 H   0  0  0  0  0  0  0  0  0  0  0  0
  1  2  2  0
  2  3  1  0
  3  4  1  0
  4  5  1  0
  5  6  2  0
  5  7  1  0
  7  8  1  0
  8  9  1  0
  9 10  1  0
 10 11  1  0
 11 12  1  0
 12 13  1  0
 13 14  1  0
 14 15  1  0
 15 16  1  0
 16 17  1  0
 17 18  1  0
 18 19  1  0
  2 20  1  0
 20 21  2  0
 21 22  1  0
 22 23  2  0
 23 24  1  0
 24 25  2  0
 25 26  1  0
 25 27  1  0
 27 28  2  0
 28 29  1  0
 29 30  2  0
 12  7  1  0
 19 14  1  0
 30 20  1  0
 29 23  1  0
  3 31  1  0
  4 32  1  0
  4 33  1  0
  8 34  1  0
  8 35  1  0
  9 36  1  0
  9 37  1  0
 10 38  1  0
 10 39  1  0
 11 40  1  0
 11 41  1  0
 12 42  1  6
 13 43  1  0
 13 44  1  0
 15 45  1  0
 15 46  1  0
 16 47  1  0
 16 48  1  0
 17 49  1  0
 17 50  1  0
 18 51  1  0
 18 52  1  0
 19 53  1  0
 19 54  1  0
 21 55  1  0
 22 56  1  0
 24 57  1  0
 27 58  1  0
 28 59  1  0
M  END
>  <smiles>  (45) 
O=C(NCC(=O)N1CCCC[C@H]1CN1CCCCC1)c1ccc2cc(F)ccc2n1

>  <score_type>  (45) 
oracle

>  <origin>  (45) 
autodockgpu

>  <m_score__min__energy>  (45) 
-8.6999999999999993

>  <m_primary>  (45) 
energy

>  <rmsd>  (45) 
3.255752675863824

>  <m_score__min__rmsd>  (45) 
3.255752675863824

>  <meeko>  (45) 
{"free_energy": -8.58, "intermolecular_energy": -10.37, "internal_energy": -1.34, "cluster_size": 24, "cluster_id": 1, "rank_in_cluster": 4}

>  <energy>  (45) 
-6.55

>  <cluster_rmsd>  (45) 
0.11

>  <cluster>  (45) 
7

$$$$

     RDKit          3D

 59 62  0  0  0  0  0  0  0  0999 V2000
  140.3150   73.6400  222.3210 O   0  0  0  0  0  0  0  0  0  0  0  0
  140.3120   72.4100  222.1890 C   0  0  0  0  0  0  0  0  0  0  0  0
  140.4570   71.8320  220.9130 N   0  0  0  0  0  0  0  0  0  0  0  0
  140.6130   72.5400  219.6710 C   0  0  0  0  0  0  0  0  0  0  0  0
  141.9060   72.1930  218.9910 C   0  0  0  0  0  0  0  0  0  0  0  0
  141.9320   71.7680  217.8220 O   0  0  0  0  0  0  0  0  0  0  0  0
  143.1110   72.3820  219.7640 N   0  0  0  0  0  0  0  0  0  0  0  0
  143.2040   73.4450  220.7700 C   0  0  0  0  0  0  0  0  0  0  0  0
  144.5130   74.1810  220.4270 C   0  0  0  0  0  0  0  0  0  0  0  0
  145.5840   73.1780  220.8660 C   0  0  0  0  0  0  0  0  0  0  0  0
  145.5740   72.0950  219.8500 C   0  0  0  0  0  0  0  0  0  0  0  0
  144.2130   71.5330  219.5020 C   0  0  1  0  0  0  0  0  0  0  0  0
  144.1200   70.0910  219.8760 C   0  0  0  0  0  0  0  0  0  0  0  0
  145.2460   69.2510  219.6290 N   0  0  0  0  0  0  0  0  0  0  0  0
  145.7310   69.4400  218.2410 C   0  0  0  0  0  0  0  0  0  0  0  0
  145.3100   68.3280  217.3250 C   0  0  0  0  0  0  0  0  0  0  0  0
  145.9180   66.9980  217.7550 C   0  0  0  0  0  0  0  0  0  0  0  0
  146.0810   67.0350  219.2710 C   0  0  0  0  0  0  0  0  0  0  0  0
  144.8620   67.8370  219.7560 C   0  0  0  0  0  0  0  0  0  0  0  0
  140.1590   71.5140  223.3570 C   0  0  0  0  0  0  0  0  0  0  0  0
  139.5570   70.2960  223.2900 C   0  0  0  0  0  0  0  0  0  0  0  0
  139.4200   69.4760  224.3900 C   0  0  0  0  0  0  0  0  0  0  0  0
  139.9260   69.9310  225.6070 C   0  0  0  0  0  0  0  0  0  0  0  0
  139.8110   69.1400  226.7320 C   0  0  0  0  0  0  0  0  0  0  0  0
  140.3260   69.6260  227.9220 C   0  0  0  0  0  0  0  0  0  0  0  0
  140.2290   68.8700  229.0630 F   0  0  0  0  0  0  0  0  0  0  0  0
  140.9380   70.8610  227.9900 C   0  0  0  0  0  0  0  0  0  0  0  0
  141.0580   71.6610  226.8680 C   0  0  0  0  0  0  0  0  0  0  0  0
  140.5390   71.1650  225.6820 C   0  0  0  0  0  0  0  0  0  0  0  0
  140.6330   71.9040  224.5650 N   0  0  0  0  0  0  0  0  0  0  0  0
  140.4520   70.7830  220.8630 H   0  0  0  0  0  0  0  0  0  0  0  0
  139.7783   72.2779  219.0042 H   0  0  0  0  0  0  0  0  0  0  0  0
  140.6199   73.6180  219.8900 H   0  0  0  0  0  0  0  0  0  0  0  0
  142.3435   74.1264  220.6975 H   0  0  0  0  0  0  0  0  0  0  0  0
  143.1997   73.0524  221.7975 H   0  0  0  0  0  0  0  0  0  0  0  0
  144.5812   74.3886  219.3489 H   0  0  0  0  0  0  0  0  0  0  0  0
  144.6049   75.1619  220.9162 H   0  0  0  0  0  0  0  0  0  0  0  0
  146.5710   73.6627  220.8979 H   0  0  0  0  0  0  0  0  0  0  0  0
  145.3795   72.7863  221.8734 H   0  0  0  0  0  0  0  0  0  0  0  0
  146.0209   72.4934  218.9272 H   0  0  0  0  0  0  0  0  0  0  0  0
  146.1371   71.2616  220.2953 H   0  0  0  0  0  0  0  0  0  0  0  0
  144.1163   71.5246  218.4063 H   0  0  0  0  0  0  0  0  0  0  0  0
  143.9131   70.0480  220.9555 H   0  0  0  0  0  0  0  0  0  0  0  0
  143.3354   69.6913  219.2167 H   0  0  0  0  0  0  0  0  0  0  0  0
  145.3282   70.3873  217.8532 H   0  0  0  0  0  0  0  0  0  0  0  0
  146.8306   69.4481  218.2710 H   0  0  0  0  0  0  0  0  0  0  0  0
  144.2134   68.2437  217.3437 H   0  0  0  0  0  0  0  0  0  0  0  0
  145.6644   68.5605  216.3099 H   0  0  0  0  0  0  0  0  0  0  0  0
  145.2514   66.1709  217.4694 H   0  0  0  0  0  0  0  0  0  0  0  0
  146.8904   66.8411  217.2653 H   0  0  0  0  0  0  0  0  0  0  0  0
  146.0721   66.0181  219.6903 H   0  0  0  0  0  0  0  0  0  0  0  0
  147.0352   67.4841  219.5837 H   0  0  0  0  0  0  0  0  0  0  0  0
  143.9845   67.6192  219.1294 H   0  0  0  0  0  0  0  0  0  0  0  0
  144.5893   67.5795  220.7901 H   0  0  0  0  0  0  0  0  0  0  0  0
  139.1646   69.9522  222.3216 H   0  0  0  0  0  0  0  0  0  0  0  0
  138.9279   68.4955  224.3101 H   0  0  0  0  0  0  0  0  0  0  0  0
  139.3254   68.1541  226.6849 H   0  0  0  0  0  0  0  0  0  0  0  0
  141.3369   71.2150  228.9521 H   0  0  0  0  0  0  0  0  0  0  0  0
  141.5436   72.6469  226.9147 H   0  0  0  0  0  0  0  0  0  0  0  0
  1  2  2  0
  2  3  1  0
  3  4  1  0
  4  5  1  0
  5  6  2  0
  5  7  1  0
  7  8  1  0
  8  9  1  0
  9 10  1  0
 10 11  1  0
 11 12  1  0
 12 13  1  0
 13 14  1  0
 14 15  1  0
 15 16  1  0
 16 17  1  0
 17 18  1  0
 18 19  1  0
  2 20  1  0
 20 21  2  0
 21 22  1  0
 22 23  2  0
 23 24  1  0
 24 25  2  0
 25 26  1  0
 25 27  1  0
 27 28  2  0
 28 29  1  0
 29 30  2  0
 12  7  1  0
 19 14  1  0
 30 20  1  0
 29 23  1  0
  3 31  1  0
  4 32  1  0
  4 33  1  0
  8 34  1  0
  8 35  1  0
  9 36  1  0
  9 37  1  0
 10 38  1  0
 10 39  1  0
 11 40  1  0
 11 41  1  0
 12 42  1  6
 13 43  1  0
 13 44  1  0
 15 45  1  0
 15 46  1  0
 16 47  1  0
 16 48  1  0
 17 49  1  0
 17 50  1  0
 18 51  1  0
 18 52  1  0
 19 53  1  0
 19 54  1  0
 21 55  1  0
 22 56  1  0
 24 57  1  0
 27 58  1  0
 28 59  1  0
M  END
>  <smiles>  (46) 
O=C(NCC(=O)N1CCCC[C@H]1CN1CCCCC1)c1ccc2cc(F)ccc2n1

>  <score_type>  (46) 
oracle

>  <origin>  (46) 
autodockgpu

>  <m_score__min__energy>  (46) 
-8.6999999999999993

>  <m_primary>  (46) 
energy

>  <rmsd>  (46) 
7.279892951896712

>  <m_score__min__rmsd>  (46) 
7.279892951896712

>  <meeko>  (46) 
{"free_energy": -8.42, "intermolecular_energy": -10.21, "internal_energy": -1.5, "cluster_size": 2, "cluster_id": 2, "rank_in_cluster": 1}

>  <energy>  (46) 
-6.53

>  <cluster_rmsd>  (46) 
0.15

>  <cluster>  (46) 
7

$$$$

     RDKit          3D

 59 62  0  0  0  0  0  0  0  0999 V2000
  139.1040   71.0220  221.0450 O   0  0  0  0  0  0  0  0  0  0  0  0
  139.3070   71.5390  222.1500 C   0  0  0  0  0  0  0  0  0  0  0  0
  139.4080   72.9390  222.2700 N   0  0  0  0  0  0  0  0  0  0  0  0
  139.3000   73.8940  221.2010 C   0  0  0  0  0  0  0  0  0  0  0  0
  139.9750   75.1920  221.5430 C   0  0  0  0  0  0  0  0  0  0  0  0
  139.9270   75.6670  222.6920 O   0  0  0  0  0  0  0  0  0  0  0  0
  140.6800   75.8540  220.4700 N   0  0  0  0  0  0  0  0  0  0  0  0
  140.8300   75.2150  219.1590 C   0  0  0  0  0  0  0  0  0  0  0  0
  142.3370   75.3120  218.8570 C   0  0  0  0  0  0  0  0  0  0  0  0
  142.5200   76.8020  218.5530 C   0  0  0  0  0  0  0  0  0  0  0  0
  142.4300   77.5020  219.8580 C   0  0  0  0  0  0  0  0  0  0  0  0
  141.2510   77.1220  220.7280 C   0  0  1  0  0  0  0  0  0  0  0  0
  140.3480   78.2920  220.9450 C   0  0  0  0  0  0  0  0  0  0  0  0
  140.5080   79.0610  222.1350 N   0  0  0  0  0  0  0  0  0  0  0  0
  141.0860   80.3880  221.8130 C   0  0  0  0  0  0  0  0  0  0  0  0
  142.5490   80.4740  222.1370 C   0  0  0  0  0  0  0  0  0  0  0  0
  142.7950   80.3130  223.6330 C   0  0  0  0  0  0  0  0  0  0  0  0
  141.7030   79.4010  224.1830 C   0  0  0  0  0  0  0  0  0  0  0  0
  141.4510   78.3960  223.0460 C   0  0  0  0  0  0  0  0  0  0  0  0
  139.4500   70.7140  223.3700 C   0  0  0  0  0  0  0  0  0  0  0  0
  139.0540   69.4150  223.4430 C   0  0  0  0  0  0  0  0  0  0  0  0
  139.1910   68.6620  224.5900 C   0  0  0  0  0  0  0  0  0  0  0  0
  139.7600   69.2750  225.7060 C   0  0  0  0  0  0  0  0  0  0  0  0
  139.9170   68.5570  226.8730 C   0  0  0  0  0  0  0  0  0  0  0  0
  140.4870   69.2000  227.9590 C   0  0  0  0  0  0  0  0  0  0  0  0
  140.6570   68.5200  229.1390 F   0  0  0  0  0  0  0  0  0  0  0  0
  140.8890   70.5170  227.8850 C   0  0  0  0  0  0  0  0  0  0  0  0
  140.7360   71.2470  226.7200 C   0  0  0  0  0  0  0  0  0  0  0  0
  140.1640   70.5930  225.6380 C   0  0  0  0  0  0  0  0  0  0  0  0
  139.9970   71.2580  224.4840 N   0  0  0  0  0  0  0  0  0  0  0  0
  139.5770   73.3220  223.2330 H   0  0  0  0  0  0  0  0  0  0  0  0
  139.7707   73.4744  220.2997 H   0  0  0  0  0  0  0  0  0  0  0  0
  138.2325   74.0978  221.0308 H   0  0  0  0  0  0  0  0  0  0  0  0
  140.5077   74.1640  219.1989 H   0  0  0  0  0  0  0  0  0  0  0  0
  140.2149   75.6965  218.3845 H   0  0  0  0  0  0  0  0  0  0  0  0
  142.9370   75.0074  219.7271 H   0  0  0  0  0  0  0  0  0  0  0  0
  142.6628   74.6544  218.0376 H   0  0  0  0  0  0  0  0  0  0  0  0
  143.5025   76.9796  218.0914 H   0  0  0  0  0  0  0  0  0  0  0  0
  141.7572   77.1652  217.8486 H   0  0  0  0  0  0  0  0  0  0  0  0
  143.3494   77.2853  220.4216 H   0  0  0  0  0  0  0  0  0  0  0  0
  142.2938   78.5668  219.6178 H   0  0  0  0  0  0  0  0  0  0  0  0
  141.6288   76.8951  221.7359 H   0  0  0  0  0  0  0  0  0  0  0  0
  140.4910   78.9751  220.0948 H   0  0  0  0  0  0  0  0  0  0  0  0
  139.3472   77.8462  221.0439 H   0  0  0  0  0  0  0  0  0  0  0  0
  140.9513   80.5796  220.7382 H   0  0  0  0  0  0  0  0  0  0  0  0
  140.5641   81.1367  222.4270 H   0  0  0  0  0  0  0  0  0  0  0  0
  143.0828   79.6773  221.5982 H   0  0  0  0  0  0  0  0  0  0  0  0
  142.9153   81.4645  221.8293 H   0  0  0  0  0  0  0  0  0  0  0  0
  143.7831   79.8610  223.8044 H   0  0  0  0  0  0  0  0  0  0  0  0
  142.7722   81.2909  224.1363 H   0  0  0  0  0  0  0  0  0  0  0  0
  142.0454   78.8852  225.0922 H   0  0  0  0  0  0  0  0  0  0  0  0
  140.7954   79.9522  224.4701 H   0  0  0  0  0  0  0  0  0  0  0  0
  142.3906   78.1631  222.5236 H   0  0  0  0  0  0  0  0  0  0  0  0
  141.0500   77.4442  223.4244 H   0  0  0  0  0  0  0  0  0  0  0  0
  138.6074   68.9472  222.5532 H   0  0  0  0  0  0  0  0  0  0  0  0
  138.8624   67.6128  224.6236 H   0  0  0  0  0  0  0  0  0  0  0  0
  139.5993   67.5060  226.9391 H   0  0  0  0  0  0  0  0  0  0  0  0
  141.3391   70.9952  228.7675 H   0  0  0  0  0  0  0  0  0  0  0  0
  141.0533   72.2982  226.6543 H   0  0  0  0  0  0  0  0  0  0  0  0
  1  2  2  0
  2  3  1  0
  3  4  1  0
  4  5  1  0
  5  6  2  0
  5  7  1  0
  7  8  1  0
  8  9  1  0
  9 10  1  0
 10 11  1  0
 11 12  1  0
 12 13  1  0
 13 14  1  0
 14 15  1  0
 15 16  1  0
 16 17  1  0
 17 18  1  0
 18 19  1  0
  2 20  1  0
 20 21  2  0
 21 22  1  0
 22 23  2  0
 23 24  1  0
 24 25  2  0
 25 26  1  0
 25 27  1  0
 27 28  2  0
 28 29  1  0
 29 30  2  0
 12  7  1  0
 19 14  1  0
 30 20  1  0
 29 23  1  0
  3 31  1  0
  4 32  1  0
  4 33  1  0
  8 34  1  0
  8 35  1  0
  9 36  1  0
  9 37  1  0
 10 38  1  0
 10 39  1  0
 11 40  1  0
 11 41  1  0
 12 42  1  1
 13 43  1  0
 13 44  1  0
 15 45  1  0
 15 46  1  0
 16 47  1  0
 16 48  1  0
 17 49  1  0
 17 50  1  0
 18 51  1  0
 18 52  1  0
 19 53  1  0
 19 54  1  0
 21 55  1  0
 22 56  1  0
 24 57  1  0
 27 58  1  0
 28 59  1  0
M  END
>  <smiles>  (47) 
O=C(NCC(=O)N1CCCC[C@H]1CN1CCCCC1)c1ccc2cc(F)ccc2n1

>  <score_type>  (47) 
oracle

>  <origin>  (47) 
autodockgpu

>  <m_score__min__energy>  (47) 
-8.6999999999999993

>  <m_primary>  (47) 
energy

>  <rmsd>  (47) 
2.276134113475686

>  <m_score__min__rmsd>  (47) 
2.276134113475686

>  <meeko>  (47) 
{"free_energy": -8.34, "intermolecular_energy": -10.13, "internal_energy": -2.11, "cluster_size": 24, "cluster_id": 1, "rank_in_cluster": 14}

>  <energy>  (47) 
-6.51

>  <cluster_rmsd>  (47) 
0.17

>  <cluster>  (47) 
7

$$$$

     RDKit          3D

 59 62  0  0  0  0  0  0  0  0999 V2000
  139.4820   71.1210  220.9630 O   0  0  0  0  0  0  0  0  0  0  0  0
  139.5320   71.6500  222.0800 C   0  0  0  0  0  0  0  0  0  0  0  0
  139.5420   73.0530  222.2010 N   0  0  0  0  0  0  0  0  0  0  0  0
  139.5020   74.0000  221.1200 C   0  0  0  0  0  0  0  0  0  0  0  0
  140.0560   75.3350  221.5280 C   0  0  0  0  0  0  0  0  0  0  0  0
  140.0860   75.6910  222.7190 O   0  0  0  0  0  0  0  0  0  0  0  0
  140.5510   76.1790  220.4650 N   0  0  0  0  0  0  0  0  0  0  0  0
  140.4040   75.7860  219.0600 C   0  0  0  0  0  0  0  0  0  0  0  0
  141.8200   75.9340  218.4710 C   0  0  0  0  0  0  0  0  0  0  0  0
  141.9950   77.4540  218.4030 C   0  0  0  0  0  0  0  0  0  0  0  0
  142.2020   77.9080  219.8010 C   0  0  0  0  0  0  0  0  0  0  0  0
  141.2130   77.3790  220.8160 C   0  0  1  0  0  0  0  0  0  0  0  0
  140.4200   78.4920  221.4190 C   0  0  0  0  0  0  0  0  0  0  0  0
  140.8420   79.0240  222.6740 N   0  0  0  0  0  0  0  0  0  0  0  0
  140.1380   80.2980  222.9520 C   0  0  0  0  0  0  0  0  0  0  0  0
  140.9990   81.5010  222.6980 C   0  0  0  0  0  0  0  0  0  0  0  0
  142.2020   81.5280  223.6340 C   0  0  0  0  0  0  0  0  0  0  0  0
  142.5730   80.0810  223.9470 C   0  0  0  0  0  0  0  0  0  0  0  0
  142.2790   79.3310  222.6360 C   0  0  0  0  0  0  0  0  0  0  0  0
  139.5830   70.8350  223.3140 C   0  0  0  0  0  0  0  0  0  0  0  0
  139.1440   69.5500  223.3790 C   0  0  0  0  0  0  0  0  0  0  0  0
  139.1950   68.8060  224.5390 C   0  0  0  0  0  0  0  0  0  0  0  0
  139.7220   69.4150  225.6780 C   0  0  0  0  0  0  0  0  0  0  0  0
  139.7930   68.7050  226.8590 C   0  0  0  0  0  0  0  0  0  0  0  0
  140.3230   69.3440  227.9680 C   0  0  0  0  0  0  0  0  0  0  0  0
  140.4090   68.6720  229.1620 F   0  0  0  0  0  0  0  0  0  0  0  0
  140.7700   70.6470  227.9030 C   0  0  0  0  0  0  0  0  0  0  0  0
  140.7030   71.3670  226.7230 C   0  0  0  0  0  0  0  0  0  0  0  0
  140.1700   70.7190  225.6190 C   0  0  0  0  0  0  0  0  0  0  0  0
  140.0860   71.3750  224.4520 N   0  0  0  0  0  0  0  0  0  0  0  0
  139.5810   73.4460  223.1740 H   0  0  0  0  0  0  0  0  0  0  0  0
  140.0969   73.6087  220.2815 H   0  0  0  0  0  0  0  0  0  0  0  0
  138.4511   74.1407  220.8271 H   0  0  0  0  0  0  0  0  0  0  0  0
  140.0564   74.7454  218.9811 H   0  0  0  0  0  0  0  0  0  0  0  0
  139.6622   76.3999  218.5281 H   0  0  0  0  0  0  0  0  0  0  0  0
  142.5737   75.4763  219.1286 H   0  0  0  0  0  0  0  0  0  0  0  0
  141.9443   75.4349  217.4987 H   0  0  0  0  0  0  0  0  0  0  0  0
  142.8682   77.7104  217.7852 H   0  0  0  0  0  0  0  0  0  0  0  0
  141.1186   77.9393  217.9487 H   0  0  0  0  0  0  0  0  0  0  0  0
  143.2083   77.5922  220.1133 H   0  0  0  0  0  0  0  0  0  0  0  0
  142.0613   78.9989  219.7858 H   0  0  0  0  0  0  0  0  0  0  0  0
  141.7816   76.9726  221.6654 H   0  0  0  0  0  0  0  0  0  0  0  0
  140.4228   79.3216  220.6967 H   0  0  0  0  0  0  0  0  0  0  0  0
  139.4399   78.0405  221.6327 H   0  0  0  0  0  0  0  0  0  0  0  0
  139.2497   80.3578  222.3059 H   0  0  0  0  0  0  0  0  0  0  0  0
  139.8658   80.3024  224.0178 H   0  0  0  0  0  0  0  0  0  0  0  0
  141.3549   81.4738  221.6575 H   0  0  0  0  0  0  0  0  0  0  0  0
  140.3971   82.4036  222.8796 H   0  0  0  0  0  0  0  0  0  0  0  0
  143.0469   82.0349  223.1450 H   0  0  0  0  0  0  0  0  0  0  0  0
  141.9616   82.0746  224.5578 H   0  0  0  0  0  0  0  0  0  0  0  0
  143.6368   79.9990  224.2146 H   0  0  0  0  0  0  0  0  0  0  0  0
  142.0129   79.6752  224.8023 H   0  0  0  0  0  0  0  0  0  0  0  0
  142.5139   79.9657  221.7688 H   0  0  0  0  0  0  0  0  0  0  0  0
  142.8888   78.4205  222.5407 H   0  0  0  0  0  0  0  0  0  0  0  0
  138.7320   69.0856  222.4709 H   0  0  0  0  0  0  0  0  0  0  0  0
  138.8325   67.7678  224.5652 H   0  0  0  0  0  0  0  0  0  0  0  0
  139.4400   67.6648  226.9180 H   0  0  0  0  0  0  0  0  0  0  0  0
  141.1865   71.1217  228.8036 H   0  0  0  0  0  0  0  0  0  0  0  0
  141.0568   72.4069  226.6635 H   0  0  0  0  0  0  0  0  0  0  0  0
  1  2  2  0
  2  3  1  0
  3  4  1  0
  4  5  1  0
  5  6  2  0
  5  7  1  0
  7  8  1  0
  8  9  1  0
  9 10  1  0
 10 11  1  0
 11 12  1  0
 12 13  1  0
 13 14  1  0
 14 15  1  0
 15 16  1  0
 16 17  1  0
 17 18  1  0
 18 19  1  0
  2 20  1  0
 20 21  2  0
 21 22  1  0
 22 23  2  0
 23 24  1  0
 24 25  2  0
 25 26  1  0
 25 27  1  0
 27 28  2  0
 28 29  1  0
 29 30  2  0
 12  7  1  0
 19 14  1  0
 30 20  1  0
 29 23  1  0
  3 31  1  0
  4 32  1  0
  4 33  1  0
  8 34  1  0
  8 35  1  0
  9 36  1  0
  9 37  1  0
 10 38  1  0
 10 39  1  0
 11 40  1  0
 11 41  1  0
 12 42  1  1
 13 43  1  0
 13 44  1  0
 15 45  1  0
 15 46  1  0
 16 47  1  0
 16 48  1  0
 17 49  1  0
 17 50  1  0
 18 51  1  0
 18 52  1  0
 19 53  1  0
 19 54  1  0
 21 55  1  0
 22 56  1  0
 24 57  1  0
 27 58  1  0
 28 59  1  0
M  END
>  <smiles>  (48) 
O=C(NCC(=O)N1CCCC[C@H]1CN1CCCCC1)c1ccc2cc(F)ccc2n1

>  <score_type>  (48) 
oracle

>  <origin>  (48) 
autodockgpu

>  <m_score__min__energy>  (48) 
-8.6999999999999993

>  <m_primary>  (48) 
energy

>  <rmsd>  (48) 
2.0987528963075373

>  <m_score__min__rmsd>  (48) 
2.0987528963075373

>  <meeko>  (48) 
{"free_energy": -8.29, "intermolecular_energy": -10.08, "internal_energy": -1.97, "cluster_size": 24, "cluster_id": 1, "rank_in_cluster": 16}

>  <energy>  (48) 
-6.07

>  <cluster_rmsd>  (48) 
1.39

>  <cluster>  (48) 
7

$$$$

     RDKit          3D

 59 62  0  0  0  0  0  0  0  0999 V2000
  139.0420   71.1160  221.0070 O   0  0  0  0  0  0  0  0  0  0  0  0
  139.2690   71.6400  222.1040 C   0  0  0  0  0  0  0  0  0  0  0  0
  139.3820   73.0400  222.2110 N   0  0  0  0  0  0  0  0  0  0  0  0
  139.2620   73.9880  221.1380 C   0  0  0  0  0  0  0  0  0  0  0  0
  140.1350   75.1910  221.3560 C   0  0  0  0  0  0  0  0  0  0  0  0
  140.2130   75.7450  222.4660 O   0  0  0  0  0  0  0  0  0  0  0  0
  140.8750   75.6650  220.2100 N   0  0  0  0  0  0  0  0  0  0  0  0
  140.6600   75.0860  218.8800 C   0  0  0  0  0  0  0  0  0  0  0  0
  142.0750   74.7350  218.3830 C   0  0  0  0  0  0  0  0  0  0  0  0
  142.6740   76.1120  218.0820 C   0  0  0  0  0  0  0  0  0  0  0  0
  142.9640   76.7310  219.3990 C   0  0  0  0  0  0  0  0  0  0  0  0
  141.8390   76.6810  220.4110 C   0  0  1  0  0  0  0  0  0  0  0  0
  141.3780   78.0560  220.7640 C   0  0  0  0  0  0  0  0  0  0  0  0
  142.0700   78.7620  221.7930 N   0  0  0  0  0  0  0  0  0  0  0  0
  141.4530   78.4800  223.1110 C   0  0  0  0  0  0  0  0  0  0  0  0
  140.5820   79.6030  223.5930 C   0  0  0  0  0  0  0  0  0  0  0  0
  141.3940   80.8730  223.8250 C   0  0  0  0  0  0  0  0  0  0  0  0
  142.5550   80.8630  222.8350 C   0  0  0  0  0  0  0  0  0  0  0  0
  141.9620   80.2120  221.5740 C   0  0  0  0  0  0  0  0  0  0  0  0
  139.4280   70.8230  223.3270 C   0  0  0  0  0  0  0  0  0  0  0  0
  139.0390   69.5220  223.4120 C   0  0  0  0  0  0  0  0  0  0  0  0
  139.1910   68.7770  224.5620 C   0  0  0  0  0  0  0  0  0  0  0  0
  139.7690   69.3990  225.6680 C   0  0  0  0  0  0  0  0  0  0  0  0
  139.9400   68.6880  226.8380 C   0  0  0  0  0  0  0  0  0  0  0  0
  140.5180   69.3410  227.9150 C   0  0  0  0  0  0  0  0  0  0  0  0
  140.7040   68.6690  229.0960 F   0  0  0  0  0  0  0  0  0  0  0  0
  140.9140   70.6600  227.8290 C   0  0  0  0  0  0  0  0  0  0  0  0
  140.7460   71.3810  226.6600 C   0  0  0  0  0  0  0  0  0  0  0  0
  140.1660   70.7190  225.5890 C   0  0  0  0  0  0  0  0  0  0  0  0
  139.9830   71.3760  224.4330 N   0  0  0  0  0  0  0  0  0  0  0  0
  139.5710   73.4290  223.1680 H   0  0  0  0  0  0  0  0  0  0  0  0
  139.5566   73.5001  220.1972 H   0  0  0  0  0  0  0  0  0  0  0  0
  138.2164   74.3273  221.0969 H   0  0  0  0  0  0  0  0  0  0  0  0
  140.0349   74.1832  218.9447 H   0  0  0  0  0  0  0  0  0  0  0  0
  140.1359   75.7754  218.2018 H   0  0  0  0  0  0  0  0  0  0  0  0
  142.6511   74.2128  219.1611 H   0  0  0  0  0  0  0  0  0  0  0  0
  142.0790   74.0571  217.5167 H   0  0  0  0  0  0  0  0  0  0  0  0
  143.5999   76.0062  217.4977 H   0  0  0  0  0  0  0  0  0  0  0  0
  141.9829   76.7305  217.4906 H   0  0  0  0  0  0  0  0  0  0  0  0
  143.8316   76.2120  219.8325 H   0  0  0  0  0  0  0  0  0  0  0  0
  143.1374   77.7982  219.1965 H   0  0  0  0  0  0  0  0  0  0  0  0
  142.2459   76.2921  221.3561 H   0  0  0  0  0  0  0  0  0  0  0  0
  141.4444   78.6654  219.8507 H   0  0  0  0  0  0  0  0  0  0  0  0
  140.3680   77.9052  221.1728 H   0  0  0  0  0  0  0  0  0  0  0  0
  140.8401   77.5706  223.0256 H   0  0  0  0  0  0  0  0  0  0  0  0
  142.2673   78.3538  223.8397 H   0  0  0  0  0  0  0  0  0  0  0  0
  139.8078   79.8054  222.8383 H   0  0  0  0  0  0  0  0  0  0  0  0
  140.1254   79.3033  224.5478 H   0  0  0  0  0  0  0  0  0  0  0  0
  140.7634   81.7581  223.6552 H   0  0  0  0  0  0  0  0  0  0  0  0
  141.7672   80.9105  224.8591 H   0  0  0  0  0  0  0  0  0  0  0  0
  142.8969   81.8867  222.6228 H   0  0  0  0  0  0  0  0  0  0  0  0
  143.4334   80.3227  223.2176 H   0  0  0  0  0  0  0  0  0  0  0  0
  140.9090   80.5046  221.4492 H   0  0  0  0  0  0  0  0  0  0  0  0
  142.4924   80.5280  220.6636 H   0  0  0  0  0  0  0  0  0  0  0  0
  138.5860   69.0465  222.5296 H   0  0  0  0  0  0  0  0  0  0  0  0
  138.8670   67.7267  224.6056 H   0  0  0  0  0  0  0  0  0  0  0  0
  139.6274   67.6361  226.9135 H   0  0  0  0  0  0  0  0  0  0  0  0
  141.3706   71.1461  228.7038 H   0  0  0  0  0  0  0  0  0  0  0  0
  141.0588   72.4328  226.5839 H   0  0  0  0  0  0  0  0  0  0  0  0
  1  2  2  0
  2  3  1  0
  3  4  1  0
  4  5  1  0
  5  6  2  0
  5  7  1  0
  7  8  1  0
  8  9  1  0
  9 10  1  0
 10 11  1  0
 11 12  1  0
 12 13  1  0
 13 14  1  0
 14 15  1  0
 15 16  1  0
 16 17  1  0
 17 18  1  0
 18 19  1  0
  2 20  1  0
 20 21  2  0
 21 22  1  0
 22 23  2  0
 23 24  1  0
 24 25  2  0
 25 26  1  0
 25 27  1  0
 27 28  2  0
 28 29  1  0
 29 30  2  0
 12  7  1  0
 19 14  1  0
 30 20  1  0
 29 23  1  0
  3 31  1  0
  4 32  1  0
  4 33  1  0
  8 34  1  0
  8 35  1  0
  9 36  1  0
  9 37  1  0
 10 38  1  0
 10 39  1  0
 11 40  1  0
 11 41  1  0
 12 42  1  1
 13 43  1  0
 13 44  1  0
 15 45  1  0
 15 46  1  0
 16 47  1  0
 16 48  1  0
 17 49  1  0
 17 50  1  0
 18 51  1  0
 18 52  1  0
 19 53  1  0
 19 54  1  0
 21 55  1  0
 22 56  1  0
 24 57  1  0
 27 58  1  0
 28 59  1  0
M  END
>  <smiles>  (49) 
O=C(NCC(=O)N1CCCC[C@H]1CN1CCCCC1)c1ccc2cc(F)ccc2n1

>  <score_type>  (49) 
oracle

>  <origin>  (49) 
autodockgpu

>  <m_score__min__energy>  (49) 
-8.6999999999999993

>  <m_primary>  (49) 
energy

>  <rmsd>  (49) 
1.848831467575826

>  <m_score__min__rmsd>  (49) 
1.848831467575826

>  <meeko>  (49) 
{"free_energy": -8.4, "intermolecular_energy": -10.19, "internal_energy": -1.93, "cluster_size": 24, "cluster_id": 1, "rank_in_cluster": 11}

>  <energy>  (49) 
-6.02

>  <cluster_rmsd>  (49) 
1.4

>  <cluster>  (49) 
7

$$$$

     RDKit          3D

 59 62  0  0  0  0  0  0  0  0999 V2000
  139.9900   71.1290  220.9750 O   0  0  0  0  0  0  0  0  0  0  0  0
  139.8290   71.6360  222.0920 C   0  0  0  0  0  0  0  0  0  0  0  0
  139.6860   73.0310  222.2230 N   0  0  0  0  0  0  0  0  0  0  0  0
  139.7090   73.9930  221.1550 C   0  0  0  0  0  0  0  0  0  0  0  0
  139.5510   75.3970  221.6650 C   0  0  0  0  0  0  0  0  0  0  0  0
  139.0580   75.6310  222.7820 O   0  0  0  0  0  0  0  0  0  0  0  0
  140.0030   76.4540  220.7910 N   0  0  0  0  0  0  0  0  0  0  0  0
  139.2090   76.8620  219.6280 C   0  0  0  0  0  0  0  0  0  0  0  0
  140.2080   76.8380  218.4560 C   0  0  0  0  0  0  0  0  0  0  0  0
  141.0830   78.0630  218.7400 C   0  0  0  0  0  0  0  0  0  0  0  0
  141.9530   77.6910  219.8840 C   0  0  0  0  0  0  0  0  0  0  0  0
  141.2490   77.0640  221.0680 C   0  0  1  0  0  0  0  0  0  0  0  0
  141.3810   77.9230  222.2820 C   0  0  0  0  0  0  0  0  0  0  0  0
  141.6620   79.3100  222.1060 N   0  0  0  0  0  0  0  0  0  0  0  0
  142.9640   79.6510  222.7280 C   0  0  0  0  0  0  0  0  0  0  0  0
  142.8090   80.3440  224.0500 C   0  0  0  0  0  0  0  0  0  0  0  0
  142.1080   81.6880  223.8910 C   0  0  0  0  0  0  0  0  0  0  0  0
  141.1540   81.5720  222.7060 C   0  0  0  0  0  0  0  0  0  0  0  0
  140.6420   80.1240  222.7830 C   0  0  0  0  0  0  0  0  0  0  0  0
  139.7810   70.8040  223.3140 C   0  0  0  0  0  0  0  0  0  0  0  0
  139.2600   69.5480  223.3420 C   0  0  0  0  0  0  0  0  0  0  0  0
  139.2210   68.7870  224.4920 C   0  0  0  0  0  0  0  0  0  0  0  0
  139.7410   69.3460  225.6590 C   0  0  0  0  0  0  0  0  0  0  0  0
  139.7220   68.6180  226.8300 C   0  0  0  0  0  0  0  0  0  0  0  0
  140.2490   69.2070  227.9680 C   0  0  0  0  0  0  0  0  0  0  0  0
  140.2460   68.5160  229.1540 F   0  0  0  0  0  0  0  0  0  0  0  0
  140.7790   70.4800  227.9400 C   0  0  0  0  0  0  0  0  0  0  0  0
  140.8020   71.2180  226.7700 C   0  0  0  0  0  0  0  0  0  0  0  0
  140.2720   70.6200  225.6370 C   0  0  0  0  0  0  0  0  0  0  0  0
  140.2730   71.2950  224.4770 N   0  0  0  0  0  0  0  0  0  0  0  0
  139.5470   73.4050  223.1950 H   0  0  0  0  0  0  0  0  0  0  0  0
  140.6692   73.9129  220.6244 H   0  0  0  0  0  0  0  0  0  0  0  0
  138.8661   73.7769  220.4821 H   0  0  0  0  0  0  0  0  0  0  0  0
  138.3849   76.1551  219.4518 H   0  0  0  0  0  0  0  0  0  0  0  0
  138.7439   77.8497  219.7629 H   0  0  0  0  0  0  0  0  0  0  0  0
  140.8045   75.9138  218.4611 H   0  0  0  0  0  0  0  0  0  0  0  0
  139.7251   76.8640  217.4680 H   0  0  0  0  0  0  0  0  0  0  0  0
  141.6946   78.3079  217.8591 H   0  0  0  0  0  0  0  0  0  0  0  0
  140.4723   78.9484  218.9707 H   0  0  0  0  0  0  0  0  0  0  0  0
  142.7033   76.9743  219.5188 H   0  0  0  0  0  0  0  0  0  0  0  0
  142.3801   78.6345  220.2547 H   0  0  0  0  0  0  0  0  0  0  0  0
  141.7878   76.1443  221.3397 H   0  0  0  0  0  0  0  0  0  0  0  0
  140.4330   77.8512  222.8354 H   0  0  0  0  0  0  0  0  0  0  0  0
  142.2716   77.5304  222.7946 H   0  0  0  0  0  0  0  0  0  0  0  0
  143.5347   78.7232  222.8815 H   0  0  0  0  0  0  0  0  0  0  0  0
  143.4863   80.3415  222.0495 H   0  0  0  0  0  0  0  0  0  0  0  0
  142.2145   79.7068  224.7212 H   0  0  0  0  0  0  0  0  0  0  0  0
  143.8105   80.5218  224.4687 H   0  0  0  0  0  0  0  0  0  0  0  0
  141.5442   81.9276  224.8046 H   0  0  0  0  0  0  0  0  0  0  0  0
  142.8420   82.4892  223.7197 H   0  0  0  0  0  0  0  0  0  0  0  0
  140.3230   82.2864  222.8013 H   0  0  0  0  0  0  0  0  0  0  0  0
  141.6407   81.7991  221.7460 H   0  0  0  0  0  0  0  0  0  0  0  0
  140.5333   79.8100  223.8316 H   0  0  0  0  0  0  0  0  0  0  0  0
  139.6541   80.0149  222.3117 H   0  0  0  0  0  0  0  0  0  0  0  0
  138.8542   69.1227  222.4122 H   0  0  0  0  0  0  0  0  0  0  0  0
  138.7940   67.7733  224.4886 H   0  0  0  0  0  0  0  0  0  0  0  0
  139.3018   67.6019  226.8597 H   0  0  0  0  0  0  0  0  0  0  0  0
  141.1900   70.9155  228.8627 H   0  0  0  0  0  0  0  0  0  0  0  0
  141.2222   72.2342  226.7400 H   0  0  0  0  0  0  0  0  0  0  0  0
  1  2  2  0
  2  3  1  0
  3  4  1  0
  4  5  1  0
  5  6  2  0
  5  7  1  0
  7  8  1  0
  8  9  1  0
  9 10  1  0
 10 11  1  0
 11 12  1  0
 12 13  1  0
 13 14  1  0
 14 15  1  0
 15 16  1  0
 16 17  1  0
 17 18  1  0
 18 19  1  0
  2 20  1  0
 20 21  2  0
 21 22  1  0
 22 23  2  0
 23 24  1  0
 24 25  2  0
 25 26  1  0
 25 27  1  0
 27 28  2  0
 28 29  1  0
 29 30  2  0
 12  7  1  0
 19 14  1  0
 30 20  1  0
 29 23  1  0
  3 31  1  0
  4 32  1  0
  4 33  1  0
  8 34  1  0
  8 35  1  0
  9 36  1  0
  9 37  1  0
 10 38  1  0
 10 39  1  0
 11 40  1  0
 11 41  1  0
 12 42  1  1
 13 43  1  0
 13 44  1  0
 15 45  1  0
 15 46  1  0
 16 47  1  0
 16 48  1  0
 17 49  1  0
 17 50  1  0
 18 51  1  0
 18 52  1  0
 19 53  1  0
 19 54  1  0
 21 55  1  0
 22 56  1  0
 24 57  1  0
 27 58  1  0
 28 59  1  0
M  END
>  <smiles>  (50) 
O=C(NCC(=O)N1CCCC[C@H]1CN1CCCCC1)c1ccc2cc(F)ccc2n1

>  <score_type>  (50) 
oracle

>  <origin>  (50) 
autodockgpu

>  <m_score__min__energy>  (50) 
-8.6999999999999993

>  <m_primary>  (50) 
energy

>  <rmsd>  (50) 
2.0029787119658318

>  <m_score__min__rmsd>  (50) 
2.0029787119658318

>  <meeko>  (50) 
{"free_energy": -8.1, "intermolecular_energy": -9.89, "internal_energy": -1.99, "cluster_size": 24, "cluster_id": 1, "rank_in_cluster": 18}

>  <energy>  (50) 
-5.57

>  <cluster_rmsd>  (50) 
0.0

>  <cluster>  (50) 
8

$$$$
