
     RDKit          3D

 52 55  0  0  0  0  0  0  0  0999 V2000
  135.8680   77.6320  222.9960 O   0  0  0  0  0  0  0  0  0  0  0  0
  136.0190   76.4230  223.3480 C   0  0  0  0  0  0  0  0  0  0  0  0
  137.1210   75.7220  222.7420 N   0  0  0  0  0  0  0  0  0  0  0  0
  137.9810   76.3800  221.7990 C   0  0  0  0  0  0  0  0  0  0  0  0
  139.3430   76.6160  222.3380 C   0  0  0  0  0  0  0  0  0  0  0  0
  140.0780   75.6040  222.5860 O   0  0  0  0  0  0  0  0  0  0  0  0
  139.8510   77.9200  222.5860 N   0  0  0  0  0  0  0  0  0  0  0  0
  138.8860   78.9290  222.9880 C   0  0  0  0  0  0  0  0  0  0  0  0
  139.5400   79.7740  224.0620 C   0  0  0  0  0  0  0  0  0  0  0  0
  140.6860   80.4770  223.3600 C   0  0  0  0  0  0  0  0  0  0  0  0
  141.7230   79.4640  223.0400 C   0  0  0  0  0  0  0  0  0  0  0  0
  141.2540   78.1890  222.4390 C   0  0  2  0  0  0  0  0  0  0  0  0
  141.7180   78.1820  221.0260 C   0  0  0  0  0  0  0  0  0  0  0  0
  141.7590   79.3580  220.2640 C   0  0  0  0  0  0  0  0  0  0  0  0
  142.1870   79.3610  218.9540 C   0  0  0  0  0  0  0  0  0  0  0  0
  142.5940   78.1980  218.3350 C   0  0  0  0  0  0  0  0  0  0  0  0
  143.0140   78.2580  217.0130 O   0  0  0  0  0  0  0  0  0  0  0  0
  142.5620   77.0260  219.0630 C   0  0  0  0  0  0  0  0  0  0  0  0
  142.1320   77.0380  220.3740 C   0  0  0  0  0  0  0  0  0  0  0  0
  135.1490   75.7760  224.2960 C   0  0  0  0  0  0  0  0  0  0  0  0
  134.3220   76.5620  225.0720 C   0  0  0  0  0  0  0  0  0  0  0  0
  133.4800   75.9580  225.9860 C   0  0  0  0  0  0  0  0  0  0  0  0
  133.4930   74.5720  226.0980 C   0  0  0  0  0  0  0  0  0  0  0  0
  132.6460   73.9500  227.0190 C   0  0  0  0  0  0  0  0  0  0  0  0
  132.6670   72.5560  227.1220 C   0  0  0  0  0  0  0  0  0  0  0  0
  131.8490   71.9220  228.0160 F   0  0  0  0  0  0  0  0  0  0  0  0
  133.5120   71.8100  226.3250 C   0  0  0  0  0  0  0  0  0  0  0  0
  134.3490   72.4510  225.4130 C   0  0  0  0  0  0  0  0  0  0  0  0
  134.3450   73.8380  225.2930 C   0  0  0  0  0  0  0  0  0  0  0  0
  135.1640   74.4350  224.4010 N   0  0  0  0  0  0  0  0  0  0  0  0
  137.2250   74.7240  223.0490 H   0  0  0  0  0  0  0  0  0  0  0  0
  138.0620   75.7531  220.8988 H   0  0  0  0  0  0  0  0  0  0  0  0
  137.5379   77.3607  221.5715 H   0  0  0  0  0  0  0  0  0  0  0  0
  138.6170   79.5574  222.1262 H   0  0  0  0  0  0  0  0  0  0  0  0
  137.9664   78.4596  223.3675 H   0  0  0  0  0  0  0  0  0  0  0  0
  138.8260   80.5065  224.4666 H   0  0  0  0  0  0  0  0  0  0  0  0
  139.8843   79.1686  224.9134 H   0  0  0  0  0  0  0  0  0  0  0  0
  140.3240   80.9454  222.4329 H   0  0  0  0  0  0  0  0  0  0  0  0
  141.1062   81.2604  224.0079 H   0  0  0  0  0  0  0  0  0  0  0  0
  142.4302   79.9239  222.3340 H   0  0  0  0  0  0  0  0  0  0  0  0
  142.1568   79.1812  224.0105 H   0  0  0  0  0  0  0  0  0  0  0  0
  141.6940   77.3496  222.9973 H   0  0  0  0  0  0  0  0  0  0  0  0
  141.4407   80.3048  220.7246 H   0  0  0  0  0  0  0  0  0  0  0  0
  142.2042   80.3069  218.3928 H   0  0  0  0  0  0  0  0  0  0  0  0
  143.6560   78.9880  216.7170 H   0  0  0  0  0  0  0  0  0  0  0  0
  142.8796   76.0813  218.5976 H   0  0  0  0  0  0  0  0  0  0  0  0
  142.1184   76.0876  220.9277 H   0  0  0  0  0  0  0  0  0  0  0  0
  134.3329   77.6567  224.9643 H   0  0  0  0  0  0  0  0  0  0  0  0
  132.8105   76.5635  226.6146 H   0  0  0  0  0  0  0  0  0  0  0  0
  131.9738   74.5474  227.6525 H   0  0  0  0  0  0  0  0  0  0  0  0
  133.5248   70.7133  226.4093 H   0  0  0  0  0  0  0  0  0  0  0  0
  135.0213   71.8532  224.7800 H   0  0  0  0  0  0  0  0  0  0  0  0
  1  2  2  0
  2  3  1  0
  3  4  1  0
  4  5  1  0
  5  6  2  0
  5  7  1  0
  7  8  1  0
  8  9  1  0
  9 10  1  0
 10 11  1  0
 11 12  1  0
 12 13  1  0
 13 14  2  0
 14 15  1  0
 15 16  2  0
 16 17  1  0
 16 18  1  0
 18 19  2  0
  2 20  1  0
 20 21  2  0
 21 22  1  0
 22 23  2  0
 23 24  1  0
 24 25  2  0
 25 26  1  0
 25 27  1  0
 27 28  2  0
 28 29  1  0
 29 30  2  0
 12  7  1  0
 19 13  1  0
 30 20  1  0
 29 23  1  0
  3 31  1  0
  4 32  1  0
  4 33  1  0
  8 34  1  0
  8 35  1  0
  9 36  1  0
  9 37  1  0
 10 38  1  0
 10 39  1  0
 11 40  1  0
 11 41  1  0
 12 42  1  1
 14 43  1  0
 15 44  1  0
 17 45  1  0
 18 46  1  0
 19 47  1  0
 21 48  1  0
 22 49  1  0
 24 50  1  0
 27 51  1  0
 28 52  1  0
M  END
>  <smiles>  (1) 
O=C(NCC(=O)N1CCCCC1c1ccc(O)cc1)c1ccc2cc(F)ccc2n1

>  <score_type>  (1) 
oracle

>  <origin>  (1) 
autodockgpu

>  <m_score__min__energy>  (1) 
-8.8599999999999994

>  <m_primary>  (1) 
energy

>  <rmsd>  (1) 
6.77776924161025

>  <m_score__min__rmsd>  (1) 
6.77776924161025

>  <meeko>  (1) 
{"free_energy": -7.6, "intermolecular_energy": -9.39, "internal_energy": -1.71, "cluster_size": 4, "cluster_id": 4, "rank_in_cluster": 2}

>  <energy>  (1) 
-8.86

>  <cluster_rmsd>  (1) 
0.0

>  <cluster>  (1) 
1

$$$$

     RDKit          3D

 52 55  0  0  0  0  0  0  0  0999 V2000
  141.1250   72.4520  221.3940 O   0  0  0  0  0  0  0  0  0  0  0  0
  140.3020   72.6420  222.3400 C   0  0  0  0  0  0  0  0  0  0  0  0
  139.5190   73.8480  222.2630 N   0  0  0  0  0  0  0  0  0  0  0  0
  139.6830   74.7620  221.1680 C   0  0  0  0  0  0  0  0  0  0  0  0
  140.5490   75.9150  221.5140 C   0  0  0  0  0  0  0  0  0  0  0  0
  140.5500   76.3280  222.7210 O   0  0  0  0  0  0  0  0  0  0  0  0
  141.3710   76.5680  220.5560 N   0  0  0  0  0  0  0  0  0  0  0  0
  142.4750   75.7960  220.0120 C   0  0  0  0  0  0  0  0  0  0  0  0
  142.5640   76.1210  218.5350 C   0  0  0  0  0  0  0  0  0  0  0  0
  142.9490   77.5870  218.4800 C   0  0  0  0  0  0  0  0  0  0  0  0
  141.7840   78.3870  218.9380 C   0  0  0  0  0  0  0  0  0  0  0  0
  141.0930   77.9220  220.1680 C   0  0  2  0  0  0  0  0  0  0  0  0
  141.3880   78.9200  221.2320 C   0  0  0  0  0  0  0  0  0  0  0  0
  140.8480   80.2130  221.1920 C   0  0  0  0  0  0  0  0  0  0  0  0
  141.1160   81.1440  222.1720 C   0  0  0  0  0  0  0  0  0  0  0  0
  141.9340   80.8380  223.2400 C   0  0  0  0  0  0  0  0  0  0  0  0
  142.1710   81.8150  224.1980 O   0  0  0  0  0  0  0  0  0  0  0  0
  142.4790   79.5730  223.3020 C   0  0  0  0  0  0  0  0  0  0  0  0
  142.2020   78.6500  222.3140 C   0  0  0  0  0  0  0  0  0  0  0  0
  140.1480   71.7160  223.4320 C   0  0  0  0  0  0  0  0  0  0  0  0
  139.4550   70.5440  223.2080 C   0  0  0  0  0  0  0  0  0  0  0  0
  139.2980   69.6440  224.2440 C   0  0  0  0  0  0  0  0  0  0  0  0
  139.8440   69.9480  225.4860 C   0  0  0  0  0  0  0  0  0  0  0  0
  139.6910   69.0450  226.5420 C   0  0  0  0  0  0  0  0  0  0  0  0
  140.2450   69.3610  227.7870 C   0  0  0  0  0  0  0  0  0  0  0  0
  140.1100   68.4960  228.8370 F   0  0  0  0  0  0  0  0  0  0  0  0
  140.9310   70.5450  227.9650 C   0  0  0  0  0  0  0  0  0  0  0  0
  141.0710   71.4320  226.8980 C   0  0  0  0  0  0  0  0  0  0  0  0
  140.5280   71.1380  225.6500 C   0  0  0  0  0  0  0  0  0  0  0  0
  140.6780   72.0130  224.6330 N   0  0  0  0  0  0  0  0  0  0  0  0
  138.8450   73.9810  223.0560 H   0  0  0  0  0  0  0  0  0  0  0  0
  140.1355   74.2223  220.3230 H   0  0  0  0  0  0  0  0  0  0  0  0
  138.6889   75.1566  220.9109 H   0  0  0  0  0  0  0  0  0  0  0  0
  143.4128   76.0727  220.5159 H   0  0  0  0  0  0  0  0  0  0  0  0
  142.3116   74.7191  220.1657 H   0  0  0  0  0  0  0  0  0  0  0  0
  143.3310   75.5010  218.0479 H   0  0  0  0  0  0  0  0  0  0  0  0
  141.6184   75.9214  218.0096 H   0  0  0  0  0  0  0  0  0  0  0  0
  143.8103   77.7714  219.1389 H   0  0  0  0  0  0  0  0  0  0  0  0
  143.2264   77.8702  217.4539 H   0  0  0  0  0  0  0  0  0  0  0  0
  142.1365   79.4126  219.1221 H   0  0  0  0  0  0  0  0  0  0  0  0
  141.0373   78.2926  218.1358 H   0  0  0  0  0  0  0  0  0  0  0  0
  140.0122   77.8710  219.9698 H   0  0  0  0  0  0  0  0  0  0  0  0
  140.1917   80.4924  220.3546 H   0  0  0  0  0  0  0  0  0  0  0  0
  140.6705   82.1473  222.1016 H   0  0  0  0  0  0  0  0  0  0  0  0
  141.5610   81.8920  225.0060 H   0  0  0  0  0  0  0  0  0  0  0  0
  143.1359   79.2989  224.1406 H   0  0  0  0  0  0  0  0  0  0  0  0
  142.6522   77.6494  222.3925 H   0  0  0  0  0  0  0  0  0  0  0  0
  139.0323   70.3288  222.2155 H   0  0  0  0  0  0  0  0  0  0  0  0
  138.7503   68.7027  224.0890 H   0  0  0  0  0  0  0  0  0  0  0  0
  139.1441   68.1017  226.3964 H   0  0  0  0  0  0  0  0  0  0  0  0
  141.3661   70.7885  228.9455 H   0  0  0  0  0  0  0  0  0  0  0  0
  141.6172   72.3756  227.0441 H   0  0  0  0  0  0  0  0  0  0  0  0
  1  2  2  0
  2  3  1  0
  3  4  1  0
  4  5  1  0
  5  6  2  0
  5  7  1  0
  7  8  1  0
  8  9  1  0
  9 10  1  0
 10 11  1  0
 11 12  1  0
 12 13  1  0
 13 14  2  0
 14 15  1  0
 15 16  2  0
 16 17  1  0
 16 18  1  0
 18 19  2  0
  2 20  1  0
 20 21  2  0
 21 22  1  0
 22 23  2  0
 23 24  1  0
 24 25  2  0
 25 26  1  0
 25 27  1  0
 27 28  2  0
 28 29  1  0
 29 30  2  0
 12  7  1  0
 19 13  1  0
 30 20  1  0
 29 23  1  0
  3 31  1  0
  4 32  1  0
  4 33  1  0
  8 34  1  0
  8 35  1  0
  9 36  1  0
  9 37  1  0
 10 38  1  0
 10 39  1  0
 11 40  1  0
 11 41  1  0
 12 42  1  6
 14 43  1  0
 15 44  1  0
 17 45  1  0
 18 46  1  0
 19 47  1  0
 21 48  1  0
 22 49  1  0
 24 50  1  0
 27 51  1  0
 28 52  1  0
M  END
>  <smiles>  (2) 
O=C(NCC(=O)N1CCCCC1c1ccc(O)cc1)c1ccc2cc(F)ccc2n1

>  <score_type>  (2) 
oracle

>  <origin>  (2) 
autodockgpu

>  <m_score__min__energy>  (2) 
-8.8599999999999994

>  <m_primary>  (2) 
energy

>  <rmsd>  (2) 
2.040413485410487

>  <m_score__min__rmsd>  (2) 
2.040413485410487

>  <meeko>  (2) 
{"free_energy": -8.46, "intermolecular_energy": -10.25, "internal_energy": -1.34, "cluster_size": 14, "cluster_id": 3, "rank_in_cluster": 5}

>  <energy>  (2) 
-8.84

>  <cluster_rmsd>  (2) 
0.11

>  <cluster>  (2) 
1

$$$$

     RDKit          3D

 52 55  0  0  0  0  0  0  0  0999 V2000
  141.2620   72.0020  221.4240 O   0  0  0  0  0  0  0  0  0  0  0  0
  140.3530   72.2060  222.2840 C   0  0  0  0  0  0  0  0  0  0  0  0
  139.4720   73.3140  222.0200 N   0  0  0  0  0  0  0  0  0  0  0  0
  139.6380   74.1220  220.8450 C   0  0  0  0  0  0  0  0  0  0  0  0
  140.6890   75.1550  221.0100 C   0  0  0  0  0  0  0  0  0  0  0  0
  141.0510   75.4650  222.1930 O   0  0  0  0  0  0  0  0  0  0  0  0
  141.3010   75.8060  219.9040 N   0  0  0  0  0  0  0  0  0  0  0  0
  140.4440   76.1030  218.7690 C   0  0  0  0  0  0  0  0  0  0  0  0
  140.8380   77.4730  218.2550 C   0  0  0  0  0  0  0  0  0  0  0  0
  142.2540   77.3030  217.7390 C   0  0  0  0  0  0  0  0  0  0  0  0
  143.1500   77.1030  218.9070 C   0  0  0  0  0  0  0  0  0  0  0  0
  142.6970   76.1410  219.9430 C   0  0  2  0  0  0  0  0  0  0  0  0
  143.5960   74.9590  219.8570 C   0  0  0  0  0  0  0  0  0  0  0  0
  143.2460   73.8280  219.1060 C   0  0  0  0  0  0  0  0  0  0  0  0
  144.0720   72.7280  219.0210 C   0  0  0  0  0  0  0  0  0  0  0  0
  145.2850   72.6950  219.6760 C   0  0  0  0  0  0  0  0  0  0  0  0
  146.0770   71.5610  219.5560 O   0  0  0  0  0  0  0  0  0  0  0  0
  145.6520   73.7960  220.4230 C   0  0  0  0  0  0  0  0  0  0  0  0
  144.8160   74.8910  220.4990 C   0  0  0  0  0  0  0  0  0  0  0  0
  140.1970   71.3870  223.4580 C   0  0  0  0  0  0  0  0  0  0  0  0
  139.5720   70.1640  223.3290 C   0  0  0  0  0  0  0  0  0  0  0  0
  139.4140   69.3650  224.4450 C   0  0  0  0  0  0  0  0  0  0  0  0
  139.8920   69.8200  225.6690 C   0  0  0  0  0  0  0  0  0  0  0  0
  139.7390   69.0200  226.8050 C   0  0  0  0  0  0  0  0  0  0  0  0
  140.2240   69.4870  228.0300 C   0  0  0  0  0  0  0  0  0  0  0  0
  140.0870   68.7250  229.1570 F   0  0  0  0  0  0  0  0  0  0  0  0
  140.8440   70.7170  228.1130 C   0  0  0  0  0  0  0  0  0  0  0  0
  140.9870   71.4990  226.9670 C   0  0  0  0  0  0  0  0  0  0  0  0
  140.5110   71.0540  225.7360 C   0  0  0  0  0  0  0  0  0  0  0  0
  140.6620   71.8290  224.6410 N   0  0  0  0  0  0  0  0  0  0  0  0
  138.7280   73.4610  222.7460 H   0  0  0  0  0  0  0  0  0  0  0  0
  139.9141   73.4690  220.0040 H   0  0  0  0  0  0  0  0  0  0  0  0
  138.6860   74.6406  220.6588 H   0  0  0  0  0  0  0  0  0  0  0  0
  140.5880   75.3493  217.9809 H   0  0  0  0  0  0  0  0  0  0  0  0
  139.3848   76.0874  219.0654 H   0  0  0  0  0  0  0  0  0  0  0  0
  140.1659   77.7903  217.4441 H   0  0  0  0  0  0  0  0  0  0  0  0
  140.7716   78.2438  219.0370 H   0  0  0  0  0  0  0  0  0  0  0  0
  142.3062   76.4277  217.0748 H   0  0  0  0  0  0  0  0  0  0  0  0
  142.5619   78.1930  217.1705 H   0  0  0  0  0  0  0  0  0  0  0  0
  144.1192   76.7491  218.5258 H   0  0  0  0  0  0  0  0  0  0  0  0
  143.1817   78.0782  219.4149 H   0  0  0  0  0  0  0  0  0  0  0  0
  142.7759   76.6200  220.9301 H   0  0  0  0  0  0  0  0  0  0  0  0
  142.2856   73.8183  218.5698 H   0  0  0  0  0  0  0  0  0  0  0  0
  143.7583   71.8615  218.4203 H   0  0  0  0  0  0  0  0  0  0  0  0
  146.2730   70.9890  220.3730 H   0  0  0  0  0  0  0  0  0  0  0  0
  146.6127   73.8005  220.9587 H   0  0  0  0  0  0  0  0  0  0  0  0
  145.1380   75.7532  221.1015 H   0  0  0  0  0  0  0  0  0  0  0  0
  139.2035   69.8286  222.3483 H   0  0  0  0  0  0  0  0  0  0  0  0
  138.9187   68.3859  224.3667 H   0  0  0  0  0  0  0  0  0  0  0  0
  139.2452   68.0395  226.7361 H   0  0  0  0  0  0  0  0  0  0  0  0
  141.2241   71.0794  229.0795 H   0  0  0  0  0  0  0  0  0  0  0  0
  141.4817   72.4790  227.0362 H   0  0  0  0  0  0  0  0  0  0  0  0
  1  2  2  0
  2  3  1  0
  3  4  1  0
  4  5  1  0
  5  6  2  0
  5  7  1  0
  7  8  1  0
  8  9  1  0
  9 10  1  0
 10 11  1  0
 11 12  1  0
 12 13  1  0
 13 14  2  0
 14 15  1  0
 15 16  2  0
 16 17  1  0
 16 18  1  0
 18 19  2  0
  2 20  1  0
 20 21  2  0
 21 22  1  0
 22 23  2  0
 23 24  1  0
 24 25  2  0
 25 26  1  0
 25 27  1  0
 27 28  2  0
 28 29  1  0
 29 30  2  0
 12  7  1  0
 19 13  1  0
 30 20  1  0
 29 23  1  0
  3 31  1  0
  4 32  1  0
  4 33  1  0
  8 34  1  0
  8 35  1  0
  9 36  1  0
  9 37  1  0
 10 38  1  0
 10 39  1  0
 11 40  1  0
 11 41  1  0
 12 42  1  1
 14 43  1  0
 15 44  1  0
 17 45  1  0
 18 46  1  0
 19 47  1  0
 21 48  1  0
 22 49  1  0
 24 50  1  0
 27 51  1  0
 28 52  1  0
M  END
>  <smiles>  (3) 
O=C(NCC(=O)N1CCCCC1c1ccc(O)cc1)c1ccc2cc(F)ccc2n1

>  <score_type>  (3) 
oracle

>  <origin>  (3) 
autodockgpu

>  <m_score__min__energy>  (3) 
-8.8599999999999994

>  <m_primary>  (3) 
energy

>  <rmsd>  (3) 
1.6677670112750465

>  <m_score__min__rmsd>  (3) 
1.6677670112750465

>  <meeko>  (3) 
{"free_energy": -8.72, "intermolecular_energy": -10.51, "internal_energy": -1.58, "cluster_size": 19, "cluster_id": 1, "rank_in_cluster": 6}

>  <energy>  (3) 
-8.81

>  <cluster_rmsd>  (3) 
0.11

>  <cluster>  (3) 
1

$$$$

     RDKit          3D

 52 55  0  0  0  0  0  0  0  0999 V2000
  140.1170   71.2660  221.0100 O   0  0  0  0  0  0  0  0  0  0  0  0
  139.9100   71.7920  222.1450 C   0  0  0  0  0  0  0  0  0  0  0  0
  139.7370   73.2220  222.1560 N   0  0  0  0  0  0  0  0  0  0  0  0
  139.8000   73.9790  220.9380 C   0  0  0  0  0  0  0  0  0  0  0  0
  140.7270   75.1330  221.0340 C   0  0  0  0  0  0  0  0  0  0  0  0
  141.0600   75.5460  222.1930 O   0  0  0  0  0  0  0  0  0  0  0  0
  141.2530   75.7880  219.8860 N   0  0  0  0  0  0  0  0  0  0  0  0
  140.3240   76.0360  218.7970 C   0  0  0  0  0  0  0  0  0  0  0  0
  140.6380   77.4100  218.2430 C   0  0  0  0  0  0  0  0  0  0  0  0
  142.0290   77.2830  217.6510 C   0  0  0  0  0  0  0  0  0  0  0  0
  142.9950   77.1340  218.7700 C   0  0  0  0  0  0  0  0  0  0  0  0
  142.6350   76.1730  219.8430 C   0  0  2  0  0  0  0  0  0  0  0  0
  143.5710   75.0230  219.7230 C   0  0  0  0  0  0  0  0  0  0  0  0
  144.2360   74.5020  220.8410 C   0  0  0  0  0  0  0  0  0  0  0  0
  145.1050   73.4360  220.7400 C   0  0  0  0  0  0  0  0  0  0  0  0
  145.3570   72.8360  219.5240 C   0  0  0  0  0  0  0  0  0  0  0  0
  146.2420   71.7680  219.4800 O   0  0  0  0  0  0  0  0  0  0  0  0
  144.7150   73.3310  218.4080 C   0  0  0  0  0  0  0  0  0  0  0  0
  143.8470   74.3980  218.5240 C   0  0  0  0  0  0  0  0  0  0  0  0
  139.8490   71.0190  223.3590 C   0  0  0  0  0  0  0  0  0  0  0  0
  139.2890   69.7600  223.3090 C   0  0  0  0  0  0  0  0  0  0  0  0
  139.2220   69.0050  224.4640 C   0  0  0  0  0  0  0  0  0  0  0  0
  139.7230   69.5390  225.6460 C   0  0  0  0  0  0  0  0  0  0  0  0
  139.6620   68.7840  226.8200 C   0  0  0  0  0  0  0  0  0  0  0  0
  140.1700   69.3320  228.0030 C   0  0  0  0  0  0  0  0  0  0  0  0
  140.1220   68.6150  229.1660 F   0  0  0  0  0  0  0  0  0  0  0  0
  140.7220   70.5960  228.0050 C   0  0  0  0  0  0  0  0  0  0  0  0
  140.7730   71.3330  226.8220 C   0  0  0  0  0  0  0  0  0  0  0  0
  140.2740   70.8080  225.6330 C   0  0  0  0  0  0  0  0  0  0  0  0
  140.3360   71.5400  224.5010 N   0  0  0  0  0  0  0  0  0  0  0  0
  139.5670   73.6320  223.1070 H   0  0  0  0  0  0  0  0  0  0  0  0
  140.1428   73.3174  220.1288 H   0  0  0  0  0  0  0  0  0  0  0  0
  138.7933   74.3746  220.7378 H   0  0  0  0  0  0  0  0  0  0  0  0
  140.4515   75.2755  218.0126 H   0  0  0  0  0  0  0  0  0  0  0  0
  139.2842   75.9872  219.1527 H   0  0  0  0  0  0  0  0  0  0  0  0
  139.9109   77.6897  217.4665 H   0  0  0  0  0  0  0  0  0  0  0  0
  140.5866   78.1903  219.0166 H   0  0  0  0  0  0  0  0  0  0  0  0
  142.0767   76.3997  216.9971 H   0  0  0  0  0  0  0  0  0  0  0  0
  142.2719   78.1744  217.0540 H   0  0  0  0  0  0  0  0  0  0  0  0
  143.9540   76.8089  218.3404 H   0  0  0  0  0  0  0  0  0  0  0  0
  143.0193   78.1177  219.2616 H   0  0  0  0  0  0  0  0  0  0  0  0
  142.7500   76.6696  220.8178 H   0  0  0  0  0  0  0  0  0  0  0  0
  144.0598   74.9562  221.8272 H   0  0  0  0  0  0  0  0  0  0  0  0
  145.6052   73.0581  221.6439 H   0  0  0  0  0  0  0  0  0  0  0  0
  146.3390   71.1540  220.2840 H   0  0  0  0  0  0  0  0  0  0  0  0
  144.8951   72.8745  217.4235 H   0  0  0  0  0  0  0  0  0  0  0  0
  143.3504   74.7687  217.6152 H   0  0  0  0  0  0  0  0  0  0  0  0
  138.9001   69.3614  222.3604 H   0  0  0  0  0  0  0  0  0  0  0  0
  138.7796   67.9980  224.4488 H   0  0  0  0  0  0  0  0  0  0  0  0
  139.2221   67.7758  226.8144 H   0  0  0  0  0  0  0  0  0  0  0  0
  141.1211   71.0218  228.9374 H   0  0  0  0  0  0  0  0  0  0  0  0
  141.2128   72.3412  226.8285 H   0  0  0  0  0  0  0  0  0  0  0  0
  1  2  2  0
  2  3  1  0
  3  4  1  0
  4  5  1  0
  5  6  2  0
  5  7  1  0
  7  8  1  0
  8  9  1  0
  9 10  1  0
 10 11  1  0
 11 12  1  0
 12 13  1  0
 13 14  2  0
 14 15  1  0
 15 16  2  0
 16 17  1  0
 16 18  1  0
 18 19  2  0
  2 20  1  0
 20 21  2  0
 21 22  1  0
 22 23  2  0
 23 24  1  0
 24 25  2  0
 25 26  1  0
 25 27  1  0
 27 28  2  0
 28 29  1  0
 29 30  2  0
 12  7  1  0
 19 13  1  0
 30 20  1  0
 29 23  1  0
  3 31  1  0
  4 32  1  0
  4 33  1  0
  8 34  1  0
  8 35  1  0
  9 36  1  0
  9 37  1  0
 10 38  1  0
 10 39  1  0
 11 40  1  0
 11 41  1  0
 12 42  1  1
 14 43  1  0
 15 44  1  0
 17 45  1  0
 18 46  1  0
 19 47  1  0
 21 48  1  0
 22 49  1  0
 24 50  1  0
 27 51  1  0
 28 52  1  0
M  END
>  <smiles>  (4) 
O=C(NCC(=O)N1CCCCC1c1ccc(O)cc1)c1ccc2cc(F)ccc2n1

>  <score_type>  (4) 
oracle

>  <origin>  (4) 
autodockgpu

>  <m_score__min__energy>  (4) 
-8.8599999999999994

>  <m_primary>  (4) 
energy

>  <rmsd>  (4) 
1.523408268898434

>  <m_score__min__rmsd>  (4) 
1.523408268898434

>  <meeko>  (4) 
{"free_energy": -8.52, "intermolecular_energy": -10.31, "internal_energy": -1.69, "cluster_size": 19, "cluster_id": 1, "rank_in_cluster": 8}

>  <energy>  (4) 
-8.78

>  <cluster_rmsd>  (4) 
0.23

>  <cluster>  (4) 
1

$$$$

     RDKit          3D

 52 55  0  0  0  0  0  0  0  0999 V2000
  135.9990   77.4310  222.6790 O   0  0  0  0  0  0  0  0  0  0  0  0
  136.1820   76.2530  223.1110 C   0  0  0  0  0  0  0  0  0  0  0  0
  137.3130   75.5490  222.5640 N   0  0  0  0  0  0  0  0  0  0  0  0
  138.1650   76.1710  221.5900 C   0  0  0  0  0  0  0  0  0  0  0  0
  139.5330   76.4190  222.1060 C   0  0  0  0  0  0  0  0  0  0  0  0
  140.2800   75.4130  222.3440 O   0  0  0  0  0  0  0  0  0  0  0  0
  140.0360   77.7270  222.3410 N   0  0  0  0  0  0  0  0  0  0  0  0
  139.0750   78.7220  222.7860 C   0  0  0  0  0  0  0  0  0  0  0  0
  139.7610   79.5690  223.8390 C   0  0  0  0  0  0  0  0  0  0  0  0
  140.8700   80.2900  223.0960 C   0  0  0  0  0  0  0  0  0  0  0  0
  141.9060   79.2910  222.7300 C   0  0  0  0  0  0  0  0  0  0  0  0
  141.4280   78.0140  222.1410 C   0  0  2  0  0  0  0  0  0  0  0  0
  141.8360   78.0200  220.7110 C   0  0  0  0  0  0  0  0  0  0  0  0
  142.2730   76.8520  220.0700 C   0  0  0  0  0  0  0  0  0  0  0  0
  142.6540   76.8470  218.7460 C   0  0  0  0  0  0  0  0  0  0  0  0
  142.6200   78.0010  217.9910 C   0  0  0  0  0  0  0  0  0  0  0  0
  143.0160   77.9390  216.6620 O   0  0  0  0  0  0  0  0  0  0  0  0
  142.1950   79.1650  218.5980 C   0  0  0  0  0  0  0  0  0  0  0  0
  141.8160   79.1550  219.9250 C   0  0  0  0  0  0  0  0  0  0  0  0
  135.3190   75.6420  224.0890 C   0  0  0  0  0  0  0  0  0  0  0  0
  134.5370   76.4590  224.8770 C   0  0  0  0  0  0  0  0  0  0  0  0
  133.7030   75.8900  225.8210 C   0  0  0  0  0  0  0  0  0  0  0  0
  133.6790   74.5050  225.9480 C   0  0  0  0  0  0  0  0  0  0  0  0
  132.8390   73.9180  226.8990 C   0  0  0  0  0  0  0  0  0  0  0  0
  132.8240   72.5250  227.0170 C   0  0  0  0  0  0  0  0  0  0  0  0
  132.0120   71.9250  227.9400 F   0  0  0  0  0  0  0  0  0  0  0  0
  133.6240   71.7460  226.2070 C   0  0  0  0  0  0  0  0  0  0  0  0
  134.4550   72.3520  225.2650 C   0  0  0  0  0  0  0  0  0  0  0  0
  134.4870   73.7380  225.1290 C   0  0  0  0  0  0  0  0  0  0  0  0
  135.2980   74.3010  224.2090 N   0  0  0  0  0  0  0  0  0  0  0  0
  137.4430   74.5770  222.9370 H   0  0  0  0  0  0  0  0  0  0  0  0
  138.2337   75.5137  220.7107 H   0  0  0  0  0  0  0  0  0  0  0  0
  137.7232   77.1453  221.3339 H   0  0  0  0  0  0  0  0  0  0  0  0
  138.7652   79.3518  221.9390 H   0  0  0  0  0  0  0  0  0  0  0  0
  138.1763   78.2397  223.1978 H   0  0  0  0  0  0  0  0  0  0  0  0
  139.0550   80.2904  224.2761 H   0  0  0  0  0  0  0  0  0  0  0  0
  140.1459   78.9631  224.6725 H   0  0  0  0  0  0  0  0  0  0  0  0
  140.4660   80.7584  222.1864 H   0  0  0  0  0  0  0  0  0  0  0  0
  141.3058   81.0755  223.7309 H   0  0  0  0  0  0  0  0  0  0  0  0
  142.5795   79.7627  221.9993 H   0  0  0  0  0  0  0  0  0  0  0  0
  142.3815   79.0086  223.6809 H   0  0  0  0  0  0  0  0  0  0  0  0
  141.8990   77.1772  222.6776 H   0  0  0  0  0  0  0  0  0  0  0  0
  142.3128   75.9125  220.6408 H   0  0  0  0  0  0  0  0  0  0  0  0
  142.9908   75.9075  218.2834 H   0  0  0  0  0  0  0  0  0  0  0  0
  143.7010   78.5990  216.3040 H   0  0  0  0  0  0  0  0  0  0  0  0
  142.1582   80.1023  218.0234 H   0  0  0  0  0  0  0  0  0  0  0  0
  141.4810   80.0990  220.3795 H   0  0  0  0  0  0  0  0  0  0  0  0
  134.5762   77.5516  224.7559 H   0  0  0  0  0  0  0  0  0  0  0  0
  133.0692   76.5215  226.4608 H   0  0  0  0  0  0  0  0  0  0  0  0
  132.2011   74.5412  227.5431 H   0  0  0  0  0  0  0  0  0  0  0  0
  133.6065   70.6504  226.3037 H   0  0  0  0  0  0  0  0  0  0  0  0
  135.0928   71.7280  224.6217 H   0  0  0  0  0  0  0  0  0  0  0  0
  1  2  2  0
  2  3  1  0
  3  4  1  0
  4  5  1  0
  5  6  2  0
  5  7  1  0
  7  8  1  0
  8  9  1  0
  9 10  1  0
 10 11  1  0
 11 12  1  0
 12 13  1  0
 13 14  2  0
 14 15  1  0
 15 16  2  0
 16 17  1  0
 16 18  1  0
 18 19  2  0
  2 20  1  0
 20 21  2  0
 21 22  1  0
 22 23  2  0
 23 24  1  0
 24 25  2  0
 25 26  1  0
 25 27  1  0
 27 28  2  0
 28 29  1  0
 29 30  2  0
 12  7  1  0
 19 13  1  0
 30 20  1  0
 29 23  1  0
  3 31  1  0
  4 32  1  0
  4 33  1  0
  8 34  1  0
  8 35  1  0
  9 36  1  0
  9 37  1  0
 10 38  1  0
 10 39  1  0
 11 40  1  0
 11 41  1  0
 12 42  1  1
 14 43  1  0
 15 44  1  0
 17 45  1  0
 18 46  1  0
 19 47  1  0
 21 48  1  0
 22 49  1  0
 24 50  1  0
 27 51  1  0
 28 52  1  0
M  END
>  <smiles>  (5) 
O=C(NCC(=O)N1CCCCC1c1ccc(O)cc1)c1ccc2cc(F)ccc2n1

>  <score_type>  (5) 
oracle

>  <origin>  (5) 
autodockgpu

>  <m_score__min__energy>  (5) 
-8.8599999999999994

>  <m_primary>  (5) 
energy

>  <rmsd>  (5) 
6.576075579326661

>  <m_score__min__rmsd>  (5) 
6.576075579326661

>  <meeko>  (5) 
{"free_energy": -7.62, "intermolecular_energy": -9.41, "internal_energy": -1.68, "cluster_size": 4, "cluster_id": 4, "rank_in_cluster": 1}

>  <energy>  (5) 
-8.76

>  <cluster_rmsd>  (5) 
0.18

>  <cluster>  (5) 
1

$$$$

     RDKit          3D

 52 55  0  0  0  0  0  0  0  0999 V2000
  140.8570   72.2490  221.4680 O   0  0  0  0  0  0  0  0  0  0  0  0
  140.0220   72.3630  222.4150 C   0  0  0  0  0  0  0  0  0  0  0  0
  139.0770   73.4440  222.2970 N   0  0  0  0  0  0  0  0  0  0  0  0
  139.1060   74.3240  221.1620 C   0  0  0  0  0  0  0  0  0  0  0  0
  139.8290   75.5880  221.4410 C   0  0  0  0  0  0  0  0  0  0  0  0
  139.2700   76.4490  222.1990 O   0  0  0  0  0  0  0  0  0  0  0  0
  141.1110   75.8720  220.8980 N   0  0  0  0  0  0  0  0  0  0  0  0
  142.0830   74.7920  220.9290 C   0  0  0  0  0  0  0  0  0  0  0  0
  142.8450   74.8360  219.6200 C   0  0  0  0  0  0  0  0  0  0  0  0
  143.6040   76.1490  219.6550 C   0  0  0  0  0  0  0  0  0  0  0  0
  142.6210   77.2540  219.5180 C   0  0  0  0  0  0  0  0  0  0  0  0
  141.3950   77.1690  220.3520 C   0  0  2  0  0  0  0  0  0  0  0  0
  141.4980   78.2390  221.3800 C   0  0  0  0  0  0  0  0  0  0  0  0
  141.6620   79.5840  221.0210 C   0  0  0  0  0  0  0  0  0  0  0  0
  141.7580   80.5820  221.9670 C   0  0  0  0  0  0  0  0  0  0  0  0
  141.6980   80.2950  223.3140 C   0  0  0  0  0  0  0  0  0  0  0  0
  141.8010   81.3400  224.2230 O   0  0  0  0  0  0  0  0  0  0  0  0
  141.5380   78.9790  223.6940 C   0  0  0  0  0  0  0  0  0  0  0  0
  141.4420   77.9890  222.7360 C   0  0  0  0  0  0  0  0  0  0  0  0
  140.0040   71.4730  223.5470 C   0  0  0  0  0  0  0  0  0  0  0  0
  139.4340   70.2270  223.3950 C   0  0  0  0  0  0  0  0  0  0  0  0
  139.4090   69.3600  224.4700 C   0  0  0  0  0  0  0  0  0  0  0  0
  139.9610   69.7720  225.6780 C   0  0  0  0  0  0  0  0  0  0  0  0
  139.9420   68.9030  226.7730 C   0  0  0  0  0  0  0  0  0  0  0  0
  140.5010   69.3280  227.9820 C   0  0  0  0  0  0  0  0  0  0  0  0
  140.4940   68.4980  229.0690 F   0  0  0  0  0  0  0  0  0  0  0  0
  141.0610   70.5840  228.0890 C   0  0  0  0  0  0  0  0  0  0  0  0
  141.0700   71.4350  226.9840 C   0  0  0  0  0  0  0  0  0  0  0  0
  140.5190   71.0330  225.7700 C   0  0  0  0  0  0  0  0  0  0  0  0
  140.5400   71.8750  224.7150 N   0  0  0  0  0  0  0  0  0  0  0  0
  138.3970   73.5170  223.0920 H   0  0  0  0  0  0  0  0  0  0  0  0
  139.6058   73.8084  220.3287 H   0  0  0  0  0  0  0  0  0  0  0  0
  138.0661   74.5821  220.9129 H   0  0  0  0  0  0  0  0  0  0  0  0
  142.7749   74.9320  221.7726 H   0  0  0  0  0  0  0  0  0  0  0  0
  141.5829   73.8206  221.0568 H   0  0  0  0  0  0  0  0  0  0  0  0
  143.5418   73.9878  219.5490 H   0  0  0  0  0  0  0  0  0  0  0  0
  142.1768   74.7667  218.7490 H   0  0  0  0  0  0  0  0  0  0  0  0
  144.1409   76.2439  220.6103 H   0  0  0  0  0  0  0  0  0  0  0  0
  144.3371   76.1874  218.8358 H   0  0  0  0  0  0  0  0  0  0  0  0
  143.1356   78.1908  219.7779 H   0  0  0  0  0  0  0  0  0  0  0  0
  142.2658   77.1950  218.4786 H   0  0  0  0  0  0  0  0  0  0  0  0
  140.5167   77.3288  219.7093 H   0  0  0  0  0  0  0  0  0  0  0  0
  141.7156   79.8504  219.9551 H   0  0  0  0  0  0  0  0  0  0  0  0
  141.8846   81.6251  221.6415 H   0  0  0  0  0  0  0  0  0  0  0  0
  142.5330   81.3300  224.9280 H   0  0  0  0  0  0  0  0  0  0  0  0
  141.4868   78.7176  224.7613 H   0  0  0  0  0  0  0  0  0  0  0  0
  141.3145   76.9489  223.0706 H   0  0  0  0  0  0  0  0  0  0  0  0
  139.0038   69.9265  222.4282 H   0  0  0  0  0  0  0  0  0  0  0  0
  138.9600   68.3606  224.3722 H   0  0  0  0  0  0  0  0  0  0  0  0
  139.4948   67.9019  226.6849 H   0  0  0  0  0  0  0  0  0  0  0  0
  141.4991   70.9134  229.0427 H   0  0  0  0  0  0  0  0  0  0  0  0
  141.5178   72.4358  227.0726 H   0  0  0  0  0  0  0  0  0  0  0  0
  1  2  2  0
  2  3  1  0
  3  4  1  0
  4  5  1  0
  5  6  2  0
  5  7  1  0
  7  8  1  0
  8  9  1  0
  9 10  1  0
 10 11  1  0
 11 12  1  0
 12 13  1  0
 13 14  2  0
 14 15  1  0
 15 16  2  0
 16 17  1  0
 16 18  1  0
 18 19  2  0
  2 20  1  0
 20 21  2  0
 21 22  1  0
 22 23  2  0
 23 24  1  0
 24 25  2  0
 25 26  1  0
 25 27  1  0
 27 28  2  0
 28 29  1  0
 29 30  2  0
 12  7  1  0
 19 13  1  0
 30 20  1  0
 29 23  1  0
  3 31  1  0
  4 32  1  0
  4 33  1  0
  8 34  1  0
  8 35  1  0
  9 36  1  0
  9 37  1  0
 10 38  1  0
 10 39  1  0
 11 40  1  0
 11 41  1  0
 12 42  1  6
 14 43  1  0
 15 44  1  0
 17 45  1  0
 18 46  1  0
 19 47  1  0
 21 48  1  0
 22 49  1  0
 24 50  1  0
 27 51  1  0
 28 52  1  0
M  END
>  <smiles>  (6) 
O=C(NCC(=O)N1CCCCC1c1ccc(O)cc1)c1ccc2cc(F)ccc2n1

>  <score_type>  (6) 
oracle

>  <origin>  (6) 
autodockgpu

>  <m_score__min__energy>  (6) 
-8.8599999999999994

>  <m_primary>  (6) 
energy

>  <rmsd>  (6) 
2.0434582627112743

>  <m_score__min__rmsd>  (6) 
2.0434582627112743

>  <meeko>  (6) 
{"free_energy": -8.74, "intermolecular_energy": -10.53, "internal_energy": -1.23, "cluster_size": 14, "cluster_id": 3, "rank_in_cluster": 1}

>  <energy>  (6) 
-8.72

>  <cluster_rmsd>  (6) 
0.23

>  <cluster>  (6) 
1

$$$$

     RDKit          3D

 52 55  0  0  0  0  0  0  0  0999 V2000
  141.0030   72.1970  221.3900 O   0  0  0  0  0  0  0  0  0  0  0  0
  140.1600   72.3820  222.3190 C   0  0  0  0  0  0  0  0  0  0  0  0
  139.2900   73.5200  222.1650 N   0  0  0  0  0  0  0  0  0  0  0  0
  139.3960   74.3760  221.0160 C   0  0  0  0  0  0  0  0  0  0  0  0
  140.7180   75.0430  220.9240 C   0  0  0  0  0  0  0  0  0  0  0  0
  141.4470   75.0850  221.9700 O   0  0  0  0  0  0  0  0  0  0  0  0
  141.1950   75.6310  219.7210 N   0  0  0  0  0  0  0  0  0  0  0  0
  140.2340   75.7710  218.6410 C   0  0  0  0  0  0  0  0  0  0  0  0
  140.4880   77.1130  217.9850 C   0  0  0  0  0  0  0  0  0  0  0  0
  141.8690   76.9890  217.3680 C   0  0  0  0  0  0  0  0  0  0  0  0
  142.8640   76.9510  218.4700 C   0  0  0  0  0  0  0  0  0  0  0  0
  142.5620   76.0570  219.6170 C   0  0  2  0  0  0  0  0  0  0  0  0
  143.5330   74.9320  219.5540 C   0  0  0  0  0  0  0  0  0  0  0  0
  144.3180   74.5810  220.6620 C   0  0  0  0  0  0  0  0  0  0  0  0
  145.2200   73.5410  220.6140 C   0  0  0  0  0  0  0  0  0  0  0  0
  145.3900   72.7980  219.4640 C   0  0  0  0  0  0  0  0  0  0  0  0
  146.3140   71.7620  219.4710 O   0  0  0  0  0  0  0  0  0  0  0  0
  144.6300   73.1240  218.3600 C   0  0  0  0  0  0  0  0  0  0  0  0
  143.7300   74.1680  218.4220 C   0  0  0  0  0  0  0  0  0  0  0  0
  140.0640   71.5160  223.4650 C   0  0  0  0  0  0  0  0  0  0  0  0
  139.4210   70.3040  223.3210 C   0  0  0  0  0  0  0  0  0  0  0  0
  139.3200   69.4600  224.4100 C   0  0  0  0  0  0  0  0  0  0  0  0
  139.8720   69.8590  225.6230 C   0  0  0  0  0  0  0  0  0  0  0  0
  139.7770   69.0130  226.7320 C   0  0  0  0  0  0  0  0  0  0  0  0
  140.3360   69.4250  227.9450 C   0  0  0  0  0  0  0  0  0  0  0  0
  140.2560   68.6170  229.0460 F   0  0  0  0  0  0  0  0  0  0  0  0
  140.9700   70.6460  228.0430 C   0  0  0  0  0  0  0  0  0  0  0  0
  141.0540   71.4750  226.9240 C   0  0  0  0  0  0  0  0  0  0  0  0
  140.5050   71.0860  225.7060 C   0  0  0  0  0  0  0  0  0  0  0  0
  140.6000   71.9050  224.6370 N   0  0  0  0  0  0  0  0  0  0  0  0
  138.6020   73.6520  222.9450 H   0  0  0  0  0  0  0  0  0  0  0  0
  139.2423   73.7711  220.1102 H   0  0  0  0  0  0  0  0  0  0  0  0
  138.6317   75.1612  221.1127 H   0  0  0  0  0  0  0  0  0  0  0  0
  140.3701   74.9618  217.9084 H   0  0  0  0  0  0  0  0  0  0  0  0
  139.2047   75.7130  219.0248 H   0  0  0  0  0  0  0  0  0  0  0  0
  139.7340   77.3140  217.2097 H   0  0  0  0  0  0  0  0  0  0  0  0
  140.4278   77.9439  218.7034 H   0  0  0  0  0  0  0  0  0  0  0  0
  141.9317   76.0635  216.7768 H   0  0  0  0  0  0  0  0  0  0  0  0
  142.0680   77.8428  216.7036 H   0  0  0  0  0  0  0  0  0  0  0  0
  143.8237   76.6278  218.0404 H   0  0  0  0  0  0  0  0  0  0  0  0
  142.8650   77.9673  218.8909 H   0  0  0  0  0  0  0  0  0  0  0  0
  142.6829   76.6249  220.5513 H   0  0  0  0  0  0  0  0  0  0  0  0
  144.2103   75.1524  221.5958 H   0  0  0  0  0  0  0  0  0  0  0  0
  145.8145   73.2989  221.5073 H   0  0  0  0  0  0  0  0  0  0  0  0
  146.4020   71.1650  220.2880 H   0  0  0  0  0  0  0  0  0  0  0  0
  144.7417   72.5504  217.4281 H   0  0  0  0  0  0  0  0  0  0  0  0
  143.1399   74.4030  217.5239 H   0  0  0  0  0  0  0  0  0  0  0  0
  138.9936   70.0129  222.3501 H   0  0  0  0  0  0  0  0  0  0  0  0
  138.8116   68.4887  224.3195 H   0  0  0  0  0  0  0  0  0  0  0  0
  139.2709   68.0397  226.6513 H   0  0  0  0  0  0  0  0  0  0  0  0
  141.4080   70.9651  229.0003 H   0  0  0  0  0  0  0  0  0  0  0  0
  141.5604   72.4481  227.0056 H   0  0  0  0  0  0  0  0  0  0  0  0
  1  2  2  0
  2  3  1  0
  3  4  1  0
  4  5  1  0
  5  6  2  0
  5  7  1  0
  7  8  1  0
  8  9  1  0
  9 10  1  0
 10 11  1  0
 11 12  1  0
 12 13  1  0
 13 14  2  0
 14 15  1  0
 15 16  2  0
 16 17  1  0
 16 18  1  0
 18 19  2  0
  2 20  1  0
 20 21  2  0
 21 22  1  0
 22 23  2  0
 23 24  1  0
 24 25  2  0
 25 26  1  0
 25 27  1  0
 27 28  2  0
 28 29  1  0
 29 30  2  0
 12  7  1  0
 19 13  1  0
 30 20  1  0
 29 23  1  0
  3 31  1  0
  4 32  1  0
  4 33  1  0
  8 34  1  0
  8 35  1  0
  9 36  1  0
  9 37  1  0
 10 38  1  0
 10 39  1  0
 11 40  1  0
 11 41  1  0
 12 42  1  1
 14 43  1  0
 15 44  1  0
 17 45  1  0
 18 46  1  0
 19 47  1  0
 21 48  1  0
 22 49  1  0
 24 50  1  0
 27 51  1  0
 28 52  1  0
M  END
>  <smiles>  (7) 
O=C(NCC(=O)N1CCCCC1c1ccc(O)cc1)c1ccc2cc(F)ccc2n1

>  <score_type>  (7) 
oracle

>  <origin>  (7) 
autodockgpu

>  <m_score__min__energy>  (7) 
-8.8599999999999994

>  <m_primary>  (7) 
energy

>  <rmsd>  (7) 
1.5285319184613264

>  <m_score__min__rmsd>  (7) 
1.5285319184613264

>  <meeko>  (7) 
{"free_energy": -8.66, "intermolecular_energy": -10.45, "internal_energy": -1.47, "cluster_size": 19, "cluster_id": 1, "rank_in_cluster": 7}

>  <energy>  (7) 
-8.66

>  <cluster_rmsd>  (7) 
0.32

>  <cluster>  (7) 
1

$$$$

     RDKit          3D

 52 55  0  0  0  0  0  0  0  0999 V2000
  139.6380   71.0400  221.3610 O   0  0  0  0  0  0  0  0  0  0  0  0
  139.7530   71.5300  222.5250 C   0  0  0  0  0  0  0  0  0  0  0  0
  139.8590   72.9650  222.5980 N   0  0  0  0  0  0  0  0  0  0  0  0
  139.8340   73.7650  221.4060 C   0  0  0  0  0  0  0  0  0  0  0  0
  140.3020   75.1520  221.6430 C   0  0  0  0  0  0  0  0  0  0  0  0
  139.8510   75.7770  222.6600 O   0  0  0  0  0  0  0  0  0  0  0  0
  141.2280   75.8040  220.7830 N   0  0  0  0  0  0  0  0  0  0  0  0
  142.4420   75.0730  220.4620 C   0  0  0  0  0  0  0  0  0  0  0  0
  142.7430   75.3240  218.9990 C   0  0  0  0  0  0  0  0  0  0  0  0
  143.0550   76.8060  218.9140 C   0  0  0  0  0  0  0  0  0  0  0  0
  141.7930   77.5570  219.1390 C   0  0  0  0  0  0  0  0  0  0  0  0
  140.9440   77.1160  220.2750 C   0  0  2  0  0  0  0  0  0  0  0  0
  141.0180   78.1840  221.3080 C   0  0  0  0  0  0  0  0  0  0  0  0
  142.2200   78.8470  221.5900 C   0  0  0  0  0  0  0  0  0  0  0  0
  142.2980   79.8370  222.5450 C   0  0  0  0  0  0  0  0  0  0  0  0
  141.1880   80.2190  223.2680 C   0  0  0  0  0  0  0  0  0  0  0  0
  141.3240   81.2210  224.2190 O   0  0  0  0  0  0  0  0  0  0  0  0
  139.9920   79.5810  223.0100 C   0  0  0  0  0  0  0  0  0  0  0  0
  139.9280   78.5920  222.0510 C   0  0  0  0  0  0  0  0  0  0  0  0
  139.7760   70.7150  223.7120 C   0  0  0  0  0  0  0  0  0  0  0  0
  139.2460   69.4430  223.6460 C   0  0  0  0  0  0  0  0  0  0  0  0
  139.2610   68.6470  224.7750 C   0  0  0  0  0  0  0  0  0  0  0  0
  139.8110   69.1540  225.9470 C   0  0  0  0  0  0  0  0  0  0  0  0
  139.8310   68.3570  227.0960 C   0  0  0  0  0  0  0  0  0  0  0  0
  140.3880   68.8780  228.2690 C   0  0  0  0  0  0  0  0  0  0  0  0
  140.4200   68.1200  229.4070 F   0  0  0  0  0  0  0  0  0  0  0  0
  140.9070   70.1560  228.2880 C   0  0  0  0  0  0  0  0  0  0  0  0
  140.8760   70.9340  227.1310 C   0  0  0  0  0  0  0  0  0  0  0  0
  140.3270   70.4370  225.9520 C   0  0  0  0  0  0  0  0  0  0  0  0
  140.3100   71.2090  224.8440 N   0  0  0  0  0  0  0  0  0  0  0  0
  139.9540   73.3450  223.5710 H   0  0  0  0  0  0  0  0  0  0  0  0
  140.4852   73.2968  220.6532 H   0  0  0  0  0  0  0  0  0  0  0  0
  138.7908   73.8186  221.0613 H   0  0  0  0  0  0  0  0  0  0  0  0
  143.2742   75.4326  221.0850 H   0  0  0  0  0  0  0  0  0  0  0  0
  142.3127   73.9978  220.6549 H   0  0  0  0  0  0  0  0  0  0  0  0
  143.6078   74.7271  218.6737 H   0  0  0  0  0  0  0  0  0  0  0  0
  141.9029   75.0395  218.3484 H   0  0  0  0  0  0  0  0  0  0  0  0
  143.7923   77.0766  219.6842 H   0  0  0  0  0  0  0  0  0  0  0  0
  143.4736   77.0513  217.9268 H   0  0  0  0  0  0  0  0  0  0  0  0
  142.0590   78.6103  219.3118 H   0  0  0  0  0  0  0  0  0  0  0  0
  141.1864   77.3759  218.2394 H   0  0  0  0  0  0  0  0  0  0  0  0
  139.9114   76.9890  219.9178 H   0  0  0  0  0  0  0  0  0  0  0  0
  143.1270   78.5691  221.0331 H   0  0  0  0  0  0  0  0  0  0  0  0
  143.2625   80.3311  222.7339 H   0  0  0  0  0  0  0  0  0  0  0  0
  140.4990   81.6680  224.6070 H   0  0  0  0  0  0  0  0  0  0  0  0
  139.0880   79.8618  223.5703 H   0  0  0  0  0  0  0  0  0  0  0  0
  138.9595   78.1034  221.8687 H   0  0  0  0  0  0  0  0  0  0  0  0
  138.8166   69.0671  222.7056 H   0  0  0  0  0  0  0  0  0  0  0  0
  138.8448   67.6292  224.7472 H   0  0  0  0  0  0  0  0  0  0  0  0
  139.4161   67.3384  227.0779 H   0  0  0  0  0  0  0  0  0  0  0  0
  141.3440   70.5602  229.2130 H   0  0  0  0  0  0  0  0  0  0  0  0
  141.2904   71.9528  227.1501 H   0  0  0  0  0  0  0  0  0  0  0  0
  1  2  2  0
  2  3  1  0
  3  4  1  0
  4  5  1  0
  5  6  2  0
  5  7  1  0
  7  8  1  0
  8  9  1  0
  9 10  1  0
 10 11  1  0
 11 12  1  0
 12 13  1  0
 13 14  2  0
 14 15  1  0
 15 16  2  0
 16 17  1  0
 16 18  1  0
 18 19  2  0
  2 20  1  0
 20 21  2  0
 21 22  1  0
 22 23  2  0
 23 24  1  0
 24 25  2  0
 25 26  1  0
 25 27  1  0
 27 28  2  0
 28 29  1  0
 29 30  2  0
 12  7  1  0
 19 13  1  0
 30 20  1  0
 29 23  1  0
  3 31  1  0
  4 32  1  0
  4 33  1  0
  8 34  1  0
  8 35  1  0
  9 36  1  0
  9 37  1  0
 10 38  1  0
 10 39  1  0
 11 40  1  0
 11 41  1  0
 12 42  1  6
 14 43  1  0
 15 44  1  0
 17 45  1  0
 18 46  1  0
 19 47  1  0
 21 48  1  0
 22 49  1  0
 24 50  1  0
 27 51  1  0
 28 52  1  0
M  END
>  <smiles>  (8) 
O=C(NCC(=O)N1CCCCC1c1ccc(O)cc1)c1ccc2cc(F)ccc2n1

>  <score_type>  (8) 
oracle

>  <origin>  (8) 
autodockgpu

>  <m_score__min__energy>  (8) 
-8.8599999999999994

>  <m_primary>  (8) 
energy

>  <rmsd>  (8) 
1.8881845739927596

>  <m_score__min__rmsd>  (8) 
1.8881845739927596

>  <meeko>  (8) 
{"free_energy": -8.03, "intermolecular_energy": -9.82, "internal_energy": -1.61, "cluster_size": 14, "cluster_id": 3, "rank_in_cluster": 13}

>  <energy>  (8) 
-8.52

>  <cluster_rmsd>  (8) 
0.56

>  <cluster>  (8) 
1

$$$$

     RDKit          3D

 52 55  0  0  0  0  0  0  0  0999 V2000
  141.2460   72.3600  221.6680 O   0  0  0  0  0  0  0  0  0  0  0  0
  140.3270   72.4600  222.5350 C   0  0  0  0  0  0  0  0  0  0  0  0
  139.4030   73.5500  222.3530 N   0  0  0  0  0  0  0  0  0  0  0  0
  139.5420   74.4530  221.2460 C   0  0  0  0  0  0  0  0  0  0  0  0
  140.6430   75.4280  221.4410 C   0  0  0  0  0  0  0  0  0  0  0  0
  141.8420   74.9940  221.4350 O   0  0  0  0  0  0  0  0  0  0  0  0
  140.4080   76.8170  221.6330 N   0  0  0  0  0  0  0  0  0  0  0  0
  139.0710   77.1990  222.0540 C   0  0  0  0  0  0  0  0  0  0  0  0
  139.2210   78.3070  223.0760 C   0  0  0  0  0  0  0  0  0  0  0  0
  139.8170   79.4690  222.3050 C   0  0  0  0  0  0  0  0  0  0  0  0
  141.2210   79.1250  221.9630 C   0  0  0  0  0  0  0  0  0  0  0  0
  141.4640   77.7660  221.4160 C   0  0  2  0  0  0  0  0  0  0  0  0
  141.8270   77.9360  219.9830 C   0  0  0  0  0  0  0  0  0  0  0  0
  142.5910   76.9770  219.3040 C   0  0  0  0  0  0  0  0  0  0  0  0
  142.9330   77.1260  217.9770 C   0  0  0  0  0  0  0  0  0  0  0  0
  142.5340   78.2340  217.2590 C   0  0  0  0  0  0  0  0  0  0  0  0
  142.9070   78.3330  215.9250 O   0  0  0  0  0  0  0  0  0  0  0  0
  141.7810   79.1930  217.9050 C   0  0  0  0  0  0  0  0  0  0  0  0
  141.4460   79.0300  219.2340 C   0  0  0  0  0  0  0  0  0  0  0  0
  140.2000   71.5460  223.6410 C   0  0  0  0  0  0  0  0  0  0  0  0
  139.5770   70.3350  223.4250 C   0  0  0  0  0  0  0  0  0  0  0  0
  139.4460   69.4460  224.4740 C   0  0  0  0  0  0  0  0  0  0  0  0
  139.9480   69.8010  225.7220 C   0  0  0  0  0  0  0  0  0  0  0  0
  139.8220   68.9100  226.7910 C   0  0  0  0  0  0  0  0  0  0  0  0
  140.3310   69.2780  228.0400 C   0  0  0  0  0  0  0  0  0  0  0  0
  140.2210   68.4250  229.1030 F   0  0  0  0  0  0  0  0  0  0  0  0
  140.9470   70.5000  228.2110 C   0  0  0  0  0  0  0  0  0  0  0  0
  141.0620   71.3750  227.1300 C   0  0  0  0  0  0  0  0  0  0  0  0
  140.5630   71.0300  225.8770 C   0  0  0  0  0  0  0  0  0  0  0  0
  140.6870   71.8930  224.8470 N   0  0  0  0  0  0  0  0  0  0  0  0
  138.6520   73.6120  223.0830 H   0  0  0  0  0  0  0  0  0  0  0  0
  139.7463   73.8678  220.3373 H   0  0  0  0  0  0  0  0  0  0  0  0
  138.6043   75.0216  221.1596 H   0  0  0  0  0  0  0  0  0  0  0  0
  138.4927   77.5590  221.1903 H   0  0  0  0  0  0  0  0  0  0  0  0
  138.5379   76.3394  222.4863 H   0  0  0  0  0  0  0  0  0  0  0  0
  138.2420   78.5820  223.4955 H   0  0  0  0  0  0  0  0  0  0  0  0
  139.8521   78.0054  223.9250 H   0  0  0  0  0  0  0  0  0  0  0  0
  139.2403   79.6402  221.3841 H   0  0  0  0  0  0  0  0  0  0  0  0
  139.7867   80.3851  222.9131 H   0  0  0  0  0  0  0  0  0  0  0  0
  141.5686   79.8520  221.2142 H   0  0  0  0  0  0  0  0  0  0  0  0
  141.7645   79.1515  222.9190 H   0  0  0  0  0  0  0  0  0  0  0  0
  142.2895   77.3013  221.9751 H   0  0  0  0  0  0  0  0  0  0  0  0
  142.9271   76.0803  219.8452 H   0  0  0  0  0  0  0  0  0  0  0  0
  143.5339   76.3485  217.4826 H   0  0  0  0  0  0  0  0  0  0  0  0
  143.3250   79.1900  215.5770 H   0  0  0  0  0  0  0  0  0  0  0  0
  141.4473   80.0885  217.3602 H   0  0  0  0  0  0  0  0  0  0  0  0
  140.8447   79.8121  219.7206 H   0  0  0  0  0  0  0  0  0  0  0  0
  139.1885   70.0797  222.4281 H   0  0  0  0  0  0  0  0  0  0  0  0
  138.9532   68.4739  224.3252 H   0  0  0  0  0  0  0  0  0  0  0  0
  139.3307   67.9357  226.6522 H   0  0  0  0  0  0  0  0  0  0  0  0
  141.3462   70.7839  229.1959 H   0  0  0  0  0  0  0  0  0  0  0  0
  141.5530   72.3494  227.2697 H   0  0  0  0  0  0  0  0  0  0  0  0
  1  2  2  0
  2  3  1  0
  3  4  1  0
  4  5  1  0
  5  6  2  0
  5  7  1  0
  7  8  1  0
  8  9  1  0
  9 10  1  0
 10 11  1  0
 11 12  1  0
 12 13  1  0
 13 14  2  0
 14 15  1  0
 15 16  2  0
 16 17  1  0
 16 18  1  0
 18 19  2  0
  2 20  1  0
 20 21  2  0
 21 22  1  0
 22 23  2  0
 23 24  1  0
 24 25  2  0
 25 26  1  0
 25 27  1  0
 27 28  2  0
 28 29  1  0
 29 30  2  0
 12  7  1  0
 19 13  1  0
 30 20  1  0
 29 23  1  0
  3 31  1  0
  4 32  1  0
  4 33  1  0
  8 34  1  0
  8 35  1  0
  9 36  1  0
  9 37  1  0
 10 38  1  0
 10 39  1  0
 11 40  1  0
 11 41  1  0
 12 42  1  1
 14 43  1  0
 15 44  1  0
 17 45  1  0
 18 46  1  0
 19 47  1  0
 21 48  1  0
 22 49  1  0
 24 50  1  0
 27 51  1  0
 28 52  1  0
M  END
>  <smiles>  (9) 
O=C(NCC(=O)N1CCCCC1c1ccc(O)cc1)c1ccc2cc(F)ccc2n1

>  <score_type>  (9) 
oracle

>  <origin>  (9) 
autodockgpu

>  <m_score__min__energy>  (9) 
-8.8599999999999994

>  <m_primary>  (9) 
energy

>  <rmsd>  (9) 
2.864100733142637

>  <m_score__min__rmsd>  (9) 
2.864100733142637

>  <meeko>  (9) 
{"free_energy": -8.49, "intermolecular_energy": -10.28, "internal_energy": -1.23, "cluster_size": 10, "cluster_id": 2, "rank_in_cluster": 8}

>  <energy>  (9) 
-8.37

>  <cluster_rmsd>  (9) 
0.64

>  <cluster>  (9) 
1

$$$$

     RDKit          3D

 52 55  0  0  0  0  0  0  0  0999 V2000
  141.0730   72.7250  222.0420 O   0  0  0  0  0  0  0  0  0  0  0  0
  140.0180   72.5380  222.7200 C   0  0  0  0  0  0  0  0  0  0  0  0
  138.8710   73.3160  222.3300 N   0  0  0  0  0  0  0  0  0  0  0  0
  138.9470   74.2410  221.2340 C   0  0  0  0  0  0  0  0  0  0  0  0
  139.4820   75.5630  221.6420 C   0  0  0  0  0  0  0  0  0  0  0  0
  140.6240   75.6030  222.2090 O   0  0  0  0  0  0  0  0  0  0  0  0
  138.7710   76.7750  221.4250 N   0  0  0  0  0  0  0  0  0  0  0  0
  138.0550   76.8920  220.1670 C   0  0  0  0  0  0  0  0  0  0  0  0
  136.7360   77.5740  220.4620 C   0  0  0  0  0  0  0  0  0  0  0  0
  137.1130   78.9710  220.9160 C   0  0  0  0  0  0  0  0  0  0  0  0
  137.7530   78.8660  222.2530 C   0  0  0  0  0  0  0  0  0  0  0  0
  138.7810   77.8070  222.4220 C   0  0  2  0  0  0  0  0  0  0  0  0
  140.0920   78.4970  222.5530 C   0  0  0  0  0  0  0  0  0  0  0  0
  140.8000   78.9430  221.4280 C   0  0  0  0  0  0  0  0  0  0  0  0
  142.0150   79.5830  221.5390 C   0  0  0  0  0  0  0  0  0  0  0  0
  142.5890   79.8120  222.7720 C   0  0  0  0  0  0  0  0  0  0  0  0
  143.8160   80.4600  222.8260 O   0  0  0  0  0  0  0  0  0  0  0  0
  141.9130   79.3830  223.8960 C   0  0  0  0  0  0  0  0  0  0  0  0
  140.6970   78.7440  223.7700 C   0  0  0  0  0  0  0  0  0  0  0  0
  139.9550   71.6070  223.8170 C   0  0  0  0  0  0  0  0  0  0  0  0
  139.2860   70.4160  223.6300 C   0  0  0  0  0  0  0  0  0  0  0  0
  139.2160   69.5100  224.6710 C   0  0  0  0  0  0  0  0  0  0  0  0
  139.8240   69.8290  225.8810 C   0  0  0  0  0  0  0  0  0  0  0  0
  139.7600   68.9200  226.9410 C   0  0  0  0  0  0  0  0  0  0  0  0
  140.3760   69.2520  228.1520 C   0  0  0  0  0  0  0  0  0  0  0  0
  140.3280   68.3820  229.2060 F   0  0  0  0  0  0  0  0  0  0  0  0
  141.0350   70.4550  228.2940 C   0  0  0  0  0  0  0  0  0  0  0  0
  141.0870   71.3480  227.2230 C   0  0  0  0  0  0  0  0  0  0  0  0
  140.4810   71.0390  226.0080 C   0  0  0  0  0  0  0  0  0  0  0  0
  140.5460   71.9180  224.9860 N   0  0  0  0  0  0  0  0  0  0  0  0
  138.0110   73.1430  222.9060 H   0  0  0  0  0  0  0  0  0  0  0  0
  139.6046   73.8179  220.4604 H   0  0  0  0  0  0  0  0  0  0  0  0
  137.9256   74.3961  220.8563 H   0  0  0  0  0  0  0  0  0  0  0  0
  138.6394   77.4941  219.4557 H   0  0  0  0  0  0  0  0  0  0  0  0
  137.8896   75.9010  219.7192 H   0  0  0  0  0  0  0  0  0  0  0  0
  136.1112   77.6162  219.5577 H   0  0  0  0  0  0  0  0  0  0  0  0
  136.1515   77.0348  221.2221 H   0  0  0  0  0  0  0  0  0  0  0  0
  137.8178   79.4182  220.1995 H   0  0  0  0  0  0  0  0  0  0  0  0
  136.2178   79.6078  220.9714 H   0  0  0  0  0  0  0  0  0  0  0  0
  138.2319   79.8323  222.4696 H   0  0  0  0  0  0  0  0  0  0  0  0
  136.9399   78.5903  222.9406 H   0  0  0  0  0  0  0  0  0  0  0  0
  138.5510   77.2302  223.3300 H   0  0  0  0  0  0  0  0  0  0  0  0
  140.3731   78.7771  220.4279 H   0  0  0  0  0  0  0  0  0  0  0  0
  142.5358   79.9168  220.6294 H   0  0  0  0  0  0  0  0  0  0  0  0
  144.6190   80.0670  222.3440 H   0  0  0  0  0  0  0  0  0  0  0  0
  142.3444   79.5509  224.8938 H   0  0  0  0  0  0  0  0  0  0  0  0
  140.1831   78.4144  224.6850 H   0  0  0  0  0  0  0  0  0  0  0  0
  138.8133   70.1896  222.6629 H   0  0  0  0  0  0  0  0  0  0  0  0
  138.6886   68.5529  224.5451 H   0  0  0  0  0  0  0  0  0  0  0  0
  139.2345   67.9606  226.8248 H   0  0  0  0  0  0  0  0  0  0  0  0
  141.5182   70.7099  229.2487 H   0  0  0  0  0  0  0  0  0  0  0  0
  141.6128   72.3071  227.3399 H   0  0  0  0  0  0  0  0  0  0  0  0
  1  2  2  0
  2  3  1  0
  3  4  1  0
  4  5  1  0
  5  6  2  0
  5  7  1  0
  7  8  1  0
  8  9  1  0
  9 10  1  0
 10 11  1  0
 11 12  1  0
 12 13  1  0
 13 14  2  0
 14 15  1  0
 15 16  2  0
 16 17  1  0
 16 18  1  0
 18 19  2  0
  2 20  1  0
 20 21  2  0
 21 22  1  0
 22 23  2  0
 23 24  1  0
 24 25  2  0
 25 26  1  0
 25 27  1  0
 27 28  2  0
 28 29  1  0
 29 30  2  0
 12  7  1  0
 19 13  1  0
 30 20  1  0
 29 23  1  0
  3 31  1  0
  4 32  1  0
  4 33  1  0
  8 34  1  0
  8 35  1  0
  9 36  1  0
  9 37  1  0
 10 38  1  0
 10 39  1  0
 11 40  1  0
 11 41  1  0
 12 42  1  1
 14 43  1  0
 15 44  1  0
 17 45  1  0
 18 46  1  0
 19 47  1  0
 21 48  1  0
 22 49  1  0
 24 50  1  0
 27 51  1  0
 28 52  1  0
M  END
>  <smiles>  (10) 
O=C(NCC(=O)N1CCCCC1c1ccc(O)cc1)c1ccc2cc(F)ccc2n1

>  <score_type>  (10) 
oracle

>  <origin>  (10) 
autodockgpu

>  <m_score__min__energy>  (10) 
-8.8599999999999994

>  <m_primary>  (10) 
energy

>  <rmsd>  (10) 
2.800004156868768

>  <m_score__min__rmsd>  (10) 
2.800004156868768

>  <meeko>  (10) 
{"free_energy": -8.36, "intermolecular_energy": -10.15, "internal_energy": -1.24, "cluster_size": 14, "cluster_id": 3, "rank_in_cluster": 6}

>  <energy>  (10) 
-8.33

>  <cluster_rmsd>  (10) 
0.61

>  <cluster>  (10) 
1

$$$$

     RDKit          3D

 52 55  0  0  0  0  0  0  0  0999 V2000
  140.3240   71.2810  221.0520 O   0  0  0  0  0  0  0  0  0  0  0  0
  140.0720   71.8290  222.1670 C   0  0  0  0  0  0  0  0  0  0  0  0
  139.9130   73.2600  222.1460 N   0  0  0  0  0  0  0  0  0  0  0  0
  140.0390   73.9950  220.9190 C   0  0  0  0  0  0  0  0  0  0  0  0
  140.7120   75.3040  221.1060 C   0  0  0  0  0  0  0  0  0  0  0  0
  140.8590   75.7430  222.2940 O   0  0  0  0  0  0  0  0  0  0  0  0
  141.1940   76.0780  220.0160 N   0  0  0  0  0  0  0  0  0  0  0  0
  140.2120   76.4950  219.0300 C   0  0  0  0  0  0  0  0  0  0  0  0
  140.5520   77.9160  218.6300 C   0  0  0  0  0  0  0  0  0  0  0  0
  141.8960   77.8140  217.9350 C   0  0  0  0  0  0  0  0  0  0  0  0
  142.9220   77.4910  218.9600 C   0  0  0  0  0  0  0  0  0  0  0  0
  142.5870   76.4160  219.9280 C   0  0  2  0  0  0  0  0  0  0  0  0
  143.4620   75.2570  219.6050 C   0  0  0  0  0  0  0  0  0  0  0  0
  143.6360   74.8180  218.2850 C   0  0  0  0  0  0  0  0  0  0  0  0
  144.4450   73.7450  217.9760 C   0  0  0  0  0  0  0  0  0  0  0  0
  145.1190   73.0540  218.9610 C   0  0  0  0  0  0  0  0  0  0  0  0
  145.9180   71.9810  218.5940 O   0  0  0  0  0  0  0  0  0  0  0  0
  144.9630   73.4660  220.2690 C   0  0  0  0  0  0  0  0  0  0  0  0
  144.1510   74.5420  220.5640 C   0  0  0  0  0  0  0  0  0  0  0  0
  139.9480   71.0790  223.3910 C   0  0  0  0  0  0  0  0  0  0  0  0
  139.3590   69.8330  223.3410 C   0  0  0  0  0  0  0  0  0  0  0  0
  139.2320   69.1000  224.5050 C   0  0  0  0  0  0  0  0  0  0  0  0
  139.7030   69.6420  225.6950 C   0  0  0  0  0  0  0  0  0  0  0  0
  139.5800   68.9090  226.8790 C   0  0  0  0  0  0  0  0  0  0  0  0
  140.0590   69.4650  228.0700 C   0  0  0  0  0  0  0  0  0  0  0  0
  139.9510   68.7690  229.2430 F   0  0  0  0  0  0  0  0  0  0  0  0
  140.6410   70.7150  228.0730 C   0  0  0  0  0  0  0  0  0  0  0  0
  140.7530   71.4300  226.8800 C   0  0  0  0  0  0  0  0  0  0  0  0
  140.2850   70.8970  225.6820 C   0  0  0  0  0  0  0  0  0  0  0  0
  140.4060   71.6070  224.5410 N   0  0  0  0  0  0  0  0  0  0  0  0
  139.7050   73.6900  223.0800 H   0  0  0  0  0  0  0  0  0  0  0  0
  140.6257   73.3954  220.2075 H   0  0  0  0  0  0  0  0  0  0  0  0
  139.0245   74.1922  220.5424 H   0  0  0  0  0  0  0  0  0  0  0  0
  140.2573   75.8353  218.1510 H   0  0  0  0  0  0  0  0  0  0  0  0
  139.1949   76.4397  219.4452 H   0  0  0  0  0  0  0  0  0  0  0  0
  139.7912   78.3178  217.9446 H   0  0  0  0  0  0  0  0  0  0  0  0
  140.5836   78.5939  219.4957 H   0  0  0  0  0  0  0  0  0  0  0  0
  141.8639   77.0185  217.1759 H   0  0  0  0  0  0  0  0  0  0  0  0
  142.1406   78.7637  217.4368 H   0  0  0  0  0  0  0  0  0  0  0  0
  143.8374   77.1884  218.4305 H   0  0  0  0  0  0  0  0  0  0  0  0
  143.0200   78.4036  219.5663 H   0  0  0  0  0  0  0  0  0  0  0  0
  142.7840   76.7822  220.9464 H   0  0  0  0  0  0  0  0  0  0  0  0
  143.1125   75.3442  217.4732 H   0  0  0  0  0  0  0  0  0  0  0  0
  144.5546   73.4350  216.9263 H   0  0  0  0  0  0  0  0  0  0  0  0
  145.4940   71.1290  218.2380 H   0  0  0  0  0  0  0  0  0  0  0  0
  145.4869   72.9356  221.0778 H   0  0  0  0  0  0  0  0  0  0  0  0
  144.0475   74.8453  221.6163 H   0  0  0  0  0  0  0  0  0  0  0  0
  138.9946   69.4276  222.3855 H   0  0  0  0  0  0  0  0  0  0  0  0
  138.7658   68.1038  224.4903 H   0  0  0  0  0  0  0  0  0  0  0  0
  139.1146   67.9123  226.8742 H   0  0  0  0  0  0  0  0  0  0  0  0
  141.0157   71.1471  229.0126 H   0  0  0  0  0  0  0  0  0  0  0  0
  141.2169   72.4274  226.8861 H   0  0  0  0  0  0  0  0  0  0  0  0
  1  2  2  0
  2  3  1  0
  3  4  1  0
  4  5  1  0
  5  6  2  0
  5  7  1  0
  7  8  1  0
  8  9  1  0
  9 10  1  0
 10 11  1  0
 11 12  1  0
 12 13  1  0
 13 14  2  0
 14 15  1  0
 15 16  2  0
 16 17  1  0
 16 18  1  0
 18 19  2  0
  2 20  1  0
 20 21  2  0
 21 22  1  0
 22 23  2  0
 23 24  1  0
 24 25  2  0
 25 26  1  0
 25 27  1  0
 27 28  2  0
 28 29  1  0
 29 30  2  0
 12  7  1  0
 19 13  1  0
 30 20  1  0
 29 23  1  0
  3 31  1  0
  4 32  1  0
  4 33  1  0
  8 34  1  0
  8 35  1  0
  9 36  1  0
  9 37  1  0
 10 38  1  0
 10 39  1  0
 11 40  1  0
 11 41  1  0
 12 42  1  1
 14 43  1  0
 15 44  1  0
 17 45  1  0
 18 46  1  0
 19 47  1  0
 21 48  1  0
 22 49  1  0
 24 50  1  0
 27 51  1  0
 28 52  1  0
M  END
>  <smiles>  (11) 
O=C(NCC(=O)N1CCCCC1c1ccc(O)cc1)c1ccc2cc(F)ccc2n1

>  <score_type>  (11) 
oracle

>  <origin>  (11) 
autodockgpu

>  <m_score__min__energy>  (11) 
-8.8599999999999994

>  <m_primary>  (11) 
energy

>  <rmsd>  (11) 
1.679417937775835

>  <m_score__min__rmsd>  (11) 
1.679417937775835

>  <meeko>  (11) 
{"free_energy": -8.12, "intermolecular_energy": -9.91, "internal_energy": -1.77, "cluster_size": 19, "cluster_id": 1, "rank_in_cluster": 15}

>  <energy>  (11) 
-8.27

>  <cluster_rmsd>  (11) 
0.93

>  <cluster>  (11) 
1

$$$$

     RDKit          3D

 52 55  0  0  0  0  0  0  0  0999 V2000
  140.7030   72.1030  221.3410 O   0  0  0  0  0  0  0  0  0  0  0  0
  139.9430   72.2960  222.3380 C   0  0  0  0  0  0  0  0  0  0  0  0
  139.0690   73.4380  222.2530 N   0  0  0  0  0  0  0  0  0  0  0  0
  139.0800   74.2870  221.0950 C   0  0  0  0  0  0  0  0  0  0  0  0
  139.7900   75.5670  221.3360 C   0  0  0  0  0  0  0  0  0  0  0  0
  139.1950   76.4700  222.0130 O   0  0  0  0  0  0  0  0  0  0  0  0
  141.0990   75.8200  220.8420 N   0  0  0  0  0  0  0  0  0  0  0  0
  142.0550   74.7310  220.9470 C   0  0  0  0  0  0  0  0  0  0  0  0
  142.8740   74.7290  219.6730 C   0  0  0  0  0  0  0  0  0  0  0  0
  143.6470   76.0330  219.7040 C   0  0  0  0  0  0  0  0  0  0  0  0
  142.6860   77.1450  219.4930 C   0  0  0  0  0  0  0  0  0  0  0  0
  141.4230   77.0980  220.2730 C   0  0  2  0  0  0  0  0  0  0  0  0
  141.4940   78.1960  221.2750 C   0  0  0  0  0  0  0  0  0  0  0  0
  141.4400   77.9350  222.6510 C   0  0  0  0  0  0  0  0  0  0  0  0
  141.5050   78.9450  223.5860 C   0  0  0  0  0  0  0  0  0  0  0  0
  141.6250   80.2640  223.2020 C   0  0  0  0  0  0  0  0  0  0  0  0
  141.6850   81.2410  224.1870 O   0  0  0  0  0  0  0  0  0  0  0  0
  141.6790   80.5480  221.8530 C   0  0  0  0  0  0  0  0  0  0  0  0
  141.6140   79.5270  220.9280 C   0  0  0  0  0  0  0  0  0  0  0  0
  139.9430   71.4360  223.4930 C   0  0  0  0  0  0  0  0  0  0  0  0
  139.3870   70.1790  223.3750 C   0  0  0  0  0  0  0  0  0  0  0  0
  139.3780   69.3400  224.4730 C   0  0  0  0  0  0  0  0  0  0  0  0
  139.9300   69.7900  225.6670 C   0  0  0  0  0  0  0  0  0  0  0  0
  139.9270   68.9490  226.7840 C   0  0  0  0  0  0  0  0  0  0  0  0
  140.4860   69.4130  227.9790 C   0  0  0  0  0  0  0  0  0  0  0  0
  140.4960   68.6110  229.0870 F   0  0  0  0  0  0  0  0  0  0  0  0
  141.0320   70.6780  228.0500 C   0  0  0  0  0  0  0  0  0  0  0  0
  141.0240   71.5010  226.9240 C   0  0  0  0  0  0  0  0  0  0  0  0
  140.4730   71.0600  225.7240 C   0  0  0  0  0  0  0  0  0  0  0  0
  140.4790   71.8750  224.6470 N   0  0  0  0  0  0  0  0  0  0  0  0
  138.4510   73.5770  223.0890 H   0  0  0  0  0  0  0  0  0  0  0  0
  139.5807   73.7553  220.2725 H   0  0  0  0  0  0  0  0  0  0  0  0
  138.0356   74.5258  220.8456 H   0  0  0  0  0  0  0  0  0  0  0  0
  142.7107   74.8877  221.8162 H   0  0  0  0  0  0  0  0  0  0  0  0
  141.5380   73.7693  221.0801 H   0  0  0  0  0  0  0  0  0  0  0  0
  143.5625   73.8713  219.6569 H   0  0  0  0  0  0  0  0  0  0  0  0
  142.2436   74.6425  218.7757 H   0  0  0  0  0  0  0  0  0  0  0  0
  144.1431   76.1491  220.6789 H   0  0  0  0  0  0  0  0  0  0  0  0
  144.4151   76.0391  218.9166 H   0  0  0  0  0  0  0  0  0  0  0  0
  143.2008   78.0825  219.7501 H   0  0  0  0  0  0  0  0  0  0  0  0
  142.3767   77.0613  218.4407 H   0  0  0  0  0  0  0  0  0  0  0  0
  140.5762   77.2498  219.5875 H   0  0  0  0  0  0  0  0  0  0  0  0
  141.3430   76.8944  222.9942 H   0  0  0  0  0  0  0  0  0  0  0  0
  141.4604   78.6951  224.6563 H   0  0  0  0  0  0  0  0  0  0  0  0
  142.2630   82.0650  224.0500 H   0  0  0  0  0  0  0  0  0  0  0  0
  141.7740   81.5903  221.5146 H   0  0  0  0  0  0  0  0  0  0  0  0
  141.6601   79.7862  219.8600 H   0  0  0  0  0  0  0  0  0  0  0  0
  138.9560   69.8485  222.4184 H   0  0  0  0  0  0  0  0  0  0  0  0
  138.9413   68.3328  224.4035 H   0  0  0  0  0  0  0  0  0  0  0  0
  139.4926   67.9402  226.7239 H   0  0  0  0  0  0  0  0  0  0  0  0
  141.4724   71.0365  228.9921 H   0  0  0  0  0  0  0  0  0  0  0  0
  141.4580   72.5099  226.9848 H   0  0  0  0  0  0  0  0  0  0  0  0
  1  2  2  0
  2  3  1  0
  3  4  1  0
  4  5  1  0
  5  6  2  0
  5  7  1  0
  7  8  1  0
  8  9  1  0
  9 10  1  0
 10 11  1  0
 11 12  1  0
 12 13  1  0
 13 14  2  0
 14 15  1  0
 15 16  2  0
 16 17  1  0
 16 18  1  0
 18 19  2  0
  2 20  1  0
 20 21  2  0
 21 22  1  0
 22 23  2  0
 23 24  1  0
 24 25  2  0
 25 26  1  0
 25 27  1  0
 27 28  2  0
 28 29  1  0
 29 30  2  0
 12  7  1  0
 19 13  1  0
 30 20  1  0
 29 23  1  0
  3 31  1  0
  4 32  1  0
  4 33  1  0
  8 34  1  0
  8 35  1  0
  9 36  1  0
  9 37  1  0
 10 38  1  0
 10 39  1  0
 11 40  1  0
 11 41  1  0
 12 42  1  6
 14 43  1  0
 15 44  1  0
 17 45  1  0
 18 46  1  0
 19 47  1  0
 21 48  1  0
 22 49  1  0
 24 50  1  0
 27 51  1  0
 28 52  1  0
M  END
>  <smiles>  (12) 
O=C(NCC(=O)N1CCCCC1c1ccc(O)cc1)c1ccc2cc(F)ccc2n1

>  <score_type>  (12) 
oracle

>  <origin>  (12) 
autodockgpu

>  <m_score__min__energy>  (12) 
-8.8599999999999994

>  <m_primary>  (12) 
energy

>  <rmsd>  (12) 
2.038436646106561

>  <m_score__min__rmsd>  (12) 
2.038436646106561

>  <meeko>  (12) 
{"free_energy": -8.61, "intermolecular_energy": -10.4, "internal_energy": -1.3, "cluster_size": 14, "cluster_id": 3, "rank_in_cluster": 4}

>  <energy>  (12) 
-8.23

>  <cluster_rmsd>  (12) 
0.72

>  <cluster>  (12) 
1

$$$$

     RDKit          3D

 52 55  0  0  0  0  0  0  0  0999 V2000
  141.2190   71.9900  221.3480 O   0  0  0  0  0  0  0  0  0  0  0  0
  140.3370   72.2260  222.2280 C   0  0  0  0  0  0  0  0  0  0  0  0
  139.4880   73.3630  221.9830 N   0  0  0  0  0  0  0  0  0  0  0  0
  139.6550   74.1640  220.8020 C   0  0  0  0  0  0  0  0  0  0  0  0
  140.6950   75.2080  220.9660 C   0  0  0  0  0  0  0  0  0  0  0  0
  141.0350   75.5410  222.1500 O   0  0  0  0  0  0  0  0  0  0  0  0
  141.3200   75.8450  219.8600 N   0  0  0  0  0  0  0  0  0  0  0  0
  140.4670   76.1680  218.7290 C   0  0  0  0  0  0  0  0  0  0  0  0
  140.8970   77.5280  218.2170 C   0  0  0  0  0  0  0  0  0  0  0  0
  142.3050   77.3200  217.6950 C   0  0  0  0  0  0  0  0  0  0  0  0
  143.2000   77.0920  218.8580 C   0  0  0  0  0  0  0  0  0  0  0  0
  142.7250   76.1400  219.8940 C   0  0  2  0  0  0  0  0  0  0  0  0
  143.5900   74.9340  219.8000 C   0  0  0  0  0  0  0  0  0  0  0  0
  144.8190   74.8620  220.4720 C   0  0  0  0  0  0  0  0  0  0  0  0
  145.6270   73.7480  220.3910 C   0  0  0  0  0  0  0  0  0  0  0  0
  145.2580   72.6520  219.6400 C   0  0  0  0  0  0  0  0  0  0  0  0
  146.1110   71.5580  219.5940 O   0  0  0  0  0  0  0  0  0  0  0  0
  144.0530   72.6990  218.9690 C   0  0  0  0  0  0  0  0  0  0  0  0
  143.2530   73.8190  219.0590 C   0  0  0  0  0  0  0  0  0  0  0  0
  140.1800   71.4140  223.4070 C   0  0  0  0  0  0  0  0  0  0  0  0
  139.5480   70.1940  223.2860 C   0  0  0  0  0  0  0  0  0  0  0  0
  139.3890   69.4020  224.4070 C   0  0  0  0  0  0  0  0  0  0  0  0
  139.8730   69.8610  225.6280 C   0  0  0  0  0  0  0  0  0  0  0  0
  139.7180   69.0670  226.7680 C   0  0  0  0  0  0  0  0  0  0  0  0
  140.2100   69.5390  227.9900 C   0  0  0  0  0  0  0  0  0  0  0  0
  140.0710   68.7840  229.1210 F   0  0  0  0  0  0  0  0  0  0  0  0
  140.8360   70.7660  228.0640 C   0  0  0  0  0  0  0  0  0  0  0  0
  140.9790   71.5420  226.9140 C   0  0  0  0  0  0  0  0  0  0  0  0
  140.4980   71.0920  225.6870 C   0  0  0  0  0  0  0  0  0  0  0  0
  140.6500   71.8610  224.5870 N   0  0  0  0  0  0  0  0  0  0  0  0
  138.7670   73.5370  222.7250 H   0  0  0  0  0  0  0  0  0  0  0  0
  139.9431   73.5071  219.9681 H   0  0  0  0  0  0  0  0  0  0  0  0
  138.6995   74.6723  220.6052 H   0  0  0  0  0  0  0  0  0  0  0  0
  140.5871   75.4125  217.9385 H   0  0  0  0  0  0  0  0  0  0  0  0
  139.4088   76.1806  219.0292 H   0  0  0  0  0  0  0  0  0  0  0  0
  140.2308   77.8661  217.4096 H   0  0  0  0  0  0  0  0  0  0  0  0
  140.8553   78.2982  219.0012 H   0  0  0  0  0  0  0  0  0  0  0  0
  142.3299   76.4454  217.0284 H   0  0  0  0  0  0  0  0  0  0  0  0
  142.6351   78.2028  217.1278 H   0  0  0  0  0  0  0  0  0  0  0  0
  144.1572   76.7123  218.4714 H   0  0  0  0  0  0  0  0  0  0  0  0
  143.2611   78.0646  219.3683 H   0  0  0  0  0  0  0  0  0  0  0  0
  142.8219   76.6129  220.8824 H   0  0  0  0  0  0  0  0  0  0  0  0
  145.1471   75.7178  221.0803 H   0  0  0  0  0  0  0  0  0  0  0  0
  146.5829   73.7332  220.9351 H   0  0  0  0  0  0  0  0  0  0  0  0
  146.4710   71.1580  220.4550 H   0  0  0  0  0  0  0  0  0  0  0  0
  143.7297   71.8412  218.3609 H   0  0  0  0  0  0  0  0  0  0  0  0
  142.2982   73.8240  218.5128 H   0  0  0  0  0  0  0  0  0  0  0  0
  139.1748   69.8554  222.3082 H   0  0  0  0  0  0  0  0  0  0  0  0
  138.8883   68.4252  224.3353 H   0  0  0  0  0  0  0  0  0  0  0  0
  139.2184   68.0890  226.7056 H   0  0  0  0  0  0  0  0  0  0  0  0
  141.2213   71.1314  229.0273 H   0  0  0  0  0  0  0  0  0  0  0  0
  141.4774   72.5206  226.9769 H   0  0  0  0  0  0  0  0  0  0  0  0
  1  2  2  0
  2  3  1  0
  3  4  1  0
  4  5  1  0
  5  6  2  0
  5  7  1  0
  7  8  1  0
  8  9  1  0
  9 10  1  0
 10 11  1  0
 11 12  1  0
 12 13  1  0
 13 14  2  0
 14 15  1  0
 15 16  2  0
 16 17  1  0
 16 18  1  0
 18 19  2  0
  2 20  1  0
 20 21  2  0
 21 22  1  0
 22 23  2  0
 23 24  1  0
 24 25  2  0
 25 26  1  0
 25 27  1  0
 27 28  2  0
 28 29  1  0
 29 30  2  0
 12  7  1  0
 19 13  1  0
 30 20  1  0
 29 23  1  0
  3 31  1  0
  4 32  1  0
  4 33  1  0
  8 34  1  0
  8 35  1  0
  9 36  1  0
  9 37  1  0
 10 38  1  0
 10 39  1  0
 11 40  1  0
 11 41  1  0
 12 42  1  1
 14 43  1  0
 15 44  1  0
 17 45  1  0
 18 46  1  0
 19 47  1  0
 21 48  1  0
 22 49  1  0
 24 50  1  0
 27 51  1  0
 28 52  1  0
M  END
>  <smiles>  (13) 
O=C(NCC(=O)N1CCCCC1c1ccc(O)cc1)c1ccc2cc(F)ccc2n1

>  <score_type>  (13) 
oracle

>  <origin>  (13) 
autodockgpu

>  <m_score__min__energy>  (13) 
-8.8599999999999994

>  <m_primary>  (13) 
energy

>  <rmsd>  (13) 
1.6901009158867888

>  <m_score__min__rmsd>  (13) 
1.6901009158867888

>  <meeko>  (13) 
{"free_energy": -8.78, "intermolecular_energy": -10.57, "internal_energy": -1.58, "cluster_size": 19, "cluster_id": 1, "rank_in_cluster": 4}

>  <energy>  (13) 
-8.21

>  <cluster_rmsd>  (13) 
0.7

>  <cluster>  (13) 
1

$$$$

     RDKit          3D

 52 55  0  0  0  0  0  0  0  0999 V2000
  141.2410   72.0850  221.4010 O   0  0  0  0  0  0  0  0  0  0  0  0
  140.3230   72.2510  222.2590 C   0  0  0  0  0  0  0  0  0  0  0  0
  139.4040   73.3290  222.0010 N   0  0  0  0  0  0  0  0  0  0  0  0
  139.5460   74.1510  220.8320 C   0  0  0  0  0  0  0  0  0  0  0  0
  140.7020   75.0760  220.9230 C   0  0  0  0  0  0  0  0  0  0  0  0
  141.1910   75.3190  222.0760 O   0  0  0  0  0  0  0  0  0  0  0  0
  141.2780   75.6940  219.7800 N   0  0  0  0  0  0  0  0  0  0  0  0
  140.3940   75.9250  218.6510 C   0  0  0  0  0  0  0  0  0  0  0  0
  140.7460   77.2810  218.0740 C   0  0  0  0  0  0  0  0  0  0  0  0
  142.1560   77.1220  217.5390 C   0  0  0  0  0  0  0  0  0  0  0  0
  143.0770   76.9910  218.6960 C   0  0  0  0  0  0  0  0  0  0  0  0
  142.6660   76.0620  219.7790 C   0  0  2  0  0  0  0  0  0  0  0  0
  143.5910   74.8980  219.7240 C   0  0  0  0  0  0  0  0  0  0  0  0
  144.7770   74.8720  220.4700 C   0  0  0  0  0  0  0  0  0  0  0  0
  145.6410   73.7980  220.4250 C   0  0  0  0  0  0  0  0  0  0  0  0
  145.3700   72.6990  219.6380 C   0  0  0  0  0  0  0  0  0  0  0  0
  146.2750   71.6460  219.6300 O   0  0  0  0  0  0  0  0  0  0  0  0
  144.2080   72.7010  218.8930 C   0  0  0  0  0  0  0  0  0  0  0  0
  143.3530   73.7820  218.9480 C   0  0  0  0  0  0  0  0  0  0  0  0
  140.1930   71.4190  223.4280 C   0  0  0  0  0  0  0  0  0  0  0  0
  139.5770   70.1910  223.2950 C   0  0  0  0  0  0  0  0  0  0  0  0
  139.4440   69.3800  224.4050 C   0  0  0  0  0  0  0  0  0  0  0  0
  139.9350   69.8270  225.6270 C   0  0  0  0  0  0  0  0  0  0  0  0
  139.8060   69.0140  226.7570 C   0  0  0  0  0  0  0  0  0  0  0  0
  140.3050   69.4740  227.9800 C   0  0  0  0  0  0  0  0  0  0  0  0
  140.1910   68.7000  229.1010 F   0  0  0  0  0  0  0  0  0  0  0  0
  140.9130   70.7100  228.0660 C   0  0  0  0  0  0  0  0  0  0  0  0
  141.0310   71.5050  226.9260 C   0  0  0  0  0  0  0  0  0  0  0  0
  140.5430   71.0670  225.6980 C   0  0  0  0  0  0  0  0  0  0  0  0
  140.6700   71.8550  224.6080 N   0  0  0  0  0  0  0  0  0  0  0  0
  138.6540   73.4460  222.7250 H   0  0  0  0  0  0  0  0  0  0  0  0
  139.6846   73.4987  219.9572 H   0  0  0  0  0  0  0  0  0  0  0  0
  138.6360   74.7623  220.7416 H   0  0  0  0  0  0  0  0  0  0  0  0
  140.5410   75.1430  217.8915 H   0  0  0  0  0  0  0  0  0  0  0  0
  139.3412   75.8980  218.9685 H   0  0  0  0  0  0  0  0  0  0  0  0
  140.0522   77.5489  217.2635 H   0  0  0  0  0  0  0  0  0  0  0  0
  140.6753   78.0820  218.8246 H   0  0  0  0  0  0  0  0  0  0  0  0
  142.2168   76.2214  216.9104 H   0  0  0  0  0  0  0  0  0  0  0  0
  142.4325   77.9947  216.9291 H   0  0  0  0  0  0  0  0  0  0  0  0
  144.0473   76.6442  218.3110 H   0  0  0  0  0  0  0  0  0  0  0  0
  143.0946   77.9867  219.1632 H   0  0  0  0  0  0  0  0  0  0  0  0
  142.7518   76.5826  220.7442 H   0  0  0  0  0  0  0  0  0  0  0  0
  145.0257   75.7320  221.1092 H   0  0  0  0  0  0  0  0  0  0  0  0
  146.5615   73.8186  221.0269 H   0  0  0  0  0  0  0  0  0  0  0  0
  146.5130   71.1740  220.4970 H   0  0  0  0  0  0  0  0  0  0  0  0
  143.9635   71.8393  218.2545 H   0  0  0  0  0  0  0  0  0  0  0  0
  142.4350   73.7530  218.3427 H   0  0  0  0  0  0  0  0  0  0  0  0
  139.1966   69.8622  222.3167 H   0  0  0  0  0  0  0  0  0  0  0  0
  138.9577   68.3967  224.3239 H   0  0  0  0  0  0  0  0  0  0  0  0
  139.3205   68.0296  226.6855 H   0  0  0  0  0  0  0  0  0  0  0  0
  141.3033   71.0670  229.0305 H   0  0  0  0  0  0  0  0  0  0  0  0
  141.5155   72.4899  226.9982 H   0  0  0  0  0  0  0  0  0  0  0  0
  1  2  2  0
  2  3  1  0
  3  4  1  0
  4  5  1  0
  5  6  2  0
  5  7  1  0
  7  8  1  0
  8  9  1  0
  9 10  1  0
 10 11  1  0
 11 12  1  0
 12 13  1  0
 13 14  2  0
 14 15  1  0
 15 16  2  0
 16 17  1  0
 16 18  1  0
 18 19  2  0
  2 20  1  0
 20 21  2  0
 21 22  1  0
 22 23  2  0
 23 24  1  0
 24 25  2  0
 25 26  1  0
 25 27  1  0
 27 28  2  0
 28 29  1  0
 29 30  2  0
 12  7  1  0
 19 13  1  0
 30 20  1  0
 29 23  1  0
  3 31  1  0
  4 32  1  0
  4 33  1  0
  8 34  1  0
  8 35  1  0
  9 36  1  0
  9 37  1  0
 10 38  1  0
 10 39  1  0
 11 40  1  0
 11 41  1  0
 12 42  1  1
 14 43  1  0
 15 44  1  0
 17 45  1  0
 18 46  1  0
 19 47  1  0
 21 48  1  0
 22 49  1  0
 24 50  1  0
 27 51  1  0
 28 52  1  0
M  END
>  <smiles>  (14) 
O=C(NCC(=O)N1CCCCC1c1ccc(O)cc1)c1ccc2cc(F)ccc2n1

>  <score_type>  (14) 
oracle

>  <origin>  (14) 
autodockgpu

>  <m_score__min__energy>  (14) 
-8.8599999999999994

>  <m_primary>  (14) 
energy

>  <rmsd>  (14) 
1.6069069236949451

>  <m_score__min__rmsd>  (14) 
1.6069069236949451

>  <meeko>  (14) 
{"free_energy": -8.84, "intermolecular_energy": -10.63, "internal_energy": -1.57, "cluster_size": 19, "cluster_id": 1, "rank_in_cluster": 2}

>  <energy>  (14) 
-8.16

>  <cluster_rmsd>  (14) 
0.93

>  <cluster>  (14) 
1

$$$$

     RDKit          3D

 52 55  0  0  0  0  0  0  0  0999 V2000
  141.3430   72.9580  221.4840 O   0  0  0  0  0  0  0  0  0  0  0  0
  140.4050   72.9550  222.3370 C   0  0  0  0  0  0  0  0  0  0  0  0
  139.5550   74.1180  222.3440 N   0  0  0  0  0  0  0  0  0  0  0  0
  139.7820   75.2000  221.4280 C   0  0  0  0  0  0  0  0  0  0  0  0
  139.0700   76.4390  221.8240 C   0  0  0  0  0  0  0  0  0  0  0  0
  137.7950   76.4260  221.8340 O   0  0  0  0  0  0  0  0  0  0  0  0
  139.7550   77.6300  222.1910 N   0  0  0  0  0  0  0  0  0  0  0  0
  138.9380   78.7210  222.6930 C   0  0  0  0  0  0  0  0  0  0  0  0
  139.6980   79.3610  223.8370 C   0  0  0  0  0  0  0  0  0  0  0  0
  140.9340   79.9610  223.1960 C   0  0  0  0  0  0  0  0  0  0  0  0
  141.8220   78.8470  222.7740 C   0  0  0  0  0  0  0  0  0  0  0  0
  141.1820   77.7140  222.0590 C   0  0  2  0  0  0  0  0  0  0  0  0
  141.6480   77.7750  220.6480 C   0  0  0  0  0  0  0  0  0  0  0  0
  141.2550   78.8140  219.7930 C   0  0  0  0  0  0  0  0  0  0  0  0
  141.6820   78.8800  218.4840 C   0  0  0  0  0  0  0  0  0  0  0  0
  142.5190   77.9180  217.9590 C   0  0  0  0  0  0  0  0  0  0  0  0
  142.9160   78.0330  216.6340 O   0  0  0  0  0  0  0  0  0  0  0  0
  142.9200   76.8840  218.7800 C   0  0  0  0  0  0  0  0  0  0  0  0
  142.4850   76.8310  220.0880 C   0  0  0  0  0  0  0  0  0  0  0  0
  140.1890   71.8620  223.2490 C   0  0  0  0  0  0  0  0  0  0  0  0
  139.4670   70.7720  222.8100 C   0  0  0  0  0  0  0  0  0  0  0  0
  139.2500   69.7140  223.6720 C   0  0  0  0  0  0  0  0  0  0  0  0
  139.7670   69.7820  224.9610 C   0  0  0  0  0  0  0  0  0  0  0  0
  139.5540   68.7170  225.8420 C   0  0  0  0  0  0  0  0  0  0  0  0
  140.0790   68.7960  227.1360 C   0  0  0  0  0  0  0  0  0  0  0  0
  139.8850   67.7700  228.0180 F   0  0  0  0  0  0  0  0  0  0  0  0
  140.7940   69.9070  227.5320 C   0  0  0  0  0  0  0  0  0  0  0  0
  140.9950   70.9580  226.6380 C   0  0  0  0  0  0  0  0  0  0  0  0
  140.4820   70.9010  225.3440 C   0  0  0  0  0  0  0  0  0  0  0  0
  140.6900   71.9310  224.4960 N   0  0  0  0  0  0  0  0  0  0  0  0
  138.7870   74.0910  223.0580 H   0  0  0  0  0  0  0  0  0  0  0  0
  140.8611   75.4100  221.3907 H   0  0  0  0  0  0  0  0  0  0  0  0
  139.3953   74.8923  220.4452 H   0  0  0  0  0  0  0  0  0  0  0  0
  138.7645   79.4593  221.8962 H   0  0  0  0  0  0  0  0  0  0  0  0
  137.9594   78.3513  223.0331 H   0  0  0  0  0  0  0  0  0  0  0  0
  139.0910   80.1440  224.3150 H   0  0  0  0  0  0  0  0  0  0  0  0
  139.9503   78.6353  224.6242 H   0  0  0  0  0  0  0  0  0  0  0  0
  140.6460   80.5606  222.3199 H   0  0  0  0  0  0  0  0  0  0  0  0
  141.4555   80.6140  223.9113 H   0  0  0  0  0  0  0  0  0  0  0  0
  142.5909   79.2680  222.1095 H   0  0  0  0  0  0  0  0  0  0  0  0
  142.2069   78.4158  223.7099 H   0  0  0  0  0  0  0  0  0  0  0  0
  141.4972   76.7726  222.5328 H   0  0  0  0  0  0  0  0  0  0  0  0
  140.5870   79.5988  220.1775 H   0  0  0  0  0  0  0  0  0  0  0  0
  141.3497   79.7136  217.8479 H   0  0  0  0  0  0  0  0  0  0  0  0
  143.6900   78.6420  216.3870 H   0  0  0  0  0  0  0  0  0  0  0  0
  143.5874   76.1009  218.3910 H   0  0  0  0  0  0  0  0  0  0  0  0
  142.8223   75.9938  220.7168 H   0  0  0  0  0  0  0  0  0  0  0  0
  139.0683   70.7451  221.7851 H   0  0  0  0  0  0  0  0  0  0  0  0
  138.6782   68.8333  223.3442 H   0  0  0  0  0  0  0  0  0  0  0  0
  138.9834   67.8324  225.5228 H   0  0  0  0  0  0  0  0  0  0  0  0
  141.2048   69.9638  228.5508 H   0  0  0  0  0  0  0  0  0  0  0  0
  141.5653   71.8425  226.9582 H   0  0  0  0  0  0  0  0  0  0  0  0
  1  2  2  0
  2  3  1  0
  3  4  1  0
  4  5  1  0
  5  6  2  0
  5  7  1  0
  7  8  1  0
  8  9  1  0
  9 10  1  0
 10 11  1  0
 11 12  1  0
 12 13  1  0
 13 14  2  0
 14 15  1  0
 15 16  2  0
 16 17  1  0
 16 18  1  0
 18 19  2  0
  2 20  1  0
 20 21  2  0
 21 22  1  0
 22 23  2  0
 23 24  1  0
 24 25  2  0
 25 26  1  0
 25 27  1  0
 27 28  2  0
 28 29  1  0
 29 30  2  0
 12  7  1  0
 19 13  1  0
 30 20  1  0
 29 23  1  0
  3 31  1  0
  4 32  1  0
  4 33  1  0
  8 34  1  0
  8 35  1  0
  9 36  1  0
  9 37  1  0
 10 38  1  0
 10 39  1  0
 11 40  1  0
 11 41  1  0
 12 42  1  1
 14 43  1  0
 15 44  1  0
 17 45  1  0
 18 46  1  0
 19 47  1  0
 21 48  1  0
 22 49  1  0
 24 50  1  0
 27 51  1  0
 28 52  1  0
M  END
>  <smiles>  (15) 
O=C(NCC(=O)N1CCCCC1c1ccc(O)cc1)c1ccc2cc(F)ccc2n1

>  <score_type>  (15) 
oracle

>  <origin>  (15) 
autodockgpu

>  <m_score__min__energy>  (15) 
-8.8599999999999994

>  <m_primary>  (15) 
energy

>  <rmsd>  (15) 
3.541050768961865

>  <m_score__min__rmsd>  (15) 
3.541050768961865

>  <meeko>  (15) 
{"free_energy": -8.64, "intermolecular_energy": -10.43, "internal_energy": -1.38, "cluster_size": 10, "cluster_id": 2, "rank_in_cluster": 6}

>  <energy>  (15) 
-8.12

>  <cluster_rmsd>  (15) 
0.88

>  <cluster>  (15) 
1

$$$$

     RDKit          3D

 52 55  0  0  0  0  0  0  0  0999 V2000
  141.5780   73.0530  221.7620 O   0  0  0  0  0  0  0  0  0  0  0  0
  140.4970   72.9100  222.4100 C   0  0  0  0  0  0  0  0  0  0  0  0
  139.4880   73.9120  222.1830 N   0  0  0  0  0  0  0  0  0  0  0  0
  139.7220   74.9980  221.2730 C   0  0  0  0  0  0  0  0  0  0  0  0
  140.2890   74.5430  219.9800 C   0  0  0  0  0  0  0  0  0  0  0  0
  140.0610   73.3440  219.6080 O   0  0  0  0  0  0  0  0  0  0  0  0
  141.0710   75.3910  219.1480 N   0  0  0  0  0  0  0  0  0  0  0  0
  140.5020   75.7390  217.8570 C   0  0  0  0  0  0  0  0  0  0  0  0
  140.8260   77.1960  217.6020 C   0  0  0  0  0  0  0  0  0  0  0  0
  142.3370   77.2430  217.4750 C   0  0  0  0  0  0  0  0  0  0  0  0
  142.9210   76.9910  218.8170 C   0  0  0  0  0  0  0  0  0  0  0  0
  142.3510   75.8620  219.5950 C   0  0  2  0  0  0  0  0  0  0  0  0
  143.3930   74.8010  219.6430 C   0  0  0  0  0  0  0  0  0  0  0  0
  143.3070   73.6550  218.8400 C   0  0  0  0  0  0  0  0  0  0  0  0
  144.2670   72.6660  218.8780 C   0  0  0  0  0  0  0  0  0  0  0  0
  145.3590   72.7660  219.7140 C   0  0  0  0  0  0  0  0  0  0  0  0
  146.2950   71.7410  219.7110 O   0  0  0  0  0  0  0  0  0  0  0  0
  145.4670   73.8850  220.5140 C   0  0  0  0  0  0  0  0  0  0  0  0
  144.4990   74.8670  220.4660 C   0  0  0  0  0  0  0  0  0  0  0  0
  140.2760   71.8160  223.3200 C   0  0  0  0  0  0  0  0  0  0  0  0
  139.6500   70.6820  222.8450 C   0  0  0  0  0  0  0  0  0  0  0  0
  139.4310   69.6230  223.7040 C   0  0  0  0  0  0  0  0  0  0  0  0
  139.8480   69.7320  225.0260 C   0  0  0  0  0  0  0  0  0  0  0  0
  139.6310   68.6670  225.9050 C   0  0  0  0  0  0  0  0  0  0  0  0
  140.0560   68.7880  227.2320 C   0  0  0  0  0  0  0  0  0  0  0  0
  139.8560   67.7620  228.1120 F   0  0  0  0  0  0  0  0  0  0  0  0
  140.6780   69.9420  227.6630 C   0  0  0  0  0  0  0  0  0  0  0  0
  140.8840   70.9930  226.7700 C   0  0  0  0  0  0  0  0  0  0  0  0
  140.4700   70.8940  225.4440 C   0  0  0  0  0  0  0  0  0  0  0  0
  140.6820   71.9250  224.5990 N   0  0  0  0  0  0  0  0  0  0  0  0
  138.6040   73.7720  222.7300 H   0  0  0  0  0  0  0  0  0  0  0  0
  138.7669   75.5082  221.0794 H   0  0  0  0  0  0  0  0  0  0  0  0
  140.4538   75.6737  221.7398 H   0  0  0  0  0  0  0  0  0  0  0  0
  140.9438   75.1113  217.0691 H   0  0  0  0  0  0  0  0  0  0  0  0
  139.4143   75.5747  217.8530 H   0  0  0  0  0  0  0  0  0  0  0  0
  140.3486   77.5419  216.6734 H   0  0  0  0  0  0  0  0  0  0  0  0
  140.4574   77.8493  218.4066 H   0  0  0  0  0  0  0  0  0  0  0  0
  142.6761   76.4700  216.7697 H   0  0  0  0  0  0  0  0  0  0  0  0
  142.6573   78.2256  217.0985 H   0  0  0  0  0  0  0  0  0  0  0  0
  143.9943   76.7926  218.6807 H   0  0  0  0  0  0  0  0  0  0  0  0
  142.6891   77.8913  219.4050 H   0  0  0  0  0  0  0  0  0  0  0  0
  142.1084   76.2162  220.6077 H   0  0  0  0  0  0  0  0  0  0  0  0
  142.4495   73.5416  218.1605 H   0  0  0  0  0  0  0  0  0  0  0  0
  144.1600   71.7829  218.2309 H   0  0  0  0  0  0  0  0  0  0  0  0
  146.3790   71.1280  220.5170 H   0  0  0  0  0  0  0  0  0  0  0  0
  146.3267   73.9944  221.1915 H   0  0  0  0  0  0  0  0  0  0  0  0
  144.6145   75.7466  221.1163 H   0  0  0  0  0  0  0  0  0  0  0  0
  139.3291   70.6221  221.7946 H   0  0  0  0  0  0  0  0  0  0  0  0
  138.9347   68.7081  223.3481 H   0  0  0  0  0  0  0  0  0  0  0  0
  139.1341   67.7488  225.5587 H   0  0  0  0  0  0  0  0  0  0  0  0
  141.0102   70.0325  228.7077 H   0  0  0  0  0  0  0  0  0  0  0  0
  141.3796   71.9116  227.1172 H   0  0  0  0  0  0  0  0  0  0  0  0
  1  2  2  0
  2  3  1  0
  3  4  1  0
  4  5  1  0
  5  6  2  0
  5  7  1  0
  7  8  1  0
  8  9  1  0
  9 10  1  0
 10 11  1  0
 11 12  1  0
 12 13  1  0
 13 14  2  0
 14 15  1  0
 15 16  2  0
 16 17  1  0
 16 18  1  0
 18 19  2  0
  2 20  1  0
 20 21  2  0
 21 22  1  0
 22 23  2  0
 23 24  1  0
 24 25  2  0
 25 26  1  0
 25 27  1  0
 27 28  2  0
 28 29  1  0
 29 30  2  0
 12  7  1  0
 19 13  1  0
 30 20  1  0
 29 23  1  0
  3 31  1  0
  4 32  1  0
  4 33  1  0
  8 34  1  0
  8 35  1  0
  9 36  1  0
  9 37  1  0
 10 38  1  0
 10 39  1  0
 11 40  1  0
 11 41  1  0
 12 42  1  1
 14 43  1  0
 15 44  1  0
 17 45  1  0
 18 46  1  0
 19 47  1  0
 21 48  1  0
 22 49  1  0
 24 50  1  0
 27 51  1  0
 28 52  1  0
M  END
>  <smiles>  (16) 
O=C(NCC(=O)N1CCCCC1c1ccc(O)cc1)c1ccc2cc(F)ccc2n1

>  <score_type>  (16) 
oracle

>  <origin>  (16) 
autodockgpu

>  <m_score__min__energy>  (16) 
-8.8599999999999994

>  <m_primary>  (16) 
energy

>  <rmsd>  (16) 
1.9360545027090073

>  <m_score__min__rmsd>  (16) 
1.9360545027090073

>  <meeko>  (16) 
{"free_energy": -7.83, "intermolecular_energy": -9.62, "internal_energy": -1.41, "cluster_size": 19, "cluster_id": 1, "rank_in_cluster": 18}

>  <energy>  (16) 
-7.95

>  <cluster_rmsd>  (16) 
1.03

>  <cluster>  (16) 
1

$$$$

     RDKit          3D

 52 55  0  0  0  0  0  0  0  0999 V2000
  138.9390   71.5420  221.1950 O   0  0  0  0  0  0  0  0  0  0  0  0
  139.2540   72.0470  222.3150 C   0  0  0  0  0  0  0  0  0  0  0  0
  139.3300   73.4840  222.3610 N   0  0  0  0  0  0  0  0  0  0  0  0
  139.0590   74.2720  221.1920 C   0  0  0  0  0  0  0  0  0  0  0  0
  139.7180   75.6000  221.2360 C   0  0  0  0  0  0  0  0  0  0  0  0
  139.0550   76.5880  221.6960 O   0  0  0  0  0  0  0  0  0  0  0  0
  141.0510   75.8080  220.7870 N   0  0  0  0  0  0  0  0  0  0  0  0
  141.9530   74.6740  220.8850 C   0  0  0  0  0  0  0  0  0  0  0  0
  142.8090   74.6720  219.6340 C   0  0  0  0  0  0  0  0  0  0  0  0
  143.6380   75.9390  219.7280 C   0  0  0  0  0  0  0  0  0  0  0  0
  142.7340   77.0990  219.5240 C   0  0  0  0  0  0  0  0  0  0  0  0
  141.4480   77.0860  220.2680 C   0  0  2  0  0  0  0  0  0  0  0  0
  141.5390   78.1490  221.3040 C   0  0  0  0  0  0  0  0  0  0  0  0
  141.7320   79.4940  220.9580 C   0  0  0  0  0  0  0  0  0  0  0  0
  141.8170   80.4860  221.9110 C   0  0  0  0  0  0  0  0  0  0  0  0
  141.7160   80.1930  223.2550 C   0  0  0  0  0  0  0  0  0  0  0  0
  141.8100   81.2310  224.1720 O   0  0  0  0  0  0  0  0  0  0  0  0
  141.5260   78.8760  223.6220 C   0  0  0  0  0  0  0  0  0  0  0  0
  141.4420   77.8930  222.6570 C   0  0  0  0  0  0  0  0  0  0  0  0
  139.5230   71.2440  223.4800 C   0  0  0  0  0  0  0  0  0  0  0  0
  139.2470   69.8940  223.4250 C   0  0  0  0  0  0  0  0  0  0  0  0
  139.4990   69.1080  224.5330 C   0  0  0  0  0  0  0  0  0  0  0  0
  140.0250   69.7040  225.6740 C   0  0  0  0  0  0  0  0  0  0  0  0
  140.2840   68.9190  226.8010 C   0  0  0  0  0  0  0  0  0  0  0  0
  140.8140   69.5300  227.9420 C   0  0  0  0  0  0  0  0  0  0  0  0
  141.0760   68.7860  229.0590 F   0  0  0  0  0  0  0  0  0  0  0  0
  141.0750   70.8850  227.9510 C   0  0  0  0  0  0  0  0  0  0  0  0
  140.8080   71.6500  226.8160 C   0  0  0  0  0  0  0  0  0  0  0  0
  140.2810   71.0630  225.6690 C   0  0  0  0  0  0  0  0  0  0  0  0
  140.0330   71.8240  224.5820 N   0  0  0  0  0  0  0  0  0  0  0  0
  139.5930   73.8770  223.2980 H   0  0  0  0  0  0  0  0  0  0  0  0
  139.4218   73.7274  220.3078 H   0  0  0  0  0  0  0  0  0  0  0  0
  137.9728   74.4396  221.1467 H   0  0  0  0  0  0  0  0  0  0  0  0
  142.5892   74.7746  221.7767 H   0  0  0  0  0  0  0  0  0  0  0  0
  141.3894   73.7336  220.9737 H   0  0  0  0  0  0  0  0  0  0  0  0
  143.4589   73.7848  219.6109 H   0  0  0  0  0  0  0  0  0  0  0  0
  142.2027   74.6402  218.7167 H   0  0  0  0  0  0  0  0  0  0  0  0
  144.1090   76.0035  220.7200 H   0  0  0  0  0  0  0  0  0  0  0  0
  144.4291   75.9339  218.9638 H   0  0  0  0  0  0  0  0  0  0  0  0
  143.2822   78.0046  219.8231 H   0  0  0  0  0  0  0  0  0  0  0  0
  142.4518   77.0602  218.4615 H   0  0  0  0  0  0  0  0  0  0  0  0
  140.6283   77.2963  219.5652 H   0  0  0  0  0  0  0  0  0  0  0  0
  141.8180   79.7652  219.8954 H   0  0  0  0  0  0  0  0  0  0  0  0
  141.9679   81.5286  221.5945 H   0  0  0  0  0  0  0  0  0  0  0  0
  142.6820   81.3950  224.6650 H   0  0  0  0  0  0  0  0  0  0  0  0
  141.4414   78.6094  224.6858 H   0  0  0  0  0  0  0  0  0  0  0  0
  141.2901   76.8532  222.9823 H   0  0  0  0  0  0  0  0  0  0  0  0
  138.8310   69.4480  222.5095 H   0  0  0  0  0  0  0  0  0  0  0  0
  139.2871   68.0288  224.5129 H   0  0  0  0  0  0  0  0  0  0  0  0
  140.0746   67.8392  226.7908 H   0  0  0  0  0  0  0  0  0  0  0  0
  141.4925   71.3603  228.8509 H   0  0  0  0  0  0  0  0  0  0  0  0
  141.0163   72.7300  226.8272 H   0  0  0  0  0  0  0  0  0  0  0  0
  1  2  2  0
  2  3  1  0
  3  4  1  0
  4  5  1  0
  5  6  2  0
  5  7  1  0
  7  8  1  0
  8  9  1  0
  9 10  1  0
 10 11  1  0
 11 12  1  0
 12 13  1  0
 13 14  2  0
 14 15  1  0
 15 16  2  0
 16 17  1  0
 16 18  1  0
 18 19  2  0
  2 20  1  0
 20 21  2  0
 21 22  1  0
 22 23  2  0
 23 24  1  0
 24 25  2  0
 25 26  1  0
 25 27  1  0
 27 28  2  0
 28 29  1  0
 29 30  2  0
 12  7  1  0
 19 13  1  0
 30 20  1  0
 29 23  1  0
  3 31  1  0
  4 32  1  0
  4 33  1  0
  8 34  1  0
  8 35  1  0
  9 36  1  0
  9 37  1  0
 10 38  1  0
 10 39  1  0
 11 40  1  0
 11 41  1  0
 12 42  1  6
 14 43  1  0
 15 44  1  0
 17 45  1  0
 18 46  1  0
 19 47  1  0
 21 48  1  0
 22 49  1  0
 24 50  1  0
 27 51  1  0
 28 52  1  0
M  END
>  <smiles>  (17) 
O=C(NCC(=O)N1CCCCC1c1ccc(O)cc1)c1ccc2cc(F)ccc2n1

>  <score_type>  (17) 
oracle

>  <origin>  (17) 
autodockgpu

>  <m_score__min__energy>  (17) 
-8.8599999999999994

>  <m_primary>  (17) 
energy

>  <rmsd>  (17) 
1.9749594548887306

>  <m_score__min__rmsd>  (17) 
1.9749594548887306

>  <meeko>  (17) 
{"free_energy": -8.2, "intermolecular_energy": -9.99, "internal_energy": -1.56, "cluster_size": 14, "cluster_id": 3, "rank_in_cluster": 10}

>  <energy>  (17) 
-7.87

>  <cluster_rmsd>  (17) 
1.11

>  <cluster>  (17) 
1

$$$$

     RDKit          3D

 52 55  0  0  0  0  0  0  0  0999 V2000
  139.9430   70.8480  221.1230 O   0  0  0  0  0  0  0  0  0  0  0  0
  139.9140   71.4360  222.2460 C   0  0  0  0  0  0  0  0  0  0  0  0
  139.9560   72.8750  222.2070 N   0  0  0  0  0  0  0  0  0  0  0  0
  140.0250   73.5740  220.9550 C   0  0  0  0  0  0  0  0  0  0  0  0
  140.5950   74.9370  221.0960 C   0  0  0  0  0  0  0  0  0  0  0  0
  140.5460   75.4970  222.2410 O   0  0  0  0  0  0  0  0  0  0  0  0
  141.1890   75.6330  220.0080 N   0  0  0  0  0  0  0  0  0  0  0  0
  140.3240   75.9360  218.8810 C   0  0  0  0  0  0  0  0  0  0  0  0
  140.6800   77.3290  218.4030 C   0  0  0  0  0  0  0  0  0  0  0  0
  142.1000   77.2120  217.8840 C   0  0  0  0  0  0  0  0  0  0  0  0
  143.0010   77.0060  219.0460 C   0  0  0  0  0  0  0  0  0  0  0  0
  142.5750   76.0050  220.0570 C   0  0  2  0  0  0  0  0  0  0  0  0
  143.5060   74.8510  219.9400 C   0  0  0  0  0  0  0  0  0  0  0  0
  144.8020   74.9000  220.4730 C   0  0  0  0  0  0  0  0  0  0  0  0
  145.6720   73.8360  220.3700 C   0  0  0  0  0  0  0  0  0  0  0  0
  145.2990   72.6710  219.7320 C   0  0  0  0  0  0  0  0  0  0  0  0
  146.2160   71.6310  219.6570 O   0  0  0  0  0  0  0  0  0  0  0  0
  144.0290   72.5970  219.1990 C   0  0  0  0  0  0  0  0  0  0  0  0
  143.1680   73.6700  219.3100 C   0  0  0  0  0  0  0  0  0  0  0  0
  139.8440   70.7210  223.4950 C   0  0  0  0  0  0  0  0  0  0  0  0
  139.2740   69.4650  223.5020 C   0  0  0  0  0  0  0  0  0  0  0  0
  139.1990   68.7650  224.6900 C   0  0  0  0  0  0  0  0  0  0  0  0
  139.7010   69.3500  225.8480 C   0  0  0  0  0  0  0  0  0  0  0  0
  139.6310   68.6510  227.0560 C   0  0  0  0  0  0  0  0  0  0  0  0
  140.1400   69.2490  228.2130 C   0  0  0  0  0  0  0  0  0  0  0  0
  140.0830   68.5880  229.4080 F   0  0  0  0  0  0  0  0  0  0  0  0
  140.7010   70.5080  228.1590 C   0  0  0  0  0  0  0  0  0  0  0  0
  140.7620   71.1890  226.9430 C   0  0  0  0  0  0  0  0  0  0  0  0
  140.2610   70.6120  225.7780 C   0  0  0  0  0  0  0  0  0  0  0  0
  140.3320   71.2900  224.6130 N   0  0  0  0  0  0  0  0  0  0  0  0
  139.9310   73.3370  223.1490 H   0  0  0  0  0  0  0  0  0  0  0  0
  140.6566   72.9973  220.2633 H   0  0  0  0  0  0  0  0  0  0  0  0
  138.9986   73.6787  220.5735 H   0  0  0  0  0  0  0  0  0  0  0  0
  140.4883   75.2073  218.0735 H   0  0  0  0  0  0  0  0  0  0  0  0
  139.2658   75.8838  219.1766 H   0  0  0  0  0  0  0  0  0  0  0  0
  139.9995   77.6484  217.6000 H   0  0  0  0  0  0  0  0  0  0  0  0
  140.5923   78.0771  219.2047 H   0  0  0  0  0  0  0  0  0  0  0  0
  142.1764   76.3564  217.1968 H   0  0  0  0  0  0  0  0  0  0  0  0
  142.3830   78.1251  217.3399 H   0  0  0  0  0  0  0  0  0  0  0  0
  143.9793   76.6887  218.6559 H   0  0  0  0  0  0  0  0  0  0  0  0
  143.0060   77.9681  219.5793 H   0  0  0  0  0  0  0  0  0  0  0  0
  142.6411   76.4596  221.0565 H   0  0  0  0  0  0  0  0  0  0  0  0
  145.1338   75.8136  220.9880 H   0  0  0  0  0  0  0  0  0  0  0  0
  146.6798   73.9170  220.8034 H   0  0  0  0  0  0  0  0  0  0  0  0
  146.5290   71.1670  220.5040 H   0  0  0  0  0  0  0  0  0  0  0  0
  143.7019   71.6814  218.6847 H   0  0  0  0  0  0  0  0  0  0  0  0
  142.1619   73.5796  218.8746 H   0  0  0  0  0  0  0  0  0  0  0  0
  138.8837   69.0260  222.5720 H   0  0  0  0  0  0  0  0  0  0  0  0
  138.7497   67.7614  224.7202 H   0  0  0  0  0  0  0  0  0  0  0  0
  139.1830   67.6472  227.0961 H   0  0  0  0  0  0  0  0  0  0  0  0
  141.0993   70.9738  229.0724 H   0  0  0  0  0  0  0  0  0  0  0  0
  141.2106   72.1926  226.9035 H   0  0  0  0  0  0  0  0  0  0  0  0
  1  2  2  0
  2  3  1  0
  3  4  1  0
  4  5  1  0
  5  6  2  0
  5  7  1  0
  7  8  1  0
  8  9  1  0
  9 10  1  0
 10 11  1  0
 11 12  1  0
 12 13  1  0
 13 14  2  0
 14 15  1  0
 15 16  2  0
 16 17  1  0
 16 18  1  0
 18 19  2  0
  2 20  1  0
 20 21  2  0
 21 22  1  0
 22 23  2  0
 23 24  1  0
 24 25  2  0
 25 26  1  0
 25 27  1  0
 27 28  2  0
 28 29  1  0
 29 30  2  0
 12  7  1  0
 19 13  1  0
 30 20  1  0
 29 23  1  0
  3 31  1  0
  4 32  1  0
  4 33  1  0
  8 34  1  0
  8 35  1  0
  9 36  1  0
  9 37  1  0
 10 38  1  0
 10 39  1  0
 11 40  1  0
 11 41  1  0
 12 42  1  1
 14 43  1  0
 15 44  1  0
 17 45  1  0
 18 46  1  0
 19 47  1  0
 21 48  1  0
 22 49  1  0
 24 50  1  0
 27 51  1  0
 28 52  1  0
M  END
>  <smiles>  (18) 
O=C(NCC(=O)N1CCCCC1c1ccc(O)cc1)c1ccc2cc(F)ccc2n1

>  <score_type>  (18) 
oracle

>  <origin>  (18) 
autodockgpu

>  <m_score__min__energy>  (18) 
-8.8599999999999994

>  <m_primary>  (18) 
energy

>  <rmsd>  (18) 
1.5601304526246746

>  <m_score__min__rmsd>  (18) 
1.5601304526246746

>  <meeko>  (18) 
{"free_energy": -8.37, "intermolecular_energy": -10.16, "internal_energy": -1.88, "cluster_size": 19, "cluster_id": 1, "rank_in_cluster": 9}

>  <energy>  (18) 
-7.83

>  <cluster_rmsd>  (18) 
0.74

>  <cluster>  (18) 
1

$$$$

     RDKit          3D

 52 55  0  0  0  0  0  0  0  0999 V2000
  140.0440   70.9590  221.0410 O   0  0  0  0  0  0  0  0  0  0  0  0
  139.9430   71.5290  222.1690 C   0  0  0  0  0  0  0  0  0  0  0  0
  139.8990   72.9690  222.1460 N   0  0  0  0  0  0  0  0  0  0  0  0
  139.9680   73.6870  220.9050 C   0  0  0  0  0  0  0  0  0  0  0  0
  140.6530   74.9950  221.0420 C   0  0  0  0  0  0  0  0  0  0  0  0
  140.7580   75.5030  222.2080 O   0  0  0  0  0  0  0  0  0  0  0  0
  141.1920   75.6970  219.9290 N   0  0  0  0  0  0  0  0  0  0  0  0
  140.2680   76.0190  218.8550 C   0  0  0  0  0  0  0  0  0  0  0  0
  140.6100   77.4130  218.3710 C   0  0  0  0  0  0  0  0  0  0  0  0
  141.9980   77.2880  217.7720 C   0  0  0  0  0  0  0  0  0  0  0  0
  142.9610   77.0630  218.8800 C   0  0  0  0  0  0  0  0  0  0  0  0
  142.5820   76.0550  219.9040 C   0  0  2  0  0  0  0  0  0  0  0  0
  143.4930   74.8940  219.7240 C   0  0  0  0  0  0  0  0  0  0  0  0
  143.9250   74.1280  220.8160 C   0  0  0  0  0  0  0  0  0  0  0  0
  144.7700   73.0500  220.6600 C   0  0  0  0  0  0  0  0  0  0  0  0
  145.2290   72.6800  219.4130 C   0  0  0  0  0  0  0  0  0  0  0  0
  146.0790   71.5870  219.3140 O   0  0  0  0  0  0  0  0  0  0  0  0
  144.8200   73.4190  218.3220 C   0  0  0  0  0  0  0  0  0  0  0  0
  143.9730   74.4950  218.4930 C   0  0  0  0  0  0  0  0  0  0  0  0
  139.8740   70.7960  223.4060 C   0  0  0  0  0  0  0  0  0  0  0  0
  139.3220   69.5320  223.3920 C   0  0  0  0  0  0  0  0  0  0  0  0
  139.2480   68.8140  224.5700 C   0  0  0  0  0  0  0  0  0  0  0  0
  139.7330   69.3900  225.7390 C   0  0  0  0  0  0  0  0  0  0  0  0
  139.6650   68.6730  226.9370 C   0  0  0  0  0  0  0  0  0  0  0  0
  140.1570   69.2620  228.1060 C   0  0  0  0  0  0  0  0  0  0  0  0
  140.1010   68.5830  229.2910 F   0  0  0  0  0  0  0  0  0  0  0  0
  140.7010   70.5290  228.0730 C   0  0  0  0  0  0  0  0  0  0  0  0
  140.7600   71.2280  226.8670 C   0  0  0  0  0  0  0  0  0  0  0  0
  140.2760   70.6610  225.6910 C   0  0  0  0  0  0  0  0  0  0  0  0
  140.3450   71.3560  224.5360 N   0  0  0  0  0  0  0  0  0  0  0  0
  139.8150   73.4170  223.0910 H   0  0  0  0  0  0  0  0  0  0  0  0
  140.5179   73.0758  220.1742 H   0  0  0  0  0  0  0  0  0  0  0  0
  138.9371   73.8830  220.5749 H   0  0  0  0  0  0  0  0  0  0  0  0
  140.3798   75.2968  218.0328 H   0  0  0  0  0  0  0  0  0  0  0  0
  139.2275   75.9735  219.2090 H   0  0  0  0  0  0  0  0  0  0  0  0
  139.8887   77.7465  217.6104 H   0  0  0  0  0  0  0  0  0  0  0  0
  140.5745   78.1539  219.1833 H   0  0  0  0  0  0  0  0  0  0  0  0
  142.0276   76.4382  217.0741 H   0  0  0  0  0  0  0  0  0  0  0  0
  142.2588   78.2036  217.2209 H   0  0  0  0  0  0  0  0  0  0  0  0
  143.9131   76.7412  218.4329 H   0  0  0  0  0  0  0  0  0  0  0  0
  143.0052   78.0197  219.4211 H   0  0  0  0  0  0  0  0  0  0  0  0
  142.7085   76.4984  220.9027 H   0  0  0  0  0  0  0  0  0  0  0  0
  143.5799   74.3948  221.8258 H   0  0  0  0  0  0  0  0  0  0  0  0
  145.0833   72.4756  221.5443 H   0  0  0  0  0  0  0  0  0  0  0  0
  146.3690   71.0910  220.1520 H   0  0  0  0  0  0  0  0  0  0  0  0
  145.1696   73.1501  217.3143 H   0  0  0  0  0  0  0  0  0  0  0  0
  143.6648   75.0635  217.6031 H   0  0  0  0  0  0  0  0  0  0  0  0
  138.9448   69.1004  222.4531 H   0  0  0  0  0  0  0  0  0  0  0  0
  138.8128   67.8038  224.5830 H   0  0  0  0  0  0  0  0  0  0  0  0
  139.2316   67.6622  226.9598 H   0  0  0  0  0  0  0  0  0  0  0  0
  141.0874   70.9873  228.9953 H   0  0  0  0  0  0  0  0  0  0  0  0
  141.1938   72.2386  226.8450 H   0  0  0  0  0  0  0  0  0  0  0  0
  1  2  2  0
  2  3  1  0
  3  4  1  0
  4  5  1  0
  5  6  2  0
  5  7  1  0
  7  8  1  0
  8  9  1  0
  9 10  1  0
 10 11  1  0
 11 12  1  0
 12 13  1  0
 13 14  2  0
 14 15  1  0
 15 16  2  0
 16 17  1  0
 16 18  1  0
 18 19  2  0
  2 20  1  0
 20 21  2  0
 21 22  1  0
 22 23  2  0
 23 24  1  0
 24 25  2  0
 25 26  1  0
 25 27  1  0
 27 28  2  0
 28 29  1  0
 29 30  2  0
 12  7  1  0
 19 13  1  0
 30 20  1  0
 29 23  1  0
  3 31  1  0
  4 32  1  0
  4 33  1  0
  8 34  1  0
  8 35  1  0
  9 36  1  0
  9 37  1  0
 10 38  1  0
 10 39  1  0
 11 40  1  0
 11 41  1  0
 12 42  1  1
 14 43  1  0
 15 44  1  0
 17 45  1  0
 18 46  1  0
 19 47  1  0
 21 48  1  0
 22 49  1  0
 24 50  1  0
 27 51  1  0
 28 52  1  0
M  END
>  <smiles>  (19) 
O=C(NCC(=O)N1CCCCC1c1ccc(O)cc1)c1ccc2cc(F)ccc2n1

>  <score_type>  (19) 
oracle

>  <origin>  (19) 
autodockgpu

>  <m_score__min__energy>  (19) 
-8.8599999999999994

>  <m_primary>  (19) 
energy

>  <rmsd>  (19) 
1.5377119945015227

>  <m_score__min__rmsd>  (19) 
1.5377119945015227

>  <meeko>  (19) 
{"free_energy": -8.23, "intermolecular_energy": -10.02, "internal_energy": -1.84, "cluster_size": 19, "cluster_id": 1, "rank_in_cluster": 12}

>  <energy>  (19) 
-7.8

>  <cluster_rmsd>  (19) 
1.07

>  <cluster>  (19) 
1

$$$$

     RDKit          3D

 52 55  0  0  0  0  0  0  0  0999 V2000
  141.2180   72.1480  221.4520 O   0  0  0  0  0  0  0  0  0  0  0  0
  140.2750   72.2910  222.2880 C   0  0  0  0  0  0  0  0  0  0  0  0
  139.3410   73.3510  222.0110 N   0  0  0  0  0  0  0  0  0  0  0  0
  139.4950   74.1810  220.8490 C   0  0  0  0  0  0  0  0  0  0  0  0
  140.7250   75.0070  220.8990 C   0  0  0  0  0  0  0  0  0  0  0  0
  141.2820   75.1940  222.0310 O   0  0  0  0  0  0  0  0  0  0  0  0
  141.2990   75.5940  219.7380 N   0  0  0  0  0  0  0  0  0  0  0  0
  140.4270   75.7470  218.5870 C   0  0  0  0  0  0  0  0  0  0  0  0
  140.7450   77.0870  217.9570 C   0  0  0  0  0  0  0  0  0  0  0  0
  142.1680   76.9500  217.4490 C   0  0  0  0  0  0  0  0  0  0  0  0
  143.0750   76.8980  218.6240 C   0  0  0  0  0  0  0  0  0  0  0  0
  142.6750   76.0050  219.7410 C   0  0  2  0  0  0  0  0  0  0  0  0
  143.6360   74.8700  219.7500 C   0  0  0  0  0  0  0  0  0  0  0  0
  143.3930   73.7000  219.0160 C   0  0  0  0  0  0  0  0  0  0  0  0
  144.2780   72.6430  219.0190 C   0  0  0  0  0  0  0  0  0  0  0  0
  145.4460   72.6940  219.7490 C   0  0  0  0  0  0  0  0  0  0  0  0
  146.3010   71.6000  219.7160 O   0  0  0  0  0  0  0  0  0  0  0  0
  145.7090   73.8340  220.4810 C   0  0  0  0  0  0  0  0  0  0  0  0
  144.8150   74.8850  220.4690 C   0  0  0  0  0  0  0  0  0  0  0  0
  140.1340   71.4510  223.4490 C   0  0  0  0  0  0  0  0  0  0  0  0
  139.4630   70.2530  223.3160 C   0  0  0  0  0  0  0  0  0  0  0  0
  139.3180   69.4340  224.4190 C   0  0  0  0  0  0  0  0  0  0  0  0
  139.8530   69.8450  225.6350 C   0  0  0  0  0  0  0  0  0  0  0  0
  139.7130   69.0250  226.7590 C   0  0  0  0  0  0  0  0  0  0  0  0
  140.2560   69.4480  227.9760 C   0  0  0  0  0  0  0  0  0  0  0  0
  140.1320   68.6660  229.0910 F   0  0  0  0  0  0  0  0  0  0  0  0
  140.9190   70.6550  228.0630 C   0  0  0  0  0  0  0  0  0  0  0  0
  141.0470   71.4580  226.9300 C   0  0  0  0  0  0  0  0  0  0  0  0
  140.5150   71.0570  225.7070 C   0  0  0  0  0  0  0  0  0  0  0  0
  140.6530   71.8510  224.6240 N   0  0  0  0  0  0  0  0  0  0  0  0
  138.5710   73.4490  222.7160 H   0  0  0  0  0  0  0  0  0  0  0  0
  139.5391   73.5365  219.9587 H   0  0  0  0  0  0  0  0  0  0  0  0
  138.6347   74.8654  220.8113 H   0  0  0  0  0  0  0  0  0  0  0  0
  140.6114   74.9381  217.8647 H   0  0  0  0  0  0  0  0  0  0  0  0
  139.3705   75.6994  218.8894 H   0  0  0  0  0  0  0  0  0  0  0  0
  140.0557   77.2976  217.1260 H   0  0  0  0  0  0  0  0  0  0  0  0
  140.6377   77.9168  218.6710 H   0  0  0  0  0  0  0  0  0  0  0  0
  142.2665   76.0256  216.8609 H   0  0  0  0  0  0  0  0  0  0  0  0
  142.4266   77.8040  216.8057 H   0  0  0  0  0  0  0  0  0  0  0  0
  144.0611   76.5645  218.2684 H   0  0  0  0  0  0  0  0  0  0  0  0
  143.0558   77.9133  219.0469 H   0  0  0  0  0  0  0  0  0  0  0  0
  142.7287   76.5694  220.6836 H   0  0  0  0  0  0  0  0  0  0  0  0
  142.4707   73.6236  218.4214 H   0  0  0  0  0  0  0  0  0  0  0  0
  144.0481   71.7437  218.4288 H   0  0  0  0  0  0  0  0  0  0  0  0
  146.6560   71.2060  220.5830 H   0  0  0  0  0  0  0  0  0  0  0  0
  146.6323   73.9049  221.0747 H   0  0  0  0  0  0  0  0  0  0  0  0
  145.0535   75.7801  221.0622 H   0  0  0  0  0  0  0  0  0  0  0  0
  139.0480   69.9532  222.3424 H   0  0  0  0  0  0  0  0  0  0  0  0
  138.7885   68.4733  224.3368 H   0  0  0  0  0  0  0  0  0  0  0  0
  139.1844   68.0630  226.6869 H   0  0  0  0  0  0  0  0  0  0  0  0
  141.3451   70.9827  229.0227 H   0  0  0  0  0  0  0  0  0  0  0  0
  141.5748   72.4203  227.0032 H   0  0  0  0  0  0  0  0  0  0  0  0
  1  2  2  0
  2  3  1  0
  3  4  1  0
  4  5  1  0
  5  6  2  0
  5  7  1  0
  7  8  1  0
  8  9  1  0
  9 10  1  0
 10 11  1  0
 11 12  1  0
 12 13  1  0
 13 14  2  0
 14 15  1  0
 15 16  2  0
 16 17  1  0
 16 18  1  0
 18 19  2  0
  2 20  1  0
 20 21  2  0
 21 22  1  0
 22 23  2  0
 23 24  1  0
 24 25  2  0
 25 26  1  0
 25 27  1  0
 27 28  2  0
 28 29  1  0
 29 30  2  0
 12  7  1  0
 19 13  1  0
 30 20  1  0
 29 23  1  0
  3 31  1  0
  4 32  1  0
  4 33  1  0
  8 34  1  0
  8 35  1  0
  9 36  1  0
  9 37  1  0
 10 38  1  0
 10 39  1  0
 11 40  1  0
 11 41  1  0
 12 42  1  1
 14 43  1  0
 15 44  1  0
 17 45  1  0
 18 46  1  0
 19 47  1  0
 21 48  1  0
 22 49  1  0
 24 50  1  0
 27 51  1  0
 28 52  1  0
M  END
>  <smiles>  (20) 
O=C(NCC(=O)N1CCCCC1c1ccc(O)cc1)c1ccc2cc(F)ccc2n1

>  <score_type>  (20) 
oracle

>  <origin>  (20) 
autodockgpu

>  <m_score__min__energy>  (20) 
-8.8599999999999994

>  <m_primary>  (20) 
energy

>  <rmsd>  (20) 
1.5856254225485575

>  <m_score__min__rmsd>  (20) 
1.5856254225485575

>  <meeko>  (20) 
{"free_energy": -8.86, "intermolecular_energy": -10.65, "internal_energy": -1.54, "cluster_size": 19, "cluster_id": 1, "rank_in_cluster": 1}

>  <energy>  (20) 
-8.75

>  <cluster_rmsd>  (20) 
0.0

>  <cluster>  (20) 
2

$$$$

     RDKit          3D

 52 55  0  0  0  0  0  0  0  0999 V2000
  140.2420   71.8320  221.0000 O   0  0  0  0  0  0  0  0  0  0  0  0
  139.7760   72.1980  222.1210 C   0  0  0  0  0  0  0  0  0  0  0  0
  139.1430   73.4910  222.1500 N   0  0  0  0  0  0  0  0  0  0  0  0
  139.0610   74.2960  220.9630 C   0  0  0  0  0  0  0  0  0  0  0  0
  139.7560   75.5980  221.1100 C   0  0  0  0  0  0  0  0  0  0  0  0
  139.1150   76.5680  221.6350 O   0  0  0  0  0  0  0  0  0  0  0  0
  141.0990   75.7990  220.6900 N   0  0  0  0  0  0  0  0  0  0  0  0
  142.0110   74.6840  220.8740 C   0  0  0  0  0  0  0  0  0  0  0  0
  142.9040   74.6270  219.6510 C   0  0  0  0  0  0  0  0  0  0  0  0
  143.7150   75.9080  219.7010 C   0  0  0  0  0  0  0  0  0  0  0  0
  142.8040   77.0430  219.4090 C   0  0  0  0  0  0  0  0  0  0  0  0
  141.4970   77.0530  220.1140 C   0  0  2  0  0  0  0  0  0  0  0  0
  141.5430   78.1710  221.0940 C   0  0  0  0  0  0  0  0  0  0  0  0
  141.4440   77.9390  222.4730 C   0  0  0  0  0  0  0  0  0  0  0  0
  141.4860   78.9680  223.3890 C   0  0  0  0  0  0  0  0  0  0  0  0
  141.6280   80.2780  222.9820 C   0  0  0  0  0  0  0  0  0  0  0  0
  141.6630   81.2750  223.9480 O   0  0  0  0  0  0  0  0  0  0  0  0
  141.7270   80.5330  221.6300 C   0  0  0  0  0  0  0  0  0  0  0  0
  141.6840   79.4930  220.7240 C   0  0  0  0  0  0  0  0  0  0  0  0
  139.8650   71.3800  223.3030 C   0  0  0  0  0  0  0  0  0  0  0  0
  139.4380   70.0700  223.2300 C   0  0  0  0  0  0  0  0  0  0  0  0
  139.5170   69.2710  224.3540 C   0  0  0  0  0  0  0  0  0  0  0  0
  140.0250   69.8130  225.5290 C   0  0  0  0  0  0  0  0  0  0  0  0
  140.1100   69.0140  226.6730 C   0  0  0  0  0  0  0  0  0  0  0  0
  140.6230   69.5700  227.8490 C   0  0  0  0  0  0  0  0  0  0  0  0
  140.7170   68.8110  228.9820 F   0  0  0  0  0  0  0  0  0  0  0  0
  141.0390   70.8860  227.8760 C   0  0  0  0  0  0  0  0  0  0  0  0
  140.9450   71.6660  226.7230 C   0  0  0  0  0  0  0  0  0  0  0  0
  140.4380   71.1330  225.5410 C   0  0  0  0  0  0  0  0  0  0  0  0
  140.3580   71.9080  224.4380 N   0  0  0  0  0  0  0  0  0  0  0  0
  138.7650   73.7700  223.0880 H   0  0  0  0  0  0  0  0  0  0  0  0
  139.5197   73.7435  220.1298 H   0  0  0  0  0  0  0  0  0  0  0  0
  137.9977   74.5045  220.7736 H   0  0  0  0  0  0  0  0  0  0  0  0
  142.6190   74.8399  221.7773 H   0  0  0  0  0  0  0  0  0  0  0  0
  141.4558   73.7422  220.9955 H   0  0  0  0  0  0  0  0  0  0  0  0
  143.5646   73.7486  219.6946 H   0  0  0  0  0  0  0  0  0  0  0  0
  142.3258   74.5386  218.7194 H   0  0  0  0  0  0  0  0  0  0  0  0
  144.1555   76.0315  220.7014 H   0  0  0  0  0  0  0  0  0  0  0  0
  144.5286   75.8727  218.9615 H   0  0  0  0  0  0  0  0  0  0  0  0
  143.3324   77.9704  219.6751 H   0  0  0  0  0  0  0  0  0  0  0  0
  142.5541   76.9435  218.3424 H   0  0  0  0  0  0  0  0  0  0  0  0
  140.6975   77.2147  219.3760 H   0  0  0  0  0  0  0  0  0  0  0  0
  141.3295   76.9063  222.8343 H   0  0  0  0  0  0  0  0  0  0  0  0
  141.4049   78.7407  224.4622 H   0  0  0  0  0  0  0  0  0  0  0  0
  141.7930   81.0310  224.9250 H   0  0  0  0  0  0  0  0  0  0  0  0
  141.8404   81.5674  221.2734 H   0  0  0  0  0  0  0  0  0  0  0  0
  141.7663   79.7297  219.6529 H   0  0  0  0  0  0  0  0  0  0  0  0
  139.0393   69.6665  222.2875 H   0  0  0  0  0  0  0  0  0  0  0  0
  139.1835   68.2233  224.3199 H   0  0  0  0  0  0  0  0  0  0  0  0
  139.7788   67.9653  226.6484 H   0  0  0  0  0  0  0  0  0  0  0  0
  141.4432   71.3182  228.8033 H   0  0  0  0  0  0  0  0  0  0  0  0
  141.2755   72.7149  226.7482 H   0  0  0  0  0  0  0  0  0  0  0  0
  1  2  2  0
  2  3  1  0
  3  4  1  0
  4  5  1  0
  5  6  2  0
  5  7  1  0
  7  8  1  0
  8  9  1  0
  9 10  1  0
 10 11  1  0
 11 12  1  0
 12 13  1  0
 13 14  2  0
 14 15  1  0
 15 16  2  0
 16 17  1  0
 16 18  1  0
 18 19  2  0
  2 20  1  0
 20 21  2  0
 21 22  1  0
 22 23  2  0
 23 24  1  0
 24 25  2  0
 25 26  1  0
 25 27  1  0
 27 28  2  0
 28 29  1  0
 29 30  2  0
 12  7  1  0
 19 13  1  0
 30 20  1  0
 29 23  1  0
  3 31  1  0
  4 32  1  0
  4 33  1  0
  8 34  1  0
  8 35  1  0
  9 36  1  0
  9 37  1  0
 10 38  1  0
 10 39  1  0
 11 40  1  0
 11 41  1  0
 12 42  1  6
 14 43  1  0
 15 44  1  0
 17 45  1  0
 18 46  1  0
 19 47  1  0
 21 48  1  0
 22 49  1  0
 24 50  1  0
 27 51  1  0
 28 52  1  0
M  END
>  <smiles>  (21) 
O=C(NCC(=O)N1CCCCC1c1ccc(O)cc1)c1ccc2cc(F)ccc2n1

>  <score_type>  (21) 
oracle

>  <origin>  (21) 
autodockgpu

>  <m_score__min__energy>  (21) 
-8.8599999999999994

>  <m_primary>  (21) 
energy

>  <rmsd>  (21) 
2.016371177101461

>  <m_score__min__rmsd>  (21) 
2.016371177101461

>  <meeko>  (21) 
{"free_energy": -8.27, "intermolecular_energy": -10.06, "internal_energy": -1.41, "cluster_size": 14, "cluster_id": 3, "rank_in_cluster": 8}

>  <energy>  (21) 
-8.72

>  <cluster_rmsd>  (21) 
0.12

>  <cluster>  (21) 
2

$$$$

     RDKit          3D

 52 55  0  0  0  0  0  0  0  0999 V2000
  141.3820   73.0140  221.4690 O   0  0  0  0  0  0  0  0  0  0  0  0
  140.4420   72.9990  222.3200 C   0  0  0  0  0  0  0  0  0  0  0  0
  139.5870   74.1580  222.3360 N   0  0  0  0  0  0  0  0  0  0  0  0
  139.8120   75.2500  221.4320 C   0  0  0  0  0  0  0  0  0  0  0  0
  139.0880   76.4800  221.8340 C   0  0  0  0  0  0  0  0  0  0  0  0
  137.8120   76.4560  221.8380 O   0  0  0  0  0  0  0  0  0  0  0  0
  139.7600   77.6740  222.2120 N   0  0  0  0  0  0  0  0  0  0  0  0
  138.9280   78.7680  222.6820 C   0  0  0  0  0  0  0  0  0  0  0  0
  139.6520   79.4160  223.8440 C   0  0  0  0  0  0  0  0  0  0  0  0
  140.9070   80.0130  223.2360 C   0  0  0  0  0  0  0  0  0  0  0  0
  141.8080   78.8970  222.8500 C   0  0  0  0  0  0  0  0  0  0  0  0
  141.1910   77.7570  222.1240 C   0  0  2  0  0  0  0  0  0  0  0  0
  141.7000   77.8090  220.7270 C   0  0  0  0  0  0  0  0  0  0  0  0
  142.3340   76.7060  220.1390 C   0  0  0  0  0  0  0  0  0  0  0  0
  142.8100   76.7440  218.8460 C   0  0  0  0  0  0  0  0  0  0  0  0
  142.6800   77.8790  218.0730 C   0  0  0  0  0  0  0  0  0  0  0  0
  143.1780   77.8630  216.7770 O   0  0  0  0  0  0  0  0  0  0  0  0
  142.0600   78.9790  218.6290 C   0  0  0  0  0  0  0  0  0  0  0  0
  141.5880   78.9260  219.9250 C   0  0  0  0  0  0  0  0  0  0  0  0
  140.2270   71.8960  223.2210 C   0  0  0  0  0  0  0  0  0  0  0  0
  139.5470   70.7900  222.7560 C   0  0  0  0  0  0  0  0  0  0  0  0
  139.3330   69.7230  223.6070 C   0  0  0  0  0  0  0  0  0  0  0  0
  139.8100   69.7970  224.9110 C   0  0  0  0  0  0  0  0  0  0  0  0
  139.6000   68.7220  225.7800 C   0  0  0  0  0  0  0  0  0  0  0  0
  140.0850   68.8080  227.0890 C   0  0  0  0  0  0  0  0  0  0  0  0
  139.8930   67.7730  227.9610 F   0  0  0  0  0  0  0  0  0  0  0  0
  140.7610   69.9350  227.5110 C   0  0  0  0  0  0  0  0  0  0  0  0
  140.9600   70.9950  226.6270 C   0  0  0  0  0  0  0  0  0  0  0  0
  140.4860   70.9320  225.3190 C   0  0  0  0  0  0  0  0  0  0  0  0
  140.6920   71.9710  224.4820 N   0  0  0  0  0  0  0  0  0  0  0  0
  138.8170   74.1210  223.0480 H   0  0  0  0  0  0  0  0  0  0  0  0
  140.8897   75.4684  221.4044 H   0  0  0  0  0  0  0  0  0  0  0  0
  139.4343   74.9484  220.4439 H   0  0  0  0  0  0  0  0  0  0  0  0
  138.7785   79.5009  221.8755 H   0  0  0  0  0  0  0  0  0  0  0  0
  137.9398   78.3997  222.9949 H   0  0  0  0  0  0  0  0  0  0  0  0
  139.0302   80.2016  224.2981 H   0  0  0  0  0  0  0  0  0  0  0  0
  139.8806   78.6960  224.6436 H   0  0  0  0  0  0  0  0  0  0  0  0
  140.6452   80.6055  222.3469 H   0  0  0  0  0  0  0  0  0  0  0  0
  141.4058   80.6723  223.9616 H   0  0  0  0  0  0  0  0  0  0  0  0
  142.5965   79.3137  222.2061 H   0  0  0  0  0  0  0  0  0  0  0  0
  142.1642   78.4733  223.8006 H   0  0  0  0  0  0  0  0  0  0  0  0
  141.4921   76.8193  222.6140 H   0  0  0  0  0  0  0  0  0  0  0  0
  142.4552   75.7837  220.7261 H   0  0  0  0  0  0  0  0  0  0  0  0
  143.3014   75.8550  218.4238 H   0  0  0  0  0  0  0  0  0  0  0  0
  143.6870   78.6650  216.4180 H   0  0  0  0  0  0  0  0  0  0  0  0
  141.9417   79.8996  218.0386 H   0  0  0  0  0  0  0  0  0  0  0  0
  141.0978   79.8194  220.3393 H   0  0  0  0  0  0  0  0  0  0  0  0
  139.1794   70.7578  221.7198 H   0  0  0  0  0  0  0  0  0  0  0  0
  138.7941   68.8295  223.2587 H   0  0  0  0  0  0  0  0  0  0  0  0
  139.0627   67.8243  225.4401 H   0  0  0  0  0  0  0  0  0  0  0  0
  141.1415   69.9968  228.5412 H   0  0  0  0  0  0  0  0  0  0  0  0
  141.4981   71.8921  226.9671 H   0  0  0  0  0  0  0  0  0  0  0  0
  1  2  2  0
  2  3  1  0
  3  4  1  0
  4  5  1  0
  5  6  2  0
  5  7  1  0
  7  8  1  0
  8  9  1  0
  9 10  1  0
 10 11  1  0
 11 12  1  0
 12 13  1  0
 13 14  2  0
 14 15  1  0
 15 16  2  0
 16 17  1  0
 16 18  1  0
 18 19  2  0
  2 20  1  0
 20 21  2  0
 21 22  1  0
 22 23  2  0
 23 24  1  0
 24 25  2  0
 25 26  1  0
 25 27  1  0
 27 28  2  0
 28 29  1  0
 29 30  2  0
 12  7  1  0
 19 13  1  0
 30 20  1  0
 29 23  1  0
  3 31  1  0
  4 32  1  0
  4 33  1  0
  8 34  1  0
  8 35  1  0
  9 36  1  0
  9 37  1  0
 10 38  1  0
 10 39  1  0
 11 40  1  0
 11 41  1  0
 12 42  1  1
 14 43  1  0
 15 44  1  0
 17 45  1  0
 18 46  1  0
 19 47  1  0
 21 48  1  0
 22 49  1  0
 24 50  1  0
 27 51  1  0
 28 52  1  0
M  END
>  <smiles>  (22) 
O=C(NCC(=O)N1CCCCC1c1ccc(O)cc1)c1ccc2cc(F)ccc2n1

>  <score_type>  (22) 
oracle

>  <origin>  (22) 
autodockgpu

>  <m_score__min__energy>  (22) 
-8.8599999999999994

>  <m_primary>  (22) 
energy

>  <rmsd>  (22) 
3.5766677365317787

>  <m_score__min__rmsd>  (22) 
3.5766677365317787

>  <meeko>  (22) 
{"free_energy": -8.72, "intermolecular_energy": -10.51, "internal_energy": -1.35, "cluster_size": 10, "cluster_id": 2, "rank_in_cluster": 2}

>  <energy>  (22) 
-8.71

>  <cluster_rmsd>  (22) 
0.5

>  <cluster>  (22) 
2

$$$$

     RDKit          3D

 52 55  0  0  0  0  0  0  0  0999 V2000
  141.3280   72.5600  221.6100 O   0  0  0  0  0  0  0  0  0  0  0  0
  140.3960   72.6450  222.4660 C   0  0  0  0  0  0  0  0  0  0  0  0
  139.5340   73.7920  222.3480 N   0  0  0  0  0  0  0  0  0  0  0  0
  139.7410   74.7650  221.3130 C   0  0  0  0  0  0  0  0  0  0  0  0
  138.9610   76.0060  221.5340 C   0  0  0  0  0  0  0  0  0  0  0  0
  137.7000   75.9690  221.3450 O   0  0  0  0  0  0  0  0  0  0  0  0
  139.5640   77.2260  221.9470 N   0  0  0  0  0  0  0  0  0  0  0  0
  138.6640   78.3060  222.3120 C   0  0  0  0  0  0  0  0  0  0  0  0
  139.2590   78.9960  223.5220 C   0  0  0  0  0  0  0  0  0  0  0  0
  140.5510   79.6150  223.0210 C   0  0  0  0  0  0  0  0  0  0  0  0
  141.5110   78.5170  222.7450 C   0  0  0  0  0  0  0  0  0  0  0  0
  140.9940   77.3470  221.9900 C   0  0  2  0  0  0  0  0  0  0  0  0
  141.6300   77.3840  220.6460 C   0  0  0  0  0  0  0  0  0  0  0  0
  141.5420   78.5190  219.8270 C   0  0  0  0  0  0  0  0  0  0  0  0
  142.1280   78.5640  218.5810 C   0  0  0  0  0  0  0  0  0  0  0  0
  142.8290   77.4850  218.0840 C   0  0  0  0  0  0  0  0  0  0  0  0
  143.3980   77.5840  216.8220 O   0  0  0  0  0  0  0  0  0  0  0  0
  142.9300   76.3550  218.8700 C   0  0  0  0  0  0  0  0  0  0  0  0
  142.3390   76.3250  220.1170 C   0  0  0  0  0  0  0  0  0  0  0  0
  140.2000   71.6610  223.4990 C   0  0  0  0  0  0  0  0  0  0  0  0
  139.5150   70.5060  223.1840 C   0  0  0  0  0  0  0  0  0  0  0  0
  139.3180   69.5510  224.1630 C   0  0  0  0  0  0  0  0  0  0  0  0
  139.8150   69.7850  225.4410 C   0  0  0  0  0  0  0  0  0  0  0  0
  139.6210   68.8260  226.4390 C   0  0  0  0  0  0  0  0  0  0  0  0
  140.1270   69.0720  227.7190 C   0  0  0  0  0  0  0  0  0  0  0  0
  139.9510   68.1510  228.7140 F   0  0  0  0  0  0  0  0  0  0  0  0
  140.8060   70.2430  227.9880 C   0  0  0  0  0  0  0  0  0  0  0  0
  140.9880   71.1870  226.9780 C   0  0  0  0  0  0  0  0  0  0  0  0
  140.4930   70.9630  225.6960 C   0  0  0  0  0  0  0  0  0  0  0  0
  140.6830   71.8910  224.7340 N   0  0  0  0  0  0  0  0  0  0  0  0
  138.7710   73.8390  223.0680 H   0  0  0  0  0  0  0  0  0  0  0  0
  140.8100   75.0219  221.2795 H   0  0  0  0  0  0  0  0  0  0  0  0
  139.4008   74.3216  220.3656 H   0  0  0  0  0  0  0  0  0  0  0  0
  138.5730   79.0184  221.4788 H   0  0  0  0  0  0  0  0  0  0  0  0
  137.6601   77.9177  222.5386 H   0  0  0  0  0  0  0  0  0  0  0  0
  138.5777   79.7733  223.8985 H   0  0  0  0  0  0  0  0  0  0  0  0
  139.4294   78.2982  224.3551 H   0  0  0  0  0  0  0  0  0  0  0  0
  140.3593   80.1833  222.0989 H   0  0  0  0  0  0  0  0  0  0  0  0
  140.9630   80.3010  223.7757 H   0  0  0  0  0  0  0  0  0  0  0  0
  142.3456   78.9423  222.1684 H   0  0  0  0  0  0  0  0  0  0  0  0
  141.7867   78.1215  223.7337 H   0  0  0  0  0  0  0  0  0  0  0  0
  141.2720   76.4279  222.5267 H   0  0  0  0  0  0  0  0  0  0  0  0
  140.9894   79.3982  220.1898 H   0  0  0  0  0  0  0  0  0  0  0  0
  142.0353   79.4756  217.9723 H   0  0  0  0  0  0  0  0  0  0  0  0
  143.8070   78.4620  216.5160 H   0  0  0  0  0  0  0  0  0  0  0  0
  143.4820   75.4775  218.5023 H   0  0  0  0  0  0  0  0  0  0  0  0
  142.4383   75.4102  220.7198 H   0  0  0  0  0  0  0  0  0  0  0  0
  139.1302   70.3471  222.1658 H   0  0  0  0  0  0  0  0  0  0  0  0
  138.7769   68.6207  223.9354 H   0  0  0  0  0  0  0  0  0  0  0  0
  139.0795   67.8936  226.2212 H   0  0  0  0  0  0  0  0  0  0  0  0
  141.2026   70.4312  228.9966 H   0  0  0  0  0  0  0  0  0  0  0  0
  141.5290   72.1195  227.1966 H   0  0  0  0  0  0  0  0  0  0  0  0
  1  2  2  0
  2  3  1  0
  3  4  1  0
  4  5  1  0
  5  6  2  0
  5  7  1  0
  7  8  1  0
  8  9  1  0
  9 10  1  0
 10 11  1  0
 11 12  1  0
 12 13  1  0
 13 14  2  0
 14 15  1  0
 15 16  2  0
 16 17  1  0
 16 18  1  0
 18 19  2  0
  2 20  1  0
 20 21  2  0
 21 22  1  0
 22 23  2  0
 23 24  1  0
 24 25  2  0
 25 26  1  0
 25 27  1  0
 27 28  2  0
 28 29  1  0
 29 30  2  0
 12  7  1  0
 19 13  1  0
 30 20  1  0
 29 23  1  0
  3 31  1  0
  4 32  1  0
  4 33  1  0
  8 34  1  0
  8 35  1  0
  9 36  1  0
  9 37  1  0
 10 38  1  0
 10 39  1  0
 11 40  1  0
 11 41  1  0
 12 42  1  1
 14 43  1  0
 15 44  1  0
 17 45  1  0
 18 46  1  0
 19 47  1  0
 21 48  1  0
 22 49  1  0
 24 50  1  0
 27 51  1  0
 28 52  1  0
M  END
>  <smiles>  (23) 
O=C(NCC(=O)N1CCCCC1c1ccc(O)cc1)c1ccc2cc(F)ccc2n1

>  <score_type>  (23) 
oracle

>  <origin>  (23) 
autodockgpu

>  <m_score__min__energy>  (23) 
-8.8599999999999994

>  <m_primary>  (23) 
energy

>  <rmsd>  (23) 
3.294199351393627

>  <m_score__min__rmsd>  (23) 
3.294199351393627

>  <meeko>  (23) 
{"free_energy": -8.71, "intermolecular_energy": -10.5, "internal_energy": -1.35, "cluster_size": 10, "cluster_id": 2, "rank_in_cluster": 3}

>  <energy>  (23) 
-8.71

>  <cluster_rmsd>  (23) 
0.13

>  <cluster>  (23) 
2

$$$$

     RDKit          3D

 52 55  0  0  0  0  0  0  0  0999 V2000
  140.2640   71.3110  221.0620 O   0  0  0  0  0  0  0  0  0  0  0  0
  140.0010   71.8400  222.1840 C   0  0  0  0  0  0  0  0  0  0  0  0
  139.8020   73.2660  222.1780 N   0  0  0  0  0  0  0  0  0  0  0  0
  139.9030   74.0170  220.9580 C   0  0  0  0  0  0  0  0  0  0  0  0
  140.6190   75.3040  221.1400 C   0  0  0  0  0  0  0  0  0  0  0  0
  140.8870   75.6830  222.3270 O   0  0  0  0  0  0  0  0  0  0  0  0
  141.0140   76.1200  220.0450 N   0  0  0  0  0  0  0  0  0  0  0  0
  139.9700   76.5020  219.1090 C   0  0  0  0  0  0  0  0  0  0  0  0
  140.2200   77.9450  218.7220 C   0  0  0  0  0  0  0  0  0  0  0  0
  141.5370   77.9240  217.9690 C   0  0  0  0  0  0  0  0  0  0  0  0
  142.6210   77.6360  218.9430 C   0  0  0  0  0  0  0  0  0  0  0  0
  142.3830   76.5300  219.9040 C   0  0  2  0  0  0  0  0  0  0  0  0
  143.3000   75.4220  219.5220 C   0  0  0  0  0  0  0  0  0  0  0  0
  144.0900   74.7660  220.4760 C   0  0  0  0  0  0  0  0  0  0  0  0
  144.9430   73.7390  220.1320 C   0  0  0  0  0  0  0  0  0  0  0  0
  145.0550   73.3140  218.8250 C   0  0  0  0  0  0  0  0  0  0  0  0
  145.9300   72.2760  218.5350 O   0  0  0  0  0  0  0  0  0  0  0  0
  144.2880   73.9450  217.8670 C   0  0  0  0  0  0  0  0  0  0  0  0
  143.4380   74.9710  218.2250 C   0  0  0  0  0  0  0  0  0  0  0  0
  139.9020   71.0740  223.3990 C   0  0  0  0  0  0  0  0  0  0  0  0
  139.3140   69.8280  223.3450 C   0  0  0  0  0  0  0  0  0  0  0  0
  139.2110   69.0800  224.5020 C   0  0  0  0  0  0  0  0  0  0  0  0
  139.7050   69.6070  225.6900 C   0  0  0  0  0  0  0  0  0  0  0  0
  139.6070   68.8590  226.8670 C   0  0  0  0  0  0  0  0  0  0  0  0
  140.1080   69.4000  228.0550 C   0  0  0  0  0  0  0  0  0  0  0  0
  140.0250   68.6890  229.2200 F   0  0  0  0  0  0  0  0  0  0  0  0
  140.6890   70.6510  228.0620 C   0  0  0  0  0  0  0  0  0  0  0  0
  140.7770   71.3810  226.8760 C   0  0  0  0  0  0  0  0  0  0  0  0
  140.2850   70.8630  225.6820 C   0  0  0  0  0  0  0  0  0  0  0  0
  140.3820   71.5880  224.5470 N   0  0  0  0  0  0  0  0  0  0  0  0
  139.5860   73.6800  223.1170 H   0  0  0  0  0  0  0  0  0  0  0  0
  140.4461   73.4131  220.2161 H   0  0  0  0  0  0  0  0  0  0  0  0
  138.8812   74.2478  220.6223 H   0  0  0  0  0  0  0  0  0  0  0  0
  140.0109   75.8602  218.2166 H   0  0  0  0  0  0  0  0  0  0  0  0
  138.9758   76.3872  219.5655 H   0  0  0  0  0  0  0  0  0  0  0  0
  139.4111   78.3185  218.0769 H   0  0  0  0  0  0  0  0  0  0  0  0
  140.2543   78.6090  219.5983 H   0  0  0  0  0  0  0  0  0  0  0  0
  141.5123   77.1414  217.1964 H   0  0  0  0  0  0  0  0  0  0  0  0
  141.7118   78.8937  217.4799 H   0  0  0  0  0  0  0  0  0  0  0  0
  143.5264   77.3889  218.3693 H   0  0  0  0  0  0  0  0  0  0  0  0
  142.6992   78.5421  219.5617 H   0  0  0  0  0  0  0  0  0  0  0  0
  142.6058   76.8891  220.9196 H   0  0  0  0  0  0  0  0  0  0  0  0
  144.0277   75.0793  221.5286 H   0  0  0  0  0  0  0  0  0  0  0  0
  145.5442   73.2505  220.9130 H   0  0  0  0  0  0  0  0  0  0  0  0
  145.5770   71.4070  218.1460 H   0  0  0  0  0  0  0  0  0  0  0  0
  144.3545   73.6292  216.8154 H   0  0  0  0  0  0  0  0  0  0  0  0
  142.8406   75.4536  217.4375 H   0  0  0  0  0  0  0  0  0  0  0  0
  138.9314   69.4341  222.3919 H   0  0  0  0  0  0  0  0  0  0  0  0
  138.7456   68.0835  224.4836 H   0  0  0  0  0  0  0  0  0  0  0  0
  139.1435   67.8615  226.8586 H   0  0  0  0  0  0  0  0  0  0  0  0
  141.0817   71.0718  228.9994 H   0  0  0  0  0  0  0  0  0  0  0  0
  141.2410   72.3783  226.8852 H   0  0  0  0  0  0  0  0  0  0  0  0
  1  2  2  0
  2  3  1  0
  3  4  1  0
  4  5  1  0
  5  6  2  0
  5  7  1  0
  7  8  1  0
  8  9  1  0
  9 10  1  0
 10 11  1  0
 11 12  1  0
 12 13  1  0
 13 14  2  0
 14 15  1  0
 15 16  2  0
 16 17  1  0
 16 18  1  0
 18 19  2  0
  2 20  1  0
 20 21  2  0
 21 22  1  0
 22 23  2  0
 23 24  1  0
 24 25  2  0
 25 26  1  0
 25 27  1  0
 27 28  2  0
 28 29  1  0
 29 30  2  0
 12  7  1  0
 19 13  1  0
 30 20  1  0
 29 23  1  0
  3 31  1  0
  4 32  1  0
  4 33  1  0
  8 34  1  0
  8 35  1  0
  9 36  1  0
  9 37  1  0
 10 38  1  0
 10 39  1  0
 11 40  1  0
 11 41  1  0
 12 42  1  1
 14 43  1  0
 15 44  1  0
 17 45  1  0
 18 46  1  0
 19 47  1  0
 21 48  1  0
 22 49  1  0
 24 50  1  0
 27 51  1  0
 28 52  1  0
M  END
>  <smiles>  (24) 
O=C(NCC(=O)N1CCCCC1c1ccc(O)cc1)c1ccc2cc(F)ccc2n1

>  <score_type>  (24) 
oracle

>  <origin>  (24) 
autodockgpu

>  <m_score__min__energy>  (24) 
-8.8599999999999994

>  <m_primary>  (24) 
energy

>  <rmsd>  (24) 
1.6007068829705176

>  <m_score__min__rmsd>  (24) 
1.6007068829705176

>  <meeko>  (24) 
{"free_energy": -8.16, "intermolecular_energy": -9.95, "internal_energy": -1.71, "cluster_size": 19, "cluster_id": 1, "rank_in_cluster": 14}

>  <energy>  (24) 
-8.66

>  <cluster_rmsd>  (24) 
0.17

>  <cluster>  (24) 
2

$$$$

     RDKit          3D

 52 55  0  0  0  0  0  0  0  0999 V2000
  138.5940   71.4680  221.3400 O   0  0  0  0  0  0  0  0  0  0  0  0
  139.0970   71.9540  222.3980 C   0  0  0  0  0  0  0  0  0  0  0  0
  139.3300   73.3750  222.3910 N   0  0  0  0  0  0  0  0  0  0  0  0
  139.0010   74.1680  221.2390 C   0  0  0  0  0  0  0  0  0  0  0  0
  138.3540   75.4530  221.6000 C   0  0  0  0  0  0  0  0  0  0  0  0
  137.0800   75.5090  221.6000 O   0  0  0  0  0  0  0  0  0  0  0  0
  139.1000   76.6150  221.9410 N   0  0  0  0  0  0  0  0  0  0  0  0
  138.3830   77.8780  221.9160 C   0  0  0  0  0  0  0  0  0  0  0  0
  138.8580   78.6870  223.1050 C   0  0  0  0  0  0  0  0  0  0  0  0
  140.3200   78.9750  222.8220 C   0  0  0  0  0  0  0  0  0  0  0  0
  141.0740   77.7020  222.9490 C   0  0  0  0  0  0  0  0  0  0  0  0
  140.4880   76.5060  222.2910 C   0  0  2  0  0  0  0  0  0  0  0  0
  141.3690   76.1730  221.1400 C   0  0  0  0  0  0  0  0  0  0  0  0
  141.5990   77.0910  220.1050 C   0  0  0  0  0  0  0  0  0  0  0  0
  142.4130   76.7920  219.0340 C   0  0  0  0  0  0  0  0  0  0  0  0
  143.0380   75.5660  218.9360 C   0  0  0  0  0  0  0  0  0  0  0  0
  143.8460   75.3180  217.8350 O   0  0  0  0  0  0  0  0  0  0  0  0
  142.8270   74.6440  219.9400 C   0  0  0  0  0  0  0  0  0  0  0  0
  142.0100   74.9580  221.0070 C   0  0  0  0  0  0  0  0  0  0  0  0
  139.4220   71.1470  223.5450 C   0  0  0  0  0  0  0  0  0  0  0  0
  139.2010   69.7870  223.4760 C   0  0  0  0  0  0  0  0  0  0  0  0
  139.5070   68.9970  224.5670 C   0  0  0  0  0  0  0  0  0  0  0  0
  140.0290   69.5990  225.7070 C   0  0  0  0  0  0  0  0  0  0  0  0
  140.3430   68.8100  226.8170 C   0  0  0  0  0  0  0  0  0  0  0  0
  140.8680   69.4270  227.9570 C   0  0  0  0  0  0  0  0  0  0  0  0
  141.1830   68.6780  229.0580 F   0  0  0  0  0  0  0  0  0  0  0  0
  141.0720   70.7910  227.9820 C   0  0  0  0  0  0  0  0  0  0  0  0
  140.7530   71.5600  226.8630 C   0  0  0  0  0  0  0  0  0  0  0  0
  140.2290   70.9670  225.7170 C   0  0  0  0  0  0  0  0  0  0  0  0
  139.9280   71.7330  224.6460 N   0  0  0  0  0  0  0  0  0  0  0  0
  139.7460   73.7530  223.2770 H   0  0  0  0  0  0  0  0  0  0  0  0
  139.9254   74.3825  220.6827 H   0  0  0  0  0  0  0  0  0  0  0  0
  138.2870   73.5935  220.6306 H   0  0  0  0  0  0  0  0  0  0  0  0
  138.6014   78.4168  220.9822 H   0  0  0  0  0  0  0  0  0  0  0  0
  137.2969   77.7112  221.9664 H   0  0  0  0  0  0  0  0  0  0  0  0
  138.2880   79.6241  223.1881 H   0  0  0  0  0  0  0  0  0  0  0  0
  138.7181   78.1492  224.0543 H   0  0  0  0  0  0  0  0  0  0  0  0
  140.4310   79.3740  221.8029 H   0  0  0  0  0  0  0  0  0  0  0  0
  140.7065   79.7194  223.5337 H   0  0  0  0  0  0  0  0  0  0  0  0
  142.0730   77.8629  222.5175 H   0  0  0  0  0  0  0  0  0  0  0  0
  141.0671   77.4703  224.0243 H   0  0  0  0  0  0  0  0  0  0  0  0
  140.4628   75.6783  223.0150 H   0  0  0  0  0  0  0  0  0  0  0  0
  141.1157   78.0782  220.1494 H   0  0  0  0  0  0  0  0  0  0  0  0
  142.5668   77.5427  218.2448 H   0  0  0  0  0  0  0  0  0  0  0  0
  144.8140   75.6250  217.8350 H   0  0  0  0  0  0  0  0  0  0  0  0
  143.3105   73.6572  219.8901 H   0  0  0  0  0  0  0  0  0  0  0  0
  141.8621   74.2013  221.7915 H   0  0  0  0  0  0  0  0  0  0  0  0
  138.7857   69.3367  222.5623 H   0  0  0  0  0  0  0  0  0  0  0  0
  139.3407   67.9101  224.5348 H   0  0  0  0  0  0  0  0  0  0  0  0
  140.1800   67.7224  226.7944 H   0  0  0  0  0  0  0  0  0  0  0  0
  141.4850   71.2707  228.8816 H   0  0  0  0  0  0  0  0  0  0  0  0
  140.9172   72.6474  226.8859 H   0  0  0  0  0  0  0  0  0  0  0  0
  1  2  2  0
  2  3  1  0
  3  4  1  0
  4  5  1  0
  5  6  2  0
  5  7  1  0
  7  8  1  0
  8  9  1  0
  9 10  1  0
 10 11  1  0
 11 12  1  0
 12 13  1  0
 13 14  2  0
 14 15  1  0
 15 16  2  0
 16 17  1  0
 16 18  1  0
 18 19  2  0
  2 20  1  0
 20 21  2  0
 21 22  1  0
 22 23  2  0
 23 24  1  0
 24 25  2  0
 25 26  1  0
 25 27  1  0
 27 28  2  0
 28 29  1  0
 29 30  2  0
 12  7  1  0
 19 13  1  0
 30 20  1  0
 29 23  1  0
  3 31  1  0
  4 32  1  0
  4 33  1  0
  8 34  1  0
  8 35  1  0
  9 36  1  0
  9 37  1  0
 10 38  1  0
 10 39  1  0
 11 40  1  0
 11 41  1  0
 12 42  1  1
 14 43  1  0
 15 44  1  0
 17 45  1  0
 18 46  1  0
 19 47  1  0
 21 48  1  0
 22 49  1  0
 24 50  1  0
 27 51  1  0
 28 52  1  0
M  END
>  <smiles>  (25) 
O=C(NCC(=O)N1CCCCC1c1ccc(O)cc1)c1ccc2cc(F)ccc2n1

>  <score_type>  (25) 
oracle

>  <origin>  (25) 
autodockgpu

>  <m_score__min__energy>  (25) 
-8.8599999999999994

>  <m_primary>  (25) 
energy

>  <rmsd>  (25) 
3.027326538570012

>  <m_score__min__rmsd>  (25) 
3.027326538570012

>  <meeko>  (25) 
{"free_energy": -7.83, "intermolecular_energy": -9.62, "internal_energy": -1.61, "cluster_size": 10, "cluster_id": 2, "rank_in_cluster": 10}

>  <energy>  (25) 
-8.64

>  <cluster_rmsd>  (25) 
0.2

>  <cluster>  (25) 
2

$$$$

     RDKit          3D

 52 55  0  0  0  0  0  0  0  0999 V2000
  141.0270   72.2350  221.3650 O   0  0  0  0  0  0  0  0  0  0  0  0
  140.1870   72.4030  222.3000 C   0  0  0  0  0  0  0  0  0  0  0  0
  139.3110   73.5380  222.1650 N   0  0  0  0  0  0  0  0  0  0  0  0
  139.4070   74.4100  221.0280 C   0  0  0  0  0  0  0  0  0  0  0  0
  140.7370   75.0580  220.9200 C   0  0  0  0  0  0  0  0  0  0  0  0
  141.4520   75.1490  221.9720 O   0  0  0  0  0  0  0  0  0  0  0  0
  141.2360   75.5780  219.6950 N   0  0  0  0  0  0  0  0  0  0  0  0
  140.2990   75.6450  218.5870 C   0  0  0  0  0  0  0  0  0  0  0  0
  140.5580   76.9470  217.8570 C   0  0  0  0  0  0  0  0  0  0  0  0
  141.9530   76.7990  217.2800 C   0  0  0  0  0  0  0  0  0  0  0  0
  142.9240   76.8360  218.4040 C   0  0  0  0  0  0  0  0  0  0  0  0
  142.6020   76.0090  219.5950 C   0  0  2  0  0  0  0  0  0  0  0  0
  143.5830   74.8910  219.6210 C   0  0  0  0  0  0  0  0  0  0  0  0
  143.4400   73.7730  218.7870 C   0  0  0  0  0  0  0  0  0  0  0  0
  144.3430   72.7320  218.8050 C   0  0  0  0  0  0  0  0  0  0  0  0
  145.4320   72.7480  219.6510 C   0  0  0  0  0  0  0  0  0  0  0  0
  146.3090   71.6720  219.6270 O   0  0  0  0  0  0  0  0  0  0  0  0
  145.5950   73.8370  220.4820 C   0  0  0  0  0  0  0  0  0  0  0  0
  144.6840   74.8730  220.4540 C   0  0  0  0  0  0  0  0  0  0  0  0
  140.1020   71.5200  223.4350 C   0  0  0  0  0  0  0  0  0  0  0  0
  139.4720   70.3030  223.2750 C   0  0  0  0  0  0  0  0  0  0  0  0
  139.3810   69.4440  224.3520 C   0  0  0  0  0  0  0  0  0  0  0  0
  139.9290   69.8330  225.5700 C   0  0  0  0  0  0  0  0  0  0  0  0
  139.8430   68.9710  226.6680 C   0  0  0  0  0  0  0  0  0  0  0  0
  140.3980   69.3730  227.8870 C   0  0  0  0  0  0  0  0  0  0  0  0
  140.3270   68.5500  228.9760 F   0  0  0  0  0  0  0  0  0  0  0  0
  141.0190   70.6000  228.0000 C   0  0  0  0  0  0  0  0  0  0  0  0
  141.0930   71.4450  226.8930 C   0  0  0  0  0  0  0  0  0  0  0  0
  140.5480   71.0650  225.6690 C   0  0  0  0  0  0  0  0  0  0  0  0
  140.6330   71.9000  224.6110 N   0  0  0  0  0  0  0  0  0  0  0  0
  138.6260   73.6550  222.9510 H   0  0  0  0  0  0  0  0  0  0  0  0
  139.2260   73.8220  220.1161 H   0  0  0  0  0  0  0  0  0  0  0  0
  138.6569   75.2050  221.1521 H   0  0  0  0  0  0  0  0  0  0  0  0
  140.4576   74.7944  217.9078 H   0  0  0  0  0  0  0  0  0  0  0  0
  139.2617   75.6017  218.9506 H   0  0  0  0  0  0  0  0  0  0  0  0
  139.8205   77.0941  217.0542 H   0  0  0  0  0  0  0  0  0  0  0  0
  140.4751   77.8189  218.5225 H   0  0  0  0  0  0  0  0  0  0  0  0
  142.0362   75.8404  216.7469 H   0  0  0  0  0  0  0  0  0  0  0  0
  142.1603   77.6137  216.5705 H   0  0  0  0  0  0  0  0  0  0  0  0
  143.8955   76.4962  218.0158 H   0  0  0  0  0  0  0  0  0  0  0  0
  142.9090   77.8756  218.7631 H   0  0  0  0  0  0  0  0  0  0  0  0
  142.6967   76.6329  220.4960 H   0  0  0  0  0  0  0  0  0  0  0  0
  142.5830   73.7254  218.0990 H   0  0  0  0  0  0  0  0  0  0  0  0
  144.1926   71.8740  218.1333 H   0  0  0  0  0  0  0  0  0  0  0  0
  146.5850   71.2230  220.4950 H   0  0  0  0  0  0  0  0  0  0  0  0
  146.4533   73.8796  221.1686 H   0  0  0  0  0  0  0  0  0  0  0  0
  144.8428   75.7270  221.1289 H   0  0  0  0  0  0  0  0  0  0  0  0
  139.0471   70.0204  222.3005 H   0  0  0  0  0  0  0  0  0  0  0  0
  138.8835   68.4684  224.2487 H   0  0  0  0  0  0  0  0  0  0  0  0
  139.3473   67.9935  226.5743 H   0  0  0  0  0  0  0  0  0  0  0  0
  141.4547   70.9109  228.9610 H   0  0  0  0  0  0  0  0  0  0  0  0
  141.5876   72.4230  226.9877 H   0  0  0  0  0  0  0  0  0  0  0  0
  1  2  2  0
  2  3  1  0
  3  4  1  0
  4  5  1  0
  5  6  2  0
  5  7  1  0
  7  8  1  0
  8  9  1  0
  9 10  1  0
 10 11  1  0
 11 12  1  0
 12 13  1  0
 13 14  2  0
 14 15  1  0
 15 16  2  0
 16 17  1  0
 16 18  1  0
 18 19  2  0
  2 20  1  0
 20 21  2  0
 21 22  1  0
 22 23  2  0
 23 24  1  0
 24 25  2  0
 25 26  1  0
 25 27  1  0
 27 28  2  0
 28 29  1  0
 29 30  2  0
 12  7  1  0
 19 13  1  0
 30 20  1  0
 29 23  1  0
  3 31  1  0
  4 32  1  0
  4 33  1  0
  8 34  1  0
  8 35  1  0
  9 36  1  0
  9 37  1  0
 10 38  1  0
 10 39  1  0
 11 40  1  0
 11 41  1  0
 12 42  1  1
 14 43  1  0
 15 44  1  0
 17 45  1  0
 18 46  1  0
 19 47  1  0
 21 48  1  0
 22 49  1  0
 24 50  1  0
 27 51  1  0
 28 52  1  0
M  END
>  <smiles>  (26) 
O=C(NCC(=O)N1CCCCC1c1ccc(O)cc1)c1ccc2cc(F)ccc2n1

>  <score_type>  (26) 
oracle

>  <origin>  (26) 
autodockgpu

>  <m_score__min__energy>  (26) 
-8.8599999999999994

>  <m_primary>  (26) 
energy

>  <rmsd>  (26) 
1.5289928574024707

>  <m_score__min__rmsd>  (26) 
1.5289928574024707

>  <meeko>  (26) 
{"free_energy": -8.76, "intermolecular_energy": -10.55, "internal_energy": -1.51, "cluster_size": 19, "cluster_id": 1, "rank_in_cluster": 5}

>  <energy>  (26) 
-8.6

>  <cluster_rmsd>  (26) 
0.45

>  <cluster>  (26) 
2

$$$$

     RDKit          3D

 52 55  0  0  0  0  0  0  0  0999 V2000
  139.6970   71.0530  220.9890 O   0  0  0  0  0  0  0  0  0  0  0  0
  139.7720   71.5980  222.1310 C   0  0  0  0  0  0  0  0  0  0  0  0
  139.8560   73.0360  222.1410 N   0  0  0  0  0  0  0  0  0  0  0  0
  139.8540   73.7800  220.9130 C   0  0  0  0  0  0  0  0  0  0  0  0
  140.6960   74.9990  220.9850 C   0  0  0  0  0  0  0  0  0  0  0  0
  140.9590   75.4840  222.1350 O   0  0  0  0  0  0  0  0  0  0  0  0
  141.2170   75.6380  219.8270 N   0  0  0  0  0  0  0  0  0  0  0  0
  140.2900   75.8470  218.7280 C   0  0  0  0  0  0  0  0  0  0  0  0
  140.5840   77.2150  218.1470 C   0  0  0  0  0  0  0  0  0  0  0  0
  141.9790   77.0980  217.5640 C   0  0  0  0  0  0  0  0  0  0  0  0
  142.9420   76.9890  218.6900 C   0  0  0  0  0  0  0  0  0  0  0  0
  142.5930   76.0450  219.7820 C   0  0  2  0  0  0  0  0  0  0  0  0
  143.5480   74.9080  219.6900 C   0  0  0  0  0  0  0  0  0  0  0  0
  144.0190   74.4470  218.4530 C   0  0  0  0  0  0  0  0  0  0  0  0
  144.9040   73.3940  218.3590 C   0  0  0  0  0  0  0  0  0  0  0  0
  145.3640   72.7470  219.4870 C   0  0  0  0  0  0  0  0  0  0  0  0
  146.2540   71.6920  219.3330 O   0  0  0  0  0  0  0  0  0  0  0  0
  144.9150   73.1820  220.7160 C   0  0  0  0  0  0  0  0  0  0  0  0
  144.0300   74.2370  220.7970 C   0  0  0  0  0  0  0  0  0  0  0  0
  139.7730   70.8390  223.3550 C   0  0  0  0  0  0  0  0  0  0  0  0
  139.2490   69.5630  223.3370 C   0  0  0  0  0  0  0  0  0  0  0  0
  139.2420   68.8200  224.5020 C   0  0  0  0  0  0  0  0  0  0  0  0
  139.7650   69.3830  225.6610 C   0  0  0  0  0  0  0  0  0  0  0  0
  139.7640   68.6410  226.8450 C   0  0  0  0  0  0  0  0  0  0  0  0
  140.2930   69.2170  228.0040 C   0  0  0  0  0  0  0  0  0  0  0  0
  140.3030   68.5130  229.1770 F   0  0  0  0  0  0  0  0  0  0  0  0
  140.8060   70.4970  227.9750 C   0  0  0  0  0  0  0  0  0  0  0  0
  140.7980   71.2210  226.7830 C   0  0  0  0  0  0  0  0  0  0  0  0
  140.2770   70.6670  225.6170 C   0  0  0  0  0  0  0  0  0  0  0  0
  140.2800   71.3870  224.4750 N   0  0  0  0  0  0  0  0  0  0  0  0
  139.9170   73.4630  223.0970 H   0  0  0  0  0  0  0  0  0  0  0  0
  140.2366   73.1342  220.1089 H   0  0  0  0  0  0  0  0  0  0  0  0
  138.8197   74.0997  220.7181 H   0  0  0  0  0  0  0  0  0  0  0  0
  140.4350   75.0726  217.9604 H   0  0  0  0  0  0  0  0  0  0  0  0
  139.2491   75.7876  219.0788 H   0  0  0  0  0  0  0  0  0  0  0  0
  139.8560   77.4669  217.3618 H   0  0  0  0  0  0  0  0  0  0  0  0
  140.5162   78.0103  218.9039 H   0  0  0  0  0  0  0  0  0  0  0  0
  142.0441   76.2017  216.9296 H   0  0  0  0  0  0  0  0  0  0  0  0
  142.2102   77.9801  216.9488 H   0  0  0  0  0  0  0  0  0  0  0  0
  143.9083   76.6709  218.2716 H   0  0  0  0  0  0  0  0  0  0  0  0
  142.9476   77.9833  219.1606 H   0  0  0  0  0  0  0  0  0  0  0  0
  142.6957   76.5640  220.7464 H   0  0  0  0  0  0  0  0  0  0  0  0
  143.6730   74.9388  217.5319 H   0  0  0  0  0  0  0  0  0  0  0  0
  145.2490   73.0643  217.3679 H   0  0  0  0  0  0  0  0  0  0  0  0
  146.4150   71.0480  220.1010 H   0  0  0  0  0  0  0  0  0  0  0  0
  145.2634   72.6865  221.6342 H   0  0  0  0  0  0  0  0  0  0  0  0
  143.6913   74.5600  221.7925 H   0  0  0  0  0  0  0  0  0  0  0  0
  138.8415   69.1419  222.4061 H   0  0  0  0  0  0  0  0  0  0  0  0
  138.8297   67.8003  224.5125 H   0  0  0  0  0  0  0  0  0  0  0  0
  139.3538   67.6205  226.8649 H   0  0  0  0  0  0  0  0  0  0  0  0
  141.2204   70.9457  228.8898 H   0  0  0  0  0  0  0  0  0  0  0  0
  141.2081   72.2415  226.7640 H   0  0  0  0  0  0  0  0  0  0  0  0
  1  2  2  0
  2  3  1  0
  3  4  1  0
  4  5  1  0
  5  6  2  0
  5  7  1  0
  7  8  1  0
  8  9  1  0
  9 10  1  0
 10 11  1  0
 11 12  1  0
 12 13  1  0
 13 14  2  0
 14 15  1  0
 15 16  2  0
 16 17  1  0
 16 18  1  0
 18 19  2  0
  2 20  1  0
 20 21  2  0
 21 22  1  0
 22 23  2  0
 23 24  1  0
 24 25  2  0
 25 26  1  0
 25 27  1  0
 27 28  2  0
 28 29  1  0
 29 30  2  0
 12  7  1  0
 19 13  1  0
 30 20  1  0
 29 23  1  0
  3 31  1  0
  4 32  1  0
  4 33  1  0
  8 34  1  0
  8 35  1  0
  9 36  1  0
  9 37  1  0
 10 38  1  0
 10 39  1  0
 11 40  1  0
 11 41  1  0
 12 42  1  1
 14 43  1  0
 15 44  1  0
 17 45  1  0
 18 46  1  0
 19 47  1  0
 21 48  1  0
 22 49  1  0
 24 50  1  0
 27 51  1  0
 28 52  1  0
M  END
>  <smiles>  (27) 
O=C(NCC(=O)N1CCCCC1c1ccc(O)cc1)c1ccc2cc(F)ccc2n1

>  <score_type>  (27) 
oracle

>  <origin>  (27) 
autodockgpu

>  <m_score__min__energy>  (27) 
-8.8599999999999994

>  <m_primary>  (27) 
energy

>  <rmsd>  (27) 
1.4600520459295296

>  <m_score__min__rmsd>  (27) 
1.4600520459295296

>  <meeko>  (27) 
{"free_energy": -8.21, "intermolecular_energy": -10.0, "internal_energy": -1.84, "cluster_size": 19, "cluster_id": 1, "rank_in_cluster": 13}

>  <energy>  (27) 
-8.49

>  <cluster_rmsd>  (27) 
0.9

>  <cluster>  (27) 
2

$$$$

     RDKit          3D

 52 55  0  0  0  0  0  0  0  0999 V2000
  141.3040   72.0390  221.4790 O   0  0  0  0  0  0  0  0  0  0  0  0
  140.3710   72.2170  222.3190 C   0  0  0  0  0  0  0  0  0  0  0  0
  139.4640   73.2990  222.0360 N   0  0  0  0  0  0  0  0  0  0  0  0
  139.6330   74.1120  220.8640 C   0  0  0  0  0  0  0  0  0  0  0  0
  140.5290   75.2700  221.0990 C   0  0  0  0  0  0  0  0  0  0  0  0
  140.9170   75.5020  222.2910 O   0  0  0  0  0  0  0  0  0  0  0  0
  140.9670   76.1230  220.0490 N   0  0  0  0  0  0  0  0  0  0  0  0
  139.9580   76.5490  219.0940 C   0  0  0  0  0  0  0  0  0  0  0  0
  140.2320   78.0030  218.7700 C   0  0  0  0  0  0  0  0  0  0  0  0
  141.5730   77.9980  218.0610 C   0  0  0  0  0  0  0  0  0  0  0  0
  142.6210   77.6650  219.0590 C   0  0  0  0  0  0  0  0  0  0  0  0
  142.3430   76.5250  219.9690 C   0  0  2  0  0  0  0  0  0  0  0  0
  143.2630   75.4250  219.5770 C   0  0  0  0  0  0  0  0  0  0  0  0
  143.3320   74.9650  218.2550 C   0  0  0  0  0  0  0  0  0  0  0  0
  144.1820   73.9460  217.8820 C   0  0  0  0  0  0  0  0  0  0  0  0
  145.0050   73.3320  218.8020 C   0  0  0  0  0  0  0  0  0  0  0  0
  145.8400   72.3100  218.3720 O   0  0  0  0  0  0  0  0  0  0  0  0
  144.9560   73.7660  220.1110 C   0  0  0  0  0  0  0  0  0  0  0  0
  144.1010   74.7880  220.4710 C   0  0  0  0  0  0  0  0  0  0  0  0
  140.2140   71.3940  223.4910 C   0  0  0  0  0  0  0  0  0  0  0  0
  139.5740   70.1800  223.3600 C   0  0  0  0  0  0  0  0  0  0  0  0
  139.4140   69.3770  224.4730 C   0  0  0  0  0  0  0  0  0  0  0  0
  139.9050   69.8200  225.6960 C   0  0  0  0  0  0  0  0  0  0  0  0
  139.7500   69.0170  226.8300 C   0  0  0  0  0  0  0  0  0  0  0  0
  140.2490   69.4730  228.0540 C   0  0  0  0  0  0  0  0  0  0  0  0
  140.1100   68.7070  229.1780 F   0  0  0  0  0  0  0  0  0  0  0  0
  140.8830   70.6960  228.1380 C   0  0  0  0  0  0  0  0  0  0  0  0
  141.0270   71.4820  226.9950 C   0  0  0  0  0  0  0  0  0  0  0  0
  140.5390   71.0480  225.7650 C   0  0  0  0  0  0  0  0  0  0  0  0
  140.6910   71.8260  224.6730 N   0  0  0  0  0  0  0  0  0  0  0  0
  138.7020   73.4260  222.7450 H   0  0  0  0  0  0  0  0  0  0  0  0
  140.0616   73.4914  220.0633 H   0  0  0  0  0  0  0  0  0  0  0  0
  138.6444   74.5061  220.5859 H   0  0  0  0  0  0  0  0  0  0  0  0
  140.0237   75.9405  218.1800 H   0  0  0  0  0  0  0  0  0  0  0  0
  138.9482   76.4263  219.5126 H   0  0  0  0  0  0  0  0  0  0  0  0
  139.4481   78.4076  218.1129 H   0  0  0  0  0  0  0  0  0  0  0  0
  140.2420   78.6336  219.6712 H   0  0  0  0  0  0  0  0  0  0  0  0
  141.5683   77.2445  217.2596 H   0  0  0  0  0  0  0  0  0  0  0  0
  141.7716   78.9833  217.6141 H   0  0  0  0  0  0  0  0  0  0  0  0
  143.5437   77.4326  218.5072 H   0  0  0  0  0  0  0  0  0  0  0  0
  142.6842   78.5465  219.7140 H   0  0  0  0  0  0  0  0  0  0  0  0
  142.5351   76.8431  221.0043 H   0  0  0  0  0  0  0  0  0  0  0  0
  142.6894   75.4305  217.4932 H   0  0  0  0  0  0  0  0  0  0  0  0
  144.2041   73.6171  216.8325 H   0  0  0  0  0  0  0  0  0  0  0  0
  145.7770   71.9720  217.4160 H   0  0  0  0  0  0  0  0  0  0  0  0
  145.5998   73.2964  220.8693 H   0  0  0  0  0  0  0  0  0  0  0  0
  144.0863   75.1112  221.5223 H   0  0  0  0  0  0  0  0  0  0  0  0
  139.1949   69.8542  222.3802 H   0  0  0  0  0  0  0  0  0  0  0  0
  138.9070   68.4041  224.3929 H   0  0  0  0  0  0  0  0  0  0  0  0
  139.2440   68.0428  226.7604 H   0  0  0  0  0  0  0  0  0  0  0  0
  141.2736   71.0497  229.1036 H   0  0  0  0  0  0  0  0  0  0  0  0
  141.5321   72.4566  227.0659 H   0  0  0  0  0  0  0  0  0  0  0  0
  1  2  2  0
  2  3  1  0
  3  4  1  0
  4  5  1  0
  5  6  2  0
  5  7  1  0
  7  8  1  0
  8  9  1  0
  9 10  1  0
 10 11  1  0
 11 12  1  0
 12 13  1  0
 13 14  2  0
 14 15  1  0
 15 16  2  0
 16 17  1  0
 16 18  1  0
 18 19  2  0
  2 20  1  0
 20 21  2  0
 21 22  1  0
 22 23  2  0
 23 24  1  0
 24 25  2  0
 25 26  1  0
 25 27  1  0
 27 28  2  0
 28 29  1  0
 29 30  2  0
 12  7  1  0
 19 13  1  0
 30 20  1  0
 29 23  1  0
  3 31  1  0
  4 32  1  0
  4 33  1  0
  8 34  1  0
  8 35  1  0
  9 36  1  0
  9 37  1  0
 10 38  1  0
 10 39  1  0
 11 40  1  0
 11 41  1  0
 12 42  1  1
 14 43  1  0
 15 44  1  0
 17 45  1  0
 18 46  1  0
 19 47  1  0
 21 48  1  0
 22 49  1  0
 24 50  1  0
 27 51  1  0
 28 52  1  0
M  END
>  <smiles>  (28) 
O=C(NCC(=O)N1CCCCC1c1ccc(O)cc1)c1ccc2cc(F)ccc2n1

>  <score_type>  (28) 
oracle

>  <origin>  (28) 
autodockgpu

>  <m_score__min__energy>  (28) 
-8.8599999999999994

>  <m_primary>  (28) 
energy

>  <rmsd>  (28) 
1.6779282422293913

>  <m_score__min__rmsd>  (28) 
1.6779282422293913

>  <meeko>  (28) 
{"free_energy": -8.27, "intermolecular_energy": -10.06, "internal_energy": -1.5, "cluster_size": 19, "cluster_id": 1, "rank_in_cluster": 11}

>  <energy>  (28) 
-8.47

>  <cluster_rmsd>  (28) 
0.63

>  <cluster>  (28) 
2

$$$$

     RDKit          3D

 52 55  0  0  0  0  0  0  0  0999 V2000
  135.9530   77.6990  222.9670 O   0  0  0  0  0  0  0  0  0  0  0  0
  136.0570   76.4830  223.3150 C   0  0  0  0  0  0  0  0  0  0  0  0
  137.1280   75.7410  222.7020 N   0  0  0  0  0  0  0  0  0  0  0  0
  138.0100   76.3670  221.7570 C   0  0  0  0  0  0  0  0  0  0  0  0
  139.3640   76.6030  222.3130 C   0  0  0  0  0  0  0  0  0  0  0  0
  140.1090   75.5920  222.5380 O   0  0  0  0  0  0  0  0  0  0  0  0
  139.8560   77.9050  222.6010 N   0  0  0  0  0  0  0  0  0  0  0  0
  138.8800   78.8850  223.0450 C   0  0  0  0  0  0  0  0  0  0  0  0
  139.5320   79.7030  224.1420 C   0  0  0  0  0  0  0  0  0  0  0  0
  140.6600   80.4470  223.4540 C   0  0  0  0  0  0  0  0  0  0  0  0
  141.7100   79.4610  223.0900 C   0  0  0  0  0  0  0  0  0  0  0  0
  141.2530   78.2010  222.4510 C   0  0  2  0  0  0  0  0  0  0  0  0
  141.7030   78.2480  221.0340 C   0  0  0  0  0  0  0  0  0  0  0  0
  142.1930   77.1070  220.3830 C   0  0  0  0  0  0  0  0  0  0  0  0
  142.6130   77.1410  219.0710 C   0  0  0  0  0  0  0  0  0  0  0  0
  142.5680   78.3090  218.3390 C   0  0  0  0  0  0  0  0  0  0  0  0
  143.0050   78.2870  217.0220 O   0  0  0  0  0  0  0  0  0  0  0  0
  142.0910   79.4470  218.9570 C   0  0  0  0  0  0  0  0  0  0  0  0
  141.6740   79.3980  220.2710 C   0  0  0  0  0  0  0  0  0  0  0  0
  135.1650   75.8680  224.2640 C   0  0  0  0  0  0  0  0  0  0  0  0
  134.3180   76.6790  224.9900 C   0  0  0  0  0  0  0  0  0  0  0  0
  133.4550   76.1060  225.9050 C   0  0  0  0  0  0  0  0  0  0  0  0
  133.4690   74.7250  226.0670 C   0  0  0  0  0  0  0  0  0  0  0  0
  132.6000   74.1340  226.9890 C   0  0  0  0  0  0  0  0  0  0  0  0
  132.6220   72.7450  227.1430 C   0  0  0  0  0  0  0  0  0  0  0  0
  131.7840   72.1410  228.0390 F   0  0  0  0  0  0  0  0  0  0  0  0
  133.4880   71.9730  226.3950 C   0  0  0  0  0  0  0  0  0  0  0  0
  134.3460   72.5830  225.4800 C   0  0  0  0  0  0  0  0  0  0  0  0
  134.3410   73.9650  225.3100 C   0  0  0  0  0  0  0  0  0  0  0  0
  135.1810   74.5310  224.4180 N   0  0  0  0  0  0  0  0  0  0  0  0
  137.1930   74.7390  223.0050 H   0  0  0  0  0  0  0  0  0  0  0  0
  138.0997   75.7169  220.8742 H   0  0  0  0  0  0  0  0  0  0  0  0
  137.5805   77.3458  221.4971 H   0  0  0  0  0  0  0  0  0  0  0  0
  138.5941   79.5382  222.2074 H   0  0  0  0  0  0  0  0  0  0  0  0
  137.9706   78.3896  223.4159 H   0  0  0  0  0  0  0  0  0  0  0  0
  138.8111   80.4101  224.5783 H   0  0  0  0  0  0  0  0  0  0  0  0
  139.8937   79.0742  224.9689 H   0  0  0  0  0  0  0  0  0  0  0  0
  140.2819   80.9408  222.5467 H   0  0  0  0  0  0  0  0  0  0  0  0
  141.0744   81.2145  224.1243 H   0  0  0  0  0  0  0  0  0  0  0  0
  142.4031   79.9550  222.3932 H   0  0  0  0  0  0  0  0  0  0  0  0
  142.1587   79.1526  224.0458 H   0  0  0  0  0  0  0  0  0  0  0  0
  141.7105   77.3507  222.9781 H   0  0  0  0  0  0  0  0  0  0  0  0
  142.2436   76.1572  220.9355 H   0  0  0  0  0  0  0  0  0  0  0  0
  142.9904   76.2215  218.5998 H   0  0  0  0  0  0  0  0  0  0  0  0
  143.6820   78.9720  216.6990 H   0  0  0  0  0  0  0  0  0  0  0  0
  142.0432   80.3948  218.4008 H   0  0  0  0  0  0  0  0  0  0  0  0
  141.2992   80.3225  220.7345 H   0  0  0  0  0  0  0  0  0  0  0  0
  134.3292   77.7690  224.8426 H   0  0  0  0  0  0  0  0  0  0  0  0
  132.7690   76.7316  226.4949 H   0  0  0  0  0  0  0  0  0  0  0  0
  131.9106   74.7517  227.5832 H   0  0  0  0  0  0  0  0  0  0  0  0
  133.5014   70.8802  226.5202 H   0  0  0  0  0  0  0  0  0  0  0  0
  135.0349   71.9649  224.8855 H   0  0  0  0  0  0  0  0  0  0  0  0
  1  2  2  0
  2  3  1  0
  3  4  1  0
  4  5  1  0
  5  6  2  0
  5  7  1  0
  7  8  1  0
  8  9  1  0
  9 10  1  0
 10 11  1  0
 11 12  1  0
 12 13  1  0
 13 14  2  0
 14 15  1  0
 15 16  2  0
 16 17  1  0
 16 18  1  0
 18 19  2  0
  2 20  1  0
 20 21  2  0
 21 22  1  0
 22 23  2  0
 23 24  1  0
 24 25  2  0
 25 26  1  0
 25 27  1  0
 27 28  2  0
 28 29  1  0
 29 30  2  0
 12  7  1  0
 19 13  1  0
 30 20  1  0
 29 23  1  0
  3 31  1  0
  4 32  1  0
  4 33  1  0
  8 34  1  0
  8 35  1  0
  9 36  1  0
  9 37  1  0
 10 38  1  0
 10 39  1  0
 11 40  1  0
 11 41  1  0
 12 42  1  1
 14 43  1  0
 15 44  1  0
 17 45  1  0
 18 46  1  0
 19 47  1  0
 21 48  1  0
 22 49  1  0
 24 50  1  0
 27 51  1  0
 28 52  1  0
M  END
>  <smiles>  (29) 
O=C(NCC(=O)N1CCCCC1c1ccc(O)cc1)c1ccc2cc(F)ccc2n1

>  <score_type>  (29) 
oracle

>  <origin>  (29) 
autodockgpu

>  <m_score__min__energy>  (29) 
-8.8599999999999994

>  <m_primary>  (29) 
energy

>  <rmsd>  (29) 
6.831686623892747

>  <m_score__min__rmsd>  (29) 
6.831686623892747

>  <meeko>  (29) 
{"free_energy": -7.54, "intermolecular_energy": -9.33, "internal_energy": -1.73, "cluster_size": 4, "cluster_id": 4, "rank_in_cluster": 4}

>  <energy>  (29) 
-7.83

>  <cluster_rmsd>  (29) 
1.48

>  <cluster>  (29) 
2

$$$$

     RDKit          3D

 52 55  0  0  0  0  0  0  0  0999 V2000
  141.3400   73.4550  221.1920 O   0  0  0  0  0  0  0  0  0  0  0  0
  140.3850   73.3750  222.0220 C   0  0  0  0  0  0  0  0  0  0  0  0
  139.6010   74.5700  222.1990 N   0  0  0  0  0  0  0  0  0  0  0  0
  139.9080   75.7660  221.4660 C   0  0  0  0  0  0  0  0  0  0  0  0
  139.2740   76.9710  222.0530 C   0  0  0  0  0  0  0  0  0  0  0  0
  138.0300   76.9250  222.3320 O   0  0  0  0  0  0  0  0  0  0  0  0
  139.9990   78.1660  222.3140 N   0  0  0  0  0  0  0  0  0  0  0  0
  139.2280   79.3060  222.7780 C   0  0  0  0  0  0  0  0  0  0  0  0
  140.0490   79.9990  223.8460 C   0  0  0  0  0  0  0  0  0  0  0  0
  141.2700   80.5270  223.1180 C   0  0  0  0  0  0  0  0  0  0  0  0
  142.1150   79.3670  222.7330 C   0  0  0  0  0  0  0  0  0  0  0  0
  141.4210   78.2060  222.1190 C   0  0  2  0  0  0  0  0  0  0  0  0
  141.8290   78.1670  220.6890 C   0  0  0  0  0  0  0  0  0  0  0  0
  142.4600   77.0430  220.1400 C   0  0  0  0  0  0  0  0  0  0  0  0
  142.8420   76.9970  218.8160 C   0  0  0  0  0  0  0  0  0  0  0  0
  142.6160   78.0640  217.9730 C   0  0  0  0  0  0  0  0  0  0  0  0
  143.0220   77.9650  216.6490 O   0  0  0  0  0  0  0  0  0  0  0  0
  141.9970   79.1840  218.4890 C   0  0  0  0  0  0  0  0  0  0  0  0
  141.6190   79.2160  219.8160 C   0  0  0  0  0  0  0  0  0  0  0  0
  140.0880   72.1690  222.7510 C   0  0  0  0  0  0  0  0  0  0  0  0
  139.3190   71.2030  222.1370 C   0  0  0  0  0  0  0  0  0  0  0  0
  139.0250   70.0390  222.8210 C   0  0  0  0  0  0  0  0  0  0  0  0
  139.5150   69.8770  224.1120 C   0  0  0  0  0  0  0  0  0  0  0  0
  139.2240   68.7030  224.8140 C   0  0  0  0  0  0  0  0  0  0  0  0
  139.7230   68.5510  226.1120 C   0  0  0  0  0  0  0  0  0  0  0  0
  139.4530   67.4140  226.8210 F   0  0  0  0  0  0  0  0  0  0  0  0
  140.4890   69.5450  226.6860 C   0  0  0  0  0  0  0  0  0  0  0  0
  140.7670   70.7080  225.9680 C   0  0  0  0  0  0  0  0  0  0  0  0
  140.2810   70.8810  224.6750 C   0  0  0  0  0  0  0  0  0  0  0  0
  140.5650   72.0150  224.0000 N   0  0  0  0  0  0  0  0  0  0  0  0
  138.8170   74.4790  222.8910 H   0  0  0  0  0  0  0  0  0  0  0  0
  140.9989   75.9075  221.4630 H   0  0  0  0  0  0  0  0  0  0  0  0
  139.5129   75.6437  220.4467 H   0  0  0  0  0  0  0  0  0  0  0  0
  139.0365   79.9962  221.9431 H   0  0  0  0  0  0  0  0  0  0  0  0
  138.2573   78.9820  223.1814 H   0  0  0  0  0  0  0  0  0  0  0  0
  139.4796   80.8253  224.2965 H   0  0  0  0  0  0  0  0  0  0  0  0
  140.3185   79.3190  224.6675 H   0  0  0  0  0  0  0  0  0  0  0  0
  140.9586   81.0767  222.2175 H   0  0  0  0  0  0  0  0  0  0  0  0
  141.8351   81.2112  223.7680 H   0  0  0  0  0  0  0  0  0  0  0  0
  142.8641   79.7260  222.0120 H   0  0  0  0  0  0  0  0  0  0  0  0
  142.5293   78.9870  223.6785 H   0  0  0  0  0  0  0  0  0  0  0  0
  141.7348   77.2887  222.6387 H   0  0  0  0  0  0  0  0  0  0  0  0
  142.6562   76.1727  220.7834 H   0  0  0  0  0  0  0  0  0  0  0  0
  143.3350   76.0943  218.4261 H   0  0  0  0  0  0  0  0  0  0  0  0
  143.6500   78.6600  216.2560 H   0  0  0  0  0  0  0  0  0  0  0  0
  141.8045   80.0525  217.8419 H   0  0  0  0  0  0  0  0  0  0  0  0
  141.1259   80.1224  220.1972 H   0  0  0  0  0  0  0  0  0  0  0  0
  138.9440   71.3573  221.1145 H   0  0  0  0  0  0  0  0  0  0  0  0
  138.4137   69.2539  222.3521 H   0  0  0  0  0  0  0  0  0  0  0  0
  138.6132   67.9126  224.3534 H   0  0  0  0  0  0  0  0  0  0  0  0
  140.8792   69.4205  227.7069 H   0  0  0  0  0  0  0  0  0  0  0  0
  141.3777   71.4982  226.4291 H   0  0  0  0  0  0  0  0  0  0  0  0
  1  2  2  0
  2  3  1  0
  3  4  1  0
  4  5  1  0
  5  6  2  0
  5  7  1  0
  7  8  1  0
  8  9  1  0
  9 10  1  0
 10 11  1  0
 11 12  1  0
 12 13  1  0
 13 14  2  0
 14 15  1  0
 15 16  2  0
 16 17  1  0
 16 18  1  0
 18 19  2  0
  2 20  1  0
 20 21  2  0
 21 22  1  0
 22 23  2  0
 23 24  1  0
 24 25  2  0
 25 26  1  0
 25 27  1  0
 27 28  2  0
 28 29  1  0
 29 30  2  0
 12  7  1  0
 19 13  1  0
 30 20  1  0
 29 23  1  0
  3 31  1  0
  4 32  1  0
  4 33  1  0
  8 34  1  0
  8 35  1  0
  9 36  1  0
  9 37  1  0
 10 38  1  0
 10 39  1  0
 11 40  1  0
 11 41  1  0
 12 42  1  1
 14 43  1  0
 15 44  1  0
 17 45  1  0
 18 46  1  0
 19 47  1  0
 21 48  1  0
 22 49  1  0
 24 50  1  0
 27 51  1  0
 28 52  1  0
M  END
>  <smiles>  (30) 
O=C(NCC(=O)N1CCCCC1c1ccc(O)cc1)c1ccc2cc(F)ccc2n1

>  <score_type>  (30) 
oracle

>  <origin>  (30) 
autodockgpu

>  <m_score__min__energy>  (30) 
-8.8599999999999994

>  <m_primary>  (30) 
energy

>  <rmsd>  (30) 
3.8937621691061306

>  <m_score__min__rmsd>  (30) 
3.8937621691061306

>  <meeko>  (30) 
{"free_energy": -8.47, "intermolecular_energy": -10.25, "internal_energy": -1.41, "cluster_size": 10, "cluster_id": 2, "rank_in_cluster": 9}

>  <energy>  (30) 
-8.74

>  <cluster_rmsd>  (30) 
0.0

>  <cluster>  (30) 
3

$$$$

     RDKit          3D

 52 55  0  0  0  0  0  0  0  0999 V2000
  138.4220   72.4420  222.2900 O   0  0  0  0  0  0  0  0  0  0  0  0
  139.5110   71.8500  222.5580 C   0  0  0  0  0  0  0  0  0  0  0  0
  140.5960   72.0790  221.6400 N   0  0  0  0  0  0  0  0  0  0  0  0
  140.4250   72.9310  220.4970 C   0  0  0  0  0  0  0  0  0  0  0  0
  140.6380   74.3630  220.8180 C   0  0  0  0  0  0  0  0  0  0  0  0
  140.1570   74.8150  221.9100 O   0  0  0  0  0  0  0  0  0  0  0  0
  141.3540   75.2410  219.9590 N   0  0  0  0  0  0  0  0  0  0  0  0
  140.6380   75.7430  218.8000 C   0  0  0  0  0  0  0  0  0  0  0  0
  141.0250   77.1980  218.6280 C   0  0  0  0  0  0  0  0  0  0  0  0
  142.5030   77.1710  218.2880 C   0  0  0  0  0  0  0  0  0  0  0  0
  143.2490   76.7580  219.5050 C   0  0  0  0  0  0  0  0  0  0  0  0
  142.7140   75.5930  220.2560 C   0  0  2  0  0  0  0  0  0  0  0  0
  143.6760   74.4760  220.0600 C   0  0  0  0  0  0  0  0  0  0  0  0
  144.6000   74.1230  221.0540 C   0  0  0  0  0  0  0  0  0  0  0  0
  145.4950   73.0890  220.8820 C   0  0  0  0  0  0  0  0  0  0  0  0
  145.5190   72.3550  219.7150 C   0  0  0  0  0  0  0  0  0  0  0  0
  146.4420   71.3250  219.5950 O   0  0  0  0  0  0  0  0  0  0  0  0
  144.6200   72.6820  218.7200 C   0  0  0  0  0  0  0  0  0  0  0  0
  143.7290   73.7200  218.9070 C   0  0  0  0  0  0  0  0  0  0  0  0
  139.6690   70.9980  223.7080 C   0  0  0  0  0  0  0  0  0  0  0  0
  139.2230   69.6950  223.6280 C   0  0  0  0  0  0  0  0  0  0  0  0
  139.3670   68.8640  224.7210 C   0  0  0  0  0  0  0  0  0  0  0  0
  139.9580   69.3670  225.8750 C   0  0  0  0  0  0  0  0  0  0  0  0
  140.1090   68.5340  226.9880 C   0  0  0  0  0  0  0  0  0  0  0  0
  140.7060   69.0520  228.1420 C   0  0  0  0  0  0  0  0  0  0  0  0
  140.8660   68.2590  229.2450 F   0  0  0  0  0  0  0  0  0  0  0  0
  141.1380   70.3620  228.1770 C   0  0  0  0  0  0  0  0  0  0  0  0
  140.9770   71.1750  227.0560 C   0  0  0  0  0  0  0  0  0  0  0  0
  140.3860   70.6820  225.8960 C   0  0  0  0  0  0  0  0  0  0  0  0
  140.2430   71.4880  224.8230 N   0  0  0  0  0  0  0  0  0  0  0  0
  141.4860   71.5790  221.8830 H   0  0  0  0  0  0  0  0  0  0  0  0
  141.1473   72.6319  219.7231 H   0  0  0  0  0  0  0  0  0  0  0  0
  139.3879   72.8177  220.1484 H   0  0  0  0  0  0  0  0  0  0  0  0
  140.9211   75.1696  217.9050 H   0  0  0  0  0  0  0  0  0  0  0  0
  139.5515   75.6424  218.9392 H   0  0  0  0  0  0  0  0  0  0  0  0
  140.4484   77.6580  217.8119 H   0  0  0  0  0  0  0  0  0  0  0  0
  140.8185   77.7910  219.5312 H   0  0  0  0  0  0  0  0  0  0  0  0
  142.6858   76.4514  217.4764 H   0  0  0  0  0  0  0  0  0  0  0  0
  142.8360   78.1654  217.9559 H   0  0  0  0  0  0  0  0  0  0  0  0
  144.2765   76.5127  219.1982 H   0  0  0  0  0  0  0  0  0  0  0  0
  143.1650   77.6093  220.1966 H   0  0  0  0  0  0  0  0  0  0  0  0
  142.6386   75.8605  221.3203 H   0  0  0  0  0  0  0  0  0  0  0  0
  144.6109   74.6875  221.9980 H   0  0  0  0  0  0  0  0  0  0  0  0
  146.2017   72.8453  221.6890 H   0  0  0  0  0  0  0  0  0  0  0  0
  147.0610   71.1050  220.3700 H   0  0  0  0  0  0  0  0  0  0  0  0
  144.6134   72.1152  217.7773 H   0  0  0  0  0  0  0  0  0  0  0  0
  143.0254   73.9564  218.0952 H   0  0  0  0  0  0  0  0  0  0  0  0
  138.7578   69.3223  222.7035 H   0  0  0  0  0  0  0  0  0  0  0  0
  139.0199   67.8210  224.6797 H   0  0  0  0  0  0  0  0  0  0  0  0
  139.7644   67.4898  226.9565 H   0  0  0  0  0  0  0  0  0  0  0  0
  141.6081   70.7637  229.0868 H   0  0  0  0  0  0  0  0  0  0  0  0
  141.3213   72.2192  227.0885 H   0  0  0  0  0  0  0  0  0  0  0  0
  1  2  2  0
  2  3  1  0
  3  4  1  0
  4  5  1  0
  5  6  2  0
  5  7  1  0
  7  8  1  0
  8  9  1  0
  9 10  1  0
 10 11  1  0
 11 12  1  0
 12 13  1  0
 13 14  2  0
 14 15  1  0
 15 16  2  0
 16 17  1  0
 16 18  1  0
 18 19  2  0
  2 20  1  0
 20 21  2  0
 21 22  1  0
 22 23  2  0
 23 24  1  0
 24 25  2  0
 25 26  1  0
 25 27  1  0
 27 28  2  0
 28 29  1  0
 29 30  2  0
 12  7  1  0
 19 13  1  0
 30 20  1  0
 29 23  1  0
  3 31  1  0
  4 32  1  0
  4 33  1  0
  8 34  1  0
  8 35  1  0
  9 36  1  0
  9 37  1  0
 10 38  1  0
 10 39  1  0
 11 40  1  0
 11 41  1  0
 12 42  1  1
 14 43  1  0
 15 44  1  0
 17 45  1  0
 18 46  1  0
 19 47  1  0
 21 48  1  0
 22 49  1  0
 24 50  1  0
 27 51  1  0
 28 52  1  0
M  END
>  <smiles>  (31) 
O=C(NCC(=O)N1CCCCC1c1ccc(O)cc1)c1ccc2cc(F)ccc2n1

>  <score_type>  (31) 
oracle

>  <origin>  (31) 
autodockgpu

>  <m_score__min__energy>  (31) 
-8.8599999999999994

>  <m_primary>  (31) 
energy

>  <rmsd>  (31) 
1.8875655056592917

>  <m_score__min__rmsd>  (31) 
1.8875655056592917

>  <meeko>  (31) 
{"free_energy": -7.87, "intermolecular_energy": -9.66, "internal_energy": -1.36, "cluster_size": 19, "cluster_id": 1, "rank_in_cluster": 17}

>  <energy>  (31) 
-8.72

>  <cluster_rmsd>  (31) 
1.73

>  <cluster>  (31) 
3

$$$$

     RDKit          3D

 52 55  0  0  0  0  0  0  0  0999 V2000
  141.2440   72.8320  221.5220 O   0  0  0  0  0  0  0  0  0  0  0  0
  140.2810   72.8280  222.3470 C   0  0  0  0  0  0  0  0  0  0  0  0
  139.3080   73.8780  222.1880 N   0  0  0  0  0  0  0  0  0  0  0  0
  139.4490   74.8580  221.1480 C   0  0  0  0  0  0  0  0  0  0  0  0
  140.4220   75.9220  221.4970 C   0  0  0  0  0  0  0  0  0  0  0  0
  140.4530   76.3400  222.7010 O   0  0  0  0  0  0  0  0  0  0  0  0
  141.3130   76.4860  220.5430 N   0  0  0  0  0  0  0  0  0  0  0  0
  142.4110   75.6440  220.1020 C   0  0  0  0  0  0  0  0  0  0  0  0
  142.5830   75.8720  218.6140 C   0  0  0  0  0  0  0  0  0  0  0  0
  143.0240   77.3180  218.4900 C   0  0  0  0  0  0  0  0  0  0  0  0
  141.8700   78.1850  218.8400 C   0  0  0  0  0  0  0  0  0  0  0  0
  141.1040   77.8220  220.0600 C   0  0  2  0  0  0  0  0  0  0  0  0
  141.3860   78.8730  221.0740 C   0  0  0  0  0  0  0  0  0  0  0  0
  140.8400   80.1600  220.9640 C   0  0  0  0  0  0  0  0  0  0  0  0
  141.0960   81.1400  221.8990 C   0  0  0  0  0  0  0  0  0  0  0  0
  141.9050   80.8930  222.9880 C   0  0  0  0  0  0  0  0  0  0  0  0
  142.1290   81.9170  223.8980 O   0  0  0  0  0  0  0  0  0  0  0  0
  142.4550   79.6340  223.1190 C   0  0  0  0  0  0  0  0  0  0  0  0
  142.1900   78.6620  222.1760 C   0  0  0  0  0  0  0  0  0  0  0  0
  140.1520   71.8380  223.3850 C   0  0  0  0  0  0  0  0  0  0  0  0
  139.4790   70.6690  223.0990 C   0  0  0  0  0  0  0  0  0  0  0  0
  139.3460   69.7080  224.0820 C   0  0  0  0  0  0  0  0  0  0  0  0
  139.8970   69.9500  225.3360 C   0  0  0  0  0  0  0  0  0  0  0  0
  139.7690   68.9850  226.3400 C   0  0  0  0  0  0  0  0  0  0  0  0
  140.3280   69.2390  227.5960 C   0  0  0  0  0  0  0  0  0  0  0  0
  140.2170   68.3130  228.5960 F   0  0  0  0  0  0  0  0  0  0  0  0
  140.9940   70.4240  227.8370 C   0  0  0  0  0  0  0  0  0  0  0  0
  141.1090   71.3730  226.8220 C   0  0  0  0  0  0  0  0  0  0  0  0
  140.5610   71.1410  225.5640 C   0  0  0  0  0  0  0  0  0  0  0  0
  140.6870   72.0750  224.5970 N   0  0  0  0  0  0  0  0  0  0  0  0
  138.5220   73.8520  222.8810 H   0  0  0  0  0  0  0  0  0  0  0  0
  139.7914   74.3537  220.2323 H   0  0  0  0  0  0  0  0  0  0  0  0
  138.4687   75.3360  221.0046 H   0  0  0  0  0  0  0  0  0  0  0  0
  143.3336   75.9188  220.6342 H   0  0  0  0  0  0  0  0  0  0  0  0
  142.1991   74.5853  220.3122 H   0  0  0  0  0  0  0  0  0  0  0  0
  143.3493   75.1971  218.2049 H   0  0  0  0  0  0  0  0  0  0  0  0
  141.6575   75.6715  218.0543 H   0  0  0  0  0  0  0  0  0  0  0  0
  143.8592   77.5133  219.1787 H   0  0  0  0  0  0  0  0  0  0  0  0
  143.3596   77.5270  217.4635 H   0  0  0  0  0  0  0  0  0  0  0  0
  142.2520   79.2071  218.9790 H   0  0  0  0  0  0  0  0  0  0  0  0
  141.1593   78.0669  218.0087 H   0  0  0  0  0  0  0  0  0  0  0  0
  140.0326   77.7961  219.8121 H   0  0  0  0  0  0  0  0  0  0  0  0
  140.1897   80.3939  220.1082 H   0  0  0  0  0  0  0  0  0  0  0  0
  140.6471   82.1364  221.7742 H   0  0  0  0  0  0  0  0  0  0  0  0
  142.0330   81.7420  224.8940 H   0  0  0  0  0  0  0  0  0  0  0  0
  143.1054   79.4051  223.9761 H   0  0  0  0  0  0  0  0  0  0  0  0
  142.6426   77.6683  222.3093 H   0  0  0  0  0  0  0  0  0  0  0  0
  139.0526   70.5036  222.0986 H   0  0  0  0  0  0  0  0  0  0  0  0
  138.8136   68.7676  223.8768 H   0  0  0  0  0  0  0  0  0  0  0  0
  139.2374   68.0420  226.1448 H   0  0  0  0  0  0  0  0  0  0  0  0
  141.4326   70.6189  228.8268 H   0  0  0  0  0  0  0  0  0  0  0  0
  141.6393   72.3166  227.0180 H   0  0  0  0  0  0  0  0  0  0  0  0
  1  2  2  0
  2  3  1  0
  3  4  1  0
  4  5  1  0
  5  6  2  0
  5  7  1  0
  7  8  1  0
  8  9  1  0
  9 10  1  0
 10 11  1  0
 11 12  1  0
 12 13  1  0
 13 14  2  0
 14 15  1  0
 15 16  2  0
 16 17  1  0
 16 18  1  0
 18 19  2  0
  2 20  1  0
 20 21  2  0
 21 22  1  0
 22 23  2  0
 23 24  1  0
 24 25  2  0
 25 26  1  0
 25 27  1  0
 27 28  2  0
 28 29  1  0
 29 30  2  0
 12  7  1  0
 19 13  1  0
 30 20  1  0
 29 23  1  0
  3 31  1  0
  4 32  1  0
  4 33  1  0
  8 34  1  0
  8 35  1  0
  9 36  1  0
  9 37  1  0
 10 38  1  0
 10 39  1  0
 11 40  1  0
 11 41  1  0
 12 42  1  6
 14 43  1  0
 15 44  1  0
 17 45  1  0
 18 46  1  0
 19 47  1  0
 21 48  1  0
 22 49  1  0
 24 50  1  0
 27 51  1  0
 28 52  1  0
M  END
>  <smiles>  (32) 
O=C(NCC(=O)N1CCCCC1c1ccc(O)cc1)c1ccc2cc(F)ccc2n1

>  <score_type>  (32) 
oracle

>  <origin>  (32) 
autodockgpu

>  <m_score__min__energy>  (32) 
-8.8599999999999994

>  <m_primary>  (32) 
energy

>  <rmsd>  (32) 
2.032226799137466

>  <m_score__min__rmsd>  (32) 
2.032226799137466

>  <meeko>  (32) 
{"free_energy": -8.23, "intermolecular_energy": -10.02, "internal_energy": -1.38, "cluster_size": 14, "cluster_id": 3, "rank_in_cluster": 9}

>  <energy>  (32) 
-8.68

>  <cluster_rmsd>  (32) 
1.77

>  <cluster>  (32) 
3

$$$$

     RDKit          3D

 52 55  0  0  0  0  0  0  0  0999 V2000
  140.2440   70.9410  221.1490 O   0  0  0  0  0  0  0  0  0  0  0  0
  139.9890   71.5130  222.2520 C   0  0  0  0  0  0  0  0  0  0  0  0
  139.8150   72.9410  222.1960 N   0  0  0  0  0  0  0  0  0  0  0  0
  139.9290   73.6480  220.9510 C   0  0  0  0  0  0  0  0  0  0  0  0
  140.5430   74.9880  221.1120 C   0  0  0  0  0  0  0  0  0  0  0  0
  140.5280   75.5240  222.2690 O   0  0  0  0  0  0  0  0  0  0  0  0
  141.1420   75.6890  220.0300 N   0  0  0  0  0  0  0  0  0  0  0  0
  140.2870   75.9840  218.8930 C   0  0  0  0  0  0  0  0  0  0  0  0
  140.6360   77.3800  218.4190 C   0  0  0  0  0  0  0  0  0  0  0  0
  142.0630   77.2750  217.9150 C   0  0  0  0  0  0  0  0  0  0  0  0
  142.9540   77.0770  219.0870 C   0  0  0  0  0  0  0  0  0  0  0  0
  142.5250   76.0720  220.0930 C   0  0  2  0  0  0  0  0  0  0  0  0
  143.4660   74.9260  219.9870 C   0  0  0  0  0  0  0  0  0  0  0  0
  143.0950   73.7300  219.3560 C   0  0  0  0  0  0  0  0  0  0  0  0
  143.9600   72.6630  219.2520 C   0  0  0  0  0  0  0  0  0  0  0  0
  145.2370   72.7280  219.7710 C   0  0  0  0  0  0  0  0  0  0  0  0
  146.0660   71.6220  219.6390 O   0  0  0  0  0  0  0  0  0  0  0  0
  145.6270   73.8930  220.3980 C   0  0  0  0  0  0  0  0  0  0  0  0
  144.7500   74.9550  220.4930 C   0  0  0  0  0  0  0  0  0  0  0  0
  139.8770   70.7920  223.4930 C   0  0  0  0  0  0  0  0  0  0  0  0
  139.2850   69.5460  223.4790 C   0  0  0  0  0  0  0  0  0  0  0  0
  139.1700   68.8400  224.6600 C   0  0  0  0  0  0  0  0  0  0  0  0
  139.6540   69.4090  225.8330 C   0  0  0  0  0  0  0  0  0  0  0  0
  139.5430   68.7030  227.0350 C   0  0  0  0  0  0  0  0  0  0  0  0
  140.0350   69.2850  228.2070 C   0  0  0  0  0  0  0  0  0  0  0  0
  139.9390   68.6180  229.3970 F   0  0  0  0  0  0  0  0  0  0  0  0
  140.6200   70.5350  228.1750 C   0  0  0  0  0  0  0  0  0  0  0  0
  140.7210   71.2210  226.9650 C   0  0  0  0  0  0  0  0  0  0  0  0
  140.2380   70.6610  225.7850 C   0  0  0  0  0  0  0  0  0  0  0  0
  140.3480   71.3450  224.6260 N   0  0  0  0  0  0  0  0  0  0  0  0
  139.6050   73.3910  223.1200 H   0  0  0  0  0  0  0  0  0  0  0  0
  140.5514   73.0552  220.2646 H   0  0  0  0  0  0  0  0  0  0  0  0
  138.9130   73.7918  220.5546 H   0  0  0  0  0  0  0  0  0  0  0  0
  140.4670   75.2567  218.0876 H   0  0  0  0  0  0  0  0  0  0  0  0
  139.2259   75.9222  219.1764 H   0  0  0  0  0  0  0  0  0  0  0  0
  139.9614   77.6937  217.6088 H   0  0  0  0  0  0  0  0  0  0  0  0
  140.5333   78.1272  219.2197 H   0  0  0  0  0  0  0  0  0  0  0  0
  142.1540   76.4199  217.2290 H   0  0  0  0  0  0  0  0  0  0  0  0
  142.3439   78.1904  217.3736 H   0  0  0  0  0  0  0  0  0  0  0  0
  143.9392   76.7682  218.7075 H   0  0  0  0  0  0  0  0  0  0  0  0
  142.9458   78.0391  219.6202 H   0  0  0  0  0  0  0  0  0  0  0  0
  142.5767   76.5274  221.0930 H   0  0  0  0  0  0  0  0  0  0  0  0
  142.0840   73.6413  218.9318 H   0  0  0  0  0  0  0  0  0  0  0  0
  143.6274   71.7441  218.7470 H   0  0  0  0  0  0  0  0  0  0  0  0
  145.9290   70.8110  220.2350 H   0  0  0  0  0  0  0  0  0  0  0  0
  146.6382   73.9760  220.8229 H   0  0  0  0  0  0  0  0  0  0  0  0
  145.0918   75.8708  220.9975 H   0  0  0  0  0  0  0  0  0  0  0  0
  138.9088   69.1197  222.5374 H   0  0  0  0  0  0  0  0  0  0  0  0
  138.7033   67.8440  224.6728 H   0  0  0  0  0  0  0  0  0  0  0  0
  139.0766   67.7070  227.0579 H   0  0  0  0  0  0  0  0  0  0  0  0
  141.0050   70.9882  229.1004 H   0  0  0  0  0  0  0  0  0  0  0  0
  141.1879   72.2167  226.9424 H   0  0  0  0  0  0  0  0  0  0  0  0
  1  2  2  0
  2  3  1  0
  3  4  1  0
  4  5  1  0
  5  6  2  0
  5  7  1  0
  7  8  1  0
  8  9  1  0
  9 10  1  0
 10 11  1  0
 11 12  1  0
 12 13  1  0
 13 14  2  0
 14 15  1  0
 15 16  2  0
 16 17  1  0
 16 18  1  0
 18 19  2  0
  2 20  1  0
 20 21  2  0
 21 22  1  0
 22 23  2  0
 23 24  1  0
 24 25  2  0
 25 26  1  0
 25 27  1  0
 27 28  2  0
 28 29  1  0
 29 30  2  0
 12  7  1  0
 19 13  1  0
 30 20  1  0
 29 23  1  0
  3 31  1  0
  4 32  1  0
  4 33  1  0
  8 34  1  0
  8 35  1  0
  9 36  1  0
  9 37  1  0
 10 38  1  0
 10 39  1  0
 11 40  1  0
 11 41  1  0
 12 42  1  1
 14 43  1  0
 15 44  1  0
 17 45  1  0
 18 46  1  0
 19 47  1  0
 21 48  1  0
 22 49  1  0
 24 50  1  0
 27 51  1  0
 28 52  1  0
M  END
>  <smiles>  (33) 
O=C(NCC(=O)N1CCCCC1c1ccc(O)cc1)c1ccc2cc(F)ccc2n1

>  <score_type>  (33) 
oracle

>  <origin>  (33) 
autodockgpu

>  <m_score__min__energy>  (33) 
-8.8599999999999994

>  <m_primary>  (33) 
energy

>  <rmsd>  (33) 
1.5484425248863767

>  <m_score__min__rmsd>  (33) 
1.5484425248863767

>  <meeko>  (33) 
{"free_energy": -8.33, "intermolecular_energy": -10.12, "internal_energy": -1.77, "cluster_size": 19, "cluster_id": 1, "rank_in_cluster": 10}

>  <energy>  (33) 
-8.61

>  <cluster_rmsd>  (33) 
0.24

>  <cluster>  (33) 
3

$$$$

     RDKit          3D

 52 55  0  0  0  0  0  0  0  0999 V2000
  138.7790   74.5170  221.4190 O   0  0  0  0  0  0  0  0  0  0  0  0
  139.9810   74.8640  221.6250 C   0  0  0  0  0  0  0  0  0  0  0  0
  140.1680   76.1480  222.2500 N   0  0  0  0  0  0  0  0  0  0  0  0
  139.0410   76.9630  222.6070 C   0  0  0  0  0  0  0  0  0  0  0  0
  139.1260   78.3310  222.0380 C   0  0  0  0  0  0  0  0  0  0  0  0
  138.1760   78.7320  221.2870 O   0  0  0  0  0  0  0  0  0  0  0  0
  140.2190   79.2010  222.2990 N   0  0  0  0  0  0  0  0  0  0  0  0
  139.8910   80.5260  222.7940 C   0  0  0  0  0  0  0  0  0  0  0  0
  140.9150   80.8750  223.8550 C   0  0  0  0  0  0  0  0  0  0  0  0
  142.2320   80.9690  223.1080 C   0  0  0  0  0  0  0  0  0  0  0  0
  142.6240   79.5990  222.6900 C   0  0  0  0  0  0  0  0  0  0  0  0
  141.5660   78.7570  222.0750 C   0  0  2  0  0  0  0  0  0  0  0  0
  141.9140   78.6090  220.6370 C   0  0  0  0  0  0  0  0  0  0  0  0
  142.3710   77.3890  220.1170 C   0  0  0  0  0  0  0  0  0  0  0  0
  142.6960   77.2430  218.7850 C   0  0  0  0  0  0  0  0  0  0  0  0
  142.5850   78.2980  217.9050 C   0  0  0  0  0  0  0  0  0  0  0  0
  142.9270   78.0940  216.5750 O   0  0  0  0  0  0  0  0  0  0  0  0
  142.1380   79.5090  218.3920 C   0  0  0  0  0  0  0  0  0  0  0  0
  141.8160   79.6420  219.7270 C   0  0  0  0  0  0  0  0  0  0  0  0
  141.1020   74.0360  221.2630 C   0  0  0  0  0  0  0  0  0  0  0  0
  140.8970   72.6800  221.1140 C   0  0  0  0  0  0  0  0  0  0  0  0
  141.9610   71.8710  220.7670 C   0  0  0  0  0  0  0  0  0  0  0  0
  143.2120   72.4490  220.5780 C   0  0  0  0  0  0  0  0  0  0  0  0
  144.2960   71.6400  220.2250 C   0  0  0  0  0  0  0  0  0  0  0  0
  145.5480   72.2330  220.0370 C   0  0  0  0  0  0  0  0  0  0  0  0
  146.6260   71.4650  219.6930 F   0  0  0  0  0  0  0  0  0  0  0  0
  145.7070   73.5950  220.1970 C   0  0  0  0  0  0  0  0  0  0  0  0
  144.6120   74.3840  220.5490 C   0  0  0  0  0  0  0  0  0  0  0  0
  143.3560   73.8150  220.7410 C   0  0  0  0  0  0  0  0  0  0  0  0
  142.3110   74.6000  221.0810 N   0  0  0  0  0  0  0  0  0  0  0  0
  141.1710   76.4130  222.4110 H   0  0  0  0  0  0  0  0  0  0  0  0
  138.1252   76.4818  222.2333 H   0  0  0  0  0  0  0  0  0  0  0  0
  139.0302   77.0569  223.7029 H   0  0  0  0  0  0  0  0  0  0  0  0
  139.9353   81.2566  221.9729 H   0  0  0  0  0  0  0  0  0  0  0  0
  138.8738   80.5455  223.2122 H   0  0  0  0  0  0  0  0  0  0  0  0
  140.6691   81.8367  224.3291 H   0  0  0  0  0  0  0  0  0  0  0  0
  140.9480   80.1276  224.6614 H   0  0  0  0  0  0  0  0  0  0  0  0
  142.1131   81.6096  222.2217 H   0  0  0  0  0  0  0  0  0  0  0  0
  143.0067   81.4064  223.7549 H   0  0  0  0  0  0  0  0  0  0  0  0
  143.4398   79.6951  221.9584 H   0  0  0  0  0  0  0  0  0  0  0  0
  142.8979   79.0817  223.6213 H   0  0  0  0  0  0  0  0  0  0  0  0
  141.5557   77.7777  222.5758 H   0  0  0  0  0  0  0  0  0  0  0  0
  142.4729   76.5251  220.7903 H   0  0  0  0  0  0  0  0  0  0  0  0
  143.0498   76.2681  218.4185 H   0  0  0  0  0  0  0  0  0  0  0  0
  143.6940   78.6170  216.1620 H   0  0  0  0  0  0  0  0  0  0  0  0
  142.0382   80.3700  217.7147 H   0  0  0  0  0  0  0  0  0  0  0  0
  141.4633   80.6208  220.0841 H   0  0  0  0  0  0  0  0  0  0  0  0
  139.8974   72.2481  221.2698 H   0  0  0  0  0  0  0  0  0  0  0  0
  141.8215   70.7871  220.6421 H   0  0  0  0  0  0  0  0  0  0  0  0
  144.1661   70.5552  220.0973 H   0  0  0  0  0  0  0  0  0  0  0  0
  146.6942   74.0565  220.0474 H   0  0  0  0  0  0  0  0  0  0  0  0
  144.7424   75.4688  220.6764 H   0  0  0  0  0  0  0  0  0  0  0  0
  1  2  2  0
  2  3  1  0
  3  4  1  0
  4  5  1  0
  5  6  2  0
  5  7  1  0
  7  8  1  0
  8  9  1  0
  9 10  1  0
 10 11  1  0
 11 12  1  0
 12 13  1  0
 13 14  2  0
 14 15  1  0
 15 16  2  0
 16 17  1  0
 16 18  1  0
 18 19  2  0
  2 20  1  0
 20 21  2  0
 21 22  1  0
 22 23  2  0
 23 24  1  0
 24 25  2  0
 25 26  1  0
 25 27  1  0
 27 28  2  0
 28 29  1  0
 29 30  2  0
 12  7  1  0
 19 13  1  0
 30 20  1  0
 29 23  1  0
  3 31  1  0
  4 32  1  0
  4 33  1  0
  8 34  1  0
  8 35  1  0
  9 36  1  0
  9 37  1  0
 10 38  1  0
 10 39  1  0
 11 40  1  0
 11 41  1  0
 12 42  1  1
 14 43  1  0
 15 44  1  0
 17 45  1  0
 18 46  1  0
 19 47  1  0
 21 48  1  0
 22 49  1  0
 24 50  1  0
 27 51  1  0
 28 52  1  0
M  END
>  <smiles>  (34) 
O=C(NCC(=O)N1CCCCC1c1ccc(O)cc1)c1ccc2cc(F)ccc2n1

>  <score_type>  (34) 
oracle

>  <origin>  (34) 
autodockgpu

>  <m_score__min__energy>  (34) 
-8.8599999999999994

>  <m_primary>  (34) 
energy

>  <rmsd>  (34) 
6.480995989108504

>  <m_score__min__rmsd>  (34) 
6.480995989108504

>  <meeko>  (34) 
{"free_energy": -7.18, "intermolecular_energy": -8.97, "internal_energy": -2.16, "cluster_size": 1, "cluster_id": 6, "rank_in_cluster": 1}

>  <energy>  (34) 
-8.46

>  <cluster_rmsd>  (34) 
0.8

>  <cluster>  (34) 
3

$$$$

     RDKit          3D

 52 55  0  0  0  0  0  0  0  0999 V2000
  138.2280   70.8510  221.7650 O   0  0  0  0  0  0  0  0  0  0  0  0
  138.8710   71.2970  222.7620 C   0  0  0  0  0  0  0  0  0  0  0  0
  139.2710   72.6790  222.6880 N   0  0  0  0  0  0  0  0  0  0  0  0
  138.9460   73.4770  221.5400 C   0  0  0  0  0  0  0  0  0  0  0  0
  139.4540   74.8660  221.6520 C   0  0  0  0  0  0  0  0  0  0  0  0
  140.6500   75.0420  222.0580 O   0  0  0  0  0  0  0  0  0  0  0  0
  138.6590   75.9990  221.3240 N   0  0  0  0  0  0  0  0  0  0  0  0
  137.9940   75.9750  220.0330 C   0  0  0  0  0  0  0  0  0  0  0  0
  136.6120   76.5640  220.2290 C   0  0  0  0  0  0  0  0  0  0  0  0
  136.8560   78.0140  220.6010 C   0  0  0  0  0  0  0  0  0  0  0  0
  137.4410   78.0480  221.9660 C   0  0  0  0  0  0  0  0  0  0  0  0
  138.5420   77.0920  222.2480 C   0  0  2  0  0  0  0  0  0  0  0  0
  139.7870   77.8950  222.3830 C   0  0  0  0  0  0  0  0  0  0  0  0
  140.7800   77.8760  221.3940 C   0  0  0  0  0  0  0  0  0  0  0  0
  141.9370   78.6160  221.5110 C   0  0  0  0  0  0  0  0  0  0  0  0
  142.1660   79.4100  222.6150 C   0  0  0  0  0  0  0  0  0  0  0  0
  143.3490   80.1340  222.6810 O   0  0  0  0  0  0  0  0  0  0  0  0
  141.2040   79.4460  223.6030 C   0  0  0  0  0  0  0  0  0  0  0  0
  140.0500   78.7000  223.4730 C   0  0  0  0  0  0  0  0  0  0  0  0
  139.1900   70.4840  223.9080 C   0  0  0  0  0  0  0  0  0  0  0  0
  138.8690   69.1440  223.8720 C   0  0  0  0  0  0  0  0  0  0  0  0
  139.1680   68.3490  224.9620 C   0  0  0  0  0  0  0  0  0  0  0  0
  139.7850   68.9270  226.0660 C   0  0  0  0  0  0  0  0  0  0  0  0
  140.0920   68.1320  227.1740 C   0  0  0  0  0  0  0  0  0  0  0  0
  140.7140   68.7250  228.2780 C   0  0  0  0  0  0  0  0  0  0  0  0
  141.0250   67.9710  229.3750 F   0  0  0  0  0  0  0  0  0  0  0  0
  141.0170   70.0710  228.2690 C   0  0  0  0  0  0  0  0  0  0  0  0
  140.7010   70.8460  227.1530 C   0  0  0  0  0  0  0  0  0  0  0  0
  140.0830   70.2770  226.0430 C   0  0  0  0  0  0  0  0  0  0  0  0
  139.7880   71.0470  224.9740 N   0  0  0  0  0  0  0  0  0  0  0  0
  139.8010   73.0240  223.5250 H   0  0  0  0  0  0  0  0  0  0  0  0
  139.3898   73.0098  220.6485 H   0  0  0  0  0  0  0  0  0  0  0  0
  137.8496   73.5268  221.4669 H   0  0  0  0  0  0  0  0  0  0  0  0
  138.5602   76.5762  219.3064 H   0  0  0  0  0  0  0  0  0  0  0  0
  137.9288   74.9471  219.6468 H   0  0  0  0  0  0  0  0  0  0  0  0
  136.0267   76.4958  219.3001 H   0  0  0  0  0  0  0  0  0  0  0  0
  136.0390   76.0289  221.0006 H   0  0  0  0  0  0  0  0  0  0  0  0
  137.5548   78.4703  219.8844 H   0  0  0  0  0  0  0  0  0  0  0  0
  135.9118   78.5777  220.5769 H   0  0  0  0  0  0  0  0  0  0  0  0
  137.8301   79.0628  222.1359 H   0  0  0  0  0  0  0  0  0  0  0  0
  136.6222   77.7491  222.6370 H   0  0  0  0  0  0  0  0  0  0  0  0
  138.3188   76.5595  223.1843 H   0  0  0  0  0  0  0  0  0  0  0  0
  140.6319   77.2532  220.4995 H   0  0  0  0  0  0  0  0  0  0  0  0
  142.6902   78.5725  220.7105 H   0  0  0  0  0  0  0  0  0  0  0  0
  144.1720   79.8080  222.1820 H   0  0  0  0  0  0  0  0  0  0  0  0
  141.3568   80.0702  224.4958 H   0  0  0  0  0  0  0  0  0  0  0  0
  139.3024   78.7495  224.2784 H   0  0  0  0  0  0  0  0  0  0  0  0
  138.3805   68.7125  222.9859 H   0  0  0  0  0  0  0  0  0  0  0  0
  138.9220   67.2769  224.9564 H   0  0  0  0  0  0  0  0  0  0  0  0
  139.8488   67.0592  227.1778 H   0  0  0  0  0  0  0  0  0  0  0  0
  141.5065   70.5318  229.1396 H   0  0  0  0  0  0  0  0  0  0  0  0
  140.9430   71.9191  227.1501 H   0  0  0  0  0  0  0  0  0  0  0  0
  1  2  2  0
  2  3  1  0
  3  4  1  0
  4  5  1  0
  5  6  2  0
  5  7  1  0
  7  8  1  0
  8  9  1  0
  9 10  1  0
 10 11  1  0
 11 12  1  0
 12 13  1  0
 13 14  2  0
 14 15  1  0
 15 16  2  0
 16 17  1  0
 16 18  1  0
 18 19  2  0
  2 20  1  0
 20 21  2  0
 21 22  1  0
 22 23  2  0
 23 24  1  0
 24 25  2  0
 25 26  1  0
 25 27  1  0
 27 28  2  0
 28 29  1  0
 29 30  2  0
 12  7  1  0
 19 13  1  0
 30 20  1  0
 29 23  1  0
  3 31  1  0
  4 32  1  0
  4 33  1  0
  8 34  1  0
  8 35  1  0
  9 36  1  0
  9 37  1  0
 10 38  1  0
 10 39  1  0
 11 40  1  0
 11 41  1  0
 12 42  1  1
 14 43  1  0
 15 44  1  0
 17 45  1  0
 18 46  1  0
 19 47  1  0
 21 48  1  0
 22 49  1  0
 24 50  1  0
 27 51  1  0
 28 52  1  0
M  END
>  <smiles>  (35) 
O=C(NCC(=O)N1CCCCC1c1ccc(O)cc1)c1ccc2cc(F)ccc2n1

>  <score_type>  (35) 
oracle

>  <origin>  (35) 
autodockgpu

>  <m_score__min__energy>  (35) 
-8.8599999999999994

>  <m_primary>  (35) 
energy

>  <rmsd>  (35) 
2.552459103685734

>  <m_score__min__rmsd>  (35) 
2.552459103685734

>  <meeko>  (35) 
{"free_energy": -8.13, "intermolecular_energy": -9.92, "internal_energy": -1.65, "cluster_size": 14, "cluster_id": 3, "rank_in_cluster": 11}

>  <energy>  (35) 
-8.36

>  <cluster_rmsd>  (35) 
1.76

>  <cluster>  (35) 
3

$$$$

     RDKit          3D

 52 55  0  0  0  0  0  0  0  0999 V2000
  138.4820   70.8350  221.6870 O   0  0  0  0  0  0  0  0  0  0  0  0
  139.0350   71.2750  222.7400 C   0  0  0  0  0  0  0  0  0  0  0  0
  139.3810   72.6730  222.7340 N   0  0  0  0  0  0  0  0  0  0  0  0
  139.1020   73.4950  221.5900 C   0  0  0  0  0  0  0  0  0  0  0  0
  139.5380   74.9000  221.7790 C   0  0  0  0  0  0  0  0  0  0  0  0
  140.6660   75.1120  222.3350 O   0  0  0  0  0  0  0  0  0  0  0  0
  138.7490   76.0070  221.3640 N   0  0  0  0  0  0  0  0  0  0  0  0
  138.1500   75.9210  220.0440 C   0  0  0  0  0  0  0  0  0  0  0  0
  136.7540   76.4990  220.1450 C   0  0  0  0  0  0  0  0  0  0  0  0
  136.9630   77.9660  220.4670 C   0  0  0  0  0  0  0  0  0  0  0  0
  137.4770   78.0650  221.8570 C   0  0  0  0  0  0  0  0  0  0  0  0
  138.5720   77.1360  222.2340 C   0  0  2  0  0  0  0  0  0  0  0  0
  139.8000   77.9600  222.3980 C   0  0  0  0  0  0  0  0  0  0  0  0
  140.8330   77.9300  221.4510 C   0  0  0  0  0  0  0  0  0  0  0  0
  141.9740   78.6890  221.5940 C   0  0  0  0  0  0  0  0  0  0  0  0
  142.1470   79.5150  222.6850 C   0  0  0  0  0  0  0  0  0  0  0  0
  143.3170   80.2570  222.7790 O   0  0  0  0  0  0  0  0  0  0  0  0
  141.1460   79.5620  223.6330 C   0  0  0  0  0  0  0  0  0  0  0  0
  140.0080   78.7970  223.4760 C   0  0  0  0  0  0  0  0  0  0  0  0
  139.3090   70.4400  223.8800 C   0  0  0  0  0  0  0  0  0  0  0  0
  138.9350   69.1130  223.8280 C   0  0  0  0  0  0  0  0  0  0  0  0
  139.1900   68.2970  224.9130 C   0  0  0  0  0  0  0  0  0  0  0  0
  139.8170   68.8390  226.0290 C   0  0  0  0  0  0  0  0  0  0  0  0
  140.0800   68.0230  227.1330 C   0  0  0  0  0  0  0  0  0  0  0  0
  140.7110   68.5800  228.2500 C   0  0  0  0  0  0  0  0  0  0  0  0
  140.9800   67.8040  229.3430 F   0  0  0  0  0  0  0  0  0  0  0  0
  141.0670   69.9130  228.2580 C   0  0  0  0  0  0  0  0  0  0  0  0
  140.7950   70.7100  227.1460 C   0  0  0  0  0  0  0  0  0  0  0  0
  140.1680   70.1770  226.0230 C   0  0  0  0  0  0  0  0  0  0  0  0
  139.9160   70.9680  224.9590 N   0  0  0  0  0  0  0  0  0  0  0  0
  139.8370   73.0130  223.6160 H   0  0  0  0  0  0  0  0  0  0  0  0
  139.6276   73.0769  220.7188 H   0  0  0  0  0  0  0  0  0  0  0  0
  138.0122   73.5009  221.4410 H   0  0  0  0  0  0  0  0  0  0  0  0
  138.7455   76.4989  219.3219 H   0  0  0  0  0  0  0  0  0  0  0  0
  138.1155   74.8771  219.6991 H   0  0  0  0  0  0  0  0  0  0  0  0
  136.2175   76.3844  219.1916 H   0  0  0  0  0  0  0  0  0  0  0  0
  136.1483   75.9891  220.9086 H   0  0  0  0  0  0  0  0  0  0  0  0
  137.6925   78.4009  219.7679 H   0  0  0  0  0  0  0  0  0  0  0  0
  136.0151   78.5158  220.3713 H   0  0  0  0  0  0  0  0  0  0  0  0
  137.8461   79.0909  222.0029 H   0  0  0  0  0  0  0  0  0  0  0  0
  136.6283   77.7845  222.4982 H   0  0  0  0  0  0  0  0  0  0  0  0
  138.3059   76.6399  223.1790 H   0  0  0  0  0  0  0  0  0  0  0  0
  140.7297   77.2818  220.5683 H   0  0  0  0  0  0  0  0  0  0  0  0
  142.7595   78.6354  220.8258 H   0  0  0  0  0  0  0  0  0  0  0  0
  144.0800   80.0880  222.1300 H   0  0  0  0  0  0  0  0  0  0  0  0
  141.2549   80.2100  224.5152 H   0  0  0  0  0  0  0  0  0  0  0  0
  139.2274   78.8572  224.2487 H   0  0  0  0  0  0  0  0  0  0  0  0
  138.4394   68.7094  222.9327 H   0  0  0  0  0  0  0  0  0  0  0  0
  138.9016   67.2356  224.8942 H   0  0  0  0  0  0  0  0  0  0  0  0
  139.7954   66.9605  227.1234 H   0  0  0  0  0  0  0  0  0  0  0  0
  141.5639   70.3460  229.1387 H   0  0  0  0  0  0  0  0  0  0  0  0
  141.0793   71.7726  227.1565 H   0  0  0  0  0  0  0  0  0  0  0  0
  1  2  2  0
  2  3  1  0
  3  4  1  0
  4  5  1  0
  5  6  2  0
  5  7  1  0
  7  8  1  0
  8  9  1  0
  9 10  1  0
 10 11  1  0
 11 12  1  0
 12 13  1  0
 13 14  2  0
 14 15  1  0
 15 16  2  0
 16 17  1  0
 16 18  1  0
 18 19  2  0
  2 20  1  0
 20 21  2  0
 21 22  1  0
 22 23  2  0
 23 24  1  0
 24 25  2  0
 25 26  1  0
 25 27  1  0
 27 28  2  0
 28 29  1  0
 29 30  2  0
 12  7  1  0
 19 13  1  0
 30 20  1  0
 29 23  1  0
  3 31  1  0
  4 32  1  0
  4 33  1  0
  8 34  1  0
  8 35  1  0
  9 36  1  0
  9 37  1  0
 10 38  1  0
 10 39  1  0
 11 40  1  0
 11 41  1  0
 12 42  1  1
 14 43  1  0
 15 44  1  0
 17 45  1  0
 18 46  1  0
 19 47  1  0
 21 48  1  0
 22 49  1  0
 24 50  1  0
 27 51  1  0
 28 52  1  0
M  END
>  <smiles>  (36) 
O=C(NCC(=O)N1CCCCC1c1ccc(O)cc1)c1ccc2cc(F)ccc2n1

>  <score_type>  (36) 
oracle

>  <origin>  (36) 
autodockgpu

>  <m_score__min__energy>  (36) 
-8.8599999999999994

>  <m_primary>  (36) 
energy

>  <rmsd>  (36) 
2.5098660269386524

>  <m_score__min__rmsd>  (36) 
2.5098660269386524

>  <meeko>  (36) 
{"free_energy": -8.09, "intermolecular_energy": -9.88, "internal_energy": -1.67, "cluster_size": 14, "cluster_id": 3, "rank_in_cluster": 12}

>  <energy>  (36) 
-8.31

>  <cluster_rmsd>  (36) 
0.52

>  <cluster>  (36) 
3

$$$$

     RDKit          3D

 52 55  0  0  0  0  0  0  0  0999 V2000
  140.4490   77.3280  218.2160 O   0  0  0  0  0  0  0  0  0  0  0  0
  141.6420   77.3120  218.6460 C   0  0  0  0  0  0  0  0  0  0  0  0
  142.1940   78.5880  219.0230 N   0  0  0  0  0  0  0  0  0  0  0  0
  141.4160   79.7890  218.9060 C   0  0  0  0  0  0  0  0  0  0  0  0
  140.5340   80.0110  220.0770 C   0  0  0  0  0  0  0  0  0  0  0  0
  139.2970   80.2380  219.8670 O   0  0  0  0  0  0  0  0  0  0  0  0
  141.0160   79.9780  221.4140 N   0  0  0  0  0  0  0  0  0  0  0  0
  142.3500   80.5070  221.6370 C   0  0  0  0  0  0  0  0  0  0  0  0
  142.3160   81.2790  222.9400 C   0  0  0  0  0  0  0  0  0  0  0  0
  142.0440   80.2340  224.0050 C   0  0  0  0  0  0  0  0  0  0  0  0
  140.6440   79.7660  223.8460 C   0  0  0  0  0  0  0  0  0  0  0  0
  140.1960   79.4460  222.4660 C   0  0  2  0  0  0  0  0  0  0  0  0
  140.0250   77.9700  222.4000 C   0  0  0  0  0  0  0  0  0  0  0  0
  138.8010   77.3610  222.7090 C   0  0  0  0  0  0  0  0  0  0  0  0
  138.6320   75.9950  222.6510 C   0  0  0  0  0  0  0  0  0  0  0  0
  139.6710   75.1650  222.2830 C   0  0  0  0  0  0  0  0  0  0  0  0
  139.4460   73.7950  222.2420 O   0  0  0  0  0  0  0  0  0  0  0  0
  140.8860   75.7390  221.9750 C   0  0  0  0  0  0  0  0  0  0  0  0
  141.0410   77.1090  222.0370 C   0  0  0  0  0  0  0  0  0  0  0  0
  142.4110   76.0990  218.7580 C   0  0  0  0  0  0  0  0  0  0  0  0
  142.0760   75.0320  217.9510 C   0  0  0  0  0  0  0  0  0  0  0  0
  142.8030   73.8610  218.0450 C   0  0  0  0  0  0  0  0  0  0  0  0
  143.8530   73.7930  218.9530 C   0  0  0  0  0  0  0  0  0  0  0  0
  144.5960   72.6140  219.0570 C   0  0  0  0  0  0  0  0  0  0  0  0
  145.6510   72.5580  219.9730 C   0  0  0  0  0  0  0  0  0  0  0  0
  146.3930   71.4160  220.0950 F   0  0  0  0  0  0  0  0  0  0  0  0
  145.9500   73.6510  220.7600 C   0  0  0  0  0  0  0  0  0  0  0  0
  145.1960   74.8180  220.6420 C   0  0  0  0  0  0  0  0  0  0  0  0
  144.1420   74.8970  219.7350 C   0  0  0  0  0  0  0  0  0  0  0  0
  143.4270   76.0380  219.6380 N   0  0  0  0  0  0  0  0  0  0  0  0
  143.1820   78.5480  219.3750 H   0  0  0  0  0  0  0  0  0  0  0  0
  142.1006   80.6450  218.8128 H   0  0  0  0  0  0  0  0  0  0  0  0
  140.7738   79.6859  218.0189 H   0  0  0  0  0  0  0  0  0  0  0  0
  143.0751   79.6828  221.7065 H   0  0  0  0  0  0  0  0  0  0  0  0
  142.6544   81.1595  220.8054 H   0  0  0  0  0  0  0  0  0  0  0  0
  143.2810   81.7747  223.1216 H   0  0  0  0  0  0  0  0  0  0  0  0
  141.5529   82.0712  222.9324 H   0  0  0  0  0  0  0  0  0  0  0  0
  142.7361   79.3878  223.8823 H   0  0  0  0  0  0  0  0  0  0  0  0
  142.1903   80.6642  225.0068 H   0  0  0  0  0  0  0  0  0  0  0  0
  140.5265   78.8563  224.4531 H   0  0  0  0  0  0  0  0  0  0  0  0
  140.0197   80.6151  224.1610 H   0  0  0  0  0  0  0  0  0  0  0  0
  139.2415   79.9582  222.2747 H   0  0  0  0  0  0  0  0  0  0  0  0
  137.9506   77.9921  223.0065 H   0  0  0  0  0  0  0  0  0  0  0  0
  137.6537   75.5593  222.9019 H   0  0  0  0  0  0  0  0  0  0  0  0
  138.8330   73.3600  222.9260 H   0  0  0  0  0  0  0  0  0  0  0  0
  141.7338   75.1036  221.6792 H   0  0  0  0  0  0  0  0  0  0  0  0
  142.0229   77.5359  221.7846 H   0  0  0  0  0  0  0  0  0  0  0  0
  141.2398   75.1124  217.2409 H   0  0  0  0  0  0  0  0  0  0  0  0
  142.5549   72.9966  217.4116 H   0  0  0  0  0  0  0  0  0  0  0  0
  144.3548   71.7441  218.4285 H   0  0  0  0  0  0  0  0  0  0  0  0
  146.7812   73.6020  221.4788 H   0  0  0  0  0  0  0  0  0  0  0  0
  145.4365   75.6865  221.2727 H   0  0  0  0  0  0  0  0  0  0  0  0
  1  2  2  0
  2  3  1  0
  3  4  1  0
  4  5  1  0
  5  6  2  0
  5  7  1  0
  7  8  1  0
  8  9  1  0
  9 10  1  0
 10 11  1  0
 11 12  1  0
 12 13  1  0
 13 14  2  0
 14 15  1  0
 15 16  2  0
 16 17  1  0
 16 18  1  0
 18 19  2  0
  2 20  1  0
 20 21  2  0
 21 22  1  0
 22 23  2  0
 23 24  1  0
 24 25  2  0
 25 26  1  0
 25 27  1  0
 27 28  2  0
 28 29  1  0
 29 30  2  0
 12  7  1  0
 19 13  1  0
 30 20  1  0
 29 23  1  0
  3 31  1  0
  4 32  1  0
  4 33  1  0
  8 34  1  0
  8 35  1  0
  9 36  1  0
  9 37  1  0
 10 38  1  0
 10 39  1  0
 11 40  1  0
 11 41  1  0
 12 42  1  6
 14 43  1  0
 15 44  1  0
 17 45  1  0
 18 46  1  0
 19 47  1  0
 21 48  1  0
 22 49  1  0
 24 50  1  0
 27 51  1  0
 28 52  1  0
M  END
>  <smiles>  (37) 
O=C(NCC(=O)N1CCCCC1c1ccc(O)cc1)c1ccc2cc(F)ccc2n1

>  <score_type>  (37) 
oracle

>  <origin>  (37) 
autodockgpu

>  <m_score__min__energy>  (37) 
-8.8599999999999994

>  <m_primary>  (37) 
energy

>  <rmsd>  (37) 
7.874020348735263

>  <m_score__min__rmsd>  (37) 
7.874020348735263

>  <meeko>  (37) 
{"free_energy": -7.0, "intermolecular_energy": -8.79, "internal_energy": -2.44, "cluster_size": 2, "cluster_id": 5, "rank_in_cluster": 2}

>  <energy>  (37) 
-8.27

>  <cluster_rmsd>  (37) 
0.37

>  <cluster>  (37) 
3

$$$$

     RDKit          3D

 52 55  0  0  0  0  0  0  0  0999 V2000
  141.0010   72.5020  221.9090 O   0  0  0  0  0  0  0  0  0  0  0  0
  140.0050   72.3110  222.6700 C   0  0  0  0  0  0  0  0  0  0  0  0
  138.8340   73.1010  222.3890 N   0  0  0  0  0  0  0  0  0  0  0  0
  138.8260   74.0420  221.3040 C   0  0  0  0  0  0  0  0  0  0  0  0
  139.3760   75.3640  221.6930 C   0  0  0  0  0  0  0  0  0  0  0  0
  140.5630   75.4110  222.1580 O   0  0  0  0  0  0  0  0  0  0  0  0
  138.6320   76.5680  221.5680 N   0  0  0  0  0  0  0  0  0  0  0  0
  137.8380   76.7190  220.3600 C   0  0  0  0  0  0  0  0  0  0  0  0
  136.5270   77.3620  220.7620 C   0  0  0  0  0  0  0  0  0  0  0  0
  136.9060   78.7490  221.2470 C   0  0  0  0  0  0  0  0  0  0  0  0
  137.6280   78.6050  222.5370 C   0  0  0  0  0  0  0  0  0  0  0  0
  138.6840   77.5620  222.6030 C   0  0  2  0  0  0  0  0  0  0  0  0
  139.9880   78.2730  222.6810 C   0  0  0  0  0  0  0  0  0  0  0  0
  140.9130   78.2210  221.6300 C   0  0  0  0  0  0  0  0  0  0  0  0
  142.1240   78.8770  221.6940 C   0  0  0  0  0  0  0  0  0  0  0  0
  142.4770   79.6150  222.8040 C   0  0  0  0  0  0  0  0  0  0  0  0
  143.7100   80.2530  222.8150 O   0  0  0  0  0  0  0  0  0  0  0  0
  141.5840   79.6810  223.8530 C   0  0  0  0  0  0  0  0  0  0  0  0
  140.3750   79.0200  223.7760 C   0  0  0  0  0  0  0  0  0  0  0  0
  140.0270   71.3630  223.7550 C   0  0  0  0  0  0  0  0  0  0  0  0
  139.5380   70.0940  223.5270 C   0  0  0  0  0  0  0  0  0  0  0  0
  139.5520   69.1710  224.5560 C   0  0  0  0  0  0  0  0  0  0  0  0
  140.0580   69.5530  225.7940 C   0  0  0  0  0  0  0  0  0  0  0  0
  140.0780   68.6280  226.8420 C   0  0  0  0  0  0  0  0  0  0  0  0
  140.5900   69.0240  228.0820 C   0  0  0  0  0  0  0  0  0  0  0  0
  140.6200   68.1390  229.1240 F   0  0  0  0  0  0  0  0  0  0  0  0
  141.0680   70.3050  228.2630 C   0  0  0  0  0  0  0  0  0  0  0  0
  141.0400   71.2120  227.2040 C   0  0  0  0  0  0  0  0  0  0  0  0
  140.5340   70.8410  225.9610 C   0  0  0  0  0  0  0  0  0  0  0  0
  140.5180   71.7360  224.9510 N   0  0  0  0  0  0  0  0  0  0  0  0
  138.0240   72.9250  223.0310 H   0  0  0  0  0  0  0  0  0  0  0  0
  139.4325   73.6362  220.4809 H   0  0  0  0  0  0  0  0  0  0  0  0
  137.7795   74.1922  221.0001 H   0  0  0  0  0  0  0  0  0  0  0  0
  138.3667   77.3602  219.6394 H   0  0  0  0  0  0  0  0  0  0  0  0
  137.6638   75.7431  219.8832 H   0  0  0  0  0  0  0  0  0  0  0  0
  135.8467   77.4258  219.9000 H   0  0  0  0  0  0  0  0  0  0  0  0
  136.0007   76.7822  221.5346 H   0  0  0  0  0  0  0  0  0  0  0  0
  137.5575   79.2375  220.5075 H   0  0  0  0  0  0  0  0  0  0  0  0
  136.0049   79.3654  221.3812 H   0  0  0  0  0  0  0  0  0  0  0  0
  138.1013   79.5720  222.7628 H   0  0  0  0  0  0  0  0  0  0  0  0
  136.8631   78.2850  223.2598 H   0  0  0  0  0  0  0  0  0  0  0  0
  138.5206   76.9476  223.5006 H   0  0  0  0  0  0  0  0  0  0  0  0
  140.6662   77.6407  220.7287 H   0  0  0  0  0  0  0  0  0  0  0  0
  142.8204   78.8105  220.8451 H   0  0  0  0  0  0  0  0  0  0  0  0
  144.5020   79.8370  222.3340 H   0  0  0  0  0  0  0  0  0  0  0  0
  141.8359   80.2616  224.7527 H   0  0  0  0  0  0  0  0  0  0  0  0
  139.6850   79.0918  224.6297 H   0  0  0  0  0  0  0  0  0  0  0  0
  139.1416   69.8195  222.5383 H   0  0  0  0  0  0  0  0  0  0  0  0
  139.1695   68.1518  224.3984 H   0  0  0  0  0  0  0  0  0  0  0  0
  139.6977   67.6065  226.6940 H   0  0  0  0  0  0  0  0  0  0  0  0
  141.4703   70.6105  229.2402 H   0  0  0  0  0  0  0  0  0  0  0  0
  141.4222   72.2327  227.3525 H   0  0  0  0  0  0  0  0  0  0  0  0
  1  2  2  0
  2  3  1  0
  3  4  1  0
  4  5  1  0
  5  6  2  0
  5  7  1  0
  7  8  1  0
  8  9  1  0
  9 10  1  0
 10 11  1  0
 11 12  1  0
 12 13  1  0
 13 14  2  0
 14 15  1  0
 15 16  2  0
 16 17  1  0
 16 18  1  0
 18 19  2  0
  2 20  1  0
 20 21  2  0
 21 22  1  0
 22 23  2  0
 23 24  1  0
 24 25  2  0
 25 26  1  0
 25 27  1  0
 27 28  2  0
 28 29  1  0
 29 30  2  0
 12  7  1  0
 19 13  1  0
 30 20  1  0
 29 23  1  0
  3 31  1  0
  4 32  1  0
  4 33  1  0
  8 34  1  0
  8 35  1  0
  9 36  1  0
  9 37  1  0
 10 38  1  0
 10 39  1  0
 11 40  1  0
 11 41  1  0
 12 42  1  1
 14 43  1  0
 15 44  1  0
 17 45  1  0
 18 46  1  0
 19 47  1  0
 21 48  1  0
 22 49  1  0
 24 50  1  0
 27 51  1  0
 28 52  1  0
M  END
>  <smiles>  (38) 
O=C(NCC(=O)N1CCCCC1c1ccc(O)cc1)c1ccc2cc(F)ccc2n1

>  <score_type>  (38) 
oracle

>  <origin>  (38) 
autodockgpu

>  <m_score__min__energy>  (38) 
-8.8599999999999994

>  <m_primary>  (38) 
energy

>  <rmsd>  (38) 
2.853071709244859

>  <m_score__min__rmsd>  (38) 
2.853071709244859

>  <meeko>  (38) 
{"free_energy": -8.68, "intermolecular_energy": -10.47, "internal_energy": -1.18, "cluster_size": 14, "cluster_id": 3, "rank_in_cluster": 3}

>  <energy>  (38) 
-8.23

>  <cluster_rmsd>  (38) 
0.77

>  <cluster>  (38) 
3

$$$$

     RDKit          3D

 52 55  0  0  0  0  0  0  0  0999 V2000
  139.0830   71.4580  221.1940 O   0  0  0  0  0  0  0  0  0  0  0  0
  139.3180   71.9370  222.3450 C   0  0  0  0  0  0  0  0  0  0  0  0
  139.3560   73.3740  222.4350 N   0  0  0  0  0  0  0  0  0  0  0  0
  139.1360   74.1890  221.2730 C   0  0  0  0  0  0  0  0  0  0  0  0
  139.7830   75.5190  221.3810 C   0  0  0  0  0  0  0  0  0  0  0  0
  139.1450   76.4570  221.9640 O   0  0  0  0  0  0  0  0  0  0  0  0
  141.0800   75.7820  220.8610 N   0  0  0  0  0  0  0  0  0  0  0  0
  142.0330   74.6870  220.9080 C   0  0  0  0  0  0  0  0  0  0  0  0
  142.8190   74.7200  219.6130 C   0  0  0  0  0  0  0  0  0  0  0  0
  143.5990   76.0200  219.6640 C   0  0  0  0  0  0  0  0  0  0  0  0
  142.6380   77.1410  219.5120 C   0  0  0  0  0  0  0  0  0  0  0  0
  141.3960   77.0750  220.3230 C   0  0  2  0  0  0  0  0  0  0  0  0
  141.4980   78.1410  221.3550 C   0  0  0  0  0  0  0  0  0  0  0  0
  141.6700   79.4870  221.0020 C   0  0  0  0  0  0  0  0  0  0  0  0
  141.7650   80.4820  221.9510 C   0  0  0  0  0  0  0  0  0  0  0  0
  141.6960   80.1910  223.2970 C   0  0  0  0  0  0  0  0  0  0  0  0
  141.7990   81.2320  224.2100 O   0  0  0  0  0  0  0  0  0  0  0  0
  141.5280   78.8740  223.6710 C   0  0  0  0  0  0  0  0  0  0  0  0
  141.4330   77.8880  222.7110 C   0  0  0  0  0  0  0  0  0  0  0  0
  139.5370   71.1070  223.5010 C   0  0  0  0  0  0  0  0  0  0  0  0
  139.2130   69.7690  223.4210 C   0  0  0  0  0  0  0  0  0  0  0  0
  139.4160   68.9580  224.5200 C   0  0  0  0  0  0  0  0  0  0  0  0
  139.9430   69.5180  225.6800 C   0  0  0  0  0  0  0  0  0  0  0  0
  140.1540   68.7070  226.7990 C   0  0  0  0  0  0  0  0  0  0  0  0
  140.6850   69.2810  227.9580 C   0  0  0  0  0  0  0  0  0  0  0  0
  140.9000   68.5100  229.0670 F   0  0  0  0  0  0  0  0  0  0  0  0
  140.9950   70.6250  227.9930 C   0  0  0  0  0  0  0  0  0  0  0  0
  140.7760   71.4160  226.8650 C   0  0  0  0  0  0  0  0  0  0  0  0
  140.2490   70.8660  225.7000 C   0  0  0  0  0  0  0  0  0  0  0  0
  140.0480   71.6520  224.6210 N   0  0  0  0  0  0  0  0  0  0  0  0
  139.5520   73.7450  223.3960 H   0  0  0  0  0  0  0  0  0  0  0  0
  139.5447   73.6683  220.3945 H   0  0  0  0  0  0  0  0  0  0  0  0
  138.0521   74.3514  221.1792 H   0  0  0  0  0  0  0  0  0  0  0  0
  142.7118   74.8149  221.7641 H   0  0  0  0  0  0  0  0  0  0  0  0
  141.5150   73.7238  221.0255 H   0  0  0  0  0  0  0  0  0  0  0  0
  143.5027   73.8604  219.5530 H   0  0  0  0  0  0  0  0  0  0  0  0
  142.1655   74.6631  218.7300 H   0  0  0  0  0  0  0  0  0  0  0  0
  144.1205   76.1043  220.6289 H   0  0  0  0  0  0  0  0  0  0  0  0
  144.3469   76.0474  218.8578 H   0  0  0  0  0  0  0  0  0  0  0  0
  143.1635   78.0684  219.7836 H   0  0  0  0  0  0  0  0  0  0  0  0
  142.3009   77.0902  218.4661 H   0  0  0  0  0  0  0  0  0  0  0  0
  140.5326   77.2507  219.6645 H   0  0  0  0  0  0  0  0  0  0  0  0
  141.7309   79.7566  219.9373 H   0  0  0  0  0  0  0  0  0  0  0  0
  141.8981   81.5255  221.6293 H   0  0  0  0  0  0  0  0  0  0  0  0
  142.6350   81.8100  224.2290 H   0  0  0  0  0  0  0  0  0  0  0  0
  141.4697   78.6094  224.7371 H   0  0  0  0  0  0  0  0  0  0  0  0
  141.2987   76.8477  223.0423 H   0  0  0  0  0  0  0  0  0  0  0  0
  138.7973   69.3522  222.4917 H   0  0  0  0  0  0  0  0  0  0  0  0
  139.1655   67.8877  224.4793 H   0  0  0  0  0  0  0  0  0  0  0  0
  139.9065   67.6356  226.7681 H   0  0  0  0  0  0  0  0  0  0  0  0
  141.4134   71.0712  228.9072 H   0  0  0  0  0  0  0  0  0  0  0  0
  141.0228   72.4875  226.8966 H   0  0  0  0  0  0  0  0  0  0  0  0
  1  2  2  0
  2  3  1  0
  3  4  1  0
  4  5  1  0
  5  6  2  0
  5  7  1  0
  7  8  1  0
  8  9  1  0
  9 10  1  0
 10 11  1  0
 11 12  1  0
 12 13  1  0
 13 14  2  0
 14 15  1  0
 15 16  2  0
 16 17  1  0
 16 18  1  0
 18 19  2  0
  2 20  1  0
 20 21  2  0
 21 22  1  0
 22 23  2  0
 23 24  1  0
 24 25  2  0
 25 26  1  0
 25 27  1  0
 27 28  2  0
 28 29  1  0
 29 30  2  0
 12  7  1  0
 19 13  1  0
 30 20  1  0
 29 23  1  0
  3 31  1  0
  4 32  1  0
  4 33  1  0
  8 34  1  0
  8 35  1  0
  9 36  1  0
  9 37  1  0
 10 38  1  0
 10 39  1  0
 11 40  1  0
 11 41  1  0
 12 42  1  6
 14 43  1  0
 15 44  1  0
 17 45  1  0
 18 46  1  0
 19 47  1  0
 21 48  1  0
 22 49  1  0
 24 50  1  0
 27 51  1  0
 28 52  1  0
M  END
>  <smiles>  (39) 
O=C(NCC(=O)N1CCCCC1c1ccc(O)cc1)c1ccc2cc(F)ccc2n1

>  <score_type>  (39) 
oracle

>  <origin>  (39) 
autodockgpu

>  <m_score__min__energy>  (39) 
-8.8599999999999994

>  <m_primary>  (39) 
energy

>  <rmsd>  (39) 
1.9514613660750262

>  <m_score__min__rmsd>  (39) 
1.9514613660750262

>  <meeko>  (39) 
{"free_energy": -8.31, "intermolecular_energy": -10.1, "internal_energy": -1.49, "cluster_size": 14, "cluster_id": 3, "rank_in_cluster": 7}

>  <energy>  (39) 
-8.2

>  <cluster_rmsd>  (39) 
0.54

>  <cluster>  (39) 
3

$$$$

     RDKit          3D

 52 55  0  0  0  0  0  0  0  0999 V2000
  141.3300   73.3800  221.5950 O   0  0  0  0  0  0  0  0  0  0  0  0
  140.2960   73.2690  222.3210 C   0  0  0  0  0  0  0  0  0  0  0  0
  139.4100   74.4040  222.3350 N   0  0  0  0  0  0  0  0  0  0  0  0
  139.7060   75.5770  221.5620 C   0  0  0  0  0  0  0  0  0  0  0  0
  138.9850   76.7780  222.0530 C   0  0  0  0  0  0  0  0  0  0  0  0
  137.7140   76.7260  222.1380 O   0  0  0  0  0  0  0  0  0  0  0  0
  139.6580   77.9730  222.4270 N   0  0  0  0  0  0  0  0  0  0  0  0
  138.8260   79.0670  222.8970 C   0  0  0  0  0  0  0  0  0  0  0  0
  139.5520   79.7180  224.0560 C   0  0  0  0  0  0  0  0  0  0  0  0
  140.8060   80.3140  223.4450 C   0  0  0  0  0  0  0  0  0  0  0  0
  141.7060   79.1980  223.0590 C   0  0  0  0  0  0  0  0  0  0  0  0
  141.0880   78.0570  222.3360 C   0  0  2  0  0  0  0  0  0  0  0  0
  141.5950   78.1070  220.9380 C   0  0  0  0  0  0  0  0  0  0  0  0
  142.2090   76.9960  220.3430 C   0  0  0  0  0  0  0  0  0  0  0  0
  142.6810   77.0320  219.0490 C   0  0  0  0  0  0  0  0  0  0  0  0
  142.5680   78.1730  218.2810 C   0  0  0  0  0  0  0  0  0  0  0  0
  143.0620   78.1540  216.9840 O   0  0  0  0  0  0  0  0  0  0  0  0
  141.9690   79.2800  218.8440 C   0  0  0  0  0  0  0  0  0  0  0  0
  141.4990   79.2300  220.1410 C   0  0  0  0  0  0  0  0  0  0  0  0
  140.0110   72.0860  223.0910 C   0  0  0  0  0  0  0  0  0  0  0  0
  139.1090   71.1740  222.5840 C   0  0  0  0  0  0  0  0  0  0  0  0
  138.8240   70.0320  223.3090 C   0  0  0  0  0  0  0  0  0  0  0  0
  139.4570   69.8380  224.5320 C   0  0  0  0  0  0  0  0  0  0  0  0
  139.1770   68.6860  225.2740 C   0  0  0  0  0  0  0  0  0  0  0  0
  139.8200   68.5010  226.5020 C   0  0  0  0  0  0  0  0  0  0  0  0
  139.5640   67.3850  227.2480 F   0  0  0  0  0  0  0  0  0  0  0  0
  140.7160   69.4410  226.9690 C   0  0  0  0  0  0  0  0  0  0  0  0
  140.9810   70.5820  226.2130 C   0  0  0  0  0  0  0  0  0  0  0  0
  140.3530   70.7870  224.9880 C   0  0  0  0  0  0  0  0  0  0  0  0
  140.6260   71.9000  224.2740 N   0  0  0  0  0  0  0  0  0  0  0  0
  138.5620   74.2870  222.9430 H   0  0  0  0  0  0  0  0  0  0  0  0
  140.7878   75.7695  221.6131 H   0  0  0  0  0  0  0  0  0  0  0  0
  139.3772   75.3886  220.5293 H   0  0  0  0  0  0  0  0  0  0  0  0
  138.6738   79.7982  222.0894 H   0  0  0  0  0  0  0  0  0  0  0  0
  137.8390   78.6982  223.2130 H   0  0  0  0  0  0  0  0  0  0  0  0
  138.9308   80.5045  224.5093 H   0  0  0  0  0  0  0  0  0  0  0  0
  139.7823   78.9997  224.8567 H   0  0  0  0  0  0  0  0  0  0  0  0
  140.5427   80.9054  222.5557 H   0  0  0  0  0  0  0  0  0  0  0  0
  141.3061   80.9741  224.1690 H   0  0  0  0  0  0  0  0  0  0  0  0
  142.4932   79.6139  222.4130 H   0  0  0  0  0  0  0  0  0  0  0  0
  142.0640   78.7757  224.0096 H   0  0  0  0  0  0  0  0  0  0  0  0
  141.3899   77.1201  222.8269 H   0  0  0  0  0  0  0  0  0  0  0  0
  142.3170   76.0693  220.9257 H   0  0  0  0  0  0  0  0  0  0  0  0
  143.1556   76.1366  218.6211 H   0  0  0  0  0  0  0  0  0  0  0  0
  143.6820   78.8930  216.6660 H   0  0  0  0  0  0  0  0  0  0  0  0
  141.8654   80.2052  218.2582 H   0  0  0  0  0  0  0  0  0  0  0  0
  141.0245   80.1295  220.5602 H   0  0  0  0  0  0  0  0  0  0  0  0
  138.6221   71.3533  221.6141 H   0  0  0  0  0  0  0  0  0  0  0  0
  138.1089   69.2895  222.9252 H   0  0  0  0  0  0  0  0  0  0  0  0
  138.4632   67.9382  224.8981 H   0  0  0  0  0  0  0  0  0  0  0  0
  141.2198   69.2904  227.9352 H   0  0  0  0  0  0  0  0  0  0  0  0
  141.6951   71.3293  226.5893 H   0  0  0  0  0  0  0  0  0  0  0  0
  1  2  2  0
  2  3  1  0
  3  4  1  0
  4  5  1  0
  5  6  2  0
  5  7  1  0
  7  8  1  0
  8  9  1  0
  9 10  1  0
 10 11  1  0
 11 12  1  0
 12 13  1  0
 13 14  2  0
 14 15  1  0
 15 16  2  0
 16 17  1  0
 16 18  1  0
 18 19  2  0
  2 20  1  0
 20 21  2  0
 21 22  1  0
 22 23  2  0
 23 24  1  0
 24 25  2  0
 25 26  1  0
 25 27  1  0
 27 28  2  0
 28 29  1  0
 29 30  2  0
 12  7  1  0
 19 13  1  0
 30 20  1  0
 29 23  1  0
  3 31  1  0
  4 32  1  0
  4 33  1  0
  8 34  1  0
  8 35  1  0
  9 36  1  0
  9 37  1  0
 10 38  1  0
 10 39  1  0
 11 40  1  0
 11 41  1  0
 12 42  1  1
 14 43  1  0
 15 44  1  0
 17 45  1  0
 18 46  1  0
 19 47  1  0
 21 48  1  0
 22 49  1  0
 24 50  1  0
 27 51  1  0
 28 52  1  0
M  END
>  <smiles>  (40) 
O=C(NCC(=O)N1CCCCC1c1ccc(O)cc1)c1ccc2cc(F)ccc2n1

>  <score_type>  (40) 
oracle

>  <origin>  (40) 
autodockgpu

>  <m_score__min__energy>  (40) 
-8.8599999999999994

>  <m_primary>  (40) 
energy

>  <rmsd>  (40) 
3.847791943819444

>  <m_score__min__rmsd>  (40) 
3.847791943819444

>  <meeko>  (40) 
{"free_energy": -8.6, "intermolecular_energy": -10.39, "internal_energy": -1.35, "cluster_size": 10, "cluster_id": 2, "rank_in_cluster": 7}

>  <energy>  (40) 
-8.13

>  <cluster_rmsd>  (40) 
1.85

>  <cluster>  (40) 
3

$$$$

     RDKit          3D

 52 55  0  0  0  0  0  0  0  0999 V2000
  135.8130   77.4840  222.7010 O   0  0  0  0  0  0  0  0  0  0  0  0
  136.0480   76.3320  223.1760 C   0  0  0  0  0  0  0  0  0  0  0  0
  137.2230   75.6700  222.6720 N   0  0  0  0  0  0  0  0  0  0  0  0
  138.0590   76.3010  221.6900 C   0  0  0  0  0  0  0  0  0  0  0  0
  139.4510   76.4910  222.1660 C   0  0  0  0  0  0  0  0  0  0  0  0
  140.1760   75.4570  222.3410 O   0  0  0  0  0  0  0  0  0  0  0  0
  140.0000   77.7760  222.4310 N   0  0  0  0  0  0  0  0  0  0  0  0
  139.0770   78.7910  222.9070 C   0  0  0  0  0  0  0  0  0  0  0  0
  139.7970   79.5870  223.9760 C   0  0  0  0  0  0  0  0  0  0  0  0
  140.9260   80.2890  223.2450 C   0  0  0  0  0  0  0  0  0  0  0  0
  141.9250   79.2640  222.8480 C   0  0  0  0  0  0  0  0  0  0  0  0
  141.4000   78.0200  222.2300 C   0  0  2  0  0  0  0  0  0  0  0  0
  141.8010   78.0480  220.7980 C   0  0  0  0  0  0  0  0  0  0  0  0
  142.2540   76.8940  220.1430 C   0  0  0  0  0  0  0  0  0  0  0  0
  142.6280   76.9100  218.8160 C   0  0  0  0  0  0  0  0  0  0  0  0
  142.5710   78.0710  218.0740 C   0  0  0  0  0  0  0  0  0  0  0  0
  142.9600   78.0300  216.7420 O   0  0  0  0  0  0  0  0  0  0  0  0
  142.1290   79.2210  218.6960 C   0  0  0  0  0  0  0  0  0  0  0  0
  141.7570   79.1900  220.0240 C   0  0  0  0  0  0  0  0  0  0  0  0
  135.2010   75.7110  224.1610 C   0  0  0  0  0  0  0  0  0  0  0  0
  134.4260   76.5200  224.9650 C   0  0  0  0  0  0  0  0  0  0  0  0
  133.6070   75.9410  225.9150 C   0  0  0  0  0  0  0  0  0  0  0  0
  133.5900   74.5550  226.0330 C   0  0  0  0  0  0  0  0  0  0  0  0
  132.7650   73.9580  226.9910 C   0  0  0  0  0  0  0  0  0  0  0  0
  132.7550   72.5640  227.0990 C   0  0  0  0  0  0  0  0  0  0  0  0
  131.9580   71.9540  228.0280 F   0  0  0  0  0  0  0  0  0  0  0  0
  133.5480   71.7940  226.2730 C   0  0  0  0  0  0  0  0  0  0  0  0
  134.3650   72.4100  225.3250 C   0  0  0  0  0  0  0  0  0  0  0  0
  134.3890   73.7970  225.1980 C   0  0  0  0  0  0  0  0  0  0  0  0
  135.1870   74.3700  224.2720 N   0  0  0  0  0  0  0  0  0  0  0  0
  137.3960   74.7190  223.0800 H   0  0  0  0  0  0  0  0  0  0  0  0
  138.0777   75.6733  220.7869 H   0  0  0  0  0  0  0  0  0  0  0  0
  137.6382   77.2959  221.4826 H   0  0  0  0  0  0  0  0  0  0  0  0
  138.7841   79.4522  222.0782 H   0  0  0  0  0  0  0  0  0  0  0  0
  138.1648   78.3292  223.3127 H   0  0  0  0  0  0  0  0  0  0  0  0
  139.1182   80.3205  224.4356 H   0  0  0  0  0  0  0  0  0  0  0  0
  140.1658   78.9472  224.7912 H   0  0  0  0  0  0  0  0  0  0  0  0
  140.5338   80.7940  222.3499 H   0  0  0  0  0  0  0  0  0  0  0  0
  141.3915   81.0433  223.8964 H   0  0  0  0  0  0  0  0  0  0  0  0
  142.6109   79.7304  222.1256 H   0  0  0  0  0  0  0  0  0  0  0  0
  142.3950   78.9413  223.7887 H   0  0  0  0  0  0  0  0  0  0  0  0
  141.8443   77.1541  222.7427 H   0  0  0  0  0  0  0  0  0  0  0  0
  142.3127   75.9494  220.7036 H   0  0  0  0  0  0  0  0  0  0  0  0
  142.9776   75.9813  218.3413 H   0  0  0  0  0  0  0  0  0  0  0  0
  143.6980   78.6440  216.4090 H   0  0  0  0  0  0  0  0  0  0  0  0
  142.0733   80.1637  218.1319 H   0  0  0  0  0  0  0  0  0  0  0  0
  141.4074   80.1231  220.4900 H   0  0  0  0  0  0  0  0  0  0  0  0
  134.4595   77.6136  224.8512 H   0  0  0  0  0  0  0  0  0  0  0  0
  132.9788   76.5655  226.5672 H   0  0  0  0  0  0  0  0  0  0  0  0
  132.1345   74.5745  227.6486 H   0  0  0  0  0  0  0  0  0  0  0  0
  133.5359   70.6977  226.3619 H   0  0  0  0  0  0  0  0  0  0  0  0
  134.9978   71.7932  224.6699 H   0  0  0  0  0  0  0  0  0  0  0  0
  1  2  2  0
  2  3  1  0
  3  4  1  0
  4  5  1  0
  5  6  2  0
  5  7  1  0
  7  8  1  0
  8  9  1  0
  9 10  1  0
 10 11  1  0
 11 12  1  0
 12 13  1  0
 13 14  2  0
 14 15  1  0
 15 16  2  0
 16 17  1  0
 16 18  1  0
 18 19  2  0
  2 20  1  0
 20 21  2  0
 21 22  1  0
 22 23  2  0
 23 24  1  0
 24 25  2  0
 25 26  1  0
 25 27  1  0
 27 28  2  0
 28 29  1  0
 29 30  2  0
 12  7  1  0
 19 13  1  0
 30 20  1  0
 29 23  1  0
  3 31  1  0
  4 32  1  0
  4 33  1  0
  8 34  1  0
  8 35  1  0
  9 36  1  0
  9 37  1  0
 10 38  1  0
 10 39  1  0
 11 40  1  0
 11 41  1  0
 12 42  1  1
 14 43  1  0
 15 44  1  0
 17 45  1  0
 18 46  1  0
 19 47  1  0
 21 48  1  0
 22 49  1  0
 24 50  1  0
 27 51  1  0
 28 52  1  0
M  END
>  <smiles>  (41) 
O=C(NCC(=O)N1CCCCC1c1ccc(O)cc1)c1ccc2cc(F)ccc2n1

>  <score_type>  (41) 
oracle

>  <origin>  (41) 
autodockgpu

>  <m_score__min__energy>  (41) 
-8.8599999999999994

>  <m_primary>  (41) 
energy

>  <rmsd>  (41) 
6.672953645811408

>  <m_score__min__rmsd>  (41) 
6.672953645811408

>  <meeko>  (41) 
{"free_energy": -7.6, "intermolecular_energy": -9.39, "internal_energy": -1.65, "cluster_size": 4, "cluster_id": 4, "rank_in_cluster": 3}

>  <energy>  (41) 
-8.09

>  <cluster_rmsd>  (41) 
1.81

>  <cluster>  (41) 
3

$$$$

     RDKit          3D

 52 55  0  0  0  0  0  0  0  0999 V2000
  141.1190   72.5410  221.9880 O   0  0  0  0  0  0  0  0  0  0  0  0
  140.0850   72.3320  222.6910 C   0  0  0  0  0  0  0  0  0  0  0  0
  138.9210   73.1070  222.3480 N   0  0  0  0  0  0  0  0  0  0  0  0
  138.9590   74.0510  221.2670 C   0  0  0  0  0  0  0  0  0  0  0  0
  139.4900   75.3720  221.6850 C   0  0  0  0  0  0  0  0  0  0  0  0
  140.6850   75.4310  222.1260 O   0  0  0  0  0  0  0  0  0  0  0  0
  138.7180   76.5640  221.6120 N   0  0  0  0  0  0  0  0  0  0  0  0
  137.8780   76.7230  220.4370 C   0  0  0  0  0  0  0  0  0  0  0  0
  136.5700   77.3310  220.9000 C   0  0  0  0  0  0  0  0  0  0  0  0
  136.9400   78.7150  221.4000 C   0  0  0  0  0  0  0  0  0  0  0  0
  137.7110   78.5590  222.6600 C   0  0  0  0  0  0  0  0  0  0  0  0
  138.7880   77.5370  222.6650 C   0  0  2  0  0  0  0  0  0  0  0  0
  140.0800   78.2720  222.7120 C   0  0  0  0  0  0  0  0  0  0  0  0
  140.4420   79.0440  223.8250 C   0  0  0  0  0  0  0  0  0  0  0  0
  141.6370   79.7300  223.8780 C   0  0  0  0  0  0  0  0  0  0  0  0
  142.5310   79.6830  222.8290 C   0  0  0  0  0  0  0  0  0  0  0  0
  143.7190   80.3940  222.9350 O   0  0  0  0  0  0  0  0  0  0  0  0
  142.1980   78.9310  221.7210 C   0  0  0  0  0  0  0  0  0  0  0  0
  140.9990   78.2500  221.6820 C   0  0  0  0  0  0  0  0  0  0  0  0
  140.0610   71.3810  223.7720 C   0  0  0  0  0  0  0  0  0  0  0  0
  139.5040   70.1400  223.5430 C   0  0  0  0  0  0  0  0  0  0  0  0
  139.4720   69.2150  224.5690 C   0  0  0  0  0  0  0  0  0  0  0  0
  140.0030   69.5640  225.8050 C   0  0  0  0  0  0  0  0  0  0  0  0
  139.9770   68.6360  226.8500 C   0  0  0  0  0  0  0  0  0  0  0  0
  140.5150   68.9980  228.0890 C   0  0  0  0  0  0  0  0  0  0  0  0
  140.5020   68.1100  229.1290 F   0  0  0  0  0  0  0  0  0  0  0  0
  141.0620   70.2520  228.2730 C   0  0  0  0  0  0  0  0  0  0  0  0
  141.0780   71.1630  227.2170 C   0  0  0  0  0  0  0  0  0  0  0  0
  140.5490   70.8230  225.9750 C   0  0  0  0  0  0  0  0  0  0  0  0
  140.5770   71.7220  224.9680 N   0  0  0  0  0  0  0  0  0  0  0  0
  138.0790   72.9160  222.9440 H   0  0  0  0  0  0  0  0  0  0  0  0
  139.6013   73.6488  220.4697 H   0  0  0  0  0  0  0  0  0  0  0  0
  137.9268   74.2009  220.9175 H   0  0  0  0  0  0  0  0  0  0  0  0
  138.3673   77.3893  219.7114 H   0  0  0  0  0  0  0  0  0  0  0  0
  137.7058   75.7537  219.9462 H   0  0  0  0  0  0  0  0  0  0  0  0
  135.8573   77.3986  220.0649 H   0  0  0  0  0  0  0  0  0  0  0  0
  136.0836   76.7250  221.6786 H   0  0  0  0  0  0  0  0  0  0  0  0
  137.5549   79.2312  220.6480 H   0  0  0  0  0  0  0  0  0  0  0  0
  136.0329   79.3108  221.5793 H   0  0  0  0  0  0  0  0  0  0  0  0
  138.1733   79.5304  222.8894 H   0  0  0  0  0  0  0  0  0  0  0  0
  136.9793   78.2089  223.4031 H   0  0  0  0  0  0  0  0  0  0  0  0
  138.6687   76.9007  223.5543 H   0  0  0  0  0  0  0  0  0  0  0  0
  139.7530   79.1042  224.6804 H   0  0  0  0  0  0  0  0  0  0  0  0
  141.8810   80.3241  224.7711 H   0  0  0  0  0  0  0  0  0  0  0  0
  144.5150   80.1420  222.3550 H   0  0  0  0  0  0  0  0  0  0  0  0
  142.8897   78.8745  220.8675 H   0  0  0  0  0  0  0  0  0  0  0  0
  140.7631   77.6593  220.7845 H   0  0  0  0  0  0  0  0  0  0  0  0
  139.0901   69.8896  222.5551 H   0  0  0  0  0  0  0  0  0  0  0  0
  139.0335   68.2188  224.4101 H   0  0  0  0  0  0  0  0  0  0  0  0
  139.5406   67.6375  226.7002 H   0  0  0  0  0  0  0  0  0  0  0  0
  141.4840   70.5319  229.2495 H   0  0  0  0  0  0  0  0  0  0  0  0
  141.5137   72.1618  227.3673 H   0  0  0  0  0  0  0  0  0  0  0  0
  1  2  2  0
  2  3  1  0
  3  4  1  0
  4  5  1  0
  5  6  2  0
  5  7  1  0
  7  8  1  0
  8  9  1  0
  9 10  1  0
 10 11  1  0
 11 12  1  0
 12 13  1  0
 13 14  2  0
 14 15  1  0
 15 16  2  0
 16 17  1  0
 16 18  1  0
 18 19  2  0
  2 20  1  0
 20 21  2  0
 21 22  1  0
 22 23  2  0
 23 24  1  0
 24 25  2  0
 25 26  1  0
 25 27  1  0
 27 28  2  0
 28 29  1  0
 29 30  2  0
 12  7  1  0
 19 13  1  0
 30 20  1  0
 29 23  1  0
  3 31  1  0
  4 32  1  0
  4 33  1  0
  8 34  1  0
  8 35  1  0
  9 36  1  0
  9 37  1  0
 10 38  1  0
 10 39  1  0
 11 40  1  0
 11 41  1  0
 12 42  1  1
 14 43  1  0
 15 44  1  0
 17 45  1  0
 18 46  1  0
 19 47  1  0
 21 48  1  0
 22 49  1  0
 24 50  1  0
 27 51  1  0
 28 52  1  0
M  END
>  <smiles>  (42) 
O=C(NCC(=O)N1CCCCC1c1ccc(O)cc1)c1ccc2cc(F)ccc2n1

>  <score_type>  (42) 
oracle

>  <origin>  (42) 
autodockgpu

>  <m_score__min__energy>  (42) 
-8.8599999999999994

>  <m_primary>  (42) 
energy

>  <rmsd>  (42) 
2.8801770856522033

>  <m_score__min__rmsd>  (42) 
2.8801770856522033

>  <meeko>  (42) 
{"free_energy": -8.72, "intermolecular_energy": -10.51, "internal_energy": -1.16, "cluster_size": 14, "cluster_id": 3, "rank_in_cluster": 2}

>  <energy>  (42) 
-8.03

>  <cluster_rmsd>  (42) 
0.98

>  <cluster>  (42) 
3

$$$$

     RDKit          3D

 52 55  0  0  0  0  0  0  0  0999 V2000
  140.7630   71.1330  221.2240 O   0  0  0  0  0  0  0  0  0  0  0  0
  140.3660   71.7100  222.2810 C   0  0  0  0  0  0  0  0  0  0  0  0
  140.1470   73.1300  222.1800 N   0  0  0  0  0  0  0  0  0  0  0  0
  140.3740   73.8230  220.9430 C   0  0  0  0  0  0  0  0  0  0  0  0
  140.5660   75.2810  221.1350 C   0  0  0  0  0  0  0  0  0  0  0  0
  140.3540   75.7700  222.2940 O   0  0  0  0  0  0  0  0  0  0  0  0
  140.9740   76.1430  220.0820 N   0  0  0  0  0  0  0  0  0  0  0  0
  139.9390   76.5740  219.1570 C   0  0  0  0  0  0  0  0  0  0  0  0
  140.2010   78.0320  218.8380 C   0  0  0  0  0  0  0  0  0  0  0  0
  141.5230   78.0360  218.0940 C   0  0  0  0  0  0  0  0  0  0  0  0
  142.5980   77.6980  219.0620 C   0  0  0  0  0  0  0  0  0  0  0  0
  142.3460   76.5500  219.9700 C   0  0  2  0  0  0  0  0  0  0  0  0
  143.2590   75.4550  219.5450 C   0  0  0  0  0  0  0  0  0  0  0  0
  144.0790   74.7880  220.4660 C   0  0  0  0  0  0  0  0  0  0  0  0
  144.9290   73.7730  220.0810 C   0  0  0  0  0  0  0  0  0  0  0  0
  145.0070   73.3700  218.7650 C   0  0  0  0  0  0  0  0  0  0  0  0
  145.8800   72.3430  218.4340 O   0  0  0  0  0  0  0  0  0  0  0  0
  144.2100   74.0110  217.8390 C   0  0  0  0  0  0  0  0  0  0  0  0
  143.3640   75.0250  218.2370 C   0  0  0  0  0  0  0  0  0  0  0  0
  140.1430   71.0020  223.5150 C   0  0  0  0  0  0  0  0  0  0  0  0
  139.5410   69.7620  223.4610 C   0  0  0  0  0  0  0  0  0  0  0  0
  139.3190   69.0680  224.6350 C   0  0  0  0  0  0  0  0  0  0  0  0
  139.7100   69.6440  225.8400 C   0  0  0  0  0  0  0  0  0  0  0  0
  139.4910   68.9510  227.0340 C   0  0  0  0  0  0  0  0  0  0  0  0
  139.8900   69.5400  228.2390 C   0  0  0  0  0  0  0  0  0  0  0  0
  139.6870   68.8840  229.4210 F   0  0  0  0  0  0  0  0  0  0  0  0
  140.4880   70.7830  228.2440 C   0  0  0  0  0  0  0  0  0  0  0  0
  140.6970   71.4570  227.0410 C   0  0  0  0  0  0  0  0  0  0  0  0
  140.3100   70.8900  225.8300 C   0  0  0  0  0  0  0  0  0  0  0  0
  140.5230   71.5620  224.6780 N   0  0  0  0  0  0  0  0  0  0  0  0
  139.8190   73.5840  223.0680 H   0  0  0  0  0  0  0  0  0  0  0  0
  141.2747   73.4084  220.4667 H   0  0  0  0  0  0  0  0  0  0  0  0
  139.4826   73.6836  220.3137 H   0  0  0  0  0  0  0  0  0  0  0  0
  139.9824   75.9733  218.2365 H   0  0  0  0  0  0  0  0  0  0  0  0
  138.9408   76.4449  219.6007 H   0  0  0  0  0  0  0  0  0  0  0  0
  139.3992   78.4400  218.2051 H   0  0  0  0  0  0  0  0  0  0  0  0
  140.2331   78.6553  219.7438 H   0  0  0  0  0  0  0  0  0  0  0  0
  141.4991   77.2886  217.2872 H   0  0  0  0  0  0  0  0  0  0  0  0
  141.7074   79.0252  217.6496 H   0  0  0  0  0  0  0  0  0  0  0  0
  143.5066   77.4721  218.4845 H   0  0  0  0  0  0  0  0  0  0  0  0
  142.6766   78.5746  219.7219 H   0  0  0  0  0  0  0  0  0  0  0  0
  142.5633   76.8609  221.0025 H   0  0  0  0  0  0  0  0  0  0  0  0
  144.0432   75.0826  221.5252 H   0  0  0  0  0  0  0  0  0  0  0  0
  145.5554   73.2764  220.8366 H   0  0  0  0  0  0  0  0  0  0  0  0
  145.5750   71.5940  217.8190 H   0  0  0  0  0  0  0  0  0  0  0  0
  144.2494   73.7127  216.7810 H   0  0  0  0  0  0  0  0  0  0  0  0
  142.7417   75.5158  217.4742 H   0  0  0  0  0  0  0  0  0  0  0  0
  139.2412   69.3307  222.4945 H   0  0  0  0  0  0  0  0  0  0  0  0
  138.8414   68.0772  224.6174 H   0  0  0  0  0  0  0  0  0  0  0  0
  139.0134   67.9601  227.0265 H   0  0  0  0  0  0  0  0  0  0  0  0
  140.7992   71.2414  229.1943 H   0  0  0  0  0  0  0  0  0  0  0  0
  141.1734   72.4485  227.0492 H   0  0  0  0  0  0  0  0  0  0  0  0
  1  2  2  0
  2  3  1  0
  3  4  1  0
  4  5  1  0
  5  6  2  0
  5  7  1  0
  7  8  1  0
  8  9  1  0
  9 10  1  0
 10 11  1  0
 11 12  1  0
 12 13  1  0
 13 14  2  0
 14 15  1  0
 15 16  2  0
 16 17  1  0
 16 18  1  0
 18 19  2  0
  2 20  1  0
 20 21  2  0
 21 22  1  0
 22 23  2  0
 23 24  1  0
 24 25  2  0
 25 26  1  0
 25 27  1  0
 27 28  2  0
 28 29  1  0
 29 30  2  0
 12  7  1  0
 19 13  1  0
 30 20  1  0
 29 23  1  0
  3 31  1  0
  4 32  1  0
  4 33  1  0
  8 34  1  0
  8 35  1  0
  9 36  1  0
  9 37  1  0
 10 38  1  0
 10 39  1  0
 11 40  1  0
 11 41  1  0
 12 42  1  1
 14 43  1  0
 15 44  1  0
 17 45  1  0
 18 46  1  0
 19 47  1  0
 21 48  1  0
 22 49  1  0
 24 50  1  0
 27 51  1  0
 28 52  1  0
M  END
>  <smiles>  (43) 
O=C(NCC(=O)N1CCCCC1c1ccc(O)cc1)c1ccc2cc(F)ccc2n1

>  <score_type>  (43) 
oracle

>  <origin>  (43) 
autodockgpu

>  <m_score__min__energy>  (43) 
-8.8599999999999994

>  <m_primary>  (43) 
energy

>  <rmsd>  (43) 
1.7525201930780567

>  <m_score__min__rmsd>  (43) 
1.7525201930780567

>  <meeko>  (43) 
{"free_energy": -7.95, "intermolecular_energy": -9.74, "internal_energy": -1.84, "cluster_size": 19, "cluster_id": 1, "rank_in_cluster": 16}

>  <energy>  (43) 
-7.81

>  <cluster_rmsd>  (43) 
1.87

>  <cluster>  (43) 
3

$$$$

     RDKit          3D

 52 55  0  0  0  0  0  0  0  0999 V2000
  141.3310   72.9380  221.4950 O   0  0  0  0  0  0  0  0  0  0  0  0
  140.3850   72.9650  222.3400 C   0  0  0  0  0  0  0  0  0  0  0  0
  139.5700   74.1520  222.3360 N   0  0  0  0  0  0  0  0  0  0  0  0
  139.8370   75.2240  221.4180 C   0  0  0  0  0  0  0  0  0  0  0  0
  139.1070   76.4670  221.7680 C   0  0  0  0  0  0  0  0  0  0  0  0
  137.8330   76.4600  221.6950 O   0  0  0  0  0  0  0  0  0  0  0  0
  139.7720   77.6540  222.1780 N   0  0  0  0  0  0  0  0  0  0  0  0
  138.9310   78.7430  222.6450 C   0  0  0  0  0  0  0  0  0  0  0  0
  139.6290   79.3740  223.8320 C   0  0  0  0  0  0  0  0  0  0  0  0
  140.8990   79.9770  223.2610 C   0  0  0  0  0  0  0  0  0  0  0  0
  141.8060   78.8650  222.8790 C   0  0  0  0  0  0  0  0  0  0  0  0
  141.2040   77.7370  222.1240 C   0  0  2  0  0  0  0  0  0  0  0  0
  141.7450   77.8080  220.7400 C   0  0  0  0  0  0  0  0  0  0  0  0
  142.3340   76.6930  220.1270 C   0  0  0  0  0  0  0  0  0  0  0  0
  142.8380   76.7490  218.8450 C   0  0  0  0  0  0  0  0  0  0  0  0
  142.7830   77.9140  218.1080 C   0  0  0  0  0  0  0  0  0  0  0  0
  143.3060   77.9140  216.8230 O   0  0  0  0  0  0  0  0  0  0  0  0
  142.2080   79.0250  218.6890 C   0  0  0  0  0  0  0  0  0  0  0  0
  141.7070   78.9550  219.9730 C   0  0  0  0  0  0  0  0  0  0  0  0
  140.1290   71.8820  223.2540 C   0  0  0  0  0  0  0  0  0  0  0  0
  139.3120   70.8510  222.8390 C   0  0  0  0  0  0  0  0  0  0  0  0
  139.0560   69.8040  223.7030 C   0  0  0  0  0  0  0  0  0  0  0  0
  139.6300   69.8220  224.9690 C   0  0  0  0  0  0  0  0  0  0  0  0
  139.3780   68.7670  225.8520 C   0  0  0  0  0  0  0  0  0  0  0  0
  139.9610   68.7960  227.1230 C   0  0  0  0  0  0  0  0  0  0  0  0
  139.7310   67.7780  228.0060 F   0  0  0  0  0  0  0  0  0  0  0  0
  140.7720   69.8490  227.4950 C   0  0  0  0  0  0  0  0  0  0  0  0
  141.0100   70.8910  226.5990 C   0  0  0  0  0  0  0  0  0  0  0  0
  140.4400   70.8830  225.3290 C   0  0  0  0  0  0  0  0  0  0  0  0
  140.6870   71.9030  224.4790 N   0  0  0  0  0  0  0  0  0  0  0  0
  138.7950   74.1510  223.0430 H   0  0  0  0  0  0  0  0  0  0  0  0
  140.9166   75.4348  221.4262 H   0  0  0  0  0  0  0  0  0  0  0  0
  139.4948   74.9045  220.4226 H   0  0  0  0  0  0  0  0  0  0  0  0
  138.8006   79.4873  221.8457 H   0  0  0  0  0  0  0  0  0  0  0  0
  137.9358   78.3715  222.9307 H   0  0  0  0  0  0  0  0  0  0  0  0
  138.9981   80.1546  224.2822 H   0  0  0  0  0  0  0  0  0  0  0  0
  139.8380   78.6429  224.6269 H   0  0  0  0  0  0  0  0  0  0  0  0
  140.6585   80.5831  222.3751 H   0  0  0  0  0  0  0  0  0  0  0  0
  141.3827   80.6243  224.0073 H   0  0  0  0  0  0  0  0  0  0  0  0
  142.6091   79.2893  222.2585 H   0  0  0  0  0  0  0  0  0  0  0  0
  142.1402   78.4272  223.8312 H   0  0  0  0  0  0  0  0  0  0  0  0
  141.4920   76.7923  222.6083 H   0  0  0  0  0  0  0  0  0  0  0  0
  142.3957   75.7469  220.6847 H   0  0  0  0  0  0  0  0  0  0  0  0
  143.2915   75.8499  218.4024 H   0  0  0  0  0  0  0  0  0  0  0  0
  143.6870   78.7690  216.4290 H   0  0  0  0  0  0  0  0  0  0  0  0
  142.1486   79.9691  218.1276 H   0  0  0  0  0  0  0  0  0  0  0  0
  141.2546   79.8588  220.4071 H   0  0  0  0  0  0  0  0  0  0  0  0
  138.8696   70.8624  221.8320 H   0  0  0  0  0  0  0  0  0  0  0  0
  138.4087   68.9699  223.3944 H   0  0  0  0  0  0  0  0  0  0  0  0
  138.7322   67.9286  225.5519 H   0  0  0  0  0  0  0  0  0  0  0  0
  141.2293   69.8664  228.4953 H   0  0  0  0  0  0  0  0  0  0  0  0
  141.6559   71.7292  226.8995 H   0  0  0  0  0  0  0  0  0  0  0  0
  1  2  2  0
  2  3  1  0
  3  4  1  0
  4  5  1  0
  5  6  2  0
  5  7  1  0
  7  8  1  0
  8  9  1  0
  9 10  1  0
 10 11  1  0
 11 12  1  0
 12 13  1  0
 13 14  2  0
 14 15  1  0
 15 16  2  0
 16 17  1  0
 16 18  1  0
 18 19  2  0
  2 20  1  0
 20 21  2  0
 21 22  1  0
 22 23  2  0
 23 24  1  0
 24 25  2  0
 25 26  1  0
 25 27  1  0
 27 28  2  0
 28 29  1  0
 29 30  2  0
 12  7  1  0
 19 13  1  0
 30 20  1  0
 29 23  1  0
  3 31  1  0
  4 32  1  0
  4 33  1  0
  8 34  1  0
  8 35  1  0
  9 36  1  0
  9 37  1  0
 10 38  1  0
 10 39  1  0
 11 40  1  0
 11 41  1  0
 12 42  1  1
 14 43  1  0
 15 44  1  0
 17 45  1  0
 18 46  1  0
 19 47  1  0
 21 48  1  0
 22 49  1  0
 24 50  1  0
 27 51  1  0
 28 52  1  0
M  END
>  <smiles>  (44) 
O=C(NCC(=O)N1CCCCC1c1ccc(O)cc1)c1ccc2cc(F)ccc2n1

>  <score_type>  (44) 
oracle

>  <origin>  (44) 
autodockgpu

>  <m_score__min__energy>  (44) 
-8.8599999999999994

>  <m_primary>  (44) 
energy

>  <rmsd>  (44) 
3.5710879868375405

>  <m_score__min__rmsd>  (44) 
3.5710879868375405

>  <meeko>  (44) 
{"free_energy": -8.75, "intermolecular_energy": -10.54, "internal_energy": -1.32, "cluster_size": 10, "cluster_id": 2, "rank_in_cluster": 1}

>  <energy>  (44) 
-7.62

>  <cluster_rmsd>  (44) 
0.0

>  <cluster>  (44) 
4

$$$$

     RDKit          3D

 52 55  0  0  0  0  0  0  0  0999 V2000
  141.3600   73.0280  221.4660 O   0  0  0  0  0  0  0  0  0  0  0  0
  140.4150   73.0140  222.3120 C   0  0  0  0  0  0  0  0  0  0  0  0
  139.5660   74.1770  222.3290 N   0  0  0  0  0  0  0  0  0  0  0  0
  139.8000   75.2710  221.4300 C   0  0  0  0  0  0  0  0  0  0  0  0
  139.0880   76.5060  221.8400 C   0  0  0  0  0  0  0  0  0  0  0  0
  137.8130   76.4870  221.8690 O   0  0  0  0  0  0  0  0  0  0  0  0
  139.7720   77.7000  222.1990 N   0  0  0  0  0  0  0  0  0  0  0  0
  138.9550   78.7930  222.6950 C   0  0  0  0  0  0  0  0  0  0  0  0
  139.7140   79.4400  223.8350 C   0  0  0  0  0  0  0  0  0  0  0  0
  140.9510   80.0370  223.1900 C   0  0  0  0  0  0  0  0  0  0  0  0
  141.8390   78.9220  222.7740 C   0  0  0  0  0  0  0  0  0  0  0  0
  141.1990   77.7830  222.0660 C   0  0  2  0  0  0  0  0  0  0  0  0
  141.6650   77.8370  220.6550 C   0  0  0  0  0  0  0  0  0  0  0  0
  142.4320   76.8030  220.0980 C   0  0  0  0  0  0  0  0  0  0  0  0
  142.8680   76.8440  218.7910 C   0  0  0  0  0  0  0  0  0  0  0  0
  142.5650   77.9120  217.9730 C   0  0  0  0  0  0  0  0  0  0  0  0
  143.0310   77.9010  216.6650 O   0  0  0  0  0  0  0  0  0  0  0  0
  141.8120   78.9420  218.4970 C   0  0  0  0  0  0  0  0  0  0  0  0
  141.3820   78.8880  219.8070 C   0  0  0  0  0  0  0  0  0  0  0  0
  140.1920   71.9090  223.2080 C   0  0  0  0  0  0  0  0  0  0  0  0
  139.5030   70.8100  222.7380 C   0  0  0  0  0  0  0  0  0  0  0  0
  139.2800   69.7410  223.5830 C   0  0  0  0  0  0  0  0  0  0  0  0
  139.7580   69.8050  224.8880 C   0  0  0  0  0  0  0  0  0  0  0  0
  139.5380   68.7280  225.7520 C   0  0  0  0  0  0  0  0  0  0  0  0
  140.0240   68.8030  227.0610 C   0  0  0  0  0  0  0  0  0  0  0  0
  139.8230   67.7650  227.9280 F   0  0  0  0  0  0  0  0  0  0  0  0
  140.7090   69.9230  227.4880 C   0  0  0  0  0  0  0  0  0  0  0  0
  140.9170   70.9860  226.6100 C   0  0  0  0  0  0  0  0  0  0  0  0
  140.4420   70.9320  225.3020 C   0  0  0  0  0  0  0  0  0  0  0  0
  140.6570   71.9740  224.4700 N   0  0  0  0  0  0  0  0  0  0  0  0
  138.7920   74.1410  223.0370 H   0  0  0  0  0  0  0  0  0  0  0  0
  140.8797   75.4793  221.4015 H   0  0  0  0  0  0  0  0  0  0  0  0
  139.4182   74.9781  220.4409 H   0  0  0  0  0  0  0  0  0  0  0  0
  138.7810   79.5267  221.8941 H   0  0  0  0  0  0  0  0  0  0  0  0
  137.9769   78.4243  223.0375 H   0  0  0  0  0  0  0  0  0  0  0  0
  139.1065   80.2256  224.3080 H   0  0  0  0  0  0  0  0  0  0  0  0
  139.9662   78.7193  224.6268 H   0  0  0  0  0  0  0  0  0  0  0  0
  140.6627   80.6318  222.3107 H   0  0  0  0  0  0  0  0  0  0  0  0
  141.4724   80.6937  223.9020 H   0  0  0  0  0  0  0  0  0  0  0  0
  142.6067   79.3397  222.1061 H   0  0  0  0  0  0  0  0  0  0  0  0
  142.2252   78.4968  223.7121 H   0  0  0  0  0  0  0  0  0  0  0  0
  141.5140   76.8441  222.5447 H   0  0  0  0  0  0  0  0  0  0  0  0
  142.6928   75.9352  220.7216 H   0  0  0  0  0  0  0  0  0  0  0  0
  143.4673   76.0113  218.3941 H   0  0  0  0  0  0  0  0  0  0  0  0
  143.7270   78.5790  216.3680 H   0  0  0  0  0  0  0  0  0  0  0  0
  141.5539   79.8078  217.8696 H   0  0  0  0  0  0  0  0  0  0  0  0
  140.7833   79.7253  220.1950 H   0  0  0  0  0  0  0  0  0  0  0  0
  139.1354   70.7857  221.7015 H   0  0  0  0  0  0  0  0  0  0  0  0
  138.7337   68.8538  223.2303 H   0  0  0  0  0  0  0  0  0  0  0  0
  138.9921   67.8371  225.4080 H   0  0  0  0  0  0  0  0  0  0  0  0
  141.0898   69.9766  228.5186 H   0  0  0  0  0  0  0  0  0  0  0  0
  141.4623   71.8771  226.9543 H   0  0  0  0  0  0  0  0  0  0  0  0
  1  2  2  0
  2  3  1  0
  3  4  1  0
  4  5  1  0
  5  6  2  0
  5  7  1  0
  7  8  1  0
  8  9  1  0
  9 10  1  0
 10 11  1  0
 11 12  1  0
 12 13  1  0
 13 14  2  0
 14 15  1  0
 15 16  2  0
 16 17  1  0
 16 18  1  0
 18 19  2  0
  2 20  1  0
 20 21  2  0
 21 22  1  0
 22 23  2  0
 23 24  1  0
 24 25  2  0
 25 26  1  0
 25 27  1  0
 27 28  2  0
 28 29  1  0
 29 30  2  0
 12  7  1  0
 19 13  1  0
 30 20  1  0
 29 23  1  0
  3 31  1  0
  4 32  1  0
  4 33  1  0
  8 34  1  0
  8 35  1  0
  9 36  1  0
  9 37  1  0
 10 38  1  0
 10 39  1  0
 11 40  1  0
 11 41  1  0
 12 42  1  1
 14 43  1  0
 15 44  1  0
 17 45  1  0
 18 46  1  0
 19 47  1  0
 21 48  1  0
 22 49  1  0
 24 50  1  0
 27 51  1  0
 28 52  1  0
M  END
>  <smiles>  (45) 
O=C(NCC(=O)N1CCCCC1c1ccc(O)cc1)c1ccc2cc(F)ccc2n1

>  <score_type>  (45) 
oracle

>  <origin>  (45) 
autodockgpu

>  <m_score__min__energy>  (45) 
-8.8599999999999994

>  <m_primary>  (45) 
energy

>  <rmsd>  (45) 
3.5749171685346246

>  <m_score__min__rmsd>  (45) 
3.5749171685346246

>  <meeko>  (45) 
{"free_energy": -8.66, "intermolecular_energy": -10.44, "internal_energy": -1.38, "cluster_size": 10, "cluster_id": 2, "rank_in_cluster": 5}

>  <energy>  (45) 
-7.6

>  <cluster_rmsd>  (45) 
0.34

>  <cluster>  (45) 
4

$$$$

     RDKit          3D

 52 55  0  0  0  0  0  0  0  0999 V2000
  140.7620   71.0390  221.2510 O   0  0  0  0  0  0  0  0  0  0  0  0
  140.4190   71.6420  222.3130 C   0  0  0  0  0  0  0  0  0  0  0  0
  140.2920   73.0730  222.2130 N   0  0  0  0  0  0  0  0  0  0  0  0
  140.5470   73.7480  220.9710 C   0  0  0  0  0  0  0  0  0  0  0  0
  140.5450   75.2240  221.1170 C   0  0  0  0  0  0  0  0  0  0  0  0
  140.1560   75.7220  222.2250 O   0  0  0  0  0  0  0  0  0  0  0  0
  140.9580   76.0960  220.0720 N   0  0  0  0  0  0  0  0  0  0  0  0
  139.9310   76.5240  219.1380 C   0  0  0  0  0  0  0  0  0  0  0  0
  140.1860   77.9850  218.8300 C   0  0  0  0  0  0  0  0  0  0  0  0
  141.5160   78.0030  218.1010 C   0  0  0  0  0  0  0  0  0  0  0  0
  142.5830   77.6670  219.0780 C   0  0  0  0  0  0  0  0  0  0  0  0
  142.3290   76.5120  219.9770 C   0  0  2  0  0  0  0  0  0  0  0  0
  143.2550   75.4270  219.5570 C   0  0  0  0  0  0  0  0  0  0  0  0
  143.4410   75.1080  218.2040 C   0  0  0  0  0  0  0  0  0  0  0  0
  144.2960   74.1030  217.8050 C   0  0  0  0  0  0  0  0  0  0  0  0
  145.0080   73.3650  218.7270 C   0  0  0  0  0  0  0  0  0  0  0  0
  145.8540   72.3650  218.2690 O   0  0  0  0  0  0  0  0  0  0  0  0
  144.8420   73.6590  220.0650 C   0  0  0  0  0  0  0  0  0  0  0  0
  143.9830   74.6680  220.4510 C   0  0  0  0  0  0  0  0  0  0  0  0
  140.1670   70.9510  223.5510 C   0  0  0  0  0  0  0  0  0  0  0  0
  139.5410   69.7230  223.5030 C   0  0  0  0  0  0  0  0  0  0  0  0
  139.2910   69.0460  224.6810 C   0  0  0  0  0  0  0  0  0  0  0  0
  139.6790   69.6260  225.8840 C   0  0  0  0  0  0  0  0  0  0  0  0
  139.4320   68.9500  227.0830 C   0  0  0  0  0  0  0  0  0  0  0  0
  139.8280   69.5430  228.2860 C   0  0  0  0  0  0  0  0  0  0  0  0
  139.5980   68.9040  229.4730 F   0  0  0  0  0  0  0  0  0  0  0  0
  140.4510   70.7740  228.2860 C   0  0  0  0  0  0  0  0  0  0  0  0
  140.6880   71.4310  227.0790 C   0  0  0  0  0  0  0  0  0  0  0  0
  140.3030   70.8600  225.8690 C   0  0  0  0  0  0  0  0  0  0  0  0
  140.5440   71.5150  224.7130 N   0  0  0  0  0  0  0  0  0  0  0  0
  140.0080   73.5480  223.1040 H   0  0  0  0  0  0  0  0  0  0  0  0
  141.5305   73.4321  220.5930 H   0  0  0  0  0  0  0  0  0  0  0  0
  139.7406   73.4797  220.2726 H   0  0  0  0  0  0  0  0  0  0  0  0
  139.9893   75.9285  218.2149 H   0  0  0  0  0  0  0  0  0  0  0  0
  138.9287   76.3852  219.5694 H   0  0  0  0  0  0  0  0  0  0  0  0
  139.3884   78.3908  218.1903 H   0  0  0  0  0  0  0  0  0  0  0  0
  140.2036   78.6033  219.7396 H   0  0  0  0  0  0  0  0  0  0  0  0
  141.5064   77.2604  217.2895 H   0  0  0  0  0  0  0  0  0  0  0  0
  141.6979   78.9964  217.6650 H   0  0  0  0  0  0  0  0  0  0  0  0
  143.4991   77.4504  218.5088 H   0  0  0  0  0  0  0  0  0  0  0  0
  142.6491   78.5404  219.7435 H   0  0  0  0  0  0  0  0  0  0  0  0
  142.5324   76.8173  221.0140 H   0  0  0  0  0  0  0  0  0  0  0  0
  142.8893   75.6755  217.4400 H   0  0  0  0  0  0  0  0  0  0  0  0
  144.4123   73.8860  216.7329 H   0  0  0  0  0  0  0  0  0  0  0  0
  145.4670   71.5010  217.8990 H   0  0  0  0  0  0  0  0  0  0  0  0
  145.3953   73.0882  220.8253 H   0  0  0  0  0  0  0  0  0  0  0  0
  143.8730   74.8779  221.5252 H   0  0  0  0  0  0  0  0  0  0  0  0
  139.2441   69.2875  222.5375 H   0  0  0  0  0  0  0  0  0  0  0  0
  138.7936   68.0650  224.6677 H   0  0  0  0  0  0  0  0  0  0  0  0
  138.9348   67.9688  227.0799 H   0  0  0  0  0  0  0  0  0  0  0  0
  140.7599   71.2359  229.2353 H   0  0  0  0  0  0  0  0  0  0  0  0
  141.1851   72.4122  227.0830 H   0  0  0  0  0  0  0  0  0  0  0  0
  1  2  2  0
  2  3  1  0
  3  4  1  0
  4  5  1  0
  5  6  2  0
  5  7  1  0
  7  8  1  0
  8  9  1  0
  9 10  1  0
 10 11  1  0
 11 12  1  0
 12 13  1  0
 13 14  2  0
 14 15  1  0
 15 16  2  0
 16 17  1  0
 16 18  1  0
 18 19  2  0
  2 20  1  0
 20 21  2  0
 21 22  1  0
 22 23  2  0
 23 24  1  0
 24 25  2  0
 25 26  1  0
 25 27  1  0
 27 28  2  0
 28 29  1  0
 29 30  2  0
 12  7  1  0
 19 13  1  0
 30 20  1  0
 29 23  1  0
  3 31  1  0
  4 32  1  0
  4 33  1  0
  8 34  1  0
  8 35  1  0
  9 36  1  0
  9 37  1  0
 10 38  1  0
 10 39  1  0
 11 40  1  0
 11 41  1  0
 12 42  1  1
 14 43  1  0
 15 44  1  0
 17 45  1  0
 18 46  1  0
 19 47  1  0
 21 48  1  0
 22 49  1  0
 24 50  1  0
 27 51  1  0
 28 52  1  0
M  END
>  <smiles>  (46) 
O=C(NCC(=O)N1CCCCC1c1ccc(O)cc1)c1ccc2cc(F)ccc2n1

>  <score_type>  (46) 
oracle

>  <origin>  (46) 
autodockgpu

>  <m_score__min__energy>  (46) 
-8.8599999999999994

>  <m_primary>  (46) 
energy

>  <rmsd>  (46) 
1.781851925591542

>  <m_score__min__rmsd>  (46) 
1.781851925591542

>  <meeko>  (46) 
{"free_energy": -7.8, "intermolecular_energy": -9.59, "internal_energy": -1.89, "cluster_size": 19, "cluster_id": 1, "rank_in_cluster": 19}

>  <energy>  (46) 
-7.6

>  <cluster_rmsd>  (46) 
0.14

>  <cluster>  (46) 
4

$$$$

     RDKit          3D

 52 55  0  0  0  0  0  0  0  0999 V2000
  141.1130   71.9800  221.3070 O   0  0  0  0  0  0  0  0  0  0  0  0
  140.2800   72.2030  222.2360 C   0  0  0  0  0  0  0  0  0  0  0  0
  139.4340   73.3550  222.0620 N   0  0  0  0  0  0  0  0  0  0  0  0
  139.5510   74.1840  220.8960 C   0  0  0  0  0  0  0  0  0  0  0  0
  140.7620   75.0400  220.9260 C   0  0  0  0  0  0  0  0  0  0  0  0
  141.3180   75.2600  222.0530 O   0  0  0  0  0  0  0  0  0  0  0  0
  141.3200   75.6170  219.7530 N   0  0  0  0  0  0  0  0  0  0  0  0
  140.4310   75.7600  218.6130 C   0  0  0  0  0  0  0  0  0  0  0  0
  140.7400   77.0950  217.9670 C   0  0  0  0  0  0  0  0  0  0  0  0
  142.1550   76.9540  217.4400 C   0  0  0  0  0  0  0  0  0  0  0  0
  143.0790   76.9130  218.6020 C   0  0  0  0  0  0  0  0  0  0  0  0
  142.6960   76.0280  219.7320 C   0  0  2  0  0  0  0  0  0  0  0  0
  143.6570   74.8930  219.7360 C   0  0  0  0  0  0  0  0  0  0  0  0
  143.4260   73.7360  218.9790 C   0  0  0  0  0  0  0  0  0  0  0  0
  144.3110   72.6790  218.9770 C   0  0  0  0  0  0  0  0  0  0  0  0
  145.4680   72.7180  219.7260 C   0  0  0  0  0  0  0  0  0  0  0  0
  146.3230   71.6250  219.6880 O   0  0  0  0  0  0  0  0  0  0  0  0
  145.7180   73.8450  220.4810 C   0  0  0  0  0  0  0  0  0  0  0  0
  144.8240   74.8960  220.4740 C   0  0  0  0  0  0  0  0  0  0  0  0
  140.1720   71.3620  223.4000 C   0  0  0  0  0  0  0  0  0  0  0  0
  139.5680   70.1300  223.2680 C   0  0  0  0  0  0  0  0  0  0  0  0
  139.4570   69.3100  224.3740 C   0  0  0  0  0  0  0  0  0  0  0  0
  139.9580   69.7550  225.5930 C   0  0  0  0  0  0  0  0  0  0  0  0
  139.8520   68.9340  226.7200 C   0  0  0  0  0  0  0  0  0  0  0  0
  140.3610   69.3920  227.9390 C   0  0  0  0  0  0  0  0  0  0  0  0
  140.2690   68.6100  229.0570 F   0  0  0  0  0  0  0  0  0  0  0  0
  140.9580   70.6330  228.0250 C   0  0  0  0  0  0  0  0  0  0  0  0
  141.0540   71.4360  226.8880 C   0  0  0  0  0  0  0  0  0  0  0  0
  140.5540   71.0010  225.6640 C   0  0  0  0  0  0  0  0  0  0  0  0
  140.6600   71.7960  224.5780 N   0  0  0  0  0  0  0  0  0  0  0  0
  138.7530   73.5180  222.8440 H   0  0  0  0  0  0  0  0  0  0  0  0
  139.5979   73.5377  220.0071 H   0  0  0  0  0  0  0  0  0  0  0  0
  138.6739   74.8472  220.8684 H   0  0  0  0  0  0  0  0  0  0  0  0
  140.6050   74.9449  217.8951 H   0  0  0  0  0  0  0  0  0  0  0  0
  139.3789   75.7149  218.9309 H   0  0  0  0  0  0  0  0  0  0  0  0
  140.0389   77.2985  217.1442 H   0  0  0  0  0  0  0  0  0  0  0  0
  140.6429   77.9308  218.6756 H   0  0  0  0  0  0  0  0  0  0  0  0
  142.2454   76.0244  216.8589 H   0  0  0  0  0  0  0  0  0  0  0  0
  142.4038   77.8023  216.7854 H   0  0  0  0  0  0  0  0  0  0  0  0
  144.0604   76.5781  218.2350 H   0  0  0  0  0  0  0  0  0  0  0  0
  143.0647   77.9317  219.0169 H   0  0  0  0  0  0  0  0  0  0  0  0
  142.7642   76.5999  220.6692 H   0  0  0  0  0  0  0  0  0  0  0  0
  142.5128   73.6696  218.3694 H   0  0  0  0  0  0  0  0  0  0  0  0
  144.0905   71.7900  218.3679 H   0  0  0  0  0  0  0  0  0  0  0  0
  146.6040   71.1690  220.5510 H   0  0  0  0  0  0  0  0  0  0  0  0
  146.6320   73.9060  221.0900 H   0  0  0  0  0  0  0  0  0  0  0  0
  145.0524   75.7804  221.0869 H   0  0  0  0  0  0  0  0  0  0  0  0
  139.1786   69.8034  222.2925 H   0  0  0  0  0  0  0  0  0  0  0  0
  138.9806   68.3219  224.2922 H   0  0  0  0  0  0  0  0  0  0  0  0
  139.3763   67.9447  226.6487 H   0  0  0  0  0  0  0  0  0  0  0  0
  141.3569   70.9881  228.9867 H   0  0  0  0  0  0  0  0  0  0  0  0
  141.5306   72.4248  226.9598 H   0  0  0  0  0  0  0  0  0  0  0  0
  1  2  2  0
  2  3  1  0
  3  4  1  0
  4  5  1  0
  5  6  2  0
  5  7  1  0
  7  8  1  0
  8  9  1  0
  9 10  1  0
 10 11  1  0
 11 12  1  0
 12 13  1  0
 13 14  2  0
 14 15  1  0
 15 16  2  0
 16 17  1  0
 16 18  1  0
 18 19  2  0
  2 20  1  0
 20 21  2  0
 21 22  1  0
 22 23  2  0
 23 24  1  0
 24 25  2  0
 25 26  1  0
 25 27  1  0
 27 28  2  0
 28 29  1  0
 29 30  2  0
 12  7  1  0
 19 13  1  0
 30 20  1  0
 29 23  1  0
  3 31  1  0
  4 32  1  0
  4 33  1  0
  8 34  1  0
  8 35  1  0
  9 36  1  0
  9 37  1  0
 10 38  1  0
 10 39  1  0
 11 40  1  0
 11 41  1  0
 12 42  1  1
 14 43  1  0
 15 44  1  0
 17 45  1  0
 18 46  1  0
 19 47  1  0
 21 48  1  0
 22 49  1  0
 24 50  1  0
 27 51  1  0
 28 52  1  0
M  END
>  <smiles>  (47) 
O=C(NCC(=O)N1CCCCC1c1ccc(O)cc1)c1ccc2cc(F)ccc2n1

>  <score_type>  (47) 
oracle

>  <origin>  (47) 
autodockgpu

>  <m_score__min__energy>  (47) 
-8.8599999999999994

>  <m_primary>  (47) 
energy

>  <rmsd>  (47) 
1.567627946630865

>  <m_score__min__rmsd>  (47) 
1.567627946630865

>  <meeko>  (47) 
{"free_energy": -8.81, "intermolecular_energy": -10.6, "internal_energy": -1.56, "cluster_size": 19, "cluster_id": 1, "rank_in_cluster": 3}

>  <energy>  (47) 
-7.54

>  <cluster_rmsd>  (47) 
0.38

>  <cluster>  (47) 
4

$$$$

     RDKit          3D

 52 55  0  0  0  0  0  0  0  0999 V2000
  140.7480   77.4850  218.3140 O   0  0  0  0  0  0  0  0  0  0  0  0
  142.0000   77.4940  218.5130 C   0  0  0  0  0  0  0  0  0  0  0  0
  142.5920   78.7850  218.7500 N   0  0  0  0  0  0  0  0  0  0  0  0
  141.7870   79.9740  218.7530 C   0  0  0  0  0  0  0  0  0  0  0  0
  140.6910   79.9160  219.7500 C   0  0  0  0  0  0  0  0  0  0  0  0
  139.4990   79.7460  219.3290 O   0  0  0  0  0  0  0  0  0  0  0  0
  140.9220   80.0420  221.1470 N   0  0  0  0  0  0  0  0  0  0  0  0
  142.1570   80.6950  221.5460 C   0  0  0  0  0  0  0  0  0  0  0  0
  141.8350   81.5740  222.7370 C   0  0  0  0  0  0  0  0  0  0  0  0
  141.4410   80.6090  223.8390 C   0  0  0  0  0  0  0  0  0  0  0  0
  140.1260   80.0160  223.4840 C   0  0  0  0  0  0  0  0  0  0  0  0
  139.9600   79.5400  222.0870 C   0  0  2  0  0  0  0  0  0  0  0  0
  139.8990   78.0550  222.1430 C   0  0  0  0  0  0  0  0  0  0  0  0
  138.7130   77.3830  222.4740 C   0  0  0  0  0  0  0  0  0  0  0  0
  138.6470   76.0080  222.5270 C   0  0  0  0  0  0  0  0  0  0  0  0
  139.7540   75.2300  222.2570 C   0  0  0  0  0  0  0  0  0  0  0  0
  139.6310   73.8490  222.3270 O   0  0  0  0  0  0  0  0  0  0  0  0
  140.9330   75.8670  221.9290 C   0  0  0  0  0  0  0  0  0  0  0  0
  140.9850   77.2450  221.8780 C   0  0  0  0  0  0  0  0  0  0  0  0
  142.7950   76.2930  218.5080 C   0  0  0  0  0  0  0  0  0  0  0  0
  143.0150   75.6560  217.3040 C   0  0  0  0  0  0  0  0  0  0  0  0
  143.7760   74.5040  217.2800 C   0  0  0  0  0  0  0  0  0  0  0  0
  144.2980   74.0180  218.4740 C   0  0  0  0  0  0  0  0  0  0  0  0
  145.0700   72.8520  218.4610 C   0  0  0  0  0  0  0  0  0  0  0  0
  145.5900   72.3740  219.6680 C   0  0  0  0  0  0  0  0  0  0  0  0
  146.3480   71.2360  219.6840 F   0  0  0  0  0  0  0  0  0  0  0  0
  145.3440   73.0440  220.8490 C   0  0  0  0  0  0  0  0  0  0  0  0
  144.5710   74.2050  220.8390 C   0  0  0  0  0  0  0  0  0  0  0  0
  144.0440   74.7000  219.6490 C   0  0  0  0  0  0  0  0  0  0  0  0
  143.2990   75.8260  219.6650 N   0  0  0  0  0  0  0  0  0  0  0  0
  143.6290   78.7650  218.9120 H   0  0  0  0  0  0  0  0  0  0  0  0
  142.4306   80.8350  218.9862 H   0  0  0  0  0  0  0  0  0  0  0  0
  141.3284   80.0692  217.7577 H   0  0  0  0  0  0  0  0  0  0  0  0
  142.9082   79.9417  221.8258 H   0  0  0  0  0  0  0  0  0  0  0  0
  142.5670   81.2932  220.7190 H   0  0  0  0  0  0  0  0  0  0  0  0
  142.7163   82.1616  223.0339 H   0  0  0  0  0  0  0  0  0  0  0  0
  141.0363   82.2968  222.5143 H   0  0  0  0  0  0  0  0  0  0  0  0
  142.1968   79.8146  223.9270 H   0  0  0  0  0  0  0  0  0  0  0  0
  141.3739   81.1366  224.8019 H   0  0  0  0  0  0  0  0  0  0  0  0
  139.9579   79.1570  224.1502 H   0  0  0  0  0  0  0  0  0  0  0  0
  139.4014   80.8360  223.5961 H   0  0  0  0  0  0  0  0  0  0  0  0
  139.0260   79.9539  221.6791 H   0  0  0  0  0  0  0  0  0  0  0  0
  137.8103   77.9705  222.6975 H   0  0  0  0  0  0  0  0  0  0  0  0
  137.6956   75.5221  222.7890 H   0  0  0  0  0  0  0  0  0  0  0  0
  138.8260   73.4330  222.7870 H   0  0  0  0  0  0  0  0  0  0  0  0
  141.8334   75.2752  221.7077 H   0  0  0  0  0  0  0  0  0  0  0  0
  141.9400   77.7221  221.6128 H   0  0  0  0  0  0  0  0  0  0  0  0
  142.5892   76.0611  216.3742 H   0  0  0  0  0  0  0  0  0  0  0  0
  143.9662   73.9793  216.3321 H   0  0  0  0  0  0  0  0  0  0  0  0
  145.2648   72.3202  217.5180 H   0  0  0  0  0  0  0  0  0  0  0  0
  145.7562   72.6637  221.7953 H   0  0  0  0  0  0  0  0  0  0  0  0
  144.3754   74.7358  221.7824 H   0  0  0  0  0  0  0  0  0  0  0  0
  1  2  2  0
  2  3  1  0
  3  4  1  0
  4  5  1  0
  5  6  2  0
  5  7  1  0
  7  8  1  0
  8  9  1  0
  9 10  1  0
 10 11  1  0
 11 12  1  0
 12 13  1  0
 13 14  2  0
 14 15  1  0
 15 16  2  0
 16 17  1  0
 16 18  1  0
 18 19  2  0
  2 20  1  0
 20 21  2  0
 21 22  1  0
 22 23  2  0
 23 24  1  0
 24 25  2  0
 25 26  1  0
 25 27  1  0
 27 28  2  0
 28 29  1  0
 29 30  2  0
 12  7  1  0
 19 13  1  0
 30 20  1  0
 29 23  1  0
  3 31  1  0
  4 32  1  0
  4 33  1  0
  8 34  1  0
  8 35  1  0
  9 36  1  0
  9 37  1  0
 10 38  1  0
 10 39  1  0
 11 40  1  0
 11 41  1  0
 12 42  1  6
 14 43  1  0
 15 44  1  0
 17 45  1  0
 18 46  1  0
 19 47  1  0
 21 48  1  0
 22 49  1  0
 24 50  1  0
 27 51  1  0
 28 52  1  0
M  END
>  <smiles>  (48) 
O=C(NCC(=O)N1CCCCC1c1ccc(O)cc1)c1ccc2cc(F)ccc2n1

>  <score_type>  (48) 
oracle

>  <origin>  (48) 
autodockgpu

>  <m_score__min__energy>  (48) 
-8.8599999999999994

>  <m_primary>  (48) 
energy

>  <rmsd>  (48) 
8.147858987085208

>  <m_score__min__rmsd>  (48) 
8.147858987085208

>  <meeko>  (48) 
{"free_energy": -7.45, "intermolecular_energy": -9.24, "internal_energy": -2.03, "cluster_size": 2, "cluster_id": 5, "rank_in_cluster": 1}

>  <energy>  (48) 
-7.45

>  <cluster_rmsd>  (48) 
0.0

>  <cluster>  (48) 
5

$$$$

     RDKit          3D

 52 55  0  0  0  0  0  0  0  0999 V2000
  141.3500   72.9730  221.4870 O   0  0  0  0  0  0  0  0  0  0  0  0
  140.4110   72.9740  222.3380 C   0  0  0  0  0  0  0  0  0  0  0  0
  139.5690   74.1430  222.3480 N   0  0  0  0  0  0  0  0  0  0  0  0
  139.8050   75.2260  221.4350 C   0  0  0  0  0  0  0  0  0  0  0  0
  139.0810   76.4620  221.8190 C   0  0  0  0  0  0  0  0  0  0  0  0
  137.8060   76.4410  221.8120 O   0  0  0  0  0  0  0  0  0  0  0  0
  139.7530   77.6580  222.1920 N   0  0  0  0  0  0  0  0  0  0  0  0
  138.9230   78.7460  222.6780 C   0  0  0  0  0  0  0  0  0  0  0  0
  139.6610   79.3930  223.8320 C   0  0  0  0  0  0  0  0  0  0  0  0
  140.9050   79.9980  223.2090 C   0  0  0  0  0  0  0  0  0  0  0  0
  141.8050   78.8880  222.8040 C   0  0  0  0  0  0  0  0  0  0  0  0
  141.1820   77.7480  222.0830 C   0  0  2  0  0  0  0  0  0  0  0  0
  141.6700   77.8080  220.6790 C   0  0  0  0  0  0  0  0  0  0  0  0
  142.4000   76.7530  220.1130 C   0  0  0  0  0  0  0  0  0  0  0  0
  142.8560   76.7990  218.8140 C   0  0  0  0  0  0  0  0  0  0  0  0
  142.6130   77.8940  218.0120 C   0  0  0  0  0  0  0  0  0  0  0  0
  143.0970   77.8880  216.7110 O   0  0  0  0  0  0  0  0  0  0  0  0
  141.8970   78.9460  218.5450 C   0  0  0  0  0  0  0  0  0  0  0  0
  141.4460   78.8870  219.8480 C   0  0  0  0  0  0  0  0  0  0  0  0
  140.1850   71.8810  223.2480 C   0  0  0  0  0  0  0  0  0  0  0  0
  139.4650   70.7930  222.8020 C   0  0  0  0  0  0  0  0  0  0  0  0
  139.2400   69.7340  223.6600 C   0  0  0  0  0  0  0  0  0  0  0  0
  139.7470   69.7990  224.9540 C   0  0  0  0  0  0  0  0  0  0  0  0
  139.5250   68.7340  225.8320 C   0  0  0  0  0  0  0  0  0  0  0  0
  140.0410   68.8100  227.1290 C   0  0  0  0  0  0  0  0  0  0  0  0
  139.8380   67.7830  228.0090 F   0  0  0  0  0  0  0  0  0  0  0  0
  140.7560   69.9190  227.5330 C   0  0  0  0  0  0  0  0  0  0  0  0
  140.9650   70.9710  226.6410 C   0  0  0  0  0  0  0  0  0  0  0  0
  140.4620   70.9160  225.3440 C   0  0  0  0  0  0  0  0  0  0  0  0
  140.6780   71.9470  224.4990 N   0  0  0  0  0  0  0  0  0  0  0  0
  138.8000   74.1210  223.0610 H   0  0  0  0  0  0  0  0  0  0  0  0
  140.8836   75.4411  221.4145 H   0  0  0  0  0  0  0  0  0  0  0  0
  139.4350   74.9159  220.4466 H   0  0  0  0  0  0  0  0  0  0  0  0
  138.7585   79.4812  221.8765 H   0  0  0  0  0  0  0  0  0  0  0  0
  137.9411   78.3720  223.0036 H   0  0  0  0  0  0  0  0  0  0  0  0
  139.0423   80.1741  224.2979 H   0  0  0  0  0  0  0  0  0  0  0  0
  139.9042   78.6708  224.6252 H   0  0  0  0  0  0  0  0  0  0  0  0
  140.6280   80.5941  222.3270 H   0  0  0  0  0  0  0  0  0  0  0  0
  141.4117   80.6552  223.9311 H   0  0  0  0  0  0  0  0  0  0  0  0
  142.5812   79.3112  222.1495 H   0  0  0  0  0  0  0  0  0  0  0  0
  142.1782   78.4621  223.7470 H   0  0  0  0  0  0  0  0  0  0  0  0
  141.4941   76.8097  222.5649 H   0  0  0  0  0  0  0  0  0  0  0  0
  142.6146   75.8635  220.7236 H   0  0  0  0  0  0  0  0  0  0  0  0
  143.4236   75.9479  218.4097 H   0  0  0  0  0  0  0  0  0  0  0  0
  143.6930   78.6440  216.3870 H   0  0  0  0  0  0  0  0  0  0  0  0
  141.6852   79.8333  217.9303 H   0  0  0  0  0  0  0  0  0  0  0  0
  140.8796   79.7428  220.2441 H   0  0  0  0  0  0  0  0  0  0  0  0
  139.0740   70.7685  221.7741 H   0  0  0  0  0  0  0  0  0  0  0  0
  138.6699   68.8546  223.3259 H   0  0  0  0  0  0  0  0  0  0  0  0
  138.9541   67.8514  225.5079 H   0  0  0  0  0  0  0  0  0  0  0  0
  141.1597   69.9733  228.5548 H   0  0  0  0  0  0  0  0  0  0  0  0
  141.5340   71.8545  226.9663 H   0  0  0  0  0  0  0  0  0  0  0  0
  1  2  2  0
  2  3  1  0
  3  4  1  0
  4  5  1  0
  5  6  2  0
  5  7  1  0
  7  8  1  0
  8  9  1  0
  9 10  1  0
 10 11  1  0
 11 12  1  0
 12 13  1  0
 13 14  2  0
 14 15  1  0
 15 16  2  0
 16 17  1  0
 16 18  1  0
 18 19  2  0
  2 20  1  0
 20 21  2  0
 21 22  1  0
 22 23  2  0
 23 24  1  0
 24 25  2  0
 25 26  1  0
 25 27  1  0
 27 28  2  0
 28 29  1  0
 29 30  2  0
 12  7  1  0
 19 13  1  0
 30 20  1  0
 29 23  1  0
  3 31  1  0
  4 32  1  0
  4 33  1  0
  8 34  1  0
  8 35  1  0
  9 36  1  0
  9 37  1  0
 10 38  1  0
 10 39  1  0
 11 40  1  0
 11 41  1  0
 12 42  1  1
 14 43  1  0
 15 44  1  0
 17 45  1  0
 18 46  1  0
 19 47  1  0
 21 48  1  0
 22 49  1  0
 24 50  1  0
 27 51  1  0
 28 52  1  0
M  END
>  <smiles>  (49) 
O=C(NCC(=O)N1CCCCC1c1ccc(O)cc1)c1ccc2cc(F)ccc2n1

>  <score_type>  (49) 
oracle

>  <origin>  (49) 
autodockgpu

>  <m_score__min__energy>  (49) 
-8.8599999999999994

>  <m_primary>  (49) 
energy

>  <rmsd>  (49) 
3.557283095911233

>  <m_score__min__rmsd>  (49) 
3.557283095911233

>  <meeko>  (49) 
{"free_energy": -8.71, "intermolecular_energy": -10.5, "internal_energy": -1.37, "cluster_size": 10, "cluster_id": 2, "rank_in_cluster": 4}

>  <energy>  (49) 
-7.0

>  <cluster_rmsd>  (49) 
0.59

>  <cluster>  (49) 
5

$$$$

     RDKit          3D

 52 55  0  0  0  0  0  0  0  0999 V2000
  138.0940   70.6590  221.8160 O   0  0  0  0  0  0  0  0  0  0  0  0
  138.7490   71.1260  222.7960 C   0  0  0  0  0  0  0  0  0  0  0  0
  139.1000   72.5200  222.7140 N   0  0  0  0  0  0  0  0  0  0  0  0
  138.7160   73.3090  221.5770 C   0  0  0  0  0  0  0  0  0  0  0  0
  139.2520   74.6910  221.6360 C   0  0  0  0  0  0  0  0  0  0  0  0
  140.2950   74.9050  222.3390 O   0  0  0  0  0  0  0  0  0  0  0  0
  138.6480   75.7750  220.9430 N   0  0  0  0  0  0  0  0  0  0  0  0
  138.2850   75.5380  219.5560 C   0  0  0  0  0  0  0  0  0  0  0  0
  136.9490   76.2120  219.3210 C   0  0  0  0  0  0  0  0  0  0  0  0
  137.2250   77.6940  219.4840 C   0  0  0  0  0  0  0  0  0  0  0  0
  137.4950   77.9580  220.9210 C   0  0  0  0  0  0  0  0  0  0  0  0
  138.4210   77.0250  221.6120 C   0  0  2  0  0  0  0  0  0  0  0  0
  139.6690   77.7850  221.8930 C   0  0  0  0  0  0  0  0  0  0  0  0
  139.8500   78.4700  223.1030 C   0  0  0  0  0  0  0  0  0  0  0  0
  141.0020   79.1770  223.3720 C   0  0  0  0  0  0  0  0  0  0  0  0
  142.0300   79.2410  222.4550 C   0  0  0  0  0  0  0  0  0  0  0  0
  143.1670   79.9680  222.7790 O   0  0  0  0  0  0  0  0  0  0  0  0
  141.8760   78.5760  221.2560 C   0  0  0  0  0  0  0  0  0  0  0  0
  140.7170   77.8710  221.0000 C   0  0  0  0  0  0  0  0  0  0  0  0
  139.1270   70.3240  223.9310 C   0  0  0  0  0  0  0  0  0  0  0  0
  138.8550   68.9720  223.8990 C   0  0  0  0  0  0  0  0  0  0  0  0
  139.2100   68.1860  224.9780 C   0  0  0  0  0  0  0  0  0  0  0  0
  139.8330   68.7850  226.0690 C   0  0  0  0  0  0  0  0  0  0  0  0
  140.1980   68.0000  227.1660 C   0  0  0  0  0  0  0  0  0  0  0  0
  140.8240   68.6130  228.2560 C   0  0  0  0  0  0  0  0  0  0  0  0
  141.1910   67.8690  229.3430 F   0  0  0  0  0  0  0  0  0  0  0  0
  141.0770   69.9690  228.2440 C   0  0  0  0  0  0  0  0  0  0  0  0
  140.7040   70.7340  227.1390 C   0  0  0  0  0  0  0  0  0  0  0  0
  140.0800   70.1450  226.0420 C   0  0  0  0  0  0  0  0  0  0  0  0
  139.7300   70.9060  224.9840 N   0  0  0  0  0  0  0  0  0  0  0  0
  139.6410   72.8830  223.5360 H   0  0  0  0  0  0  0  0  0  0  0  0
  139.0949   72.8225  220.6661 H   0  0  0  0  0  0  0  0  0  0  0  0
  137.6181   73.3767  221.5732 H   0  0  0  0  0  0  0  0  0  0  0  0
  139.0464   75.9677  218.8885 H   0  0  0  0  0  0  0  0  0  0  0  0
  138.2202   74.4598  219.3482 H   0  0  0  0  0  0  0  0  0  0  0  0
  136.5798   75.9964  218.3075 H   0  0  0  0  0  0  0  0  0  0  0  0
  136.1772   75.8555  220.0190 H   0  0  0  0  0  0  0  0  0  0  0  0
  138.1004   77.9787  218.8817 H   0  0  0  0  0  0  0  0  0  0  0  0
  136.3598   78.2823  219.1445 H   0  0  0  0  0  0  0  0  0  0  0  0
  137.9220   78.9688  220.9989 H   0  0  0  0  0  0  0  0  0  0  0  0
  136.5258   77.8261  221.4243 H   0  0  0  0  0  0  0  0  0  0  0  0
  137.9508   76.6869  222.5472 H   0  0  0  0  0  0  0  0  0  0  0  0
  139.0507   78.4423  223.8582 H   0  0  0  0  0  0  0  0  0  0  0  0
  141.1032   79.6993  224.3348 H   0  0  0  0  0  0  0  0  0  0  0  0
  144.0550   79.7480  222.3350 H   0  0  0  0  0  0  0  0  0  0  0  0
  142.6775   78.6076  220.5033 H   0  0  0  0  0  0  0  0  0  0  0  0
  140.6244   77.3514  220.0349 H   0  0  0  0  0  0  0  0  0  0  0  0
  138.3608   68.5248  223.0239 H   0  0  0  0  0  0  0  0  0  0  0  0
  139.0039   67.1055  224.9750 H   0  0  0  0  0  0  0  0  0  0  0  0
  139.9964   66.9186  227.1720 H   0  0  0  0  0  0  0  0  0  0  0  0
  141.5714   70.4455  229.1033 H   0  0  0  0  0  0  0  0  0  0  0  0
  140.9051   71.8155  227.1339 H   0  0  0  0  0  0  0  0  0  0  0  0
  1  2  2  0
  2  3  1  0
  3  4  1  0
  4  5  1  0
  5  6  2  0
  5  7  1  0
  7  8  1  0
  8  9  1  0
  9 10  1  0
 10 11  1  0
 11 12  1  0
 12 13  1  0
 13 14  2  0
 14 15  1  0
 15 16  2  0
 16 17  1  0
 16 18  1  0
 18 19  2  0
  2 20  1  0
 20 21  2  0
 21 22  1  0
 22 23  2  0
 23 24  1  0
 24 25  2  0
 25 26  1  0
 25 27  1  0
 27 28  2  0
 28 29  1  0
 29 30  2  0
 12  7  1  0
 19 13  1  0
 30 20  1  0
 29 23  1  0
  3 31  1  0
  4 32  1  0
  4 33  1  0
  8 34  1  0
  8 35  1  0
  9 36  1  0
  9 37  1  0
 10 38  1  0
 10 39  1  0
 11 40  1  0
 11 41  1  0
 12 42  1  1
 14 43  1  0
 15 44  1  0
 17 45  1  0
 18 46  1  0
 19 47  1  0
 21 48  1  0
 22 49  1  0
 24 50  1  0
 27 51  1  0
 28 52  1  0
M  END
>  <smiles>  (50) 
O=C(NCC(=O)N1CCCCC1c1ccc(O)cc1)c1ccc2cc(F)ccc2n1

>  <score_type>  (50) 
oracle

>  <origin>  (50) 
autodockgpu

>  <m_score__min__energy>  (50) 
-8.8599999999999994

>  <m_primary>  (50) 
energy

>  <rmsd>  (50) 
2.2180891633298203

>  <m_score__min__rmsd>  (50) 
2.2180891633298203

>  <meeko>  (50) 
{"free_energy": -7.81, "intermolecular_energy": -9.6, "internal_energy": -1.85, "cluster_size": 14, "cluster_id": 3, "rank_in_cluster": 14}

>  <energy>  (50) 
-7.18

>  <cluster_rmsd>  (50) 
0.0

>  <cluster>  (50) 
6

$$$$

     RDKit          3D

 52 55  0  0  0  0  0  0  0  0999 V2000
  139.8810   73.3440  222.7190 O   0  0  0  0  0  0  0  0  0  0  0  0
  140.2330   72.1460  222.5780 C   0  0  0  0  0  0  0  0  0  0  0  0
  140.7300   71.7000  221.2970 N   0  0  0  0  0  0  0  0  0  0  0  0
  140.8520   72.5290  220.1510 C   0  0  0  0  0  0  0  0  0  0  0  0
  139.9700   73.6270  219.8620 C   0  0  0  0  0  0  0  0  0  0  0  0
  138.8180   73.2090  219.3400 O   0  0  0  0  0  0  0  0  0  0  0  0
  140.0320   75.0060  220.0010 N   0  0  0  0  0  0  0  0  0  0  0  0
  138.9610   75.9850  219.8250 C   0  0  0  0  0  0  0  0  0  0  0  0
  138.8870   76.8560  221.0670 C   0  0  0  0  0  0  0  0  0  0  0  0
  139.6750   76.2590  222.2070 C   0  0  0  0  0  0  0  0  0  0  0  0
  141.1010   76.0750  221.8120 C   0  0  0  0  0  0  0  0  0  0  0  0
  141.2900   75.6820  220.4010 C   0  0  1  0  0  0  0  0  0  0  0  0
  142.5040   74.9980  220.0190 C   0  0  0  0  0  0  0  0  0  0  0  0
  143.3540   74.3010  220.8460 C   0  0  0  0  0  0  0  0  0  0  0  0
  144.5160   73.6960  220.4250 C   0  0  0  0  0  0  0  0  0  0  0  0
  144.8930   73.7660  219.1050 C   0  0  0  0  0  0  0  0  0  0  0  0
  146.0400   73.1900  218.6010 O   0  0  0  0  0  0  0  0  0  0  0  0
  144.0610   74.4590  218.2510 C   0  0  0  0  0  0  0  0  0  0  0  0
  142.8970   75.0640  218.6730 C   0  0  0  0  0  0  0  0  0  0  0  0
  140.1370   71.2130  223.7120 C   0  0  0  0  0  0  0  0  0  0  0  0
  139.5220   70.0010  223.5300 C   0  0  0  0  0  0  0  0  0  0  0  0
  139.4440   69.1380  224.6170 C   0  0  0  0  0  0  0  0  0  0  0  0
  139.9710   69.4810  225.8580 C   0  0  0  0  0  0  0  0  0  0  0  0
  139.9020   68.6360  226.9480 C   0  0  0  0  0  0  0  0  0  0  0  0
  140.4450   69.0520  228.1340 C   0  0  0  0  0  0  0  0  0  0  0  0
  140.4020   68.2510  229.2380 F   0  0  0  0  0  0  0  0  0  0  0  0
  141.0510   70.2920  228.2430 C   0  0  0  0  0  0  0  0  0  0  0  0
  141.1360   71.1660  227.1620 C   0  0  0  0  0  0  0  0  0  0  0  0
  140.5770   70.7130  225.9810 C   0  0  0  0  0  0  0  0  0  0  0  0
  140.6430   71.5370  224.9180 N   0  0  0  0  0  0  0  0  0  0  0  0
  140.9980   70.6670  221.2980 H   0  0  0  0  0  0  0  0  0  0  0  0
  141.8622   72.9615  220.2005 H   0  0  0  0  0  0  0  0  0  0  0  0
  140.5828   71.8245  219.3502 H   0  0  0  0  0  0  0  0  0  0  0  0
  139.1731   76.6114  218.9460 H   0  0  0  0  0  0  0  0  0  0  0  0
  138.0022   75.4677  219.6729 H   0  0  0  0  0  0  0  0  0  0  0  0
  139.2953   77.8499  220.8317 H   0  0  0  0  0  0  0  0  0  0  0  0
  137.8337   76.9293  221.3757 H   0  0  0  0  0  0  0  0  0  0  0  0
  139.6233   76.9323  223.0753 H   0  0  0  0  0  0  0  0  0  0  0  0
  139.2460   75.2790  222.4630 H   0  0  0  0  0  0  0  0  0  0  0  0
  141.6313   77.0239  221.9803 H   0  0  0  0  0  0  0  0  0  0  0  0
  141.4966   75.2525  222.4260 H   0  0  0  0  0  0  0  0  0  0  0  0
  141.4776   76.5968  219.8197 H   0  0  0  0  0  0  0  0  0  0  0  0
  143.0882   74.2224  221.9105 H   0  0  0  0  0  0  0  0  0  0  0  0
  145.1451   73.1547  221.1470 H   0  0  0  0  0  0  0  0  0  0  0  0
  146.7940   73.7700  218.2330 H   0  0  0  0  0  0  0  0  0  0  0  0
  144.3380   74.5319  217.1889 H   0  0  0  0  0  0  0  0  0  0  0  0
  142.2699   75.6038  217.9482 H   0  0  0  0  0  0  0  0  0  0  0  0
  139.1027   69.7199  222.5527 H   0  0  0  0  0  0  0  0  0  0  0  0
  138.9541   68.1610  224.4930 H   0  0  0  0  0  0  0  0  0  0  0  0
  139.4212   67.6501  226.8652 H   0  0  0  0  0  0  0  0  0  0  0  0
  141.4773   70.5954  229.2106 H   0  0  0  0  0  0  0  0  0  0  0  0
  141.6164   72.1523  227.2424 H   0  0  0  0  0  0  0  0  0  0  0  0
  1  2  2  0
  2  3  1  0
  3  4  1  0
  4  5  1  0
  5  6  2  0
  5  7  1  0
  7  8  1  0
  8  9  1  0
  9 10  1  0
 10 11  1  0
 11 12  1  0
 12 13  1  0
 13 14  2  0
 14 15  1  0
 15 16  2  0
 16 17  1  0
 16 18  1  0
 18 19  2  0
  2 20  1  0
 20 21  2  0
 21 22  1  0
 22 23  2  0
 23 24  1  0
 24 25  2  0
 25 26  1  0
 25 27  1  0
 27 28  2  0
 28 29  1  0
 29 30  2  0
 12  7  1  0
 19 13  1  0
 30 20  1  0
 29 23  1  0
  3 31  1  0
  4 32  1  0
  4 33  1  0
  8 34  1  0
  8 35  1  0
  9 36  1  0
  9 37  1  0
 10 38  1  0
 10 39  1  0
 11 40  1  0
 11 41  1  0
 12 42  1  6
 14 43  1  0
 15 44  1  0
 17 45  1  0
 18 46  1  0
 19 47  1  0
 21 48  1  0
 22 49  1  0
 24 50  1  0
 27 51  1  0
 28 52  1  0
M  END
>  <smiles>  (51) 
O=C(NCC(=O)N1CCCCC1c1ccc(O)cc1)c1ccc2cc(F)ccc2n1

>  <score_type>  (51) 
oracle

>  <origin>  (51) 
autodockgpu

>  <m_score__min__energy>  (51) 
-8.4199999999999999

>  <m_primary>  (51) 
energy

>  <rmsd>  (51) 
2.5281223622007234

>  <m_score__min__rmsd>  (51) 
2.5281223622007234

>  <meeko>  (51) 
{"free_energy": -7.94, "intermolecular_energy": -9.73, "internal_energy": -1.45, "cluster_size": 22, "cluster_id": 1, "rank_in_cluster": 8}

>  <energy>  (51) 
-8.42

>  <cluster_rmsd>  (51) 
0.0

>  <cluster>  (51) 
1

$$$$

     RDKit          3D

 52 55  0  0  0  0  0  0  0  0999 V2000
  139.5280   71.4290  221.1180 O   0  0  0  0  0  0  0  0  0  0  0  0
  139.5850   71.9410  222.2640 C   0  0  0  0  0  0  0  0  0  0  0  0
  139.4980   73.3770  222.4030 N   0  0  0  0  0  0  0  0  0  0  0  0
  139.3540   74.2810  221.3170 C   0  0  0  0  0  0  0  0  0  0  0  0
  140.3020   75.3180  221.0090 C   0  0  0  0  0  0  0  0  0  0  0  0
  141.0960   75.5830  222.0460 O   0  0  0  0  0  0  0  0  0  0  0  0
  140.5860   76.0970  219.8970 N   0  0  0  0  0  0  0  0  0  0  0  0
  139.6980   77.0050  219.1750 C   0  0  0  0  0  0  0  0  0  0  0  0
  140.3700   78.3630  219.0660 C   0  0  0  0  0  0  0  0  0  0  0  0
  141.5550   78.4660  219.9950 C   0  0  0  0  0  0  0  0  0  0  0  0
  142.5470   77.3940  219.6940 C   0  0  0  0  0  0  0  0  0  0  0  0
  141.9410   76.1090  219.2920 C   0  0  1  0  0  0  0  0  0  0  0  0
  142.7000   74.8910  219.4610 C   0  0  0  0  0  0  0  0  0  0  0  0
  142.3320   73.6270  219.0630 C   0  0  0  0  0  0  0  0  0  0  0  0
  143.0880   72.4980  219.2830 C   0  0  0  0  0  0  0  0  0  0  0  0
  144.2930   72.5890  219.9370 C   0  0  0  0  0  0  0  0  0  0  0  0
  145.1100   71.5100  220.1990 O   0  0  0  0  0  0  0  0  0  0  0  0
  144.6890   73.8440  220.3490 C   0  0  0  0  0  0  0  0  0  0  0  0
  143.9320   74.9740  220.1290 C   0  0  0  0  0  0  0  0  0  0  0  0
  139.7370   71.0810  223.4470 C   0  0  0  0  0  0  0  0  0  0  0  0
  139.3690   69.7620  223.3670 C   0  0  0  0  0  0  0  0  0  0  0  0
  139.5230   68.9710  224.5000 C   0  0  0  0  0  0  0  0  0  0  0  0
  140.0340   69.4880  225.6860 C   0  0  0  0  0  0  0  0  0  0  0  0
  140.1930   68.7160  226.8190 C   0  0  0  0  0  0  0  0  0  0  0  0
  140.7030   69.3040  227.9460 C   0  0  0  0  0  0  0  0  0  0  0  0
  140.8790   68.5820  229.0900 F   0  0  0  0  0  0  0  0  0  0  0  0
  141.0530   70.6430  227.9520 C   0  0  0  0  0  0  0  0  0  0  0  0
  140.9040   71.4480  226.8260 C   0  0  0  0  0  0  0  0  0  0  0  0
  140.3870   70.8200  225.7070 C   0  0  0  0  0  0  0  0  0  0  0  0
  140.2310   71.5730  224.6010 N   0  0  0  0  0  0  0  0  0  0  0  0
  139.5550   73.6950  223.4200 H   0  0  0  0  0  0  0  0  0  0  0  0
  139.2899   73.6562  220.4139 H   0  0  0  0  0  0  0  0  0  0  0  0
  138.4904   74.8756  221.6496 H   0  0  0  0  0  0  0  0  0  0  0  0
  139.5020   76.6076  218.1682 H   0  0  0  0  0  0  0  0  0  0  0  0
  138.7441   77.1022  219.7141 H   0  0  0  0  0  0  0  0  0  0  0  0
  140.7123   78.5111  218.0312 H   0  0  0  0  0  0  0  0  0  0  0  0
  139.6394   79.1350  219.3492 H   0  0  0  0  0  0  0  0  0  0  0  0
  142.0326   79.4484  219.8655 H   0  0  0  0  0  0  0  0  0  0  0  0
  141.2066   78.3485  221.0317 H   0  0  0  0  0  0  0  0  0  0  0  0
  143.1943   77.7420  218.8755 H   0  0  0  0  0  0  0  0  0  0  0  0
  143.1033   77.2057  220.6241 H   0  0  0  0  0  0  0  0  0  0  0  0
  141.9098   76.0823  218.1928 H   0  0  0  0  0  0  0  0  0  0  0  0
  141.3735   73.5110  218.5359 H   0  0  0  0  0  0  0  0  0  0  0  0
  142.7263   71.5195  218.9341 H   0  0  0  0  0  0  0  0  0  0  0  0
  145.8840   71.5920  220.8580 H   0  0  0  0  0  0  0  0  0  0  0  0
  145.6494   73.9473  220.8753 H   0  0  0  0  0  0  0  0  0  0  0  0
  144.2965   75.9506  220.4801 H   0  0  0  0  0  0  0  0  0  0  0  0
  138.9641   69.3426  222.4342 H   0  0  0  0  0  0  0  0  0  0  0  0
  139.2337   67.9106  224.4575 H   0  0  0  0  0  0  0  0  0  0  0  0
  139.9161   67.6514  226.8169 H   0  0  0  0  0  0  0  0  0  0  0  0
  141.4608   71.0841  228.8735 H   0  0  0  0  0  0  0  0  0  0  0  0
  141.1792   72.5130  226.8261 H   0  0  0  0  0  0  0  0  0  0  0  0
  1  2  2  0
  2  3  1  0
  3  4  1  0
  4  5  1  0
  5  6  2  0
  5  7  1  0
  7  8  1  0
  8  9  1  0
  9 10  1  0
 10 11  1  0
 11 12  1  0
 12 13  1  0
 13 14  2  0
 14 15  1  0
 15 16  2  0
 16 17  1  0
 16 18  1  0
 18 19  2  0
  2 20  1  0
 20 21  2  0
 21 22  1  0
 22 23  2  0
 23 24  1  0
 24 25  2  0
 25 26  1  0
 25 27  1  0
 27 28  2  0
 28 29  1  0
 29 30  2  0
 12  7  1  0
 19 13  1  0
 30 20  1  0
 29 23  1  0
  3 31  1  0
  4 32  1  0
  4 33  1  0
  8 34  1  0
  8 35  1  0
  9 36  1  0
  9 37  1  0
 10 38  1  0
 10 39  1  0
 11 40  1  0
 11 41  1  0
 12 42  1  6
 14 43  1  0
 15 44  1  0
 17 45  1  0
 18 46  1  0
 19 47  1  0
 21 48  1  0
 22 49  1  0
 24 50  1  0
 27 51  1  0
 28 52  1  0
M  END
>  <smiles>  (52) 
O=C(NCC(=O)N1CCCCC1c1ccc(O)cc1)c1ccc2cc(F)ccc2n1

>  <score_type>  (52) 
oracle

>  <origin>  (52) 
autodockgpu

>  <m_score__min__energy>  (52) 
-8.4199999999999999

>  <m_primary>  (52) 
energy

>  <rmsd>  (52) 
1.7332442172126998

>  <m_score__min__rmsd>  (52) 
1.7332442172126998

>  <meeko>  (52) 
{"free_energy": -7.55, "intermolecular_energy": -9.34, "internal_energy": -1.78, "cluster_size": 22, "cluster_id": 1, "rank_in_cluster": 16}

>  <energy>  (52) 
-8.29

>  <cluster_rmsd>  (52) 
1.04

>  <cluster>  (52) 
1

$$$$

     RDKit          3D

 52 55  0  0  0  0  0  0  0  0999 V2000
  140.6980   76.5550  218.6260 O   0  0  0  0  0  0  0  0  0  0  0  0
  141.9070   76.5420  218.9690 C   0  0  0  0  0  0  0  0  0  0  0  0
  142.5360   77.7720  219.3950 N   0  0  0  0  0  0  0  0  0  0  0  0
  141.8790   79.0290  219.4540 C   0  0  0  0  0  0  0  0  0  0  0  0
  141.4660   79.6590  220.6790 C   0  0  0  0  0  0  0  0  0  0  0  0
  140.4300   80.4740  220.4890 O   0  0  0  0  0  0  0  0  0  0  0  0
  141.8850   79.6150  222.0010 N   0  0  0  0  0  0  0  0  0  0  0  0
  143.0000   80.3240  222.6230 C   0  0  0  0  0  0  0  0  0  0  0  0
  142.4870   81.0630  223.8470 C   0  0  0  0  0  0  0  0  0  0  0  0
  140.9800   81.1250  223.8610 C   0  0  0  0  0  0  0  0  0  0  0  0
  140.4030   79.7500  223.8320 C   0  0  0  0  0  0  0  0  0  0  0  0
  141.1680   78.7930  223.0080 C   0  0  1  0  0  0  0  0  0  0  0  0
  140.4980   77.6250  222.4830 C   0  0  0  0  0  0  0  0  0  0  0  0
  141.0650   76.4020  222.2110 C   0  0  0  0  0  0  0  0  0  0  0  0
  140.3780   75.3340  221.6800 C   0  0  0  0  0  0  0  0  0  0  0  0
  139.0390   75.4500  221.3870 C   0  0  0  0  0  0  0  0  0  0  0  0
  138.2780   74.4320  220.8540 O   0  0  0  0  0  0  0  0  0  0  0  0
  138.4440   76.6660  221.6490 C   0  0  0  0  0  0  0  0  0  0  0  0
  139.1320   77.7340  222.1810 C   0  0  0  0  0  0  0  0  0  0  0  0
  142.6670   75.2830  218.9360 C   0  0  0  0  0  0  0  0  0  0  0  0
  142.2550   74.2750  218.1040 C   0  0  0  0  0  0  0  0  0  0  0  0
  142.9910   73.0950  218.0910 C   0  0  0  0  0  0  0  0  0  0  0  0
  144.1150   72.9290  218.8940 C   0  0  0  0  0  0  0  0  0  0  0  0
  144.8560   71.7650  218.8940 C   0  0  0  0  0  0  0  0  0  0  0  0
  145.9500   71.6850  219.7150 C   0  0  0  0  0  0  0  0  0  0  0  0
  146.7140   70.5550  219.7480 F   0  0  0  0  0  0  0  0  0  0  0  0
  146.3070   72.7460  220.5280 C   0  0  0  0  0  0  0  0  0  0  0  0
  145.5790   73.9330  220.5510 C   0  0  0  0  0  0  0  0  0  0  0  0
  144.4820   73.9780  219.7100 C   0  0  0  0  0  0  0  0  0  0  0  0
  143.7580   75.1130  219.7100 N   0  0  0  0  0  0  0  0  0  0  0  0
  143.5590   77.6370  219.6640 H   0  0  0  0  0  0  0  0  0  0  0  0
  142.5561   79.7438  218.9635 H   0  0  0  0  0  0  0  0  0  0  0  0
  140.9058   78.7800  219.0058 H   0  0  0  0  0  0  0  0  0  0  0  0
  143.7749   79.6035  222.9237 H   0  0  0  0  0  0  0  0  0  0  0  0
  143.4339   81.0392  221.9086 H   0  0  0  0  0  0  0  0  0  0  0  0
  142.8321   80.5404  224.7513 H   0  0  0  0  0  0  0  0  0  0  0  0
  142.8755   82.0917  223.8184 H   0  0  0  0  0  0  0  0  0  0  0  0
  140.6468   81.6387  224.7748 H   0  0  0  0  0  0  0  0  0  0  0  0
  140.6371   81.6748  222.9721 H   0  0  0  0  0  0  0  0  0  0  0  0
  140.3686   79.3679  224.8629 H   0  0  0  0  0  0  0  0  0  0  0  0
  139.4051   79.8340  223.3768 H   0  0  0  0  0  0  0  0  0  0  0  0
  141.8551   78.2506  223.6741 H   0  0  0  0  0  0  0  0  0  0  0  0
  142.1344   76.2689  222.4316 H   0  0  0  0  0  0  0  0  0  0  0  0
  140.9011   74.3853  221.4894 H   0  0  0  0  0  0  0  0  0  0  0  0
  137.5030   74.6380  220.2240 H   0  0  0  0  0  0  0  0  0  0  0  0
  137.3743   76.7883  221.4235 H   0  0  0  0  0  0  0  0  0  0  0  0
  138.6058   78.6811  222.3709 H   0  0  0  0  0  0  0  0  0  0  0  0
  141.3679   74.3957  217.4649 H   0  0  0  0  0  0  0  0  0  0  0  0
  142.6770   72.2735  217.4302 H   0  0  0  0  0  0  0  0  0  0  0  0
  144.5745   70.9197  218.2489 H   0  0  0  0  0  0  0  0  0  0  0  0
  147.1914   72.6492  221.1749 H   0  0  0  0  0  0  0  0  0  0  0  0
  145.8582   74.7793  221.1958 H   0  0  0  0  0  0  0  0  0  0  0  0
  1  2  2  0
  2  3  1  0
  3  4  1  0
  4  5  1  0
  5  6  2  0
  5  7  1  0
  7  8  1  0
  8  9  1  0
  9 10  1  0
 10 11  1  0
 11 12  1  0
 12 13  1  0
 13 14  2  0
 14 15  1  0
 15 16  2  0
 16 17  1  0
 16 18  1  0
 18 19  2  0
  2 20  1  0
 20 21  2  0
 21 22  1  0
 22 23  2  0
 23 24  1  0
 24 25  2  0
 25 26  1  0
 25 27  1  0
 27 28  2  0
 28 29  1  0
 29 30  2  0
 12  7  1  0
 19 13  1  0
 30 20  1  0
 29 23  1  0
  3 31  1  0
  4 32  1  0
  4 33  1  0
  8 34  1  0
  8 35  1  0
  9 36  1  0
  9 37  1  0
 10 38  1  0
 10 39  1  0
 11 40  1  0
 11 41  1  0
 12 42  1  1
 14 43  1  0
 15 44  1  0
 17 45  1  0
 18 46  1  0
 19 47  1  0
 21 48  1  0
 22 49  1  0
 24 50  1  0
 27 51  1  0
 28 52  1  0
M  END
>  <smiles>  (53) 
O=C(NCC(=O)N1CCCCC1c1ccc(O)cc1)c1ccc2cc(F)ccc2n1

>  <score_type>  (53) 
oracle

>  <origin>  (53) 
autodockgpu

>  <m_score__min__energy>  (53) 
-8.4199999999999999

>  <m_primary>  (53) 
energy

>  <rmsd>  (53) 
7.763781520370689

>  <m_score__min__rmsd>  (53) 
7.763781520370689

>  <meeko>  (53) 
{"free_energy": -6.62, "intermolecular_energy": -8.41, "internal_energy": -2.3, "cluster_size": 4, "cluster_id": 6, "rank_in_cluster": 3}

>  <energy>  (53) 
-8.23

>  <cluster_rmsd>  (53) 
1.18

>  <cluster>  (53) 
1

$$$$

     RDKit          3D

 52 55  0  0  0  0  0  0  0  0999 V2000
  139.6610   71.2440  221.1030 O   0  0  0  0  0  0  0  0  0  0  0  0
  139.6550   71.7760  222.2420 C   0  0  0  0  0  0  0  0  0  0  0  0
  139.5320   73.2120  222.3520 N   0  0  0  0  0  0  0  0  0  0  0  0
  139.4180   74.0940  221.2460 C   0  0  0  0  0  0  0  0  0  0  0  0
  140.1440   75.3300  221.1310 C   0  0  0  0  0  0  0  0  0  0  0  0
  140.6120   75.7370  222.3100 O   0  0  0  0  0  0  0  0  0  0  0  0
  140.4730   76.1880  220.0920 N   0  0  0  0  0  0  0  0  0  0  0  0
  139.6240   77.1740  219.4260 C   0  0  0  0  0  0  0  0  0  0  0  0
  140.3310   78.5180  219.4420 C   0  0  0  0  0  0  0  0  0  0  0  0
  141.4950   78.5160  220.4020 C   0  0  0  0  0  0  0  0  0  0  0  0
  142.4680   77.4460  220.0370 C   0  0  0  0  0  0  0  0  0  0  0  0
  141.8420   76.2130  219.5200 C   0  0  1  0  0  0  0  0  0  0  0  0
  142.5670   74.9670  219.6070 C   0  0  0  0  0  0  0  0  0  0  0  0
  142.1870   73.7520  219.0840 C   0  0  0  0  0  0  0  0  0  0  0  0
  142.9090   72.5900  219.2300 C   0  0  0  0  0  0  0  0  0  0  0  0
  144.0900   72.5930  219.9330 C   0  0  0  0  0  0  0  0  0  0  0  0
  144.8730   71.4750  220.1260 O   0  0  0  0  0  0  0  0  0  0  0  0
  144.4970   73.7960  220.4690 C   0  0  0  0  0  0  0  0  0  0  0  0
  143.7740   74.9600  220.3230 C   0  0  0  0  0  0  0  0  0  0  0  0
  139.7730   70.9380  223.4450 C   0  0  0  0  0  0  0  0  0  0  0  0
  139.3500   69.6350  223.3960 C   0  0  0  0  0  0  0  0  0  0  0  0
  139.4720   68.8640  224.5470 C   0  0  0  0  0  0  0  0  0  0  0  0
  140.0060   69.3870  225.7210 C   0  0  0  0  0  0  0  0  0  0  0  0
  140.1340   68.6370  226.8720 C   0  0  0  0  0  0  0  0  0  0  0  0
  140.6700   69.2290  227.9840 C   0  0  0  0  0  0  0  0  0  0  0  0
  140.8160   68.5270  229.1450 F   0  0  0  0  0  0  0  0  0  0  0  0
  141.0750   70.5530  227.9590 C   0  0  0  0  0  0  0  0  0  0  0  0
  140.9590   71.3360  226.8130 C   0  0  0  0  0  0  0  0  0  0  0  0
  140.4140   70.7040  225.7100 C   0  0  0  0  0  0  0  0  0  0  0  0
  140.2880   71.4360  224.5870 N   0  0  0  0  0  0  0  0  0  0  0  0
  139.5370   73.5460  223.3650 H   0  0  0  0  0  0  0  0  0  0  0  0
  139.6937   73.5016  220.3611 H   0  0  0  0  0  0  0  0  0  0  0  0
  138.3901   74.4637  221.3753 H   0  0  0  0  0  0  0  0  0  0  0  0
  139.4427   76.8639  218.3863 H   0  0  0  0  0  0  0  0  0  0  0  0
  138.6599   77.2522  219.9498 H   0  0  0  0  0  0  0  0  0  0  0  0
  140.7018   78.7395  218.4303 H   0  0  0  0  0  0  0  0  0  0  0  0
  139.6125   79.2834  219.7705 H   0  0  0  0  0  0  0  0  0  0  0  0
  141.9989   79.4930  220.3627 H   0  0  0  0  0  0  0  0  0  0  0  0
  141.1193   78.3252  221.4181 H   0  0  0  0  0  0  0  0  0  0  0  0
  143.1424   77.8416  219.2633 H   0  0  0  0  0  0  0  0  0  0  0  0
  142.9972   77.1698  220.9610 H   0  0  0  0  0  0  0  0  0  0  0  0
  141.8372   76.2743  218.4217 H   0  0  0  0  0  0  0  0  0  0  0  0
  141.2474   73.7072  218.5137 H   0  0  0  0  0  0  0  0  0  0  0  0
  142.5398   71.6554  218.7826 H   0  0  0  0  0  0  0  0  0  0  0  0
  145.6650   71.5000  220.7680 H   0  0  0  0  0  0  0  0  0  0  0  0
  145.4384   73.8282  221.0371 H   0  0  0  0  0  0  0  0  0  0  0  0
  144.1465   75.8926  220.7720 H   0  0  0  0  0  0  0  0  0  0  0  0
  138.9265   69.2116  222.4733 H   0  0  0  0  0  0  0  0  0  0  0  0
  139.1385   67.8159  224.5291 H   0  0  0  0  0  0  0  0  0  0  0  0
  139.8121   67.5854  226.8957 H   0  0  0  0  0  0  0  0  0  0  0  0
  141.5004   70.9990  228.8701 H   0  0  0  0  0  0  0  0  0  0  0  0
  141.2797   72.3879  226.7868 H   0  0  0  0  0  0  0  0  0  0  0  0
  1  2  2  0
  2  3  1  0
  3  4  1  0
  4  5  1  0
  5  6  2  0
  5  7  1  0
  7  8  1  0
  8  9  1  0
  9 10  1  0
 10 11  1  0
 11 12  1  0
 12 13  1  0
 13 14  2  0
 14 15  1  0
 15 16  2  0
 16 17  1  0
 16 18  1  0
 18 19  2  0
  2 20  1  0
 20 21  2  0
 21 22  1  0
 22 23  2  0
 23 24  1  0
 24 25  2  0
 25 26  1  0
 25 27  1  0
 27 28  2  0
 28 29  1  0
 29 30  2  0
 12  7  1  0
 19 13  1  0
 30 20  1  0
 29 23  1  0
  3 31  1  0
  4 32  1  0
  4 33  1  0
  8 34  1  0
  8 35  1  0
  9 36  1  0
  9 37  1  0
 10 38  1  0
 10 39  1  0
 11 40  1  0
 11 41  1  0
 12 42  1  6
 14 43  1  0
 15 44  1  0
 17 45  1  0
 18 46  1  0
 19 47  1  0
 21 48  1  0
 22 49  1  0
 24 50  1  0
 27 51  1  0
 28 52  1  0
M  END
>  <smiles>  (54) 
O=C(NCC(=O)N1CCCCC1c1ccc(O)cc1)c1ccc2cc(F)ccc2n1

>  <score_type>  (54) 
oracle

>  <origin>  (54) 
autodockgpu

>  <m_score__min__energy>  (54) 
-8.4199999999999999

>  <m_primary>  (54) 
energy

>  <rmsd>  (54) 
1.7993186143872675

>  <m_score__min__rmsd>  (54) 
1.7993186143872675

>  <meeko>  (54) 
{"free_energy": -7.51, "intermolecular_energy": -9.3, "internal_energy": -1.84, "cluster_size": 22, "cluster_id": 1, "rank_in_cluster": 17}

>  <energy>  (54) 
-8.06

>  <cluster_rmsd>  (54) 
0.41

>  <cluster>  (54) 
1

$$$$

     RDKit          3D

 52 55  0  0  0  0  0  0  0  0999 V2000
  141.3900   72.8050  221.8410 O   0  0  0  0  0  0  0  0  0  0  0  0
  140.3410   72.7450  222.5320 C   0  0  0  0  0  0  0  0  0  0  0  0
  139.3220   73.7540  222.3600 N   0  0  0  0  0  0  0  0  0  0  0  0
  139.4150   74.8420  221.4520 C   0  0  0  0  0  0  0  0  0  0  0  0
  140.1850   76.0300  221.7040 C   0  0  0  0  0  0  0  0  0  0  0  0
  141.4670   75.7470  221.9290 O   0  0  0  0  0  0  0  0  0  0  0  0
  139.9120   77.3890  221.7620 N   0  0  0  0  0  0  0  0  0  0  0  0
  138.8080   78.0640  222.4400 C   0  0  0  0  0  0  0  0  0  0  0  0
  139.3760   79.1470  223.3410 C   0  0  0  0  0  0  0  0  0  0  0  0
  140.8650   78.9850  223.5250 C   0  0  0  0  0  0  0  0  0  0  0  0
  141.5590   79.0200  222.2050 C   0  0  0  0  0  0  0  0  0  0  0  0
  140.8020   78.3800  221.1100 C   0  0  1  0  0  0  0  0  0  0  0  0
  141.5170   77.8960  219.9510 C   0  0  0  0  0  0  0  0  0  0  0  0
  142.6610   77.1320  219.9480 C   0  0  0  0  0  0  0  0  0  0  0  0
  143.3160   76.7280  218.8060 C   0  0  0  0  0  0  0  0  0  0  0  0
  142.8340   77.0850  217.5690 C   0  0  0  0  0  0  0  0  0  0  0  0
  143.4270   76.7240  216.3790 O   0  0  0  0  0  0  0  0  0  0  0  0
  141.6870   77.8520  217.5410 C   0  0  0  0  0  0  0  0  0  0  0  0
  141.0320   78.2560  218.6840 C   0  0  0  0  0  0  0  0  0  0  0  0
  140.1610   71.6540  223.5010 C   0  0  0  0  0  0  0  0  0  0  0  0
  139.4980   70.5180  223.1140 C   0  0  0  0  0  0  0  0  0  0  0  0
  139.3410   69.5010  224.0500 C   0  0  0  0  0  0  0  0  0  0  0  0
  139.8390   69.6190  225.3440 C   0  0  0  0  0  0  0  0  0  0  0  0
  139.6920   68.6210  226.2850 C   0  0  0  0  0  0  0  0  0  0  0  0
  140.2110   68.8180  227.5370 C   0  0  0  0  0  0  0  0  0  0  0  0
  140.0910   67.8590  228.5000 F   0  0  0  0  0  0  0  0  0  0  0  0
  140.8700   69.9930  227.8550 C   0  0  0  0  0  0  0  0  0  0  0  0
  141.0340   71.0190  226.9290 C   0  0  0  0  0  0  0  0  0  0  0  0
  140.4970   70.7840  225.6760 C   0  0  0  0  0  0  0  0  0  0  0  0
  140.6390   71.7590  224.7570 N   0  0  0  0  0  0  0  0  0  0  0  0
  138.4800   73.5980  222.9970 H   0  0  0  0  0  0  0  0  0  0  0  0
  139.8141   74.4192  220.5182 H   0  0  0  0  0  0  0  0  0  0  0  0
  138.3907   75.2409  221.4942 H   0  0  0  0  0  0  0  0  0  0  0  0
  138.1379   78.5171  221.6945 H   0  0  0  0  0  0  0  0  0  0  0  0
  138.2386   77.3390  223.0402 H   0  0  0  0  0  0  0  0  0  0  0  0
  139.1760   80.1298  222.8892 H   0  0  0  0  0  0  0  0  0  0  0  0
  138.8944   79.0653  224.3266 H   0  0  0  0  0  0  0  0  0  0  0  0
  141.2435   79.8033  224.1553 H   0  0  0  0  0  0  0  0  0  0  0  0
  141.0617   78.0154  224.0059 H   0  0  0  0  0  0  0  0  0  0  0  0
  141.7352   80.0716  221.9348 H   0  0  0  0  0  0  0  0  0  0  0  0
  142.4925   78.4499  222.3215 H   0  0  0  0  0  0  0  0  0  0  0  0
  140.2397   79.1671  220.5864 H   0  0  0  0  0  0  0  0  0  0  0  0
  143.0785   76.8247  220.9182 H   0  0  0  0  0  0  0  0  0  0  0  0
  144.2278   76.1177  218.8838 H   0  0  0  0  0  0  0  0  0  0  0  0
  144.0280   77.3790  215.8790 H   0  0  0  0  0  0  0  0  0  0  0  0
  141.2785   78.1535  216.5652 H   0  0  0  0  0  0  0  0  0  0  0  0
  140.1205   78.8664  218.6028 H   0  0  0  0  0  0  0  0  0  0  0  0
  139.1018   70.4138  222.0931 H   0  0  0  0  0  0  0  0  0  0  0  0
  138.8107   68.5818  223.7604 H   0  0  0  0  0  0  0  0  0  0  0  0
  139.1687   67.6863  226.0349 H   0  0  0  0  0  0  0  0  0  0  0  0
  141.2760   70.1196  228.8694 H   0  0  0  0  0  0  0  0  0  0  0  0
  141.5561   71.9549  227.1771 H   0  0  0  0  0  0  0  0  0  0  0  0
  1  2  2  0
  2  3  1  0
  3  4  1  0
  4  5  1  0
  5  6  2  0
  5  7  1  0
  7  8  1  0
  8  9  1  0
  9 10  1  0
 10 11  1  0
 11 12  1  0
 12 13  1  0
 13 14  2  0
 14 15  1  0
 15 16  2  0
 16 17  1  0
 16 18  1  0
 18 19  2  0
  2 20  1  0
 20 21  2  0
 21 22  1  0
 22 23  2  0
 23 24  1  0
 24 25  2  0
 25 26  1  0
 25 27  1  0
 27 28  2  0
 28 29  1  0
 29 30  2  0
 12  7  1  0
 19 13  1  0
 30 20  1  0
 29 23  1  0
  3 31  1  0
  4 32  1  0
  4 33  1  0
  8 34  1  0
  8 35  1  0
  9 36  1  0
  9 37  1  0
 10 38  1  0
 10 39  1  0
 11 40  1  0
 11 41  1  0
 12 42  1  6
 14 43  1  0
 15 44  1  0
 17 45  1  0
 18 46  1  0
 19 47  1  0
 21 48  1  0
 22 49  1  0
 24 50  1  0
 27 51  1  0
 28 52  1  0
M  END
>  <smiles>  (55) 
O=C(NCC(=O)N1CCCCC1c1ccc(O)cc1)c1ccc2cc(F)ccc2n1

>  <score_type>  (55) 
oracle

>  <origin>  (55) 
autodockgpu

>  <m_score__min__energy>  (55) 
-8.4199999999999999

>  <m_primary>  (55) 
energy

>  <rmsd>  (55) 
3.1350870690424997

>  <m_score__min__rmsd>  (55) 
3.1350870690424997

>  <meeko>  (55) 
{"free_energy": -8.04, "intermolecular_energy": -9.83, "internal_energy": -1.06, "cluster_size": 10, "cluster_id": 2, "rank_in_cluster": 4}

>  <energy>  (55) 
-8.05

>  <cluster_rmsd>  (55) 
0.78

>  <cluster>  (55) 
1

$$$$

     RDKit          3D

 52 55  0  0  0  0  0  0  0  0999 V2000
  139.5420   70.5960  221.1330 O   0  0  0  0  0  0  0  0  0  0  0  0
  139.6550   71.2100  222.2230 C   0  0  0  0  0  0  0  0  0  0  0  0
  139.7670   72.6510  222.2150 N   0  0  0  0  0  0  0  0  0  0  0  0
  139.7640   73.4490  221.0400 C   0  0  0  0  0  0  0  0  0  0  0  0
  140.4490   74.7090  220.9280 C   0  0  0  0  0  0  0  0  0  0  0  0
  141.1360   74.9960  222.0320 O   0  0  0  0  0  0  0  0  0  0  0  0
  140.5660   75.6840  219.9480 N   0  0  0  0  0  0  0  0  0  0  0  0
  139.5090   76.4880  219.3380 C   0  0  0  0  0  0  0  0  0  0  0  0
  139.8870   77.9550  219.4460 C   0  0  0  0  0  0  0  0  0  0  0  0
  141.0260   78.1610  220.4150 C   0  0  0  0  0  0  0  0  0  0  0  0
  142.2170   77.3690  219.9920 C   0  0  0  0  0  0  0  0  0  0  0  0
  141.8890   76.0600  219.3920 C   0  0  1  0  0  0  0  0  0  0  0  0
  142.8820   75.0110  219.4060 C   0  0  0  0  0  0  0  0  0  0  0  0
  142.7840   73.7740  218.8150 C   0  0  0  0  0  0  0  0  0  0  0  0
  143.7560   72.8020  218.8920 C   0  0  0  0  0  0  0  0  0  0  0  0
  144.9150   73.0370  219.5940 C   0  0  0  0  0  0  0  0  0  0  0  0
  145.9360   72.1210  219.7220 O   0  0  0  0  0  0  0  0  0  0  0  0
  145.0410   74.2710  220.1990 C   0  0  0  0  0  0  0  0  0  0  0  0
  144.0680   75.2430  220.1210 C   0  0  0  0  0  0  0  0  0  0  0  0
  139.6720   70.4640  223.4900 C   0  0  0  0  0  0  0  0  0  0  0  0
  139.1640   69.1900  223.5230 C   0  0  0  0  0  0  0  0  0  0  0  0
  139.1910   68.5060  224.7330 C   0  0  0  0  0  0  0  0  0  0  0  0
  139.7170   69.0840  225.8840 C   0  0  0  0  0  0  0  0  0  0  0  0
  139.7510   68.4200  227.0930 C   0  0  0  0  0  0  0  0  0  0  0  0
  140.2850   69.0610  228.1790 C   0  0  0  0  0  0  0  0  0  0  0  0
  140.3420   68.4450  229.3950 F   0  0  0  0  0  0  0  0  0  0  0  0
  140.7800   70.3500  228.0700 C   0  0  0  0  0  0  0  0  0  0  0  0
  140.7590   71.0460  226.8650 C   0  0  0  0  0  0  0  0  0  0  0  0
  140.2130   70.3670  225.7910 C   0  0  0  0  0  0  0  0  0  0  0  0
  140.1780   71.0150  224.6110 N   0  0  0  0  0  0  0  0  0  0  0  0
  139.8560   73.0610  223.1960 H   0  0  0  0  0  0  0  0  0  0  0  0
  140.1773   72.8118  220.2443 H   0  0  0  0  0  0  0  0  0  0  0  0
  138.7139   73.7751  221.0080 H   0  0  0  0  0  0  0  0  0  0  0  0
  139.3985   76.2115  218.2791 H   0  0  0  0  0  0  0  0  0  0  0  0
  138.5557   76.3082  219.8566 H   0  0  0  0  0  0  0  0  0  0  0  0
  140.1908   78.3202  218.4539 H   0  0  0  0  0  0  0  0  0  0  0  0
  139.0131   78.5111  219.8161 H   0  0  0  0  0  0  0  0  0  0  0  0
  141.2910   79.2283  220.4415 H   0  0  0  0  0  0  0  0  0  0  0  0
  140.7103   77.8255  221.4139 H   0  0  0  0  0  0  0  0  0  0  0  0
  142.7779   77.9577  219.2512 H   0  0  0  0  0  0  0  0  0  0  0  0
  142.8005   77.1636  220.9016 H   0  0  0  0  0  0  0  0  0  0  0  0
  141.8645   76.1888  218.2998 H   0  0  0  0  0  0  0  0  0  0  0  0
  141.8715   73.5462  218.2445 H   0  0  0  0  0  0  0  0  0  0  0  0
  143.6051   71.8346  218.3906 H   0  0  0  0  0  0  0  0  0  0  0  0
  145.9780   71.5000  220.5300 H   0  0  0  0  0  0  0  0  0  0  0  0
  145.9573   74.4876  220.7677 H   0  0  0  0  0  0  0  0  0  0  0  0
  144.2215   76.2095  220.6233 H   0  0  0  0  0  0  0  0  0  0  0  0
  138.7474   68.7233  222.6182 H   0  0  0  0  0  0  0  0  0  0  0  0
  138.7871   67.4840  224.7815 H   0  0  0  0  0  0  0  0  0  0  0  0
  139.3573   67.3968  227.1827 H   0  0  0  0  0  0  0  0  0  0  0  0
  141.2018   70.8375  228.9613 H   0  0  0  0  0  0  0  0  0  0  0  0
  141.1512   72.0696  226.7728 H   0  0  0  0  0  0  0  0  0  0  0  0
  1  2  2  0
  2  3  1  0
  3  4  1  0
  4  5  1  0
  5  6  2  0
  5  7  1  0
  7  8  1  0
  8  9  1  0
  9 10  1  0
 10 11  1  0
 11 12  1  0
 12 13  1  0
 13 14  2  0
 14 15  1  0
 15 16  2  0
 16 17  1  0
 16 18  1  0
 18 19  2  0
  2 20  1  0
 20 21  2  0
 21 22  1  0
 22 23  2  0
 23 24  1  0
 24 25  2  0
 25 26  1  0
 25 27  1  0
 27 28  2  0
 28 29  1  0
 29 30  2  0
 12  7  1  0
 19 13  1  0
 30 20  1  0
 29 23  1  0
  3 31  1  0
  4 32  1  0
  4 33  1  0
  8 34  1  0
  8 35  1  0
  9 36  1  0
  9 37  1  0
 10 38  1  0
 10 39  1  0
 11 40  1  0
 11 41  1  0
 12 42  1  6
 14 43  1  0
 15 44  1  0
 17 45  1  0
 18 46  1  0
 19 47  1  0
 21 48  1  0
 22 49  1  0
 24 50  1  0
 27 51  1  0
 28 52  1  0
M  END
>  <smiles>  (56) 
O=C(NCC(=O)N1CCCCC1c1ccc(O)cc1)c1ccc2cc(F)ccc2n1

>  <score_type>  (56) 
oracle

>  <origin>  (56) 
autodockgpu

>  <m_score__min__energy>  (56) 
-8.4199999999999999

>  <m_primary>  (56) 
energy

>  <rmsd>  (56) 
1.68191479259648

>  <m_score__min__rmsd>  (56) 
1.68191479259648

>  <meeko>  (56) 
{"free_energy": -7.93, "intermolecular_energy": -9.72, "internal_energy": -1.72, "cluster_size": 22, "cluster_id": 1, "rank_in_cluster": 9}

>  <energy>  (56) 
-8.05

>  <cluster_rmsd>  (56) 
0.83

>  <cluster>  (56) 
1

$$$$

     RDKit          3D

 52 55  0  0  0  0  0  0  0  0999 V2000
  141.2760   73.4230  221.7230 O   0  0  0  0  0  0  0  0  0  0  0  0
  140.1690   73.2750  222.2990 C   0  0  0  0  0  0  0  0  0  0  0  0
  139.1820   74.3280  222.2180 N   0  0  0  0  0  0  0  0  0  0  0  0
  139.3710   75.5530  221.5240 C   0  0  0  0  0  0  0  0  0  0  0  0
  140.2650   76.5900  221.9620 C   0  0  0  0  0  0  0  0  0  0  0  0
  141.4500   76.0990  222.3250 O   0  0  0  0  0  0  0  0  0  0  0  0
  140.1880   77.9690  222.0920 N   0  0  0  0  0  0  0  0  0  0  0  0
  139.2190   78.7560  222.8510 C   0  0  0  0  0  0  0  0  0  0  0  0
  139.9720   79.7060  223.7670 C   0  0  0  0  0  0  0  0  0  0  0  0
  141.4290   79.3310  223.8720 C   0  0  0  0  0  0  0  0  0  0  0  0
  142.0650   79.3340  222.5220 C   0  0  0  0  0  0  0  0  0  0  0  0
  141.1800   78.8590  221.4390 C   0  0  1  0  0  0  0  0  0  0  0  0
  141.7710   78.3370  220.2280 C   0  0  0  0  0  0  0  0  0  0  0  0
  142.5480   77.2080  220.1080 C   0  0  0  0  0  0  0  0  0  0  0  0
  143.1100   76.7800  218.9270 C   0  0  0  0  0  0  0  0  0  0  0  0
  142.9110   77.4920  217.7680 C   0  0  0  0  0  0  0  0  0  0  0  0
  143.4370   77.1340  216.5460 O   0  0  0  0  0  0  0  0  0  0  0  0
  142.1360   78.6300  217.8570 C   0  0  0  0  0  0  0  0  0  0  0  0
  141.5730   79.0580  219.0390 C   0  0  0  0  0  0  0  0  0  0  0  0
  139.8870   72.0400  223.0460 C   0  0  0  0  0  0  0  0  0  0  0  0
  139.1160   71.0670  222.4630 C   0  0  0  0  0  0  0  0  0  0  0  0
  138.8650   69.9090  223.1900 C   0  0  0  0  0  0  0  0  0  0  0  0
  139.3760   69.7280  224.4710 C   0  0  0  0  0  0  0  0  0  0  0  0
  139.1360   68.5850  225.2060 C   0  0  0  0  0  0  0  0  0  0  0  0
  139.6760   68.4870  226.4610 C   0  0  0  0  0  0  0  0  0  0  0  0
  139.4680   67.3760  227.2250 F   0  0  0  0  0  0  0  0  0  0  0  0
  140.4470   69.5110  226.9840 C   0  0  0  0  0  0  0  0  0  0  0  0
  140.7060   70.6770  226.2680 C   0  0  0  0  0  0  0  0  0  0  0  0
  140.1450   70.7400  225.0050 C   0  0  0  0  0  0  0  0  0  0  0  0
  140.3770   71.8560  224.2880 N   0  0  0  0  0  0  0  0  0  0  0  0
  138.2840   74.0900  222.7420 H   0  0  0  0  0  0  0  0  0  0  0  0
  139.7063   75.2759  220.5136 H   0  0  0  0  0  0  0  0  0  0  0  0
  138.3949   76.0362  221.6781 H   0  0  0  0  0  0  0  0  0  0  0  0
  138.5872   79.3322  222.1590 H   0  0  0  0  0  0  0  0  0  0  0  0
  138.5799   78.0885  223.4477 H   0  0  0  0  0  0  0  0  0  0  0  0
  139.8934   80.7272  223.3659 H   0  0  0  0  0  0  0  0  0  0  0  0
  139.5259   79.6451  224.7707 H   0  0  0  0  0  0  0  0  0  0  0  0
  141.9447   80.0574  224.5173 H   0  0  0  0  0  0  0  0  0  0  0  0
  141.5078   78.3214  224.3015 H   0  0  0  0  0  0  0  0  0  0  0  0
  142.3756   80.3631  222.2884 H   0  0  0  0  0  0  0  0  0  0  0  0
  142.9133   78.6353  222.5687 H   0  0  0  0  0  0  0  0  0  0  0  0
  140.7116   79.7405  220.9768 H   0  0  0  0  0  0  0  0  0  0  0  0
  142.7315   76.6099  221.0128 H   0  0  0  0  0  0  0  0  0  0  0  0
  143.7205   75.8651  218.9103 H   0  0  0  0  0  0  0  0  0  0  0  0
  144.0220   77.7850  216.0210 H   0  0  0  0  0  0  0  0  0  0  0  0
  141.9603   79.2204  216.9456 H   0  0  0  0  0  0  0  0  0  0  0  0
  140.9626   79.9730  219.0519 H   0  0  0  0  0  0  0  0  0  0  0  0
  138.7082   71.1991  221.4499 H   0  0  0  0  0  0  0  0  0  0  0  0
  138.2475   69.1168  222.7415 H   0  0  0  0  0  0  0  0  0  0  0  0
  138.5239   67.7698  224.7927 H   0  0  0  0  0  0  0  0  0  0  0  0
  140.8673   69.4004  227.9945 H   0  0  0  0  0  0  0  0  0  0  0  0
  141.3165   71.4942  226.6796 H   0  0  0  0  0  0  0  0  0  0  0  0
  1  2  2  0
  2  3  1  0
  3  4  1  0
  4  5  1  0
  5  6  2  0
  5  7  1  0
  7  8  1  0
  8  9  1  0
  9 10  1  0
 10 11  1  0
 11 12  1  0
 12 13  1  0
 13 14  2  0
 14 15  1  0
 15 16  2  0
 16 17  1  0
 16 18  1  0
 18 19  2  0
  2 20  1  0
 20 21  2  0
 21 22  1  0
 22 23  2  0
 23 24  1  0
 24 25  2  0
 25 26  1  0
 25 27  1  0
 27 28  2  0
 28 29  1  0
 29 30  2  0
 12  7  1  0
 19 13  1  0
 30 20  1  0
 29 23  1  0
  3 31  1  0
  4 32  1  0
  4 33  1  0
  8 34  1  0
  8 35  1  0
  9 36  1  0
  9 37  1  0
 10 38  1  0
 10 39  1  0
 11 40  1  0
 11 41  1  0
 12 42  1  6
 14 43  1  0
 15 44  1  0
 17 45  1  0
 18 46  1  0
 19 47  1  0
 21 48  1  0
 22 49  1  0
 24 50  1  0
 27 51  1  0
 28 52  1  0
M  END
>  <smiles>  (57) 
O=C(NCC(=O)N1CCCCC1c1ccc(O)cc1)c1ccc2cc(F)ccc2n1

>  <score_type>  (57) 
oracle

>  <origin>  (57) 
autodockgpu

>  <m_score__min__energy>  (57) 
-8.4199999999999999

>  <m_primary>  (57) 
energy

>  <rmsd>  (57) 
3.621482213349792

>  <m_score__min__rmsd>  (57) 
3.621482213349792

>  <meeko>  (57) 
{"free_energy": -8.35, "intermolecular_energy": -10.14, "internal_energy": -0.99, "cluster_size": 10, "cluster_id": 2, "rank_in_cluster": 1}

>  <energy>  (57) 
-7.97

>  <cluster_rmsd>  (57) 
0.59

>  <cluster>  (57) 
1

$$$$

     RDKit          3D

 52 55  0  0  0  0  0  0  0  0999 V2000
  139.5490   75.6290  222.7230 O   0  0  0  0  0  0  0  0  0  0  0  0
  140.0830   75.5900  221.5860 C   0  0  0  0  0  0  0  0  0  0  0  0
  139.6800   76.5490  220.5820 N   0  0  0  0  0  0  0  0  0  0  0  0
  138.6990   77.5560  220.7830 C   0  0  0  0  0  0  0  0  0  0  0  0
  139.0020   78.9580  220.8810 C   0  0  0  0  0  0  0  0  0  0  0  0
  138.2010   79.6900  220.1080 O   0  0  0  0  0  0  0  0  0  0  0  0
  139.9190   79.7230  221.5870 N   0  0  0  0  0  0  0  0  0  0  0  0
  139.6600   80.7550  222.5890 C   0  0  0  0  0  0  0  0  0  0  0  0
  140.4580   80.4320  223.8400 C   0  0  0  0  0  0  0  0  0  0  0  0
  140.9890   79.0210  223.8060 C   0  0  0  0  0  0  0  0  0  0  0  0
  141.8460   78.8170  222.6030 C   0  0  0  0  0  0  0  0  0  0  0  0
  141.3790   79.5370  221.4010 C   0  0  1  0  0  0  0  0  0  0  0  0
  141.7770   79.0590  220.0970 C   0  0  0  0  0  0  0  0  0  0  0  0
  142.2020   77.7910  219.7770 C   0  0  0  0  0  0  0  0  0  0  0  0
  142.5990   77.4050  218.5170 C   0  0  0  0  0  0  0  0  0  0  0  0
  142.5890   78.3090  217.4810 C   0  0  0  0  0  0  0  0  0  0  0  0
  142.9710   78.0070  216.1920 O   0  0  0  0  0  0  0  0  0  0  0  0
  142.1670   79.5900  217.7720 C   0  0  0  0  0  0  0  0  0  0  0  0
  141.7690   79.9760  219.0340 C   0  0  0  0  0  0  0  0  0  0  0  0
  141.1070   74.5770  221.2880 C   0  0  0  0  0  0  0  0  0  0  0  0
  140.7910   73.2490  221.4170 C   0  0  0  0  0  0  0  0  0  0  0  0
  141.7780   72.3120  221.1290 C   0  0  0  0  0  0  0  0  0  0  0  0
  143.0510   72.6960  220.7200 C   0  0  0  0  0  0  0  0  0  0  0  0
  144.0410   71.7790  220.4310 C   0  0  0  0  0  0  0  0  0  0  0  0
  145.2680   72.2420  220.0360 C   0  0  0  0  0  0  0  0  0  0  0  0
  146.2770   71.3740  219.7390 F   0  0  0  0  0  0  0  0  0  0  0  0
  145.5130   73.6000  219.9280 C   0  0  0  0  0  0  0  0  0  0  0  0
  144.5360   74.5500  220.2130 C   0  0  0  0  0  0  0  0  0  0  0  0
  143.3100   74.0460  220.6090 C   0  0  0  0  0  0  0  0  0  0  0  0
  142.3440   74.9400  220.8920 N   0  0  0  0  0  0  0  0  0  0  0  0
  140.2020   76.4210  219.6610 H   0  0  0  0  0  0  0  0  0  0  0  0
  137.9949   77.4598  219.9434 H   0  0  0  0  0  0  0  0  0  0  0  0
  138.3776   77.3363  221.8118 H   0  0  0  0  0  0  0  0  0  0  0  0
  139.9669   81.7361  222.1975 H   0  0  0  0  0  0  0  0  0  0  0  0
  138.5865   80.7844  222.8271 H   0  0  0  0  0  0  0  0  0  0  0  0
  141.3041   81.1309  223.9150 H   0  0  0  0  0  0  0  0  0  0  0  0
  139.7919   80.5299  224.7099 H   0  0  0  0  0  0  0  0  0  0  0  0
  141.5856   78.8363  224.7115 H   0  0  0  0  0  0  0  0  0  0  0  0
  140.1411   78.3216  223.7628 H   0  0  0  0  0  0  0  0  0  0  0  0
  142.8626   79.1637  222.8402 H   0  0  0  0  0  0  0  0  0  0  0  0
  141.8080   77.7438  222.3647 H   0  0  0  0  0  0  0  0  0  0  0  0
  141.9205   80.4931  221.3504 H   0  0  0  0  0  0  0  0  0  0  0  0
  142.2262   77.0379  220.5784 H   0  0  0  0  0  0  0  0  0  0  0  0
  142.9254   76.3699  218.3382 H   0  0  0  0  0  0  0  0  0  0  0  0
  143.6580   78.5820  215.7050 H   0  0  0  0  0  0  0  0  0  0  0  0
  142.1474   80.3347  216.9627 H   0  0  0  0  0  0  0  0  0  0  0  0
  141.4423   81.0116  219.2097 H   0  0  0  0  0  0  0  0  0  0  0  0
  139.7873   72.9341  221.7386 H   0  0  0  0  0  0  0  0  0  0  0  0
  141.5462   71.2412  221.2271 H   0  0  0  0  0  0  0  0  0  0  0  0
  143.8488   70.6993  220.5161 H   0  0  0  0  0  0  0  0  0  0  0  0
  146.5093   73.9387  219.6074 H   0  0  0  0  0  0  0  0  0  0  0  0
  144.7263   75.6301  220.1289 H   0  0  0  0  0  0  0  0  0  0  0  0
  1  2  2  0
  2  3  1  0
  3  4  1  0
  4  5  1  0
  5  6  2  0
  5  7  1  0
  7  8  1  0
  8  9  1  0
  9 10  1  0
 10 11  1  0
 11 12  1  0
 12 13  1  0
 13 14  2  0
 14 15  1  0
 15 16  2  0
 16 17  1  0
 16 18  1  0
 18 19  2  0
  2 20  1  0
 20 21  2  0
 21 22  1  0
 22 23  2  0
 23 24  1  0
 24 25  2  0
 25 26  1  0
 25 27  1  0
 27 28  2  0
 28 29  1  0
 29 30  2  0
 12  7  1  0
 19 13  1  0
 30 20  1  0
 29 23  1  0
  3 31  1  0
  4 32  1  0
  4 33  1  0
  8 34  1  0
  8 35  1  0
  9 36  1  0
  9 37  1  0
 10 38  1  0
 10 39  1  0
 11 40  1  0
 11 41  1  0
 12 42  1  1
 14 43  1  0
 15 44  1  0
 17 45  1  0
 18 46  1  0
 19 47  1  0
 21 48  1  0
 22 49  1  0
 24 50  1  0
 27 51  1  0
 28 52  1  0
M  END
>  <smiles>  (58) 
O=C(NCC(=O)N1CCCCC1c1ccc(O)cc1)c1ccc2cc(F)ccc2n1

>  <score_type>  (58) 
oracle

>  <origin>  (58) 
autodockgpu

>  <m_score__min__energy>  (58) 
-8.4199999999999999

>  <m_primary>  (58) 
energy

>  <rmsd>  (58) 
6.548177693245147

>  <m_score__min__rmsd>  (58) 
6.548177693245147

>  <meeko>  (58) 
{"free_energy": -6.61, "intermolecular_energy": -8.4, "internal_energy": -2.19, "cluster_size": 7, "cluster_id": 4, "rank_in_cluster": 6}

>  <energy>  (58) 
-7.94

>  <cluster_rmsd>  (58) 
1.34

>  <cluster>  (58) 
1

$$$$

     RDKit          3D

 52 55  0  0  0  0  0  0  0  0999 V2000
  141.4100   72.6090  221.7050 O   0  0  0  0  0  0  0  0  0  0  0  0
  140.4220   72.6800  222.4780 C   0  0  0  0  0  0  0  0  0  0  0  0
  139.4990   73.7850  222.3460 N   0  0  0  0  0  0  0  0  0  0  0  0
  139.6260   74.8270  221.3910 C   0  0  0  0  0  0  0  0  0  0  0  0
  140.2880   76.0760  221.6540 C   0  0  0  0  0  0  0  0  0  0  0  0
  141.4110   75.9020  222.3490 O   0  0  0  0  0  0  0  0  0  0  0  0
  140.0380   77.4080  221.3550 N   0  0  0  0  0  0  0  0  0  0  0  0
  138.9030   78.2320  221.7650 C   0  0  0  0  0  0  0  0  0  0  0  0
  139.4310   79.5050  222.4060 C   0  0  0  0  0  0  0  0  0  0  0  0
  140.9010   79.3910  222.7270 C   0  0  0  0  0  0  0  0  0  0  0  0
  141.6820   79.0940  221.4920 C   0  0  0  0  0  0  0  0  0  0  0  0
  140.9880   78.2040  220.5400 C   0  0  1  0  0  0  0  0  0  0  0  0
  141.7700   77.4450  219.5900 C   0  0  0  0  0  0  0  0  0  0  0  0
  141.5030   77.2730  218.2520 C   0  0  0  0  0  0  0  0  0  0  0  0
  142.2720   76.5080  217.4040 C   0  0  0  0  0  0  0  0  0  0  0  0
  143.3850   75.8560  217.8790 C   0  0  0  0  0  0  0  0  0  0  0  0
  144.2070   75.0710  217.0990 O   0  0  0  0  0  0  0  0  0  0  0  0
  143.6770   76.0090  219.2180 C   0  0  0  0  0  0  0  0  0  0  0  0
  142.9080   76.7750  220.0660 C   0  0  0  0  0  0  0  0  0  0  0  0
  140.2130   71.6450  223.5020 C   0  0  0  0  0  0  0  0  0  0  0  0
  139.5660   70.4860  223.1580 C   0  0  0  0  0  0  0  0  0  0  0  0
  139.3810   69.5230  224.1450 C   0  0  0  0  0  0  0  0  0  0  0  0
  139.8340   69.7180  225.4460 C   0  0  0  0  0  0  0  0  0  0  0  0
  139.6590   68.7740  226.4370 C   0  0  0  0  0  0  0  0  0  0  0  0
  140.1350   69.0450  227.6920 C   0  0  0  0  0  0  0  0  0  0  0  0
  139.9860   68.1420  228.7040 F   0  0  0  0  0  0  0  0  0  0  0  0
  140.7790   70.2400  227.9650 C   0  0  0  0  0  0  0  0  0  0  0  0
  140.9710   71.2120  226.9870 C   0  0  0  0  0  0  0  0  0  0  0  0
  140.4770   70.9030  225.7320 C   0  0  0  0  0  0  0  0  0  0  0  0
  140.6470   71.8250  224.7650 N   0  0  0  0  0  0  0  0  0  0  0  0
  138.7010   73.7380  223.0530 H   0  0  0  0  0  0  0  0  0  0  0  0
  140.1528   74.3840  220.5330 H   0  0  0  0  0  0  0  0  0  0  0  0
  138.5808   75.1571  221.2977 H   0  0  0  0  0  0  0  0  0  0  0  0
  138.2931   78.4859  220.8855 H   0  0  0  0  0  0  0  0  0  0  0  0
  138.2802   77.6805  222.4848 H   0  0  0  0  0  0  0  0  0  0  0  0
  139.2804   80.3445  221.7114 H   0  0  0  0  0  0  0  0  0  0  0  0
  138.8835   79.6725  223.3453 H   0  0  0  0  0  0  0  0  0  0  0  0
  141.2523   80.3399  223.1584 H   0  0  0  0  0  0  0  0  0  0  0  0
  141.0463   78.5716  223.4464 H   0  0  0  0  0  0  0  0  0  0  0  0
  141.8972   80.0447  220.9823 H   0  0  0  0  0  0  0  0  0  0  0  0
  142.5936   78.5679  221.8117 H   0  0  0  0  0  0  0  0  0  0  0  0
  140.4771   78.8368  219.7993 H   0  0  0  0  0  0  0  0  0  0  0  0
  140.6201   77.7780  217.8332 H   0  0  0  0  0  0  0  0  0  0  0  0
  141.9949   76.4183  216.3433 H   0  0  0  0  0  0  0  0  0  0  0  0
  145.2210   75.1310  217.1900 H   0  0  0  0  0  0  0  0  0  0  0  0
  144.5614   75.4978  219.6261 H   0  0  0  0  0  0  0  0  0  0  0  0
  143.1882   76.8625  221.1261 H   0  0  0  0  0  0  0  0  0  0  0  0
  139.2040   70.3225  222.1322 H   0  0  0  0  0  0  0  0  0  0  0  0
  138.8645   68.5856  223.8908 H   0  0  0  0  0  0  0  0  0  0  0  0
  139.1478   67.8237  226.2234 H   0  0  0  0  0  0  0  0  0  0  0  0
  141.1495   70.4266  228.9838 H   0  0  0  0  0  0  0  0  0  0  0  0
  141.4818   72.1631  227.1981 H   0  0  0  0  0  0  0  0  0  0  0  0
  1  2  2  0
  2  3  1  0
  3  4  1  0
  4  5  1  0
  5  6  2  0
  5  7  1  0
  7  8  1  0
  8  9  1  0
  9 10  1  0
 10 11  1  0
 11 12  1  0
 12 13  1  0
 13 14  2  0
 14 15  1  0
 15 16  2  0
 16 17  1  0
 16 18  1  0
 18 19  2  0
  2 20  1  0
 20 21  2  0
 21 22  1  0
 22 23  2  0
 23 24  1  0
 24 25  2  0
 25 26  1  0
 25 27  1  0
 27 28  2  0
 28 29  1  0
 29 30  2  0
 12  7  1  0
 19 13  1  0
 30 20  1  0
 29 23  1  0
  3 31  1  0
  4 32  1  0
  4 33  1  0
  8 34  1  0
  8 35  1  0
  9 36  1  0
  9 37  1  0
 10 38  1  0
 10 39  1  0
 11 40  1  0
 11 41  1  0
 12 42  1  6
 14 43  1  0
 15 44  1  0
 17 45  1  0
 18 46  1  0
 19 47  1  0
 21 48  1  0
 22 49  1  0
 24 50  1  0
 27 51  1  0
 28 52  1  0
M  END
>  <smiles>  (59) 
O=C(NCC(=O)N1CCCCC1c1ccc(O)cc1)c1ccc2cc(F)ccc2n1

>  <score_type>  (59) 
oracle

>  <origin>  (59) 
autodockgpu

>  <m_score__min__energy>  (59) 
-8.4199999999999999

>  <m_primary>  (59) 
energy

>  <rmsd>  (59) 
2.8948886665232054

>  <m_score__min__rmsd>  (59) 
2.8948886665232054

>  <meeko>  (59) 
{"free_energy": -8.2, "intermolecular_energy": -9.99, "internal_energy": -1.22, "cluster_size": 10, "cluster_id": 2, "rank_in_cluster": 2}

>  <energy>  (59) 
-7.93

>  <cluster_rmsd>  (59) 
0.83

>  <cluster>  (59) 
1

$$$$

     RDKit          3D

 52 55  0  0  0  0  0  0  0  0999 V2000
  138.2500   71.3660  221.7080 O   0  0  0  0  0  0  0  0  0  0  0  0
  139.4430   71.1230  222.0180 C   0  0  0  0  0  0  0  0  0  0  0  0
  140.4570   71.1250  220.9880 N   0  0  0  0  0  0  0  0  0  0  0  0
  140.2040   71.3820  219.6140 C   0  0  0  0  0  0  0  0  0  0  0  0
  139.9550   72.6940  219.0800 C   0  0  0  0  0  0  0  0  0  0  0  0
  139.8770   72.6780  217.7510 O   0  0  0  0  0  0  0  0  0  0  0  0
  139.7730   73.9600  219.6180 N   0  0  0  0  0  0  0  0  0  0  0  0
  138.6000   74.8260  219.5220 C   0  0  0  0  0  0  0  0  0  0  0  0
  138.1940   75.2560  220.9210 C   0  0  0  0  0  0  0  0  0  0  0  0
  138.8800   74.4210  221.9740 C   0  0  0  0  0  0  0  0  0  0  0  0
  140.3610   74.5200  221.8330 C   0  0  0  0  0  0  0  0  0  0  0  0
  140.8290   74.6070  220.4350 C   0  0  1  0  0  0  0  0  0  0  0  0
  142.1810   74.2070  220.1200 C   0  0  0  0  0  0  0  0  0  0  0  0
  142.9690   73.3300  220.8300 C   0  0  0  0  0  0  0  0  0  0  0  0
  144.2650   73.0140  220.4950 C   0  0  0  0  0  0  0  0  0  0  0  0
  144.8540   73.5840  219.3910 C   0  0  0  0  0  0  0  0  0  0  0  0
  146.1450   73.3230  218.9870 O   0  0  0  0  0  0  0  0  0  0  0  0
  144.0880   74.4680  218.6600 C   0  0  0  0  0  0  0  0  0  0  0  0
  142.7900   74.7850  218.9950 C   0  0  0  0  0  0  0  0  0  0  0  0
  139.7970   70.8400  223.4180 C   0  0  0  0  0  0  0  0  0  0  0  0
  140.3630   71.8320  224.1770 C   0  0  0  0  0  0  0  0  0  0  0  0
  140.6880   71.5390  225.4970 C   0  0  0  0  0  0  0  0  0  0  0  0
  140.4500   70.2830  226.0440 C   0  0  0  0  0  0  0  0  0  0  0  0
  140.7660   69.9760  227.3520 C   0  0  0  0  0  0  0  0  0  0  0  0
  140.4990   68.7140  227.8120 C   0  0  0  0  0  0  0  0  0  0  0  0
  140.7930   68.3640  229.0970 F   0  0  0  0  0  0  0  0  0  0  0  0
  139.9240   67.7630  226.9860 C   0  0  0  0  0  0  0  0  0  0  0  0
  139.5940   68.0420  225.6620 C   0  0  0  0  0  0  0  0  0  0  0  0
  139.8780   69.3260  225.2330 C   0  0  0  0  0  0  0  0  0  0  0  0
  139.5700   69.6260  223.9560 N   0  0  0  0  0  0  0  0  0  0  0  0
  141.4290   70.9070  221.3690 H   0  0  0  0  0  0  0  0  0  0  0  0
  141.0808   70.9991  219.0712 H   0  0  0  0  0  0  0  0  0  0  0  0
  139.2180   70.9109  219.4880 H   0  0  0  0  0  0  0  0  0  0  0  0
  138.8435   75.7129  218.9186 H   0  0  0  0  0  0  0  0  0  0  0  0
  137.7723   74.2827  219.0427 H   0  0  0  0  0  0  0  0  0  0  0  0
  138.4695   76.3111  221.0653 H   0  0  0  0  0  0  0  0  0  0  0  0
  137.1074   75.1189  221.0239 H   0  0  0  0  0  0  0  0  0  0  0  0
  138.5860   74.7816  222.9707 H   0  0  0  0  0  0  0  0  0  0  0  0
  138.5792   73.3705  221.8480 H   0  0  0  0  0  0  0  0  0  0  0  0
  140.6995   75.4200  222.3673 H   0  0  0  0  0  0  0  0  0  0  0  0
  140.7821   73.5940  222.2515 H   0  0  0  0  0  0  0  0  0  0  0  0
  140.9570   75.6716  220.1896 H   0  0  0  0  0  0  0  0  0  0  0  0
  142.5353   72.8521  221.7208 H   0  0  0  0  0  0  0  0  0  0  0  0
  144.8326   72.3024  221.1127 H   0  0  0  0  0  0  0  0  0  0  0  0
  146.7560   74.0800  218.6790 H   0  0  0  0  0  0  0  0  0  0  0  0
  144.5327   74.9400  217.7715 H   0  0  0  0  0  0  0  0  0  0  0  0
  142.2256   75.4975  218.3754 H   0  0  0  0  0  0  0  0  0  0  0  0
  140.5542   72.8294  223.7544 H   0  0  0  0  0  0  0  0  0  0  0  0
  141.1443   72.3196  226.1234 H   0  0  0  0  0  0  0  0  0  0  0  0
  141.2227   70.7291  228.0111 H   0  0  0  0  0  0  0  0  0  0  0  0
  139.7221   66.7587  227.3869 H   0  0  0  0  0  0  0  0  0  0  0  0
  139.1375   67.2906  225.0009 H   0  0  0  0  0  0  0  0  0  0  0  0
  1  2  2  0
  2  3  1  0
  3  4  1  0
  4  5  1  0
  5  6  2  0
  5  7  1  0
  7  8  1  0
  8  9  1  0
  9 10  1  0
 10 11  1  0
 11 12  1  0
 12 13  1  0
 13 14  2  0
 14 15  1  0
 15 16  2  0
 16 17  1  0
 16 18  1  0
 18 19  2  0
  2 20  1  0
 20 21  2  0
 21 22  1  0
 22 23  2  0
 23 24  1  0
 24 25  2  0
 25 26  1  0
 25 27  1  0
 27 28  2  0
 28 29  1  0
 29 30  2  0
 12  7  1  0
 19 13  1  0
 30 20  1  0
 29 23  1  0
  3 31  1  0
  4 32  1  0
  4 33  1  0
  8 34  1  0
  8 35  1  0
  9 36  1  0
  9 37  1  0
 10 38  1  0
 10 39  1  0
 11 40  1  0
 11 41  1  0
 12 42  1  6
 14 43  1  0
 15 44  1  0
 17 45  1  0
 18 46  1  0
 19 47  1  0
 21 48  1  0
 22 49  1  0
 24 50  1  0
 27 51  1  0
 28 52  1  0
M  END
>  <smiles>  (60) 
O=C(NCC(=O)N1CCCCC1c1ccc(O)cc1)c1ccc2cc(F)ccc2n1

>  <score_type>  (60) 
oracle

>  <origin>  (60) 
autodockgpu

>  <m_score__min__energy>  (60) 
-8.4199999999999999

>  <m_primary>  (60) 
energy

>  <rmsd>  (60) 
3.407456148018079

>  <m_score__min__rmsd>  (60) 
3.407456148018079

>  <meeko>  (60) 
{"free_energy": -6.81, "intermolecular_energy": -8.6, "internal_energy": -2.0, "cluster_size": 22, "cluster_id": 1, "rank_in_cluster": 22}

>  <energy>  (60) 
-7.93

>  <cluster_rmsd>  (60) 
0.78

>  <cluster>  (60) 
1

$$$$

     RDKit          3D

 52 55  0  0  0  0  0  0  0  0999 V2000
  140.6900   76.6140  218.3130 O   0  0  0  0  0  0  0  0  0  0  0  0
  141.8560   76.6300  218.7820 C   0  0  0  0  0  0  0  0  0  0  0  0
  142.3670   77.8500  219.3650 N   0  0  0  0  0  0  0  0  0  0  0  0
  141.6390   79.0650  219.4490 C   0  0  0  0  0  0  0  0  0  0  0  0
  141.5990   79.8940  220.6240 C   0  0  0  0  0  0  0  0  0  0  0  0
  141.0330   81.0740  220.3750 O   0  0  0  0  0  0  0  0  0  0  0  0
  142.0030   79.7540  221.9430 N   0  0  0  0  0  0  0  0  0  0  0  0
  143.1330   80.3900  222.6180 C   0  0  0  0  0  0  0  0  0  0  0  0
  142.6300   81.0660  223.8820 C   0  0  0  0  0  0  0  0  0  0  0  0
  141.1250   81.1720  223.8880 C   0  0  0  0  0  0  0  0  0  0  0  0
  140.5080   79.8200  223.7670 C   0  0  0  0  0  0  0  0  0  0  0  0
  141.2520   78.8940  222.8900 C   0  0  1  0  0  0  0  0  0  0  0  0
  140.5540   77.7820  222.2880 C   0  0  0  0  0  0  0  0  0  0  0  0
  141.0460   76.5150  222.0760 C   0  0  0  0  0  0  0  0  0  0  0  0
  140.3390   75.5040  221.4660 C   0  0  0  0  0  0  0  0  0  0  0  0
  139.0560   75.7270  221.0230 C   0  0  0  0  0  0  0  0  0  0  0  0
  138.2800   74.7720  220.4020 O   0  0  0  0  0  0  0  0  0  0  0  0
  138.5360   76.9890  221.2220 C   0  0  0  0  0  0  0  0  0  0  0  0
  139.2440   78.0000  221.8330 C   0  0  0  0  0  0  0  0  0  0  0  0
  142.6850   75.4160  218.7340 C   0  0  0  0  0  0  0  0  0  0  0  0
  142.5330   74.5440  217.6870 C   0  0  0  0  0  0  0  0  0  0  0  0
  143.3290   73.4030  217.6650 C   0  0  0  0  0  0  0  0  0  0  0  0
  144.2560   73.1440  218.6690 C   0  0  0  0  0  0  0  0  0  0  0  0
  145.0530   72.0170  218.6630 C   0  0  0  0  0  0  0  0  0  0  0  0
  145.9410   71.8370  219.6910 C   0  0  0  0  0  0  0  0  0  0  0  0
  146.7500   70.7390  219.7280 F   0  0  0  0  0  0  0  0  0  0  0  0
  146.0390   72.7630  220.7150 C   0  0  0  0  0  0  0  0  0  0  0  0
  145.2480   73.9080  220.7500 C   0  0  0  0  0  0  0  0  0  0  0  0
  144.3650   74.0570  219.6960 C   0  0  0  0  0  0  0  0  0  0  0  0
  143.5860   75.1550  219.7020 N   0  0  0  0  0  0  0  0  0  0  0  0
  143.3640   77.7420  219.7300 H   0  0  0  0  0  0  0  0  0  0  0  0
  142.0309   79.7048  218.6446 H   0  0  0  0  0  0  0  0  0  0  0  0
  140.6040   78.6940  219.4166 H   0  0  0  0  0  0  0  0  0  0  0  0
  143.8836   79.6294  222.8790 H   0  0  0  0  0  0  0  0  0  0  0  0
  143.5943   81.1354  221.9534 H   0  0  0  0  0  0  0  0  0  0  0  0
  142.9508   80.4778  224.7544 H   0  0  0  0  0  0  0  0  0  0  0  0
  143.0488   82.0824  223.9211 H   0  0  0  0  0  0  0  0  0  0  0  0
  140.7982   81.6365  224.8300 H   0  0  0  0  0  0  0  0  0  0  0  0
  140.8073   81.7869  223.0330 H   0  0  0  0  0  0  0  0  0  0  0  0
  140.4521   79.3747  224.7713 H   0  0  0  0  0  0  0  0  0  0  0  0
  139.5178   79.9630  223.3099 H   0  0  0  0  0  0  0  0  0  0  0  0
  141.9158   78.2907  223.5267 H   0  0  0  0  0  0  0  0  0  0  0  0
  142.0692   76.2961  222.4155 H   0  0  0  0  0  0  0  0  0  0  0  0
  140.8012   74.5148  221.3323 H   0  0  0  0  0  0  0  0  0  0  0  0
  137.3130   74.6220  220.6900 H   0  0  0  0  0  0  0  0  0  0  0  0
  137.5120   77.1968  220.8780 H   0  0  0  0  0  0  0  0  0  0  0  0
  138.7785   78.9878  221.9657 H   0  0  0  0  0  0  0  0  0  0  0  0
  141.8032   74.7406  216.8878 H   0  0  0  0  0  0  0  0  0  0  0  0
  143.2227   72.6895  216.8346 H   0  0  0  0  0  0  0  0  0  0  0  0
  144.9769   71.2793  217.8505 H   0  0  0  0  0  0  0  0  0  0  0  0
  146.7630   72.5891  221.5247 H   0  0  0  0  0  0  0  0  0  0  0  0
  145.3205   74.6458  221.5626 H   0  0  0  0  0  0  0  0  0  0  0  0
  1  2  2  0
  2  3  1  0
  3  4  1  0
  4  5  1  0
  5  6  2  0
  5  7  1  0
  7  8  1  0
  8  9  1  0
  9 10  1  0
 10 11  1  0
 11 12  1  0
 12 13  1  0
 13 14  2  0
 14 15  1  0
 15 16  2  0
 16 17  1  0
 16 18  1  0
 18 19  2  0
  2 20  1  0
 20 21  2  0
 21 22  1  0
 22 23  2  0
 23 24  1  0
 24 25  2  0
 25 26  1  0
 25 27  1  0
 27 28  2  0
 28 29  1  0
 29 30  2  0
 12  7  1  0
 19 13  1  0
 30 20  1  0
 29 23  1  0
  3 31  1  0
  4 32  1  0
  4 33  1  0
  8 34  1  0
  8 35  1  0
  9 36  1  0
  9 37  1  0
 10 38  1  0
 10 39  1  0
 11 40  1  0
 11 41  1  0
 12 42  1  1
 14 43  1  0
 15 44  1  0
 17 45  1  0
 18 46  1  0
 19 47  1  0
 21 48  1  0
 22 49  1  0
 24 50  1  0
 27 51  1  0
 28 52  1  0
M  END
>  <smiles>  (61) 
O=C(NCC(=O)N1CCCCC1c1ccc(O)cc1)c1ccc2cc(F)ccc2n1

>  <score_type>  (61) 
oracle

>  <origin>  (61) 
autodockgpu

>  <m_score__min__energy>  (61) 
-8.4199999999999999

>  <m_primary>  (61) 
energy

>  <rmsd>  (61) 
7.8659284599914745

>  <m_score__min__rmsd>  (61) 
7.8659284599914745

>  <meeko>  (61) 
{"free_energy": -6.51, "intermolecular_energy": -8.3, "internal_energy": -2.19, "cluster_size": 4, "cluster_id": 6, "rank_in_cluster": 4}

>  <energy>  (61) 
-7.9

>  <cluster_rmsd>  (61) 
0.65

>  <cluster>  (61) 
1

$$$$

     RDKit          3D

 52 55  0  0  0  0  0  0  0  0999 V2000
  139.9530   73.3360  222.7110 O   0  0  0  0  0  0  0  0  0  0  0  0
  140.2640   72.1280  222.5550 C   0  0  0  0  0  0  0  0  0  0  0  0
  140.7230   71.6780  221.2600 N   0  0  0  0  0  0  0  0  0  0  0  0
  140.8490   72.5130  220.1190 C   0  0  0  0  0  0  0  0  0  0  0  0
  139.9500   73.5940  219.8170 C   0  0  0  0  0  0  0  0  0  0  0  0
  138.8660   73.1680  219.1700 O   0  0  0  0  0  0  0  0  0  0  0  0
  139.9420   74.9630  220.0420 N   0  0  0  0  0  0  0  0  0  0  0  0
  138.8090   75.8840  219.9950 C   0  0  0  0  0  0  0  0  0  0  0  0
  138.7640   76.6710  221.2930 C   0  0  0  0  0  0  0  0  0  0  0  0
  139.6560   76.0540  222.3420 C   0  0  0  0  0  0  0  0  0  0  0  0
  141.0630   75.9820  221.8510 C   0  0  0  0  0  0  0  0  0  0  0  0
  141.1830   75.6890  220.4090 C   0  0  1  0  0  0  0  0  0  0  0  0
  142.4070   75.1040  219.9100 C   0  0  0  0  0  0  0  0  0  0  0  0
  142.8300   75.0640  218.6020 C   0  0  0  0  0  0  0  0  0  0  0  0
  143.9950   74.4620  218.1860 C   0  0  0  0  0  0  0  0  0  0  0  0
  144.8210   73.8490  219.0980 C   0  0  0  0  0  0  0  0  0  0  0  0
  146.0030   73.2230  218.7660 O   0  0  0  0  0  0  0  0  0  0  0  0
  144.4230   73.8730  220.4180 C   0  0  0  0  0  0  0  0  0  0  0  0
  143.2560   74.4760  220.8350 C   0  0  0  0  0  0  0  0  0  0  0  0
  140.1600   71.1890  223.6820 C   0  0  0  0  0  0  0  0  0  0  0  0
  139.5740   69.9660  223.4820 C   0  0  0  0  0  0  0  0  0  0  0  0
  139.4880   69.0970  224.5640 C   0  0  0  0  0  0  0  0  0  0  0  0
  139.9790   69.4450  225.8180 C   0  0  0  0  0  0  0  0  0  0  0  0
  139.9010   68.5950  226.9030 C   0  0  0  0  0  0  0  0  0  0  0  0
  140.4080   69.0170  228.1030 C   0  0  0  0  0  0  0  0  0  0  0  0
  140.3550   68.2110  229.2030 F   0  0  0  0  0  0  0  0  0  0  0  0
  140.9860   70.2680  228.2300 C   0  0  0  0  0  0  0  0  0  0  0  0
  141.0790   71.1480  227.1550 C   0  0  0  0  0  0  0  0  0  0  0  0
  140.5570   70.6890  225.9600 C   0  0  0  0  0  0  0  0  0  0  0  0
  140.6310   71.5180  224.9010 N   0  0  0  0  0  0  0  0  0  0  0  0
  140.9580   70.6370  221.2490 H   0  0  0  0  0  0  0  0  0  0  0  0
  141.8491   72.9658  220.1883 H   0  0  0  0  0  0  0  0  0  0  0  0
  140.6089   71.8058  219.3114 H   0  0  0  0  0  0  0  0  0  0  0  0
  138.9292   76.5750  219.1476 H   0  0  0  0  0  0  0  0  0  0  0  0
  137.8735   75.3196  219.8675 H   0  0  0  0  0  0  0  0  0  0  0  0
  139.0989   77.7007  221.0990 H   0  0  0  0  0  0  0  0  0  0  0  0
  137.7301   76.6610  221.6683 H   0  0  0  0  0  0  0  0  0  0  0  0
  139.6213   76.6680  223.2540 H   0  0  0  0  0  0  0  0  0  0  0  0
  139.3009   75.0356  222.5583 H   0  0  0  0  0  0  0  0  0  0  0  0
  141.5480   76.9493  222.0487 H   0  0  0  0  0  0  0  0  0  0  0  0
  141.5437   75.1493  222.3854 H   0  0  0  0  0  0  0  0  0  0  0  0
  141.2807   76.6481  219.8792 H   0  0  0  0  0  0  0  0  0  0  0  0
  142.1971   75.5434  217.8407 H   0  0  0  0  0  0  0  0  0  0  0  0
  144.2664   74.4712  217.1201 H   0  0  0  0  0  0  0  0  0  0  0  0
  146.8190   73.7680  218.4870 H   0  0  0  0  0  0  0  0  0  0  0  0
  145.0643   73.3903  221.1702 H   0  0  0  0  0  0  0  0  0  0  0  0
  142.9875   74.4651  221.9017 H   0  0  0  0  0  0  0  0  0  0  0  0
  139.1832   69.6804  222.4942 H   0  0  0  0  0  0  0  0  0  0  0  0
  139.0206   68.1110  224.4250 H   0  0  0  0  0  0  0  0  0  0  0  0
  139.4415   67.6003  226.8057 H   0  0  0  0  0  0  0  0  0  0  0  0
  141.3834   70.5760  229.2084 H   0  0  0  0  0  0  0  0  0  0  0  0
  141.5377   72.1432  227.2503 H   0  0  0  0  0  0  0  0  0  0  0  0
  1  2  2  0
  2  3  1  0
  3  4  1  0
  4  5  1  0
  5  6  2  0
  5  7  1  0
  7  8  1  0
  8  9  1  0
  9 10  1  0
 10 11  1  0
 11 12  1  0
 12 13  1  0
 13 14  2  0
 14 15  1  0
 15 16  2  0
 16 17  1  0
 16 18  1  0
 18 19  2  0
  2 20  1  0
 20 21  2  0
 21 22  1  0
 22 23  2  0
 23 24  1  0
 24 25  2  0
 25 26  1  0
 25 27  1  0
 27 28  2  0
 28 29  1  0
 29 30  2  0
 12  7  1  0
 19 13  1  0
 30 20  1  0
 29 23  1  0
  3 31  1  0
  4 32  1  0
  4 33  1  0
  8 34  1  0
  8 35  1  0
  9 36  1  0
  9 37  1  0
 10 38  1  0
 10 39  1  0
 11 40  1  0
 11 41  1  0
 12 42  1  6
 14 43  1  0
 15 44  1  0
 17 45  1  0
 18 46  1  0
 19 47  1  0
 21 48  1  0
 22 49  1  0
 24 50  1  0
 27 51  1  0
 28 52  1  0
M  END
>  <smiles>  (62) 
O=C(NCC(=O)N1CCCCC1c1ccc(O)cc1)c1ccc2cc(F)ccc2n1

>  <score_type>  (62) 
oracle

>  <origin>  (62) 
autodockgpu

>  <m_score__min__energy>  (62) 
-8.4199999999999999

>  <m_primary>  (62) 
energy

>  <rmsd>  (62) 
2.566924067314621

>  <m_score__min__rmsd>  (62) 
2.566924067314621

>  <meeko>  (62) 
{"free_energy": -7.89, "intermolecular_energy": -9.68, "internal_energy": -1.47, "cluster_size": 22, "cluster_id": 1, "rank_in_cluster": 12}

>  <energy>  (62) 
-7.89

>  <cluster_rmsd>  (62) 
1.36

>  <cluster>  (62) 
1

$$$$

     RDKit          3D

 52 55  0  0  0  0  0  0  0  0999 V2000
  141.4620   72.2860  221.4970 O   0  0  0  0  0  0  0  0  0  0  0  0
  140.6130   72.5760  222.3770 C   0  0  0  0  0  0  0  0  0  0  0  0
  139.9140   73.8390  222.2970 N   0  0  0  0  0  0  0  0  0  0  0  0
  140.1200   74.8060  221.2770 C   0  0  0  0  0  0  0  0  0  0  0  0
  141.0160   75.9240  221.4060 C   0  0  0  0  0  0  0  0  0  0  0  0
  141.0650   76.3740  222.6580 O   0  0  0  0  0  0  0  0  0  0  0  0
  141.8370   76.6350  220.5420 N   0  0  0  0  0  0  0  0  0  0  0  0
  142.9660   76.1450  219.7560 C   0  0  0  0  0  0  0  0  0  0  0  0
  142.7620   76.5450  218.3050 C   0  0  0  0  0  0  0  0  0  0  0  0
  141.3480   77.0090  218.0560 C   0  0  0  0  0  0  0  0  0  0  0  0
  141.0150   78.1620  218.9420 C   0  0  0  0  0  0  0  0  0  0  0  0
  141.6170   78.0800  220.2880 C   0  0  1  0  0  0  0  0  0  0  0  0
  141.0070   78.8090  221.3760 C   0  0  0  0  0  0  0  0  0  0  0  0
  141.6520   79.4020  222.4360 C   0  0  0  0  0  0  0  0  0  0  0  0
  141.0100   80.0580  223.4620 C   0  0  0  0  0  0  0  0  0  0  0  0
  139.6380   80.1510  223.4710 C   0  0  0  0  0  0  0  0  0  0  0  0
  138.9170   80.7880  224.4580 O   0  0  0  0  0  0  0  0  0  0  0  0
  138.9630   79.5650  222.4200 C   0  0  0  0  0  0  0  0  0  0  0  0
  139.6070   78.9090  221.3940 C   0  0  0  0  0  0  0  0  0  0  0  0
  140.3380   71.6350  223.4730 C   0  0  0  0  0  0  0  0  0  0  0  0
  139.6310   70.4900  223.2100 C   0  0  0  0  0  0  0  0  0  0  0  0
  139.3840   69.6170  224.2640 C   0  0  0  0  0  0  0  0  0  0  0  0
  139.8360   69.8840  225.5520 C   0  0  0  0  0  0  0  0  0  0  0  0
  139.6000   69.0290  226.6090 C   0  0  0  0  0  0  0  0  0  0  0  0
  140.0790   69.3680  227.8470 C   0  0  0  0  0  0  0  0  0  0  0  0
  139.8710   68.5540  228.9210 F   0  0  0  0  0  0  0  0  0  0  0  0
  140.7860   70.5430  228.0370 C   0  0  0  0  0  0  0  0  0  0  0  0
  141.0400   71.4260  226.9910 C   0  0  0  0  0  0  0  0  0  0  0  0
  140.5410   71.0510  225.7570 C   0  0  0  0  0  0  0  0  0  0  0  0
  140.7710   71.8860  224.7250 N   0  0  0  0  0  0  0  0  0  0  0  0
  139.2190   73.9740  223.0940 H   0  0  0  0  0  0  0  0  0  0  0  0
  140.4667   74.2442  220.3972 H   0  0  0  0  0  0  0  0  0  0  0  0
  139.1451   75.3153  221.2673 H   0  0  0  0  0  0  0  0  0  0  0  0
  143.8995   76.5876  220.1338 H   0  0  0  0  0  0  0  0  0  0  0  0
  143.0304   75.0498  219.8365 H   0  0  0  0  0  0  0  0  0  0  0  0
  143.4557   77.3622  218.0580 H   0  0  0  0  0  0  0  0  0  0  0  0
  142.9544   75.6656  217.6729 H   0  0  0  0  0  0  0  0  0  0  0  0
  141.2480   77.3187  217.0053 H   0  0  0  0  0  0  0  0  0  0  0  0
  140.6574   76.1809  218.2736 H   0  0  0  0  0  0  0  0  0  0  0  0
  141.3722   79.0835  218.4591 H   0  0  0  0  0  0  0  0  0  0  0  0
  139.9238   78.1514  219.0807 H   0  0  0  0  0  0  0  0  0  0  0  0
  142.5571   78.6509  220.2703 H   0  0  0  0  0  0  0  0  0  0  0  0
  142.7503   79.3488  222.4659 H   0  0  0  0  0  0  0  0  0  0  0  0
  141.5959   80.5088  224.2766 H   0  0  0  0  0  0  0  0  0  0  0  0
  138.4400   81.6690  224.2670 H   0  0  0  0  0  0  0  0  0  0  0  0
  137.8648   79.6241  222.4005 H   0  0  0  0  0  0  0  0  0  0  0  0
  139.0184   78.4591  220.5809 H   0  0  0  0  0  0  0  0  0  0  0  0
  139.2697   70.2684  222.1949 H   0  0  0  0  0  0  0  0  0  0  0  0
  138.8176   68.6932  224.0745 H   0  0  0  0  0  0  0  0  0  0  0  0
  139.0389   68.0946  226.4607 H   0  0  0  0  0  0  0  0  0  0  0  0
  141.1578   70.7859  229.0434 H   0  0  0  0  0  0  0  0  0  0  0  0
  141.6010   72.3609  227.1366 H   0  0  0  0  0  0  0  0  0  0  0  0
  1  2  2  0
  2  3  1  0
  3  4  1  0
  4  5  1  0
  5  6  2  0
  5  7  1  0
  7  8  1  0
  8  9  1  0
  9 10  1  0
 10 11  1  0
 11 12  1  0
 12 13  1  0
 13 14  2  0
 14 15  1  0
 15 16  2  0
 16 17  1  0
 16 18  1  0
 18 19  2  0
  2 20  1  0
 20 21  2  0
 21 22  1  0
 22 23  2  0
 23 24  1  0
 24 25  2  0
 25 26  1  0
 25 27  1  0
 27 28  2  0
 28 29  1  0
 29 30  2  0
 12  7  1  0
 19 13  1  0
 30 20  1  0
 29 23  1  0
  3 31  1  0
  4 32  1  0
  4 33  1  0
  8 34  1  0
  8 35  1  0
  9 36  1  0
  9 37  1  0
 10 38  1  0
 10 39  1  0
 11 40  1  0
 11 41  1  0
 12 42  1  6
 14 43  1  0
 15 44  1  0
 17 45  1  0
 18 46  1  0
 19 47  1  0
 21 48  1  0
 22 49  1  0
 24 50  1  0
 27 51  1  0
 28 52  1  0
M  END
>  <smiles>  (63) 
O=C(NCC(=O)N1CCCCC1c1ccc(O)cc1)c1ccc2cc(F)ccc2n1

>  <score_type>  (63) 
oracle

>  <origin>  (63) 
autodockgpu

>  <m_score__min__energy>  (63) 
-8.4199999999999999

>  <m_primary>  (63) 
energy

>  <rmsd>  (63) 
2.1718692355383027

>  <m_score__min__rmsd>  (63) 
2.1718692355383027

>  <meeko>  (63) 
{"free_energy": -7.93, "intermolecular_energy": -9.72, "internal_energy": -1.23, "cluster_size": 6, "cluster_id": 3, "rank_in_cluster": 2}

>  <energy>  (63) 
-7.87

>  <cluster_rmsd>  (63) 
0.7

>  <cluster>  (63) 
1

$$$$

     RDKit          3D

 52 55  0  0  0  0  0  0  0  0999 V2000
  141.4100   72.5930  221.7860 O   0  0  0  0  0  0  0  0  0  0  0  0
  140.4070   72.6540  222.5410 C   0  0  0  0  0  0  0  0  0  0  0  0
  139.4490   73.7200  222.3610 N   0  0  0  0  0  0  0  0  0  0  0  0
  139.5560   74.7360  221.3750 C   0  0  0  0  0  0  0  0  0  0  0  0
  140.3880   75.9010  221.5140 C   0  0  0  0  0  0  0  0  0  0  0  0
  141.6830   75.5880  221.4930 O   0  0  0  0  0  0  0  0  0  0  0  0
  140.1630   77.2620  221.6600 N   0  0  0  0  0  0  0  0  0  0  0  0
  139.1460   77.9320  222.4670 C   0  0  0  0  0  0  0  0  0  0  0  0
  139.8270   78.9560  223.3590 C   0  0  0  0  0  0  0  0  0  0  0  0
  141.3210   78.7470  223.3970 C   0  0  0  0  0  0  0  0  0  0  0  0
  141.8920   78.8270  222.0210 C   0  0  0  0  0  0  0  0  0  0  0  0
  141.0190   78.2610  220.9730 C   0  0  1  0  0  0  0  0  0  0  0  0
  141.6100   77.8140  219.7330 C   0  0  0  0  0  0  0  0  0  0  0  0
  142.8000   77.1400  219.5810 C   0  0  0  0  0  0  0  0  0  0  0  0
  143.3270   76.7690  218.3650 C   0  0  0  0  0  0  0  0  0  0  0  0
  142.6600   77.0690  217.2010 C   0  0  0  0  0  0  0  0  0  0  0  0
  143.1170   76.7360  215.9440 O   0  0  0  0  0  0  0  0  0  0  0  0
  141.4640   77.7460  217.3220 C   0  0  0  0  0  0  0  0  0  0  0  0
  140.9360   78.1170  218.5390 C   0  0  0  0  0  0  0  0  0  0  0  0
  140.2170   71.6450  223.5950 C   0  0  0  0  0  0  0  0  0  0  0  0
  139.5470   70.4860  223.2970 C   0  0  0  0  0  0  0  0  0  0  0  0
  139.3800   69.5490  224.3110 C   0  0  0  0  0  0  0  0  0  0  0  0
  139.8760   69.7660  225.5930 C   0  0  0  0  0  0  0  0  0  0  0  0
  139.7200   68.8470  226.6100 C   0  0  0  0  0  0  0  0  0  0  0  0
  140.2380   69.1390  227.8430 C   0  0  0  0  0  0  0  0  0  0  0  0
  140.1090   68.2610  228.8790 F   0  0  0  0  0  0  0  0  0  0  0  0
  140.9040   70.3310  228.0690 C   0  0  0  0  0  0  0  0  0  0  0  0
  141.0780   71.2790  227.0640 C   0  0  0  0  0  0  0  0  0  0  0  0
  140.5420   70.9490  225.8320 C   0  0  0  0  0  0  0  0  0  0  0  0
  140.6930   71.8470  224.8390 N   0  0  0  0  0  0  0  0  0  0  0  0
  138.6420   73.6680  223.0560 H   0  0  0  0  0  0  0  0  0  0  0  0
  139.8995   74.2304  220.4604 H   0  0  0  0  0  0  0  0  0  0  0  0
  138.5531   75.1852  221.4246 H   0  0  0  0  0  0  0  0  0  0  0  0
  138.4244   78.4371  221.8080 H   0  0  0  0  0  0  0  0  0  0  0  0
  138.6120   77.1944  223.0840 H   0  0  0  0  0  0  0  0  0  0  0  0
  139.6165   79.9639  222.9720 H   0  0  0  0  0  0  0  0  0  0  0  0
  139.4354   78.8400  224.3803 H   0  0  0  0  0  0  0  0  0  0  0  0
  141.7799   79.5243  224.0257 H   0  0  0  0  0  0  0  0  0  0  0  0
  141.5317   77.7510  223.8136 H   0  0  0  0  0  0  0  0  0  0  0  0
  142.0751   79.8854  221.7838 H   0  0  0  0  0  0  0  0  0  0  0  0
  142.8140   78.2271  222.0244 H   0  0  0  0  0  0  0  0  0  0  0  0
  140.4354   79.0868  220.5401 H   0  0  0  0  0  0  0  0  0  0  0  0
  143.3656   76.8815  220.4884 H   0  0  0  0  0  0  0  0  0  0  0  0
  144.2853   76.2305  218.3243 H   0  0  0  0  0  0  0  0  0  0  0  0
  143.7760   77.3400  215.4540 H   0  0  0  0  0  0  0  0  0  0  0  0
  140.9082   78.0004  216.4075 H   0  0  0  0  0  0  0  0  0  0  0  0
  139.9776   78.6556  218.5758 H   0  0  0  0  0  0  0  0  0  0  0  0
  139.1535   70.3030  222.2862 H   0  0  0  0  0  0  0  0  0  0  0  0
  138.8429   68.6138  224.0945 H   0  0  0  0  0  0  0  0  0  0  0  0
  139.1903   67.8992  226.4338 H   0  0  0  0  0  0  0  0  0  0  0  0
  141.3076   70.5355  229.0716 H   0  0  0  0  0  0  0  0  0  0  0  0
  141.6068   72.2277  227.2382 H   0  0  0  0  0  0  0  0  0  0  0  0
  1  2  2  0
  2  3  1  0
  3  4  1  0
  4  5  1  0
  5  6  2  0
  5  7  1  0
  7  8  1  0
  8  9  1  0
  9 10  1  0
 10 11  1  0
 11 12  1  0
 12 13  1  0
 13 14  2  0
 14 15  1  0
 15 16  2  0
 16 17  1  0
 16 18  1  0
 18 19  2  0
  2 20  1  0
 20 21  2  0
 21 22  1  0
 22 23  2  0
 23 24  1  0
 24 25  2  0
 25 26  1  0
 25 27  1  0
 27 28  2  0
 28 29  1  0
 29 30  2  0
 12  7  1  0
 19 13  1  0
 30 20  1  0
 29 23  1  0
  3 31  1  0
  4 32  1  0
  4 33  1  0
  8 34  1  0
  8 35  1  0
  9 36  1  0
  9 37  1  0
 10 38  1  0
 10 39  1  0
 11 40  1  0
 11 41  1  0
 12 42  1  6
 14 43  1  0
 15 44  1  0
 17 45  1  0
 18 46  1  0
 19 47  1  0
 21 48  1  0
 22 49  1  0
 24 50  1  0
 27 51  1  0
 28 52  1  0
M  END
>  <smiles>  (64) 
O=C(NCC(=O)N1CCCCC1c1ccc(O)cc1)c1ccc2cc(F)ccc2n1

>  <score_type>  (64) 
oracle

>  <origin>  (64) 
autodockgpu

>  <m_score__min__energy>  (64) 
-8.4199999999999999

>  <m_primary>  (64) 
energy

>  <rmsd>  (64) 
3.0694445207711443

>  <m_score__min__rmsd>  (64) 
3.0694445207711443

>  <meeko>  (64) 
{"free_energy": -8.06, "intermolecular_energy": -9.85, "internal_energy": -1.05, "cluster_size": 10, "cluster_id": 2, "rank_in_cluster": 3}

>  <energy>  (64) 
-7.82

>  <cluster_rmsd>  (64) 
1.21

>  <cluster>  (64) 
1

$$$$

     RDKit          3D

 52 55  0  0  0  0  0  0  0  0999 V2000
  141.5180   72.4410  221.6400 O   0  0  0  0  0  0  0  0  0  0  0  0
  140.5710   72.6050  222.4490 C   0  0  0  0  0  0  0  0  0  0  0  0
  139.7380   73.7800  222.3370 N   0  0  0  0  0  0  0  0  0  0  0  0
  139.9130   74.7960  221.3600 C   0  0  0  0  0  0  0  0  0  0  0  0
  140.9530   75.7880  221.4160 C   0  0  0  0  0  0  0  0  0  0  0  0
  140.9880   76.3990  222.6000 O   0  0  0  0  0  0  0  0  0  0  0  0
  141.9230   76.2510  220.5390 N   0  0  0  0  0  0  0  0  0  0  0  0
  142.9770   75.4920  219.8700 C   0  0  0  0  0  0  0  0  0  0  0  0
  142.9080   75.7710  218.3780 C   0  0  0  0  0  0  0  0  0  0  0  0
  141.6120   76.4470  218.0040 C   0  0  0  0  0  0  0  0  0  0  0  0
  141.4560   77.7250  218.7570 C   0  0  0  0  0  0  0  0  0  0  0  0
  141.9780   77.6780  220.1380 C   0  0  1  0  0  0  0  0  0  0  0  0
  141.4660   78.6120  221.1150 C   0  0  0  0  0  0  0  0  0  0  0  0
  142.1670   79.1990  222.1420 C   0  0  0  0  0  0  0  0  0  0  0  0
  141.6120   80.0580  223.0630 C   0  0  0  0  0  0  0  0  0  0  0  0
  140.2770   80.3800  222.9920 C   0  0  0  0  0  0  0  0  0  0  0  0
  139.6430   81.2300  223.8720 O   0  0  0  0  0  0  0  0  0  0  0  0
  139.5480   79.8050  221.9720 C   0  0  0  0  0  0  0  0  0  0  0  0
  140.1040   78.9450  221.0500 C   0  0  0  0  0  0  0  0  0  0  0  0
  140.3180   71.6040  223.4970 C   0  0  0  0  0  0  0  0  0  0  0  0
  139.6160   70.4690  223.1820 C   0  0  0  0  0  0  0  0  0  0  0  0
  139.3900   69.5380  224.1900 C   0  0  0  0  0  0  0  0  0  0  0  0
  139.8580   69.7400  225.4850 C   0  0  0  0  0  0  0  0  0  0  0  0
  139.6430   68.8270  226.4980 C   0  0  0  0  0  0  0  0  0  0  0  0
  140.1370   69.1030  227.7450 C   0  0  0  0  0  0  0  0  0  0  0  0
  139.9500   68.2310  228.7770 F   0  0  0  0  0  0  0  0  0  0  0  0
  140.8380   70.2720  227.9880 C   0  0  0  0  0  0  0  0  0  0  0  0
  141.0710   71.2120  226.9880 C   0  0  0  0  0  0  0  0  0  0  0  0
  140.5570   70.9000  225.7430 C   0  0  0  0  0  0  0  0  0  0  0  0
  140.7660   71.7900  224.7540 N   0  0  0  0  0  0  0  0  0  0  0  0
  138.9680   73.8090  223.0740 H   0  0  0  0  0  0  0  0  0  0  0  0
  140.0514   74.2708  220.4034 H   0  0  0  0  0  0  0  0  0  0  0  0
  139.0206   75.4146  221.5356 H   0  0  0  0  0  0  0  0  0  0  0  0
  143.9587   75.8003  220.2590 H   0  0  0  0  0  0  0  0  0  0  0  0
  142.8397   74.4166  220.0564 H   0  0  0  0  0  0  0  0  0  0  0  0
  143.7468   76.4248  218.0969 H   0  0  0  0  0  0  0  0  0  0  0  0
  142.9650   74.8114  217.8433 H   0  0  0  0  0  0  0  0  0  0  0  0
  141.6125   76.6599  216.9248 H   0  0  0  0  0  0  0  0  0  0  0  0
  140.7753   75.7793  218.2571 H   0  0  0  0  0  0  0  0  0  0  0  0
  141.9925   78.5153  218.2115 H   0  0  0  0  0  0  0  0  0  0  0  0
  140.3759   77.9194  218.8322 H   0  0  0  0  0  0  0  0  0  0  0  0
  143.0057   78.0699  220.1223 H   0  0  0  0  0  0  0  0  0  0  0  0
  143.2385   78.9675  222.2332 H   0  0  0  0  0  0  0  0  0  0  0  0
  142.2383   80.4883  223.8584 H   0  0  0  0  0  0  0  0  0  0  0  0
  139.0660   81.9970  223.5290 H   0  0  0  0  0  0  0  0  0  0  0  0
  138.4771   80.0431  221.8911 H   0  0  0  0  0  0  0  0  0  0  0  0
  139.4750   78.5157  220.2562 H   0  0  0  0  0  0  0  0  0  0  0  0
  139.2424   70.2998  222.1613 H   0  0  0  0  0  0  0  0  0  0  0  0
  138.8285   68.6209  223.9585 H   0  0  0  0  0  0  0  0  0  0  0  0
  139.0866   67.8974  226.3075 H   0  0  0  0  0  0  0  0  0  0  0  0
  141.2220   70.4636  229.0008 H   0  0  0  0  0  0  0  0  0  0  0  0
  141.6275   72.1420  227.1760 H   0  0  0  0  0  0  0  0  0  0  0  0
  1  2  2  0
  2  3  1  0
  3  4  1  0
  4  5  1  0
  5  6  2  0
  5  7  1  0
  7  8  1  0
  8  9  1  0
  9 10  1  0
 10 11  1  0
 11 12  1  0
 12 13  1  0
 13 14  2  0
 14 15  1  0
 15 16  2  0
 16 17  1  0
 16 18  1  0
 18 19  2  0
  2 20  1  0
 20 21  2  0
 21 22  1  0
 22 23  2  0
 23 24  1  0
 24 25  2  0
 25 26  1  0
 25 27  1  0
 27 28  2  0
 28 29  1  0
 29 30  2  0
 12  7  1  0
 19 13  1  0
 30 20  1  0
 29 23  1  0
  3 31  1  0
  4 32  1  0
  4 33  1  0
  8 34  1  0
  8 35  1  0
  9 36  1  0
  9 37  1  0
 10 38  1  0
 10 39  1  0
 11 40  1  0
 11 41  1  0
 12 42  1  6
 14 43  1  0
 15 44  1  0
 17 45  1  0
 18 46  1  0
 19 47  1  0
 21 48  1  0
 22 49  1  0
 24 50  1  0
 27 51  1  0
 28 52  1  0
M  END
>  <smiles>  (65) 
O=C(NCC(=O)N1CCCCC1c1ccc(O)cc1)c1ccc2cc(F)ccc2n1

>  <score_type>  (65) 
oracle

>  <origin>  (65) 
autodockgpu

>  <m_score__min__energy>  (65) 
-8.4199999999999999

>  <m_primary>  (65) 
energy

>  <rmsd>  (65) 
2.0924051018725907

>  <m_score__min__rmsd>  (65) 
2.0924051018725907

>  <meeko>  (65) 
{"free_energy": -7.88, "intermolecular_energy": -9.67, "internal_energy": -1.22, "cluster_size": 6, "cluster_id": 3, "rank_in_cluster": 3}

>  <energy>  (65) 
-7.7

>  <cluster_rmsd>  (65) 
1.29

>  <cluster>  (65) 
1

$$$$

     RDKit          3D

 52 55  0  0  0  0  0  0  0  0999 V2000
  138.8420   74.8800  221.9400 O   0  0  0  0  0  0  0  0  0  0  0  0
  140.0440   75.2450  221.9030 C   0  0  0  0  0  0  0  0  0  0  0  0
  140.3860   76.5960  222.2850 N   0  0  0  0  0  0  0  0  0  0  0  0
  139.4450   77.5730  222.7050 C   0  0  0  0  0  0  0  0  0  0  0  0
  139.5150   78.9610  222.3360 C   0  0  0  0  0  0  0  0  0  0  0  0
  138.3300   79.4260  221.9430 O   0  0  0  0  0  0  0  0  0  0  0  0
  140.5140   79.9220  222.2970 N   0  0  0  0  0  0  0  0  0  0  0  0
  140.5600   81.2110  222.9820 C   0  0  0  0  0  0  0  0  0  0  0  0
  141.8660   81.3100  223.7520 C   0  0  0  0  0  0  0  0  0  0  0  0
  142.5460   79.9670  223.8560 C   0  0  0  0  0  0  0  0  0  0  0  0
  142.8090   79.4100  222.4980 C   0  0  0  0  0  0  0  0  0  0  0  0
  141.7540   79.7110  221.5090 C   0  0  1  0  0  0  0  0  0  0  0  0
  141.6100   78.8550  220.3540 C   0  0  0  0  0  0  0  0  0  0  0  0
  142.2220   77.6410  220.1440 C   0  0  0  0  0  0  0  0  0  0  0  0
  142.0690   76.8860  219.0040 C   0  0  0  0  0  0  0  0  0  0  0  0
  141.2630   77.3320  217.9820 C   0  0  0  0  0  0  0  0  0  0  0  0
  141.0560   76.6400  216.8090 O   0  0  0  0  0  0  0  0  0  0  0  0
  140.6360   78.5470  218.1640 C   0  0  0  0  0  0  0  0  0  0  0  0
  140.7890   79.3020  219.3060 C   0  0  0  0  0  0  0  0  0  0  0  0
  141.0860   74.2990  221.4750 C   0  0  0  0  0  0  0  0  0  0  0  0
  140.7850   72.9640  221.3940 C   0  0  0  0  0  0  0  0  0  0  0  0
  141.7890   72.0910  220.9880 C   0  0  0  0  0  0  0  0  0  0  0  0
  143.0640   72.5460  220.6680 C   0  0  0  0  0  0  0  0  0  0  0  0
  144.0710   71.6930  220.2630 C   0  0  0  0  0  0  0  0  0  0  0  0
  145.2990   72.2230  219.9680 C   0  0  0  0  0  0  0  0  0  0  0  0
  146.3250   71.4200  219.5630 F   0  0  0  0  0  0  0  0  0  0  0  0
  145.5290   73.5840  220.0730 C   0  0  0  0  0  0  0  0  0  0  0  0
  144.5340   74.4690  220.4790 C   0  0  0  0  0  0  0  0  0  0  0  0
  143.3080   73.8990  220.7680 C   0  0  0  0  0  0  0  0  0  0  0  0
  142.3250   74.7300  221.1640 N   0  0  0  0  0  0  0  0  0  0  0  0
  141.4330   76.7880  222.2160 H   0  0  0  0  0  0  0  0  0  0  0  0
  138.4663   77.2179  222.3499 H   0  0  0  0  0  0  0  0  0  0  0  0
  139.6644   77.6290  223.7814 H   0  0  0  0  0  0  0  0  0  0  0  0
  140.5037   82.0243  222.2435 H   0  0  0  0  0  0  0  0  0  0  0  0
  139.7101   81.2964  223.6751 H   0  0  0  0  0  0  0  0  0  0  0  0
  142.5357   82.0111  223.2325 H   0  0  0  0  0  0  0  0  0  0  0  0
  141.6427   81.6650  224.7689 H   0  0  0  0  0  0  0  0  0  0  0  0
  143.5003   80.0845  224.3904 H   0  0  0  0  0  0  0  0  0  0  0  0
  141.8883   79.2759  224.4035 H   0  0  0  0  0  0  0  0  0  0  0  0
  143.7572   79.8291  222.1302 H   0  0  0  0  0  0  0  0  0  0  0  0
  142.8417   78.3157  222.6044 H   0  0  0  0  0  0  0  0  0  0  0  0
  142.0583   80.6122  220.9564 H   0  0  0  0  0  0  0  0  0  0  0  0
  142.8750   77.2491  220.9377 H   0  0  0  0  0  0  0  0  0  0  0  0
  142.5925   75.9232  218.9094 H   0  0  0  0  0  0  0  0  0  0  0  0
  141.7440   76.6740  216.0570 H   0  0  0  0  0  0  0  0  0  0  0  0
  139.9861   78.9294  217.3631 H   0  0  0  0  0  0  0  0  0  0  0  0
  140.2633   80.2639  219.3979 H   0  0  0  0  0  0  0  0  0  0  0  0
  139.7793   72.5941  221.6427 H   0  0  0  0  0  0  0  0  0  0  0  0
  141.5695   71.0154  220.9184 H   0  0  0  0  0  0  0  0  0  0  0  0
  143.8911   70.6111  220.1790 H   0  0  0  0  0  0  0  0  0  0  0  0
  146.5267   73.9776  219.8286 H   0  0  0  0  0  0  0  0  0  0  0  0
  144.7116   75.5512  220.5643 H   0  0  0  0  0  0  0  0  0  0  0  0
  1  2  2  0
  2  3  1  0
  3  4  1  0
  4  5  1  0
  5  6  2  0
  5  7  1  0
  7  8  1  0
  8  9  1  0
  9 10  1  0
 10 11  1  0
 11 12  1  0
 12 13  1  0
 13 14  2  0
 14 15  1  0
 15 16  2  0
 16 17  1  0
 16 18  1  0
 18 19  2  0
  2 20  1  0
 20 21  2  0
 21 22  1  0
 22 23  2  0
 23 24  1  0
 24 25  2  0
 25 26  1  0
 25 27  1  0
 27 28  2  0
 28 29  1  0
 29 30  2  0
 12  7  1  0
 19 13  1  0
 30 20  1  0
 29 23  1  0
  3 31  1  0
  4 32  1  0
  4 33  1  0
  8 34  1  0
  8 35  1  0
  9 36  1  0
  9 37  1  0
 10 38  1  0
 10 39  1  0
 11 40  1  0
 11 41  1  0
 12 42  1  6
 14 43  1  0
 15 44  1  0
 17 45  1  0
 18 46  1  0
 19 47  1  0
 21 48  1  0
 22 49  1  0
 24 50  1  0
 27 51  1  0
 28 52  1  0
M  END
>  <smiles>  (66) 
O=C(NCC(=O)N1CCCCC1c1ccc(O)cc1)c1ccc2cc(F)ccc2n1

>  <score_type>  (66) 
oracle

>  <origin>  (66) 
autodockgpu

>  <m_score__min__energy>  (66) 
-8.4199999999999999

>  <m_primary>  (66) 
energy

>  <rmsd>  (66) 
6.656795486972248

>  <m_score__min__rmsd>  (66) 
6.656795486972248

>  <meeko>  (66) 
{"free_energy": -6.34, "intermolecular_energy": -8.13, "internal_energy": -2.3, "cluster_size": 7, "cluster_id": 4, "rank_in_cluster": 7}

>  <energy>  (66) 
-7.55

>  <cluster_rmsd>  (66) 
1.08

>  <cluster>  (66) 
1

$$$$

     RDKit          3D

 52 55  0  0  0  0  0  0  0  0999 V2000
  139.0160   70.6250  221.2340 O   0  0  0  0  0  0  0  0  0  0  0  0
  139.6950   71.0520  222.2020 C   0  0  0  0  0  0  0  0  0  0  0  0
  140.4520   72.2740  222.0510 N   0  0  0  0  0  0  0  0  0  0  0  0
  140.4930   73.0500  220.8630 C   0  0  0  0  0  0  0  0  0  0  0  0
  140.8230   74.4500  220.8340 C   0  0  0  0  0  0  0  0  0  0  0  0
  141.0090   74.9370  222.0590 O   0  0  0  0  0  0  0  0  0  0  0  0
  140.9960   75.4020  219.8400 N   0  0  0  0  0  0  0  0  0  0  0  0
  139.9720   76.1340  219.0970 C   0  0  0  0  0  0  0  0  0  0  0  0
  140.2680   77.6210  219.1950 C   0  0  0  0  0  0  0  0  0  0  0  0
  141.2870   77.9100  220.2690 C   0  0  0  0  0  0  0  0  0  0  0  0
  142.5520   77.1680  219.9990 C   0  0  0  0  0  0  0  0  0  0  0  0
  142.3510   75.8280  219.4110 C   0  0  1  0  0  0  0  0  0  0  0  0
  143.3850   74.8310  219.5630 C   0  0  0  0  0  0  0  0  0  0  0  0
  144.4300   74.8560  220.4580 C   0  0  0  0  0  0  0  0  0  0  0  0
  145.4050   73.8880  220.5320 C   0  0  0  0  0  0  0  0  0  0  0  0
  145.3770   72.8100  219.6790 C   0  0  0  0  0  0  0  0  0  0  0  0
  146.3130   71.7990  219.6850 O   0  0  0  0  0  0  0  0  0  0  0  0
  144.3410   72.7590  218.7690 C   0  0  0  0  0  0  0  0  0  0  0  0
  143.3640   73.7280  218.6960 C   0  0  0  0  0  0  0  0  0  0  0  0
  139.7140   70.3090  223.4710 C   0  0  0  0  0  0  0  0  0  0  0  0
  139.1200   69.0750  223.5320 C   0  0  0  0  0  0  0  0  0  0  0  0
  139.1520   68.3930  224.7440 C   0  0  0  0  0  0  0  0  0  0  0  0
  139.7650   68.9360  225.8690 C   0  0  0  0  0  0  0  0  0  0  0  0
  139.8050   68.2740  227.0790 C   0  0  0  0  0  0  0  0  0  0  0  0
  140.4290   68.8790  228.1370 C   0  0  0  0  0  0  0  0  0  0  0  0
  140.4950   68.2630  229.3530 F   0  0  0  0  0  0  0  0  0  0  0  0
  141.0080   70.1290  228.0000 C   0  0  0  0  0  0  0  0  0  0  0  0
  140.9840   70.8230  226.7930 C   0  0  0  0  0  0  0  0  0  0  0  0
  140.3460   70.1800  225.7470 C   0  0  0  0  0  0  0  0  0  0  0  0
  140.3050   70.8270  224.5660 N   0  0  0  0  0  0  0  0  0  0  0  0
  140.9850   72.5370  222.9370 H   0  0  0  0  0  0  0  0  0  0  0  0
  141.2256   72.5560  220.2079 H   0  0  0  0  0  0  0  0  0  0  0  0
  139.4275   73.0778  220.5911 H   0  0  0  0  0  0  0  0  0  0  0  0
  139.9865   75.8225  218.0421 H   0  0  0  0  0  0  0  0  0  0  0  0
  138.9788   75.9211  219.5191 H   0  0  0  0  0  0  0  0  0  0  0  0
  140.6574   77.9728  218.2283 H   0  0  0  0  0  0  0  0  0  0  0  0
  139.3351   78.1433  219.4536 H   0  0  0  0  0  0  0  0  0  0  0  0
  141.4971   78.9896  220.2881 H   0  0  0  0  0  0  0  0  0  0  0  0
  140.8837   77.5860  221.2398 H   0  0  0  0  0  0  0  0  0  0  0  0
  143.1598   77.7635  219.3020 H   0  0  0  0  0  0  0  0  0  0  0  0
  143.0452   77.0175  220.9706 H   0  0  0  0  0  0  0  0  0  0  0  0
  142.4355   75.9247  218.3185 H   0  0  0  0  0  0  0  0  0  0  0  0
  144.4895   75.7026  221.1578 H   0  0  0  0  0  0  0  0  0  0  0  0
  146.2099   73.9769  221.2764 H   0  0  0  0  0  0  0  0  0  0  0  0
  146.5330   71.3000  220.5470 H   0  0  0  0  0  0  0  0  0  0  0  0
  144.2930   71.9090  218.0725 H   0  0  0  0  0  0  0  0  0  0  0  0
  142.5600   73.6359  217.9510 H   0  0  0  0  0  0  0  0  0  0  0  0
  138.6324   68.6370  222.6486 H   0  0  0  0  0  0  0  0  0  0  0  0
  138.6816   67.4011  224.8147 H   0  0  0  0  0  0  0  0  0  0  0  0
  139.3452   67.2810  227.1913 H   0  0  0  0  0  0  0  0  0  0  0  0
  141.5013   70.5873  228.8698 H   0  0  0  0  0  0  0  0  0  0  0  0
  141.4419   71.8166  226.6787 H   0  0  0  0  0  0  0  0  0  0  0  0
  1  2  2  0
  2  3  1  0
  3  4  1  0
  4  5  1  0
  5  6  2  0
  5  7  1  0
  7  8  1  0
  8  9  1  0
  9 10  1  0
 10 11  1  0
 11 12  1  0
 12 13  1  0
 13 14  2  0
 14 15  1  0
 15 16  2  0
 16 17  1  0
 16 18  1  0
 18 19  2  0
  2 20  1  0
 20 21  2  0
 21 22  1  0
 22 23  2  0
 23 24  1  0
 24 25  2  0
 25 26  1  0
 25 27  1  0
 27 28  2  0
 28 29  1  0
 29 30  2  0
 12  7  1  0
 19 13  1  0
 30 20  1  0
 29 23  1  0
  3 31  1  0
  4 32  1  0
  4 33  1  0
  8 34  1  0
  8 35  1  0
  9 36  1  0
  9 37  1  0
 10 38  1  0
 10 39  1  0
 11 40  1  0
 11 41  1  0
 12 42  1  6
 14 43  1  0
 15 44  1  0
 17 45  1  0
 18 46  1  0
 19 47  1  0
 21 48  1  0
 22 49  1  0
 24 50  1  0
 27 51  1  0
 28 52  1  0
M  END
>  <smiles>  (67) 
O=C(NCC(=O)N1CCCCC1c1ccc(O)cc1)c1ccc2cc(F)ccc2n1

>  <score_type>  (67) 
oracle

>  <origin>  (67) 
autodockgpu

>  <m_score__min__energy>  (67) 
-8.4199999999999999

>  <m_primary>  (67) 
energy

>  <rmsd>  (67) 
1.833405601187972

>  <m_score__min__rmsd>  (67) 
1.833405601187972

>  <meeko>  (67) 
{"free_energy": -7.97, "intermolecular_energy": -9.76, "internal_energy": -1.78, "cluster_size": 22, "cluster_id": 1, "rank_in_cluster": 7}

>  <energy>  (67) 
-7.51

>  <cluster_rmsd>  (67) 
1.09

>  <cluster>  (67) 
1

$$$$

     RDKit          3D

 52 55  0  0  0  0  0  0  0  0999 V2000
  141.4010   72.7590  221.6910 O   0  0  0  0  0  0  0  0  0  0  0  0
  140.4130   72.7910  222.4670 C   0  0  0  0  0  0  0  0  0  0  0  0
  139.4610   73.8720  222.3560 N   0  0  0  0  0  0  0  0  0  0  0  0
  139.5580   74.9320  221.4160 C   0  0  0  0  0  0  0  0  0  0  0  0
  140.5330   74.9780  220.3610 C   0  0  0  0  0  0  0  0  0  0  0  0
  140.1240   74.3120  219.2820 O   0  0  0  0  0  0  0  0  0  0  0  0
  141.7870   75.5510  220.2000 N   0  0  0  0  0  0  0  0  0  0  0  0
  143.0540   74.8890  219.8990 C   0  0  0  0  0  0  0  0  0  0  0  0
  143.6840   75.5650  218.6930 C   0  0  0  0  0  0  0  0  0  0  0  0
  142.6950   76.4560  217.9820 C   0  0  0  0  0  0  0  0  0  0  0  0
  142.1650   77.4930  218.9140 C   0  0  0  0  0  0  0  0  0  0  0  0
  141.9800   77.0180  220.3010 C   0  0  1  0  0  0  0  0  0  0  0  0
  141.0410   77.7050  221.1580 C   0  0  0  0  0  0  0  0  0  0  0  0
  139.7830   78.1460  220.8180 C   0  0  0  0  0  0  0  0  0  0  0  0
  138.9470   78.8250  221.6750 C   0  0  0  0  0  0  0  0  0  0  0  0
  139.3490   79.1020  222.9600 C   0  0  0  0  0  0  0  0  0  0  0  0
  138.5740   79.7770  223.8790 O   0  0  0  0  0  0  0  0  0  0  0  0
  140.6060   78.6720  223.3290 C   0  0  0  0  0  0  0  0  0  0  0  0
  141.4440   77.9930  222.4720 C   0  0  0  0  0  0  0  0  0  0  0  0
  140.2350   71.7340  223.4750 C   0  0  0  0  0  0  0  0  0  0  0  0
  139.5900   70.5760  223.1230 C   0  0  0  0  0  0  0  0  0  0  0  0
  139.4340   69.5930  224.0940 C   0  0  0  0  0  0  0  0  0  0  0  0
  139.9140   69.7660  225.3880 C   0  0  0  0  0  0  0  0  0  0  0  0
  139.7680   68.8010  226.3640 C   0  0  0  0  0  0  0  0  0  0  0  0
  140.2690   69.0520  227.6140 C   0  0  0  0  0  0  0  0  0  0  0  0
  140.1490   68.1280  228.6100 F   0  0  0  0  0  0  0  0  0  0  0  0
  140.9100   70.2460  227.8960 C   0  0  0  0  0  0  0  0  0  0  0  0
  141.0720   71.2390  226.9330 C   0  0  0  0  0  0  0  0  0  0  0  0
  140.5540   70.9510  225.6840 C   0  0  0  0  0  0  0  0  0  0  0  0
  140.6960   71.8930  224.7310 N   0  0  0  0  0  0  0  0  0  0  0  0
  138.6660   73.7920  223.0630 H   0  0  0  0  0  0  0  0  0  0  0  0
  138.5776   74.9825  220.9198 H   0  0  0  0  0  0  0  0  0  0  0  0
  139.9039   75.7543  222.0596 H   0  0  0  0  0  0  0  0  0  0  0  0
  143.7289   74.9713  220.7637 H   0  0  0  0  0  0  0  0  0  0  0  0
  142.8780   73.8251  219.6821 H   0  0  0  0  0  0  0  0  0  0  0  0
  144.5368   76.1733  219.0286 H   0  0  0  0  0  0  0  0  0  0  0  0
  144.0134   74.7844  217.9914 H   0  0  0  0  0  0  0  0  0  0  0  0
  143.1955   76.9505  217.1364 H   0  0  0  0  0  0  0  0  0  0  0  0
  141.8580   75.8414  217.6192 H   0  0  0  0  0  0  0  0  0  0  0  0
  142.8700   78.3372  218.9289 H   0  0  0  0  0  0  0  0  0  0  0  0
  141.1703   77.7775  218.5403 H   0  0  0  0  0  0  0  0  0  0  0  0
  142.8825   77.2831  220.8712 H   0  0  0  0  0  0  0  0  0  0  0  0
  139.4231   77.9435  219.7984 H   0  0  0  0  0  0  0  0  0  0  0  0
  137.9534   79.1472  221.3303 H   0  0  0  0  0  0  0  0  0  0  0  0
  137.5600   79.8160  223.7750 H   0  0  0  0  0  0  0  0  0  0  0  0
  140.9546   78.8800  224.3514 H   0  0  0  0  0  0  0  0  0  0  0  0
  142.4374   77.6736  222.8200 H   0  0  0  0  0  0  0  0  0  0  0  0
  139.2072   70.4291  222.1023 H   0  0  0  0  0  0  0  0  0  0  0  0
  138.9190   68.6568  223.8327 H   0  0  0  0  0  0  0  0  0  0  0  0
  139.2602   67.8506  226.1428 H   0  0  0  0  0  0  0  0  0  0  0  0
  141.3026   70.4154  228.9095 H   0  0  0  0  0  0  0  0  0  0  0  0
  141.5790   72.1903  227.1519 H   0  0  0  0  0  0  0  0  0  0  0  0
  1  2  2  0
  2  3  1  0
  3  4  1  0
  4  5  1  0
  5  6  2  0
  5  7  1  0
  7  8  1  0
  8  9  1  0
  9 10  1  0
 10 11  1  0
 11 12  1  0
 12 13  1  0
 13 14  2  0
 14 15  1  0
 15 16  2  0
 16 17  1  0
 16 18  1  0
 18 19  2  0
  2 20  1  0
 20 21  2  0
 21 22  1  0
 22 23  2  0
 23 24  1  0
 24 25  2  0
 25 26  1  0
 25 27  1  0
 27 28  2  0
 28 29  1  0
 29 30  2  0
 12  7  1  0
 19 13  1  0
 30 20  1  0
 29 23  1  0
  3 31  1  0
  4 32  1  0
  4 33  1  0
  8 34  1  0
  8 35  1  0
  9 36  1  0
  9 37  1  0
 10 38  1  0
 10 39  1  0
 11 40  1  0
 11 41  1  0
 12 42  1  1
 14 43  1  0
 15 44  1  0
 17 45  1  0
 18 46  1  0
 19 47  1  0
 21 48  1  0
 22 49  1  0
 24 50  1  0
 27 51  1  0
 28 52  1  0
M  END
>  <smiles>  (68) 
O=C(NCC(=O)N1CCCCC1c1ccc(O)cc1)c1ccc2cc(F)ccc2n1

>  <score_type>  (68) 
oracle

>  <origin>  (68) 
autodockgpu

>  <m_score__min__energy>  (68) 
-8.4199999999999999

>  <m_primary>  (68) 
energy

>  <rmsd>  (68) 
2.2253960329657647

>  <m_score__min__rmsd>  (68) 
2.2253960329657647

>  <meeko>  (68) 
{"free_energy": -7.41, "intermolecular_energy": -9.2, "internal_energy": -1.25, "cluster_size": 6, "cluster_id": 3, "rank_in_cluster": 5}

>  <energy>  (68) 
-7.39

>  <cluster_rmsd>  (68) 
1.56

>  <cluster>  (68) 
1

$$$$

     RDKit          3D

 52 55  0  0  0  0  0  0  0  0999 V2000
  141.5030   72.2520  221.6230 O   0  0  0  0  0  0  0  0  0  0  0  0
  140.6090   72.5240  222.4630 C   0  0  0  0  0  0  0  0  0  0  0  0
  139.8580   73.7510  222.3260 N   0  0  0  0  0  0  0  0  0  0  0  0
  140.0590   74.7020  221.2910 C   0  0  0  0  0  0  0  0  0  0  0  0
  141.0490   75.7440  221.3450 C   0  0  0  0  0  0  0  0  0  0  0  0
  141.0540   76.3580  222.5270 O   0  0  0  0  0  0  0  0  0  0  0  0
  141.9940   76.2530  220.4660 N   0  0  0  0  0  0  0  0  0  0  0  0
  143.0570   75.5390  219.7640 C   0  0  0  0  0  0  0  0  0  0  0  0
  142.9590   75.8500  218.2800 C   0  0  0  0  0  0  0  0  0  0  0  0
  141.6410   76.5010  217.9400 C   0  0  0  0  0  0  0  0  0  0  0  0
  141.4630   77.7560  218.7260 C   0  0  0  0  0  0  0  0  0  0  0  0
  142.0060   77.6910  220.0980 C   0  0  1  0  0  0  0  0  0  0  0  0
  141.4830   78.5870  221.1030 C   0  0  0  0  0  0  0  0  0  0  0  0
  142.1750   79.1400  222.1550 C   0  0  0  0  0  0  0  0  0  0  0  0
  141.6100   79.9650  223.1020 C   0  0  0  0  0  0  0  0  0  0  0  0
  140.2750   80.2830  223.0340 C   0  0  0  0  0  0  0  0  0  0  0  0
  139.6310   81.0990  223.9390 O   0  0  0  0  0  0  0  0  0  0  0  0
  139.5540   79.7420  221.9890 C   0  0  0  0  0  0  0  0  0  0  0  0
  140.1200   78.9170  221.0420 C   0  0  0  0  0  0  0  0  0  0  0  0
  140.3360   71.5970  223.5720 C   0  0  0  0  0  0  0  0  0  0  0  0
  139.6450   70.4390  223.3200 C   0  0  0  0  0  0  0  0  0  0  0  0
  139.3990   69.5800  224.3850 C   0  0  0  0  0  0  0  0  0  0  0  0
  139.8370   69.8720  225.6730 C   0  0  0  0  0  0  0  0  0  0  0  0
  139.6010   69.0310  226.7410 C   0  0  0  0  0  0  0  0  0  0  0  0
  140.0660   69.3950  227.9770 C   0  0  0  0  0  0  0  0  0  0  0  0
  139.8590   68.5950  229.0630 F   0  0  0  0  0  0  0  0  0  0  0  0
  140.7580   70.5810  228.1550 C   0  0  0  0  0  0  0  0  0  0  0  0
  141.0110   71.4510  227.0980 C   0  0  0  0  0  0  0  0  0  0  0  0
  140.5270   71.0500  225.8660 C   0  0  0  0  0  0  0  0  0  0  0  0
  140.7550   71.8720  224.8230 N   0  0  0  0  0  0  0  0  0  0  0  0
  139.1280   73.8720  223.0940 H   0  0  0  0  0  0  0  0  0  0  0  0
  140.2883   74.1176  220.3877 H   0  0  0  0  0  0  0  0  0  0  0  0
  139.1305   75.2880  221.3582 H   0  0  0  0  0  0  0  0  0  0  0  0
  144.0358   75.8646  220.1461 H   0  0  0  0  0  0  0  0  0  0  0  0
  142.9505   74.4563  219.9267 H   0  0  0  0  0  0  0  0  0  0  0  0
  143.7768   76.5312  218.0023 H   0  0  0  0  0  0  0  0  0  0  0  0
  143.0322   74.9046  217.7225 H   0  0  0  0  0  0  0  0  0  0  0  0
  141.6210   76.7398  216.8664 H   0  0  0  0  0  0  0  0  0  0  0  0
  140.8252   75.8060  218.1879 H   0  0  0  0  0  0  0  0  0  0  0  0
  141.9706   78.5728  218.1920 H   0  0  0  0  0  0  0  0  0  0  0  0
  140.3794   77.9192  218.8214 H   0  0  0  0  0  0  0  0  0  0  0  0
  143.0227   78.1105  220.0777 H   0  0  0  0  0  0  0  0  0  0  0  0
  143.2466   78.9090  222.2457 H   0  0  0  0  0  0  0  0  0  0  0  0
  142.2295   80.3707  223.9155 H   0  0  0  0  0  0  0  0  0  0  0  0
  138.8030   81.6270  223.6650 H   0  0  0  0  0  0  0  0  0  0  0  0
  138.4829   79.9794  221.9089 H   0  0  0  0  0  0  0  0  0  0  0  0
  139.4977   78.5128  220.2300 H   0  0  0  0  0  0  0  0  0  0  0  0
  139.2959   70.1973  222.3053 H   0  0  0  0  0  0  0  0  0  0  0  0
  138.8448   68.6470  224.2051 H   0  0  0  0  0  0  0  0  0  0  0  0
  139.0512   68.0883  226.6029 H   0  0  0  0  0  0  0  0  0  0  0  0
  141.1183   70.8434  229.1607 H   0  0  0  0  0  0  0  0  0  0  0  0
  141.5595   72.3948  227.2337 H   0  0  0  0  0  0  0  0  0  0  0  0
  1  2  2  0
  2  3  1  0
  3  4  1  0
  4  5  1  0
  5  6  2  0
  5  7  1  0
  7  8  1  0
  8  9  1  0
  9 10  1  0
 10 11  1  0
 11 12  1  0
 12 13  1  0
 13 14  2  0
 14 15  1  0
 15 16  2  0
 16 17  1  0
 16 18  1  0
 18 19  2  0
  2 20  1  0
 20 21  2  0
 21 22  1  0
 22 23  2  0
 23 24  1  0
 24 25  2  0
 25 26  1  0
 25 27  1  0
 27 28  2  0
 28 29  1  0
 29 30  2  0
 12  7  1  0
 19 13  1  0
 30 20  1  0
 29 23  1  0
  3 31  1  0
  4 32  1  0
  4 33  1  0
  8 34  1  0
  8 35  1  0
  9 36  1  0
  9 37  1  0
 10 38  1  0
 10 39  1  0
 11 40  1  0
 11 41  1  0
 12 42  1  6
 14 43  1  0
 15 44  1  0
 17 45  1  0
 18 46  1  0
 19 47  1  0
 21 48  1  0
 22 49  1  0
 24 50  1  0
 27 51  1  0
 28 52  1  0
M  END
>  <smiles>  (69) 
O=C(NCC(=O)N1CCCCC1c1ccc(O)cc1)c1ccc2cc(F)ccc2n1

>  <score_type>  (69) 
oracle

>  <origin>  (69) 
autodockgpu

>  <m_score__min__energy>  (69) 
-8.4199999999999999

>  <m_primary>  (69) 
energy

>  <rmsd>  (69) 
2.115218061823349

>  <m_score__min__rmsd>  (69) 
2.115218061823349

>  <meeko>  (69) 
{"free_energy": -7.99, "intermolecular_energy": -9.78, "internal_energy": -1.18, "cluster_size": 6, "cluster_id": 3, "rank_in_cluster": 1}

>  <energy>  (69) 
-7.02

>  <cluster_rmsd>  (69) 
1.52

>  <cluster>  (69) 
1

$$$$

     RDKit          3D

 52 55  0  0  0  0  0  0  0  0999 V2000
  141.0320   72.2900  221.1510 O   0  0  0  0  0  0  0  0  0  0  0  0
  140.3910   72.5990  222.1870 C   0  0  0  0  0  0  0  0  0  0  0  0
  139.8360   73.9280  222.3060 N   0  0  0  0  0  0  0  0  0  0  0  0
  139.9650   74.9420  221.3210 C   0  0  0  0  0  0  0  0  0  0  0  0
  140.3160   76.3040  221.6170 C   0  0  0  0  0  0  0  0  0  0  0  0
  141.0390   76.3950  222.7330 O   0  0  0  0  0  0  0  0  0  0  0  0
  140.0870   77.5350  221.0190 N   0  0  0  0  0  0  0  0  0  0  0  0
  138.9110   78.3950  221.1350 C   0  0  0  0  0  0  0  0  0  0  0  0
  139.3630   79.7880  221.5380 C   0  0  0  0  0  0  0  0  0  0  0  0
  140.7940   79.7860  222.0160 C   0  0  0  0  0  0  0  0  0  0  0  0
  141.6960   79.2590  220.9510 C   0  0  0  0  0  0  0  0  0  0  0  0
  141.1070   78.1680  220.1480 C   0  0  1  0  0  0  0  0  0  0  0  0
  141.9850   77.2490  219.4610 C   0  0  0  0  0  0  0  0  0  0  0  0
  142.8700   76.3670  220.0360 C   0  0  0  0  0  0  0  0  0  0  0  0
  143.7050   75.5370  219.3240 C   0  0  0  0  0  0  0  0  0  0  0  0
  143.6910   75.5560  217.9490 C   0  0  0  0  0  0  0  0  0  0  0  0
  144.4930   74.7600  217.1610 O   0  0  0  0  0  0  0  0  0  0  0  0
  142.8130   76.4310  217.3440 C   0  0  0  0  0  0  0  0  0  0  0  0
  141.9770   77.2610  218.0570 C   0  0  0  0  0  0  0  0  0  0  0  0
  140.2120   71.6110  223.2620 C   0  0  0  0  0  0  0  0  0  0  0  0
  139.6230   70.4070  222.9730 C   0  0  0  0  0  0  0  0  0  0  0  0
  139.4650   69.4910  224.0070 C   0  0  0  0  0  0  0  0  0  0  0  0
  139.8880   69.7740  225.3020 C   0  0  0  0  0  0  0  0  0  0  0  0
  139.7380   68.8770  226.3390 C   0  0  0  0  0  0  0  0  0  0  0  0
  140.1820   69.2360  227.5850 C   0  0  0  0  0  0  0  0  0  0  0  0
  140.0560   68.3820  228.6410 F   0  0  0  0  0  0  0  0  0  0  0  0
  140.7680   70.4710  227.8020 C   0  0  0  0  0  0  0  0  0  0  0  0
  140.9320   71.3980  226.7760 C   0  0  0  0  0  0  0  0  0  0  0  0
  140.4730   71.0010  225.5330 C   0  0  0  0  0  0  0  0  0  0  0  0
  140.6180   71.8770  224.5200 N   0  0  0  0  0  0  0  0  0  0  0  0
  139.3140   74.0720  223.2250 H   0  0  0  0  0  0  0  0  0  0  0  0
  140.7312   74.5814  220.6190 H   0  0  0  0  0  0  0  0  0  0  0  0
  138.9196   75.0583  220.9992 H   0  0  0  0  0  0  0  0  0  0  0  0
  138.3892   78.4407  220.1677 H   0  0  0  0  0  0  0  0  0  0  0  0
  138.2245   77.9902  221.8932 H   0  0  0  0  0  0  0  0  0  0  0  0
  139.2768   80.4574  220.6694 H   0  0  0  0  0  0  0  0  0  0  0  0
  138.7231   80.1343  222.3630 H   0  0  0  0  0  0  0  0  0  0  0  0
  141.0933   80.8138  222.2689 H   0  0  0  0  0  0  0  0  0  0  0  0
  140.8735   79.1407  222.9033 H   0  0  0  0  0  0  0  0  0  0  0  0
  141.9518   80.0872  220.2738 H   0  0  0  0  0  0  0  0  0  0  0  0
  142.5763   78.8392  221.4597 H   0  0  0  0  0  0  0  0  0  0  0  0
  140.6675   78.6152  219.2442 H   0  0  0  0  0  0  0  0  0  0  0  0
  142.9129   76.3224  221.1343 H   0  0  0  0  0  0  0  0  0  0  0  0
  144.3858   74.8563  219.8562 H   0  0  0  0  0  0  0  0  0  0  0  0
  145.5020   74.9080  217.1300 H   0  0  0  0  0  0  0  0  0  0  0  0
  142.7792   76.4673  216.2451 H   0  0  0  0  0  0  0  0  0  0  0  0
  141.2967   77.9397  217.5217 H   0  0  0  0  0  0  0  0  0  0  0  0
  139.2853   70.1726  221.9527 H   0  0  0  0  0  0  0  0  0  0  0  0
  138.9943   68.5194  223.7962 H   0  0  0  0  0  0  0  0  0  0  0  0
  139.2722   67.8950  226.1697 H   0  0  0  0  0  0  0  0  0  0  0  0
  141.1141   70.7276  228.8141 H   0  0  0  0  0  0  0  0  0  0  0  0
  141.3960   72.3813  226.9430 H   0  0  0  0  0  0  0  0  0  0  0  0
  1  2  2  0
  2  3  1  0
  3  4  1  0
  4  5  1  0
  5  6  2  0
  5  7  1  0
  7  8  1  0
  8  9  1  0
  9 10  1  0
 10 11  1  0
 11 12  1  0
 12 13  1  0
 13 14  2  0
 14 15  1  0
 15 16  2  0
 16 17  1  0
 16 18  1  0
 18 19  2  0
  2 20  1  0
 20 21  2  0
 21 22  1  0
 22 23  2  0
 23 24  1  0
 24 25  2  0
 25 26  1  0
 25 27  1  0
 27 28  2  0
 28 29  1  0
 29 30  2  0
 12  7  1  0
 19 13  1  0
 30 20  1  0
 29 23  1  0
  3 31  1  0
  4 32  1  0
  4 33  1  0
  8 34  1  0
  8 35  1  0
  9 36  1  0
  9 37  1  0
 10 38  1  0
 10 39  1  0
 11 40  1  0
 11 41  1  0
 12 42  1  6
 14 43  1  0
 15 44  1  0
 17 45  1  0
 18 46  1  0
 19 47  1  0
 21 48  1  0
 22 49  1  0
 24 50  1  0
 27 51  1  0
 28 52  1  0
M  END
>  <smiles>  (70) 
O=C(NCC(=O)N1CCCCC1c1ccc(O)cc1)c1ccc2cc(F)ccc2n1

>  <score_type>  (70) 
oracle

>  <origin>  (70) 
autodockgpu

>  <m_score__min__energy>  (70) 
-8.4199999999999999

>  <m_primary>  (70) 
energy

>  <rmsd>  (70) 
2.7512566950704307

>  <m_score__min__rmsd>  (70) 
2.7512566950704307

>  <meeko>  (70) 
{"free_energy": -7.77, "intermolecular_energy": -9.56, "internal_energy": -1.27, "cluster_size": 10, "cluster_id": 2, "rank_in_cluster": 7}

>  <energy>  (70) 
-7.01

>  <cluster_rmsd>  (70) 
1.49

>  <cluster>  (70) 
1

$$$$

     RDKit          3D

 52 55  0  0  0  0  0  0  0  0999 V2000
  139.9540   73.0140  222.7320 O   0  0  0  0  0  0  0  0  0  0  0  0
  139.8900   71.7700  222.9010 C   0  0  0  0  0  0  0  0  0  0  0  0
  139.5160   70.9230  221.7910 N   0  0  0  0  0  0  0  0  0  0  0  0
  139.2030   71.3980  220.4900 C   0  0  0  0  0  0  0  0  0  0  0  0
  140.0180   72.3340  219.7640 C   0  0  0  0  0  0  0  0  0  0  0  0
  140.9790   71.7210  219.0760 O   0  0  0  0  0  0  0  0  0  0  0  0
  140.0360   73.7130  219.6080 N   0  0  0  0  0  0  0  0  0  0  0  0
  138.9980   74.5760  219.0480 C   0  0  0  0  0  0  0  0  0  0  0  0
  138.6980   75.6860  220.0410 C   0  0  0  0  0  0  0  0  0  0  0  0
  139.2850   75.3850  221.3980 C   0  0  0  0  0  0  0  0  0  0  0  0
  140.7610   75.1940  221.2950 C   0  0  0  0  0  0  0  0  0  0  0  0
  141.1970   74.5220  220.0540 C   0  0  1  0  0  0  0  0  0  0  0  0
  142.4680   73.8340  220.0370 C   0  0  0  0  0  0  0  0  0  0  0  0
  142.8720   72.8260  220.8810 C   0  0  0  0  0  0  0  0  0  0  0  0
  144.1130   72.2320  220.8340 C   0  0  0  0  0  0  0  0  0  0  0  0
  145.0390   72.6380  219.9030 C   0  0  0  0  0  0  0  0  0  0  0  0
  146.3020   72.0980  219.7880 O   0  0  0  0  0  0  0  0  0  0  0  0
  144.6620   73.6480  219.0430 C   0  0  0  0  0  0  0  0  0  0  0  0
  143.4200   74.2430  219.0900 C   0  0  0  0  0  0  0  0  0  0  0  0
  140.1940   71.1900  224.2180 C   0  0  0  0  0  0  0  0  0  0  0  0
  140.7000   71.9990  225.2040 C   0  0  0  0  0  0  0  0  0  0  0  0
  140.9800   71.4260  226.4400 C   0  0  0  0  0  0  0  0  0  0  0  0
  140.7550   70.0750  226.6840 C   0  0  0  0  0  0  0  0  0  0  0  0
  141.0270   69.4910  227.9040 C   0  0  0  0  0  0  0  0  0  0  0  0
  140.7780   68.1530  228.0600 C   0  0  0  0  0  0  0  0  0  0  0  0
  141.0300   67.5320  229.2480 F   0  0  0  0  0  0  0  0  0  0  0  0
  140.2650   67.4000  227.0190 C   0  0  0  0  0  0  0  0  0  0  0  0
  139.9810   67.9600  225.7760 C   0  0  0  0  0  0  0  0  0  0  0  0
  140.2450   69.3120  225.6550 C   0  0  0  0  0  0  0  0  0  0  0  0
  139.9810   69.8820  224.4640 N   0  0  0  0  0  0  0  0  0  0  0  0
  139.4980   69.8890  222.0530 H   0  0  0  0  0  0  0  0  0  0  0  0
  139.1345   70.5037  219.8532 H   0  0  0  0  0  0  0  0  0  0  0  0
  138.3115   72.0086  220.6961 H   0  0  0  0  0  0  0  0  0  0  0  0
  139.3501   75.0117  218.1013 H   0  0  0  0  0  0  0  0  0  0  0  0
  138.0874   73.9898  218.8554 H   0  0  0  0  0  0  0  0  0  0  0  0
  139.1272   76.6269  219.6662 H   0  0  0  0  0  0  0  0  0  0  0  0
  137.6063   75.7695  220.1471 H   0  0  0  0  0  0  0  0  0  0  0  0
  139.0746   76.2236  222.0781 H   0  0  0  0  0  0  0  0  0  0  0  0
  138.8317   74.4609  221.7860 H   0  0  0  0  0  0  0  0  0  0  0  0
  141.2412   76.1827  221.3395 H   0  0  0  0  0  0  0  0  0  0  0  0
  141.0553   74.5408  222.1297 H   0  0  0  0  0  0  0  0  0  0  0  0
  141.4700   75.3015  219.3275 H   0  0  0  0  0  0  0  0  0  0  0  0
  142.1593   72.4725  221.6407 H   0  0  0  0  0  0  0  0  0  0  0  0
  144.3643   71.4300  221.5437 H   0  0  0  0  0  0  0  0  0  0  0  0
  146.6610   71.4600  220.4990 H   0  0  0  0  0  0  0  0  0  0  0  0
  145.3832   73.9932  218.2876 H   0  0  0  0  0  0  0  0  0  0  0  0
  143.1724   75.0453  218.3793 H   0  0  0  0  0  0  0  0  0  0  0  0
  140.8789   73.0690  225.0223 H   0  0  0  0  0  0  0  0  0  0  0  0
  141.3890   72.0560  227.2436 H   0  0  0  0  0  0  0  0  0  0  0  0
  141.4350   70.0870  228.7337 H   0  0  0  0  0  0  0  0  0  0  0  0
  140.0760   66.3280  227.1777 H   0  0  0  0  0  0  0  0  0  0  0  0
  139.5734   67.3658  224.9449 H   0  0  0  0  0  0  0  0  0  0  0  0
  1  2  2  0
  2  3  1  0
  3  4  1  0
  4  5  1  0
  5  6  2  0
  5  7  1  0
  7  8  1  0
  8  9  1  0
  9 10  1  0
 10 11  1  0
 11 12  1  0
 12 13  1  0
 13 14  2  0
 14 15  1  0
 15 16  2  0
 16 17  1  0
 16 18  1  0
 18 19  2  0
  2 20  1  0
 20 21  2  0
 21 22  1  0
 22 23  2  0
 23 24  1  0
 24 25  2  0
 25 26  1  0
 25 27  1  0
 27 28  2  0
 28 29  1  0
 29 30  2  0
 12  7  1  0
 19 13  1  0
 30 20  1  0
 29 23  1  0
  3 31  1  0
  4 32  1  0
  4 33  1  0
  8 34  1  0
  8 35  1  0
  9 36  1  0
  9 37  1  0
 10 38  1  0
 10 39  1  0
 11 40  1  0
 11 41  1  0
 12 42  1  6
 14 43  1  0
 15 44  1  0
 17 45  1  0
 18 46  1  0
 19 47  1  0
 21 48  1  0
 22 49  1  0
 24 50  1  0
 27 51  1  0
 28 52  1  0
M  END
>  <smiles>  (71) 
O=C(NCC(=O)N1CCCCC1c1ccc(O)cc1)c1ccc2cc(F)ccc2n1

>  <score_type>  (71) 
oracle

>  <origin>  (71) 
autodockgpu

>  <m_score__min__energy>  (71) 
-8.4199999999999999

>  <m_primary>  (71) 
energy

>  <rmsd>  (71) 
3.22943224641085

>  <m_score__min__rmsd>  (71) 
3.22943224641085

>  <meeko>  (71) 
{"free_energy": -7.39, "intermolecular_energy": -9.18, "internal_energy": -1.76, "cluster_size": 22, "cluster_id": 1, "rank_in_cluster": 18}

>  <energy>  (71) 
-7.0

>  <cluster_rmsd>  (71) 
1.47

>  <cluster>  (71) 
1

$$$$

     RDKit          3D

 52 55  0  0  0  0  0  0  0  0999 V2000
  140.1410   72.9740  220.6910 O   0  0  0  0  0  0  0  0  0  0  0  0
  139.8270   73.1630  221.8930 C   0  0  0  0  0  0  0  0  0  0  0  0
  139.5040   74.4990  222.3400 N   0  0  0  0  0  0  0  0  0  0  0  0
  139.5180   75.6480  221.5060 C   0  0  0  0  0  0  0  0  0  0  0  0
  140.2050   76.8670  221.8370 C   0  0  0  0  0  0  0  0  0  0  0  0
  141.2370   76.6460  222.6490 O   0  0  0  0  0  0  0  0  0  0  0  0
  140.0510   78.2060  221.5090 N   0  0  0  0  0  0  0  0  0  0  0  0
  138.9620   79.1100  221.8730 C   0  0  0  0  0  0  0  0  0  0  0  0
  139.5540   80.3560  222.5090 C   0  0  0  0  0  0  0  0  0  0  0  0
  141.0030   80.1530  222.8760 C   0  0  0  0  0  0  0  0  0  0  0  0
  141.7980   79.7850  221.6680 C   0  0  0  0  0  0  0  0  0  0  0  0
  141.0740   78.9250  220.7100 C   0  0  1  0  0  0  0  0  0  0  0  0
  141.8310   78.1000  219.7960 C   0  0  0  0  0  0  0  0  0  0  0  0
  142.5820   76.9920  220.1130 C   0  0  0  0  0  0  0  0  0  0  0  0
  143.3090   76.2650  219.1980 C   0  0  0  0  0  0  0  0  0  0  0  0
  143.3160   76.6310  217.8730 C   0  0  0  0  0  0  0  0  0  0  0  0
  144.0160   75.9600  216.8940 O   0  0  0  0  0  0  0  0  0  0  0  0
  142.5720   77.7390  217.5250 C   0  0  0  0  0  0  0  0  0  0  0  0
  141.8440   78.4660  218.4410 C   0  0  0  0  0  0  0  0  0  0  0  0
  139.7900   72.0290  222.8300 C   0  0  0  0  0  0  0  0  0  0  0  0
  139.2340   70.8440  222.4240 C   0  0  0  0  0  0  0  0  0  0  0  0
  139.2120   69.7880  223.3290 C   0  0  0  0  0  0  0  0  0  0  0  0
  139.7360   69.9160  224.6110 C   0  0  0  0  0  0  0  0  0  0  0  0
  139.7220   68.8790  225.5210 C   0  0  0  0  0  0  0  0  0  0  0  0
  140.2580   69.0900  226.7630 C   0  0  0  0  0  0  0  0  0  0  0  0
  140.2680   68.0940  227.6960 F   0  0  0  0  0  0  0  0  0  0  0  0
  140.8040   70.3160  227.1030 C   0  0  0  0  0  0  0  0  0  0  0  0
  140.8320   71.3820  226.2070 C   0  0  0  0  0  0  0  0  0  0  0  0
  140.2820   71.1320  224.9630 C   0  0  0  0  0  0  0  0  0  0  0  0
  140.2950   72.1440  224.0750 N   0  0  0  0  0  0  0  0  0  0  0  0
  139.2520   74.5350  223.3760 H   0  0  0  0  0  0  0  0  0  0  0  0
  139.9419   75.3164  220.5466 H   0  0  0  0  0  0  0  0  0  0  0  0
  138.4687   75.9713  221.5731 H   0  0  0  0  0  0  0  0  0  0  0  0
  138.3952   79.3880  220.9722 H   0  0  0  0  0  0  0  0  0  0  0  0
  138.2845   78.6131  222.5830 H   0  0  0  0  0  0  0  0  0  0  0  0
  139.4790   81.1911  221.7969 H   0  0  0  0  0  0  0  0  0  0  0  0
  138.9919   80.5748  223.4289 H   0  0  0  0  0  0  0  0  0  0  0  0
  141.4028   81.0845  223.3033 H   0  0  0  0  0  0  0  0  0  0  0  0
  141.0743   79.3388  223.6122 H   0  0  0  0  0  0  0  0  0  0  0  0
  142.0885   80.7110  221.1501 H   0  0  0  0  0  0  0  0  0  0  0  0
  142.6645   79.2071  222.0218 H   0  0  0  0  0  0  0  0  0  0  0  0
  140.6267   79.5771  219.9454 H   0  0  0  0  0  0  0  0  0  0  0  0
  142.6028   76.6666  221.1636 H   0  0  0  0  0  0  0  0  0  0  0  0
  143.8861   75.3886  219.5279 H   0  0  0  0  0  0  0  0  0  0  0  0
  144.9510   75.5970  217.0800 H   0  0  0  0  0  0  0  0  0  0  0  0
  142.5595   78.0555  216.4716 H   0  0  0  0  0  0  0  0  0  0  0  0
  141.2675   79.3415  218.1075 H   0  0  0  0  0  0  0  0  0  0  0  0
  138.8174   70.7313  221.4122 H   0  0  0  0  0  0  0  0  0  0  0  0
  138.7695   68.8284  223.0234 H   0  0  0  0  0  0  0  0  0  0  0  0
  139.2894   67.9034  225.2543 H   0  0  0  0  0  0  0  0  0  0  0  0
  141.2276   70.4520  228.1090 H   0  0  0  0  0  0  0  0  0  0  0  0
  141.2633   72.3587  226.4715 H   0  0  0  0  0  0  0  0  0  0  0  0
  1  2  2  0
  2  3  1  0
  3  4  1  0
  4  5  1  0
  5  6  2  0
  5  7  1  0
  7  8  1  0
  8  9  1  0
  9 10  1  0
 10 11  1  0
 11 12  1  0
 12 13  1  0
 13 14  2  0
 14 15  1  0
 15 16  2  0
 16 17  1  0
 16 18  1  0
 18 19  2  0
  2 20  1  0
 20 21  2  0
 21 22  1  0
 22 23  2  0
 23 24  1  0
 24 25  2  0
 25 26  1  0
 25 27  1  0
 27 28  2  0
 28 29  1  0
 29 30  2  0
 12  7  1  0
 19 13  1  0
 30 20  1  0
 29 23  1  0
  3 31  1  0
  4 32  1  0
  4 33  1  0
  8 34  1  0
  8 35  1  0
  9 36  1  0
  9 37  1  0
 10 38  1  0
 10 39  1  0
 11 40  1  0
 11 41  1  0
 12 42  1  6
 14 43  1  0
 15 44  1  0
 17 45  1  0
 18 46  1  0
 19 47  1  0
 21 48  1  0
 22 49  1  0
 24 50  1  0
 27 51  1  0
 28 52  1  0
M  END
>  <smiles>  (72) 
O=C(NCC(=O)N1CCCCC1c1ccc(O)cc1)c1ccc2cc(F)ccc2n1

>  <score_type>  (72) 
oracle

>  <origin>  (72) 
autodockgpu

>  <m_score__min__energy>  (72) 
-8.4199999999999999

>  <m_primary>  (72) 
energy

>  <rmsd>  (72) 
3.3121520448830895

>  <m_score__min__rmsd>  (72) 
3.3121520448830895

>  <meeko>  (72) 
{"free_energy": -7.86, "intermolecular_energy": -9.65, "internal_energy": -1.22, "cluster_size": 10, "cluster_id": 2, "rank_in_cluster": 6}

>  <energy>  (72) 
-6.81

>  <cluster_rmsd>  (72) 
1.67

>  <cluster>  (72) 
1

$$$$

     RDKit          3D

 52 55  0  0  0  0  0  0  0  0999 V2000
  138.3710   72.0360  222.1220 O   0  0  0  0  0  0  0  0  0  0  0  0
  139.4460   71.4030  222.2720 C   0  0  0  0  0  0  0  0  0  0  0  0
  140.2420   71.0740  221.1110 N   0  0  0  0  0  0  0  0  0  0  0  0
  139.8930   71.4140  219.7780 C   0  0  0  0  0  0  0  0  0  0  0  0
  140.2840   72.6420  219.1380 C   0  0  0  0  0  0  0  0  0  0  0  0
  140.8030   72.4250  217.9310 O   0  0  0  0  0  0  0  0  0  0  0  0
  140.2430   73.9870  219.4770 N   0  0  0  0  0  0  0  0  0  0  0  0
  139.1920   74.9620  219.1940 C   0  0  0  0  0  0  0  0  0  0  0  0
  138.7940   75.6420  220.4930 C   0  0  0  0  0  0  0  0  0  0  0  0
  139.3330   74.8990  221.6910 C   0  0  0  0  0  0  0  0  0  0  0  0
  140.8190   74.7990  221.6160 C   0  0  0  0  0  0  0  0  0  0  0  0
  141.3420   74.6200  220.2460 C   0  0  1  0  0  0  0  0  0  0  0  0
  142.6440   74.0190  220.0650 C   0  0  0  0  0  0  0  0  0  0  0  0
  143.6140   74.4070  219.1710 C   0  0  0  0  0  0  0  0  0  0  0  0
  144.8260   73.7720  219.0230 C   0  0  0  0  0  0  0  0  0  0  0  0
  145.1320   72.6770  219.7960 C   0  0  0  0  0  0  0  0  0  0  0  0
  146.3200   71.9830  219.7110 O   0  0  0  0  0  0  0  0  0  0  0  0
  144.1770   72.2640  220.7020 C   0  0  0  0  0  0  0  0  0  0  0  0
  142.9640   72.9000  220.8490 C   0  0  0  0  0  0  0  0  0  0  0  0
  139.8830   71.0060  223.6190 C   0  0  0  0  0  0  0  0  0  0  0  0
  140.6320   71.8800  224.3640 C   0  0  0  0  0  0  0  0  0  0  0  0
  141.0330   71.4800  225.6340 C   0  0  0  0  0  0  0  0  0  0  0  0
  140.6910   70.2330  226.1470 C   0  0  0  0  0  0  0  0  0  0  0  0
  141.0800   69.8200  227.4040 C   0  0  0  0  0  0  0  0  0  0  0  0
  140.7020   68.5750  227.8330 C   0  0  0  0  0  0  0  0  0  0  0  0
  141.0630   68.1240  229.0680 F   0  0  0  0  0  0  0  0  0  0  0  0
  139.9440   67.7460  227.0230 C   0  0  0  0  0  0  0  0  0  0  0  0
  139.5360   68.1340  225.7500 C   0  0  0  0  0  0  0  0  0  0  0  0
  139.9370   69.3960  225.3520 C   0  0  0  0  0  0  0  0  0  0  0  0
  139.5580   69.7990  224.1240 N   0  0  0  0  0  0  0  0  0  0  0  0
  141.1300   70.5390  221.3620 H   0  0  0  0  0  0  0  0  0  0  0  0
  140.2950   70.6068  219.1480 H   0  0  0  0  0  0  0  0  0  0  0  0
  138.8072   71.5615  219.8742 H   0  0  0  0  0  0  0  0  0  0  0  0
  139.5660   75.7131  218.4827 H   0  0  0  0  0  0  0  0  0  0  0  0
  138.3202   74.4555  218.7543 H   0  0  0  0  0  0  0  0  0  0  0  0
  139.1939   76.6667  220.4977 H   0  0  0  0  0  0  0  0  0  0  0  0
  137.6959   75.6513  220.5566 H   0  0  0  0  0  0  0  0  0  0  0  0
  139.0519   75.4376  222.6080 H   0  0  0  0  0  0  0  0  0  0  0  0
  138.9075   73.8847  221.7026 H   0  0  0  0  0  0  0  0  0  0  0  0
  141.2490   75.7219  222.0323 H   0  0  0  0  0  0  0  0  0  0  0  0
  141.1062   73.9027  222.1854 H   0  0  0  0  0  0  0  0  0  0  0  0
  141.6093   75.6130  219.8556 H   0  0  0  0  0  0  0  0  0  0  0  0
  143.4083   75.2799  218.5340 H   0  0  0  0  0  0  0  0  0  0  0  0
  145.5521   74.1417  218.2840 H   0  0  0  0  0  0  0  0  0  0  0  0
  146.6730   71.4590  220.5120 H   0  0  0  0  0  0  0  0  0  0  0  0
  144.3934   71.3898  221.3337 H   0  0  0  0  0  0  0  0  0  0  0  0
  142.2394   72.5272  221.5879 H   0  0  0  0  0  0  0  0  0  0  0  0
  140.9077   72.8688  223.9686 H   0  0  0  0  0  0  0  0  0  0  0  0
  141.6351   72.1661  226.2477 H   0  0  0  0  0  0  0  0  0  0  0  0
  141.6817   70.4770  228.0492 H   0  0  0  0  0  0  0  0  0  0  0  0
  139.6560   66.7522  227.3964 H   0  0  0  0  0  0  0  0  0  0  0  0
  138.9338   67.4793  225.1028 H   0  0  0  0  0  0  0  0  0  0  0  0
  1  2  2  0
  2  3  1  0
  3  4  1  0
  4  5  1  0
  5  6  2  0
  5  7  1  0
  7  8  1  0
  8  9  1  0
  9 10  1  0
 10 11  1  0
 11 12  1  0
 12 13  1  0
 13 14  2  0
 14 15  1  0
 15 16  2  0
 16 17  1  0
 16 18  1  0
 18 19  2  0
  2 20  1  0
 20 21  2  0
 21 22  1  0
 22 23  2  0
 23 24  1  0
 24 25  2  0
 25 26  1  0
 25 27  1  0
 27 28  2  0
 28 29  1  0
 29 30  2  0
 12  7  1  0
 19 13  1  0
 30 20  1  0
 29 23  1  0
  3 31  1  0
  4 32  1  0
  4 33  1  0
  8 34  1  0
  8 35  1  0
  9 36  1  0
  9 37  1  0
 10 38  1  0
 10 39  1  0
 11 40  1  0
 11 41  1  0
 12 42  1  6
 14 43  1  0
 15 44  1  0
 17 45  1  0
 18 46  1  0
 19 47  1  0
 21 48  1  0
 22 49  1  0
 24 50  1  0
 27 51  1  0
 28 52  1  0
M  END
>  <smiles>  (73) 
O=C(NCC(=O)N1CCCCC1c1ccc(O)cc1)c1ccc2cc(F)ccc2n1

>  <score_type>  (73) 
oracle

>  <origin>  (73) 
autodockgpu

>  <m_score__min__energy>  (73) 
-8.4199999999999999

>  <m_primary>  (73) 
energy

>  <rmsd>  (73) 
3.296167410376646

>  <m_score__min__rmsd>  (73) 
3.296167410376646

>  <meeko>  (73) 
{"free_energy": -7.0, "intermolecular_energy": -8.79, "internal_energy": -1.93, "cluster_size": 22, "cluster_id": 1, "rank_in_cluster": 21}

>  <energy>  (73) 
-8.35

>  <cluster_rmsd>  (73) 
0.0

>  <cluster>  (73) 
2

$$$$

     RDKit          3D

 52 55  0  0  0  0  0  0  0  0999 V2000
  139.1900   70.6880  221.3310 O   0  0  0  0  0  0  0  0  0  0  0  0
  139.4960   71.2500  222.4130 C   0  0  0  0  0  0  0  0  0  0  0  0
  139.7200   72.6770  222.4310 N   0  0  0  0  0  0  0  0  0  0  0  0
  139.6240   73.5180  221.2910 C   0  0  0  0  0  0  0  0  0  0  0  0
  140.5300   74.6010  221.0180 C   0  0  0  0  0  0  0  0  0  0  0  0
  141.4550   74.7210  221.9700 O   0  0  0  0  0  0  0  0  0  0  0  0
  140.6710   75.5380  220.0050 N   0  0  0  0  0  0  0  0  0  0  0  0
  139.6250   76.2660  219.2910 C   0  0  0  0  0  0  0  0  0  0  0  0
  139.9320   77.7530  219.3570 C   0  0  0  0  0  0  0  0  0  0  0  0
  140.9920   78.0510  220.3880 C   0  0  0  0  0  0  0  0  0  0  0  0
  142.2420   77.2970  220.0810 C   0  0  0  0  0  0  0  0  0  0  0  0
  142.0120   75.9510  219.5210 C   0  0  1  0  0  0  0  0  0  0  0  0
  143.0460   74.9500  219.6480 C   0  0  0  0  0  0  0  0  0  0  0  0
  144.1540   75.0070  220.4620 C   0  0  0  0  0  0  0  0  0  0  0  0
  145.1240   74.0320  220.5150 C   0  0  0  0  0  0  0  0  0  0  0  0
  145.0230   72.9130  219.7230 C   0  0  0  0  0  0  0  0  0  0  0  0
  145.9480   71.8910  219.7140 O   0  0  0  0  0  0  0  0  0  0  0  0
  143.9230   72.8280  218.8960 C   0  0  0  0  0  0  0  0  0  0  0  0
  142.9520   73.8040  218.8430 C   0  0  0  0  0  0  0  0  0  0  0  0
  139.6210   70.4550  223.6450 C   0  0  0  0  0  0  0  0  0  0  0  0
  139.1570   69.1650  223.6580 C   0  0  0  0  0  0  0  0  0  0  0  0
  139.2870   68.4350  224.8340 C   0  0  0  0  0  0  0  0  0  0  0  0
  139.8700   68.9850  225.9720 C   0  0  0  0  0  0  0  0  0  0  0  0
  140.0060   68.2760  227.1470 C   0  0  0  0  0  0  0  0  0  0  0  0
  140.5910   68.8930  228.2210 C   0  0  0  0  0  0  0  0  0  0  0  0
  140.7480   68.2310  229.4040 F   0  0  0  0  0  0  0  0  0  0  0  0
  141.0360   70.2000  228.1330 C   0  0  0  0  0  0  0  0  0  0  0  0
  140.9120   70.9430  226.9620 C   0  0  0  0  0  0  0  0  0  0  0  0
  140.3170   70.2870  225.8990 C   0  0  0  0  0  0  0  0  0  0  0  0
  140.1830   70.9800  224.7520 N   0  0  0  0  0  0  0  0  0  0  0  0
  139.9700   73.0410  223.4020 H   0  0  0  0  0  0  0  0  0  0  0  0
  139.6857   72.8493  220.4197 H   0  0  0  0  0  0  0  0  0  0  0  0
  138.6971   74.0679  221.5111 H   0  0  0  0  0  0  0  0  0  0  0  0
  139.5986   75.9401  218.2407 H   0  0  0  0  0  0  0  0  0  0  0  0
  138.6472   76.0650  219.7532 H   0  0  0  0  0  0  0  0  0  0  0  0
  140.2867   78.0893  218.3715 H   0  0  0  0  0  0  0  0  0  0  0  0
  139.0121   78.2840  219.6429 H   0  0  0  0  0  0  0  0  0  0  0  0
  141.2088   79.1294  220.3838 H   0  0  0  0  0  0  0  0  0  0  0  0
  140.6237   77.7436  221.3779 H   0  0  0  0  0  0  0  0  0  0  0  0
  142.8263   77.8788  219.3529 H   0  0  0  0  0  0  0  0  0  0  0  0
  142.7705   77.1572  221.0355 H   0  0  0  0  0  0  0  0  0  0  0  0
  142.0561   76.0326  218.4249 H   0  0  0  0  0  0  0  0  0  0  0  0
  144.2719   75.8872  221.1112 H   0  0  0  0  0  0  0  0  0  0  0  0
  145.9824   74.1485  221.1930 H   0  0  0  0  0  0  0  0  0  0  0  0
  146.2760   71.4790  220.5880 H   0  0  0  0  0  0  0  0  0  0  0  0
  143.8162   71.9433  218.2511 H   0  0  0  0  0  0  0  0  0  0  0  0
  142.0952   73.6840  218.1636 H   0  0  0  0  0  0  0  0  0  0  0  0
  138.6953   68.7205  222.7640 H   0  0  0  0  0  0  0  0  0  0  0  0
  138.9205   67.3983  224.8659 H   0  0  0  0  0  0  0  0  0  0  0  0
  139.6522   67.2370  227.2202 H   0  0  0  0  0  0  0  0  0  0  0  0
  141.5015   70.6659  229.0141 H   0  0  0  0  0  0  0  0  0  0  0  0
  141.2637   71.9825  226.8870 H   0  0  0  0  0  0  0  0  0  0  0  0
  1  2  2  0
  2  3  1  0
  3  4  1  0
  4  5  1  0
  5  6  2  0
  5  7  1  0
  7  8  1  0
  8  9  1  0
  9 10  1  0
 10 11  1  0
 11 12  1  0
 12 13  1  0
 13 14  2  0
 14 15  1  0
 15 16  2  0
 16 17  1  0
 16 18  1  0
 18 19  2  0
  2 20  1  0
 20 21  2  0
 21 22  1  0
 22 23  2  0
 23 24  1  0
 24 25  2  0
 25 26  1  0
 25 27  1  0
 27 28  2  0
 28 29  1  0
 29 30  2  0
 12  7  1  0
 19 13  1  0
 30 20  1  0
 29 23  1  0
  3 31  1  0
  4 32  1  0
  4 33  1  0
  8 34  1  0
  8 35  1  0
  9 36  1  0
  9 37  1  0
 10 38  1  0
 10 39  1  0
 11 40  1  0
 11 41  1  0
 12 42  1  6
 14 43  1  0
 15 44  1  0
 17 45  1  0
 18 46  1  0
 19 47  1  0
 21 48  1  0
 22 49  1  0
 24 50  1  0
 27 51  1  0
 28 52  1  0
M  END
>  <smiles>  (74) 
O=C(NCC(=O)N1CCCCC1c1ccc(O)cc1)c1ccc2cc(F)ccc2n1

>  <score_type>  (74) 
oracle

>  <origin>  (74) 
autodockgpu

>  <m_score__min__energy>  (74) 
-8.4199999999999999

>  <m_primary>  (74) 
energy

>  <rmsd>  (74) 
1.6563386397065751

>  <m_score__min__rmsd>  (74) 
1.6563386397065751

>  <meeko>  (74) 
{"free_energy": -8.05, "intermolecular_energy": -9.84, "internal_energy": -1.64, "cluster_size": 22, "cluster_id": 1, "rank_in_cluster": 5}

>  <energy>  (74) 
-8.2

>  <cluster_rmsd>  (74) 
1.14

>  <cluster>  (74) 
2

$$$$

     RDKit          3D

 52 55  0  0  0  0  0  0  0  0999 V2000
  141.2130   71.9800  221.3250 O   0  0  0  0  0  0  0  0  0  0  0  0
  140.5410   72.4320  222.2870 C   0  0  0  0  0  0  0  0  0  0  0  0
  140.0650   73.7960  222.2380 N   0  0  0  0  0  0  0  0  0  0  0  0
  140.3070   74.6920  221.1640 C   0  0  0  0  0  0  0  0  0  0  0  0
  139.4680   75.8190  220.8590 C   0  0  0  0  0  0  0  0  0  0  0  0
  138.3130   75.4400  220.3140 O   0  0  0  0  0  0  0  0  0  0  0  0
  139.5740   77.1950  221.0010 N   0  0  0  0  0  0  0  0  0  0  0  0
  138.5650   78.1380  221.4790 C   0  0  0  0  0  0  0  0  0  0  0  0
  139.1660   78.9720  222.5980 C   0  0  0  0  0  0  0  0  0  0  0  0
  140.4580   78.3730  223.0980 C   0  0  0  0  0  0  0  0  0  0  0  0
  141.4410   78.2530  221.9820 C   0  0  0  0  0  0  0  0  0  0  0  0
  140.8360   77.9060  220.6810 C   0  0  1  0  0  0  0  0  0  0  0  0
  141.6560   77.2780  219.6700 C   0  0  0  0  0  0  0  0  0  0  0  0
  141.5060   77.3780  218.3070 C   0  0  0  0  0  0  0  0  0  0  0  0
  142.3030   76.7260  217.3930 C   0  0  0  0  0  0  0  0  0  0  0  0
  143.3260   75.9140  217.8230 C   0  0  0  0  0  0  0  0  0  0  0  0
  144.1680   75.2250  216.9760 O   0  0  0  0  0  0  0  0  0  0  0  0
  143.5000   75.7930  219.1860 C   0  0  0  0  0  0  0  0  0  0  0  0
  142.7020   76.4460  220.1000 C   0  0  0  0  0  0  0  0  0  0  0  0
  140.2450   71.5750  223.4450 C   0  0  0  0  0  0  0  0  0  0  0  0
  139.5030   70.4360  223.2620 C   0  0  0  0  0  0  0  0  0  0  0  0
  139.2370   69.6430  224.3730 C   0  0  0  0  0  0  0  0  0  0  0  0
  139.7060   69.9820  225.6380 C   0  0  0  0  0  0  0  0  0  0  0  0
  139.4510   69.2070  226.7510 C   0  0  0  0  0  0  0  0  0  0  0  0
  139.9480   69.6130  227.9610 C   0  0  0  0  0  0  0  0  0  0  0  0
  139.7230   68.8790  229.0880 F   0  0  0  0  0  0  0  0  0  0  0  0
  140.6910   70.7760  228.0690 C   0  0  0  0  0  0  0  0  0  0  0  0
  140.9650   71.5800  226.9650 C   0  0  0  0  0  0  0  0  0  0  0  0
  140.4470   71.1380  225.7610 C   0  0  0  0  0  0  0  0  0  0  0  0
  140.6940   71.8950  224.6750 N   0  0  0  0  0  0  0  0  0  0  0  0
  139.5070   74.0660  223.1060 H   0  0  0  0  0  0  0  0  0  0  0  0
  141.3112   75.1053  221.3395 H   0  0  0  0  0  0  0  0  0  0  0  0
  140.1116   74.0422  220.2982 H   0  0  0  0  0  0  0  0  0  0  0  0
  138.2533   78.7956  220.6542 H   0  0  0  0  0  0  0  0  0  0  0  0
  137.6872   77.5895  221.8514 H   0  0  0  0  0  0  0  0  0  0  0  0
  139.3638   79.9865  222.2217 H   0  0  0  0  0  0  0  0  0  0  0  0
  138.4504   78.9982  223.4330 H   0  0  0  0  0  0  0  0  0  0  0  0
  140.8776   79.0195  223.8828 H   0  0  0  0  0  0  0  0  0  0  0  0
  140.2538   77.3710  223.5034 H   0  0  0  0  0  0  0  0  0  0  0  0
  141.9616   79.2161  221.8750 H   0  0  0  0  0  0  0  0  0  0  0  0
  142.1211   77.4296  222.2454 H   0  0  0  0  0  0  0  0  0  0  0  0
  140.6614   78.8431  220.1321 H   0  0  0  0  0  0  0  0  0  0  0  0
  140.6988   78.0189  217.9227 H   0  0  0  0  0  0  0  0  0  0  0  0
  142.1209   76.8550  216.3159 H   0  0  0  0  0  0  0  0  0  0  0  0
  145.1780   75.2460  217.1190 H   0  0  0  0  0  0  0  0  0  0  0  0
  144.3096   75.1483  219.5588 H   0  0  0  0  0  0  0  0  0  0  0  0
  142.8861   76.3142  221.1765 H   0  0  0  0  0  0  0  0  0  0  0  0
  139.1293   70.1579  222.2655 H   0  0  0  0  0  0  0  0  0  0  0  0
  138.6419   68.7263  224.2486 H   0  0  0  0  0  0  0  0  0  0  0  0
  138.8609   68.2824  226.6681 H   0  0  0  0  0  0  0  0  0  0  0  0
  141.0762   71.0739  229.0553 H   0  0  0  0  0  0  0  0  0  0  0  0
  141.5544   72.5053  227.0453 H   0  0  0  0  0  0  0  0  0  0  0  0
  1  2  2  0
  2  3  1  0
  3  4  1  0
  4  5  1  0
  5  6  2  0
  5  7  1  0
  7  8  1  0
  8  9  1  0
  9 10  1  0
 10 11  1  0
 11 12  1  0
 12 13  1  0
 13 14  2  0
 14 15  1  0
 15 16  2  0
 16 17  1  0
 16 18  1  0
 18 19  2  0
  2 20  1  0
 20 21  2  0
 21 22  1  0
 22 23  2  0
 23 24  1  0
 24 25  2  0
 25 26  1  0
 25 27  1  0
 27 28  2  0
 28 29  1  0
 29 30  2  0
 12  7  1  0
 19 13  1  0
 30 20  1  0
 29 23  1  0
  3 31  1  0
  4 32  1  0
  4 33  1  0
  8 34  1  0
  8 35  1  0
  9 36  1  0
  9 37  1  0
 10 38  1  0
 10 39  1  0
 11 40  1  0
 11 41  1  0
 12 42  1  6
 14 43  1  0
 15 44  1  0
 17 45  1  0
 18 46  1  0
 19 47  1  0
 21 48  1  0
 22 49  1  0
 24 50  1  0
 27 51  1  0
 28 52  1  0
M  END
>  <smiles>  (75) 
O=C(NCC(=O)N1CCCCC1c1ccc(O)cc1)c1ccc2cc(F)ccc2n1

>  <score_type>  (75) 
oracle

>  <origin>  (75) 
autodockgpu

>  <m_score__min__energy>  (75) 
-8.4199999999999999

>  <m_primary>  (75) 
energy

>  <rmsd>  (75) 
2.9672355957654246

>  <m_score__min__rmsd>  (75) 
2.9672355957654246

>  <meeko>  (75) 
{"free_energy": -7.75, "intermolecular_energy": -9.54, "internal_energy": -1.26, "cluster_size": 10, "cluster_id": 2, "rank_in_cluster": 9}

>  <energy>  (75) 
-8.06

>  <cluster_rmsd>  (75) 
0.9

>  <cluster>  (75) 
2

$$$$

     RDKit          3D

 52 55  0  0  0  0  0  0  0  0999 V2000
  137.9450   71.8390  222.4440 O   0  0  0  0  0  0  0  0  0  0  0  0
  139.1270   71.6030  222.7980 C   0  0  0  0  0  0  0  0  0  0  0  0
  140.2170   72.2390  222.0940 N   0  0  0  0  0  0  0  0  0  0  0  0
  140.0540   73.1310  221.0000 C   0  0  0  0  0  0  0  0  0  0  0  0
  140.7470   74.3850  220.8820 C   0  0  0  0  0  0  0  0  0  0  0  0
  141.4540   74.6620  221.9750 O   0  0  0  0  0  0  0  0  0  0  0  0
  140.8550   75.3640  219.9040 N   0  0  0  0  0  0  0  0  0  0  0  0
  139.7880   76.1310  219.2670 C   0  0  0  0  0  0  0  0  0  0  0  0
  140.1150   77.6100  219.3820 C   0  0  0  0  0  0  0  0  0  0  0  0
  141.2210   77.8540  220.3780 C   0  0  0  0  0  0  0  0  0  0  0  0
  142.4480   77.1020  219.9870 C   0  0  0  0  0  0  0  0  0  0  0  0
  142.1790   75.7830  219.3800 C   0  0  1  0  0  0  0  0  0  0  0  0
  143.2060   74.7680  219.4210 C   0  0  0  0  0  0  0  0  0  0  0  0
  143.3100   73.6650  218.6040 C   0  0  0  0  0  0  0  0  0  0  0  0
  144.2980   72.7140  218.7150 C   0  0  0  0  0  0  0  0  0  0  0  0
  145.2630   72.8290  219.6870 C   0  0  0  0  0  0  0  0  0  0  0  0
  146.2860   71.9220  219.8660 O   0  0  0  0  0  0  0  0  0  0  0  0
  145.1850   73.9240  220.5210 C   0  0  0  0  0  0  0  0  0  0  0  0
  144.1960   74.8770  220.4100 C   0  0  0  0  0  0  0  0  0  0  0  0
  139.3910   70.6880  223.9190 C   0  0  0  0  0  0  0  0  0  0  0  0
  139.0340   69.3690  223.8040 C   0  0  0  0  0  0  0  0  0  0  0  0
  139.2940   68.5260  224.8790 C   0  0  0  0  0  0  0  0  0  0  0  0
  139.8990   68.9930  226.0420 C   0  0  0  0  0  0  0  0  0  0  0  0
  140.1640   68.1690  227.1170 C   0  0  0  0  0  0  0  0  0  0  0  0
  140.7610   68.7100  228.2250 C   0  0  0  0  0  0  0  0  0  0  0  0
  141.0430   67.9350  229.3120 F   0  0  0  0  0  0  0  0  0  0  0  0
  141.0930   70.0530  228.2680 C   0  0  0  0  0  0  0  0  0  0  0  0
  140.8380   70.9090  227.2000 C   0  0  0  0  0  0  0  0  0  0  0  0
  140.2350   70.3280  226.1000 C   0  0  0  0  0  0  0  0  0  0  0  0
  139.9750   71.1320  225.0500 N   0  0  0  0  0  0  0  0  0  0  0  0
  141.1720   71.9660  222.4840 H   0  0  0  0  0  0  0  0  0  0  0  0
  140.3218   72.5552  220.1018 H   0  0  0  0  0  0  0  0  0  0  0  0
  139.0209   73.4739  221.1583 H   0  0  0  0  0  0  0  0  0  0  0  0
  139.7129   75.8500  218.2061 H   0  0  0  0  0  0  0  0  0  0  0  0
  138.8284   75.9200  219.7617 H   0  0  0  0  0  0  0  0  0  0  0  0
  140.4315   77.9840  218.3972 H   0  0  0  0  0  0  0  0  0  0  0  0
  139.2143   78.1374  219.7292 H   0  0  0  0  0  0  0  0  0  0  0  0
  141.4497   78.9295  220.4094 H   0  0  0  0  0  0  0  0  0  0  0  0
  140.8914   77.5085  221.3690 H   0  0  0  0  0  0  0  0  0  0  0  0
  143.0082   77.7088  219.2604 H   0  0  0  0  0  0  0  0  0  0  0  0
  143.0142   76.9161  220.9116 H   0  0  0  0  0  0  0  0  0  0  0  0
  142.1775   75.9095  218.2873 H   0  0  0  0  0  0  0  0  0  0  0  0
  142.5563   73.5359  217.8132 H   0  0  0  0  0  0  0  0  0  0  0  0
  144.3157   71.8587  218.0235 H   0  0  0  0  0  0  0  0  0  0  0  0
  146.4670   71.5200  220.7860 H   0  0  0  0  0  0  0  0  0  0  0  0
  145.9442   74.0419  221.3082 H   0  0  0  0  0  0  0  0  0  0  0  0
  144.1822   75.7312  221.1029 H   0  0  0  0  0  0  0  0  0  0  0  0
  138.5563   68.9892  222.8889 H   0  0  0  0  0  0  0  0  0  0  0  0
  139.0147   67.4644  224.8083 H   0  0  0  0  0  0  0  0  0  0  0  0
  139.9016   67.1012  227.0848 H   0  0  0  0  0  0  0  0  0  0  0  0
  141.5723   70.4558  229.1724 H   0  0  0  0  0  0  0  0  0  0  0  0
  141.0991   71.9772  227.2295 H   0  0  0  0  0  0  0  0  0  0  0  0
  1  2  2  0
  2  3  1  0
  3  4  1  0
  4  5  1  0
  5  6  2  0
  5  7  1  0
  7  8  1  0
  8  9  1  0
  9 10  1  0
 10 11  1  0
 11 12  1  0
 12 13  1  0
 13 14  2  0
 14 15  1  0
 15 16  2  0
 16 17  1  0
 16 18  1  0
 18 19  2  0
  2 20  1  0
 20 21  2  0
 21 22  1  0
 22 23  2  0
 23 24  1  0
 24 25  2  0
 25 26  1  0
 25 27  1  0
 27 28  2  0
 28 29  1  0
 29 30  2  0
 12  7  1  0
 19 13  1  0
 30 20  1  0
 29 23  1  0
  3 31  1  0
  4 32  1  0
  4 33  1  0
  8 34  1  0
  8 35  1  0
  9 36  1  0
  9 37  1  0
 10 38  1  0
 10 39  1  0
 11 40  1  0
 11 41  1  0
 12 42  1  6
 14 43  1  0
 15 44  1  0
 17 45  1  0
 18 46  1  0
 19 47  1  0
 21 48  1  0
 22 49  1  0
 24 50  1  0
 27 51  1  0
 28 52  1  0
M  END
>  <smiles>  (76) 
O=C(NCC(=O)N1CCCCC1c1ccc(O)cc1)c1ccc2cc(F)ccc2n1

>  <score_type>  (76) 
oracle

>  <origin>  (76) 
autodockgpu

>  <m_score__min__energy>  (76) 
-8.4199999999999999

>  <m_primary>  (76) 
energy

>  <rmsd>  (76) 
1.8297079163650576

>  <m_score__min__rmsd>  (76) 
1.8297079163650576

>  <meeko>  (76) 
{"free_energy": -8.06, "intermolecular_energy": -9.85, "internal_energy": -1.4, "cluster_size": 22, "cluster_id": 1, "rank_in_cluster": 4}

>  <energy>  (76) 
-8.04

>  <cluster_rmsd>  (76) 
0.73

>  <cluster>  (76) 
2

$$$$

     RDKit          3D

 52 55  0  0  0  0  0  0  0  0999 V2000
  139.1030   75.0060  221.9440 O   0  0  0  0  0  0  0  0  0  0  0  0
  140.2720   75.4020  221.7080 C   0  0  0  0  0  0  0  0  0  0  0  0
  140.5760   76.8110  221.8150 N   0  0  0  0  0  0  0  0  0  0  0  0
  139.6330   77.8110  222.1710 C   0  0  0  0  0  0  0  0  0  0  0  0
  139.7690   79.1990  221.8200 C   0  0  0  0  0  0  0  0  0  0  0  0
  138.8040   79.5950  220.9920 O   0  0  0  0  0  0  0  0  0  0  0  0
  140.6570   80.2150  222.1420 N   0  0  0  0  0  0  0  0  0  0  0  0
  140.4910   81.2890  223.1180 C   0  0  0  0  0  0  0  0  0  0  0  0
  141.6920   81.2930  224.0490 C   0  0  0  0  0  0  0  0  0  0  0  0
  142.4990   80.0250  223.9120 C   0  0  0  0  0  0  0  0  0  0  0  0
  142.9600   79.8510  222.5040 C   0  0  0  0  0  0  0  0  0  0  0  0
  141.9870   80.3070  221.4910 C   0  0  1  0  0  0  0  0  0  0  0  0
  142.0570   79.7620  220.1550 C   0  0  0  0  0  0  0  0  0  0  0  0
  142.1570   78.4340  219.8100 C   0  0  0  0  0  0  0  0  0  0  0  0
  142.2530   77.9790  218.5140 C   0  0  0  0  0  0  0  0  0  0  0  0
  142.2530   78.8690  217.4670 C   0  0  0  0  0  0  0  0  0  0  0  0
  142.3460   78.4980  216.1420 O   0  0  0  0  0  0  0  0  0  0  0  0
  142.1550   80.2080  217.7820 C   0  0  0  0  0  0  0  0  0  0  0  0
  142.0590   80.6640  219.0790 C   0  0  0  0  0  0  0  0  0  0  0  0
  141.3140   74.4360  221.3290 C   0  0  0  0  0  0  0  0  0  0  0  0
  140.9950   73.1040  221.2540 C   0  0  0  0  0  0  0  0  0  0  0  0
  141.9980   72.2110  220.8930 C   0  0  0  0  0  0  0  0  0  0  0  0
  143.2910   72.6430  220.6130 C   0  0  0  0  0  0  0  0  0  0  0  0
  144.2980   71.7700  220.2540 C   0  0  0  0  0  0  0  0  0  0  0  0
  145.5440   72.2780  219.9960 C   0  0  0  0  0  0  0  0  0  0  0  0
  146.5700   71.4540  219.6360 F   0  0  0  0  0  0  0  0  0  0  0  0
  145.7910   73.6360  220.0920 C   0  0  0  0  0  0  0  0  0  0  0  0
  144.7960   74.5410  220.4520 C   0  0  0  0  0  0  0  0  0  0  0  0
  143.5520   73.9930  220.7050 C   0  0  0  0  0  0  0  0  0  0  0  0
  142.5690   74.8440  221.0570 N   0  0  0  0  0  0  0  0  0  0  0  0
  141.5970   77.0270  221.5940 H   0  0  0  0  0  0  0  0  0  0  0  0
  138.6747   77.4858  221.7399 H   0  0  0  0  0  0  0  0  0  0  0  0
  139.7713   77.8538  223.2614 H   0  0  0  0  0  0  0  0  0  0  0  0
  140.4238   82.2553  222.5968 H   0  0  0  0  0  0  0  0  0  0  0  0
  139.5693   81.1295  223.6968 H   0  0  0  0  0  0  0  0  0  0  0  0
  142.3323   82.1531  223.8035 H   0  0  0  0  0  0  0  0  0  0  0  0
  141.3272   81.3611  225.0845 H   0  0  0  0  0  0  0  0  0  0  0  0
  143.3744   80.0791  224.5759 H   0  0  0  0  0  0  0  0  0  0  0  0
  141.8669   79.1683  224.1887 H   0  0  0  0  0  0  0  0  0  0  0  0
  143.8902   80.4230  222.3718 H   0  0  0  0  0  0  0  0  0  0  0  0
  143.0996   78.7713  222.3467 H   0  0  0  0  0  0  0  0  0  0  0  0
  142.2480   81.3394  221.2151 H   0  0  0  0  0  0  0  0  0  0  0  0
  142.1605   77.6895  220.6197 H   0  0  0  0  0  0  0  0  0  0  0  0
  142.3299   76.8997  218.3161 H   0  0  0  0  0  0  0  0  0  0  0  0
  143.0360   78.9320  215.5280 H   0  0  0  0  0  0  0  0  0  0  0  0
  142.1534   80.9430  216.9636 H   0  0  0  0  0  0  0  0  0  0  0  0
  141.9833   81.7441  219.2729 H   0  0  0  0  0  0  0  0  0  0  0  0
  139.9759   72.7526  221.4729 H   0  0  0  0  0  0  0  0  0  0  0  0
  141.7640   71.1382  220.8272 H   0  0  0  0  0  0  0  0  0  0  0  0
  144.1044   70.6899  220.1767 H   0  0  0  0  0  0  0  0  0  0  0  0
  146.8025   74.0114  219.8777 H   0  0  0  0  0  0  0  0  0  0  0  0
  144.9871   75.6215  220.5300 H   0  0  0  0  0  0  0  0  0  0  0  0
  1  2  2  0
  2  3  1  0
  3  4  1  0
  4  5  1  0
  5  6  2  0
  5  7  1  0
  7  8  1  0
  8  9  1  0
  9 10  1  0
 10 11  1  0
 11 12  1  0
 12 13  1  0
 13 14  2  0
 14 15  1  0
 15 16  2  0
 16 17  1  0
 16 18  1  0
 18 19  2  0
  2 20  1  0
 20 21  2  0
 21 22  1  0
 22 23  2  0
 23 24  1  0
 24 25  2  0
 25 26  1  0
 25 27  1  0
 27 28  2  0
 28 29  1  0
 29 30  2  0
 12  7  1  0
 19 13  1  0
 30 20  1  0
 29 23  1  0
  3 31  1  0
  4 32  1  0
  4 33  1  0
  8 34  1  0
  8 35  1  0
  9 36  1  0
  9 37  1  0
 10 38  1  0
 10 39  1  0
 11 40  1  0
 11 41  1  0
 12 42  1  6
 14 43  1  0
 15 44  1  0
 17 45  1  0
 18 46  1  0
 19 47  1  0
 21 48  1  0
 22 49  1  0
 24 50  1  0
 27 51  1  0
 28 52  1  0
M  END
>  <smiles>  (77) 
O=C(NCC(=O)N1CCCCC1c1ccc(O)cc1)c1ccc2cc(F)ccc2n1

>  <score_type>  (77) 
oracle

>  <origin>  (77) 
autodockgpu

>  <m_score__min__energy>  (77) 
-8.4199999999999999

>  <m_primary>  (77) 
energy

>  <rmsd>  (77) 
6.848922169141775

>  <m_score__min__rmsd>  (77) 
6.848922169141775

>  <meeko>  (77) 
{"free_energy": -6.99, "intermolecular_energy": -8.78, "internal_energy": -1.97, "cluster_size": 7, "cluster_id": 4, "rank_in_cluster": 5}

>  <energy>  (77) 
-7.87

>  <cluster_rmsd>  (77) 
1.09

>  <cluster>  (77) 
2

$$$$

     RDKit          3D

 52 55  0  0  0  0  0  0  0  0999 V2000
  140.2800   73.5440  222.3420 O   0  0  0  0  0  0  0  0  0  0  0  0
  139.9110   72.3480  222.2270 C   0  0  0  0  0  0  0  0  0  0  0  0
  139.4410   71.8730  220.9460 N   0  0  0  0  0  0  0  0  0  0  0  0
  139.3560   72.6730  219.7760 C   0  0  0  0  0  0  0  0  0  0  0  0
  140.4330   73.4900  219.2860 C   0  0  0  0  0  0  0  0  0  0  0  0
  141.4410   72.7510  218.8250 O   0  0  0  0  0  0  0  0  0  0  0  0
  140.6670   74.8530  219.1780 N   0  0  0  0  0  0  0  0  0  0  0  0
  139.7850   75.8840  218.6350 C   0  0  0  0  0  0  0  0  0  0  0  0
  139.6420   76.9950  219.6600 C   0  0  0  0  0  0  0  0  0  0  0  0
  140.1520   76.5640  221.0140 C   0  0  0  0  0  0  0  0  0  0  0  0
  141.5820   76.1500  220.9230 C   0  0  0  0  0  0  0  0  0  0  0  0
  141.9300   75.4580  219.6670 C   0  0  1  0  0  0  0  0  0  0  0  0
  143.0800   74.5830  219.6420 C   0  0  0  0  0  0  0  0  0  0  0  0
  143.8840   74.3060  218.5610 C   0  0  0  0  0  0  0  0  0  0  0  0
  144.9490   73.4350  218.5940 C   0  0  0  0  0  0  0  0  0  0  0  0
  145.2680   72.7760  219.7580 C   0  0  0  0  0  0  0  0  0  0  0  0
  146.3160   71.8890  219.8770 O   0  0  0  0  0  0  0  0  0  0  0  0
  144.4790   73.0340  220.8600 C   0  0  0  0  0  0  0  0  0  0  0  0
  143.4130   73.9060  220.8260 C   0  0  0  0  0  0  0  0  0  0  0  0
  139.9620   71.4480  223.3890 C   0  0  0  0  0  0  0  0  0  0  0  0
  139.5190   70.1570  223.2540 C   0  0  0  0  0  0  0  0  0  0  0  0
  139.5770   69.3260  224.3680 C   0  0  0  0  0  0  0  0  0  0  0  0
  140.0690   69.7770  225.5880 C   0  0  0  0  0  0  0  0  0  0  0  0
  140.1340   68.9660  226.7030 C   0  0  0  0  0  0  0  0  0  0  0  0
  140.6310   69.4900  227.8670 C   0  0  0  0  0  0  0  0  0  0  0  0
  140.7150   68.7270  228.9940 F   0  0  0  0  0  0  0  0  0  0  0  0
  141.0600   70.8050  227.9270 C   0  0  0  0  0  0  0  0  0  0  0  0
  141.0070   71.6480  226.8200 C   0  0  0  0  0  0  0  0  0  0  0  0
  140.5000   71.0850  225.6640 C   0  0  0  0  0  0  0  0  0  0  0  0
  140.4360   71.8760  224.5760 N   0  0  0  0  0  0  0  0  0  0  0  0
  139.1580   70.8440  220.9690 H   0  0  0  0  0  0  0  0  0  0  0  0
  139.1093   71.9808  218.9575 H   0  0  0  0  0  0  0  0  0  0  0  0
  138.6370   73.4412  220.0969 H   0  0  0  0  0  0  0  0  0  0  0  0
  140.2170   76.2894  217.7082 H   0  0  0  0  0  0  0  0  0  0  0  0
  138.7983   75.4521  218.4118 H   0  0  0  0  0  0  0  0  0  0  0  0
  140.2175   77.8696  219.3225 H   0  0  0  0  0  0  0  0  0  0  0  0
  138.5746   77.2432  219.7550 H   0  0  0  0  0  0  0  0  0  0  0  0
  140.0618   77.4033  221.7193 H   0  0  0  0  0  0  0  0  0  0  0  0
  139.5547   75.7096  221.3650 H   0  0  0  0  0  0  0  0  0  0  0  0
  142.2083   77.0504  221.0063 H   0  0  0  0  0  0  0  0  0  0  0  0
  141.7574   75.4336  221.7391 H   0  0  0  0  0  0  0  0  0  0  0  0
  142.3323   76.2091  218.9713 H   0  0  0  0  0  0  0  0  0  0  0  0
  143.6618   74.8126  217.6102 H   0  0  0  0  0  0  0  0  0  0  0  0
  145.5469   73.2654  217.6864 H   0  0  0  0  0  0  0  0  0  0  0  0
  146.5900   71.5280  220.7910 H   0  0  0  0  0  0  0  0  0  0  0  0
  144.7109   72.5219  221.8055 H   0  0  0  0  0  0  0  0  0  0  0  0
  142.8170   74.0734  221.7353 H   0  0  0  0  0  0  0  0  0  0  0  0
  139.1293   69.7896  222.2932 H   0  0  0  0  0  0  0  0  0  0  0  0
  139.2253   68.2873  224.2819 H   0  0  0  0  0  0  0  0  0  0  0  0
  139.7939   67.9209  226.6578 H   0  0  0  0  0  0  0  0  0  0  0  0
  141.4542   71.1952  228.8769 H   0  0  0  0  0  0  0  0  0  0  0  0
  141.3464   72.6935  226.8627 H   0  0  0  0  0  0  0  0  0  0  0  0
  1  2  2  0
  2  3  1  0
  3  4  1  0
  4  5  1  0
  5  6  2  0
  5  7  1  0
  7  8  1  0
  8  9  1  0
  9 10  1  0
 10 11  1  0
 11 12  1  0
 12 13  1  0
 13 14  2  0
 14 15  1  0
 15 16  2  0
 16 17  1  0
 16 18  1  0
 18 19  2  0
  2 20  1  0
 20 21  2  0
 21 22  1  0
 22 23  2  0
 23 24  1  0
 24 25  2  0
 25 26  1  0
 25 27  1  0
 27 28  2  0
 28 29  1  0
 29 30  2  0
 12  7  1  0
 19 13  1  0
 30 20  1  0
 29 23  1  0
  3 31  1  0
  4 32  1  0
  4 33  1  0
  8 34  1  0
  8 35  1  0
  9 36  1  0
  9 37  1  0
 10 38  1  0
 10 39  1  0
 11 40  1  0
 11 41  1  0
 12 42  1  6
 14 43  1  0
 15 44  1  0
 17 45  1  0
 18 46  1  0
 19 47  1  0
 21 48  1  0
 22 49  1  0
 24 50  1  0
 27 51  1  0
 28 52  1  0
M  END
>  <smiles>  (78) 
O=C(NCC(=O)N1CCCCC1c1ccc(O)cc1)c1ccc2cc(F)ccc2n1

>  <score_type>  (78) 
oracle

>  <origin>  (78) 
autodockgpu

>  <m_score__min__energy>  (78) 
-8.4199999999999999

>  <m_primary>  (78) 
energy

>  <rmsd>  (78) 
2.1178895622191787

>  <m_score__min__rmsd>  (78) 
2.1178895622191787

>  <meeko>  (78) 
{"free_energy": -7.7, "intermolecular_energy": -9.49, "internal_energy": -1.41, "cluster_size": 22, "cluster_id": 1, "rank_in_cluster": 15}

>  <energy>  (78) 
-7.86

>  <cluster_rmsd>  (78) 
0.92

>  <cluster>  (78) 
2

$$$$

     RDKit          3D

 52 55  0  0  0  0  0  0  0  0999 V2000
  141.3350   72.6080  221.7600 O   0  0  0  0  0  0  0  0  0  0  0  0
  140.3340   72.6370  222.5190 C   0  0  0  0  0  0  0  0  0  0  0  0
  139.3500   73.6830  222.3530 N   0  0  0  0  0  0  0  0  0  0  0  0
  139.4290   74.7100  221.3760 C   0  0  0  0  0  0  0  0  0  0  0  0
  140.2810   75.8630  221.4960 C   0  0  0  0  0  0  0  0  0  0  0  0
  141.5680   75.5370  221.3900 O   0  0  0  0  0  0  0  0  0  0  0  0
  140.0810   77.2220  221.6890 N   0  0  0  0  0  0  0  0  0  0  0  0
  139.1870   77.8810  222.6380 C   0  0  0  0  0  0  0  0  0  0  0  0
  139.9860   78.8930  223.4410 C   0  0  0  0  0  0  0  0  0  0  0  0
  141.4700   78.6830  223.2690 C   0  0  0  0  0  0  0  0  0  0  0  0
  141.8460   78.7810  221.8290 C   0  0  0  0  0  0  0  0  0  0  0  0
  140.8360   78.2290  220.9040 C   0  0  1  0  0  0  0  0  0  0  0  0
  141.2500   77.7990  219.5880 C   0  0  0  0  0  0  0  0  0  0  0  0
  140.4630   77.7150  218.4620 C   0  0  0  0  0  0  0  0  0  0  0  0
  140.9100   77.2650  217.2410 C   0  0  0  0  0  0  0  0  0  0  0  0
  142.2160   76.8630  217.0870 C   0  0  0  0  0  0  0  0  0  0  0  0
  142.7440   76.3990  215.9010 O   0  0  0  0  0  0  0  0  0  0  0  0
  143.0290   76.9350  218.1990 C   0  0  0  0  0  0  0  0  0  0  0  0
  142.5810   77.3860  219.4220 C   0  0  0  0  0  0  0  0  0  0  0  0
  140.1730   71.6140  223.5630 C   0  0  0  0  0  0  0  0  0  0  0  0
  139.5450   70.4350  223.2520 C   0  0  0  0  0  0  0  0  0  0  0  0
  139.4050   69.4840  224.2570 C   0  0  0  0  0  0  0  0  0  0  0  0
  139.8840   69.7080  225.5440 C   0  0  0  0  0  0  0  0  0  0  0  0
  139.7530   68.7760  226.5530 C   0  0  0  0  0  0  0  0  0  0  0  0
  140.2520   69.0770  227.7920 C   0  0  0  0  0  0  0  0  0  0  0  0
  140.1460   68.1860  228.8200 F   0  0  0  0  0  0  0  0  0  0  0  0
  140.8740   70.2900  228.0320 C   0  0  0  0  0  0  0  0  0  0  0  0
  141.0210   71.2510  227.0350 C   0  0  0  0  0  0  0  0  0  0  0  0
  140.5060   70.9120  225.7980 C   0  0  0  0  0  0  0  0  0  0  0  0
  140.6320   71.8220  224.8130 N   0  0  0  0  0  0  0  0  0  0  0  0
  138.5470   73.6040  223.0510 H   0  0  0  0  0  0  0  0  0  0  0  0
  139.7285   74.2123  220.4419 H   0  0  0  0  0  0  0  0  0  0  0  0
  138.4345   75.1704  221.4714 H   0  0  0  0  0  0  0  0  0  0  0  0
  138.3820   78.3947  222.0921 H   0  0  0  0  0  0  0  0  0  0  0  0
  138.7428   77.1348  223.3132 H   0  0  0  0  0  0  0  0  0  0  0  0
  139.7259   79.9061  223.1003 H   0  0  0  0  0  0  0  0  0  0  0  0
  139.7388   78.7639  224.5051 H   0  0  0  0  0  0  0  0  0  0  0  0
  142.0131   79.4516  223.8384 H   0  0  0  0  0  0  0  0  0  0  0  0
  141.7337   77.6812  223.6390 H   0  0  0  0  0  0  0  0  0  0  0  0
  141.9967   79.8424  221.5826 H   0  0  0  0  0  0  0  0  0  0  0  0
  142.7585   78.1810  221.6975 H   0  0  0  0  0  0  0  0  0  0  0  0
  140.1995   79.0601  220.5662 H   0  0  0  0  0  0  0  0  0  0  0  0
  139.4113   78.0270  218.5433 H   0  0  0  0  0  0  0  0  0  0  0  0
  140.2202   77.2267  216.3850 H   0  0  0  0  0  0  0  0  0  0  0  0
  142.7240   75.4040  215.6780 H   0  0  0  0  0  0  0  0  0  0  0  0
  144.0786   76.6193  218.1059 H   0  0  0  0  0  0  0  0  0  0  0  0
  143.2733   77.4226  220.2761 H   0  0  0  0  0  0  0  0  0  0  0  0
  139.1633   70.2472  222.2376 H   0  0  0  0  0  0  0  0  0  0  0  0
  138.9035   68.5319  224.0290 H   0  0  0  0  0  0  0  0  0  0  0  0
  139.2582   67.8116  226.3659 H   0  0  0  0  0  0  0  0  0  0  0  0
  141.2633   70.5009  229.0390 H   0  0  0  0  0  0  0  0  0  0  0  0
  141.5146   72.2165  227.2198 H   0  0  0  0  0  0  0  0  0  0  0  0
  1  2  2  0
  2  3  1  0
  3  4  1  0
  4  5  1  0
  5  6  2  0
  5  7  1  0
  7  8  1  0
  8  9  1  0
  9 10  1  0
 10 11  1  0
 11 12  1  0
 12 13  1  0
 13 14  2  0
 14 15  1  0
 15 16  2  0
 16 17  1  0
 16 18  1  0
 18 19  2  0
  2 20  1  0
 20 21  2  0
 21 22  1  0
 22 23  2  0
 23 24  1  0
 24 25  2  0
 25 26  1  0
 25 27  1  0
 27 28  2  0
 28 29  1  0
 29 30  2  0
 12  7  1  0
 19 13  1  0
 30 20  1  0
 29 23  1  0
  3 31  1  0
  4 32  1  0
  4 33  1  0
  8 34  1  0
  8 35  1  0
  9 36  1  0
  9 37  1  0
 10 38  1  0
 10 39  1  0
 11 40  1  0
 11 41  1  0
 12 42  1  6
 14 43  1  0
 15 44  1  0
 17 45  1  0
 18 46  1  0
 19 47  1  0
 21 48  1  0
 22 49  1  0
 24 50  1  0
 27 51  1  0
 28 52  1  0
M  END
>  <smiles>  (79) 
O=C(NCC(=O)N1CCCCC1c1ccc(O)cc1)c1ccc2cc(F)ccc2n1

>  <score_type>  (79) 
oracle

>  <origin>  (79) 
autodockgpu

>  <m_score__min__energy>  (79) 
-8.4199999999999999

>  <m_primary>  (79) 
energy

>  <rmsd>  (79) 
3.0435997021165755

>  <m_score__min__rmsd>  (79) 
3.0435997021165755

>  <meeko>  (79) 
{"free_energy": -7.62, "intermolecular_energy": -9.41, "internal_energy": -1.21, "cluster_size": 10, "cluster_id": 2, "rank_in_cluster": 10}

>  <energy>  (79) 
-7.77

>  <cluster_rmsd>  (79) 
1.3

>  <cluster>  (79) 
2

$$$$

     RDKit          3D

 52 55  0  0  0  0  0  0  0  0999 V2000
  139.1390   74.9700  221.6550 O   0  0  0  0  0  0  0  0  0  0  0  0
  140.3420   75.3320  221.6150 C   0  0  0  0  0  0  0  0  0  0  0  0
  140.6790   76.7050  221.9180 N   0  0  0  0  0  0  0  0  0  0  0  0
  139.7320   77.7050  222.2620 C   0  0  0  0  0  0  0  0  0  0  0  0
  139.8260   79.0750  221.8330 C   0  0  0  0  0  0  0  0  0  0  0  0
  138.8770   79.3800  220.9490 O   0  0  0  0  0  0  0  0  0  0  0  0
  140.6600   80.1450  222.1240 N   0  0  0  0  0  0  0  0  0  0  0  0
  140.4280   81.2500  223.0510 C   0  0  0  0  0  0  0  0  0  0  0  0
  141.6120   81.3500  223.9980 C   0  0  0  0  0  0  0  0  0  0  0  0
  142.4790   80.1180  223.9270 C   0  0  0  0  0  0  0  0  0  0  0  0
  142.9710   79.9070  222.5350 C   0  0  0  0  0  0  0  0  0  0  0  0
  141.9940   80.2730  221.4890 C   0  0  1  0  0  0  0  0  0  0  0  0
  142.1120   79.6770  220.1790 C   0  0  0  0  0  0  0  0  0  0  0  0
  142.1960   78.3350  219.8870 C   0  0  0  0  0  0  0  0  0  0  0  0
  142.3390   77.8290  218.6150 C   0  0  0  0  0  0  0  0  0  0  0  0
  142.4080   78.6790  217.5370 C   0  0  0  0  0  0  0  0  0  0  0  0
  142.5520   78.2560  216.2330 O   0  0  0  0  0  0  0  0  0  0  0  0
  142.3270   80.0300  217.7980 C   0  0  0  0  0  0  0  0  0  0  0  0
  142.1830   80.5370  219.0710 C   0  0  0  0  0  0  0  0  0  0  0  0
  141.3910   74.3620  221.2630 C   0  0  0  0  0  0  0  0  0  0  0  0
  141.0680   73.0330  221.1720 C   0  0  0  0  0  0  0  0  0  0  0  0
  142.0780   72.1360  220.8380 C   0  0  0  0  0  0  0  0  0  0  0  0
  143.3810   72.5630  220.6000 C   0  0  0  0  0  0  0  0  0  0  0  0
  144.3940   71.6870  220.2680 C   0  0  0  0  0  0  0  0  0  0  0  0
  145.6500   72.1890  220.0510 C   0  0  0  0  0  0  0  0  0  0  0  0
  146.6830   71.3630  219.7200 F   0  0  0  0  0  0  0  0  0  0  0  0
  145.9000   73.5460  220.1610 C   0  0  0  0  0  0  0  0  0  0  0  0
  144.8990   74.4550  220.4950 C   0  0  0  0  0  0  0  0  0  0  0  0
  143.6450   73.9110  220.7060 C   0  0  0  0  0  0  0  0  0  0  0  0
  142.6560   74.7660  221.0320 N   0  0  0  0  0  0  0  0  0  0  0  0
  141.7270   76.8930  221.8530 H   0  0  0  0  0  0  0  0  0  0  0  0
  138.7630   77.3405  221.8903 H   0  0  0  0  0  0  0  0  0  0  0  0
  139.9145   77.8077  223.3419 H   0  0  0  0  0  0  0  0  0  0  0  0
  140.3241   82.1894  222.4882 H   0  0  0  0  0  0  0  0  0  0  0  0
  139.5055   81.0713  223.6228 H   0  0  0  0  0  0  0  0  0  0  0  0
  142.2153   82.2284  223.7252 H   0  0  0  0  0  0  0  0  0  0  0  0
  141.2275   81.4440  225.0243 H   0  0  0  0  0  0  0  0  0  0  0  0
  143.3398   80.2414  224.6007 H   0  0  0  0  0  0  0  0  0  0  0  0
  141.8830   79.2447  224.2306 H   0  0  0  0  0  0  0  0  0  0  0  0
  143.8753   80.5167  222.3919 H   0  0  0  0  0  0  0  0  0  0  0  0
  143.1641   78.8296  222.4263 H   0  0  0  0  0  0  0  0  0  0  0  0
  142.2101   81.3042  221.1727 H   0  0  0  0  0  0  0  0  0  0  0  0
  142.1457   77.6216  220.7228 H   0  0  0  0  0  0  0  0  0  0  0  0
  142.3982   76.7415  218.4607 H   0  0  0  0  0  0  0  0  0  0  0  0
  143.3040   78.6210  215.6480 H   0  0  0  0  0  0  0  0  0  0  0  0
  142.3796   80.7334  216.9539 H   0  0  0  0  0  0  0  0  0  0  0  0
  142.1231   81.6251  219.2208 H   0  0  0  0  0  0  0  0  0  0  0  0
  140.0408   72.6859  221.3575 H   0  0  0  0  0  0  0  0  0  0  0  0
  141.8410   71.0646  220.7603 H   0  0  0  0  0  0  0  0  0  0  0  0
  144.1972   70.6084  220.1795 H   0  0  0  0  0  0  0  0  0  0  0  0
  146.9193   73.9174  219.9793 H   0  0  0  0  0  0  0  0  0  0  0  0
  145.0929   75.5340  220.5850 H   0  0  0  0  0  0  0  0  0  0  0  0
  1  2  2  0
  2  3  1  0
  3  4  1  0
  4  5  1  0
  5  6  2  0
  5  7  1  0
  7  8  1  0
  8  9  1  0
  9 10  1  0
 10 11  1  0
 11 12  1  0
 12 13  1  0
 13 14  2  0
 14 15  1  0
 15 16  2  0
 16 17  1  0
 16 18  1  0
 18 19  2  0
  2 20  1  0
 20 21  2  0
 21 22  1  0
 22 23  2  0
 23 24  1  0
 24 25  2  0
 25 26  1  0
 25 27  1  0
 27 28  2  0
 28 29  1  0
 29 30  2  0
 12  7  1  0
 19 13  1  0
 30 20  1  0
 29 23  1  0
  3 31  1  0
  4 32  1  0
  4 33  1  0
  8 34  1  0
  8 35  1  0
  9 36  1  0
  9 37  1  0
 10 38  1  0
 10 39  1  0
 11 40  1  0
 11 41  1  0
 12 42  1  6
 14 43  1  0
 15 44  1  0
 17 45  1  0
 18 46  1  0
 19 47  1  0
 21 48  1  0
 22 49  1  0
 24 50  1  0
 27 51  1  0
 28 52  1  0
M  END
>  <smiles>  (80) 
O=C(NCC(=O)N1CCCCC1c1ccc(O)cc1)c1ccc2cc(F)ccc2n1

>  <score_type>  (80) 
oracle

>  <origin>  (80) 
autodockgpu

>  <m_score__min__energy>  (80) 
-8.4199999999999999

>  <m_primary>  (80) 
energy

>  <rmsd>  (80) 
6.825376230829248

>  <m_score__min__rmsd>  (80) 
6.825376230829248

>  <meeko>  (80) 
{"free_energy": -7.19, "intermolecular_energy": -8.98, "internal_energy": -1.96, "cluster_size": 7, "cluster_id": 4, "rank_in_cluster": 3}

>  <energy>  (80) 
-7.75

>  <cluster_rmsd>  (80) 
1.44

>  <cluster>  (80) 
2

$$$$

     RDKit          3D

 52 55  0  0  0  0  0  0  0  0999 V2000
  139.1160   70.6780  221.2250 O   0  0  0  0  0  0  0  0  0  0  0  0
  139.4720   71.2290  222.2970 C   0  0  0  0  0  0  0  0  0  0  0  0
  139.7660   72.6440  222.3020 N   0  0  0  0  0  0  0  0  0  0  0  0
  139.6870   73.4830  221.1590 C   0  0  0  0  0  0  0  0  0  0  0  0
  140.5130   74.6440  220.9620 C   0  0  0  0  0  0  0  0  0  0  0  0
  141.3640   74.8200  221.9710 O   0  0  0  0  0  0  0  0  0  0  0  0
  140.6350   75.6120  219.9750 N   0  0  0  0  0  0  0  0  0  0  0  0
  139.5850   76.4240  219.3660 C   0  0  0  0  0  0  0  0  0  0  0  0
  139.9810   77.8870  219.4610 C   0  0  0  0  0  0  0  0  0  0  0  0
  141.1270   78.0850  220.4220 C   0  0  0  0  0  0  0  0  0  0  0  0
  142.3060   77.2770  219.9980 C   0  0  0  0  0  0  0  0  0  0  0  0
  141.9590   75.9690  219.4080 C   0  0  1  0  0  0  0  0  0  0  0  0
  142.9410   74.9080  219.4240 C   0  0  0  0  0  0  0  0  0  0  0  0
  142.8620   73.7010  218.7690 C   0  0  0  0  0  0  0  0  0  0  0  0
  143.8200   72.7160  218.8510 C   0  0  0  0  0  0  0  0  0  0  0  0
  144.9420   72.9030  219.6220 C   0  0  0  0  0  0  0  0  0  0  0  0
  145.9460   71.9690  219.7590 O   0  0  0  0  0  0  0  0  0  0  0  0
  145.0480   74.1050  220.2910 C   0  0  0  0  0  0  0  0  0  0  0  0
  144.0900   75.0910  220.2090 C   0  0  0  0  0  0  0  0  0  0  0  0
  139.5850   70.4350  223.5300 C   0  0  0  0  0  0  0  0  0  0  0  0
  139.1020   69.1520  223.5450 C   0  0  0  0  0  0  0  0  0  0  0  0
  139.2210   68.4220  224.7230 C   0  0  0  0  0  0  0  0  0  0  0  0
  139.8100   68.9660  225.8600 C   0  0  0  0  0  0  0  0  0  0  0  0
  139.9360   68.2570  227.0370 C   0  0  0  0  0  0  0  0  0  0  0  0
  140.5280   68.8680  228.1110 C   0  0  0  0  0  0  0  0  0  0  0  0
  140.6750   68.2060  229.2950 F   0  0  0  0  0  0  0  0  0  0  0  0
  140.9930   70.1680  228.0200 C   0  0  0  0  0  0  0  0  0  0  0  0
  140.8800   70.9100  226.8480 C   0  0  0  0  0  0  0  0  0  0  0  0
  140.2770   70.2610  225.7860 C   0  0  0  0  0  0  0  0  0  0  0  0
  140.1530   70.9540  224.6370 N   0  0  0  0  0  0  0  0  0  0  0  0
  140.0550   72.9990  223.2650 H   0  0  0  0  0  0  0  0  0  0  0  0
  139.8770   72.8300  220.2944 H   0  0  0  0  0  0  0  0  0  0  0  0
  138.7002   73.9469  221.3041 H   0  0  0  0  0  0  0  0  0  0  0  0
  139.4648   76.1413  218.3098 H   0  0  0  0  0  0  0  0  0  0  0  0
  138.6329   76.2595  219.8917 H   0  0  0  0  0  0  0  0  0  0  0  0
  140.2839   78.2413  218.4647 H   0  0  0  0  0  0  0  0  0  0  0  0
  139.1160   78.4568  219.8312 H   0  0  0  0  0  0  0  0  0  0  0  0
  141.4047   79.1492  220.4407 H   0  0  0  0  0  0  0  0  0  0  0  0
  140.8126   77.7589  221.4244 H   0  0  0  0  0  0  0  0  0  0  0  0
  142.8699   77.8545  219.2507 H   0  0  0  0  0  0  0  0  0  0  0  0
  142.8921   77.0704  220.9056 H   0  0  0  0  0  0  0  0  0  0  0  0
  141.9287   76.0909  218.3152 H   0  0  0  0  0  0  0  0  0  0  0  0
  141.9790   73.5113  218.1411 H   0  0  0  0  0  0  0  0  0  0  0  0
  143.6869   71.7751  218.2969 H   0  0  0  0  0  0  0  0  0  0  0  0
  146.1330   71.5360  220.6630 H   0  0  0  0  0  0  0  0  0  0  0  0
  145.9352   74.2833  220.9163 H   0  0  0  0  0  0  0  0  0  0  0  0
  144.2266   76.0309  220.7640 H   0  0  0  0  0  0  0  0  0  0  0  0
  138.6341   68.7128  222.6516 H   0  0  0  0  0  0  0  0  0  0  0  0
  138.8405   67.3904  224.7564 H   0  0  0  0  0  0  0  0  0  0  0  0
  139.5688   67.2228  227.1115 H   0  0  0  0  0  0  0  0  0  0  0  0
  141.4659   70.6286  228.8999 H   0  0  0  0  0  0  0  0  0  0  0  0
  141.2462   71.9444  226.7714 H   0  0  0  0  0  0  0  0  0  0  0  0
  1  2  2  0
  2  3  1  0
  3  4  1  0
  4  5  1  0
  5  6  2  0
  5  7  1  0
  7  8  1  0
  8  9  1  0
  9 10  1  0
 10 11  1  0
 11 12  1  0
 12 13  1  0
 13 14  2  0
 14 15  1  0
 15 16  2  0
 16 17  1  0
 16 18  1  0
 18 19  2  0
  2 20  1  0
 20 21  2  0
 21 22  1  0
 22 23  2  0
 23 24  1  0
 24 25  2  0
 25 26  1  0
 25 27  1  0
 27 28  2  0
 28 29  1  0
 29 30  2  0
 12  7  1  0
 19 13  1  0
 30 20  1  0
 29 23  1  0
  3 31  1  0
  4 32  1  0
  4 33  1  0
  8 34  1  0
  8 35  1  0
  9 36  1  0
  9 37  1  0
 10 38  1  0
 10 39  1  0
 11 40  1  0
 11 41  1  0
 12 42  1  6
 14 43  1  0
 15 44  1  0
 17 45  1  0
 18 46  1  0
 19 47  1  0
 21 48  1  0
 22 49  1  0
 24 50  1  0
 27 51  1  0
 28 52  1  0
M  END
>  <smiles>  (81) 
O=C(NCC(=O)N1CCCCC1c1ccc(O)cc1)c1ccc2cc(F)ccc2n1

>  <score_type>  (81) 
oracle

>  <origin>  (81) 
autodockgpu

>  <m_score__min__energy>  (81) 
-8.4199999999999999

>  <m_primary>  (81) 
energy

>  <rmsd>  (81) 
1.6817246462860176

>  <m_score__min__rmsd>  (81) 
1.6817246462860176

>  <meeko>  (81) 
{"free_energy": -7.93, "intermolecular_energy": -9.71, "internal_energy": -1.76, "cluster_size": 22, "cluster_id": 1, "rank_in_cluster": 10}

>  <energy>  (81) 
-7.75

>  <cluster_rmsd>  (81) 
1.46

>  <cluster>  (81) 
2

$$$$

     RDKit          3D

 52 55  0  0  0  0  0  0  0  0999 V2000
  138.7270   70.6980  221.4180 O   0  0  0  0  0  0  0  0  0  0  0  0
  139.3360   71.1820  222.4060 C   0  0  0  0  0  0  0  0  0  0  0  0
  139.8620   72.5250  222.3240 N   0  0  0  0  0  0  0  0  0  0  0  0
  139.7460   73.3640  221.1840 C   0  0  0  0  0  0  0  0  0  0  0  0
  140.5610   74.5280  220.9630 C   0  0  0  0  0  0  0  0  0  0  0  0
  141.3980   74.7440  221.9760 O   0  0  0  0  0  0  0  0  0  0  0  0
  140.6830   75.4690  219.9500 N   0  0  0  0  0  0  0  0  0  0  0  0
  139.6230   76.1720  219.2320 C   0  0  0  0  0  0  0  0  0  0  0  0
  139.8950   77.6650  219.2990 C   0  0  0  0  0  0  0  0  0  0  0  0
  140.9450   77.9880  220.3330 C   0  0  0  0  0  0  0  0  0  0  0  0
  142.2130   77.2630  220.0310 C   0  0  0  0  0  0  0  0  0  0  0  0
  142.0150   75.9120  219.4690 C   0  0  1  0  0  0  0  0  0  0  0  0
  143.0720   74.9350  219.6010 C   0  0  0  0  0  0  0  0  0  0  0  0
  144.1620   75.0070  220.4370 C   0  0  0  0  0  0  0  0  0  0  0  0
  145.1560   74.0550  220.4920 C   0  0  0  0  0  0  0  0  0  0  0  0
  145.0980   72.9470  219.6800 C   0  0  0  0  0  0  0  0  0  0  0  0
  146.0490   71.9500  219.6720 O   0  0  0  0  0  0  0  0  0  0  0  0
  144.0160   72.8490  218.8310 C   0  0  0  0  0  0  0  0  0  0  0  0
  143.0220   73.8010  218.7750 C   0  0  0  0  0  0  0  0  0  0  0  0
  139.5070   70.3820  223.6280 C   0  0  0  0  0  0  0  0  0  0  0  0
  139.0590   69.0860  223.6470 C   0  0  0  0  0  0  0  0  0  0  0  0
  139.2330   68.3510  224.8150 C   0  0  0  0  0  0  0  0  0  0  0  0
  139.8410   68.9030  225.9380 C   0  0  0  0  0  0  0  0  0  0  0  0
  140.0200   68.1880  227.1050 C   0  0  0  0  0  0  0  0  0  0  0  0
  140.6280   68.8060  228.1660 C   0  0  0  0  0  0  0  0  0  0  0  0
  140.8280   68.1400  229.3390 F   0  0  0  0  0  0  0  0  0  0  0  0
  141.0550   70.1200  228.0720 C   0  0  0  0  0  0  0  0  0  0  0  0
  140.8880   70.8670  226.9100 C   0  0  0  0  0  0  0  0  0  0  0  0
  140.2710   70.2100  225.8610 C   0  0  0  0  0  0  0  0  0  0  0  0
  140.0940   70.9080  224.7220 N   0  0  0  0  0  0  0  0  0  0  0  0
  140.3550   72.8270  223.2210 H   0  0  0  0  0  0  0  0  0  0  0  0
  139.9130   72.7119  220.3140 H   0  0  0  0  0  0  0  0  0  0  0  0
  138.7621   73.8240  221.3585 H   0  0  0  0  0  0  0  0  0  0  0  0
  139.6081   75.8455  218.1817 H   0  0  0  0  0  0  0  0  0  0  0  0
  138.6484   75.9482  219.6903 H   0  0  0  0  0  0  0  0  0  0  0  0
  140.2444   78.0095  218.3145 H   0  0  0  0  0  0  0  0  0  0  0  0
  138.9621   78.1742  219.5826 H   0  0  0  0  0  0  0  0  0  0  0  0
  141.1370   79.0711  220.3284 H   0  0  0  0  0  0  0  0  0  0  0  0
  140.5807   77.6726  221.3218 H   0  0  0  0  0  0  0  0  0  0  0  0
  142.7871   77.8583  219.3057 H   0  0  0  0  0  0  0  0  0  0  0  0
  142.7410   77.1348  220.9875 H   0  0  0  0  0  0  0  0  0  0  0  0
  142.0594   75.9940  218.3730 H   0  0  0  0  0  0  0  0  0  0  0  0
  144.2450   75.8787  221.1027 H   0  0  0  0  0  0  0  0  0  0  0  0
  145.9987   74.1816  221.1876 H   0  0  0  0  0  0  0  0  0  0  0  0
  146.3150   71.4780  220.5370 H   0  0  0  0  0  0  0  0  0  0  0  0
  143.9434   71.9728  218.1699 H   0  0  0  0  0  0  0  0  0  0  0  0
  142.1818   73.6715  218.0770 H   0  0  0  0  0  0  0  0  0  0  0  0
  138.5763   68.6408  222.7645 H   0  0  0  0  0  0  0  0  0  0  0  0
  138.8818   67.3092  224.8516 H   0  0  0  0  0  0  0  0  0  0  0  0
  139.6817   67.1441  227.1816 H   0  0  0  0  0  0  0  0  0  0  0  0
  141.5405   70.5870  228.9416 H   0  0  0  0  0  0  0  0  0  0  0  0
  141.2245   71.9113  226.8309 H   0  0  0  0  0  0  0  0  0  0  0  0
  1  2  2  0
  2  3  1  0
  3  4  1  0
  4  5  1  0
  5  6  2  0
  5  7  1  0
  7  8  1  0
  8  9  1  0
  9 10  1  0
 10 11  1  0
 11 12  1  0
 12 13  1  0
 13 14  2  0
 14 15  1  0
 15 16  2  0
 16 17  1  0
 16 18  1  0
 18 19  2  0
  2 20  1  0
 20 21  2  0
 21 22  1  0
 22 23  2  0
 23 24  1  0
 24 25  2  0
 25 26  1  0
 25 27  1  0
 27 28  2  0
 28 29  1  0
 29 30  2  0
 12  7  1  0
 19 13  1  0
 30 20  1  0
 29 23  1  0
  3 31  1  0
  4 32  1  0
  4 33  1  0
  8 34  1  0
  8 35  1  0
  9 36  1  0
  9 37  1  0
 10 38  1  0
 10 39  1  0
 11 40  1  0
 11 41  1  0
 12 42  1  6
 14 43  1  0
 15 44  1  0
 17 45  1  0
 18 46  1  0
 19 47  1  0
 21 48  1  0
 22 49  1  0
 24 50  1  0
 27 51  1  0
 28 52  1  0
M  END
>  <smiles>  (82) 
O=C(NCC(=O)N1CCCCC1c1ccc(O)cc1)c1ccc2cc(F)ccc2n1

>  <score_type>  (82) 
oracle

>  <origin>  (82) 
autodockgpu

>  <m_score__min__energy>  (82) 
-8.4199999999999999

>  <m_primary>  (82) 
energy

>  <rmsd>  (82) 
1.6526279382911484

>  <m_score__min__rmsd>  (82) 
1.6526279382911484

>  <meeko>  (82) 
{"free_energy": -7.87, "intermolecular_energy": -9.66, "internal_energy": -1.78, "cluster_size": 22, "cluster_id": 1, "rank_in_cluster": 13}

>  <energy>  (82) 
-7.62

>  <cluster_rmsd>  (82) 
1.11

>  <cluster>  (82) 
2

$$$$

     RDKit          3D

 52 55  0  0  0  0  0  0  0  0999 V2000
  139.3200   74.6050  222.1430 O   0  0  0  0  0  0  0  0  0  0  0  0
  140.4780   74.9560  221.8030 C   0  0  0  0  0  0  0  0  0  0  0  0
  140.8530   76.3480  221.9010 N   0  0  0  0  0  0  0  0  0  0  0  0
  139.9920   77.3800  222.3600 C   0  0  0  0  0  0  0  0  0  0  0  0
  139.9600   78.7030  221.7960 C   0  0  0  0  0  0  0  0  0  0  0  0
  139.0880   78.7890  220.7920 O   0  0  0  0  0  0  0  0  0  0  0  0
  140.6120   79.9010  222.0510 N   0  0  0  0  0  0  0  0  0  0  0  0
  140.2300   80.9600  222.9820 C   0  0  0  0  0  0  0  0  0  0  0  0
  141.4130   81.2680  223.8840 C   0  0  0  0  0  0  0  0  0  0  0  0
  142.4730   80.1980  223.7860 C   0  0  0  0  0  0  0  0  0  0  0  0
  142.9430   80.0590  222.3780 C   0  0  0  0  0  0  0  0  0  0  0  0
  141.8820   80.2450  221.3670 C   0  0  1  0  0  0  0  0  0  0  0  0
  142.0520   79.6630  220.0560 C   0  0  0  0  0  0  0  0  0  0  0  0
  142.1990   78.3280  219.7580 C   0  0  0  0  0  0  0  0  0  0  0  0
  142.3900   77.8380  218.4860 C   0  0  0  0  0  0  0  0  0  0  0  0
  142.4440   78.6970  217.4140 C   0  0  0  0  0  0  0  0  0  0  0  0
  142.6320   78.2910  216.1110 O   0  0  0  0  0  0  0  0  0  0  0  0
  142.2990   80.0430  217.6820 C   0  0  0  0  0  0  0  0  0  0  0  0
  142.1080   80.5330  218.9560 C   0  0  0  0  0  0  0  0  0  0  0  0
  141.4360   73.9540  221.3120 C   0  0  0  0  0  0  0  0  0  0  0  0
  141.0590   72.6360  221.2640 C   0  0  0  0  0  0  0  0  0  0  0  0
  141.9840   71.7080  220.7960 C   0  0  0  0  0  0  0  0  0  0  0  0
  143.2560   72.0920  220.3830 C   0  0  0  0  0  0  0  0  0  0  0  0
  144.1850   71.1850  219.9170 C   0  0  0  0  0  0  0  0  0  0  0  0
  145.4150   71.6470  219.5310 C   0  0  0  0  0  0  0  0  0  0  0  0
  146.3660   70.7880  219.0620 F   0  0  0  0  0  0  0  0  0  0  0  0
  145.7240   72.9940  219.6060 C   0  0  0  0  0  0  0  0  0  0  0  0
  144.8090   73.9330  220.0730 C   0  0  0  0  0  0  0  0  0  0  0  0
  143.5780   73.4310  220.4530 C   0  0  0  0  0  0  0  0  0  0  0  0
  142.6710   74.3160  220.9100 N   0  0  0  0  0  0  0  0  0  0  0  0
  141.8570   76.5250  221.5870 H   0  0  0  0  0  0  0  0  0  0  0  0
  138.9703   76.9857  222.2570 H   0  0  0  0  0  0  0  0  0  0  0  0
  140.4159   77.5834  223.3544 H   0  0  0  0  0  0  0  0  0  0  0  0
  139.9485   81.8627  222.4200 H   0  0  0  0  0  0  0  0  0  0  0  0
  139.3722   80.6335  223.5884 H   0  0  0  0  0  0  0  0  0  0  0  0
  141.8493   82.2326  223.5853 H   0  0  0  0  0  0  0  0  0  0  0  0
  141.0551   81.3069  224.9234 H   0  0  0  0  0  0  0  0  0  0  0  0
  143.3242   80.4714  224.4269 H   0  0  0  0  0  0  0  0  0  0  0  0
  142.0442   79.2400  224.1151 H   0  0  0  0  0  0  0  0  0  0  0  0
  143.7260   80.8106  222.1994 H   0  0  0  0  0  0  0  0  0  0  0  0
  143.3103   79.0282  222.2664 H   0  0  0  0  0  0  0  0  0  0  0  0
  141.9103   81.2945  221.0387 H   0  0  0  0  0  0  0  0  0  0  0  0
  142.1616   77.6072  220.5881 H   0  0  0  0  0  0  0  0  0  0  0  0
  142.4998   76.7552  218.3266 H   0  0  0  0  0  0  0  0  0  0  0  0
  143.3250   78.7490  215.5190 H   0  0  0  0  0  0  0  0  0  0  0  0
  142.3375   80.7544  216.8439 H   0  0  0  0  0  0  0  0  0  0  0  0
  141.9984   81.6163  219.1122 H   0  0  0  0  0  0  0  0  0  0  0  0
  140.0551   72.3221  221.5860 H   0  0  0  0  0  0  0  0  0  0  0  0
  141.7030   70.6454  220.7514 H   0  0  0  0  0  0  0  0  0  0  0  0
  143.9430   70.1136  219.8568 H   0  0  0  0  0  0  0  0  0  0  0  0
  146.7211   73.3320  219.2875 H   0  0  0  0  0  0  0  0  0  0  0  0
  145.0495   75.0046  220.1357 H   0  0  0  0  0  0  0  0  0  0  0  0
  1  2  2  0
  2  3  1  0
  3  4  1  0
  4  5  1  0
  5  6  2  0
  5  7  1  0
  7  8  1  0
  8  9  1  0
  9 10  1  0
 10 11  1  0
 11 12  1  0
 12 13  1  0
 13 14  2  0
 14 15  1  0
 15 16  2  0
 16 17  1  0
 16 18  1  0
 18 19  2  0
  2 20  1  0
 20 21  2  0
 21 22  1  0
 22 23  2  0
 23 24  1  0
 24 25  2  0
 25 26  1  0
 25 27  1  0
 27 28  2  0
 28 29  1  0
 29 30  2  0
 12  7  1  0
 19 13  1  0
 30 20  1  0
 29 23  1  0
  3 31  1  0
  4 32  1  0
  4 33  1  0
  8 34  1  0
  8 35  1  0
  9 36  1  0
  9 37  1  0
 10 38  1  0
 10 39  1  0
 11 40  1  0
 11 41  1  0
 12 42  1  6
 14 43  1  0
 15 44  1  0
 17 45  1  0
 18 46  1  0
 19 47  1  0
 21 48  1  0
 22 49  1  0
 24 50  1  0
 27 51  1  0
 28 52  1  0
M  END
>  <smiles>  (83) 
O=C(NCC(=O)N1CCCCC1c1ccc(O)cc1)c1ccc2cc(F)ccc2n1

>  <score_type>  (83) 
oracle

>  <origin>  (83) 
autodockgpu

>  <m_score__min__energy>  (83) 
-8.4199999999999999

>  <m_primary>  (83) 
energy

>  <rmsd>  (83) 
6.736889205833093

>  <m_score__min__rmsd>  (83) 
6.736889205833093

>  <meeko>  (83) 
{"free_energy": -7.49, "intermolecular_energy": -9.28, "internal_energy": -1.8, "cluster_size": 7, "cluster_id": 4, "rank_in_cluster": 1}

>  <energy>  (83) 
-7.99

>  <cluster_rmsd>  (83) 
0.0

>  <cluster>  (83) 
3

$$$$

     RDKit          3D

 52 55  0  0  0  0  0  0  0  0999 V2000
  140.6990   76.5850  218.7650 O   0  0  0  0  0  0  0  0  0  0  0  0
  141.9250   76.5750  219.0420 C   0  0  0  0  0  0  0  0  0  0  0  0
  142.5760   77.8100  219.4170 N   0  0  0  0  0  0  0  0  0  0  0  0
  141.9240   79.0690  219.4940 C   0  0  0  0  0  0  0  0  0  0  0  0
  141.7620   79.8110  220.7150 C   0  0  0  0  0  0  0  0  0  0  0  0
  141.0720   80.9340  220.5210 O   0  0  0  0  0  0  0  0  0  0  0  0
  142.1460   79.6330  222.0360 N   0  0  0  0  0  0  0  0  0  0  0  0
  143.3250   80.1640  222.7170 C   0  0  0  0  0  0  0  0  0  0  0  0
  142.8790   80.8800  223.9800 C   0  0  0  0  0  0  0  0  0  0  0  0
  141.3900   81.1210  223.9800 C   0  0  0  0  0  0  0  0  0  0  0  0
  140.6550   79.8290  223.8540 C   0  0  0  0  0  0  0  0  0  0  0  0
  141.3170   78.8420  222.9780 C   0  0  1  0  0  0  0  0  0  0  0  0
  140.5240   77.7970  222.3710 C   0  0  0  0  0  0  0  0  0  0  0  0
  139.2510   77.9170  221.8640 C   0  0  0  0  0  0  0  0  0  0  0  0
  138.5340   76.8730  221.3260 C   0  0  0  0  0  0  0  0  0  0  0  0
  139.0820   75.6140  221.2690 C   0  0  0  0  0  0  0  0  0  0  0  0
  138.4330   74.5150  220.7480 O   0  0  0  0  0  0  0  0  0  0  0  0
  140.3580   75.4630  221.7700 C   0  0  0  0  0  0  0  0  0  0  0  0
  141.0760   76.5080  222.3090 C   0  0  0  0  0  0  0  0  0  0  0  0
  142.6810   75.3150  218.9850 C   0  0  0  0  0  0  0  0  0  0  0  0
  142.2780   74.3330  218.1170 C   0  0  0  0  0  0  0  0  0  0  0  0
  143.0110   73.1510  218.0820 C   0  0  0  0  0  0  0  0  0  0  0  0
  144.1220   72.9580  218.8970 C   0  0  0  0  0  0  0  0  0  0  0  0
  144.8590   71.7920  218.8760 C   0  0  0  0  0  0  0  0  0  0  0  0
  145.9380   71.6830  219.7120 C   0  0  0  0  0  0  0  0  0  0  0  0
  146.6980   70.5500  219.7250 F   0  0  0  0  0  0  0  0  0  0  0  0
  146.2850   72.7190  220.5620 C   0  0  0  0  0  0  0  0  0  0  0  0
  145.5610   73.9070  220.6070 C   0  0  0  0  0  0  0  0  0  0  0  0
  144.4790   73.9810  219.7500 C   0  0  0  0  0  0  0  0  0  0  0  0
  143.7580   75.1190  219.7710 N   0  0  0  0  0  0  0  0  0  0  0  0
  143.6130   77.6770  219.6310 H   0  0  0  0  0  0  0  0  0  0  0  0
  142.4735   79.7331  218.8107 H   0  0  0  0  0  0  0  0  0  0  0  0
  140.8837   78.7824  219.2804 H   0  0  0  0  0  0  0  0  0  0  0  0
  144.0033   79.3388  222.9796 H   0  0  0  0  0  0  0  0  0  0  0  0
  143.8541   80.8663  222.0560 H   0  0  0  0  0  0  0  0  0  0  0  0
  143.1417   80.2637  224.8524 H   0  0  0  0  0  0  0  0  0  0  0  0
  143.3872   81.8546  224.0230 H   0  0  0  0  0  0  0  0  0  0  0  0
  141.1021   81.6117  224.9215 H   0  0  0  0  0  0  0  0  0  0  0  0
  141.1321   81.7635  223.1252 H   0  0  0  0  0  0  0  0  0  0  0  0
  140.5557   79.3888  224.8572 H   0  0  0  0  0  0  0  0  0  0  0  0
  139.6832   80.0604  223.3936 H   0  0  0  0  0  0  0  0  0  0  0  0
  141.9221   78.1807  223.6156 H   0  0  0  0  0  0  0  0  0  0  0  0
  138.7767   78.9091  221.8902 H   0  0  0  0  0  0  0  0  0  0  0  0
  137.5186   77.0468  220.9402 H   0  0  0  0  0  0  0  0  0  0  0  0
  138.1750   74.4840  219.7610 H   0  0  0  0  0  0  0  0  0  0  0  0
  140.8220   74.4662  221.7379 H   0  0  0  0  0  0  0  0  0  0  0  0
  142.0910   76.3306  222.6942 H   0  0  0  0  0  0  0  0  0  0  0  0
  141.4015   74.4755  217.4678 H   0  0  0  0  0  0  0  0  0  0  0  0
  142.7048   72.3497  217.3934 H   0  0  0  0  0  0  0  0  0  0  0  0
  144.5856   70.9670  218.2017 H   0  0  0  0  0  0  0  0  0  0  0  0
  147.1579   72.6000  221.2207 H   0  0  0  0  0  0  0  0  0  0  0  0
  145.8323   74.7332  221.2807 H   0  0  0  0  0  0  0  0  0  0  0  0
  1  2  2  0
  2  3  1  0
  3  4  1  0
  4  5  1  0
  5  6  2  0
  5  7  1  0
  7  8  1  0
  8  9  1  0
  9 10  1  0
 10 11  1  0
 11 12  1  0
 12 13  1  0
 13 14  2  0
 14 15  1  0
 15 16  2  0
 16 17  1  0
 16 18  1  0
 18 19  2  0
  2 20  1  0
 20 21  2  0
 21 22  1  0
 22 23  2  0
 23 24  1  0
 24 25  2  0
 25 26  1  0
 25 27  1  0
 27 28  2  0
 28 29  1  0
 29 30  2  0
 12  7  1  0
 19 13  1  0
 30 20  1  0
 29 23  1  0
  3 31  1  0
  4 32  1  0
  4 33  1  0
  8 34  1  0
  8 35  1  0
  9 36  1  0
  9 37  1  0
 10 38  1  0
 10 39  1  0
 11 40  1  0
 11 41  1  0
 12 42  1  1
 14 43  1  0
 15 44  1  0
 17 45  1  0
 18 46  1  0
 19 47  1  0
 21 48  1  0
 22 49  1  0
 24 50  1  0
 27 51  1  0
 28 52  1  0
M  END
>  <smiles>  (84) 
O=C(NCC(=O)N1CCCCC1c1ccc(O)cc1)c1ccc2cc(F)ccc2n1

>  <score_type>  (84) 
oracle

>  <origin>  (84) 
autodockgpu

>  <m_score__min__energy>  (84) 
-8.4199999999999999

>  <m_primary>  (84) 
energy

>  <rmsd>  (84) 
7.797353645818107

>  <m_score__min__rmsd>  (84) 
7.797353645818107

>  <meeko>  (84) 
{"free_energy": -6.64, "intermolecular_energy": -8.43, "internal_energy": -2.29, "cluster_size": 4, "cluster_id": 6, "rank_in_cluster": 2}

>  <energy>  (84) 
-7.93

>  <cluster_rmsd>  (84) 
0.46

>  <cluster>  (84) 
3

$$$$

     RDKit          3D

 52 55  0  0  0  0  0  0  0  0999 V2000
  140.7840   76.6130  218.3070 O   0  0  0  0  0  0  0  0  0  0  0  0
  141.9270   76.5650  218.8260 C   0  0  0  0  0  0  0  0  0  0  0  0
  142.4690   77.7480  219.4560 N   0  0  0  0  0  0  0  0  0  0  0  0
  141.7950   78.9950  219.5330 C   0  0  0  0  0  0  0  0  0  0  0  0
  141.7730   79.8200  220.7120 C   0  0  0  0  0  0  0  0  0  0  0  0
  141.2850   81.0320  220.4550 O   0  0  0  0  0  0  0  0  0  0  0  0
  142.1320   79.6510  222.0410 N   0  0  0  0  0  0  0  0  0  0  0  0
  143.3070   80.1710  222.7360 C   0  0  0  0  0  0  0  0  0  0  0  0
  142.8510   80.9070  223.9840 C   0  0  0  0  0  0  0  0  0  0  0  0
  141.3650   81.1700  223.9550 C   0  0  0  0  0  0  0  0  0  0  0  0
  140.6130   79.8880  223.8300 C   0  0  0  0  0  0  0  0  0  0  0  0
  141.2760   78.8820  222.9770 C   0  0  1  0  0  0  0  0  0  0  0  0
  140.4780   77.8430  222.3670 C   0  0  0  0  0  0  0  0  0  0  0  0
  139.1830   77.9540  221.9150 C   0  0  0  0  0  0  0  0  0  0  0  0
  138.4640   76.9150  221.3710 C   0  0  0  0  0  0  0  0  0  0  0  0
  139.0310   75.6690  221.2510 C   0  0  0  0  0  0  0  0  0  0  0  0
  138.3820   74.5750  220.7200 O   0  0  0  0  0  0  0  0  0  0  0  0
  140.3290   75.5260  221.6960 C   0  0  0  0  0  0  0  0  0  0  0  0
  141.0490   76.5670  222.2410 C   0  0  0  0  0  0  0  0  0  0  0  0
  142.7000   75.3140  218.7890 C   0  0  0  0  0  0  0  0  0  0  0  0
  142.3860   74.3620  217.8530 C   0  0  0  0  0  0  0  0  0  0  0  0
  143.1320   73.1880  217.8390 C   0  0  0  0  0  0  0  0  0  0  0  0
  144.1690   72.9740  218.7420 C   0  0  0  0  0  0  0  0  0  0  0  0
  144.9180   71.8150  218.7420 C   0  0  0  0  0  0  0  0  0  0  0  0
  145.9210   71.6830  219.6660 C   0  0  0  0  0  0  0  0  0  0  0  0
  146.6880   70.5560  219.7040 F   0  0  0  0  0  0  0  0  0  0  0  0
  146.1800   72.6880  220.5810 C   0  0  0  0  0  0  0  0  0  0  0  0
  145.4410   73.8680  220.6060 C   0  0  0  0  0  0  0  0  0  0  0  0
  144.4380   73.9660  219.6600 C   0  0  0  0  0  0  0  0  0  0  0  0
  143.7050   75.0960  219.6600 N   0  0  0  0  0  0  0  0  0  0  0  0
  143.4420   77.5860  219.8610 H   0  0  0  0  0  0  0  0  0  0  0  0
  142.2292   79.6197  218.7384 H   0  0  0  0  0  0  0  0  0  0  0  0
  140.7448   78.6720  219.4806 H   0  0  0  0  0  0  0  0  0  0  0  0
  143.9681   79.3385  223.0185 H   0  0  0  0  0  0  0  0  0  0  0  0
  143.8577   80.8582  222.0768 H   0  0  0  0  0  0  0  0  0  0  0  0
  143.0894   80.2961  224.8672 H   0  0  0  0  0  0  0  0  0  0  0  0
  143.3734   81.8741  224.0264 H   0  0  0  0  0  0  0  0  0  0  0  0
  141.0680   81.6753  224.8859 H   0  0  0  0  0  0  0  0  0  0  0  0
  141.1319   81.8066  223.0888 H   0  0  0  0  0  0  0  0  0  0  0  0
  140.4891   79.4605  224.8359 H   0  0  0  0  0  0  0  0  0  0  0  0
  139.6530   80.1285  223.3498 H   0  0  0  0  0  0  0  0  0  0  0  0
  141.8606   78.2192  223.6320 H   0  0  0  0  0  0  0  0  0  0  0  0
  138.6919   78.9352  221.9936 H   0  0  0  0  0  0  0  0  0  0  0  0
  137.4314   77.0822  221.0308 H   0  0  0  0  0  0  0  0  0  0  0  0
  138.3840   74.4080  219.7140 H   0  0  0  0  0  0  0  0  0  0  0  0
  140.8093   74.5399  221.6123 H   0  0  0  0  0  0  0  0  0  0  0  0
  142.0812   76.3963  222.5806 H   0  0  0  0  0  0  0  0  0  0  0  0
  141.5685   74.5221  217.1346 H   0  0  0  0  0  0  0  0  0  0  0  0
  142.8968   72.4108  217.0970 H   0  0  0  0  0  0  0  0  0  0  0  0
  144.7142   71.0143  218.0158 H   0  0  0  0  0  0  0  0  0  0  0  0
  146.9928   72.5510  221.3094 H   0  0  0  0  0  0  0  0  0  0  0  0
  145.6424   74.6700  221.3315 H   0  0  0  0  0  0  0  0  0  0  0  0
  1  2  2  0
  2  3  1  0
  3  4  1  0
  4  5  1  0
  5  6  2  0
  5  7  1  0
  7  8  1  0
  8  9  1  0
  9 10  1  0
 10 11  1  0
 11 12  1  0
 12 13  1  0
 13 14  2  0
 14 15  1  0
 15 16  2  0
 16 17  1  0
 16 18  1  0
 18 19  2  0
  2 20  1  0
 20 21  2  0
 21 22  1  0
 22 23  2  0
 23 24  1  0
 24 25  2  0
 25 26  1  0
 25 27  1  0
 27 28  2  0
 28 29  1  0
 29 30  2  0
 12  7  1  0
 19 13  1  0
 30 20  1  0
 29 23  1  0
  3 31  1  0
  4 32  1  0
  4 33  1  0
  8 34  1  0
  8 35  1  0
  9 36  1  0
  9 37  1  0
 10 38  1  0
 10 39  1  0
 11 40  1  0
 11 41  1  0
 12 42  1  1
 14 43  1  0
 15 44  1  0
 17 45  1  0
 18 46  1  0
 19 47  1  0
 21 48  1  0
 22 49  1  0
 24 50  1  0
 27 51  1  0
 28 52  1  0
M  END
>  <smiles>  (85) 
O=C(NCC(=O)N1CCCCC1c1ccc(O)cc1)c1ccc2cc(F)ccc2n1

>  <score_type>  (85) 
oracle

>  <origin>  (85) 
autodockgpu

>  <m_score__min__energy>  (85) 
-8.4199999999999999

>  <m_primary>  (85) 
energy

>  <rmsd>  (85) 
7.828213902304626

>  <m_score__min__rmsd>  (85) 
7.828213902304626

>  <meeko>  (85) 
{"free_energy": -6.66, "intermolecular_energy": -8.45, "internal_energy": -2.26, "cluster_size": 4, "cluster_id": 6, "rank_in_cluster": 1}

>  <energy>  (85) 
-7.88

>  <cluster_rmsd>  (85) 
0.2

>  <cluster>  (85) 
3

$$$$

     RDKit          3D

 52 55  0  0  0  0  0  0  0  0999 V2000
  139.0650   70.7180  221.3680 O   0  0  0  0  0  0  0  0  0  0  0  0
  139.3960   71.2630  222.4510 C   0  0  0  0  0  0  0  0  0  0  0  0
  139.6360   72.6870  222.4820 N   0  0  0  0  0  0  0  0  0  0  0  0
  139.5280   73.5430  221.3540 C   0  0  0  0  0  0  0  0  0  0  0  0
  140.4400   74.6200  221.0780 C   0  0  0  0  0  0  0  0  0  0  0  0
  141.3920   74.7090  222.0050 O   0  0  0  0  0  0  0  0  0  0  0  0
  140.5640   75.5770  220.0810 N   0  0  0  0  0  0  0  0  0  0  0  0
  139.5150   76.3850  219.4630 C   0  0  0  0  0  0  0  0  0  0  0  0
  139.9140   77.8480  219.5430 C   0  0  0  0  0  0  0  0  0  0  0  0
  141.0610   78.0550  220.5020 C   0  0  0  0  0  0  0  0  0  0  0  0
  142.2390   77.2390  220.0870 C   0  0  0  0  0  0  0  0  0  0  0  0
  141.8890   75.9250  219.5110 C   0  0  1  0  0  0  0  0  0  0  0  0
  142.8680   74.8630  219.5380 C   0  0  0  0  0  0  0  0  0  0  0  0
  142.7260   73.5960  219.0220 C   0  0  0  0  0  0  0  0  0  0  0  0
  143.6870   72.6150  219.1090 C   0  0  0  0  0  0  0  0  0  0  0  0
  144.8810   72.8710  219.7410 C   0  0  0  0  0  0  0  0  0  0  0  0
  145.8950   71.9460  219.8730 O   0  0  0  0  0  0  0  0  0  0  0  0
  145.0530   74.1330  220.2690 C   0  0  0  0  0  0  0  0  0  0  0  0
  144.0900   75.1150  220.1820 C   0  0  0  0  0  0  0  0  0  0  0  0
  139.5360   70.4510  223.6700 C   0  0  0  0  0  0  0  0  0  0  0  0
  139.0630   69.1640  223.6740 C   0  0  0  0  0  0  0  0  0  0  0  0
  139.2070   68.4190  224.8390 C   0  0  0  0  0  0  0  0  0  0  0  0
  139.8130   68.9500  225.9730 C   0  0  0  0  0  0  0  0  0  0  0  0
  139.9640   68.2240  227.1370 C   0  0  0  0  0  0  0  0  0  0  0  0
  140.5710   68.8230  228.2090 C   0  0  0  0  0  0  0  0  0  0  0  0
  140.7440   68.1450  229.3800 F   0  0  0  0  0  0  0  0  0  0  0  0
  141.0250   70.1280  228.1300 C   0  0  0  0  0  0  0  0  0  0  0  0
  140.8870   70.8860  226.9700 C   0  0  0  0  0  0  0  0  0  0  0  0
  140.2700   70.2490  225.9090 C   0  0  0  0  0  0  0  0  0  0  0  0
  140.1210   70.9570  224.7730 N   0  0  0  0  0  0  0  0  0  0  0  0
  139.9080   73.0360  223.4530 H   0  0  0  0  0  0  0  0  0  0  0  0
  139.5672   72.8846  220.4737 H   0  0  0  0  0  0  0  0  0  0  0  0
  138.6108   74.0993  221.5974 H   0  0  0  0  0  0  0  0  0  0  0  0
  139.3944   76.0916  218.4097 H   0  0  0  0  0  0  0  0  0  0  0  0
  138.5624   76.2278  219.9901 H   0  0  0  0  0  0  0  0  0  0  0  0
  140.2174   78.1913  218.5429 H   0  0  0  0  0  0  0  0  0  0  0  0
  139.0500   78.4227  219.9079 H   0  0  0  0  0  0  0  0  0  0  0  0
  141.3409   79.1188  220.5082 H   0  0  0  0  0  0  0  0  0  0  0  0
  140.7461   77.7414  221.5082 H   0  0  0  0  0  0  0  0  0  0  0  0
  142.8046   77.8069  219.3336 H   0  0  0  0  0  0  0  0  0  0  0  0
  142.8243   77.0409  220.9971 H   0  0  0  0  0  0  0  0  0  0  0  0
  141.8591   76.0352  218.4169 H   0  0  0  0  0  0  0  0  0  0  0  0
  141.7850   73.3515  218.5074 H   0  0  0  0  0  0  0  0  0  0  0  0
  143.4995   71.6232  218.6717 H   0  0  0  0  0  0  0  0  0  0  0  0
  146.1140   71.5410  220.7830 H   0  0  0  0  0  0  0  0  0  0  0  0
  145.9983   74.3657  220.7810 H   0  0  0  0  0  0  0  0  0  0  0  0
  144.2804   76.1054  220.6212 H   0  0  0  0  0  0  0  0  0  0  0  0
  138.5839   68.7338  222.7821 H   0  0  0  0  0  0  0  0  0  0  0  0
  138.8328   67.3849  224.8646 H   0  0  0  0  0  0  0  0  0  0  0  0
  139.6046   67.1864  227.2025 H   0  0  0  0  0  0  0  0  0  0  0  0
  141.5087   70.5794  229.0088 H   0  0  0  0  0  0  0  0  0  0  0  0
  141.2454   71.9238  226.9021 H   0  0  0  0  0  0  0  0  0  0  0  0
  1  2  2  0
  2  3  1  0
  3  4  1  0
  4  5  1  0
  5  6  2  0
  5  7  1  0
  7  8  1  0
  8  9  1  0
  9 10  1  0
 10 11  1  0
 11 12  1  0
 12 13  1  0
 13 14  2  0
 14 15  1  0
 15 16  2  0
 16 17  1  0
 16 18  1  0
 18 19  2  0
  2 20  1  0
 20 21  2  0
 21 22  1  0
 22 23  2  0
 23 24  1  0
 24 25  2  0
 25 26  1  0
 25 27  1  0
 27 28  2  0
 28 29  1  0
 29 30  2  0
 12  7  1  0
 19 13  1  0
 30 20  1  0
 29 23  1  0
  3 31  1  0
  4 32  1  0
  4 33  1  0
  8 34  1  0
  8 35  1  0
  9 36  1  0
  9 37  1  0
 10 38  1  0
 10 39  1  0
 11 40  1  0
 11 41  1  0
 12 42  1  6
 14 43  1  0
 15 44  1  0
 17 45  1  0
 18 46  1  0
 19 47  1  0
 21 48  1  0
 22 49  1  0
 24 50  1  0
 27 51  1  0
 28 52  1  0
M  END
>  <smiles>  (86) 
O=C(NCC(=O)N1CCCCC1c1ccc(O)cc1)c1ccc2cc(F)ccc2n1

>  <score_type>  (86) 
oracle

>  <origin>  (86) 
autodockgpu

>  <m_score__min__energy>  (86) 
-8.4199999999999999

>  <m_primary>  (86) 
energy

>  <rmsd>  (86) 
1.6802252434763916

>  <m_score__min__rmsd>  (86) 
1.6802252434763916

>  <meeko>  (86) 
{"free_energy": -8.05, "intermolecular_energy": -9.84, "internal_energy": -1.67, "cluster_size": 22, "cluster_id": 1, "rank_in_cluster": 6}

>  <energy>  (86) 
-7.78

>  <cluster_rmsd>  (86) 
0.38

>  <cluster>  (86) 
3

$$$$

     RDKit          3D

 52 55  0  0  0  0  0  0  0  0999 V2000
  141.4210   72.5160  221.8270 O   0  0  0  0  0  0  0  0  0  0  0  0
  140.4080   72.5840  222.5690 C   0  0  0  0  0  0  0  0  0  0  0  0
  139.4330   73.6250  222.3410 N   0  0  0  0  0  0  0  0  0  0  0  0
  139.5320   74.6080  221.3200 C   0  0  0  0  0  0  0  0  0  0  0  0
  140.3540   75.7840  221.4210 C   0  0  0  0  0  0  0  0  0  0  0  0
  141.6510   75.4800  221.4200 O   0  0  0  0  0  0  0  0  0  0  0  0
  140.1170   77.1480  221.5130 N   0  0  0  0  0  0  0  0  0  0  0  0
  139.1380   77.8450  222.3440 C   0  0  0  0  0  0  0  0  0  0  0  0
  139.8530   78.9190  223.1440 C   0  0  0  0  0  0  0  0  0  0  0  0
  141.3490   78.7300  223.1070 C   0  0  0  0  0  0  0  0  0  0  0  0
  141.8400   78.7490  221.6980 C   0  0  0  0  0  0  0  0  0  0  0  0
  140.9180   78.1210  220.7300 C   0  0  1  0  0  0  0  0  0  0  0  0
  141.4440   77.6210  219.4810 C   0  0  0  0  0  0  0  0  0  0  0  0
  140.7760   77.5270  218.2830 C   0  0  0  0  0  0  0  0  0  0  0  0
  141.3250   77.0100  217.1320 C   0  0  0  0  0  0  0  0  0  0  0  0
  142.6190   76.5450  217.1310 C   0  0  0  0  0  0  0  0  0  0  0  0
  143.2440   76.0110  216.0240 O   0  0  0  0  0  0  0  0  0  0  0  0
  143.3140   76.6260  218.3190 C   0  0  0  0  0  0  0  0  0  0  0  0
  142.7650   77.1440  219.4710 C   0  0  0  0  0  0  0  0  0  0  0  0
  140.2250   71.6090  223.6550 C   0  0  0  0  0  0  0  0  0  0  0  0
  139.5750   70.4310  223.3930 C   0  0  0  0  0  0  0  0  0  0  0  0
  139.4150   69.5260  224.4370 C   0  0  0  0  0  0  0  0  0  0  0  0
  139.8960   69.7960  225.7140 C   0  0  0  0  0  0  0  0  0  0  0  0
  139.7460   68.9100  226.7620 C   0  0  0  0  0  0  0  0  0  0  0  0
  140.2490   69.2530  227.9880 C   0  0  0  0  0  0  0  0  0  0  0  0
  140.1250   68.4090  229.0530 F   0  0  0  0  0  0  0  0  0  0  0  0
  140.8950   70.4620  228.1770 C   0  0  0  0  0  0  0  0  0  0  0  0
  141.0620   71.3770  227.1410 C   0  0  0  0  0  0  0  0  0  0  0  0
  140.5420   70.9970  225.9180 C   0  0  0  0  0  0  0  0  0  0  0  0
  140.6880   71.8620  224.8960 N   0  0  0  0  0  0  0  0  0  0  0  0
  138.6180   73.5820  223.0290 H   0  0  0  0  0  0  0  0  0  0  0  0
  139.8810   74.0746  220.4235 H   0  0  0  0  0  0  0  0  0  0  0  0
  138.5250   75.0495  221.3522 H   0  0  0  0  0  0  0  0  0  0  0  0
  138.3727   78.3084  221.7040 H   0  0  0  0  0  0  0  0  0  0  0  0
  138.6511   77.1323  223.0259 H   0  0  0  0  0  0  0  0  0  0  0  0
  139.6063   79.9040  222.7209 H   0  0  0  0  0  0  0  0  0  0  0  0
  139.5214   78.8489  224.1905 H   0  0  0  0  0  0  0  0  0  0  0  0
  141.8312   79.5427  223.6700 H   0  0  0  0  0  0  0  0  0  0  0  0
  141.5976   77.7584  223.5589 H   0  0  0  0  0  0  0  0  0  0  0  0
  141.9932   79.7966  221.3996 H   0  0  0  0  0  0  0  0  0  0  0  0
  142.7697   78.1614  221.6779 H   0  0  0  0  0  0  0  0  0  0  0  0
  140.2990   78.9170  220.2904 H   0  0  0  0  0  0  0  0  0  0  0  0
  139.7376   77.8877  218.2421 H   0  0  0  0  0  0  0  0  0  0  0  0
  140.7268   76.9686  216.2098 H   0  0  0  0  0  0  0  0  0  0  0  0
  143.5950   76.6180  215.2830 H   0  0  0  0  0  0  0  0  0  0  0  0
  144.3514   76.2613  218.3480 H   0  0  0  0  0  0  0  0  0  0  0  0
  143.3663   77.1845  220.3912 H   0  0  0  0  0  0  0  0  0  0  0  0
  139.1911   70.2079  222.3866 H   0  0  0  0  0  0  0  0  0  0  0  0
  138.8960   68.5746  224.2484 H   0  0  0  0  0  0  0  0  0  0  0  0
  139.2329   67.9482  226.6149 H   0  0  0  0  0  0  0  0  0  0  0  0
  141.2880   70.7073  229.1747 H   0  0  0  0  0  0  0  0  0  0  0  0
  141.5743   72.3395  227.2863 H   0  0  0  0  0  0  0  0  0  0  0  0
  1  2  2  0
  2  3  1  0
  3  4  1  0
  4  5  1  0
  5  6  2  0
  5  7  1  0
  7  8  1  0
  8  9  1  0
  9 10  1  0
 10 11  1  0
 11 12  1  0
 12 13  1  0
 13 14  2  0
 14 15  1  0
 15 16  2  0
 16 17  1  0
 16 18  1  0
 18 19  2  0
  2 20  1  0
 20 21  2  0
 21 22  1  0
 22 23  2  0
 23 24  1  0
 24 25  2  0
 25 26  1  0
 25 27  1  0
 27 28  2  0
 28 29  1  0
 29 30  2  0
 12  7  1  0
 19 13  1  0
 30 20  1  0
 29 23  1  0
  3 31  1  0
  4 32  1  0
  4 33  1  0
  8 34  1  0
  8 35  1  0
  9 36  1  0
  9 37  1  0
 10 38  1  0
 10 39  1  0
 11 40  1  0
 11 41  1  0
 12 42  1  6
 14 43  1  0
 15 44  1  0
 17 45  1  0
 18 46  1  0
 19 47  1  0
 21 48  1  0
 22 49  1  0
 24 50  1  0
 27 51  1  0
 28 52  1  0
M  END
>  <smiles>  (87) 
O=C(NCC(=O)N1CCCCC1c1ccc(O)cc1)c1ccc2cc(F)ccc2n1

>  <score_type>  (87) 
oracle

>  <origin>  (87) 
autodockgpu

>  <m_score__min__energy>  (87) 
-8.4199999999999999

>  <m_primary>  (87) 
energy

>  <rmsd>  (87) 
2.950525068990842

>  <m_score__min__rmsd>  (87) 
2.950525068990842

>  <meeko>  (87) 
{"free_energy": -7.87, "intermolecular_energy": -9.66, "internal_energy": -1.16, "cluster_size": 10, "cluster_id": 2, "rank_in_cluster": 5}

>  <energy>  (87) 
-7.41

>  <cluster_rmsd>  (87) 
1.06

>  <cluster>  (87) 
3

$$$$

     RDKit          3D

 52 55  0  0  0  0  0  0  0  0999 V2000
  139.4570   71.1520  221.3660 O   0  0  0  0  0  0  0  0  0  0  0  0
  139.5570   71.6340  222.5230 C   0  0  0  0  0  0  0  0  0  0  0  0
  139.5730   73.0690  222.6920 N   0  0  0  0  0  0  0  0  0  0  0  0
  139.4880   74.0040  221.6260 C   0  0  0  0  0  0  0  0  0  0  0  0
  140.0860   75.3110  221.6600 C   0  0  0  0  0  0  0  0  0  0  0  0
  141.3780   75.2540  221.9820 O   0  0  0  0  0  0  0  0  0  0  0  0
  139.6410   76.6060  221.4340 N   0  0  0  0  0  0  0  0  0  0  0  0
  138.3570   77.1990  221.7970 C   0  0  0  0  0  0  0  0  0  0  0  0
  138.6120   78.4810  222.5720 C   0  0  0  0  0  0  0  0  0  0  0  0
  140.0500   78.5770  223.0180 C   0  0  0  0  0  0  0  0  0  0  0  0
  140.9640   78.5160  221.8410 C   0  0  0  0  0  0  0  0  0  0  0  0
  140.5060   77.6110  220.7690 C   0  0  1  0  0  0  0  0  0  0  0  0
  141.4760   77.0710  219.8440 C   0  0  0  0  0  0  0  0  0  0  0  0
  142.8050   76.8200  220.0940 C   0  0  0  0  0  0  0  0  0  0  0  0
  143.6880   76.3340  219.1570 C   0  0  0  0  0  0  0  0  0  0  0  0
  143.2620   76.0660  217.8780 C   0  0  0  0  0  0  0  0  0  0  0  0
  144.0800   75.5790  216.8810 O   0  0  0  0  0  0  0  0  0  0  0  0
  141.9340   76.3080  217.5970 C   0  0  0  0  0  0  0  0  0  0  0  0
  141.0500   76.7950  218.5350 C   0  0  0  0  0  0  0  0  0  0  0  0
  139.6540   70.7400  223.6860 C   0  0  0  0  0  0  0  0  0  0  0  0
  139.1820   69.4570  223.5850 C   0  0  0  0  0  0  0  0  0  0  0  0
  139.2850   68.6320  224.6990 C   0  0  0  0  0  0  0  0  0  0  0  0
  139.8510   69.0820  225.8880 C   0  0  0  0  0  0  0  0  0  0  0  0
  139.9610   68.2760  227.0040 C   0  0  0  0  0  0  0  0  0  0  0  0
  140.5300   68.7980  228.1350 C   0  0  0  0  0  0  0  0  0  0  0  0
  140.6620   68.0400  229.2620 F   0  0  0  0  0  0  0  0  0  0  0  0
  140.9860   70.1050  228.1630 C   0  0  0  0  0  0  0  0  0  0  0  0
  140.8880   70.9420  227.0550 C   0  0  0  0  0  0  0  0  0  0  0  0
  140.3080   70.3810  225.9310 C   0  0  0  0  0  0  0  0  0  0  0  0
  140.1990   71.1670  224.8430 N   0  0  0  0  0  0  0  0  0  0  0  0
  139.6590   73.3600  223.7150 H   0  0  0  0  0  0  0  0  0  0  0  0
  139.9213   73.4993  220.7499 H   0  0  0  0  0  0  0  0  0  0  0  0
  138.4185   74.2597  221.6535 H   0  0  0  0  0  0  0  0  0  0  0  0
  137.7835   77.4254  220.8861 H   0  0  0  0  0  0  0  0  0  0  0  0
  137.7819   76.4954  222.4168 H   0  0  0  0  0  0  0  0  0  0  0  0
  138.3789   79.3414  221.9275 H   0  0  0  0  0  0  0  0  0  0  0  0
  137.9713   78.4786  223.4662 H   0  0  0  0  0  0  0  0  0  0  0  0
  140.2028   79.5294  223.5467 H   0  0  0  0  0  0  0  0  0  0  0  0
  140.2733   77.7333  223.6876 H   0  0  0  0  0  0  0  0  0  0  0  0
  141.0560   79.5290  221.4222 H   0  0  0  0  0  0  0  0  0  0  0  0
  141.9229   78.1179  222.2042 H   0  0  0  0  0  0  0  0  0  0  0  0
  139.9565   78.2149  220.0319 H   0  0  0  0  0  0  0  0  0  0  0  0
  143.1859   77.0203  221.1063 H   0  0  0  0  0  0  0  0  0  0  0  0
  144.7385   76.1594  219.4326 H   0  0  0  0  0  0  0  0  0  0  0  0
  145.0900   75.5350  217.0130 H   0  0  0  0  0  0  0  0  0  0  0  0
  141.5647   76.1037  216.5812 H   0  0  0  0  0  0  0  0  0  0  0  0
  140.0004   76.9692  218.2556 H   0  0  0  0  0  0  0  0  0  0  0  0
  138.7346   69.0908  222.6492 H   0  0  0  0  0  0  0  0  0  0  0  0
  138.9104   67.5995  224.6393 H   0  0  0  0  0  0  0  0  0  0  0  0
  139.5994   67.2373  226.9849 H   0  0  0  0  0  0  0  0  0  0  0  0
  141.4387   70.4932  229.0873 H   0  0  0  0  0  0  0  0  0  0  0  0
  141.2481   71.9813  227.0719 H   0  0  0  0  0  0  0  0  0  0  0  0
  1  2  2  0
  2  3  1  0
  3  4  1  0
  4  5  1  0
  5  6  2  0
  5  7  1  0
  7  8  1  0
  8  9  1  0
  9 10  1  0
 10 11  1  0
 11 12  1  0
 12 13  1  0
 13 14  2  0
 14 15  1  0
 15 16  2  0
 16 17  1  0
 16 18  1  0
 18 19  2  0
  2 20  1  0
 20 21  2  0
 21 22  1  0
 22 23  2  0
 23 24  1  0
 24 25  2  0
 25 26  1  0
 25 27  1  0
 27 28  2  0
 28 29  1  0
 29 30  2  0
 12  7  1  0
 19 13  1  0
 30 20  1  0
 29 23  1  0
  3 31  1  0
  4 32  1  0
  4 33  1  0
  8 34  1  0
  8 35  1  0
  9 36  1  0
  9 37  1  0
 10 38  1  0
 10 39  1  0
 11 40  1  0
 11 41  1  0
 12 42  1  6
 14 43  1  0
 15 44  1  0
 17 45  1  0
 18 46  1  0
 19 47  1  0
 21 48  1  0
 22 49  1  0
 24 50  1  0
 27 51  1  0
 28 52  1  0
M  END
>  <smiles>  (88) 
O=C(NCC(=O)N1CCCCC1c1ccc(O)cc1)c1ccc2cc(F)ccc2n1

>  <score_type>  (88) 
oracle

>  <origin>  (88) 
autodockgpu

>  <m_score__min__energy>  (88) 
-8.4199999999999999

>  <m_primary>  (88) 
energy

>  <rmsd>  (88) 
2.607004300604122

>  <m_score__min__rmsd>  (88) 
2.607004300604122

>  <meeko>  (88) 
{"free_energy": -7.75, "intermolecular_energy": -9.54, "internal_energy": -1.38, "cluster_size": 10, "cluster_id": 2, "rank_in_cluster": 8}

>  <energy>  (88) 
-7.14

>  <cluster_rmsd>  (88) 
1.84

>  <cluster>  (88) 
3

$$$$

     RDKit          3D

 52 55  0  0  0  0  0  0  0  0999 V2000
  140.4790   71.7650  221.0360 O   0  0  0  0  0  0  0  0  0  0  0  0
  140.1180   72.2500  222.1380 C   0  0  0  0  0  0  0  0  0  0  0  0
  139.7410   73.6440  222.2070 N   0  0  0  0  0  0  0  0  0  0  0  0
  139.7500   74.5330  221.1000 C   0  0  0  0  0  0  0  0  0  0  0  0
  140.8550   74.6620  220.1880 C   0  0  0  0  0  0  0  0  0  0  0  0
  140.4440   74.9610  218.9570 O   0  0  0  0  0  0  0  0  0  0  0  0
  142.2340   74.5550  220.2880 N   0  0  0  0  0  0  0  0  0  0  0  0
  143.0210   73.4560  220.8430 C   0  0  0  0  0  0  0  0  0  0  0  0
  144.0550   73.0270  219.8160 C   0  0  0  0  0  0  0  0  0  0  0  0
  143.7520   73.6050  218.4560 C   0  0  0  0  0  0  0  0  0  0  0  0
  143.7040   75.0950  218.5230 C   0  0  0  0  0  0  0  0  0  0  0  0
  143.1280   75.6230  219.7760 C   0  0  1  0  0  0  0  0  0  0  0  0
  142.5630   76.9530  219.7830 C   0  0  0  0  0  0  0  0  0  0  0  0
  141.8770   77.5520  220.8130 C   0  0  0  0  0  0  0  0  0  0  0  0
  141.3330   78.8150  220.7470 C   0  0  0  0  0  0  0  0  0  0  0  0
  141.4570   79.5620  219.5990 C   0  0  0  0  0  0  0  0  0  0  0  0
  140.9420   80.8310  219.4480 O   0  0  0  0  0  0  0  0  0  0  0  0
  142.1390   78.9860  218.5480 C   0  0  0  0  0  0  0  0  0  0  0  0
  142.6840   77.7220  218.6150 C   0  0  0  0  0  0  0  0  0  0  0  0
  140.0820   71.4020  223.3390 C   0  0  0  0  0  0  0  0  0  0  0  0
  139.5490   70.1420  223.2510 C   0  0  0  0  0  0  0  0  0  0  0  0
  139.5270   69.3600  224.4010 C   0  0  0  0  0  0  0  0  0  0  0  0
  140.0280   69.8300  225.6110 C   0  0  0  0  0  0  0  0  0  0  0  0
  140.0130   69.0680  226.7620 C   0  0  0  0  0  0  0  0  0  0  0  0
  140.5250   69.6070  227.9120 C   0  0  0  0  0  0  0  0  0  0  0  0
  140.5330   68.8920  229.0730 F   0  0  0  0  0  0  0  0  0  0  0  0
  141.0480   70.8890  227.9230 C   0  0  0  0  0  0  0  0  0  0  0  0
  141.0760   71.6830  226.7800 C   0  0  0  0  0  0  0  0  0  0  0  0
  140.5510   71.1050  225.6380 C   0  0  0  0  0  0  0  0  0  0  0  0
  140.5640   71.8490  224.5150 N   0  0  0  0  0  0  0  0  0  0  0  0
  139.4520   73.9410  223.1900 H   0  0  0  0  0  0  0  0  0  0  0  0
  138.8838   74.2518  220.4831 H   0  0  0  0  0  0  0  0  0  0  0  0
  139.7816   75.5069  221.6104 H   0  0  0  0  0  0  0  0  0  0  0  0
  143.5277   73.7905  221.7603 H   0  0  0  0  0  0  0  0  0  0  0  0
  142.3618   72.6096  221.0858 H   0  0  0  0  0  0  0  0  0  0  0  0
  145.0470   73.3749  220.1399 H   0  0  0  0  0  0  0  0  0  0  0  0
  144.0323   71.9299  219.7390 H   0  0  0  0  0  0  0  0  0  0  0  0
  144.5372   73.2991  217.7490 H   0  0  0  0  0  0  0  0  0  0  0  0
  142.7738   73.2312  218.1193 H   0  0  0  0  0  0  0  0  0  0  0  0
  144.7304   75.4786  218.4258 H   0  0  0  0  0  0  0  0  0  0  0  0
  143.0472   75.4287  217.7061 H   0  0  0  0  0  0  0  0  0  0  0  0
  143.9594   75.8392  220.4631 H   0  0  0  0  0  0  0  0  0  0  0  0
  141.7551   76.9866  221.7487 H   0  0  0  0  0  0  0  0  0  0  0  0
  140.7977   79.2277  221.6148 H   0  0  0  0  0  0  0  0  0  0  0  0
  140.9270   81.4820  220.2340 H   0  0  0  0  0  0  0  0  0  0  0  0
  142.2529   79.5599  217.6165 H   0  0  0  0  0  0  0  0  0  0  0  0
  143.2186   77.3121  217.7454 H   0  0  0  0  0  0  0  0  0  0  0  0
  139.1506   69.7608  222.2992 H   0  0  0  0  0  0  0  0  0  0  0  0
  139.1035   68.3459  224.3528 H   0  0  0  0  0  0  0  0  0  0  0  0
  139.5984   68.0491  226.7555 H   0  0  0  0  0  0  0  0  0  0  0  0
  141.4534   71.2920  228.8628 H   0  0  0  0  0  0  0  0  0  0  0  0
  141.4884   72.7028  226.7845 H   0  0  0  0  0  0  0  0  0  0  0  0
  1  2  2  0
  2  3  1  0
  3  4  1  0
  4  5  1  0
  5  6  2  0
  5  7  1  0
  7  8  1  0
  8  9  1  0
  9 10  1  0
 10 11  1  0
 11 12  1  0
 12 13  1  0
 13 14  2  0
 14 15  1  0
 15 16  2  0
 16 17  1  0
 16 18  1  0
 18 19  2  0
  2 20  1  0
 20 21  2  0
 21 22  1  0
 22 23  2  0
 23 24  1  0
 24 25  2  0
 25 26  1  0
 25 27  1  0
 27 28  2  0
 28 29  1  0
 29 30  2  0
 12  7  1  0
 19 13  1  0
 30 20  1  0
 29 23  1  0
  3 31  1  0
  4 32  1  0
  4 33  1  0
  8 34  1  0
  8 35  1  0
  9 36  1  0
  9 37  1  0
 10 38  1  0
 10 39  1  0
 11 40  1  0
 11 41  1  0
 12 42  1  1
 14 43  1  0
 15 44  1  0
 17 45  1  0
 18 46  1  0
 19 47  1  0
 21 48  1  0
 22 49  1  0
 24 50  1  0
 27 51  1  0
 28 52  1  0
M  END
>  <smiles>  (89) 
O=C(NCC(=O)N1CCCCC1c1ccc(O)cc1)c1ccc2cc(F)ccc2n1

>  <score_type>  (89) 
oracle

>  <origin>  (89) 
autodockgpu

>  <m_score__min__energy>  (89) 
-8.4199999999999999

>  <m_primary>  (89) 
energy

>  <rmsd>  (89) 
2.6781383844455364

>  <m_score__min__rmsd>  (89) 
2.6781383844455364

>  <meeko>  (89) 
{"free_energy": -7.14, "intermolecular_energy": -8.93, "internal_energy": -1.57, "cluster_size": 6, "cluster_id": 3, "rank_in_cluster": 6}

>  <energy>  (89) 
-7.49

>  <cluster_rmsd>  (89) 
0.0

>  <cluster>  (89) 
4

$$$$

     RDKit          3D

 52 55  0  0  0  0  0  0  0  0999 V2000
  139.1650   74.9210  222.0570 O   0  0  0  0  0  0  0  0  0  0  0  0
  140.3240   75.3230  221.7830 C   0  0  0  0  0  0  0  0  0  0  0  0
  140.6130   76.7380  221.8340 N   0  0  0  0  0  0  0  0  0  0  0  0
  139.6630   77.7380  222.1720 C   0  0  0  0  0  0  0  0  0  0  0  0
  139.7790   79.1160  221.7760 C   0  0  0  0  0  0  0  0  0  0  0  0
  138.8560   79.4490  220.8750 O   0  0  0  0  0  0  0  0  0  0  0  0
  140.6140   80.1720  222.1110 N   0  0  0  0  0  0  0  0  0  0  0  0
  140.3950   81.2220  223.1040 C   0  0  0  0  0  0  0  0  0  0  0  0
  141.5960   81.2750  224.0320 C   0  0  0  0  0  0  0  0  0  0  0  0
  142.4660   80.0520  223.8770 C   0  0  0  0  0  0  0  0  0  0  0  0
  142.9330   79.9230  222.4660 C   0  0  0  0  0  0  0  0  0  0  0  0
  141.9370   80.3430  221.4610 C   0  0  1  0  0  0  0  0  0  0  0  0
  142.0320   79.8210  220.1160 C   0  0  0  0  0  0  0  0  0  0  0  0
  142.1580   78.5010  219.7500 C   0  0  0  0  0  0  0  0  0  0  0  0
  142.2770   78.0700  218.4490 C   0  0  0  0  0  0  0  0  0  0  0  0
  142.2760   78.9770  217.4160 C   0  0  0  0  0  0  0  0  0  0  0  0
  142.3920   78.6300  216.0870 O   0  0  0  0  0  0  0  0  0  0  0  0
  142.1520   80.3090  217.7530 C   0  0  0  0  0  0  0  0  0  0  0  0
  142.0320   80.7410  219.0560 C   0  0  0  0  0  0  0  0  0  0  0  0
  141.3710   74.3560  221.4180 C   0  0  0  0  0  0  0  0  0  0  0  0
  141.0680   73.0190  221.3960 C   0  0  0  0  0  0  0  0  0  0  0  0
  142.0760   72.1260  221.0480 C   0  0  0  0  0  0  0  0  0  0  0  0
  143.3570   72.5630  220.7280 C   0  0  0  0  0  0  0  0  0  0  0  0
  144.3680   71.6900  220.3810 C   0  0  0  0  0  0  0  0  0  0  0  0
  145.6030   72.2030  220.0820 C   0  0  0  0  0  0  0  0  0  0  0  0
  146.6330   71.3800  219.7320 F   0  0  0  0  0  0  0  0  0  0  0  0
  145.8340   73.5670  220.1250 C   0  0  0  0  0  0  0  0  0  0  0  0
  144.8350   74.4720  220.4730 C   0  0  0  0  0  0  0  0  0  0  0  0
  143.6030   73.9180  220.7680 C   0  0  0  0  0  0  0  0  0  0  0  0
  142.6160   74.7690  221.1080 N   0  0  0  0  0  0  0  0  0  0  0  0
  141.6270   76.9580  221.5850 H   0  0  0  0  0  0  0  0  0  0  0  0
  138.7028   77.3890  221.7643 H   0  0  0  0  0  0  0  0  0  0  0  0
  139.8146   77.8160  223.2587 H   0  0  0  0  0  0  0  0  0  0  0  0
  140.2760   82.1911  222.5974 H   0  0  0  0  0  0  0  0  0  0  0  0
  139.4846   81.0059  223.6824 H   0  0  0  0  0  0  0  0  0  0  0  0
  142.1910   82.1697  223.7965 H   0  0  0  0  0  0  0  0  0  0  0  0
  141.2308   81.3109  225.0690 H   0  0  0  0  0  0  0  0  0  0  0  0
  143.3384   80.1410  224.5411 H   0  0  0  0  0  0  0  0  0  0  0  0
  141.8793   79.1601  224.1422 H   0  0  0  0  0  0  0  0  0  0  0  0
  143.8324   80.5440  222.3416 H   0  0  0  0  0  0  0  0  0  0  0  0
  143.1275   78.8543  222.2926 H   0  0  0  0  0  0  0  0  0  0  0  0
  142.1451   81.3914  221.2010 H   0  0  0  0  0  0  0  0  0  0  0  0
  142.1640   77.7430  220.5471 H   0  0  0  0  0  0  0  0  0  0  0  0
  142.3733   76.9954  218.2345 H   0  0  0  0  0  0  0  0  0  0  0  0
  143.1240   79.0370  215.5060 H   0  0  0  0  0  0  0  0  0  0  0  0
  142.1488   81.0580  216.9474 H   0  0  0  0  0  0  0  0  0  0  0  0
  141.9354   81.8162  219.2672 H   0  0  0  0  0  0  0  0  0  0  0  0
  140.0577   72.6631  221.6461 H   0  0  0  0  0  0  0  0  0  0  0  0
  141.8548   71.0487  221.0254 H   0  0  0  0  0  0  0  0  0  0  0  0
  144.1863   70.6057  220.3452 H   0  0  0  0  0  0  0  0  0  0  0  0
  146.8360   73.9470  219.8770 H   0  0  0  0  0  0  0  0  0  0  0  0
  145.0141   75.5567  220.5108 H   0  0  0  0  0  0  0  0  0  0  0  0
  1  2  2  0
  2  3  1  0
  3  4  1  0
  4  5  1  0
  5  6  2  0
  5  7  1  0
  7  8  1  0
  8  9  1  0
  9 10  1  0
 10 11  1  0
 11 12  1  0
 12 13  1  0
 13 14  2  0
 14 15  1  0
 15 16  2  0
 16 17  1  0
 16 18  1  0
 18 19  2  0
  2 20  1  0
 20 21  2  0
 21 22  1  0
 22 23  2  0
 23 24  1  0
 24 25  2  0
 25 26  1  0
 25 27  1  0
 27 28  2  0
 28 29  1  0
 29 30  2  0
 12  7  1  0
 19 13  1  0
 30 20  1  0
 29 23  1  0
  3 31  1  0
  4 32  1  0
  4 33  1  0
  8 34  1  0
  8 35  1  0
  9 36  1  0
  9 37  1  0
 10 38  1  0
 10 39  1  0
 11 40  1  0
 11 41  1  0
 12 42  1  6
 14 43  1  0
 15 44  1  0
 17 45  1  0
 18 46  1  0
 19 47  1  0
 21 48  1  0
 22 49  1  0
 24 50  1  0
 27 51  1  0
 28 52  1  0
M  END
>  <smiles>  (90) 
O=C(NCC(=O)N1CCCCC1c1ccc(O)cc1)c1ccc2cc(F)ccc2n1

>  <score_type>  (90) 
oracle

>  <origin>  (90) 
autodockgpu

>  <m_score__min__energy>  (90) 
-8.4199999999999999

>  <m_primary>  (90) 
energy

>  <rmsd>  (90) 
6.799337431016386

>  <m_score__min__rmsd>  (90) 
6.799337431016386

>  <meeko>  (90) 
{"free_energy": -7.12, "intermolecular_energy": -8.91, "internal_energy": -1.93, "cluster_size": 7, "cluster_id": 4, "rank_in_cluster": 4}

>  <energy>  (90) 
-7.39

>  <cluster_rmsd>  (90) 
0.25

>  <cluster>  (90) 
4

$$$$

     RDKit          3D

 52 55  0  0  0  0  0  0  0  0999 V2000
  138.2270   71.8890  222.1040 O   0  0  0  0  0  0  0  0  0  0  0  0
  139.3640   71.3800  222.2760 C   0  0  0  0  0  0  0  0  0  0  0  0
  140.2300   71.1790  221.1370 N   0  0  0  0  0  0  0  0  0  0  0  0
  139.8870   71.5150  219.8000 C   0  0  0  0  0  0  0  0  0  0  0  0
  140.1060   72.8130  219.2210 C   0  0  0  0  0  0  0  0  0  0  0  0
  140.3360   72.7360  217.9110 O   0  0  0  0  0  0  0  0  0  0  0  0
  140.1300   74.1160  219.6990 N   0  0  0  0  0  0  0  0  0  0  0  0
  139.1720   75.1900  219.4520 C   0  0  0  0  0  0  0  0  0  0  0  0
  138.7230   75.7610  220.7860 C   0  0  0  0  0  0  0  0  0  0  0  0
  139.1170   74.8610  221.9310 C   0  0  0  0  0  0  0  0  0  0  0  0
  140.5950   74.6580  221.9480 C   0  0  0  0  0  0  0  0  0  0  0  0
  141.2080   74.5810  220.6070 C   0  0  1  0  0  0  0  0  0  0  0  0
  142.4760   73.9070  220.4520 C   0  0  0  0  0  0  0  0  0  0  0  0
  142.7890   72.6320  220.8630 C   0  0  0  0  0  0  0  0  0  0  0  0
  144.0300   72.0560  220.7150 C   0  0  0  0  0  0  0  0  0  0  0  0
  145.0530   72.7600  220.1250 C   0  0  0  0  0  0  0  0  0  0  0  0
  146.3240   72.2590  219.9390 O   0  0  0  0  0  0  0  0  0  0  0  0
  144.7700   74.0420  219.7030 C   0  0  0  0  0  0  0  0  0  0  0  0
  143.5270   74.6180  219.8510 C   0  0  0  0  0  0  0  0  0  0  0  0
  139.8010   70.9980  223.6280 C   0  0  0  0  0  0  0  0  0  0  0  0
  140.5390   71.8860  224.3680 C   0  0  0  0  0  0  0  0  0  0  0  0
  140.9400   71.5000  225.6420 C   0  0  0  0  0  0  0  0  0  0  0  0
  140.6080   70.2530  226.1640 C   0  0  0  0  0  0  0  0  0  0  0  0
  140.9980   69.8540  227.4260 C   0  0  0  0  0  0  0  0  0  0  0  0
  140.6300   68.6100  227.8630 C   0  0  0  0  0  0  0  0  0  0  0  0
  140.9910   68.1720  229.1030 F   0  0  0  0  0  0  0  0  0  0  0  0
  139.8830   67.7670  227.0580 C   0  0  0  0  0  0  0  0  0  0  0  0
  139.4750   68.1400  225.7810 C   0  0  0  0  0  0  0  0  0  0  0  0
  139.8650   69.4030  225.3740 C   0  0  0  0  0  0  0  0  0  0  0  0
  139.4850   69.7930  224.1410 N   0  0  0  0  0  0  0  0  0  0  0  0
  141.1660   70.7450  221.4060 H   0  0  0  0  0  0  0  0  0  0  0  0
  140.4365   70.8064  219.1629 H   0  0  0  0  0  0  0  0  0  0  0  0
  138.7885   71.4880  219.8500 H   0  0  0  0  0  0  0  0  0  0  0  0
  139.6485   75.9801  218.8531 H   0  0  0  0  0  0  0  0  0  0  0  0
  138.3040   74.7977  218.9019 H   0  0  0  0  0  0  0  0  0  0  0  0
  139.1899   76.7467  220.9286 H   0  0  0  0  0  0  0  0  0  0  0  0
  137.6264   75.8463  220.7744 H   0  0  0  0  0  0  0  0  0  0  0  0
  138.8036   75.3224  222.8791 H   0  0  0  0  0  0  0  0  0  0  0  0
  138.6243   73.8857  221.8042 H   0  0  0  0  0  0  0  0  0  0  0  0
  141.0530   75.4988  222.4895 H   0  0  0  0  0  0  0  0  0  0  0  0
  140.7767   73.6891  222.4361 H   0  0  0  0  0  0  0  0  0  0  0  0
  141.5719   75.5857  220.3459 H   0  0  0  0  0  0  0  0  0  0  0  0
  141.9975   72.0354  221.3400 H   0  0  0  0  0  0  0  0  0  0  0  0
  144.2040   71.0294  221.0697 H   0  0  0  0  0  0  0  0  0  0  0  0
  146.6830   71.5170  220.5390 H   0  0  0  0  0  0  0  0  0  0  0  0
  145.5699   74.6293  219.2284 H   0  0  0  0  0  0  0  0  0  0  0  0
  143.3565   75.6447  219.4949 H   0  0  0  0  0  0  0  0  0  0  0  0
  140.8058   72.8743  223.9655 H   0  0  0  0  0  0  0  0  0  0  0  0
  141.5338   72.1966  226.2520 H   0  0  0  0  0  0  0  0  0  0  0  0
  141.5921   70.5215  228.0674 H   0  0  0  0  0  0  0  0  0  0  0  0
  139.6039   66.7735  227.4389 H   0  0  0  0  0  0  0  0  0  0  0  0
  138.8813   67.4741  225.1375 H   0  0  0  0  0  0  0  0  0  0  0  0
  1  2  2  0
  2  3  1  0
  3  4  1  0
  4  5  1  0
  5  6  2  0
  5  7  1  0
  7  8  1  0
  8  9  1  0
  9 10  1  0
 10 11  1  0
 11 12  1  0
 12 13  1  0
 13 14  2  0
 14 15  1  0
 15 16  2  0
 16 17  1  0
 16 18  1  0
 18 19  2  0
  2 20  1  0
 20 21  2  0
 21 22  1  0
 22 23  2  0
 23 24  1  0
 24 25  2  0
 25 26  1  0
 25 27  1  0
 27 28  2  0
 28 29  1  0
 29 30  2  0
 12  7  1  0
 19 13  1  0
 30 20  1  0
 29 23  1  0
  3 31  1  0
  4 32  1  0
  4 33  1  0
  8 34  1  0
  8 35  1  0
  9 36  1  0
  9 37  1  0
 10 38  1  0
 10 39  1  0
 11 40  1  0
 11 41  1  0
 12 42  1  6
 14 43  1  0
 15 44  1  0
 17 45  1  0
 18 46  1  0
 19 47  1  0
 21 48  1  0
 22 49  1  0
 24 50  1  0
 27 51  1  0
 28 52  1  0
M  END
>  <smiles>  (91) 
O=C(NCC(=O)N1CCCCC1c1ccc(O)cc1)c1ccc2cc(F)ccc2n1

>  <score_type>  (91) 
oracle

>  <origin>  (91) 
autodockgpu

>  <m_score__min__energy>  (91) 
-8.4199999999999999

>  <m_primary>  (91) 
energy

>  <rmsd>  (91) 
3.3544180075849654

>  <m_score__min__rmsd>  (91) 
3.3544180075849654

>  <meeko>  (91) 
{"free_energy": -7.01, "intermolecular_energy": -8.8, "internal_energy": -1.86, "cluster_size": 22, "cluster_id": 1, "rank_in_cluster": 20}

>  <energy>  (91) 
-7.19

>  <cluster_rmsd>  (91) 
0.45

>  <cluster>  (91) 
4

$$$$

     RDKit          3D

 52 55  0  0  0  0  0  0  0  0999 V2000
  139.2200   74.7380  221.7240 O   0  0  0  0  0  0  0  0  0  0  0  0
  140.4250   75.0860  221.6420 C   0  0  0  0  0  0  0  0  0  0  0  0
  140.7900   76.4500  221.9500 N   0  0  0  0  0  0  0  0  0  0  0  0
  139.8700   77.4570  222.3440 C   0  0  0  0  0  0  0  0  0  0  0  0
  139.8800   78.7970  221.8230 C   0  0  0  0  0  0  0  0  0  0  0  0
  138.9730   78.9590  220.8610 O   0  0  0  0  0  0  0  0  0  0  0  0
  140.6020   79.9530  222.0860 N   0  0  0  0  0  0  0  0  0  0  0  0
  140.2760   81.0340  223.0130 C   0  0  0  0  0  0  0  0  0  0  0  0
  141.4660   81.2680  223.9280 C   0  0  0  0  0  0  0  0  0  0  0  0
  142.4580   80.1350  223.8420 C   0  0  0  0  0  0  0  0  0  0  0  0
  142.9350   79.9670  222.4390 C   0  0  0  0  0  0  0  0  0  0  0  0
  141.8990   80.2180  221.4170 C   0  0  1  0  0  0  0  0  0  0  0  0
  142.0470   79.6260  220.1070 C   0  0  0  0  0  0  0  0  0  0  0  0
  142.1760   78.2880  219.8150 C   0  0  0  0  0  0  0  0  0  0  0  0
  142.3470   77.7880  218.5440 C   0  0  0  0  0  0  0  0  0  0  0  0
  142.3980   78.6400  217.4670 C   0  0  0  0  0  0  0  0  0  0  0  0
  142.5670   78.2240  216.1640 O   0  0  0  0  0  0  0  0  0  0  0  0
  142.2710   79.9890  217.7280 C   0  0  0  0  0  0  0  0  0  0  0  0
  142.1000   80.4890  219.0010 C   0  0  0  0  0  0  0  0  0  0  0  0
  141.4470   74.1090  221.2360 C   0  0  0  0  0  0  0  0  0  0  0  0
  141.0950   72.7900  221.1050 C   0  0  0  0  0  0  0  0  0  0  0  0
  142.0800   71.8860  220.7210 C   0  0  0  0  0  0  0  0  0  0  0  0
  143.3870   72.2950  220.4730 C   0  0  0  0  0  0  0  0  0  0  0  0
  144.3760   71.4120  220.0910 C   0  0  0  0  0  0  0  0  0  0  0  0
  145.6370   71.8970  219.8670 C   0  0  0  0  0  0  0  0  0  0  0  0
  146.6470   71.0620  219.4870 F   0  0  0  0  0  0  0  0  0  0  0  0
  145.9170   73.2440  220.0190 C   0  0  0  0  0  0  0  0  0  0  0  0
  144.9410   74.1590  220.4030 C   0  0  0  0  0  0  0  0  0  0  0  0
  143.6810   73.6340  220.6210 C   0  0  0  0  0  0  0  0  0  0  0  0
  142.7150   74.4950  220.9940 N   0  0  0  0  0  0  0  0  0  0  0  0
  141.8370   76.6270  221.8470 H   0  0  0  0  0  0  0  0  0  0  0  0
  138.8714   77.0553  222.1173 H   0  0  0  0  0  0  0  0  0  0  0  0
  140.1810   77.6323  223.3845 H   0  0  0  0  0  0  0  0  0  0  0  0
  140.0573   81.9523  222.4483 H   0  0  0  0  0  0  0  0  0  0  0  0
  139.3929   80.7619  223.6097 H   0  0  0  0  0  0  0  0  0  0  0  0
  141.9648   82.2034  223.6342 H   0  0  0  0  0  0  0  0  0  0  0  0
  141.0996   81.3293  224.9634 H   0  0  0  0  0  0  0  0  0  0  0  0
  143.3170   80.3551  224.4929 H   0  0  0  0  0  0  0  0  0  0  0  0
  141.9669   79.2054  224.1656 H   0  0  0  0  0  0  0  0  0  0  0  0
  143.7648   80.6689  222.2696 H   0  0  0  0  0  0  0  0  0  0  0  0
  143.2399   78.9156  222.3308 H   0  0  0  0  0  0  0  0  0  0  0  0
  141.9962   81.2640  221.0906 H   0  0  0  0  0  0  0  0  0  0  0  0
  142.1402   77.5726  220.6498 H   0  0  0  0  0  0  0  0  0  0  0  0
  142.4431   76.7031  218.3899 H   0  0  0  0  0  0  0  0  0  0  0  0
  143.3030   78.6230  215.5820 H   0  0  0  0  0  0  0  0  0  0  0  0
  142.3077   80.6947  216.8850 H   0  0  0  0  0  0  0  0  0  0  0  0
  142.0042   81.5744  219.1518 H   0  0  0  0  0  0  0  0  0  0  0  0
  140.0645   72.4569  221.2978 H   0  0  0  0  0  0  0  0  0  0  0  0
  141.8198   70.8229  220.6107 H   0  0  0  0  0  0  0  0  0  0  0  0
  144.1563   70.3411  219.9690 H   0  0  0  0  0  0  0  0  0  0  0  0
  146.9401   73.6016  219.8309 H   0  0  0  0  0  0  0  0  0  0  0  0
  145.1582   75.2304  220.5251 H   0  0  0  0  0  0  0  0  0  0  0  0
  1  2  2  0
  2  3  1  0
  3  4  1  0
  4  5  1  0
  5  6  2  0
  5  7  1  0
  7  8  1  0
  8  9  1  0
  9 10  1  0
 10 11  1  0
 11 12  1  0
 12 13  1  0
 13 14  2  0
 14 15  1  0
 15 16  2  0
 16 17  1  0
 16 18  1  0
 18 19  2  0
  2 20  1  0
 20 21  2  0
 21 22  1  0
 22 23  2  0
 23 24  1  0
 24 25  2  0
 25 26  1  0
 25 27  1  0
 27 28  2  0
 28 29  1  0
 29 30  2  0
 12  7  1  0
 19 13  1  0
 30 20  1  0
 29 23  1  0
  3 31  1  0
  4 32  1  0
  4 33  1  0
  8 34  1  0
  8 35  1  0
  9 36  1  0
  9 37  1  0
 10 38  1  0
 10 39  1  0
 11 40  1  0
 11 41  1  0
 12 42  1  6
 14 43  1  0
 15 44  1  0
 17 45  1  0
 18 46  1  0
 19 47  1  0
 21 48  1  0
 22 49  1  0
 24 50  1  0
 27 51  1  0
 28 52  1  0
M  END
>  <smiles>  (92) 
O=C(NCC(=O)N1CCCCC1c1ccc(O)cc1)c1ccc2cc(F)ccc2n1

>  <score_type>  (92) 
oracle

>  <origin>  (92) 
autodockgpu

>  <m_score__min__energy>  (92) 
-8.4199999999999999

>  <m_primary>  (92) 
energy

>  <rmsd>  (92) 
6.745463788757395

>  <m_score__min__rmsd>  (92) 
6.745463788757395

>  <meeko>  (92) 
{"free_energy": -7.39, "intermolecular_energy": -9.18, "internal_energy": -1.88, "cluster_size": 7, "cluster_id": 4, "rank_in_cluster": 2}

>  <energy>  (92) 
-7.12

>  <cluster_rmsd>  (92) 
0.48

>  <cluster>  (92) 
4

$$$$

     RDKit          3D

 52 55  0  0  0  0  0  0  0  0999 V2000
  138.9220   70.6000  221.2380 O   0  0  0  0  0  0  0  0  0  0  0  0
  139.5600   71.0660  222.2150 C   0  0  0  0  0  0  0  0  0  0  0  0
  140.2140   72.3490  222.0870 N   0  0  0  0  0  0  0  0  0  0  0  0
  140.1970   73.1440  220.9110 C   0  0  0  0  0  0  0  0  0  0  0  0
  140.8180   74.4370  220.8110 C   0  0  0  0  0  0  0  0  0  0  0  0
  141.3560   74.8150  221.9690 O   0  0  0  0  0  0  0  0  0  0  0  0
  140.9910   75.3730  219.8020 N   0  0  0  0  0  0  0  0  0  0  0  0
  139.9680   76.0920  219.0460 C   0  0  0  0  0  0  0  0  0  0  0  0
  140.2610   77.5800  219.1200 C   0  0  0  0  0  0  0  0  0  0  0  0
  141.2780   77.8890  220.1900 C   0  0  0  0  0  0  0  0  0  0  0  0
  142.5450   77.1440  219.9340 C   0  0  0  0  0  0  0  0  0  0  0  0
  142.3460   75.7940  219.3680 C   0  0  1  0  0  0  0  0  0  0  0  0
  143.3820   74.8010  219.5390 C   0  0  0  0  0  0  0  0  0  0  0  0
  144.4350   74.8510  220.4220 C   0  0  0  0  0  0  0  0  0  0  0  0
  145.4110   73.8850  220.5140 C   0  0  0  0  0  0  0  0  0  0  0  0
  145.3740   72.7830  219.6920 C   0  0  0  0  0  0  0  0  0  0  0  0
  146.3100   71.7720  219.7180 O   0  0  0  0  0  0  0  0  0  0  0  0
  144.3290   72.7070  218.7950 C   0  0  0  0  0  0  0  0  0  0  0  0
  143.3520   73.6740  218.7030 C   0  0  0  0  0  0  0  0  0  0  0  0
  139.6350   70.3090  223.4740 C   0  0  0  0  0  0  0  0  0  0  0  0
  139.0890   69.0520  223.5310 C   0  0  0  0  0  0  0  0  0  0  0  0
  139.1720   68.3570  224.7320 C   0  0  0  0  0  0  0  0  0  0  0  0
  139.7900   68.9070  225.8510 C   0  0  0  0  0  0  0  0  0  0  0  0
  139.8810   68.2310  227.0500 C   0  0  0  0  0  0  0  0  0  0  0  0
  140.5060   68.8460  228.1030 C   0  0  0  0  0  0  0  0  0  0  0  0
  140.6210   68.2170  229.3080 F   0  0  0  0  0  0  0  0  0  0  0  0
  141.0340   70.1180  227.9700 C   0  0  0  0  0  0  0  0  0  0  0  0
  140.9570   70.8260  226.7740 C   0  0  0  0  0  0  0  0  0  0  0  0
  140.3210   70.1740  225.7340 C   0  0  0  0  0  0  0  0  0  0  0  0
  140.2300   70.8340  224.5630 N   0  0  0  0  0  0  0  0  0  0  0  0
  140.7210   72.6410  222.9790 H   0  0  0  0  0  0  0  0  0  0  0  0
  140.6607   72.5279  220.1266 H   0  0  0  0  0  0  0  0  0  0  0  0
  139.1326   73.4157  220.8547 H   0  0  0  0  0  0  0  0  0  0  0  0
  139.9847   75.7636  217.9963 H   0  0  0  0  0  0  0  0  0  0  0  0
  138.9746   75.8849  219.4705 H   0  0  0  0  0  0  0  0  0  0  0  0
  140.6509   77.9166  218.1480 H   0  0  0  0  0  0  0  0  0  0  0  0
  139.3267   78.1044  219.3691 H   0  0  0  0  0  0  0  0  0  0  0  0
  141.4865   78.9691  220.1908 H   0  0  0  0  0  0  0  0  0  0  0  0
  140.8740   77.5812  221.1658 H   0  0  0  0  0  0  0  0  0  0  0  0
  143.1531   77.7286  219.2280 H   0  0  0  0  0  0  0  0  0  0  0  0
  143.0374   77.0104  220.9086 H   0  0  0  0  0  0  0  0  0  0  0  0
  142.4309   75.8726  218.2741 H   0  0  0  0  0  0  0  0  0  0  0  0
  144.5014   75.7171  221.0969 H   0  0  0  0  0  0  0  0  0  0  0  0
  146.2234   73.9947  221.2475 H   0  0  0  0  0  0  0  0  0  0  0  0
  146.4470   71.2120  220.5600 H   0  0  0  0  0  0  0  0  0  0  0  0
  144.2733   71.8369  218.1243 H   0  0  0  0  0  0  0  0  0  0  0  0
  142.5414   73.5618  217.9680 H   0  0  0  0  0  0  0  0  0  0  0  0
  138.5998   68.6069  222.6520 H   0  0  0  0  0  0  0  0  0  0  0  0
  138.7388   67.3481  224.7995 H   0  0  0  0  0  0  0  0  0  0  0  0
  139.4609   67.2202  227.1585 H   0  0  0  0  0  0  0  0  0  0  0  0
  141.5292   70.5835  228.8349 H   0  0  0  0  0  0  0  0  0  0  0  0
  141.3747   71.8376  226.6637 H   0  0  0  0  0  0  0  0  0  0  0  0
  1  2  2  0
  2  3  1  0
  3  4  1  0
  4  5  1  0
  5  6  2  0
  5  7  1  0
  7  8  1  0
  8  9  1  0
  9 10  1  0
 10 11  1  0
 11 12  1  0
 12 13  1  0
 13 14  2  0
 14 15  1  0
 15 16  2  0
 16 17  1  0
 16 18  1  0
 18 19  2  0
  2 20  1  0
 20 21  2  0
 21 22  1  0
 22 23  2  0
 23 24  1  0
 24 25  2  0
 25 26  1  0
 25 27  1  0
 27 28  2  0
 28 29  1  0
 29 30  2  0
 12  7  1  0
 19 13  1  0
 30 20  1  0
 29 23  1  0
  3 31  1  0
  4 32  1  0
  4 33  1  0
  8 34  1  0
  8 35  1  0
  9 36  1  0
  9 37  1  0
 10 38  1  0
 10 39  1  0
 11 40  1  0
 11 41  1  0
 12 42  1  6
 14 43  1  0
 15 44  1  0
 17 45  1  0
 18 46  1  0
 19 47  1  0
 21 48  1  0
 22 49  1  0
 24 50  1  0
 27 51  1  0
 28 52  1  0
M  END
>  <smiles>  (93) 
O=C(NCC(=O)N1CCCCC1c1ccc(O)cc1)c1ccc2cc(F)ccc2n1

>  <score_type>  (93) 
oracle

>  <origin>  (93) 
autodockgpu

>  <m_score__min__energy>  (93) 
-8.4199999999999999

>  <m_primary>  (93) 
energy

>  <rmsd>  (93) 
1.7562619374998545

>  <m_score__min__rmsd>  (93) 
1.7562619374998545

>  <meeko>  (93) 
{"free_energy": -7.9, "intermolecular_energy": -9.69, "internal_energy": -1.84, "cluster_size": 22, "cluster_id": 1, "rank_in_cluster": 11}

>  <energy>  (93) 
-6.99

>  <cluster_rmsd>  (93) 
0.51

>  <cluster>  (93) 
4

$$$$

     RDKit          3D

 52 55  0  0  0  0  0  0  0  0999 V2000
  139.2840   72.0440  220.8440 O   0  0  0  0  0  0  0  0  0  0  0  0
  139.9670   72.3220  221.8620 C   0  0  0  0  0  0  0  0  0  0  0  0
  140.9320   73.3960  221.7950 N   0  0  0  0  0  0  0  0  0  0  0  0
  141.1800   74.1800  220.6370 C   0  0  0  0  0  0  0  0  0  0  0  0
  140.5330   75.4360  220.3690 C   0  0  0  0  0  0  0  0  0  0  0  0
  141.3630   76.3050  219.7940 O   0  0  0  0  0  0  0  0  0  0  0  0
  139.2590   75.9510  220.5620 N   0  0  0  0  0  0  0  0  0  0  0  0
  138.0130   75.5560  219.9080 C   0  0  0  0  0  0  0  0  0  0  0  0
  136.9760   75.2520  220.9760 C   0  0  0  0  0  0  0  0  0  0  0  0
  137.6110   75.1180  222.3380 C   0  0  0  0  0  0  0  0  0  0  0  0
  138.3420   76.3680  222.6950 C   0  0  0  0  0  0  0  0  0  0  0  0
  139.0050   77.0260  221.5520 C   0  0  1  0  0  0  0  0  0  0  0  0
  140.1220   77.9080  221.8000 C   0  0  0  0  0  0  0  0  0  0  0  0
  140.6540   78.8320  220.9310 C   0  0  0  0  0  0  0  0  0  0  0  0
  141.7430   79.6230  221.2160 C   0  0  0  0  0  0  0  0  0  0  0  0
  142.3740   79.5190  222.4340 C   0  0  0  0  0  0  0  0  0  0  0  0
  143.4690   80.2710  222.7990 O   0  0  0  0  0  0  0  0  0  0  0  0
  141.8630   78.6000  223.3270 C   0  0  0  0  0  0  0  0  0  0  0  0
  140.7720   77.8090  223.0410 C   0  0  0  0  0  0  0  0  0  0  0  0
  139.7790   71.5590  223.1050 C   0  0  0  0  0  0  0  0  0  0  0  0
  138.9050   70.5020  223.1150 C   0  0  0  0  0  0  0  0  0  0  0  0
  138.7450   69.7970  224.3030 C   0  0  0  0  0  0  0  0  0  0  0  0
  139.4460   70.1410  225.4540 C   0  0  0  0  0  0  0  0  0  0  0  0
  139.3000   69.4530  226.6410 C   0  0  0  0  0  0  0  0  0  0  0  0
  140.0270   69.8580  227.7280 C   0  0  0  0  0  0  0  0  0  0  0  0
  139.9170   69.2070  228.9220 F   0  0  0  0  0  0  0  0  0  0  0  0
  140.8920   70.9350  227.6420 C   0  0  0  0  0  0  0  0  0  0  0  0
  141.0620   71.6500  226.4600 C   0  0  0  0  0  0  0  0  0  0  0  0
  140.3110   71.2130  225.3840 C   0  0  0  0  0  0  0  0  0  0  0  0
  140.4530   71.8850  224.2250 N   0  0  0  0  0  0  0  0  0  0  0  0
  141.4480   73.5410  222.7170 H   0  0  0  0  0  0  0  0  0  0  0  0
  142.2588   74.3949  220.6463 H   0  0  0  0  0  0  0  0  0  0  0  0
  140.7420   73.5446  219.8532 H   0  0  0  0  0  0  0  0  0  0  0  0
  137.6553   76.3758  219.2677 H   0  0  0  0  0  0  0  0  0  0  0  0
  138.1828   74.6644  219.2866 H   0  0  0  0  0  0  0  0  0  0  0  0
  136.2401   76.0691  221.0031 H   0  0  0  0  0  0  0  0  0  0  0  0
  136.4905   74.2974  220.7251 H   0  0  0  0  0  0  0  0  0  0  0  0
  136.8273   74.9299  223.0866 H   0  0  0  0  0  0  0  0  0  0  0  0
  138.3237   74.2804  222.3190 H   0  0  0  0  0  0  0  0  0  0  0  0
  137.6224   77.0763  223.1314 H   0  0  0  0  0  0  0  0  0  0  0  0
  139.1362   76.0806  223.3998 H   0  0  0  0  0  0  0  0  0  0  0  0
  138.3221   77.7981  221.1679 H   0  0  0  0  0  0  0  0  0  0  0  0
  140.1786   78.9457  219.9456 H   0  0  0  0  0  0  0  0  0  0  0  0
  142.1102   80.3408  220.4677 H   0  0  0  0  0  0  0  0  0  0  0  0
  144.3740   80.1220  222.3530 H   0  0  0  0  0  0  0  0  0  0  0  0
  142.3472   78.4943  224.3090 H   0  0  0  0  0  0  0  0  0  0  0  0
  140.4065   77.0930  223.7918 H   0  0  0  0  0  0  0  0  0  0  0  0
  138.3470   70.2202  222.2099 H   0  0  0  0  0  0  0  0  0  0  0  0
  138.0474   68.9470  224.3331 H   0  0  0  0  0  0  0  0  0  0  0  0
  138.6135   68.5965  226.7125 H   0  0  0  0  0  0  0  0  0  0  0  0
  141.4618   71.2347  228.5339 H   0  0  0  0  0  0  0  0  0  0  0  0
  141.7485   72.5063  226.3865 H   0  0  0  0  0  0  0  0  0  0  0  0
  1  2  2  0
  2  3  1  0
  3  4  1  0
  4  5  1  0
  5  6  2  0
  5  7  1  0
  7  8  1  0
  8  9  1  0
  9 10  1  0
 10 11  1  0
 11 12  1  0
 12 13  1  0
 13 14  2  0
 14 15  1  0
 15 16  2  0
 16 17  1  0
 16 18  1  0
 18 19  2  0
  2 20  1  0
 20 21  2  0
 21 22  1  0
 22 23  2  0
 23 24  1  0
 24 25  2  0
 25 26  1  0
 25 27  1  0
 27 28  2  0
 28 29  1  0
 29 30  2  0
 12  7  1  0
 19 13  1  0
 30 20  1  0
 29 23  1  0
  3 31  1  0
  4 32  1  0
  4 33  1  0
  8 34  1  0
  8 35  1  0
  9 36  1  0
  9 37  1  0
 10 38  1  0
 10 39  1  0
 11 40  1  0
 11 41  1  0
 12 42  1  6
 14 43  1  0
 15 44  1  0
 17 45  1  0
 18 46  1  0
 19 47  1  0
 21 48  1  0
 22 49  1  0
 24 50  1  0
 27 51  1  0
 28 52  1  0
M  END
>  <smiles>  (94) 
O=C(NCC(=O)N1CCCCC1c1ccc(O)cc1)c1ccc2cc(F)ccc2n1

>  <score_type>  (94) 
oracle

>  <origin>  (94) 
autodockgpu

>  <m_score__min__energy>  (94) 
-8.4199999999999999

>  <m_primary>  (94) 
energy

>  <rmsd>  (94) 
2.8713140827546297

>  <m_score__min__rmsd>  (94) 
2.8713140827546297

>  <meeko>  (94) 
{"free_energy": -6.93, "intermolecular_energy": -8.72, "internal_energy": -1.98, "cluster_size": 1, "cluster_id": 5, "rank_in_cluster": 1}

>  <energy>  (94) 
-6.61

>  <cluster_rmsd>  (94) 
1.08

>  <cluster>  (94) 
4

$$$$

     RDKit          3D

 52 55  0  0  0  0  0  0  0  0999 V2000
  138.6020   72.3710  222.3690 O   0  0  0  0  0  0  0  0  0  0  0  0
  139.6810   71.8070  222.6800 C   0  0  0  0  0  0  0  0  0  0  0  0
  140.8640   72.0550  221.8870 N   0  0  0  0  0  0  0  0  0  0  0  0
  140.9040   72.9040  220.7500 C   0  0  0  0  0  0  0  0  0  0  0  0
  140.7720   74.3350  220.8170 C   0  0  0  0  0  0  0  0  0  0  0  0
  140.4900   74.7470  222.0520 O   0  0  0  0  0  0  0  0  0  0  0  0
  140.8740   75.3780  219.9080 N   0  0  0  0  0  0  0  0  0  0  0  0
  139.8010   76.1700  219.3120 C   0  0  0  0  0  0  0  0  0  0  0  0
  140.1010   77.6430  219.5290 C   0  0  0  0  0  0  0  0  0  0  0  0
  141.1930   77.8370  220.5520 C   0  0  0  0  0  0  0  0  0  0  0  0
  142.4370   77.1330  220.1240 C   0  0  0  0  0  0  0  0  0  0  0  0
  142.1950   75.8530  219.4280 C   0  0  1  0  0  0  0  0  0  0  0  0
  143.2390   74.8540  219.4120 C   0  0  0  0  0  0  0  0  0  0  0  0
  143.3920   73.8350  218.5010 C   0  0  0  0  0  0  0  0  0  0  0  0
  144.3930   72.8920  218.5590 C   0  0  0  0  0  0  0  0  0  0  0  0
  145.3210   72.9300  219.5730 C   0  0  0  0  0  0  0  0  0  0  0  0
  146.3530   72.0260  219.7050 O   0  0  0  0  0  0  0  0  0  0  0  0
  145.1930   73.9410  220.5020 C   0  0  0  0  0  0  0  0  0  0  0  0
  144.1910   74.8850  220.4430 C   0  0  0  0  0  0  0  0  0  0  0  0
  139.7320   70.9070  223.8420 C   0  0  0  0  0  0  0  0  0  0  0  0
  139.1640   69.6620  223.7480 C   0  0  0  0  0  0  0  0  0  0  0  0
  139.2260   68.8300  224.8610 C   0  0  0  0  0  0  0  0  0  0  0  0
  139.8430   69.2350  226.0400 C   0  0  0  0  0  0  0  0  0  0  0  0
  139.9120   68.4220  227.1530 C   0  0  0  0  0  0  0  0  0  0  0  0
  140.5370   68.8990  228.2750 C   0  0  0  0  0  0  0  0  0  0  0  0
  140.6310   68.1320  229.3990 F   0  0  0  0  0  0  0  0  0  0  0  0
  141.0880   70.1680  228.2950 C   0  0  0  0  0  0  0  0  0  0  0  0
  141.0340   71.0120  227.1890 C   0  0  0  0  0  0  0  0  0  0  0  0
  140.3960   70.4970  226.0760 C   0  0  0  0  0  0  0  0  0  0  0  0
  140.3270   71.2900  224.9890 N   0  0  0  0  0  0  0  0  0  0  0  0
  141.7170   71.5250  222.2470 H   0  0  0  0  0  0  0  0  0  0  0  0
  141.8750   72.7149  220.2690 H   0  0  0  0  0  0  0  0  0  0  0  0
  139.9663   72.6277  220.2457 H   0  0  0  0  0  0  0  0  0  0  0  0
  139.7414   75.9598  218.2339 H   0  0  0  0  0  0  0  0  0  0  0  0
  138.8405   75.9112  219.7815 H   0  0  0  0  0  0  0  0  0  0  0  0
  140.4211   78.0875  218.5751 H   0  0  0  0  0  0  0  0  0  0  0  0
  139.1879   78.1315  219.9001 H   0  0  0  0  0  0  0  0  0  0  0  0
  141.4030   78.9115  220.6588 H   0  0  0  0  0  0  0  0  0  0  0  0
  140.8595   77.4198  221.5137 H   0  0  0  0  0  0  0  0  0  0  0  0
  142.9932   77.7960  219.4449 H   0  0  0  0  0  0  0  0  0  0  0  0
  142.9988   76.8957  221.0395 H   0  0  0  0  0  0  0  0  0  0  0  0
  142.2007   76.0529  218.3463 H   0  0  0  0  0  0  0  0  0  0  0  0
  142.6692   73.7695  217.6744 H   0  0  0  0  0  0  0  0  0  0  0  0
  144.4508   72.1057  217.7919 H   0  0  0  0  0  0  0  0  0  0  0  0
  146.4540   71.4740  220.5570 H   0  0  0  0  0  0  0  0  0  0  0  0
  145.9212   73.9962  221.3246 H   0  0  0  0  0  0  0  0  0  0  0  0
  144.1366   75.6704  221.2112 H   0  0  0  0  0  0  0  0  0  0  0  0
  138.6741   69.3314  222.8202 H   0  0  0  0  0  0  0  0  0  0  0  0
  138.7762   67.8276  224.8075 H   0  0  0  0  0  0  0  0  0  0  0  0
  139.4746   67.4128  227.1396 H   0  0  0  0  0  0  0  0  0  0  0  0
  141.5833   70.5205  229.2117 H   0  0  0  0  0  0  0  0  0  0  0  0
  141.4701   72.0218  227.2001 H   0  0  0  0  0  0  0  0  0  0  0  0
  1  2  2  0
  2  3  1  0
  3  4  1  0
  4  5  1  0
  5  6  2  0
  5  7  1  0
  7  8  1  0
  8  9  1  0
  9 10  1  0
 10 11  1  0
 11 12  1  0
 12 13  1  0
 13 14  2  0
 14 15  1  0
 15 16  2  0
 16 17  1  0
 16 18  1  0
 18 19  2  0
  2 20  1  0
 20 21  2  0
 21 22  1  0
 22 23  2  0
 23 24  1  0
 24 25  2  0
 25 26  1  0
 25 27  1  0
 27 28  2  0
 28 29  1  0
 29 30  2  0
 12  7  1  0
 19 13  1  0
 30 20  1  0
 29 23  1  0
  3 31  1  0
  4 32  1  0
  4 33  1  0
  8 34  1  0
  8 35  1  0
  9 36  1  0
  9 37  1  0
 10 38  1  0
 10 39  1  0
 11 40  1  0
 11 41  1  0
 12 42  1  6
 14 43  1  0
 15 44  1  0
 17 45  1  0
 18 46  1  0
 19 47  1  0
 21 48  1  0
 22 49  1  0
 24 50  1  0
 27 51  1  0
 28 52  1  0
M  END
>  <smiles>  (95) 
O=C(NCC(=O)N1CCCCC1c1ccc(O)cc1)c1ccc2cc(F)ccc2n1

>  <score_type>  (95) 
oracle

>  <origin>  (95) 
autodockgpu

>  <m_score__min__energy>  (95) 
-8.4199999999999999

>  <m_primary>  (95) 
energy

>  <rmsd>  (95) 
2.0356350550394295

>  <m_score__min__rmsd>  (95) 
2.0356350550394295

>  <meeko>  (95) 
{"free_energy": -8.42, "intermolecular_energy": -10.21, "internal_energy": -1.33, "cluster_size": 22, "cluster_id": 1, "rank_in_cluster": 1}

>  <energy>  (95) 
-6.34

>  <cluster_rmsd>  (95) 
1.03

>  <cluster>  (95) 
4

$$$$

     RDKit          3D

 52 55  0  0  0  0  0  0  0  0999 V2000
  141.3180   72.4190  221.9170 O   0  0  0  0  0  0  0  0  0  0  0  0
  140.2530   72.3370  222.5790 C   0  0  0  0  0  0  0  0  0  0  0  0
  139.1280   73.1670  222.2140 N   0  0  0  0  0  0  0  0  0  0  0  0
  139.1320   74.0970  221.1410 C   0  0  0  0  0  0  0  0  0  0  0  0
  140.0950   75.1560  221.0050 C   0  0  0  0  0  0  0  0  0  0  0  0
  140.8700   75.2580  222.0840 O   0  0  0  0  0  0  0  0  0  0  0  0
  140.4090   76.0850  220.0230 N   0  0  0  0  0  0  0  0  0  0  0  0
  139.5140   77.0050  219.3260 C   0  0  0  0  0  0  0  0  0  0  0  0
  140.0740   78.4120  219.4410 C   0  0  0  0  0  0  0  0  0  0  0  0
  141.1580   78.4900  220.4870 C   0  0  0  0  0  0  0  0  0  0  0  0
  142.2610   77.5390  220.1640 C   0  0  0  0  0  0  0  0  0  0  0  0
  141.8060   76.2710  219.5600 C   0  0  1  0  0  0  0  0  0  0  0  0
  142.6490   75.1020  219.6620 C   0  0  0  0  0  0  0  0  0  0  0  0
  142.2910   73.8010  219.3930 C   0  0  0  0  0  0  0  0  0  0  0  0
  143.1340   72.7230  219.5420 C   0  0  0  0  0  0  0  0  0  0  0  0
  144.4230   72.9080  219.9830 C   0  0  0  0  0  0  0  0  0  0  0  0
  145.3300   71.8850  220.1590 O   0  0  0  0  0  0  0  0  0  0  0  0
  144.8100   74.2030  220.2610 C   0  0  0  0  0  0  0  0  0  0  0  0
  143.9660   75.2810  220.1120 C   0  0  0  0  0  0  0  0  0  0  0  0
  140.1600   71.4020  223.7100 C   0  0  0  0  0  0  0  0  0  0  0  0
  139.5750   70.1770  223.5190 C   0  0  0  0  0  0  0  0  0  0  0  0
  139.5000   69.3120  224.6050 C   0  0  0  0  0  0  0  0  0  0  0  0
  140.0000   69.6650  225.8540 C   0  0  0  0  0  0  0  0  0  0  0  0
  139.9330   68.8190  226.9420 C   0  0  0  0  0  0  0  0  0  0  0  0
  140.4500   69.2460  228.1370 C   0  0  0  0  0  0  0  0  0  0  0  0
  140.4080   68.4440  229.2400 F   0  0  0  0  0  0  0  0  0  0  0  0
  141.0270   70.4980  228.2540 C   0  0  0  0  0  0  0  0  0  0  0  0
  141.1090   71.3750  227.1760 C   0  0  0  0  0  0  0  0  0  0  0  0
  140.5780   70.9100  225.9860 C   0  0  0  0  0  0  0  0  0  0  0  0
  140.6420   71.7360  224.9240 N   0  0  0  0  0  0  0  0  0  0  0  0
  138.2810   73.0090  222.8440 H   0  0  0  0  0  0  0  0  0  0  0  0
  139.2170   73.4955  220.2239 H   0  0  0  0  0  0  0  0  0  0  0  0
  138.2168   74.6691  221.3533 H   0  0  0  0  0  0  0  0  0  0  0  0
  139.4435   76.7204  218.2658 H   0  0  0  0  0  0  0  0  0  0  0  0
  138.5108   76.9636  219.7753 H   0  0  0  0  0  0  0  0  0  0  0  0
  140.4928   78.7109  218.4688 H   0  0  0  0  0  0  0  0  0  0  0  0
  139.2572   79.0861  219.7385 H   0  0  0  0  0  0  0  0  0  0  0  0
  141.5593   79.5137  220.5176 H   0  0  0  0  0  0  0  0  0  0  0  0
  140.7307   78.2224  221.4647 H   0  0  0  0  0  0  0  0  0  0  0  0
  142.9462   78.0315  219.4583 H   0  0  0  0  0  0  0  0  0  0  0  0
  142.7461   77.2804  221.1168 H   0  0  0  0  0  0  0  0  0  0  0  0
  141.8751   76.3753  218.4671 H   0  0  0  0  0  0  0  0  0  0  0  0
  141.2678   73.6105  219.0368 H   0  0  0  0  0  0  0  0  0  0  0  0
  142.7751   71.7100  219.3074 H   0  0  0  0  0  0  0  0  0  0  0  0
  145.5970   71.5840  221.0970 H   0  0  0  0  0  0  0  0  0  0  0  0
  145.8355   74.3818  220.6165 H   0  0  0  0  0  0  0  0  0  0  0  0
  144.3279   76.2926  220.3481 H   0  0  0  0  0  0  0  0  0  0  0  0
  139.1767   69.8869  222.5355 H   0  0  0  0  0  0  0  0  0  0  0  0
  139.0339   68.3244  224.4732 H   0  0  0  0  0  0  0  0  0  0  0  0
  139.4744   67.8232  226.8520 H   0  0  0  0  0  0  0  0  0  0  0  0
  141.4330   70.8097  229.2277 H   0  0  0  0  0  0  0  0  0  0  0  0
  141.5657   72.3718  227.2644 H   0  0  0  0  0  0  0  0  0  0  0  0
  1  2  2  0
  2  3  1  0
  3  4  1  0
  4  5  1  0
  5  6  2  0
  5  7  1  0
  7  8  1  0
  8  9  1  0
  9 10  1  0
 10 11  1  0
 11 12  1  0
 12 13  1  0
 13 14  2  0
 14 15  1  0
 15 16  2  0
 16 17  1  0
 16 18  1  0
 18 19  2  0
  2 20  1  0
 20 21  2  0
 21 22  1  0
 22 23  2  0
 23 24  1  0
 24 25  2  0
 25 26  1  0
 25 27  1  0
 27 28  2  0
 28 29  1  0
 29 30  2  0
 12  7  1  0
 19 13  1  0
 30 20  1  0
 29 23  1  0
  3 31  1  0
  4 32  1  0
  4 33  1  0
  8 34  1  0
  8 35  1  0
  9 36  1  0
  9 37  1  0
 10 38  1  0
 10 39  1  0
 11 40  1  0
 11 41  1  0
 12 42  1  6
 14 43  1  0
 15 44  1  0
 17 45  1  0
 18 46  1  0
 19 47  1  0
 21 48  1  0
 22 49  1  0
 24 50  1  0
 27 51  1  0
 28 52  1  0
M  END
>  <smiles>  (96) 
O=C(NCC(=O)N1CCCCC1c1ccc(O)cc1)c1ccc2cc(F)ccc2n1

>  <score_type>  (96) 
oracle

>  <origin>  (96) 
autodockgpu

>  <m_score__min__energy>  (96) 
-8.4199999999999999

>  <m_primary>  (96) 
energy

>  <rmsd>  (96) 
1.8681814641193804

>  <m_score__min__rmsd>  (96) 
1.8681814641193804

>  <meeko>  (96) 
{"free_energy": -8.23, "intermolecular_energy": -10.02, "internal_energy": -1.43, "cluster_size": 22, "cluster_id": 1, "rank_in_cluster": 3}

>  <energy>  (96) 
-6.93

>  <cluster_rmsd>  (96) 
0.0

>  <cluster>  (96) 
5

$$$$

     RDKit          3D

 52 55  0  0  0  0  0  0  0  0999 V2000
  141.0190   71.5410  221.6260 O   0  0  0  0  0  0  0  0  0  0  0  0
  140.1480   71.7770  222.5010 C   0  0  0  0  0  0  0  0  0  0  0  0
  139.2460   72.8910  222.3180 N   0  0  0  0  0  0  0  0  0  0  0  0
  139.2690   73.7670  221.2000 C   0  0  0  0  0  0  0  0  0  0  0  0
  140.2490   74.8050  221.0190 C   0  0  0  0  0  0  0  0  0  0  0  0
  141.1690   74.7880  221.9820 O   0  0  0  0  0  0  0  0  0  0  0  0
  140.4630   75.8070  220.0830 N   0  0  0  0  0  0  0  0  0  0  0  0
  139.4800   76.6910  219.4600 C   0  0  0  0  0  0  0  0  0  0  0  0
  139.9340   78.1290  219.6400 C   0  0  0  0  0  0  0  0  0  0  0  0
  141.0370   78.2350  220.6640 C   0  0  0  0  0  0  0  0  0  0  0  0
  142.2010   77.3920  220.2630 C   0  0  0  0  0  0  0  0  0  0  0  0
  141.8280   76.1270  219.5990 C   0  0  1  0  0  0  0  0  0  0  0  0
  142.7610   75.0240  219.6160 C   0  0  0  0  0  0  0  0  0  0  0  0
  142.5220   73.7350  219.1970 C   0  0  0  0  0  0  0  0  0  0  0  0
  143.4460   72.7170  219.2700 C   0  0  0  0  0  0  0  0  0  0  0  0
  144.6990   72.9550  219.7840 C   0  0  0  0  0  0  0  0  0  0  0  0
  145.6810   71.9940  219.8930 O   0  0  0  0  0  0  0  0  0  0  0  0
  144.9670   74.2390  220.2120 C   0  0  0  0  0  0  0  0  0  0  0  0
  144.0420   75.2570  220.1400 C   0  0  0  0  0  0  0  0  0  0  0  0
  140.0530   70.9230  223.6940 C   0  0  0  0  0  0  0  0  0  0  0  0
  139.4460   69.6980  223.5930 C   0  0  0  0  0  0  0  0  0  0  0  0
  139.3690   68.9100  224.7370 C   0  0  0  0  0  0  0  0  0  0  0  0
  139.8900   69.3390  225.9530 C   0  0  0  0  0  0  0  0  0  0  0  0
  139.8220   68.5700  227.0970 C   0  0  0  0  0  0  0  0  0  0  0  0
  140.3590   69.0680  228.2540 C   0  0  0  0  0  0  0  0  0  0  0  0
  140.3160   68.3440  229.4100 F   0  0  0  0  0  0  0  0  0  0  0  0
  140.9570   70.3160  228.2800 C   0  0  0  0  0  0  0  0  0  0  0  0
  141.0410   71.1150  227.1430 C   0  0  0  0  0  0  0  0  0  0  0  0
  140.4890   70.5800  225.9940 C   0  0  0  0  0  0  0  0  0  0  0  0
  140.5530   71.3310  224.8780 N   0  0  0  0  0  0  0  0  0  0  0  0
  138.5510   72.9920  223.1210 H   0  0  0  0  0  0  0  0  0  0  0  0
  139.3507   73.1201  220.3141 H   0  0  0  0  0  0  0  0  0  0  0  0
  138.3605   74.3613  221.3771 H   0  0  0  0  0  0  0  0  0  0  0  0
  139.4012   76.4593  218.3876 H   0  0  0  0  0  0  0  0  0  0  0  0
  138.4960   76.5473  219.9303 H   0  0  0  0  0  0  0  0  0  0  0  0
  140.3025   78.5110  218.6765 H   0  0  0  0  0  0  0  0  0  0  0  0
  139.0765   78.7207  219.9929 H   0  0  0  0  0  0  0  0  0  0  0  0
  141.3590   79.2839  220.7428 H   0  0  0  0  0  0  0  0  0  0  0  0
  140.6582   77.8823  221.6346 H   0  0  0  0  0  0  0  0  0  0  0  0
  142.8271   77.9741  219.5708 H   0  0  0  0  0  0  0  0  0  0  0  0
  142.7304   77.1208  221.1883 H   0  0  0  0  0  0  0  0  0  0  0  0
  141.8582   76.2959  218.5125 H   0  0  0  0  0  0  0  0  0  0  0  0
  141.5316   73.5039  218.7779 H   0  0  0  0  0  0  0  0  0  0  0  0
  143.1810   71.7098  218.9160 H   0  0  0  0  0  0  0  0  0  0  0  0
  145.9090   71.5840  220.7990 H   0  0  0  0  0  0  0  0  0  0  0  0
  145.9612   74.4589  220.6282 H   0  0  0  0  0  0  0  0  0  0  0  0
  144.3099   76.2625  220.4967 H   0  0  0  0  0  0  0  0  0  0  0  0
  139.0320   69.3484  222.6357 H   0  0  0  0  0  0  0  0  0  0  0  0
  138.8845   67.9242  224.6783 H   0  0  0  0  0  0  0  0  0  0  0  0
  139.3466   67.5782  227.0797 H   0  0  0  0  0  0  0  0  0  0  0  0
  141.3779   70.6871  229.2261 H   0  0  0  0  0  0  0  0  0  0  0  0
  141.5156   72.1072  227.1579 H   0  0  0  0  0  0  0  0  0  0  0  0
  1  2  2  0
  2  3  1  0
  3  4  1  0
  4  5  1  0
  5  6  2  0
  5  7  1  0
  7  8  1  0
  8  9  1  0
  9 10  1  0
 10 11  1  0
 11 12  1  0
 12 13  1  0
 13 14  2  0
 14 15  1  0
 15 16  2  0
 16 17  1  0
 16 18  1  0
 18 19  2  0
  2 20  1  0
 20 21  2  0
 21 22  1  0
 22 23  2  0
 23 24  1  0
 24 25  2  0
 25 26  1  0
 25 27  1  0
 27 28  2  0
 28 29  1  0
 29 30  2  0
 12  7  1  0
 19 13  1  0
 30 20  1  0
 29 23  1  0
  3 31  1  0
  4 32  1  0
  4 33  1  0
  8 34  1  0
  8 35  1  0
  9 36  1  0
  9 37  1  0
 10 38  1  0
 10 39  1  0
 11 40  1  0
 11 41  1  0
 12 42  1  6
 14 43  1  0
 15 44  1  0
 17 45  1  0
 18 46  1  0
 19 47  1  0
 21 48  1  0
 22 49  1  0
 24 50  1  0
 27 51  1  0
 28 52  1  0
M  END
>  <smiles>  (97) 
O=C(NCC(=O)N1CCCCC1c1ccc(O)cc1)c1ccc2cc(F)ccc2n1

>  <score_type>  (97) 
oracle

>  <origin>  (97) 
autodockgpu

>  <m_score__min__energy>  (97) 
-8.4199999999999999

>  <m_primary>  (97) 
energy

>  <rmsd>  (97) 
1.7791334174248032

>  <m_score__min__rmsd>  (97) 
1.7791334174248032

>  <meeko>  (97) 
{"free_energy": -8.29, "intermolecular_energy": -10.08, "internal_energy": -1.38, "cluster_size": 22, "cluster_id": 1, "rank_in_cluster": 2}

>  <energy>  (97) 
-6.66

>  <cluster_rmsd>  (97) 
0.0

>  <cluster>  (97) 
6

$$$$

     RDKit          3D

 52 55  0  0  0  0  0  0  0  0999 V2000
  141.4220   72.1150  221.5010 O   0  0  0  0  0  0  0  0  0  0  0  0
  140.5940   72.4570  222.3830 C   0  0  0  0  0  0  0  0  0  0  0  0
  139.9320   73.7380  222.2740 N   0  0  0  0  0  0  0  0  0  0  0  0
  140.1530   74.6670  221.2230 C   0  0  0  0  0  0  0  0  0  0  0  0
  141.0280   75.8030  221.3320 C   0  0  0  0  0  0  0  0  0  0  0  0
  141.0760   76.2700  222.5790 O   0  0  0  0  0  0  0  0  0  0  0  0
  141.8300   76.5190  220.4550 N   0  0  0  0  0  0  0  0  0  0  0  0
  143.0090   76.0590  219.7240 C   0  0  0  0  0  0  0  0  0  0  0  0
  142.8230   76.3750  218.2490 C   0  0  0  0  0  0  0  0  0  0  0  0
  141.3920   76.7390  217.9410 C   0  0  0  0  0  0  0  0  0  0  0  0
  140.9660   77.9120  218.7580 C   0  0  0  0  0  0  0  0  0  0  0  0
  141.5330   77.9340  220.1220 C   0  0  1  0  0  0  0  0  0  0  0  0
  140.8500   78.6780  221.1540 C   0  0  0  0  0  0  0  0  0  0  0  0
  139.4900   78.7960  221.3250 C   0  0  0  0  0  0  0  0  0  0  0  0
  138.8990   79.5490  222.3130 C   0  0  0  0  0  0  0  0  0  0  0  0
  139.6740   80.2450  223.2100 C   0  0  0  0  0  0  0  0  0  0  0  0
  139.1640   81.0230  224.2270 O   0  0  0  0  0  0  0  0  0  0  0  0
  141.0420   80.1470  223.0640 C   0  0  0  0  0  0  0  0  0  0  0  0
  141.6340   79.3920  222.0740 C   0  0  0  0  0  0  0  0  0  0  0  0
  140.3060   71.5580  223.5100 C   0  0  0  0  0  0  0  0  0  0  0  0
  139.6090   70.4000  223.2800 C   0  0  0  0  0  0  0  0  0  0  0  0
  139.3500   69.5670  224.3630 C   0  0  0  0  0  0  0  0  0  0  0  0
  139.7810   69.8860  225.6470 C   0  0  0  0  0  0  0  0  0  0  0  0
  139.5320   69.0710  226.7330 C   0  0  0  0  0  0  0  0  0  0  0  0
  139.9920   69.4590  227.9630 C   0  0  0  0  0  0  0  0  0  0  0  0
  139.7710   68.6860  229.0650 F   0  0  0  0  0  0  0  0  0  0  0  0
  140.6910   70.6440  228.1180 C   0  0  0  0  0  0  0  0  0  0  0  0
  140.9570   71.4880  227.0430 C   0  0  0  0  0  0  0  0  0  0  0  0
  140.4780   71.0630  225.8170 C   0  0  0  0  0  0  0  0  0  0  0  0
  140.7190   71.8590  224.7570 N   0  0  0  0  0  0  0  0  0  0  0  0
  139.2530   73.9170  223.0760 H   0  0  0  0  0  0  0  0  0  0  0  0
  140.5330   74.0765  220.3763 H   0  0  0  0  0  0  0  0  0  0  0  0
  139.1714   75.1602  221.1662 H   0  0  0  0  0  0  0  0  0  0  0  0
  143.9037   76.5747  220.1029 H   0  0  0  0  0  0  0  0  0  0  0  0
  143.1355   74.9750  219.8616 H   0  0  0  0  0  0  0  0  0  0  0  0
  143.4734   77.2201  217.9791 H   0  0  0  0  0  0  0  0  0  0  0  0
  143.0856   75.4793  217.6670 H   0  0  0  0  0  0  0  0  0  0  0  0
  141.3035   76.9895  216.8736 H   0  0  0  0  0  0  0  0  0  0  0  0
  140.7460   75.8822  218.1832 H   0  0  0  0  0  0  0  0  0  0  0  0
  141.2816   78.8284  218.2378 H   0  0  0  0  0  0  0  0  0  0  0  0
  139.8739   77.8417  218.8692 H   0  0  0  0  0  0  0  0  0  0  0  0
  142.4380   78.5589  220.1001 H   0  0  0  0  0  0  0  0  0  0  0  0
  138.8339   78.2542  220.6279 H   0  0  0  0  0  0  0  0  0  0  0  0
  137.8023   79.5943  222.3855 H   0  0  0  0  0  0  0  0  0  0  0  0
  138.4000   81.6750  224.0490 H   0  0  0  0  0  0  0  0  0  0  0  0
  141.6876   80.6941  223.7668 H   0  0  0  0  0  0  0  0  0  0  0  0
  142.7309   79.3486  222.0043 H   0  0  0  0  0  0  0  0  0  0  0  0
  139.2648   70.1376  222.2687 H   0  0  0  0  0  0  0  0  0  0  0  0
  138.7911   68.6336  224.2007 H   0  0  0  0  0  0  0  0  0  0  0  0
  138.9757   68.1297  226.6128 H   0  0  0  0  0  0  0  0  0  0  0  0
  141.0466   70.9270  229.1197 H   0  0  0  0  0  0  0  0  0  0  0  0
  141.5115   72.4306  227.1610 H   0  0  0  0  0  0  0  0  0  0  0  0
  1  2  2  0
  2  3  1  0
  3  4  1  0
  4  5  1  0
  5  6  2  0
  5  7  1  0
  7  8  1  0
  8  9  1  0
  9 10  1  0
 10 11  1  0
 11 12  1  0
 12 13  1  0
 13 14  2  0
 14 15  1  0
 15 16  2  0
 16 17  1  0
 16 18  1  0
 18 19  2  0
  2 20  1  0
 20 21  2  0
 21 22  1  0
 22 23  2  0
 23 24  1  0
 24 25  2  0
 25 26  1  0
 25 27  1  0
 27 28  2  0
 28 29  1  0
 29 30  2  0
 12  7  1  0
 19 13  1  0
 30 20  1  0
 29 23  1  0
  3 31  1  0
  4 32  1  0
  4 33  1  0
  8 34  1  0
  8 35  1  0
  9 36  1  0
  9 37  1  0
 10 38  1  0
 10 39  1  0
 11 40  1  0
 11 41  1  0
 12 42  1  6
 14 43  1  0
 15 44  1  0
 17 45  1  0
 18 46  1  0
 19 47  1  0
 21 48  1  0
 22 49  1  0
 24 50  1  0
 27 51  1  0
 28 52  1  0
M  END
>  <smiles>  (98) 
O=C(NCC(=O)N1CCCCC1c1ccc(O)cc1)c1ccc2cc(F)ccc2n1

>  <score_type>  (98) 
oracle

>  <origin>  (98) 
autodockgpu

>  <m_score__min__energy>  (98) 
-8.4199999999999999

>  <m_primary>  (98) 
energy

>  <rmsd>  (98) 
2.1230862969575215

>  <m_score__min__rmsd>  (98) 
2.1230862969575215

>  <meeko>  (98) 
{"free_energy": -7.78, "intermolecular_energy": -9.57, "internal_energy": -1.27, "cluster_size": 6, "cluster_id": 3, "rank_in_cluster": 4}

>  <energy>  (98) 
-6.64

>  <cluster_rmsd>  (98) 
0.17

>  <cluster>  (98) 
6

$$$$

     RDKit          3D

 52 55  0  0  0  0  0  0  0  0999 V2000
  138.5160   71.4830  221.7680 O   0  0  0  0  0  0  0  0  0  0  0  0
  139.7040   71.3700  222.1640 C   0  0  0  0  0  0  0  0  0  0  0  0
  140.7850   71.6150  221.2370 N   0  0  0  0  0  0  0  0  0  0  0  0
  140.6080   71.9770  219.8750 C   0  0  0  0  0  0  0  0  0  0  0  0
  139.9040   73.1560  219.4480 C   0  0  0  0  0  0  0  0  0  0  0  0
  139.1220   72.9100  218.3980 O   0  0  0  0  0  0  0  0  0  0  0  0
  139.8440   74.4770  219.8700 N   0  0  0  0  0  0  0  0  0  0  0  0
  138.7130   75.4000  219.8020 C   0  0  0  0  0  0  0  0  0  0  0  0
  138.4770   75.9860  221.1830 C   0  0  0  0  0  0  0  0  0  0  0  0
  139.2240   75.2140  222.2430 C   0  0  0  0  0  0  0  0  0  0  0  0
  140.6860   75.2090  221.9490 C   0  0  0  0  0  0  0  0  0  0  0  0
  141.0100   75.1330  220.5100 C   0  0  1  0  0  0  0  0  0  0  0  0
  142.3000   74.6220  220.1070 C   0  0  0  0  0  0  0  0  0  0  0  0
  143.1320   73.8080  220.8410 C   0  0  0  0  0  0  0  0  0  0  0  0
  144.3680   73.3810  220.4120 C   0  0  0  0  0  0  0  0  0  0  0  0
  144.8440   73.7650  219.1810 C   0  0  0  0  0  0  0  0  0  0  0  0
  146.0690   73.3840  218.6770 O   0  0  0  0  0  0  0  0  0  0  0  0
  144.0320   74.5820  218.4230 C   0  0  0  0  0  0  0  0  0  0  0  0
  142.7950   75.0100  218.8520 C   0  0  0  0  0  0  0  0  0  0  0  0
  139.9820   70.9940  223.5580 C   0  0  0  0  0  0  0  0  0  0  0  0
  140.6090   71.8940  224.3810 C   0  0  0  0  0  0  0  0  0  0  0  0
  140.8610   71.5130  225.6950 C   0  0  0  0  0  0  0  0  0  0  0  0
  140.4910   70.2600  226.1740 C   0  0  0  0  0  0  0  0  0  0  0  0
  140.7330   69.8670  227.4740 C   0  0  0  0  0  0  0  0  0  0  0  0
  140.3380   68.6150  227.8650 C   0  0  0  0  0  0  0  0  0  0  0  0
  140.5550   68.1820  229.1400 F   0  0  0  0  0  0  0  0  0  0  0  0
  139.7090   67.7600  226.9770 C   0  0  0  0  0  0  0  0  0  0  0  0
  139.4510   68.1270  225.6590 C   0  0  0  0  0  0  0  0  0  0  0  0
  139.8640   69.3980  225.3010 C   0  0  0  0  0  0  0  0  0  0  0  0
  139.6290   69.7820  224.0310 N   0  0  0  0  0  0  0  0  0  0  0  0
  141.7450   71.4910  221.6850 H   0  0  0  0  0  0  0  0  0  0  0  0
  141.6205   72.0636  219.4539 H   0  0  0  0  0  0  0  0  0  0  0  0
  139.9252   71.1858  219.5319 H   0  0  0  0  0  0  0  0  0  0  0  0
  138.9376   76.2084  219.0906 H   0  0  0  0  0  0  0  0  0  0  0  0
  137.8133   74.8650  219.4639 H   0  0  0  0  0  0  0  0  0  0  0  0
  138.8207   77.0309  221.1921 H   0  0  0  0  0  0  0  0  0  0  0  0
  137.4013   75.9274  221.4051 H   0  0  0  0  0  0  0  0  0  0  0  0
  139.0528   75.6846  223.2224 H   0  0  0  0  0  0  0  0  0  0  0  0
  138.8585   74.1766  222.2531 H   0  0  0  0  0  0  0  0  0  0  0  0
  141.1231   76.1338  222.3534 H   0  0  0  0  0  0  0  0  0  0  0  0
  141.1012   74.3040  222.4165 H   0  0  0  0  0  0  0  0  0  0  0  0
  141.1654   76.1594  220.1463 H   0  0  0  0  0  0  0  0  0  0  0  0
  142.7878   73.4781  221.8323 H   0  0  0  0  0  0  0  0  0  0  0  0
  144.9771   72.7301  221.0565 H   0  0  0  0  0  0  0  0  0  0  0  0
  146.7030   74.0740  218.2750 H   0  0  0  0  0  0  0  0  0  0  0  0
  144.3872   74.9058  217.4336 H   0  0  0  0  0  0  0  0  0  0  0  0
  142.1894   75.6619  218.2052 H   0  0  0  0  0  0  0  0  0  0  0  0
  140.9040   72.8878  224.0131 H   0  0  0  0  0  0  0  0  0  0  0  0
  141.3648   72.2191  226.3715 H   0  0  0  0  0  0  0  0  0  0  0  0
  141.2327   70.5448  228.1818 H   0  0  0  0  0  0  0  0  0  0  0  0
  139.4040   66.7613  227.3226 H   0  0  0  0  0  0  0  0  0  0  0  0
  138.9518   67.4511  224.9492 H   0  0  0  0  0  0  0  0  0  0  0  0
  1  2  2  0
  2  3  1  0
  3  4  1  0
  4  5  1  0
  5  6  2  0
  5  7  1  0
  7  8  1  0
  8  9  1  0
  9 10  1  0
 10 11  1  0
 11 12  1  0
 12 13  1  0
 13 14  2  0
 14 15  1  0
 15 16  2  0
 16 17  1  0
 16 18  1  0
 18 19  2  0
  2 20  1  0
 20 21  2  0
 21 22  1  0
 22 23  2  0
 23 24  1  0
 24 25  2  0
 25 26  1  0
 25 27  1  0
 27 28  2  0
 28 29  1  0
 29 30  2  0
 12  7  1  0
 19 13  1  0
 30 20  1  0
 29 23  1  0
  3 31  1  0
  4 32  1  0
  4 33  1  0
  8 34  1  0
  8 35  1  0
  9 36  1  0
  9 37  1  0
 10 38  1  0
 10 39  1  0
 11 40  1  0
 11 41  1  0
 12 42  1  6
 14 43  1  0
 15 44  1  0
 17 45  1  0
 18 46  1  0
 19 47  1  0
 21 48  1  0
 22 49  1  0
 24 50  1  0
 27 51  1  0
 28 52  1  0
M  END
>  <smiles>  (99) 
O=C(NCC(=O)N1CCCCC1c1ccc(O)cc1)c1ccc2cc(F)ccc2n1

>  <score_type>  (99) 
oracle

>  <origin>  (99) 
autodockgpu

>  <m_score__min__energy>  (99) 
-8.4199999999999999

>  <m_primary>  (99) 
energy

>  <rmsd>  (99) 
3.3523445416335123

>  <m_score__min__rmsd>  (99) 
3.3523445416335123

>  <meeko>  (99) 
{"free_energy": -7.02, "intermolecular_energy": -8.81, "internal_energy": -1.79, "cluster_size": 22, "cluster_id": 1, "rank_in_cluster": 19}

>  <energy>  (99) 
-6.62

>  <cluster_rmsd>  (99) 
0.35

>  <cluster>  (99) 
6

$$$$

     RDKit          3D

 52 55  0  0  0  0  0  0  0  0999 V2000
  140.3680   73.6020  222.2370 O   0  0  0  0  0  0  0  0  0  0  0  0
  140.4500   72.3490  222.1770 C   0  0  0  0  0  0  0  0  0  0  0  0
  140.8080   71.7230  220.9250 N   0  0  0  0  0  0  0  0  0  0  0  0
  141.0760   72.4300  219.7230 C   0  0  0  0  0  0  0  0  0  0  0  0
  140.3270   73.5770  219.2860 C   0  0  0  0  0  0  0  0  0  0  0  0
  139.1790   73.2250  218.7100 O   0  0  0  0  0  0  0  0  0  0  0  0
  140.5140   74.9510  219.3270 N   0  0  0  0  0  0  0  0  0  0  0  0
  139.5840   76.0050  218.9290 C   0  0  0  0  0  0  0  0  0  0  0  0
  139.4380   76.9880  220.0780 C   0  0  0  0  0  0  0  0  0  0  0  0
  140.0020   76.4250  221.3590 C   0  0  0  0  0  0  0  0  0  0  0  0
  141.4410   76.0750  221.1830 C   0  0  0  0  0  0  0  0  0  0  0  0
  141.7720   75.5410  219.8470 C   0  0  1  0  0  0  0  0  0  0  0  0
  142.9480   74.7150  219.6910 C   0  0  0  0  0  0  0  0  0  0  0  0
  143.5750   74.3850  218.5120 C   0  0  0  0  0  0  0  0  0  0  0  0
  144.6760   73.5640  218.4280 C   0  0  0  0  0  0  0  0  0  0  0  0
  145.2200   73.0170  219.5650 C   0  0  0  0  0  0  0  0  0  0  0  0
  146.3200   72.1860  219.5690 O   0  0  0  0  0  0  0  0  0  0  0  0
  144.6120   73.3300  220.7630 C   0  0  0  0  0  0  0  0  0  0  0  0
  143.5100   74.1510  220.8480 C   0  0  0  0  0  0  0  0  0  0  0  0
  140.1850   71.5360  223.3740 C   0  0  0  0  0  0  0  0  0  0  0  0
  139.4020   70.4160  223.2600 C   0  0  0  0  0  0  0  0  0  0  0  0
  139.1660   69.6640  224.4060 C   0  0  0  0  0  0  0  0  0  0  0  0
  139.7030   70.0260  225.6380 C   0  0  0  0  0  0  0  0  0  0  0  0
  139.4780   69.2920  226.7850 C   0  0  0  0  0  0  0  0  0  0  0  0
  140.0440   69.7190  227.9570 C   0  0  0  0  0  0  0  0  0  0  0  0
  139.8510   69.0260  229.1160 F   0  0  0  0  0  0  0  0  0  0  0  0
  140.8240   70.8620  227.9940 C   0  0  0  0  0  0  0  0  0  0  0  0
  141.0680   71.6230  226.8550 C   0  0  0  0  0  0  0  0  0  0  0  0
  140.4820   71.1620  225.6900 C   0  0  0  0  0  0  0  0  0  0  0  0
  140.6990   71.8790  224.5710 N   0  0  0  0  0  0  0  0  0  0  0  0
  140.8480   70.6590  220.9950 H   0  0  0  0  0  0  0  0  0  0  0  0
  142.1205   72.7664  219.8003 H   0  0  0  0  0  0  0  0  0  0  0  0
  140.7810   71.6851  218.9693 H   0  0  0  0  0  0  0  0  0  0  0  0
  139.9741   76.5272  218.0429 H   0  0  0  0  0  0  0  0  0  0  0  0
  138.6049   75.5671  218.6848 H   0  0  0  0  0  0  0  0  0  0  0  0
  139.9755   77.9143  219.8270 H   0  0  0  0  0  0  0  0  0  0  0  0
  138.3668   77.1871  220.2294 H   0  0  0  0  0  0  0  0  0  0  0  0
  139.9064   77.1752  222.1578 H   0  0  0  0  0  0  0  0  0  0  0  0
  139.4434   75.5158  221.6260 H   0  0  0  0  0  0  0  0  0  0  0  0
  142.0402   76.9821  221.3507 H   0  0  0  0  0  0  0  0  0  0  0  0
  141.6648   75.2782  221.9076 H   0  0  0  0  0  0  0  0  0  0  0  0
  142.1289   76.3793  219.2307 H   0  0  0  0  0  0  0  0  0  0  0  0
  143.1711   74.8034  217.5783 H   0  0  0  0  0  0  0  0  0  0  0  0
  145.1224   73.3447  217.4468 H   0  0  0  0  0  0  0  0  0  0  0  0
  146.4970   71.5630  220.3570 H   0  0  0  0  0  0  0  0  0  0  0  0
  145.0252   72.9056  221.6899 H   0  0  0  0  0  0  0  0  0  0  0  0
  143.0658   74.3671  221.8308 H   0  0  0  0  0  0  0  0  0  0  0  0
  138.9732   70.1211  222.2909 H   0  0  0  0  0  0  0  0  0  0  0  0
  138.5402   68.7620  224.3371 H   0  0  0  0  0  0  0  0  0  0  0  0
  138.8577   68.3840  226.7585 H   0  0  0  0  0  0  0  0  0  0  0  0
  141.2637   71.1778  228.9516 H   0  0  0  0  0  0  0  0  0  0  0  0
  141.6867   72.5322  226.8794 H   0  0  0  0  0  0  0  0  0  0  0  0
  1  2  2  0
  2  3  1  0
  3  4  1  0
  4  5  1  0
  5  6  2  0
  5  7  1  0
  7  8  1  0
  8  9  1  0
  9 10  1  0
 10 11  1  0
 11 12  1  0
 12 13  1  0
 13 14  2  0
 14 15  1  0
 15 16  2  0
 16 17  1  0
 16 18  1  0
 18 19  2  0
  2 20  1  0
 20 21  2  0
 21 22  1  0
 22 23  2  0
 23 24  1  0
 24 25  2  0
 25 26  1  0
 25 27  1  0
 27 28  2  0
 28 29  1  0
 29 30  2  0
 12  7  1  0
 19 13  1  0
 30 20  1  0
 29 23  1  0
  3 31  1  0
  4 32  1  0
  4 33  1  0
  8 34  1  0
  8 35  1  0
  9 36  1  0
  9 37  1  0
 10 38  1  0
 10 39  1  0
 11 40  1  0
 11 41  1  0
 12 42  1  6
 14 43  1  0
 15 44  1  0
 17 45  1  0
 18 46  1  0
 19 47  1  0
 21 48  1  0
 22 49  1  0
 24 50  1  0
 27 51  1  0
 28 52  1  0
M  END
>  <smiles>  (100) 
O=C(NCC(=O)N1CCCCC1c1ccc(O)cc1)c1ccc2cc(F)ccc2n1

>  <score_type>  (100) 
oracle

>  <origin>  (100) 
autodockgpu

>  <m_score__min__energy>  (100) 
-8.4199999999999999

>  <m_primary>  (100) 
energy

>  <rmsd>  (100) 
2.4881549815073716

>  <m_score__min__rmsd>  (100) 
2.4881549815073716

>  <meeko>  (100) 
{"free_energy": -7.82, "intermolecular_energy": -9.61, "internal_energy": -1.49, "cluster_size": 22, "cluster_id": 1, "rank_in_cluster": 14}

>  <energy>  (100) 
-6.51

>  <cluster_rmsd>  (100) 
0.33

>  <cluster>  (100) 
6

$$$$
