
     RDKit          3D

 64 68  0  0  0  0  0  0  0  0999 V2000
  143.1850   76.0790  219.5720 O   0  0  0  0  0  0  0  0  0  0  0  0
  142.2800   75.6260  220.3450 C   0  0  0  0  0  0  0  0  0  0  0  0
  141.5780   76.5770  221.0580 C   0  0  0  0  0  0  0  0  0  0  0  0
  141.8380   77.9290  220.9420 C   0  0  0  0  0  0  0  0  0  0  0  0
  141.1150   78.8630  221.6730 C   0  0  0  0  0  0  0  0  0  0  0  0
  141.4200   80.5850  221.5460 Cl  0  0  0  0  0  0  0  0  0  0  0  0
  140.1170   78.4530  222.5350 C   0  0  0  0  0  0  0  0  0  0  0  0
  139.8490   77.1070  222.6600 C   0  0  0  0  0  0  0  0  0  0  0  0
  140.5750   76.1870  221.9280 C   0  0  0  0  0  0  0  0  0  0  0  0
  140.3460   74.8640  222.0180 N   0  0  0  0  0  0  0  0  0  0  0  0
  141.0400   73.9520  221.3150 C   0  0  0  0  0  0  0  0  0  0  0  0
  140.7070   72.5250  221.4910 C   0  0  0  0  0  0  0  0  0  0  0  0
  139.4620   72.1100  221.3390 C   0  0  0  0  0  0  0  0  0  0  0  0
  138.6720   71.4990  222.3840 C   0  0  0  0  0  0  0  0  0  0  0  0
  137.3030   71.5720  222.4210 C   0  0  0  0  0  0  0  0  0  0  0  0
  136.5530   70.9740  223.4410 C   0  0  0  0  0  0  0  0  0  0  0  0
  137.2370   70.2860  224.4460 C   0  0  0  0  0  0  0  0  0  0  0  0
  138.6130   70.1990  224.4310 C   0  0  0  0  0  0  0  0  0  0  0  0
  139.2340   69.4850  225.4860 N   0  0  0  0  0  0  0  0  0  0  0  0
  139.4390   68.0600  225.3180 C   0  0  0  0  0  0  0  0  0  0  0  0
  139.9900   67.4040  226.5460 C   0  0  0  0  0  0  0  0  0  0  0  0
  141.1400   68.1490  227.1530 C   0  0  0  0  0  0  0  0  0  0  0  0
  141.1340   69.6200  226.9120 C   0  0  0  0  0  0  0  0  0  0  0  0
  139.6810   70.0780  226.7250 C   0  0  0  0  0  0  0  0  0  0  0  0
  139.2940   70.8070  223.4010 C   0  0  0  0  0  0  0  0  0  0  0  0
  142.0320   74.2990  220.4520 N   0  0  0  0  0  0  0  0  0  0  0  0
  142.7790   73.3370  219.7100 C   0  0  0  0  0  0  0  0  0  0  0  0
  143.7430   72.5040  220.4730 C   0  0  0  0  0  0  0  0  0  0  0  0
  144.7750   73.3620  221.2140 C   0  0  0  0  0  0  0  0  0  0  0  0
  145.8950   73.7710  220.3130 C   0  0  0  0  0  0  0  0  0  0  0  0
  145.6510   73.2630  218.9760 N   0  0  0  0  0  0  0  0  0  0  0  0
  145.5820   71.8270  218.9180 C   0  0  0  0  0  0  0  0  0  0  0  0
  144.3910   71.3830  219.7390 C   0  0  0  0  0  0  0  0  0  0  0  0
  142.6302   78.2712  220.2599 H   0  0  0  0  0  0  0  0  0  0  0  0
  139.5433   79.1914  223.1144 H   0  0  0  0  0  0  0  0  0  0  0  0
  139.0571   76.7650  223.3426 H   0  0  0  0  0  0  0  0  0  0  0  0
  141.4975   71.8051  221.7494 H   0  0  0  0  0  0  0  0  0  0  0  0
  138.9954   72.2380  220.3511 H   0  0  0  0  0  0  0  0  0  0  0  0
  136.7773   72.1179  221.6237 H   0  0  0  0  0  0  0  0  0  0  0  0
  135.4553   71.0441  223.4506 H   0  0  0  0  0  0  0  0  0  0  0  0
  136.6711   69.8079  225.2591 H   0  0  0  0  0  0  0  0  0  0  0  0
  138.4739   67.5926  225.0729 H   0  0  0  0  0  0  0  0  0  0  0  0
  140.1748   67.9242  224.5117 H   0  0  0  0  0  0  0  0  0  0  0  0
  139.1866   67.3332  227.2940 H   0  0  0  0  0  0  0  0  0  0  0  0
  140.3660   66.4150  226.2452 H   0  0  0  0  0  0  0  0  0  0  0  0
  141.1200   67.9810  228.2399 H   0  0  0  0  0  0  0  0  0  0  0  0
  142.0482   67.7613  226.6683 H   0  0  0  0  0  0  0  0  0  0  0  0
  141.5784   70.1389  227.7742 H   0  0  0  0  0  0  0  0  0  0  0  0
  141.7220   69.8566  226.0129 H   0  0  0  0  0  0  0  0  0  0  0  0
  139.0592   69.7286  227.5624 H   0  0  0  0  0  0  0  0  0  0  0  0
  139.6042   71.1750  226.6979 H   0  0  0  0  0  0  0  0  0  0  0  0
  140.3917   70.7371  223.3887 H   0  0  0  0  0  0  0  0  0  0  0  0
  142.0606   72.6575  219.2282 H   0  0  0  0  0  0  0  0  0  0  0  0
  143.3951   73.9255  219.0142 H   0  0  0  0  0  0  0  0  0  0  0  0
  143.1013   71.9908  221.2043 H   0  0  0  0  0  0  0  0  0  0  0  0
  144.2786   74.2647  221.5997 H   0  0  0  0  0  0  0  0  0  0  0  0
  145.1943   72.7641  222.0366 H   0  0  0  0  0  0  0  0  0  0  0  0
  145.9584   74.8687  220.2821 H   0  0  0  0  0  0  0  0  0  0  0  0
  146.8411   73.3594  220.6944 H   0  0  0  0  0  0  0  0  0  0  0  0
  146.2270   73.7130  218.2580 H   0  0  0  0  0  0  0  0  0  0  0  0
  145.4587   71.5010  217.8747 H   0  0  0  0  0  0  0  0  0  0  0  0
  146.5069   71.3835  219.3152 H   0  0  0  0  0  0  0  0  0  0  0  0
  143.6494   70.9297  219.0648 H   0  0  0  0  0  0  0  0  0  0  0  0
  144.7559   70.6651  220.4883 H   0  0  0  0  0  0  0  0  0  0  0  0
  1  2  2  0
  2  3  1  0
  3  4  2  0
  4  5  1  0
  5  6  1  0
  5  7  2  0
  7  8  1  0
  8  9  2  0
  9 10  1  0
 10 11  2  0
 11 12  1  0
 12 13  2  0
 13 14  1  0
 14 15  2  0
 15 16  1  0
 16 17  2  0
 17 18  1  0
 18 19  1  0
 19 20  1  0
 20 21  1  0
 21 22  1  0
 22 23  1  0
 23 24  1  0
 18 25  2  0
 11 26  1  0
 26 27  1  0
 27 28  1  0
 28 29  1  0
 29 30  1  0
 30 31  1  0
 31 32  1  0
 32 33  1  0
 26  2  1  0
 33 28  1  0
  9  3  1  0
 25 14  1  0
 24 19  1  0
  4 34  1  0
  7 35  1  0
  8 36  1  0
 12 37  1  0
 13 38  1  0
 15 39  1  0
 16 40  1  0
 17 41  1  0
 20 42  1  0
 20 43  1  0
 21 44  1  0
 21 45  1  0
 22 46  1  0
 22 47  1  0
 23 48  1  0
 23 49  1  0
 24 50  1  0
 24 51  1  0
 25 52  1  0
 27 53  1  0
 27 54  1  0
 28 55  1  0
 29 56  1  0
 29 57  1  0
 30 58  1  0
 30 59  1  0
 31 60  1  0
 32 61  1  0
 32 62  1  0
 33 63  1  0
 33 64  1  0
M  END
>  <smiles>  (1) 
O=c1c2cc(Cl)ccc2nc(/C=C/c2cccc(N3CCCCC3)c2)n1CC1CCNCC1

>  <score_type>  (1) 
oracle

>  <origin>  (1) 
autodockgpu

>  <m_score__min__energy>  (1) 
-9.8300000000000001

>  <m_primary>  (1) 
energy

>  <rmsd>  (1) 
11.172847103177395

>  <m_score__min__rmsd>  (1) 
11.172847103177395

>  <meeko>  (1) 
{"free_energy": -9.19, "intermolecular_energy": -10.98, "internal_energy": -1.57, "cluster_size": 14, "cluster_id": 1, "rank_in_cluster": 6}

>  <energy>  (1) 
-9.83

>  <cluster_rmsd>  (1) 
0.0

>  <cluster>  (1) 
1

$$$$

     RDKit          3D

 64 68  0  0  0  0  0  0  0  0999 V2000
  138.9750   68.1730  224.2960 O   0  0  0  0  0  0  0  0  0  0  0  0
  139.3700   69.3820  224.3540 C   0  0  0  0  0  0  0  0  0  0  0  0
  139.9900   69.7470  225.5330 C   0  0  0  0  0  0  0  0  0  0  0  0
  140.1710   68.8620  226.5780 C   0  0  0  0  0  0  0  0  0  0  0  0
  140.7980   69.2590  227.7520 C   0  0  0  0  0  0  0  0  0  0  0  0
  141.0440   68.1590  229.0950 Cl  0  0  0  0  0  0  0  0  0  0  0  0
  141.2540   70.5540  227.8950 C   0  0  0  0  0  0  0  0  0  0  0  0
  141.0800   71.4470  226.8600 C   0  0  0  0  0  0  0  0  0  0  0  0
  140.4540   71.0400  225.6970 C   0  0  0  0  0  0  0  0  0  0  0  0
  140.2620   71.8780  224.6610 N   0  0  0  0  0  0  0  0  0  0  0  0
  139.6570   71.5040  223.5200 C   0  0  0  0  0  0  0  0  0  0  0  0
  139.4980   72.5050  222.4470 C   0  0  0  0  0  0  0  0  0  0  0  0
  140.3830   72.5760  221.4690 C   0  0  0  0  0  0  0  0  0  0  0  0
  141.0250   73.7970  221.0360 C   0  0  0  0  0  0  0  0  0  0  0  0
  142.0090   73.8210  220.0820 C   0  0  0  0  0  0  0  0  0  0  0  0
  142.6200   75.0140  219.6740 C   0  0  0  0  0  0  0  0  0  0  0  0
  142.2020   76.2070  220.2680 C   0  0  0  0  0  0  0  0  0  0  0  0
  141.2140   76.2070  221.2300 C   0  0  0  0  0  0  0  0  0  0  0  0
  140.8450   77.4570  221.7860 N   0  0  0  0  0  0  0  0  0  0  0  0
  139.5340   77.5740  222.3940 C   0  0  0  0  0  0  0  0  0  0  0  0
  139.2210   78.9710  222.8340 C   0  0  0  0  0  0  0  0  0  0  0  0
  140.3380   79.6200  223.5920 C   0  0  0  0  0  0  0  0  0  0  0  0
  141.7030   79.1300  223.2440 C   0  0  0  0  0  0  0  0  0  0  0  0
  141.6870   78.6310  221.7940 C   0  0  0  0  0  0  0  0  0  0  0  0
  140.6510   75.0030  221.5880 C   0  0  0  0  0  0  0  0  0  0  0  0
  139.1880   70.2430  223.3240 N   0  0  0  0  0  0  0  0  0  0  0  0
  138.5360   69.8410  222.1220 C   0  0  0  0  0  0  0  0  0  0  0  0
  137.0650   69.6450  222.1900 C   0  0  0  0  0  0  0  0  0  0  0  0
  136.3130   70.6950  221.3650 C   0  0  0  0  0  0  0  0  0  0  0  0
  136.1430   71.9710  222.1250 C   0  0  0  0  0  0  0  0  0  0  0  0
  136.7850   71.8510  223.4200 N   0  0  0  0  0  0  0  0  0  0  0  0
  136.2240   70.8090  224.2380 C   0  0  0  0  0  0  0  0  0  0  0  0
  136.4700   69.4870  223.5450 C   0  0  0  0  0  0  0  0  0  0  0  0
  139.8130   67.8266  226.4788 H   0  0  0  0  0  0  0  0  0  0  0  0
  141.7506   70.8695  228.8245 H   0  0  0  0  0  0  0  0  0  0  0  0
  141.4388   72.4821  226.9593 H   0  0  0  0  0  0  0  0  0  0  0  0
  138.6403   73.1936  222.4618 H   0  0  0  0  0  0  0  0  0  0  0  0
  140.6494   71.6439  220.9492 H   0  0  0  0  0  0  0  0  0  0  0  0
  142.3289   72.8742  219.6225 H   0  0  0  0  0  0  0  0  0  0  0  0
  143.4078   75.0111  218.9064 H   0  0  0  0  0  0  0  0  0  0  0  0
  142.6661   77.1572  219.9651 H   0  0  0  0  0  0  0  0  0  0  0  0
  138.7771   77.2585  221.6608 H   0  0  0  0  0  0  0  0  0  0  0  0
  139.5259   76.9351  223.2894 H   0  0  0  0  0  0  0  0  0  0  0  0
  139.0062   79.5777  221.9419 H   0  0  0  0  0  0  0  0  0  0  0  0
  138.3584   78.9118  223.5140 H   0  0  0  0  0  0  0  0  0  0  0  0
  140.3025   80.7013  223.3932 H   0  0  0  0  0  0  0  0  0  0  0  0
  140.1802   79.3656  224.6505 H   0  0  0  0  0  0  0  0  0  0  0  0
  142.4287   79.9504  223.3459 H   0  0  0  0  0  0  0  0  0  0  0  0
  141.9933   78.3125  223.9203 H   0  0  0  0  0  0  0  0  0  0  0  0
  141.2728   79.4029  221.1287 H   0  0  0  0  0  0  0  0  0  0  0  0
  142.7014   78.4017  221.4357 H   0  0  0  0  0  0  0  0  0  0  0  0
  139.8618   75.0035  222.3543 H   0  0  0  0  0  0  0  0  0  0  0  0
  138.7341   70.6117  221.3625 H   0  0  0  0  0  0  0  0  0  0  0  0
  138.9478   68.8477  221.8901 H   0  0  0  0  0  0  0  0  0  0  0  0
  136.9259   68.6533  221.7348 H   0  0  0  0  0  0  0  0  0  0  0  0
  136.8802   70.8999  220.4451 H   0  0  0  0  0  0  0  0  0  0  0  0
  135.3144   70.2982  221.1296 H   0  0  0  0  0  0  0  0  0  0  0  0
  136.6031   72.7969  221.5627 H   0  0  0  0  0  0  0  0  0  0  0  0
  135.0711   72.1750  222.2644 H   0  0  0  0  0  0  0  0  0  0  0  0
  136.9370   72.7520  223.8850 H   0  0  0  0  0  0  0  0  0  0  0  0
  136.7081   70.8084  225.2258 H   0  0  0  0  0  0  0  0  0  0  0  0
  135.1452   70.9721  224.3779 H   0  0  0  0  0  0  0  0  0  0  0  0
  137.1569   68.8896  224.1624 H   0  0  0  0  0  0  0  0  0  0  0  0
  135.4951   68.9926  223.4217 H   0  0  0  0  0  0  0  0  0  0  0  0
  1  2  2  0
  2  3  1  0
  3  4  2  0
  4  5  1  0
  5  6  1  0
  5  7  2  0
  7  8  1  0
  8  9  2  0
  9 10  1  0
 10 11  2  0
 11 12  1  0
 12 13  2  0
 13 14  1  0
 14 15  2  0
 15 16  1  0
 16 17  2  0
 17 18  1  0
 18 19  1  0
 19 20  1  0
 20 21  1  0
 21 22  1  0
 22 23  1  0
 23 24  1  0
 18 25  2  0
 11 26  1  0
 26 27  1  0
 27 28  1  0
 28 29  1  0
 29 30  1  0
 30 31  1  0
 31 32  1  0
 32 33  1  0
 26  2  1  0
 33 28  1  0
  9  3  1  0
 25 14  1  0
 24 19  1  0
  4 34  1  0
  7 35  1  0
  8 36  1  0
 12 37  1  0
 13 38  1  0
 15 39  1  0
 16 40  1  0
 17 41  1  0
 20 42  1  0
 20 43  1  0
 21 44  1  0
 21 45  1  0
 22 46  1  0
 22 47  1  0
 23 48  1  0
 23 49  1  0
 24 50  1  0
 24 51  1  0
 25 52  1  0
 27 53  1  0
 27 54  1  0
 28 55  1  0
 29 56  1  0
 29 57  1  0
 30 58  1  0
 30 59  1  0
 31 60  1  0
 32 61  1  0
 32 62  1  0
 33 63  1  0
 33 64  1  0
M  END
>  <smiles>  (2) 
O=c1c2cc(Cl)ccc2nc(/C=C/c2cccc(N3CCCCC3)c2)n1CC1CCNCC1

>  <score_type>  (2) 
oracle

>  <origin>  (2) 
autodockgpu

>  <m_score__min__energy>  (2) 
-9.8300000000000001

>  <m_primary>  (2) 
energy

>  <rmsd>  (2) 
6.779912099880007

>  <m_score__min__rmsd>  (2) 
6.779912099880007

>  <meeko>  (2) 
{"free_energy": -8.96, "intermolecular_energy": -10.75, "internal_energy": -1.61, "cluster_size": 26, "cluster_id": 2, "rank_in_cluster": 10}

>  <energy>  (2) 
-9.66

>  <cluster_rmsd>  (2) 
0.34

>  <cluster>  (2) 
1

$$$$

     RDKit          3D

 64 68  0  0  0  0  0  0  0  0999 V2000
  142.5360   76.9800  220.1830 O   0  0  0  0  0  0  0  0  0  0  0  0
  141.8970   75.9700  220.6200 C   0  0  0  0  0  0  0  0  0  0  0  0
  142.6140   74.7910  220.6720 C   0  0  0  0  0  0  0  0  0  0  0  0
  143.9360   74.7120  220.2780 C   0  0  0  0  0  0  0  0  0  0  0  0
  144.6320   73.5110  220.3410 C   0  0  0  0  0  0  0  0  0  0  0  0
  146.3090   73.3800  219.8490 Cl  0  0  0  0  0  0  0  0  0  0  0  0
  144.0100   72.3680  220.8020 C   0  0  0  0  0  0  0  0  0  0  0  0
  142.6910   72.4340  221.1980 C   0  0  0  0  0  0  0  0  0  0  0  0
  142.0090   73.6340  221.1310 C   0  0  0  0  0  0  0  0  0  0  0  0
  140.7220   73.7440  221.5070 N   0  0  0  0  0  0  0  0  0  0  0  0
  140.0400   74.9020  221.4500 C   0  0  0  0  0  0  0  0  0  0  0  0
  138.6300   74.9090  221.8880 C   0  0  0  0  0  0  0  0  0  0  0  0
  137.8650   73.8530  221.6850 C   0  0  0  0  0  0  0  0  0  0  0  0
  138.2870   72.4860  221.8970 C   0  0  0  0  0  0  0  0  0  0  0  0
  138.1720   71.5150  220.9360 C   0  0  0  0  0  0  0  0  0  0  0  0
  138.5870   70.1960  221.1580 C   0  0  0  0  0  0  0  0  0  0  0  0
  139.1330   69.8770  222.4030 C   0  0  0  0  0  0  0  0  0  0  0  0
  139.2600   70.8360  223.3860 C   0  0  0  0  0  0  0  0  0  0  0  0
  139.8220   70.4350  224.6220 N   0  0  0  0  0  0  0  0  0  0  0  0
  140.4480   71.4470  225.4490 C   0  0  0  0  0  0  0  0  0  0  0  0
  141.1070   70.8770  226.6660 C   0  0  0  0  0  0  0  0  0  0  0  0
  140.2510   69.8910  227.4010 C   0  0  0  0  0  0  0  0  0  0  0  0
  139.2660   69.1600  226.5530 C   0  0  0  0  0  0  0  0  0  0  0  0
  139.8170   69.0790  225.1230 C   0  0  0  0  0  0  0  0  0  0  0  0
  138.8340   72.1150  223.1070 C   0  0  0  0  0  0  0  0  0  0  0  0
  140.6010   76.0570  221.0050 N   0  0  0  0  0  0  0  0  0  0  0  0
  139.8810   77.2850  220.9320 C   0  0  0  0  0  0  0  0  0  0  0  0
  139.8380   78.1110  222.1660 C   0  0  0  0  0  0  0  0  0  0  0  0
  139.4760   79.5690  221.8610 C   0  0  0  0  0  0  0  0  0  0  0  0
  140.6720   80.3510  221.4220 C   0  0  0  0  0  0  0  0  0  0  0  0
  141.8290   79.4770  221.3730 N   0  0  0  0  0  0  0  0  0  0  0  0
  142.1610   78.9020  222.6500 C   0  0  0  0  0  0  0  0  0  0  0  0
  141.0100   78.0190  223.0780 C   0  0  0  0  0  0  0  0  0  0  0  0
  144.4456   75.6142  219.9086 H   0  0  0  0  0  0  0  0  0  0  0  0
  144.5598   71.4166  220.8527 H   0  0  0  0  0  0  0  0  0  0  0  0
  142.1816   71.5316  221.5672 H   0  0  0  0  0  0  0  0  0  0  0  0
  138.2155   75.7981  222.3856 H   0  0  0  0  0  0  0  0  0  0  0  0
  136.8377   74.0239  221.3309 H   0  0  0  0  0  0  0  0  0  0  0  0
  137.7401   71.7803  219.9597 H   0  0  0  0  0  0  0  0  0  0  0  0
  138.4856   69.4321  220.3730 H   0  0  0  0  0  0  0  0  0  0  0  0
  139.4660   68.8477  222.6023 H   0  0  0  0  0  0  0  0  0  0  0  0
  141.2085   71.9692  224.8498 H   0  0  0  0  0  0  0  0  0  0  0  0
  139.6568   72.1305  225.7909 H   0  0  0  0  0  0  0  0  0  0  0  0
  142.0334   70.3713  226.3561 H   0  0  0  0  0  0  0  0  0  0  0  0
  141.2995   71.7145  227.3527 H   0  0  0  0  0  0  0  0  0  0  0  0
  140.9123   69.1494  227.8730 H   0  0  0  0  0  0  0  0  0  0  0  0
  139.6625   70.4731  228.1254 H   0  0  0  0  0  0  0  0  0  0  0  0
  139.1157   68.1454  226.9504 H   0  0  0  0  0  0  0  0  0  0  0  0
  138.3019   69.6896  226.5551 H   0  0  0  0  0  0  0  0  0  0  0  0
  140.8380   68.6698  225.1292 H   0  0  0  0  0  0  0  0  0  0  0  0
  139.2052   68.4179  224.4917 H   0  0  0  0  0  0  0  0  0  0  0  0
  138.9353   72.8808  223.8901 H   0  0  0  0  0  0  0  0  0  0  0  0
  140.3412   77.8939  220.1399 H   0  0  0  0  0  0  0  0  0  0  0  0
  138.8367   76.9954  220.7431 H   0  0  0  0  0  0  0  0  0  0  0  0
  139.0281   77.6460  222.7473 H   0  0  0  0  0  0  0  0  0  0  0  0
  138.7219   79.5899  221.0604 H   0  0  0  0  0  0  0  0  0  0  0  0
  139.0837   80.0266  222.7812 H   0  0  0  0  0  0  0  0  0  0  0  0
  140.4881   80.7725  220.4227 H   0  0  0  0  0  0  0  0  0  0  0  0
  140.8587   81.1674  222.1352 H   0  0  0  0  0  0  0  0  0  0  0  0
  142.6130   79.8680  220.8410 H   0  0  0  0  0  0  0  0  0  0  0  0
  143.0790   78.3024  222.5621 H   0  0  0  0  0  0  0  0  0  0  0  0
  142.3317   79.6946  223.3934 H   0  0  0  0  0  0  0  0  0  0  0  0
  141.3573   76.9755  223.0987 H   0  0  0  0  0  0  0  0  0  0  0  0
  140.6829   78.3619  224.0707 H   0  0  0  0  0  0  0  0  0  0  0  0
  1  2  2  0
  2  3  1  0
  3  4  2  0
  4  5  1  0
  5  6  1  0
  5  7  2  0
  7  8  1  0
  8  9  2  0
  9 10  1  0
 10 11  2  0
 11 12  1  0
 12 13  2  0
 13 14  1  0
 14 15  2  0
 15 16  1  0
 16 17  2  0
 17 18  1  0
 18 19  1  0
 19 20  1  0
 20 21  1  0
 21 22  1  0
 22 23  1  0
 23 24  1  0
 18 25  2  0
 11 26  1  0
 26 27  1  0
 27 28  1  0
 28 29  1  0
 29 30  1  0
 30 31  1  0
 31 32  1  0
 32 33  1  0
 26  2  1  0
 33 28  1  0
  9  3  1  0
 25 14  1  0
 24 19  1  0
  4 34  1  0
  7 35  1  0
  8 36  1  0
 12 37  1  0
 13 38  1  0
 15 39  1  0
 16 40  1  0
 17 41  1  0
 20 42  1  0
 20 43  1  0
 21 44  1  0
 21 45  1  0
 22 46  1  0
 22 47  1  0
 23 48  1  0
 23 49  1  0
 24 50  1  0
 24 51  1  0
 25 52  1  0
 27 53  1  0
 27 54  1  0
 28 55  1  0
 29 56  1  0
 29 57  1  0
 30 58  1  0
 30 59  1  0
 31 60  1  0
 32 61  1  0
 32 62  1  0
 33 63  1  0
 33 64  1  0
M  END
>  <smiles>  (3) 
O=c1c2cc(Cl)ccc2nc(/C=C/c2cccc(N3CCCCC3)c2)n1CC1CCNCC1

>  <score_type>  (3) 
oracle

>  <origin>  (3) 
autodockgpu

>  <m_score__min__energy>  (3) 
-9.8300000000000001

>  <m_primary>  (3) 
energy

>  <rmsd>  (3) 
10.186887186734719

>  <m_score__min__rmsd>  (3) 
10.186887186734719

>  <meeko>  (3) 
{"free_energy": -7.77, "intermolecular_energy": -9.56, "internal_energy": -2.05, "cluster_size": 1, "cluster_id": 6, "rank_in_cluster": 1}

>  <energy>  (3) 
-9.39

>  <cluster_rmsd>  (3) 
1.08

>  <cluster>  (3) 
1

$$$$

     RDKit          3D

 64 68  0  0  0  0  0  0  0  0999 V2000
  138.7370   68.4070  223.8620 O   0  0  0  0  0  0  0  0  0  0  0  0
  139.2350   69.5780  223.8660 C   0  0  0  0  0  0  0  0  0  0  0  0
  139.8560   69.9550  225.0400 C   0  0  0  0  0  0  0  0  0  0  0  0
  139.9320   69.1180  226.1370 C   0  0  0  0  0  0  0  0  0  0  0  0
  140.5630   69.5260  227.3060 C   0  0  0  0  0  0  0  0  0  0  0  0
  140.6780   68.4870  228.7140 Cl  0  0  0  0  0  0  0  0  0  0  0  0
  141.1280   70.7830  227.3920 C   0  0  0  0  0  0  0  0  0  0  0  0
  141.0580   71.6270  226.3050 C   0  0  0  0  0  0  0  0  0  0  0  0
  140.4280   71.2110  225.1470 C   0  0  0  0  0  0  0  0  0  0  0  0
  140.3360   72.0010  224.0620 N   0  0  0  0  0  0  0  0  0  0  0  0
  139.7280   71.6160  222.9260 C   0  0  0  0  0  0  0  0  0  0  0  0
  139.6850   72.5640  221.7950 C   0  0  0  0  0  0  0  0  0  0  0  0
  139.3770   73.8320  222.0020 C   0  0  0  0  0  0  0  0  0  0  0  0
  140.1840   74.9490  221.5660 C   0  0  0  0  0  0  0  0  0  0  0  0
  140.9510   74.9140  220.4300 C   0  0  0  0  0  0  0  0  0  0  0  0
  141.7260   76.0070  220.0210 C   0  0  0  0  0  0  0  0  0  0  0  0
  141.7070   77.1600  220.8090 C   0  0  0  0  0  0  0  0  0  0  0  0
  140.9440   77.2200  221.9560 C   0  0  0  0  0  0  0  0  0  0  0  0
  140.9770   78.4240  222.7010 N   0  0  0  0  0  0  0  0  0  0  0  0
  142.2550   79.0890  222.8680 C   0  0  0  0  0  0  0  0  0  0  0  0
  142.1750   80.2790  223.7720 C   0  0  0  0  0  0  0  0  0  0  0  0
  141.0190   81.1830  223.4680 C   0  0  0  0  0  0  0  0  0  0  0  0
  139.8390   80.5080  222.8550 C   0  0  0  0  0  0  0  0  0  0  0  0
  139.8230   79.0430  223.3110 C   0  0  0  0  0  0  0  0  0  0  0  0
  140.2020   76.1140  222.3040 C   0  0  0  0  0  0  0  0  0  0  0  0
  139.1550   70.3920  222.7860 N   0  0  0  0  0  0  0  0  0  0  0  0
  138.5000   69.9800  221.5880 C   0  0  0  0  0  0  0  0  0  0  0  0
  137.0920   70.4160  221.4110 C   0  0  0  0  0  0  0  0  0  0  0  0
  136.5860   71.2070  222.6220 C   0  0  0  0  0  0  0  0  0  0  0  0
  136.1300   70.2990  223.7180 C   0  0  0  0  0  0  0  0  0  0  0  0
  136.3430   68.9200  223.3230 N   0  0  0  0  0  0  0  0  0  0  0  0
  135.6040   68.5450  222.1460 C   0  0  0  0  0  0  0  0  0  0  0  0
  136.1130   69.3760  220.9900 C   0  0  0  0  0  0  0  0  0  0  0  0
  139.4863   68.1137  226.0841 H   0  0  0  0  0  0  0  0  0  0  0  0
  141.6279   71.1066  228.3169 H   0  0  0  0  0  0  0  0  0  0  0  0
  141.5033   72.6314  226.3587 H   0  0  0  0  0  0  0  0  0  0  0  0
  139.9101   72.2135  220.7769 H   0  0  0  0  0  0  0  0  0  0  0  0
  138.4444   74.0523  222.5421 H   0  0  0  0  0  0  0  0  0  0  0  0
  140.9580   73.9985  219.8203 H   0  0  0  0  0  0  0  0  0  0  0  0
  142.3326   75.9585  219.1047 H   0  0  0  0  0  0  0  0  0  0  0  0
  142.3084   78.0314  220.5108 H   0  0  0  0  0  0  0  0  0  0  0  0
  142.9717   78.3714  223.2939 H   0  0  0  0  0  0  0  0  0  0  0  0
  142.5749   79.4458  221.8779 H   0  0  0  0  0  0  0  0  0  0  0  0
  142.0759   79.9233  224.8082 H   0  0  0  0  0  0  0  0  0  0  0  0
  143.0933   80.8647  223.6185 H   0  0  0  0  0  0  0  0  0  0  0  0
  140.6944   81.6510  224.4091 H   0  0  0  0  0  0  0  0  0  0  0  0
  141.3812   81.9077  222.7239 H   0  0  0  0  0  0  0  0  0  0  0  0
  138.9150   81.0080  223.1811 H   0  0  0  0  0  0  0  0  0  0  0  0
  139.9036   80.5600  221.7581 H   0  0  0  0  0  0  0  0  0  0  0  0
  139.8917   78.9831  224.4072 H   0  0  0  0  0  0  0  0  0  0  0  0
  138.8913   78.5388  223.0148 H   0  0  0  0  0  0  0  0  0  0  0  0
  139.5918   76.1618  223.2180 H   0  0  0  0  0  0  0  0  0  0  0  0
  139.0793   70.3735  220.7398 H   0  0  0  0  0  0  0  0  0  0  0  0
  138.4562   68.8824  221.6468 H   0  0  0  0  0  0  0  0  0  0  0  0
  137.1468   71.0804  220.5360 H   0  0  0  0  0  0  0  0  0  0  0  0
  137.4008   71.8421  222.9998 H   0  0  0  0  0  0  0  0  0  0  0  0
  135.7294   71.8181  222.3015 H   0  0  0  0  0  0  0  0  0  0  0  0
  136.7033   70.5113  224.6325 H   0  0  0  0  0  0  0  0  0  0  0  0
  135.0596   70.4644  223.9098 H   0  0  0  0  0  0  0  0  0  0  0  0
  136.3010   68.2600  224.1060 H   0  0  0  0  0  0  0  0  0  0  0  0
  135.7573   67.4766  221.9337 H   0  0  0  0  0  0  0  0  0  0  0  0
  134.5287   68.7201  222.2981 H   0  0  0  0  0  0  0  0  0  0  0  0
  136.6008   68.7076  220.2652 H   0  0  0  0  0  0  0  0  0  0  0  0
  135.2484   69.8950  220.5506 H   0  0  0  0  0  0  0  0  0  0  0  0
  1  2  2  0
  2  3  1  0
  3  4  2  0
  4  5  1  0
  5  6  1  0
  5  7  2  0
  7  8  1  0
  8  9  2  0
  9 10  1  0
 10 11  2  0
 11 12  1  0
 12 13  2  0
 13 14  1  0
 14 15  2  0
 15 16  1  0
 16 17  2  0
 17 18  1  0
 18 19  1  0
 19 20  1  0
 20 21  1  0
 21 22  1  0
 22 23  1  0
 23 24  1  0
 18 25  2  0
 11 26  1  0
 26 27  1  0
 27 28  1  0
 28 29  1  0
 29 30  1  0
 30 31  1  0
 31 32  1  0
 32 33  1  0
 26  2  1  0
 33 28  1  0
  9  3  1  0
 25 14  1  0
 24 19  1  0
  4 34  1  0
  7 35  1  0
  8 36  1  0
 12 37  1  0
 13 38  1  0
 15 39  1  0
 16 40  1  0
 17 41  1  0
 20 42  1  0
 20 43  1  0
 21 44  1  0
 21 45  1  0
 22 46  1  0
 22 47  1  0
 23 48  1  0
 23 49  1  0
 24 50  1  0
 24 51  1  0
 25 52  1  0
 27 53  1  0
 27 54  1  0
 28 55  1  0
 29 56  1  0
 29 57  1  0
 30 58  1  0
 30 59  1  0
 31 60  1  0
 32 61  1  0
 32 62  1  0
 33 63  1  0
 33 64  1  0
M  END
>  <smiles>  (4) 
O=c1c2cc(Cl)ccc2nc(/C=C/c2cccc(N3CCCCC3)c2)n1CC1CCNCC1

>  <score_type>  (4) 
oracle

>  <origin>  (4) 
autodockgpu

>  <m_score__min__energy>  (4) 
-9.8300000000000001

>  <m_primary>  (4) 
energy

>  <rmsd>  (4) 
6.35820616576252

>  <m_score__min__rmsd>  (4) 
6.35820616576252

>  <meeko>  (4) 
{"free_energy": -8.52, "intermolecular_energy": -10.31, "internal_energy": -1.81, "cluster_size": 26, "cluster_id": 2, "rank_in_cluster": 15}

>  <energy>  (4) 
-9.36

>  <cluster_rmsd>  (4) 
0.37

>  <cluster>  (4) 
1

$$$$

     RDKit          3D

 64 68  0  0  0  0  0  0  0  0999 V2000
  141.8960   77.7890  220.5920 O   0  0  0  0  0  0  0  0  0  0  0  0
  141.1130   76.9520  221.1470 C   0  0  0  0  0  0  0  0  0  0  0  0
  141.4870   75.6280  221.0400 C   0  0  0  0  0  0  0  0  0  0  0  0
  142.6340   75.2350  220.3770 C   0  0  0  0  0  0  0  0  0  0  0  0
  142.9850   73.8940  220.2860 C   0  0  0  0  0  0  0  0  0  0  0  0
  144.4340   73.3650  219.4530 Cl  0  0  0  0  0  0  0  0  0  0  0  0
  142.1880   72.9240  220.8600 C   0  0  0  0  0  0  0  0  0  0  0  0
  141.0410   73.3030  221.5240 C   0  0  0  0  0  0  0  0  0  0  0  0
  140.7020   74.6400  221.6080 C   0  0  0  0  0  0  0  0  0  0  0  0
  139.5920   75.0560  222.2470 N   0  0  0  0  0  0  0  0  0  0  0  0
  139.2440   76.3510  222.3410 C   0  0  0  0  0  0  0  0  0  0  0  0
  138.0040   76.6950  223.0650 C   0  0  0  0  0  0  0  0  0  0  0  0
  136.9440   77.1190  222.4020 C   0  0  0  0  0  0  0  0  0  0  0  0
  136.5370   78.5030  222.3120 C   0  0  0  0  0  0  0  0  0  0  0  0
  135.9590   79.0360  221.1890 C   0  0  0  0  0  0  0  0  0  0  0  0
  135.5700   80.3800  221.1180 C   0  0  0  0  0  0  0  0  0  0  0  0
  135.7870   81.1890  222.2370 C   0  0  0  0  0  0  0  0  0  0  0  0
  136.3660   80.6750  223.3780 C   0  0  0  0  0  0  0  0  0  0  0  0
  136.5530   81.5580  224.4690 N   0  0  0  0  0  0  0  0  0  0  0  0
  135.9310   82.8660  224.4050 C   0  0  0  0  0  0  0  0  0  0  0  0
  136.3030   83.7440  225.5590 C   0  0  0  0  0  0  0  0  0  0  0  0
  136.2070   83.0550  226.8860 C   0  0  0  0  0  0  0  0  0  0  0  0
  136.4180   81.5790  226.8450 C   0  0  0  0  0  0  0  0  0  0  0  0
  137.3240   81.2490  225.6520 C   0  0  0  0  0  0  0  0  0  0  0  0
  136.7260   79.3470  223.3860 C   0  0  0  0  0  0  0  0  0  0  0  0
  139.9910   77.3470  221.7950 N   0  0  0  0  0  0  0  0  0  0  0  0
  139.6220   78.7220  221.8820 C   0  0  0  0  0  0  0  0  0  0  0  0
  140.0840   79.4650  223.0820 C   0  0  0  0  0  0  0  0  0  0  0  0
  140.2300   80.9640  222.8000 C   0  0  0  0  0  0  0  0  0  0  0  0
  141.5380   81.2750  222.1480 C   0  0  0  0  0  0  0  0  0  0  0  0
  142.2750   80.0450  221.9330 N   0  0  0  0  0  0  0  0  0  0  0  0
  142.5820   79.3450  223.1530 C   0  0  0  0  0  0  0  0  0  0  0  0
  141.2760   78.9240  223.7910 C   0  0  0  0  0  0  0  0  0  0  0  0
  143.2793   75.9961  219.9140 H   0  0  0  0  0  0  0  0  0  0  0  0
  142.4648   71.8618  220.7884 H   0  0  0  0  0  0  0  0  0  0  0  0
  140.3959   72.5416  221.9867 H   0  0  0  0  0  0  0  0  0  0  0  0
  137.9633   76.5977  224.1599 H   0  0  0  0  0  0  0  0  0  0  0  0
  136.3293   76.3687  221.8832 H   0  0  0  0  0  0  0  0  0  0  0  0
  135.7954   78.3876  220.3156 H   0  0  0  0  0  0  0  0  0  0  0  0
  135.1068   80.7872  220.2072 H   0  0  0  0  0  0  0  0  0  0  0  0
  135.4924   82.2484  222.2070 H   0  0  0  0  0  0  0  0  0  0  0  0
  136.2451   83.3590  223.4732 H   0  0  0  0  0  0  0  0  0  0  0  0
  134.8419   82.7162  224.4413 H   0  0  0  0  0  0  0  0  0  0  0  0
  137.3390   84.0855  225.4176 H   0  0  0  0  0  0  0  0  0  0  0  0
  135.5882   84.5799  225.5747 H   0  0  0  0  0  0  0  0  0  0  0  0
  136.9663   83.4901  227.5525 H   0  0  0  0  0  0  0  0  0  0  0  0
  135.1768   83.2092  227.2394 H   0  0  0  0  0  0  0  0  0  0  0  0
  136.8972   81.2468  227.7777 H   0  0  0  0  0  0  0  0  0  0  0  0
  135.4522   81.0634  226.7384 H   0  0  0  0  0  0  0  0  0  0  0  0
  138.2369   81.8619  225.6842 H   0  0  0  0  0  0  0  0  0  0  0  0
  137.6384   80.1950  225.6642 H   0  0  0  0  0  0  0  0  0  0  0  0
  137.1885   78.9374  224.2962 H   0  0  0  0  0  0  0  0  0  0  0  0
  140.0298   79.2326  220.9971 H   0  0  0  0  0  0  0  0  0  0  0  0
  138.5240   78.7215  221.9490 H   0  0  0  0  0  0  0  0  0  0  0  0
  139.2678   79.3051  223.8018 H   0  0  0  0  0  0  0  0  0  0  0  0
  139.4143   81.2834  222.1347 H   0  0  0  0  0  0  0  0  0  0  0  0
  140.1868   81.5009  223.7591 H   0  0  0  0  0  0  0  0  0  0  0  0
  141.3579   81.7683  221.1815 H   0  0  0  0  0  0  0  0  0  0  0  0
  142.1218   81.9437  222.7976 H   0  0  0  0  0  0  0  0  0  0  0  0
  143.0490   80.1440  221.2680 H   0  0  0  0  0  0  0  0  0  0  0  0
  143.1923   78.4572  222.9307 H   0  0  0  0  0  0  0  0  0  0  0  0
  143.1486   79.9959  223.8352 H   0  0  0  0  0  0  0  0  0  0  0  0
  141.2200   77.8255  223.7839 H   0  0  0  0  0  0  0  0  0  0  0  0
  141.2631   79.3280  224.8141 H   0  0  0  0  0  0  0  0  0  0  0  0
  1  2  2  0
  2  3  1  0
  3  4  2  0
  4  5  1  0
  5  6  1  0
  5  7  2  0
  7  8  1  0
  8  9  2  0
  9 10  1  0
 10 11  2  0
 11 12  1  0
 12 13  2  0
 13 14  1  0
 14 15  2  0
 15 16  1  0
 16 17  2  0
 17 18  1  0
 18 19  1  0
 19 20  1  0
 20 21  1  0
 21 22  1  0
 22 23  1  0
 23 24  1  0
 18 25  2  0
 11 26  1  0
 26 27  1  0
 27 28  1  0
 28 29  1  0
 29 30  1  0
 30 31  1  0
 31 32  1  0
 32 33  1  0
 26  2  1  0
 33 28  1  0
  9  3  1  0
 25 14  1  0
 24 19  1  0
  4 34  1  0
  7 35  1  0
  8 36  1  0
 12 37  1  0
 13 38  1  0
 15 39  1  0
 16 40  1  0
 17 41  1  0
 20 42  1  0
 20 43  1  0
 21 44  1  0
 21 45  1  0
 22 46  1  0
 22 47  1  0
 23 48  1  0
 23 49  1  0
 24 50  1  0
 24 51  1  0
 25 52  1  0
 27 53  1  0
 27 54  1  0
 28 55  1  0
 29 56  1  0
 29 57  1  0
 30 58  1  0
 30 59  1  0
 31 60  1  0
 32 61  1  0
 32 62  1  0
 33 63  1  0
 33 64  1  0
M  END
>  <smiles>  (5) 
O=c1c2cc(Cl)ccc2nc(/C=C/c2cccc(N3CCCCC3)c2)n1CC1CCNCC1

>  <score_type>  (5) 
oracle

>  <origin>  (5) 
autodockgpu

>  <m_score__min__energy>  (5) 
-9.8300000000000001

>  <m_primary>  (5) 
energy

>  <rmsd>  (5) 
8.519993600732818

>  <m_score__min__rmsd>  (5) 
8.519993600732818

>  <meeko>  (5) 
{"free_energy": -7.52, "intermolecular_energy": -9.31, "internal_energy": -2.39, "cluster_size": 2, "cluster_id": 7, "rank_in_cluster": 1}

>  <energy>  (5) 
-9.36

>  <cluster_rmsd>  (5) 
0.39

>  <cluster>  (5) 
1

$$$$

     RDKit          3D

 64 68  0  0  0  0  0  0  0  0999 V2000
  138.6850   68.4830  223.8960 O   0  0  0  0  0  0  0  0  0  0  0  0
  139.2110   69.6420  223.8950 C   0  0  0  0  0  0  0  0  0  0  0  0
  139.8530   70.0020  225.0630 C   0  0  0  0  0  0  0  0  0  0  0  0
  139.9220   69.1630  226.1580 C   0  0  0  0  0  0  0  0  0  0  0  0
  140.5760   69.5540  227.3200 C   0  0  0  0  0  0  0  0  0  0  0  0
  140.6820   68.5110  228.7250 Cl  0  0  0  0  0  0  0  0  0  0  0  0
  141.1710   70.7970  227.4010 C   0  0  0  0  0  0  0  0  0  0  0  0
  141.1090   71.6430  226.3150 C   0  0  0  0  0  0  0  0  0  0  0  0
  140.4560   71.2440  225.1650 C   0  0  0  0  0  0  0  0  0  0  0  0
  140.3710   72.0380  224.0810 N   0  0  0  0  0  0  0  0  0  0  0  0
  139.7420   71.6680  222.9520 C   0  0  0  0  0  0  0  0  0  0  0  0
  139.7090   72.6190  221.8220 C   0  0  0  0  0  0  0  0  0  0  0  0
  139.5470   73.9100  222.0450 C   0  0  0  0  0  0  0  0  0  0  0  0
  140.3890   74.9460  221.4900 C   0  0  0  0  0  0  0  0  0  0  0  0
  141.2290   74.7310  220.4260 C   0  0  0  0  0  0  0  0  0  0  0  0
  142.0380   75.7460  219.9000 C   0  0  0  0  0  0  0  0  0  0  0  0
  141.9750   77.0110  220.4900 C   0  0  0  0  0  0  0  0  0  0  0  0
  141.1390   77.2520  221.5590 C   0  0  0  0  0  0  0  0  0  0  0  0
  141.1330   78.5600  222.1020 N   0  0  0  0  0  0  0  0  0  0  0  0
  140.1330   78.8800  223.1010 C   0  0  0  0  0  0  0  0  0  0  0  0
  140.1560   80.3220  223.5040 C   0  0  0  0  0  0  0  0  0  0  0  0
  141.5340   80.8390  223.7890 C   0  0  0  0  0  0  0  0  0  0  0  0
  142.6290   80.1520  223.0460 C   0  0  0  0  0  0  0  0  0  0  0  0
  142.0580   79.6060  221.7310 C   0  0  0  0  0  0  0  0  0  0  0  0
  140.3680   76.2130  222.0310 C   0  0  0  0  0  0  0  0  0  0  0  0
  139.1380   70.4580  222.8170 N   0  0  0  0  0  0  0  0  0  0  0  0
  138.4600   70.0640  221.6260 C   0  0  0  0  0  0  0  0  0  0  0  0
  136.9760   70.0340  221.6790 C   0  0  0  0  0  0  0  0  0  0  0  0
  136.3580   71.2130  220.9180 C   0  0  0  0  0  0  0  0  0  0  0  0
  136.3280   72.4510  221.7550 C   0  0  0  0  0  0  0  0  0  0  0  0
  136.9400   72.1790  223.0420 N   0  0  0  0  0  0  0  0  0  0  0  0
  136.2540   71.1590  223.7930 C   0  0  0  0  0  0  0  0  0  0  0  0
  136.3540   69.8630  223.0200 C   0  0  0  0  0  0  0  0  0  0  0  0
  139.4519   68.1697  226.1094 H   0  0  0  0  0  0  0  0  0  0  0  0
  141.6880   71.1082  228.3207 H   0  0  0  0  0  0  0  0  0  0  0  0
  141.5795   72.6361  226.3639 H   0  0  0  0  0  0  0  0  0  0  0  0
  139.8198   72.2502  220.7916 H   0  0  0  0  0  0  0  0  0  0  0  0
  138.7160   74.2181  222.6965 H   0  0  0  0  0  0  0  0  0  0  0  0
  141.2680   73.7298  219.9721 H   0  0  0  0  0  0  0  0  0  0  0  0
  142.7043   75.5528  219.0463 H   0  0  0  0  0  0  0  0  0  0  0  0
  142.6009   77.8253  220.0961 H   0  0  0  0  0  0  0  0  0  0  0  0
  139.1394   78.6454  222.6914 H   0  0  0  0  0  0  0  0  0  0  0  0
  140.3567   78.2822  223.9969 H   0  0  0  0  0  0  0  0  0  0  0  0
  139.7215   80.9188  222.6885 H   0  0  0  0  0  0  0  0  0  0  0  0
  139.5780   80.4078  224.4359 H   0  0  0  0  0  0  0  0  0  0  0  0
  141.5596   81.9066  223.5251 H   0  0  0  0  0  0  0  0  0  0  0  0
  141.7197   80.6494  224.8565 H   0  0  0  0  0  0  0  0  0  0  0  0
  143.4368   80.8670  222.8311 H   0  0  0  0  0  0  0  0  0  0  0  0
  143.0353   79.3281  223.6510 H   0  0  0  0  0  0  0  0  0  0  0  0
  141.5342   80.4024  221.1820 H   0  0  0  0  0  0  0  0  0  0  0  0
  142.8537   79.2255  221.0736 H   0  0  0  0  0  0  0  0  0  0  0  0
  139.7007   76.4046  222.8843 H   0  0  0  0  0  0  0  0  0  0  0  0
  138.7505   70.7656  220.8301 H   0  0  0  0  0  0  0  0  0  0  0  0
  138.7631   69.0207  221.4540 H   0  0  0  0  0  0  0  0  0  0  0  0
  136.7277   69.0941  221.1643 H   0  0  0  0  0  0  0  0  0  0  0  0
  136.9545   71.4070  220.0144 H   0  0  0  0  0  0  0  0  0  0  0  0
  135.3229   70.9493  220.6553 H   0  0  0  0  0  0  0  0  0  0  0  0
  136.8849   73.2515  221.2459 H   0  0  0  0  0  0  0  0  0  0  0  0
  135.2852   72.7678  221.9042 H   0  0  0  0  0  0  0  0  0  0  0  0
  137.1890   73.0250  223.5620 H   0  0  0  0  0  0  0  0  0  0  0  0
  136.7247   71.0421  224.7803 H   0  0  0  0  0  0  0  0  0  0  0  0
  135.1997   71.4362  223.9396 H   0  0  0  0  0  0  0  0  0  0  0  0
  136.9622   69.1541  223.6010 H   0  0  0  0  0  0  0  0  0  0  0  0
  135.3301   69.4925  222.8637 H   0  0  0  0  0  0  0  0  0  0  0  0
  1  2  2  0
  2  3  1  0
  3  4  2  0
  4  5  1  0
  5  6  1  0
  5  7  2  0
  7  8  1  0
  8  9  2  0
  9 10  1  0
 10 11  2  0
 11 12  1  0
 12 13  2  0
 13 14  1  0
 14 15  2  0
 15 16  1  0
 16 17  2  0
 17 18  1  0
 18 19  1  0
 19 20  1  0
 20 21  1  0
 21 22  1  0
 22 23  1  0
 23 24  1  0
 18 25  2  0
 11 26  1  0
 26 27  1  0
 27 28  1  0
 28 29  1  0
 29 30  1  0
 30 31  1  0
 31 32  1  0
 32 33  1  0
 26  2  1  0
 33 28  1  0
  9  3  1  0
 25 14  1  0
 24 19  1  0
  4 34  1  0
  7 35  1  0
  8 36  1  0
 12 37  1  0
 13 38  1  0
 15 39  1  0
 16 40  1  0
 17 41  1  0
 20 42  1  0
 20 43  1  0
 21 44  1  0
 21 45  1  0
 22 46  1  0
 22 47  1  0
 23 48  1  0
 23 49  1  0
 24 50  1  0
 24 51  1  0
 25 52  1  0
 27 53  1  0
 27 54  1  0
 28 55  1  0
 29 56  1  0
 29 57  1  0
 30 58  1  0
 30 59  1  0
 31 60  1  0
 32 61  1  0
 32 62  1  0
 33 63  1  0
 33 64  1  0
M  END
>  <smiles>  (6) 
O=c1c2cc(Cl)ccc2nc(/C=C/c2cccc(N3CCCCC3)c2)n1CC1CCNCC1

>  <score_type>  (6) 
oracle

>  <origin>  (6) 
autodockgpu

>  <m_score__min__energy>  (6) 
-9.8300000000000001

>  <m_primary>  (6) 
energy

>  <rmsd>  (6) 
6.451149647515714

>  <m_score__min__rmsd>  (6) 
6.451149647515714

>  <meeko>  (6) 
{"free_energy": -9.09, "intermolecular_energy": -10.88, "internal_energy": -1.58, "cluster_size": 26, "cluster_id": 2, "rank_in_cluster": 5}

>  <energy>  (6) 
-9.19

>  <cluster_rmsd>  (6) 
0.95

>  <cluster>  (6) 
1

$$$$

     RDKit          3D

 64 68  0  0  0  0  0  0  0  0999 V2000
  138.5750   68.5470  223.8940 O   0  0  0  0  0  0  0  0  0  0  0  0
  139.1290   69.6940  223.8860 C   0  0  0  0  0  0  0  0  0  0  0  0
  139.7920   70.0400  225.0470 C   0  0  0  0  0  0  0  0  0  0  0  0
  139.8530   69.2000  226.1420 C   0  0  0  0  0  0  0  0  0  0  0  0
  140.5280   69.5770  227.2960 C   0  0  0  0  0  0  0  0  0  0  0  0
  140.6240   68.5340  228.7020 Cl  0  0  0  0  0  0  0  0  0  0  0  0
  141.1540   70.8050  227.3690 C   0  0  0  0  0  0  0  0  0  0  0  0
  141.1000   71.6520  226.2830 C   0  0  0  0  0  0  0  0  0  0  0  0
  140.4260   71.2670  225.1400 C   0  0  0  0  0  0  0  0  0  0  0  0
  140.3480   72.0610  224.0560 N   0  0  0  0  0  0  0  0  0  0  0  0
  139.6970   71.7060  222.9340 C   0  0  0  0  0  0  0  0  0  0  0  0
  139.6750   72.6550  221.8040 C   0  0  0  0  0  0  0  0  0  0  0  0
  140.3050   73.8120  221.8950 C   0  0  0  0  0  0  0  0  0  0  0  0
  139.6460   75.0920  222.0300 C   0  0  0  0  0  0  0  0  0  0  0  0
  138.2830   75.2340  221.9900 C   0  0  0  0  0  0  0  0  0  0  0  0
  137.6610   76.4820  222.1230 C   0  0  0  0  0  0  0  0  0  0  0  0
  138.4700   77.6060  222.3020 C   0  0  0  0  0  0  0  0  0  0  0  0
  139.8430   77.4880  222.3470 C   0  0  0  0  0  0  0  0  0  0  0  0
  140.5950   78.6750  222.5310 N   0  0  0  0  0  0  0  0  0  0  0  0
  140.2030   79.5740  223.5980 C   0  0  0  0  0  0  0  0  0  0  0  0
  140.9970   80.8430  223.6090 C   0  0  0  0  0  0  0  0  0  0  0  0
  142.4730   80.6230  223.4690 C   0  0  0  0  0  0  0  0  0  0  0  0
  142.8560   79.3930  222.7170 C   0  0  0  0  0  0  0  0  0  0  0  0
  141.7340   79.0570  221.7270 C   0  0  0  0  0  0  0  0  0  0  0  0
  140.3950   76.2350  222.2100 C   0  0  0  0  0  0  0  0  0  0  0  0
  139.0640   70.5100  222.8070 N   0  0  0  0  0  0  0  0  0  0  0  0
  138.3630   70.1300  221.6250 C   0  0  0  0  0  0  0  0  0  0  0  0
  136.8800   70.1190  221.6990 C   0  0  0  0  0  0  0  0  0  0  0  0
  136.2630   71.2780  220.9080 C   0  0  0  0  0  0  0  0  0  0  0  0
  136.2580   72.5430  221.7040 C   0  0  0  0  0  0  0  0  0  0  0  0
  136.8850   72.3080  222.9900 N   0  0  0  0  0  0  0  0  0  0  0  0
  136.2000   71.3210  223.7840 C   0  0  0  0  0  0  0  0  0  0  0  0
  136.2750   69.9990  223.0540 C   0  0  0  0  0  0  0  0  0  0  0  0
  139.3596   68.2178  226.0994 H   0  0  0  0  0  0  0  0  0  0  0  0
  141.6892   71.1039  228.2824 H   0  0  0  0  0  0  0  0  0  0  0  0
  141.5934   72.6342  226.3263 H   0  0  0  0  0  0  0  0  0  0  0  0
  139.1319   72.3977  220.8827 H   0  0  0  0  0  0  0  0  0  0  0  0
  141.4046   73.8013  221.8662 H   0  0  0  0  0  0  0  0  0  0  0  0
  137.6582   74.3397  221.8490 H   0  0  0  0  0  0  0  0  0  0  0  0
  136.5654   76.5741  222.0874 H   0  0  0  0  0  0  0  0  0  0  0  0
  138.0062   78.5978  222.4084 H   0  0  0  0  0  0  0  0  0  0  0  0
  139.1396   79.8259  223.4723 H   0  0  0  0  0  0  0  0  0  0  0  0
  140.3905   79.0580  224.5512 H   0  0  0  0  0  0  0  0  0  0  0  0
  140.6578   81.4738  222.7741 H   0  0  0  0  0  0  0  0  0  0  0  0
  140.8312   81.3213  224.5856 H   0  0  0  0  0  0  0  0  0  0  0  0
  142.8996   81.4908  222.9447 H   0  0  0  0  0  0  0  0  0  0  0  0
  142.8641   80.4953  224.4892 H   0  0  0  0  0  0  0  0  0  0  0  0
  143.7932   79.5701  222.1691 H   0  0  0  0  0  0  0  0  0  0  0  0
  143.0049   78.5561  223.4152 H   0  0  0  0  0  0  0  0  0  0  0  0
  141.4905   79.9362  221.1124 H   0  0  0  0  0  0  0  0  0  0  0  0
  142.0308   78.2510  221.0398 H   0  0  0  0  0  0  0  0  0  0  0  0
  141.4904   76.1407  222.2460 H   0  0  0  0  0  0  0  0  0  0  0  0
  138.6510   70.8310  220.8277 H   0  0  0  0  0  0  0  0  0  0  0  0
  138.6494   69.0833  221.4451 H   0  0  0  0  0  0  0  0  0  0  0  0
  136.6150   69.1657  221.2184 H   0  0  0  0  0  0  0  0  0  0  0  0
  136.8481   71.4357  219.9900 H   0  0  0  0  0  0  0  0  0  0  0  0
  135.2216   71.0167  220.6686 H   0  0  0  0  0  0  0  0  0  0  0  0
  136.8157   73.3201  221.1608 H   0  0  0  0  0  0  0  0  0  0  0  0
  135.2207   72.8753  221.8574 H   0  0  0  0  0  0  0  0  0  0  0  0
  137.1510   73.1690  223.4780 H   0  0  0  0  0  0  0  0  0  0  0  0
  136.6840   71.2320  224.7678 H   0  0  0  0  0  0  0  0  0  0  0  0
  135.1508   71.6143  223.9360 H   0  0  0  0  0  0  0  0  0  0  0  0
  136.8838   69.3031  223.6499 H   0  0  0  0  0  0  0  0  0  0  0  0
  135.2453   69.6344  222.9247 H   0  0  0  0  0  0  0  0  0  0  0  0
  1  2  2  0
  2  3  1  0
  3  4  2  0
  4  5  1  0
  5  6  1  0
  5  7  2  0
  7  8  1  0
  8  9  2  0
  9 10  1  0
 10 11  2  0
 11 12  1  0
 12 13  2  0
 13 14  1  0
 14 15  2  0
 15 16  1  0
 16 17  2  0
 17 18  1  0
 18 19  1  0
 19 20  1  0
 20 21  1  0
 21 22  1  0
 22 23  1  0
 23 24  1  0
 18 25  2  0
 11 26  1  0
 26 27  1  0
 27 28  1  0
 28 29  1  0
 29 30  1  0
 30 31  1  0
 31 32  1  0
 32 33  1  0
 26  2  1  0
 33 28  1  0
  9  3  1  0
 25 14  1  0
 24 19  1  0
  4 34  1  0
  7 35  1  0
  8 36  1  0
 12 37  1  0
 13 38  1  0
 15 39  1  0
 16 40  1  0
 17 41  1  0
 20 42  1  0
 20 43  1  0
 21 44  1  0
 21 45  1  0
 22 46  1  0
 22 47  1  0
 23 48  1  0
 23 49  1  0
 24 50  1  0
 24 51  1  0
 25 52  1  0
 27 53  1  0
 27 54  1  0
 28 55  1  0
 29 56  1  0
 29 57  1  0
 30 58  1  0
 30 59  1  0
 31 60  1  0
 32 61  1  0
 32 62  1  0
 33 63  1  0
 33 64  1  0
M  END
>  <smiles>  (7) 
O=c1c2cc(Cl)ccc2nc(/C=C/c2cccc(N3CCCCC3)c2)n1CC1CCNCC1

>  <score_type>  (7) 
oracle

>  <origin>  (7) 
autodockgpu

>  <m_score__min__energy>  (7) 
-9.8300000000000001

>  <m_primary>  (7) 
energy

>  <rmsd>  (7) 
6.429188349813634

>  <m_score__min__rmsd>  (7) 
6.429188349813634

>  <meeko>  (7) 
{"free_energy": -9.12, "intermolecular_energy": -10.91, "internal_energy": -1.83, "cluster_size": 26, "cluster_id": 2, "rank_in_cluster": 3}

>  <energy>  (7) 
-9.1

>  <cluster_rmsd>  (7) 
1.14

>  <cluster>  (7) 
1

$$$$

     RDKit          3D

 64 68  0  0  0  0  0  0  0  0999 V2000
  142.1770   77.5420  220.3960 O   0  0  0  0  0  0  0  0  0  0  0  0
  141.4030   76.6800  220.9250 C   0  0  0  0  0  0  0  0  0  0  0  0
  141.8420   75.3730  220.8650 C   0  0  0  0  0  0  0  0  0  0  0  0
  143.0410   75.0220  220.2740 C   0  0  0  0  0  0  0  0  0  0  0  0
  143.4560   73.6970  220.2290 C   0  0  0  0  0  0  0  0  0  0  0  0
  144.9710   73.2210  219.4870 Cl  0  0  0  0  0  0  0  0  0  0  0  0
  142.6730   72.7020  220.7780 C   0  0  0  0  0  0  0  0  0  0  0  0
  141.4760   73.0390  221.3710 C   0  0  0  0  0  0  0  0  0  0  0  0
  141.0730   74.3600  221.4100 C   0  0  0  0  0  0  0  0  0  0  0  0
  139.9110   74.7350  221.9780 N   0  0  0  0  0  0  0  0  0  0  0  0
  139.5010   76.0140  222.0270 C   0  0  0  0  0  0  0  0  0  0  0  0
  138.2080   76.3130  222.6750 C   0  0  0  0  0  0  0  0  0  0  0  0
  137.1470   76.5980  221.9430 C   0  0  0  0  0  0  0  0  0  0  0  0
  136.1120   77.5280  222.3340 C   0  0  0  0  0  0  0  0  0  0  0  0
  134.8070   77.4010  221.9300 C   0  0  0  0  0  0  0  0  0  0  0  0
  133.8160   78.3110  222.3190 C   0  0  0  0  0  0  0  0  0  0  0  0
  134.1850   79.3760  223.1440 C   0  0  0  0  0  0  0  0  0  0  0  0
  135.4910   79.5250  223.5620 C   0  0  0  0  0  0  0  0  0  0  0  0
  135.7870   80.6320  224.3960 N   0  0  0  0  0  0  0  0  0  0  0  0
  134.9450   80.8600  225.5530 C   0  0  0  0  0  0  0  0  0  0  0  0
  135.2860   82.1230  226.2800 C   0  0  0  0  0  0  0  0  0  0  0  0
  136.7560   82.2970  226.5140 C   0  0  0  0  0  0  0  0  0  0  0  0
  137.6360   81.6380  225.5050 C   0  0  0  0  0  0  0  0  0  0  0  0
  136.8750   81.5560  224.1750 C   0  0  0  0  0  0  0  0  0  0  0  0
  136.4190   78.5980  223.1470 C   0  0  0  0  0  0  0  0  0  0  0  0
  140.2300   77.0340  221.5030 N   0  0  0  0  0  0  0  0  0  0  0  0
  139.7960   78.3920  221.5420 C   0  0  0  0  0  0  0  0  0  0  0  0
  140.0770   79.1490  222.7870 C   0  0  0  0  0  0  0  0  0  0  0  0
  140.0980   80.6620  222.5390 C   0  0  0  0  0  0  0  0  0  0  0  0
  141.4210   81.1120  222.0080 C   0  0  0  0  0  0  0  0  0  0  0  0
  142.2920   79.9630  221.8430 N   0  0  0  0  0  0  0  0  0  0  0  0
  142.5590   79.2710  223.0760 C   0  0  0  0  0  0  0  0  0  0  0  0
  141.2510   78.7110  223.5910 C   0  0  0  0  0  0  0  0  0  0  0  0
  143.6765   75.8038  219.8325 H   0  0  0  0  0  0  0  0  0  0  0  0
  143.0007   71.6525  220.7426 H   0  0  0  0  0  0  0  0  0  0  0  0
  140.8415   72.2568  221.8132 H   0  0  0  0  0  0  0  0  0  0  0  0
  138.1287   76.2982  223.7720 H   0  0  0  0  0  0  0  0  0  0  0  0
  137.0438   76.0941  220.9707 H   0  0  0  0  0  0  0  0  0  0  0  0
  134.5303   76.5578  221.2800 H   0  0  0  0  0  0  0  0  0  0  0  0
  132.7753   78.1903  221.9839 H   0  0  0  0  0  0  0  0  0  0  0  0
  133.4253   80.1043  223.4641 H   0  0  0  0  0  0  0  0  0  0  0  0
  133.8983   80.9182  225.2197 H   0  0  0  0  0  0  0  0  0  0  0  0
  135.1063   80.0238  226.2493 H   0  0  0  0  0  0  0  0  0  0  0  0
  134.9242   82.9755  225.6864 H   0  0  0  0  0  0  0  0  0  0  0  0
  134.8042   82.0694  227.2674 H   0  0  0  0  0  0  0  0  0  0  0  0
  136.9775   83.3744  226.5086 H   0  0  0  0  0  0  0  0  0  0  0  0
  136.9743   81.8119  227.4769 H   0  0  0  0  0  0  0  0  0  0  0  0
  138.5543   82.2287  225.3713 H   0  0  0  0  0  0  0  0  0  0  0  0
  137.9097   80.6285  225.8456 H   0  0  0  0  0  0  0  0  0  0  0  0
  136.4851   82.5460  223.8959 H   0  0  0  0  0  0  0  0  0  0  0  0
  137.5288   81.2207  223.3564 H   0  0  0  0  0  0  0  0  0  0  0  0
  137.4602   78.7169  223.4814 H   0  0  0  0  0  0  0  0  0  0  0  0
  140.2867   78.9221  220.7124 H   0  0  0  0  0  0  0  0  0  0  0  0
  138.6990   78.3455  221.4749 H   0  0  0  0  0  0  0  0  0  0  0  0
  139.2216   78.8944  223.4300 H   0  0  0  0  0  0  0  0  0  0  0  0
  139.3150   80.9154  221.8091 H   0  0  0  0  0  0  0  0  0  0  0  0
  139.9196   81.1713  223.4975 H   0  0  0  0  0  0  0  0  0  0  0  0
  141.2771   81.6057  221.0356 H   0  0  0  0  0  0  0  0  0  0  0  0
  141.8781   81.8203  222.7147 H   0  0  0  0  0  0  0  0  0  0  0  0
  143.1060   80.1510  221.2490 H   0  0  0  0  0  0  0  0  0  0  0  0
  143.2712   78.4519  222.8976 H   0  0  0  0  0  0  0  0  0  0  0  0
  142.9964   79.9598  223.8137 H   0  0  0  0  0  0  0  0  0  0  0  0
  141.3047   77.6126  223.5643 H   0  0  0  0  0  0  0  0  0  0  0  0
  141.1100   79.0891  224.6143 H   0  0  0  0  0  0  0  0  0  0  0  0
  1  2  2  0
  2  3  1  0
  3  4  2  0
  4  5  1  0
  5  6  1  0
  5  7  2  0
  7  8  1  0
  8  9  2  0
  9 10  1  0
 10 11  2  0
 11 12  1  0
 12 13  2  0
 13 14  1  0
 14 15  2  0
 15 16  1  0
 16 17  2  0
 17 18  1  0
 18 19  1  0
 19 20  1  0
 20 21  1  0
 21 22  1  0
 22 23  1  0
 23 24  1  0
 18 25  2  0
 11 26  1  0
 26 27  1  0
 27 28  1  0
 28 29  1  0
 29 30  1  0
 30 31  1  0
 31 32  1  0
 32 33  1  0
 26  2  1  0
 33 28  1  0
  9  3  1  0
 25 14  1  0
 24 19  1  0
  4 34  1  0
  7 35  1  0
  8 36  1  0
 12 37  1  0
 13 38  1  0
 15 39  1  0
 16 40  1  0
 17 41  1  0
 20 42  1  0
 20 43  1  0
 21 44  1  0
 21 45  1  0
 22 46  1  0
 22 47  1  0
 23 48  1  0
 23 49  1  0
 24 50  1  0
 24 51  1  0
 25 52  1  0
 27 53  1  0
 27 54  1  0
 28 55  1  0
 29 56  1  0
 29 57  1  0
 30 58  1  0
 30 59  1  0
 31 60  1  0
 32 61  1  0
 32 62  1  0
 33 63  1  0
 33 64  1  0
M  END
>  <smiles>  (8) 
O=c1c2cc(Cl)ccc2nc(/C=C/c2cccc(N3CCCCC3)c2)n1CC1CCNCC1

>  <score_type>  (8) 
oracle

>  <origin>  (8) 
autodockgpu

>  <m_score__min__energy>  (8) 
-9.8300000000000001

>  <m_primary>  (8) 
energy

>  <rmsd>  (8) 
8.611148543786294

>  <m_score__min__rmsd>  (8) 
8.611148543786294

>  <meeko>  (8) 
{"free_energy": -7.5, "intermolecular_energy": -9.29, "internal_energy": -2.21, "cluster_size": 2, "cluster_id": 7, "rank_in_cluster": 2}

>  <energy>  (8) 
-9.0

>  <cluster_rmsd>  (8) 
0.47

>  <cluster>  (8) 
1

$$$$

     RDKit          3D

 64 68  0  0  0  0  0  0  0  0999 V2000
  142.1980   77.7580  220.3480 O   0  0  0  0  0  0  0  0  0  0  0  0
  141.4150   76.9260  220.9090 C   0  0  0  0  0  0  0  0  0  0  0  0
  141.8240   75.6080  220.8720 C   0  0  0  0  0  0  0  0  0  0  0  0
  143.0040   75.2170  220.2680 C   0  0  0  0  0  0  0  0  0  0  0  0
  143.3890   73.8830  220.2470 C   0  0  0  0  0  0  0  0  0  0  0  0
  144.8800   73.3550  219.4900 Cl  0  0  0  0  0  0  0  0  0  0  0  0
  142.5940   72.9180  220.8320 C   0  0  0  0  0  0  0  0  0  0  0  0
  141.4150   73.2950  221.4380 C   0  0  0  0  0  0  0  0  0  0  0  0
  141.0420   74.6260  221.4530 C   0  0  0  0  0  0  0  0  0  0  0  0
  139.8990   75.0390  222.0320 N   0  0  0  0  0  0  0  0  0  0  0  0
  139.5180   76.3280  222.0590 C   0  0  0  0  0  0  0  0  0  0  0  0
  138.2440   76.6710  222.7220 C   0  0  0  0  0  0  0  0  0  0  0  0
  137.1070   76.1640  222.2800 C   0  0  0  0  0  0  0  0  0  0  0  0
  136.5020   74.9530  222.7870 C   0  0  0  0  0  0  0  0  0  0  0  0
  136.8940   73.7020  222.3830 C   0  0  0  0  0  0  0  0  0  0  0  0
  136.2970   72.5380  222.8840 C   0  0  0  0  0  0  0  0  0  0  0  0
  135.2720   72.6740  223.8240 C   0  0  0  0  0  0  0  0  0  0  0  0
  134.8610   73.9210  224.2450 C   0  0  0  0  0  0  0  0  0  0  0  0
  133.8160   73.9760  225.1990 N   0  0  0  0  0  0  0  0  0  0  0  0
  133.6710   72.8660  226.1200 C   0  0  0  0  0  0  0  0  0  0  0  0
  132.4610   72.9900  226.9920 C   0  0  0  0  0  0  0  0  0  0  0  0
  132.3010   74.3500  227.6000 C   0  0  0  0  0  0  0  0  0  0  0  0
  132.8860   75.4670  226.8040 C   0  0  0  0  0  0  0  0  0  0  0  0
  132.8760   75.0670  225.3230 C   0  0  0  0  0  0  0  0  0  0  0  0
  135.4870   75.0270  223.7160 C   0  0  0  0  0  0  0  0  0  0  0  0
  140.2600   77.3190  221.4990 N   0  0  0  0  0  0  0  0  0  0  0  0
  139.8570   78.6870  221.5140 C   0  0  0  0  0  0  0  0  0  0  0  0
  140.1100   79.4460  222.7650 C   0  0  0  0  0  0  0  0  0  0  0  0
  140.2900   80.9440  222.4930 C   0  0  0  0  0  0  0  0  0  0  0  0
  141.6860   81.2590  222.0600 C   0  0  0  0  0  0  0  0  0  0  0  0
  142.4570   80.0320  221.9840 N   0  0  0  0  0  0  0  0  0  0  0  0
  142.5630   79.3480  223.2460 C   0  0  0  0  0  0  0  0  0  0  0  0
  141.1730   78.9230  223.6660 C   0  0  0  0  0  0  0  0  0  0  0  0
  143.6480   75.9741  219.7967 H   0  0  0  0  0  0  0  0  0  0  0  0
  142.8978   71.8609  220.8147 H   0  0  0  0  0  0  0  0  0  0  0  0
  140.7714   72.5375  221.9093 H   0  0  0  0  0  0  0  0  0  0  0  0
  138.2417   77.3509  223.5867 H   0  0  0  0  0  0  0  0  0  0  0  0
  136.5859   76.6990  221.4724 H   0  0  0  0  0  0  0  0  0  0  0  0
  137.7023   73.6101  221.6426 H   0  0  0  0  0  0  0  0  0  0  0  0
  136.6261   71.5441  222.5467 H   0  0  0  0  0  0  0  0  0  0  0  0
  134.7872   71.7753  224.2331 H   0  0  0  0  0  0  0  0  0  0  0  0
  133.5916   71.9353  225.5390 H   0  0  0  0  0  0  0  0  0  0  0  0
  134.5535   72.8631  226.7766 H   0  0  0  0  0  0  0  0  0  0  0  0
  131.5700   72.7729  226.3846 H   0  0  0  0  0  0  0  0  0  0  0  0
  132.5841   72.2770  227.8205 H   0  0  0  0  0  0  0  0  0  0  0  0
  131.2254   74.5449  227.7228 H   0  0  0  0  0  0  0  0  0  0  0  0
  132.8515   74.3287  228.5521 H   0  0  0  0  0  0  0  0  0  0  0  0
  132.2860   76.3779  226.9463 H   0  0  0  0  0  0  0  0  0  0  0  0
  133.9165   75.6653  227.1338 H   0  0  0  0  0  0  0  0  0  0  0  0
  131.8696   74.7406  225.0220 H   0  0  0  0  0  0  0  0  0  0  0  0
  133.1518   75.9123  224.6753 H   0  0  0  0  0  0  0  0  0  0  0  0
  135.1599   76.0219  224.0525 H   0  0  0  0  0  0  0  0  0  0  0  0
  140.3902   79.1999  220.7000 H   0  0  0  0  0  0  0  0  0  0  0  0
  138.7624   78.6657  221.4067 H   0  0  0  0  0  0  0  0  0  0  0  0
  139.1879   79.2862  223.3431 H   0  0  0  0  0  0  0  0  0  0  0  0
  139.5922   81.2494  221.6994 H   0  0  0  0  0  0  0  0  0  0  0  0
  140.0865   81.4907  223.4255 H   0  0  0  0  0  0  0  0  0  0  0  0
  141.6635   81.7398  221.0709 H   0  0  0  0  0  0  0  0  0  0  0  0
  142.1510   81.9399  222.7881 H   0  0  0  0  0  0  0  0  0  0  0  0
  143.3280   80.1300  221.4540 H   0  0  0  0  0  0  0  0  0  0  0  0
  143.2072   78.4630  223.1379 H   0  0  0  0  0  0  0  0  0  0  0  0
  143.0050   80.0113  224.0041 H   0  0  0  0  0  0  0  0  0  0  0  0
  141.1262   77.8240  223.6630 H   0  0  0  0  0  0  0  0  0  0  0  0
  140.9898   79.3380  224.6681 H   0  0  0  0  0  0  0  0  0  0  0  0
  1  2  2  0
  2  3  1  0
  3  4  2  0
  4  5  1  0
  5  6  1  0
  5  7  2  0
  7  8  1  0
  8  9  2  0
  9 10  1  0
 10 11  2  0
 11 12  1  0
 12 13  2  0
 13 14  1  0
 14 15  2  0
 15 16  1  0
 16 17  2  0
 17 18  1  0
 18 19  1  0
 19 20  1  0
 20 21  1  0
 21 22  1  0
 22 23  1  0
 23 24  1  0
 18 25  2  0
 11 26  1  0
 26 27  1  0
 27 28  1  0
 28 29  1  0
 29 30  1  0
 30 31  1  0
 31 32  1  0
 32 33  1  0
 26  2  1  0
 33 28  1  0
  9  3  1  0
 25 14  1  0
 24 19  1  0
  4 34  1  0
  7 35  1  0
  8 36  1  0
 12 37  1  0
 13 38  1  0
 15 39  1  0
 16 40  1  0
 17 41  1  0
 20 42  1  0
 20 43  1  0
 21 44  1  0
 21 45  1  0
 22 46  1  0
 22 47  1  0
 23 48  1  0
 23 49  1  0
 24 50  1  0
 24 51  1  0
 25 52  1  0
 27 53  1  0
 27 54  1  0
 28 55  1  0
 29 56  1  0
 29 57  1  0
 30 58  1  0
 30 59  1  0
 31 60  1  0
 32 61  1  0
 32 62  1  0
 33 63  1  0
 33 64  1  0
M  END
>  <smiles>  (9) 
O=c1c2cc(Cl)ccc2nc(/C=C/c2cccc(N3CCCCC3)c2)n1CC1CCNCC1

>  <score_type>  (9) 
oracle

>  <origin>  (9) 
autodockgpu

>  <m_score__min__energy>  (9) 
-9.8300000000000001

>  <m_primary>  (9) 
energy

>  <rmsd>  (9) 
10.313298522680071

>  <m_score__min__rmsd>  (9) 
10.313298522680071

>  <meeko>  (9) 
{"free_energy": -8.27, "intermolecular_energy": -10.06, "internal_energy": -1.84, "cluster_size": 3, "cluster_id": 3, "rank_in_cluster": 1}

>  <energy>  (9) 
-8.85

>  <cluster_rmsd>  (9) 
1.14

>  <cluster>  (9) 
1

$$$$

     RDKit          3D

 64 68  0  0  0  0  0  0  0  0999 V2000
  138.6360   68.5350  223.8690 O   0  0  0  0  0  0  0  0  0  0  0  0
  139.1720   69.6900  223.8720 C   0  0  0  0  0  0  0  0  0  0  0  0
  139.8180   70.0410  225.0400 C   0  0  0  0  0  0  0  0  0  0  0  0
  139.8810   69.1980  226.1330 C   0  0  0  0  0  0  0  0  0  0  0  0
  140.5390   69.5800  227.2950 C   0  0  0  0  0  0  0  0  0  0  0  0
  140.6370   68.5320  228.6970 Cl  0  0  0  0  0  0  0  0  0  0  0  0
  141.1460   70.8170  227.3790 C   0  0  0  0  0  0  0  0  0  0  0  0
  141.0900   71.6680  226.2960 C   0  0  0  0  0  0  0  0  0  0  0  0
  140.4320   71.2770  225.1450 C   0  0  0  0  0  0  0  0  0  0  0  0
  140.3530   72.0750  224.0630 N   0  0  0  0  0  0  0  0  0  0  0  0
  139.7190   71.7140  222.9340 C   0  0  0  0  0  0  0  0  0  0  0  0
  139.6930   72.6680  221.8070 C   0  0  0  0  0  0  0  0  0  0  0  0
  139.4250   73.9430  222.0220 C   0  0  0  0  0  0  0  0  0  0  0  0
  140.2480   75.0390  221.5630 C   0  0  0  0  0  0  0  0  0  0  0  0
  140.9740   74.9880  220.4000 C   0  0  0  0  0  0  0  0  0  0  0  0
  141.7670   76.0590  219.9710 C   0  0  0  0  0  0  0  0  0  0  0  0
  141.8080   77.2090  220.7640 C   0  0  0  0  0  0  0  0  0  0  0  0
  141.0870   77.2840  221.9360 C   0  0  0  0  0  0  0  0  0  0  0  0
  141.1820   78.4820  222.6850 N   0  0  0  0  0  0  0  0  0  0  0  0
  142.4600   79.1650  222.7240 C   0  0  0  0  0  0  0  0  0  0  0  0
  142.4600   80.3460  223.6430 C   0  0  0  0  0  0  0  0  0  0  0  0
  141.2660   81.2350  223.4710 C   0  0  0  0  0  0  0  0  0  0  0  0
  140.0370   80.5480  222.9780 C   0  0  0  0  0  0  0  0  0  0  0  0
  140.0890   79.0800  223.4190 C   0  0  0  0  0  0  0  0  0  0  0  0
  140.3270   76.1980  222.3050 C   0  0  0  0  0  0  0  0  0  0  0  0
  139.1050   70.5090  222.7960 N   0  0  0  0  0  0  0  0  0  0  0  0
  138.4220   70.1250  221.6040 C   0  0  0  0  0  0  0  0  0  0  0  0
  136.9390   70.0970  221.6620 C   0  0  0  0  0  0  0  0  0  0  0  0
  136.3190   71.2560  220.8740 C   0  0  0  0  0  0  0  0  0  0  0  0
  136.2910   72.5150  221.6800 C   0  0  0  0  0  0  0  0  0  0  0  0
  136.9060   72.2750  222.9710 N   0  0  0  0  0  0  0  0  0  0  0  0
  136.2230   71.2750  223.7490 C   0  0  0  0  0  0  0  0  0  0  0  0
  136.3200   69.9590  223.0090 C   0  0  0  0  0  0  0  0  0  0  0  0
  139.4025   68.2088  226.0820 H   0  0  0  0  0  0  0  0  0  0  0  0
  141.6679   71.1199  228.2987 H   0  0  0  0  0  0  0  0  0  0  0  0
  141.5684   72.6572  226.3477 H   0  0  0  0  0  0  0  0  0  0  0  0
  139.8975   72.3154  220.7853 H   0  0  0  0  0  0  0  0  0  0  0  0
  138.5143   74.1874  222.5884 H   0  0  0  0  0  0  0  0  0  0  0  0
  140.9317   74.0768  219.7852 H   0  0  0  0  0  0  0  0  0  0  0  0
  142.3421   75.9970  219.0353 H   0  0  0  0  0  0  0  0  0  0  0  0
  142.4232   78.0647  220.4489 H   0  0  0  0  0  0  0  0  0  0  0  0
  143.2276   78.4547  223.0650 H   0  0  0  0  0  0  0  0  0  0  0  0
  142.6679   79.5356  221.7094 H   0  0  0  0  0  0  0  0  0  0  0  0
  142.4757   79.9804  224.6803 H   0  0  0  0  0  0  0  0  0  0  0  0
  143.3491   80.9463  223.3997 H   0  0  0  0  0  0  0  0  0  0  0  0
  141.0355   81.6899  224.4456 H   0  0  0  0  0  0  0  0  0  0  0  0
  141.5381   81.9711  222.7002 H   0  0  0  0  0  0  0  0  0  0  0  0
  139.1456   81.0318  223.4037 H   0  0  0  0  0  0  0  0  0  0  0  0
  139.9853   80.6100  221.8810 H   0  0  0  0  0  0  0  0  0  0  0  0
  140.2731   79.0123  224.5014 H   0  0  0  0  0  0  0  0  0  0  0  0
  139.1384   78.5647  223.2172 H   0  0  0  0  0  0  0  0  0  0  0  0
  139.7524   76.2578  223.2411 H   0  0  0  0  0  0  0  0  0  0  0  0
  138.7108   70.8321  220.8124 H   0  0  0  0  0  0  0  0  0  0  0  0
  138.7228   69.0825  221.4230 H   0  0  0  0  0  0  0  0  0  0  0  0
  136.6895   69.1446  221.1715 H   0  0  0  0  0  0  0  0  0  0  0  0
  136.9129   71.4275  219.9641 H   0  0  0  0  0  0  0  0  0  0  0  0
  135.2832   70.9856  220.6210 H   0  0  0  0  0  0  0  0  0  0  0  0
  136.8465   73.3025  221.1497 H   0  0  0  0  0  0  0  0  0  0  0  0
  135.2487   72.8357  221.8238 H   0  0  0  0  0  0  0  0  0  0  0  0
  137.1580   73.1340  223.4690 H   0  0  0  0  0  0  0  0  0  0  0  0
  136.6970   71.1831  224.7374 H   0  0  0  0  0  0  0  0  0  0  0  0
  135.1691   71.5561  223.8915 H   0  0  0  0  0  0  0  0  0  0  0  0
  136.9294   69.2645  223.6060 H   0  0  0  0  0  0  0  0  0  0  0  0
  135.2958   69.5844  222.8653 H   0  0  0  0  0  0  0  0  0  0  0  0
  1  2  2  0
  2  3  1  0
  3  4  2  0
  4  5  1  0
  5  6  1  0
  5  7  2  0
  7  8  1  0
  8  9  2  0
  9 10  1  0
 10 11  2  0
 11 12  1  0
 12 13  2  0
 13 14  1  0
 14 15  2  0
 15 16  1  0
 16 17  2  0
 17 18  1  0
 18 19  1  0
 19 20  1  0
 20 21  1  0
 21 22  1  0
 22 23  1  0
 23 24  1  0
 18 25  2  0
 11 26  1  0
 26 27  1  0
 27 28  1  0
 28 29  1  0
 29 30  1  0
 30 31  1  0
 31 32  1  0
 32 33  1  0
 26  2  1  0
 33 28  1  0
  9  3  1  0
 25 14  1  0
 24 19  1  0
  4 34  1  0
  7 35  1  0
  8 36  1  0
 12 37  1  0
 13 38  1  0
 15 39  1  0
 16 40  1  0
 17 41  1  0
 20 42  1  0
 20 43  1  0
 21 44  1  0
 21 45  1  0
 22 46  1  0
 22 47  1  0
 23 48  1  0
 23 49  1  0
 24 50  1  0
 24 51  1  0
 25 52  1  0
 27 53  1  0
 27 54  1  0
 28 55  1  0
 29 56  1  0
 29 57  1  0
 30 58  1  0
 30 59  1  0
 31 60  1  0
 32 61  1  0
 32 62  1  0
 33 63  1  0
 33 64  1  0
M  END
>  <smiles>  (10) 
O=c1c2cc(Cl)ccc2nc(/C=C/c2cccc(N3CCCCC3)c2)n1CC1CCNCC1

>  <score_type>  (10) 
oracle

>  <origin>  (10) 
autodockgpu

>  <m_score__min__energy>  (10) 
-9.8300000000000001

>  <m_primary>  (10) 
energy

>  <rmsd>  (10) 
6.362179745026974

>  <m_score__min__rmsd>  (10) 
6.362179745026974

>  <meeko>  (10) 
{"free_energy": -9.09, "intermolecular_energy": -10.88, "internal_energy": -1.6, "cluster_size": 26, "cluster_id": 2, "rank_in_cluster": 7}

>  <energy>  (10) 
-8.83

>  <cluster_rmsd>  (10) 
1.34

>  <cluster>  (10) 
1

$$$$

     RDKit          3D

 64 68  0  0  0  0  0  0  0  0999 V2000
  137.6760   69.3140  223.9180 O   0  0  0  0  0  0  0  0  0  0  0  0
  138.5250   70.2560  223.8040 C   0  0  0  0  0  0  0  0  0  0  0  0
  139.3690   70.4270  224.8830 C   0  0  0  0  0  0  0  0  0  0  0  0
  139.2990   69.6300  226.0100 C   0  0  0  0  0  0  0  0  0  0  0  0
  140.1630   69.8270  227.0800 C   0  0  0  0  0  0  0  0  0  0  0  0
  140.1000   68.8320  228.5220 Cl  0  0  0  0  0  0  0  0  0  0  0  0
  141.1110   70.8290  227.0360 C   0  0  0  0  0  0  0  0  0  0  0  0
  141.1910   71.6310  225.9180 C   0  0  0  0  0  0  0  0  0  0  0  0
  140.3270   71.4250  224.8590 C   0  0  0  0  0  0  0  0  0  0  0  0
  140.3680   72.1840  223.7470 N   0  0  0  0  0  0  0  0  0  0  0  0
  139.5380   72.0010  222.7060 C   0  0  0  0  0  0  0  0  0  0  0  0
  139.6710   72.8920  221.5360 C   0  0  0  0  0  0  0  0  0  0  0  0
  140.2860   74.0550  221.6520 C   0  0  0  0  0  0  0  0  0  0  0  0
  139.6310   75.2910  222.0160 C   0  0  0  0  0  0  0  0  0  0  0  0
  138.2730   75.3940  222.1780 C   0  0  0  0  0  0  0  0  0  0  0  0
  137.6550   76.6000  222.5320 C   0  0  0  0  0  0  0  0  0  0  0  0
  138.4620   77.7240  222.7220 C   0  0  0  0  0  0  0  0  0  0  0  0
  139.8300   77.6450  222.5650 C   0  0  0  0  0  0  0  0  0  0  0  0
  140.5800   78.8280  222.7740 N   0  0  0  0  0  0  0  0  0  0  0  0
  141.7220   78.7650  223.6650 C   0  0  0  0  0  0  0  0  0  0  0  0
  142.3530   80.1030  223.8950 C   0  0  0  0  0  0  0  0  0  0  0  0
  142.5680   80.8850  222.6340 C   0  0  0  0  0  0  0  0  0  0  0  0
  141.6060   80.5830  221.5360 C   0  0  0  0  0  0  0  0  0  0  0  0
  140.2880   80.1030  222.1590 C   0  0  0  0  0  0  0  0  0  0  0  0
  140.3780   76.4320  222.2170 C   0  0  0  0  0  0  0  0  0  0  0  0
  138.5850   71.0310  222.6950 N   0  0  0  0  0  0  0  0  0  0  0  0
  137.6940   70.8390  221.5990 C   0  0  0  0  0  0  0  0  0  0  0  0
  136.4970   71.7150  221.5470 C   0  0  0  0  0  0  0  0  0  0  0  0
  136.4270   72.6530  222.7570 C   0  0  0  0  0  0  0  0  0  0  0  0
  135.8320   71.9710  223.9460 C   0  0  0  0  0  0  0  0  0  0  0  0
  135.5320   70.5920  223.6120 N   0  0  0  0  0  0  0  0  0  0  0  0
  134.5760   70.4610  222.5440 C   0  0  0  0  0  0  0  0  0  0  0  0
  135.1880   71.0520  221.2940 C   0  0  0  0  0  0  0  0  0  0  0  0
  138.5481   68.8278  226.0605 H   0  0  0  0  0  0  0  0  0  0  0  0
  141.7947   70.9857  227.8833 H   0  0  0  0  0  0  0  0  0  0  0  0
  141.9413   72.4338  225.8686 H   0  0  0  0  0  0  0  0  0  0  0  0
  139.2563   72.5859  220.5642 H   0  0  0  0  0  0  0  0  0  0  0  0
  141.3685   74.0850  221.4588 H   0  0  0  0  0  0  0  0  0  0  0  0
  137.6493   74.5009  222.0250 H   0  0  0  0  0  0  0  0  0  0  0  0
  136.5638   76.6603  222.6570 H   0  0  0  0  0  0  0  0  0  0  0  0
  138.0012   78.6833  223.0001 H   0  0  0  0  0  0  0  0  0  0  0  0
  141.3905   78.3617  224.6332 H   0  0  0  0  0  0  0  0  0  0  0  0
  142.4766   78.1201  223.1910 H   0  0  0  0  0  0  0  0  0  0  0  0
  141.6997   80.6868  224.5602 H   0  0  0  0  0  0  0  0  0  0  0  0
  143.3436   79.9228  224.3381 H   0  0  0  0  0  0  0  0  0  0  0  0
  142.4844   81.9546  222.8769 H   0  0  0  0  0  0  0  0  0  0  0  0
  143.5623   80.5996  222.2600 H   0  0  0  0  0  0  0  0  0  0  0  0
  141.4259   81.4904  220.9409 H   0  0  0  0  0  0  0  0  0  0  0  0
  142.0178   79.8025  220.8793 H   0  0  0  0  0  0  0  0  0  0  0  0
  139.9387   80.8213  222.9153 H   0  0  0  0  0  0  0  0  0  0  0  0
  139.4937   80.0137  221.4032 H   0  0  0  0  0  0  0  0  0  0  0  0
  141.4692   76.3694  222.0926 H   0  0  0  0  0  0  0  0  0  0  0  0
  138.2656   71.0016  220.6733 H   0  0  0  0  0  0  0  0  0  0  0  0
  137.2992   69.8200  221.7247 H   0  0  0  0  0  0  0  0  0  0  0  0
  136.6620   72.3057  220.6338 H   0  0  0  0  0  0  0  0  0  0  0  0
  137.4441   72.9876  223.0089 H   0  0  0  0  0  0  0  0  0  0  0  0
  135.7869   73.5080  222.4938 H   0  0  0  0  0  0  0  0  0  0  0  0
  136.5476   71.9988  224.7809 H   0  0  0  0  0  0  0  0  0  0  0  0
  134.9060   72.4871  224.2396 H   0  0  0  0  0  0  0  0  0  0  0  0
  135.3700   69.9990  224.4330 H   0  0  0  0  0  0  0  0  0  0  0  0
  134.3435   69.3985  222.3794 H   0  0  0  0  0  0  0  0  0  0  0  0
  133.6441   70.9870  222.7987 H   0  0  0  0  0  0  0  0  0  0  0  0
  135.3391   70.2450  220.5619 H   0  0  0  0  0  0  0  0  0  0  0  0
  134.4959   71.8205  220.9194 H   0  0  0  0  0  0  0  0  0  0  0  0
  1  2  2  0
  2  3  1  0
  3  4  2  0
  4  5  1  0
  5  6  1  0
  5  7  2  0
  7  8  1  0
  8  9  2  0
  9 10  1  0
 10 11  2  0
 11 12  1  0
 12 13  2  0
 13 14  1  0
 14 15  2  0
 15 16  1  0
 16 17  2  0
 17 18  1  0
 18 19  1  0
 19 20  1  0
 20 21  1  0
 21 22  1  0
 22 23  1  0
 23 24  1  0
 18 25  2  0
 11 26  1  0
 26 27  1  0
 27 28  1  0
 28 29  1  0
 29 30  1  0
 30 31  1  0
 31 32  1  0
 32 33  1  0
 26  2  1  0
 33 28  1  0
  9  3  1  0
 25 14  1  0
 24 19  1  0
  4 34  1  0
  7 35  1  0
  8 36  1  0
 12 37  1  0
 13 38  1  0
 15 39  1  0
 16 40  1  0
 17 41  1  0
 20 42  1  0
 20 43  1  0
 21 44  1  0
 21 45  1  0
 22 46  1  0
 22 47  1  0
 23 48  1  0
 23 49  1  0
 24 50  1  0
 24 51  1  0
 25 52  1  0
 27 53  1  0
 27 54  1  0
 28 55  1  0
 29 56  1  0
 29 57  1  0
 30 58  1  0
 30 59  1  0
 31 60  1  0
 32 61  1  0
 32 62  1  0
 33 63  1  0
 33 64  1  0
M  END
>  <smiles>  (11) 
O=c1c2cc(Cl)ccc2nc(/C=C/c2cccc(N3CCCCC3)c2)n1CC1CCNCC1

>  <score_type>  (11) 
oracle

>  <origin>  (11) 
autodockgpu

>  <m_score__min__energy>  (11) 
-9.8300000000000001

>  <m_primary>  (11) 
energy

>  <rmsd>  (11) 
6.35822013084145

>  <m_score__min__rmsd>  (11) 
6.35822013084145

>  <meeko>  (11) 
{"free_energy": -8.18, "intermolecular_energy": -9.97, "internal_energy": -2.12, "cluster_size": 26, "cluster_id": 2, "rank_in_cluster": 25}

>  <energy>  (11) 
-8.77

>  <cluster_rmsd>  (11) 
1.1

>  <cluster>  (11) 
1

$$$$

     RDKit          3D

 64 68  0  0  0  0  0  0  0  0999 V2000
  138.5320   68.4240  223.9950 O   0  0  0  0  0  0  0  0  0  0  0  0
  139.0770   69.5740  223.9580 C   0  0  0  0  0  0  0  0  0  0  0  0
  139.7740   69.9370  225.0930 C   0  0  0  0  0  0  0  0  0  0  0  0
  139.8750   69.1090  226.1950 C   0  0  0  0  0  0  0  0  0  0  0  0
  140.5830   69.5020  227.3230 C   0  0  0  0  0  0  0  0  0  0  0  0
  140.7310   68.4730  228.7350 Cl  0  0  0  0  0  0  0  0  0  0  0  0
  141.2020   70.7350  227.3640 C   0  0  0  0  0  0  0  0  0  0  0  0
  141.1080   71.5700  226.2720 C   0  0  0  0  0  0  0  0  0  0  0  0
  140.4010   71.1690  225.1540 C   0  0  0  0  0  0  0  0  0  0  0  0
  140.2830   71.9520  224.0660 N   0  0  0  0  0  0  0  0  0  0  0  0
  139.6010   71.5800  222.9690 C   0  0  0  0  0  0  0  0  0  0  0  0
  139.5360   72.5180  221.8300 C   0  0  0  0  0  0  0  0  0  0  0  0
  140.1880   73.6650  221.8760 C   0  0  0  0  0  0  0  0  0  0  0  0
  139.5600   74.9550  222.0500 C   0  0  0  0  0  0  0  0  0  0  0  0
  138.2060   75.1450  221.9330 C   0  0  0  0  0  0  0  0  0  0  0  0
  137.6140   76.4020  222.1060 C   0  0  0  0  0  0  0  0  0  0  0  0
  138.4420   77.4860  222.4070 C   0  0  0  0  0  0  0  0  0  0  0  0
  139.8050   77.3200  222.5310 C   0  0  0  0  0  0  0  0  0  0  0  0
  140.5770   78.4670  222.8370 N   0  0  0  0  0  0  0  0  0  0  0  0
  141.8290   78.6570  222.1310 C   0  0  0  0  0  0  0  0  0  0  0  0
  142.6040   79.8360  222.6310 C   0  0  0  0  0  0  0  0  0  0  0  0
  141.7700   81.0700  222.7960 C   0  0  0  0  0  0  0  0  0  0  0  0
  140.3300   80.8200  223.0910 C   0  0  0  0  0  0  0  0  0  0  0  0
  140.2060   79.4710  223.8090 C   0  0  0  0  0  0  0  0  0  0  0  0
  140.3280   76.0600  222.3500 C   0  0  0  0  0  0  0  0  0  0  0  0
  138.9720   70.3790  222.8740 N   0  0  0  0  0  0  0  0  0  0  0  0
  138.2380   69.9830  221.7170 C   0  0  0  0  0  0  0  0  0  0  0  0
  136.7570   69.9840  221.8310 C   0  0  0  0  0  0  0  0  0  0  0  0
  136.1290   71.1400  221.0440 C   0  0  0  0  0  0  0  0  0  0  0  0
  136.1550   72.4140  221.8260 C   0  0  0  0  0  0  0  0  0  0  0  0
  136.8150   72.1870  223.0980 N   0  0  0  0  0  0  0  0  0  0  0  0
  136.1420   71.2150  223.9200 C   0  0  0  0  0  0  0  0  0  0  0  0
  136.1880   69.8840  223.2030 C   0  0  0  0  0  0  0  0  0  0  0  0
  139.3869   68.1234  226.1782 H   0  0  0  0  0  0  0  0  0  0  0  0
  141.7632   71.0471  228.2571 H   0  0  0  0  0  0  0  0  0  0  0  0
  141.5957   72.5558  226.2899 H   0  0  0  0  0  0  0  0  0  0  0  0
  138.9424   72.2601  220.9405 H   0  0  0  0  0  0  0  0  0  0  0  0
  141.2830   73.6370  221.7751 H   0  0  0  0  0  0  0  0  0  0  0  0
  137.5656   74.2827  221.6958 H   0  0  0  0  0  0  0  0  0  0  0  0
  136.5262   76.5324  222.0075 H   0  0  0  0  0  0  0  0  0  0  0  0
  138.0012   78.4841  222.5468 H   0  0  0  0  0  0  0  0  0  0  0  0
  142.4438   77.7535  222.2564 H   0  0  0  0  0  0  0  0  0  0  0  0
  141.5881   78.8433  221.0740 H   0  0  0  0  0  0  0  0  0  0  0  0
  143.0411   79.5775  223.6068 H   0  0  0  0  0  0  0  0  0  0  0  0
  143.3730   80.0622  221.8777 H   0  0  0  0  0  0  0  0  0  0  0  0
  142.1912   81.6588  223.6242 H   0  0  0  0  0  0  0  0  0  0  0  0
  141.8003   81.5942  221.8294 H   0  0  0  0  0  0  0  0  0  0  0  0
  139.9392   81.6207  223.7361 H   0  0  0  0  0  0  0  0  0  0  0  0
  139.7517   80.8028  222.1554 H   0  0  0  0  0  0  0  0  0  0  0  0
  140.8844   79.4346  224.6741 H   0  0  0  0  0  0  0  0  0  0  0  0
  139.1861   79.3081  224.1875 H   0  0  0  0  0  0  0  0  0  0  0  0
  141.4154   75.9276  222.4499 H   0  0  0  0  0  0  0  0  0  0  0  0
  138.5094   70.6679  220.9001 H   0  0  0  0  0  0  0  0  0  0  0  0
  138.5131   68.9315  221.5474 H   0  0  0  0  0  0  0  0  0  0  0  0
  136.4710   69.0276  221.3690 H   0  0  0  0  0  0  0  0  0  0  0  0
  136.6911   71.2829  220.1094 H   0  0  0  0  0  0  0  0  0  0  0  0
  135.0796   70.8850  220.8351 H   0  0  0  0  0  0  0  0  0  0  0  0
  136.7040   73.1808  221.2597 H   0  0  0  0  0  0  0  0  0  0  0  0
  135.1249   72.7567  222.0033 H   0  0  0  0  0  0  0  0  0  0  0  0
  137.1000   73.0510  223.5690 H   0  0  0  0  0  0  0  0  0  0  0  0
  136.6497   71.1329  224.8924 H   0  0  0  0  0  0  0  0  0  0  0  0
  135.0994   71.5189  224.0949 H   0  0  0  0  0  0  0  0  0  0  0  0
  136.8077   69.1903  223.7902 H   0  0  0  0  0  0  0  0  0  0  0  0
  135.1525   69.5258  223.1054 H   0  0  0  0  0  0  0  0  0  0  0  0
  1  2  2  0
  2  3  1  0
  3  4  2  0
  4  5  1  0
  5  6  1  0
  5  7  2  0
  7  8  1  0
  8  9  2  0
  9 10  1  0
 10 11  2  0
 11 12  1  0
 12 13  2  0
 13 14  1  0
 14 15  2  0
 15 16  1  0
 16 17  2  0
 17 18  1  0
 18 19  1  0
 19 20  1  0
 20 21  1  0
 21 22  1  0
 22 23  1  0
 23 24  1  0
 18 25  2  0
 11 26  1  0
 26 27  1  0
 27 28  1  0
 28 29  1  0
 29 30  1  0
 30 31  1  0
 31 32  1  0
 32 33  1  0
 26  2  1  0
 33 28  1  0
  9  3  1  0
 25 14  1  0
 24 19  1  0
  4 34  1  0
  7 35  1  0
  8 36  1  0
 12 37  1  0
 13 38  1  0
 15 39  1  0
 16 40  1  0
 17 41  1  0
 20 42  1  0
 20 43  1  0
 21 44  1  0
 21 45  1  0
 22 46  1  0
 22 47  1  0
 23 48  1  0
 23 49  1  0
 24 50  1  0
 24 51  1  0
 25 52  1  0
 27 53  1  0
 27 54  1  0
 28 55  1  0
 29 56  1  0
 29 57  1  0
 30 58  1  0
 30 59  1  0
 31 60  1  0
 32 61  1  0
 32 62  1  0
 33 63  1  0
 33 64  1  0
M  END
>  <smiles>  (12) 
O=c1c2cc(Cl)ccc2nc(/C=C/c2cccc(N3CCCCC3)c2)n1CC1CCNCC1

>  <score_type>  (12) 
oracle

>  <origin>  (12) 
autodockgpu

>  <m_score__min__energy>  (12) 
-9.8300000000000001

>  <m_primary>  (12) 
energy

>  <rmsd>  (12) 
6.620280372331435

>  <m_score__min__rmsd>  (12) 
6.620280372331435

>  <meeko>  (12) 
{"free_energy": -9.05, "intermolecular_energy": -10.84, "internal_energy": -1.81, "cluster_size": 26, "cluster_id": 2, "rank_in_cluster": 8}

>  <energy>  (12) 
-8.67

>  <cluster_rmsd>  (12) 
1.01

>  <cluster>  (12) 
1

$$$$

     RDKit          3D

 64 68  0  0  0  0  0  0  0  0999 V2000
  143.1180   76.2620  219.0620 O   0  0  0  0  0  0  0  0  0  0  0  0
  142.3470   75.8820  220.0000 C   0  0  0  0  0  0  0  0  0  0  0  0
  141.7220   76.8940  220.7010 C   0  0  0  0  0  0  0  0  0  0  0  0
  141.9180   78.2290  220.4050 C   0  0  0  0  0  0  0  0  0  0  0  0
  141.2750   79.2250  221.1280 C   0  0  0  0  0  0  0  0  0  0  0  0
  141.5030   80.9270  220.7760 Cl  0  0  0  0  0  0  0  0  0  0  0  0
  140.4230   78.8950  222.1630 C   0  0  0  0  0  0  0  0  0  0  0  0
  140.2180   77.5670  222.4680 C   0  0  0  0  0  0  0  0  0  0  0  0
  140.8640   76.5850  221.7420 C   0  0  0  0  0  0  0  0  0  0  0  0
  140.6940   75.2760  222.0050 N   0  0  0  0  0  0  0  0  0  0  0  0
  141.3110   74.3040  221.3100 C   0  0  0  0  0  0  0  0  0  0  0  0
  141.0520   72.9000  221.6840 C   0  0  0  0  0  0  0  0  0  0  0  0
  139.8230   72.4180  221.6480 C   0  0  0  0  0  0  0  0  0  0  0  0
  139.3560   71.3140  222.4560 C   0  0  0  0  0  0  0  0  0  0  0  0
  138.3220   70.4980  222.0730 C   0  0  0  0  0  0  0  0  0  0  0  0
  137.8810   69.4330  222.8680 C   0  0  0  0  0  0  0  0  0  0  0  0
  138.5270   69.2080  224.0870 C   0  0  0  0  0  0  0  0  0  0  0  0
  139.5690   70.0140  224.4930 C   0  0  0  0  0  0  0  0  0  0  0  0
  140.1720   69.7230  225.7410 N   0  0  0  0  0  0  0  0  0  0  0  0
  140.3170   70.8020  226.6980 C   0  0  0  0  0  0  0  0  0  0  0  0
  141.0740   70.3930  227.9230 C   0  0  0  0  0  0  0  0  0  0  0  0
  140.6180   69.0860  228.4970 C   0  0  0  0  0  0  0  0  0  0  0  0
  140.0350   68.1340  227.5080 C   0  0  0  0  0  0  0  0  0  0  0  0
  140.6550   68.4190  226.1340 C   0  0  0  0  0  0  0  0  0  0  0  0
  139.9560   71.0450  223.6670 C   0  0  0  0  0  0  0  0  0  0  0  0
  142.1600   74.5700  220.2830 N   0  0  0  0  0  0  0  0  0  0  0  0
  142.8260   73.5450  219.5480 C   0  0  0  0  0  0  0  0  0  0  0  0
  143.7030   72.6300  220.3210 C   0  0  0  0  0  0  0  0  0  0  0  0
  144.7480   73.3990  221.1370 C   0  0  0  0  0  0  0  0  0  0  0  0
  145.9310   73.7700  220.3020 C   0  0  0  0  0  0  0  0  0  0  0  0
  145.7190   73.3240  218.9380 N   0  0  0  0  0  0  0  0  0  0  0  0
  145.5680   71.8970  218.8240 C   0  0  0  0  0  0  0  0  0  0  0  0
  144.3180   71.4980  219.5750 C   0  0  0  0  0  0  0  0  0  0  0  0
  142.5943   78.5075  219.5834 H   0  0  0  0  0  0  0  0  0  0  0  0
  139.9138   79.6829  222.7374 H   0  0  0  0  0  0  0  0  0  0  0  0
  139.5406   77.2890  223.2888 H   0  0  0  0  0  0  0  0  0  0  0  0
  141.8857   72.2527  221.9939 H   0  0  0  0  0  0  0  0  0  0  0  0
  139.1072   72.8877  220.9574 H   0  0  0  0  0  0  0  0  0  0  0  0
  137.8234   70.6863  221.1107 H   0  0  0  0  0  0  0  0  0  0  0  0
  137.0492   68.7912  222.5422 H   0  0  0  0  0  0  0  0  0  0  0  0
  138.1999   68.3777  224.7301 H   0  0  0  0  0  0  0  0  0  0  0  0
  140.8534   71.6314  226.2139 H   0  0  0  0  0  0  0  0  0  0  0  0
  139.3072   71.1000  227.0167 H   0  0  0  0  0  0  0  0  0  0  0  0
  142.1390   70.3062  227.6618 H   0  0  0  0  0  0  0  0  0  0  0  0
  140.8942   71.1632  228.6875 H   0  0  0  0  0  0  0  0  0  0  0  0
  141.4842   68.5997  228.9695 H   0  0  0  0  0  0  0  0  0  0  0  0
  139.8120   69.3255  229.2062 H   0  0  0  0  0  0  0  0  0  0  0  0
  140.2610   67.1007  227.8099 H   0  0  0  0  0  0  0  0  0  0  0  0
  138.9432   68.2598  227.4622 H   0  0  0  0  0  0  0  0  0  0  0  0
  141.7528   68.4232  226.2036 H   0  0  0  0  0  0  0  0  0  0  0  0
  140.3774   67.6487  225.3995 H   0  0  0  0  0  0  0  0  0  0  0  0
  140.7878   71.6879  223.9907 H   0  0  0  0  0  0  0  0  0  0  0  0
  142.0551   72.9322  219.0580 H   0  0  0  0  0  0  0  0  0  0  0  0
  143.4994   74.0757  218.8589 H   0  0  0  0  0  0  0  0  0  0  0  0
  142.9996   72.1310  221.0038 H   0  0  0  0  0  0  0  0  0  0  0  0
  144.2880   74.3165  221.5327 H   0  0  0  0  0  0  0  0  0  0  0  0
  145.0931   72.7496  221.9550 H   0  0  0  0  0  0  0  0  0  0  0  0
  146.0607   74.8622  220.3147 H   0  0  0  0  0  0  0  0  0  0  0  0
  146.8326   73.2890  220.7092 H   0  0  0  0  0  0  0  0  0  0  0  0
  146.3530   73.7630  218.2630 H   0  0  0  0  0  0  0  0  0  0  0  0
  145.4732   71.6151  217.7650 H   0  0  0  0  0  0  0  0  0  0  0  0
  146.4462   71.3850  219.2444 H   0  0  0  0  0  0  0  0  0  0  0  0
  143.5828   71.1131  218.8530 H   0  0  0  0  0  0  0  0  0  0  0  0
  144.6062   70.7348  220.3129 H   0  0  0  0  0  0  0  0  0  0  0  0
  1  2  2  0
  2  3  1  0
  3  4  2  0
  4  5  1  0
  5  6  1  0
  5  7  2  0
  7  8  1  0
  8  9  2  0
  9 10  1  0
 10 11  2  0
 11 12  1  0
 12 13  2  0
 13 14  1  0
 14 15  2  0
 15 16  1  0
 16 17  2  0
 17 18  1  0
 18 19  1  0
 19 20  1  0
 20 21  1  0
 21 22  1  0
 22 23  1  0
 23 24  1  0
 18 25  2  0
 11 26  1  0
 26 27  1  0
 27 28  1  0
 28 29  1  0
 29 30  1  0
 30 31  1  0
 31 32  1  0
 32 33  1  0
 26  2  1  0
 33 28  1  0
  9  3  1  0
 25 14  1  0
 24 19  1  0
  4 34  1  0
  7 35  1  0
  8 36  1  0
 12 37  1  0
 13 38  1  0
 15 39  1  0
 16 40  1  0
 17 41  1  0
 20 42  1  0
 20 43  1  0
 21 44  1  0
 21 45  1  0
 22 46  1  0
 22 47  1  0
 23 48  1  0
 23 49  1  0
 24 50  1  0
 24 51  1  0
 25 52  1  0
 27 53  1  0
 27 54  1  0
 28 55  1  0
 29 56  1  0
 29 57  1  0
 30 58  1  0
 30 59  1  0
 31 60  1  0
 32 61  1  0
 32 62  1  0
 33 63  1  0
 33 64  1  0
M  END
>  <smiles>  (13) 
O=c1c2cc(Cl)ccc2nc(/C=C/c2cccc(N3CCCCC3)c2)n1CC1CCNCC1

>  <score_type>  (13) 
oracle

>  <origin>  (13) 
autodockgpu

>  <m_score__min__energy>  (13) 
-9.8300000000000001

>  <m_primary>  (13) 
energy

>  <rmsd>  (13) 
11.358290675776352

>  <m_score__min__rmsd>  (13) 
11.358290675776352

>  <meeko>  (13) 
{"free_energy": -9.66, "intermolecular_energy": -11.45, "internal_energy": -1.44, "cluster_size": 14, "cluster_id": 1, "rank_in_cluster": 2}

>  <energy>  (13) 
-8.6

>  <cluster_rmsd>  (13) 
1.17

>  <cluster>  (13) 
1

$$$$

     RDKit          3D

 64 68  0  0  0  0  0  0  0  0999 V2000
  137.7970   69.1350  223.8610 O   0  0  0  0  0  0  0  0  0  0  0  0
  138.5940   70.1210  223.7530 C   0  0  0  0  0  0  0  0  0  0  0  0
  139.4330   70.3260  224.8310 C   0  0  0  0  0  0  0  0  0  0  0  0
  139.4100   69.5170  225.9500 C   0  0  0  0  0  0  0  0  0  0  0  0
  140.2660   69.7490  227.0190 C   0  0  0  0  0  0  0  0  0  0  0  0
  140.2630   68.7390  228.4520 Cl  0  0  0  0  0  0  0  0  0  0  0  0
  141.1610   70.8000  226.9800 C   0  0  0  0  0  0  0  0  0  0  0  0
  141.1930   71.6150  225.8700 C   0  0  0  0  0  0  0  0  0  0  0  0
  140.3360   71.3740  224.8120 C   0  0  0  0  0  0  0  0  0  0  0  0
  140.3330   72.1440  223.7080 N   0  0  0  0  0  0  0  0  0  0  0  0
  139.5090   71.9280  222.6690 C   0  0  0  0  0  0  0  0  0  0  0  0
  139.5900   72.8350  221.5060 C   0  0  0  0  0  0  0  0  0  0  0  0
  140.2350   73.9830  221.6030 C   0  0  0  0  0  0  0  0  0  0  0  0
  139.6170   75.2380  221.9690 C   0  0  0  0  0  0  0  0  0  0  0  0
  138.2680   75.3700  222.1760 C   0  0  0  0  0  0  0  0  0  0  0  0
  137.6860   76.5940  222.5300 C   0  0  0  0  0  0  0  0  0  0  0  0
  138.5210   77.7040  222.6730 C   0  0  0  0  0  0  0  0  0  0  0  0
  139.8810   77.5960  222.4700 C   0  0  0  0  0  0  0  0  0  0  0  0
  140.6600   78.7680  222.6330 N   0  0  0  0  0  0  0  0  0  0  0  0
  140.3120   79.6770  223.7070 C   0  0  0  0  0  0  0  0  0  0  0  0
  141.1310   80.9290  223.6960 C   0  0  0  0  0  0  0  0  0  0  0  0
  142.5980   80.6800  223.5210 C   0  0  0  0  0  0  0  0  0  0  0  0
  142.9390   79.4410  222.7630 C   0  0  0  0  0  0  0  0  0  0  0  0
  141.7870   79.1250  221.8010 C   0  0  0  0  0  0  0  0  0  0  0  0
  140.3930   76.3670  222.1240 C   0  0  0  0  0  0  0  0  0  0  0  0
  138.6090   70.9090  222.6520 N   0  0  0  0  0  0  0  0  0  0  0  0
  137.7250   70.6800  221.5570 C   0  0  0  0  0  0  0  0  0  0  0  0
  138.2630   69.9010  220.4130 C   0  0  0  0  0  0  0  0  0  0  0  0
  137.2440   68.8810  219.8910 C   0  0  0  0  0  0  0  0  0  0  0  0
  137.2560   67.6280  220.7060 C   0  0  0  0  0  0  0  0  0  0  0  0
  138.2110   67.7650  221.7890 N   0  0  0  0  0  0  0  0  0  0  0  0
  139.5610   67.9710  221.3330 C   0  0  0  0  0  0  0  0  0  0  0  0
  139.6070   69.2870  220.5900 C   0  0  0  0  0  0  0  0  0  0  0  0
  138.7027   68.6757  225.9954 H   0  0  0  0  0  0  0  0  0  0  0  0
  141.8403   70.9841  227.8254 H   0  0  0  0  0  0  0  0  0  0  0  0
  141.8997   72.4568  225.8253 H   0  0  0  0  0  0  0  0  0  0  0  0
  139.1116   72.5532  220.5564 H   0  0  0  0  0  0  0  0  0  0  0  0
  141.3144   73.9848  221.3913 H   0  0  0  0  0  0  0  0  0  0  0  0
  137.6225   74.4869  222.0604 H   0  0  0  0  0  0  0  0  0  0  0  0
  136.6011   76.6784  222.6909 H   0  0  0  0  0  0  0  0  0  0  0  0
  138.0888   78.6766  222.9510 H   0  0  0  0  0  0  0  0  0  0  0  0
  139.2512   79.9502  223.6062 H   0  0  0  0  0  0  0  0  0  0  0  0
  140.5119   79.1591  224.6567 H   0  0  0  0  0  0  0  0  0  0  0  0
  140.7843   81.5650  222.8682 H   0  0  0  0  0  0  0  0  0  0  0  0
  140.9986   81.4118  224.6755 H   0  0  0  0  0  0  0  0  0  0  0  0
  143.0286   81.5382  222.9843 H   0  0  0  0  0  0  0  0  0  0  0  0
  143.0109   80.5467  224.5318 H   0  0  0  0  0  0  0  0  0  0  0  0
  143.8660   79.5987  222.1923 H   0  0  0  0  0  0  0  0  0  0  0  0
  143.0884   78.6028  223.4595 H   0  0  0  0  0  0  0  0  0  0  0  0
  141.5465   80.0073  221.1897 H   0  0  0  0  0  0  0  0  0  0  0  0
  142.0511   78.3114  221.1094 H   0  0  0  0  0  0  0  0  0  0  0  0
  141.4777   76.2805  221.9626 H   0  0  0  0  0  0  0  0  0  0  0  0
  136.8485   70.1399  221.9444 H   0  0  0  0  0  0  0  0  0  0  0  0
  137.5084   71.6782  221.1487 H   0  0  0  0  0  0  0  0  0  0  0  0
  138.4355   70.6722  219.6478 H   0  0  0  0  0  0  0  0  0  0  0  0
  136.2389   69.3258  219.9342 H   0  0  0  0  0  0  0  0  0  0  0  0
  137.5138   68.6223  218.8565 H   0  0  0  0  0  0  0  0  0  0  0  0
  136.2530   67.4513  221.1217 H   0  0  0  0  0  0  0  0  0  0  0  0
  137.5435   66.7787  220.0687 H   0  0  0  0  0  0  0  0  0  0  0  0
  138.0910   67.0660  222.5290 H   0  0  0  0  0  0  0  0  0  0  0  0
  140.2449   68.0042  222.1939 H   0  0  0  0  0  0  0  0  0  0  0  0
  139.8712   67.1480  220.6724 H   0  0  0  0  0  0  0  0  0  0  0  0
  140.2406   69.9867  221.1548 H   0  0  0  0  0  0  0  0  0  0  0  0
  140.0117   69.0852  219.5872 H   0  0  0  0  0  0  0  0  0  0  0  0
  1  2  2  0
  2  3  1  0
  3  4  2  0
  4  5  1  0
  5  6  1  0
  5  7  2  0
  7  8  1  0
  8  9  2  0
  9 10  1  0
 10 11  2  0
 11 12  1  0
 12 13  2  0
 13 14  1  0
 14 15  2  0
 15 16  1  0
 16 17  2  0
 17 18  1  0
 18 19  1  0
 19 20  1  0
 20 21  1  0
 21 22  1  0
 22 23  1  0
 23 24  1  0
 18 25  2  0
 11 26  1  0
 26 27  1  0
 27 28  1  0
 28 29  1  0
 29 30  1  0
 30 31  1  0
 31 32  1  0
 32 33  1  0
 26  2  1  0
 33 28  1  0
  9  3  1  0
 25 14  1  0
 24 19  1  0
  4 34  1  0
  7 35  1  0
  8 36  1  0
 12 37  1  0
 13 38  1  0
 15 39  1  0
 16 40  1  0
 17 41  1  0
 20 42  1  0
 20 43  1  0
 21 44  1  0
 21 45  1  0
 22 46  1  0
 22 47  1  0
 23 48  1  0
 23 49  1  0
 24 50  1  0
 24 51  1  0
 25 52  1  0
 27 53  1  0
 27 54  1  0
 28 55  1  0
 29 56  1  0
 29 57  1  0
 30 58  1  0
 30 59  1  0
 31 60  1  0
 32 61  1  0
 32 62  1  0
 33 63  1  0
 33 64  1  0
M  END
>  <smiles>  (14) 
O=c1c2cc(Cl)ccc2nc(/C=C/c2cccc(N3CCCCC3)c2)n1CC1CCNCC1

>  <score_type>  (14) 
oracle

>  <origin>  (14) 
autodockgpu

>  <m_score__min__energy>  (14) 
-9.8300000000000001

>  <m_primary>  (14) 
energy

>  <rmsd>  (14) 
6.438674965634515

>  <m_score__min__rmsd>  (14) 
6.438674965634515

>  <meeko>  (14) 
{"free_energy": -8.28, "intermolecular_energy": -10.07, "internal_energy": -1.92, "cluster_size": 26, "cluster_id": 2, "rank_in_cluster": 22}

>  <energy>  (14) 
-8.21

>  <cluster_rmsd>  (14) 
1.43

>  <cluster>  (14) 
1

$$$$

     RDKit          3D

 64 68  0  0  0  0  0  0  0  0999 V2000
  142.7830   76.7170  219.0640 O   0  0  0  0  0  0  0  0  0  0  0  0
  142.1450   76.3490  220.1020 C   0  0  0  0  0  0  0  0  0  0  0  0
  141.6290   77.3710  220.8740 C   0  0  0  0  0  0  0  0  0  0  0  0
  141.7920   78.7020  220.5440 C   0  0  0  0  0  0  0  0  0  0  0  0
  141.2620   79.7080  221.3410 C   0  0  0  0  0  0  0  0  0  0  0  0
  141.4500   81.4060  220.9470 Cl  0  0  0  0  0  0  0  0  0  0  0  0
  140.5570   79.3920  222.4860 C   0  0  0  0  0  0  0  0  0  0  0  0
  140.3880   78.0680  222.8270 C   0  0  0  0  0  0  0  0  0  0  0  0
  140.9200   77.0760  222.0260 C   0  0  0  0  0  0  0  0  0  0  0  0
  140.7790   75.7700  222.3200 N   0  0  0  0  0  0  0  0  0  0  0  0
  141.2890   74.7890  221.5550 C   0  0  0  0  0  0  0  0  0  0  0  0
  141.0740   73.3890  221.9720 C   0  0  0  0  0  0  0  0  0  0  0  0
  140.1120   72.6710  221.4210 C   0  0  0  0  0  0  0  0  0  0  0  0
  139.5680   71.4600  221.9930 C   0  0  0  0  0  0  0  0  0  0  0  0
  138.7730   70.5960  221.2850 C   0  0  0  0  0  0  0  0  0  0  0  0
  138.2540   69.4260  221.8540 C   0  0  0  0  0  0  0  0  0  0  0  0
  138.5660   69.1460  223.1870 C   0  0  0  0  0  0  0  0  0  0  0  0
  139.3650   70.0000  223.9190 C   0  0  0  0  0  0  0  0  0  0  0  0
  139.6350   69.6480  225.2640 N   0  0  0  0  0  0  0  0  0  0  0  0
  139.5580   68.2480  225.6330 C   0  0  0  0  0  0  0  0  0  0  0  0
  139.7460   68.0230  227.1010 C   0  0  0  0  0  0  0  0  0  0  0  0
  140.9110   68.7720  227.6740 C   0  0  0  0  0  0  0  0  0  0  0  0
  141.2570   70.0360  226.9620 C   0  0  0  0  0  0  0  0  0  0  0  0
  139.9870   70.5890  226.3030 C   0  0  0  0  0  0  0  0  0  0  0  0
  139.8440   71.1330  223.3030 C   0  0  0  0  0  0  0  0  0  0  0  0
  141.9900   75.0410  220.4180 N   0  0  0  0  0  0  0  0  0  0  0  0
  142.5420   74.0060  219.6080 C   0  0  0  0  0  0  0  0  0  0  0  0
  143.9830   74.1190  219.2660 C   0  0  0  0  0  0  0  0  0  0  0  0
  144.4880   72.8790  218.5190 C   0  0  0  0  0  0  0  0  0  0  0  0
  144.8340   71.7730  219.4630 C   0  0  0  0  0  0  0  0  0  0  0  0
  144.5460   72.1890  220.8220 N   0  0  0  0  0  0  0  0  0  0  0  0
  145.3090   73.3370  221.2380 C   0  0  0  0  0  0  0  0  0  0  0  0
  144.9070   74.5070  220.3670 C   0  0  0  0  0  0  0  0  0  0  0  0
  142.3508   78.9696  219.6351 H   0  0  0  0  0  0  0  0  0  0  0  0
  140.1357   80.1878  223.1178 H   0  0  0  0  0  0  0  0  0  0  0  0
  139.8298   77.8008  223.7364 H   0  0  0  0  0  0  0  0  0  0  0  0
  141.7174   72.9423  222.7444 H   0  0  0  0  0  0  0  0  0  0  0  0
  139.6971   73.0177  220.4630 H   0  0  0  0  0  0  0  0  0  0  0  0
  138.5351   70.8291  220.2366 H   0  0  0  0  0  0  0  0  0  0  0  0
  137.6183   68.7463  221.2676 H   0  0  0  0  0  0  0  0  0  0  0  0
  138.1700   68.2343  223.6581 H   0  0  0  0  0  0  0  0  0  0  0  0
  138.5699   67.8619  225.3421 H   0  0  0  0  0  0  0  0  0  0  0  0
  140.3716   67.7231  225.1110 H   0  0  0  0  0  0  0  0  0  0  0  0
  138.8331   68.3460  227.6229 H   0  0  0  0  0  0  0  0  0  0  0  0
  139.9484   66.9510  227.2417 H   0  0  0  0  0  0  0  0  0  0  0  0
  140.6758   69.0220  228.7191 H   0  0  0  0  0  0  0  0  0  0  0  0
  141.7839   68.1108  227.5701 H   0  0  0  0  0  0  0  0  0  0  0  0
  141.6517   70.7699  227.6801 H   0  0  0  0  0  0  0  0  0  0  0  0
  142.0226   69.8393  226.1970 H   0  0  0  0  0  0  0  0  0  0  0  0
  139.1751   70.6644  227.0413 H   0  0  0  0  0  0  0  0  0  0  0  0
  140.1513   71.5971  225.8947 H   0  0  0  0  0  0  0  0  0  0  0  0
  140.4809   71.8138  223.8869 H   0  0  0  0  0  0  0  0  0  0  0  0
  142.4004   73.0546  220.1417 H   0  0  0  0  0  0  0  0  0  0  0  0
  142.0118   74.0792  218.6470 H   0  0  0  0  0  0  0  0  0  0  0  0
  144.0111   74.9890  218.5935 H   0  0  0  0  0  0  0  0  0  0  0  0
  143.7020   72.5304  217.8330 H   0  0  0  0  0  0  0  0  0  0  0  0
  145.3969   73.1565  217.9651 H   0  0  0  0  0  0  0  0  0  0  0  0
  144.2373   70.8819  219.2181 H   0  0  0  0  0  0  0  0  0  0  0  0
  145.9039   71.5345  219.3717 H   0  0  0  0  0  0  0  0  0  0  0  0
  144.5090   71.4110  221.4880 H   0  0  0  0  0  0  0  0  0  0  0  0
  145.0944   73.5656  222.2924 H   0  0  0  0  0  0  0  0  0  0  0  0
  146.3859   73.1372  221.1359 H   0  0  0  0  0  0  0  0  0  0  0  0
  144.4071   75.2578  220.9966 H   0  0  0  0  0  0  0  0  0  0  0  0
  145.8227   74.9045  219.9049 H   0  0  0  0  0  0  0  0  0  0  0  0
  1  2  2  0
  2  3  1  0
  3  4  2  0
  4  5  1  0
  5  6  1  0
  5  7  2  0
  7  8  1  0
  8  9  2  0
  9 10  1  0
 10 11  2  0
 11 12  1  0
 12 13  2  0
 13 14  1  0
 14 15  2  0
 15 16  1  0
 16 17  2  0
 17 18  1  0
 18 19  1  0
 19 20  1  0
 20 21  1  0
 21 22  1  0
 22 23  1  0
 23 24  1  0
 18 25  2  0
 11 26  1  0
 26 27  1  0
 27 28  1  0
 28 29  1  0
 29 30  1  0
 30 31  1  0
 31 32  1  0
 32 33  1  0
 26  2  1  0
 33 28  1  0
  9  3  1  0
 25 14  1  0
 24 19  1  0
  4 34  1  0
  7 35  1  0
  8 36  1  0
 12 37  1  0
 13 38  1  0
 15 39  1  0
 16 40  1  0
 17 41  1  0
 20 42  1  0
 20 43  1  0
 21 44  1  0
 21 45  1  0
 22 46  1  0
 22 47  1  0
 23 48  1  0
 23 49  1  0
 24 50  1  0
 24 51  1  0
 25 52  1  0
 27 53  1  0
 27 54  1  0
 28 55  1  0
 29 56  1  0
 29 57  1  0
 30 58  1  0
 30 59  1  0
 31 60  1  0
 32 61  1  0
 32 62  1  0
 33 63  1  0
 33 64  1  0
M  END
>  <smiles>  (15) 
O=c1c2cc(Cl)ccc2nc(/C=C/c2cccc(N3CCCCC3)c2)n1CC1CCNCC1

>  <score_type>  (15) 
oracle

>  <origin>  (15) 
autodockgpu

>  <m_score__min__energy>  (15) 
-9.8300000000000001

>  <m_primary>  (15) 
energy

>  <rmsd>  (15) 
11.056929495851687

>  <m_score__min__rmsd>  (15) 
11.056929495851687

>  <meeko>  (15) 
{"free_energy": -8.6, "intermolecular_energy": -10.39, "internal_energy": -1.56, "cluster_size": 14, "cluster_id": 1, "rank_in_cluster": 13}

>  <energy>  (15) 
-9.14

>  <cluster_rmsd>  (15) 
0.0

>  <cluster>  (15) 
2

$$$$

     RDKit          3D

 64 68  0  0  0  0  0  0  0  0999 V2000
  143.2620   76.4810  219.5190 O   0  0  0  0  0  0  0  0  0  0  0  0
  142.3790   75.9890  220.2930 C   0  0  0  0  0  0  0  0  0  0  0  0
  141.6580   76.9080  221.0300 C   0  0  0  0  0  0  0  0  0  0  0  0
  141.8790   78.2680  220.9350 C   0  0  0  0  0  0  0  0  0  0  0  0
  141.1370   79.1680  221.6900 C   0  0  0  0  0  0  0  0  0  0  0  0
  141.3920   80.9000  221.5900 Cl  0  0  0  0  0  0  0  0  0  0  0  0
  140.1610   78.7150  222.5540 C   0  0  0  0  0  0  0  0  0  0  0  0
  139.9310   77.3600  222.6580 C   0  0  0  0  0  0  0  0  0  0  0  0
  140.6750   76.4740  221.9020 C   0  0  0  0  0  0  0  0  0  0  0  0
  140.4850   75.1430  221.9710 N   0  0  0  0  0  0  0  0  0  0  0  0
  141.1980   74.2650  221.2450 C   0  0  0  0  0  0  0  0  0  0  0  0
  140.9060   72.8250  221.3990 C   0  0  0  0  0  0  0  0  0  0  0  0
  139.7010   72.4270  221.7640 C   0  0  0  0  0  0  0  0  0  0  0  0
  139.4290   71.1990  222.4780 C   0  0  0  0  0  0  0  0  0  0  0  0
  138.6460   70.1980  221.9640 C   0  0  0  0  0  0  0  0  0  0  0  0
  138.3930   69.0150  222.6700 C   0  0  0  0  0  0  0  0  0  0  0  0
  138.9640   68.8670  223.9360 C   0  0  0  0  0  0  0  0  0  0  0  0
  139.7550   69.8600  224.4740 C   0  0  0  0  0  0  0  0  0  0  0  0
  140.2980   69.6360  225.7630 N   0  0  0  0  0  0  0  0  0  0  0  0
  140.3390   70.7500  226.6900 C   0  0  0  0  0  0  0  0  0  0  0  0
  141.0430   70.4150  227.9680 C   0  0  0  0  0  0  0  0  0  0  0  0
  140.6130   69.1070  228.5600 C   0  0  0  0  0  0  0  0  0  0  0  0
  140.1300   68.0990  227.5720 C   0  0  0  0  0  0  0  0  0  0  0  0
  140.8150   68.3690  226.2260 C   0  0  0  0  0  0  0  0  0  0  0  0
  139.9670   70.9990  223.7310 C   0  0  0  0  0  0  0  0  0  0  0  0
  142.1700   74.6540  220.3790 N   0  0  0  0  0  0  0  0  0  0  0  0
  142.9360   73.7270  219.6130 C   0  0  0  0  0  0  0  0  0  0  0  0
  143.7630   72.7530  220.3700 C   0  0  0  0  0  0  0  0  0  0  0  0
  144.8550   73.4510  221.1880 C   0  0  0  0  0  0  0  0  0  0  0  0
  146.0530   73.7620  220.3500 C   0  0  0  0  0  0  0  0  0  0  0  0
  145.8080   73.3450  218.9820 N   0  0  0  0  0  0  0  0  0  0  0  0
  145.5740   71.9300  218.8540 C   0  0  0  0  0  0  0  0  0  0  0  0
  144.3060   71.5960  219.6080 C   0  0  0  0  0  0  0  0  0  0  0  0
  142.6542   78.6444  220.2513 H   0  0  0  0  0  0  0  0  0  0  0  0
  139.5736   79.4268  223.1526 H   0  0  0  0  0  0  0  0  0  0  0  0
  139.1560   76.9841  223.3421 H   0  0  0  0  0  0  0  0  0  0  0  0
  141.6947   72.0822  221.2090 H   0  0  0  0  0  0  0  0  0  0  0  0
  138.8476   73.0721  221.5081 H   0  0  0  0  0  0  0  0  0  0  0  0
  138.2025   70.3279  220.9658 H   0  0  0  0  0  0  0  0  0  0  0  0
  137.7617   68.2240  222.2390 H   0  0  0  0  0  0  0  0  0  0  0  0
  138.7805   67.9472  224.5108 H   0  0  0  0  0  0  0  0  0  0  0  0
  140.8638   71.5885  226.2089 H   0  0  0  0  0  0  0  0  0  0  0  0
  139.3003   71.0098  226.9421 H   0  0  0  0  0  0  0  0  0  0  0  0
  142.1238   70.3689  227.7688 H   0  0  0  0  0  0  0  0  0  0  0  0
  140.7869   71.1999  228.6949 H   0  0  0  0  0  0  0  0  0  0  0  0
  141.4713   68.6759  229.0961 H   0  0  0  0  0  0  0  0  0  0  0  0
  139.7583   69.3310  229.2152 H   0  0  0  0  0  0  0  0  0  0  0  0
  140.3832   67.0869  227.9207 H   0  0  0  0  0  0  0  0  0  0  0  0
  139.0382   68.1737  227.4608 H   0  0  0  0  0  0  0  0  0  0  0  0
  141.9057   68.4261  226.3569 H   0  0  0  0  0  0  0  0  0  0  0  0
  140.6149   67.5640  225.5035 H   0  0  0  0  0  0  0  0  0  0  0  0
  140.5987   71.7910  224.1596 H   0  0  0  0  0  0  0  0  0  0  0  0
  142.2358   73.1536  218.9878 H   0  0  0  0  0  0  0  0  0  0  0  0
  143.6565   74.3423  219.0541 H   0  0  0  0  0  0  0  0  0  0  0  0
  143.0361   72.2870  221.0515 H   0  0  0  0  0  0  0  0  0  0  0  0
  144.4511   74.3892  221.5963 H   0  0  0  0  0  0  0  0  0  0  0  0
  145.1662   72.7737  221.9970 H   0  0  0  0  0  0  0  0  0  0  0  0
  146.2463   74.8446  220.3743 H   0  0  0  0  0  0  0  0  0  0  0  0
  146.9271   73.2244  220.7462 H   0  0  0  0  0  0  0  0  0  0  0  0
  146.4620   73.7530  218.3080 H   0  0  0  0  0  0  0  0  0  0  0  0
  145.4579   71.6653  217.7927 H   0  0  0  0  0  0  0  0  0  0  0  0
  146.4230   71.3636  219.2642 H   0  0  0  0  0  0  0  0  0  0  0  0
  143.5457   71.2634  218.8860 H   0  0  0  0  0  0  0  0  0  0  0  0
  144.5524   70.8084  220.3353 H   0  0  0  0  0  0  0  0  0  0  0  0
  1  2  2  0
  2  3  1  0
  3  4  2  0
  4  5  1  0
  5  6  1  0
  5  7  2  0
  7  8  1  0
  8  9  2  0
  9 10  1  0
 10 11  2  0
 11 12  1  0
 12 13  2  0
 13 14  1  0
 14 15  2  0
 15 16  1  0
 16 17  2  0
 17 18  1  0
 18 19  1  0
 19 20  1  0
 20 21  1  0
 21 22  1  0
 22 23  1  0
 23 24  1  0
 18 25  2  0
 11 26  1  0
 26 27  1  0
 27 28  1  0
 28 29  1  0
 29 30  1  0
 30 31  1  0
 31 32  1  0
 32 33  1  0
 26  2  1  0
 33 28  1  0
  9  3  1  0
 25 14  1  0
 24 19  1  0
  4 34  1  0
  7 35  1  0
  8 36  1  0
 12 37  1  0
 13 38  1  0
 15 39  1  0
 16 40  1  0
 17 41  1  0
 20 42  1  0
 20 43  1  0
 21 44  1  0
 21 45  1  0
 22 46  1  0
 22 47  1  0
 23 48  1  0
 23 49  1  0
 24 50  1  0
 24 51  1  0
 25 52  1  0
 27 53  1  0
 27 54  1  0
 28 55  1  0
 29 56  1  0
 29 57  1  0
 30 58  1  0
 30 59  1  0
 31 60  1  0
 32 61  1  0
 32 62  1  0
 33 63  1  0
 33 64  1  0
M  END
>  <smiles>  (16) 
O=c1c2cc(Cl)ccc2nc(/C=C/c2cccc(N3CCCCC3)c2)n1CC1CCNCC1

>  <score_type>  (16) 
oracle

>  <origin>  (16) 
autodockgpu

>  <m_score__min__energy>  (16) 
-9.8300000000000001

>  <m_primary>  (16) 
energy

>  <rmsd>  (16) 
11.452485719061993

>  <m_score__min__rmsd>  (16) 
11.452485719061993

>  <meeko>  (16) 
{"free_energy": -9.83, "intermolecular_energy": -11.62, "internal_energy": -1.44, "cluster_size": 14, "cluster_id": 1, "rank_in_cluster": 1}

>  <energy>  (16) 
-9.14

>  <cluster_rmsd>  (16) 
0.88

>  <cluster>  (16) 
2

$$$$

     RDKit          3D

 64 68  0  0  0  0  0  0  0  0999 V2000
  143.0140   76.3200  219.1830 O   0  0  0  0  0  0  0  0  0  0  0  0
  142.1870   75.9190  220.0640 C   0  0  0  0  0  0  0  0  0  0  0  0
  141.7020   76.8960  220.9110 C   0  0  0  0  0  0  0  0  0  0  0  0
  142.0860   78.2190  220.8100 C   0  0  0  0  0  0  0  0  0  0  0  0
  141.5810   79.1790  221.6770 C   0  0  0  0  0  0  0  0  0  0  0  0
  142.0480   80.8660  221.5740 Cl  0  0  0  0  0  0  0  0  0  0  0  0
  140.6800   78.8250  222.6620 C   0  0  0  0  0  0  0  0  0  0  0  0
  140.2890   77.5080  222.7730 C   0  0  0  0  0  0  0  0  0  0  0  0
  140.7980   76.5610  221.9040 C   0  0  0  0  0  0  0  0  0  0  0  0
  140.4440   75.2650  221.9760 N   0  0  0  0  0  0  0  0  0  0  0  0
  140.9270   74.3280  221.1410 C   0  0  0  0  0  0  0  0  0  0  0  0
  140.4710   72.9340  221.3090 C   0  0  0  0  0  0  0  0  0  0  0  0
  139.6080   72.6270  222.2600 C   0  0  0  0  0  0  0  0  0  0  0  0
  139.4580   71.3080  222.8320 C   0  0  0  0  0  0  0  0  0  0  0  0
  138.8140   70.2850  222.1830 C   0  0  0  0  0  0  0  0  0  0  0  0
  138.6780   69.0120  222.7510 C   0  0  0  0  0  0  0  0  0  0  0  0
  139.2210   68.7950  224.0200 C   0  0  0  0  0  0  0  0  0  0  0  0
  139.8740   69.8070  224.6920 C   0  0  0  0  0  0  0  0  0  0  0  0
  140.3970   69.5090  225.9740 N   0  0  0  0  0  0  0  0  0  0  0  0
  140.3810   70.5540  226.9780 C   0  0  0  0  0  0  0  0  0  0  0  0
  141.0680   70.1510  228.2460 C   0  0  0  0  0  0  0  0  0  0  0  0
  140.6720   68.7900  228.7320 C   0  0  0  0  0  0  0  0  0  0  0  0
  140.2450   67.8410  227.6640 C   0  0  0  0  0  0  0  0  0  0  0  0
  140.9480   68.2290  226.3570 C   0  0  0  0  0  0  0  0  0  0  0  0
  139.9750   71.0360  224.0800 C   0  0  0  0  0  0  0  0  0  0  0  0
  141.8160   74.6190  220.1550 N   0  0  0  0  0  0  0  0  0  0  0  0
  142.3400   73.6290  219.2720 C   0  0  0  0  0  0  0  0  0  0  0  0
  143.1890   72.5730  219.8790 C   0  0  0  0  0  0  0  0  0  0  0  0
  144.1520   73.1490  220.9230 C   0  0  0  0  0  0  0  0  0  0  0  0
  145.3780   73.7170  220.2840 C   0  0  0  0  0  0  0  0  0  0  0  0
  145.2730   73.5920  218.8420 N   0  0  0  0  0  0  0  0  0  0  0  0
  145.1730   72.2270  218.3960 C   0  0  0  0  0  0  0  0  0  0  0  0
  143.8860   71.6500  218.9430 C   0  0  0  0  0  0  0  0  0  0  0  0
  142.8030   78.5167  220.0307 H   0  0  0  0  0  0  0  0  0  0  0  0
  140.2794   79.5846  223.3494 H   0  0  0  0  0  0  0  0  0  0  0  0
  139.5723   77.2106  223.5527 H   0  0  0  0  0  0  0  0  0  0  0  0
  140.8515   72.1484  220.6396 H   0  0  0  0  0  0  0  0  0  0  0  0
  138.9596   73.4289  222.6427 H   0  0  0  0  0  0  0  0  0  0  0  0
  138.3910   70.4706  221.1847 H   0  0  0  0  0  0  0  0  0  0  0  0
  138.1582   68.2055  222.2131 H   0  0  0  0  0  0  0  0  0  0  0  0
  139.1265   67.8045  224.4890 H   0  0  0  0  0  0  0  0  0  0  0  0
  140.8879   71.4410  226.5702 H   0  0  0  0  0  0  0  0  0  0  0  0
  139.3290   70.7618  227.2229 H   0  0  0  0  0  0  0  0  0  0  0  0
  142.1539   70.1561  228.0708 H   0  0  0  0  0  0  0  0  0  0  0  0
  140.7678   70.8720  229.0207 H   0  0  0  0  0  0  0  0  0  0  0  0
  141.5337   68.3501  229.2553 H   0  0  0  0  0  0  0  0  0  0  0  0
  139.7965   68.9373  229.3815 H   0  0  0  0  0  0  0  0  0  0  0  0
  140.5254   66.8153  227.9456 H   0  0  0  0  0  0  0  0  0  0  0  0
  139.1539   67.8881  227.5329 H   0  0  0  0  0  0  0  0  0  0  0  0
  142.0332   68.3122  226.5166 H   0  0  0  0  0  0  0  0  0  0  0  0
  140.7909   67.4720  225.5745 H   0  0  0  0  0  0  0  0  0  0  0  0
  140.4959   71.8434  224.6155 H   0  0  0  0  0  0  0  0  0  0  0  0
  141.4876   73.1321  218.7856 H   0  0  0  0  0  0  0  0  0  0  0  0
  143.0058   74.1762  218.5884 H   0  0  0  0  0  0  0  0  0  0  0  0
  142.4560   71.9213  220.3771 H   0  0  0  0  0  0  0  0  0  0  0  0
  143.6386   73.9454  221.4817 H   0  0  0  0  0  0  0  0  0  0  0  0
  144.4594   72.3343  221.5951 H   0  0  0  0  0  0  0  0  0  0  0  0
  145.4740   74.7790  220.5541 H   0  0  0  0  0  0  0  0  0  0  0  0
  146.2636   73.1680  220.6365 H   0  0  0  0  0  0  0  0  0  0  0  0
  145.9380   74.1820  218.3330 H   0  0  0  0  0  0  0  0  0  0  0  0
  145.1596   72.1934  217.2966 H   0  0  0  0  0  0  0  0  0  0  0  0
  146.0352   71.6442  218.7525 H   0  0  0  0  0  0  0  0  0  0  0  0
  143.2136   71.4310  218.1004 H   0  0  0  0  0  0  0  0  0  0  0  0
  144.1451   70.7418  219.5070 H   0  0  0  0  0  0  0  0  0  0  0  0
  1  2  2  0
  2  3  1  0
  3  4  2  0
  4  5  1  0
  5  6  1  0
  5  7  2  0
  7  8  1  0
  8  9  2  0
  9 10  1  0
 10 11  2  0
 11 12  1  0
 12 13  2  0
 13 14  1  0
 14 15  2  0
 15 16  1  0
 16 17  2  0
 17 18  1  0
 18 19  1  0
 19 20  1  0
 20 21  1  0
 21 22  1  0
 22 23  1  0
 23 24  1  0
 18 25  2  0
 11 26  1  0
 26 27  1  0
 27 28  1  0
 28 29  1  0
 29 30  1  0
 30 31  1  0
 31 32  1  0
 32 33  1  0
 26  2  1  0
 33 28  1  0
  9  3  1  0
 25 14  1  0
 24 19  1  0
  4 34  1  0
  7 35  1  0
  8 36  1  0
 12 37  1  0
 13 38  1  0
 15 39  1  0
 16 40  1  0
 17 41  1  0
 20 42  1  0
 20 43  1  0
 21 44  1  0
 21 45  1  0
 22 46  1  0
 22 47  1  0
 23 48  1  0
 23 49  1  0
 24 50  1  0
 24 51  1  0
 25 52  1  0
 27 53  1  0
 27 54  1  0
 28 55  1  0
 29 56  1  0
 29 57  1  0
 30 58  1  0
 30 59  1  0
 31 60  1  0
 32 61  1  0
 32 62  1  0
 33 63  1  0
 33 64  1  0
M  END
>  <smiles>  (17) 
O=c1c2cc(Cl)ccc2nc(/C=C/c2cccc(N3CCCCC3)c2)n1CC1CCNCC1

>  <score_type>  (17) 
oracle

>  <origin>  (17) 
autodockgpu

>  <m_score__min__energy>  (17) 
-9.8300000000000001

>  <m_primary>  (17) 
energy

>  <rmsd>  (17) 
11.566393473288286

>  <m_score__min__rmsd>  (17) 
11.566393473288286

>  <meeko>  (17) 
{"free_energy": -9.0, "intermolecular_energy": -10.79, "internal_energy": -1.55, "cluster_size": 14, "cluster_id": 1, "rank_in_cluster": 8}

>  <energy>  (17) 
-9.12

>  <cluster_rmsd>  (17) 
0.87

>  <cluster>  (17) 
2

$$$$

     RDKit          3D

 64 68  0  0  0  0  0  0  0  0999 V2000
  141.8300   77.9180  220.3460 O   0  0  0  0  0  0  0  0  0  0  0  0
  141.0800   77.1150  220.9900 C   0  0  0  0  0  0  0  0  0  0  0  0
  141.4830   75.7940  220.9850 C   0  0  0  0  0  0  0  0  0  0  0  0
  142.6210   75.3710  220.3270 C   0  0  0  0  0  0  0  0  0  0  0  0
  143.0010   74.0350  220.3390 C   0  0  0  0  0  0  0  0  0  0  0  0
  144.4400   73.4670  219.5150 Cl  0  0  0  0  0  0  0  0  0  0  0  0
  142.2410   73.1000  221.0130 C   0  0  0  0  0  0  0  0  0  0  0  0
  141.1030   73.5100  221.6740 C   0  0  0  0  0  0  0  0  0  0  0  0
  140.7350   74.8420  221.6540 C   0  0  0  0  0  0  0  0  0  0  0  0
  139.6320   75.2860  222.2850 N   0  0  0  0  0  0  0  0  0  0  0  0
  139.2570   76.5770  222.2790 C   0  0  0  0  0  0  0  0  0  0  0  0
  138.0270   76.9550  223.0050 C   0  0  0  0  0  0  0  0  0  0  0  0
  136.8590   76.4650  222.6330 C   0  0  0  0  0  0  0  0  0  0  0  0
  136.3360   75.1870  223.0600 C   0  0  0  0  0  0  0  0  0  0  0  0
  136.6550   74.0080  222.4370 C   0  0  0  0  0  0  0  0  0  0  0  0
  136.1390   72.7770  222.8650 C   0  0  0  0  0  0  0  0  0  0  0  0
  135.2740   72.7700  223.9620 C   0  0  0  0  0  0  0  0  0  0  0  0
  134.9390   73.9430  224.6040 C   0  0  0  0  0  0  0  0  0  0  0  0
  134.0560   73.8530  225.7080 N   0  0  0  0  0  0  0  0  0  0  0  0
  133.3300   75.0450  226.1010 C   0  0  0  0  0  0  0  0  0  0  0  0
  132.5260   74.8500  227.3490 C   0  0  0  0  0  0  0  0  0  0  0  0
  131.7240   73.5840  227.3490 C   0  0  0  0  0  0  0  0  0  0  0  0
  132.2990   72.4760  226.5330 C   0  0  0  0  0  0  0  0  0  0  0  0
  133.8220   72.6520  226.4760 C   0  0  0  0  0  0  0  0  0  0  0  0
  135.4780   75.1200  224.1370 C   0  0  0  0  0  0  0  0  0  0  0  0
  139.9660   77.5390  221.6320 N   0  0  0  0  0  0  0  0  0  0  0  0
  139.5680   78.9080  221.6140 C   0  0  0  0  0  0  0  0  0  0  0  0
  139.9390   79.7300  222.7940 C   0  0  0  0  0  0  0  0  0  0  0  0
  140.5230   81.0850  222.3810 C   0  0  0  0  0  0  0  0  0  0  0  0
  141.9760   80.9770  222.0450 C   0  0  0  0  0  0  0  0  0  0  0  0
  142.3980   79.5950  222.1690 N   0  0  0  0  0  0  0  0  0  0  0  0
  142.2460   79.0720  223.5010 C   0  0  0  0  0  0  0  0  0  0  0  0
  140.7710   79.0710  223.8370 C   0  0  0  0  0  0  0  0  0  0  0  0
  143.2365   76.1038  219.7846 H   0  0  0  0  0  0  0  0  0  0  0  0
  142.5398   72.0414  221.0224 H   0  0  0  0  0  0  0  0  0  0  0  0
  140.4880   72.7773  222.2171 H   0  0  0  0  0  0  0  0  0  0  0  0
  138.0846   77.6469  223.8582 H   0  0  0  0  0  0  0  0  0  0  0  0
  136.2422   77.0701  221.9522 H   0  0  0  0  0  0  0  0  0  0  0  0
  137.3372   74.0288  221.5743 H   0  0  0  0  0  0  0  0  0  0  0  0
  136.4078   71.8422  222.3513 H   0  0  0  0  0  0  0  0  0  0  0  0
  134.8552   71.8171  224.3177 H   0  0  0  0  0  0  0  0  0  0  0  0
  134.0528   75.8564  226.2719 H   0  0  0  0  0  0  0  0  0  0  0  0
  132.6281   75.2877  225.2896 H   0  0  0  0  0  0  0  0  0  0  0  0
  133.2141   74.8268  228.2069 H   0  0  0  0  0  0  0  0  0  0  0  0
  131.8133   75.6857  227.4099 H   0  0  0  0  0  0  0  0  0  0  0  0
  131.6382   73.2339  228.3883 H   0  0  0  0  0  0  0  0  0  0  0  0
  130.7550   73.8329  226.8918 H   0  0  0  0  0  0  0  0  0  0  0  0
  132.0545   71.5087  226.9962 H   0  0  0  0  0  0  0  0  0  0  0  0
  131.8789   72.4997  225.5167 H   0  0  0  0  0  0  0  0  0  0  0  0
  134.2323   72.7613  227.4907 H   0  0  0  0  0  0  0  0  0  0  0  0
  134.3114   71.7796  226.0184 H   0  0  0  0  0  0  0  0  0  0  0  0
  135.2104   76.0558  224.6496 H   0  0  0  0  0  0  0  0  0  0  0  0
  140.0222   79.3747  220.7275 H   0  0  0  0  0  0  0  0  0  0  0  0
  138.4682   78.8874  221.6125 H   0  0  0  0  0  0  0  0  0  0  0  0
  138.9753   79.8863  223.3009 H   0  0  0  0  0  0  0  0  0  0  0  0
  139.9789   81.4547  221.4994 H   0  0  0  0  0  0  0  0  0  0  0  0
  140.4156   81.7791  223.2275 H   0  0  0  0  0  0  0  0  0  0  0  0
  142.1404   81.3196  221.0127 H   0  0  0  0  0  0  0  0  0  0  0  0
  142.5602   81.6028  222.7357 H   0  0  0  0  0  0  0  0  0  0  0  0
  143.2940   79.4000  221.7120 H   0  0  0  0  0  0  0  0  0  0  0  0
  142.6400   78.0460  223.5465 H   0  0  0  0  0  0  0  0  0  0  0  0
  142.8015   79.6914  224.2206 H   0  0  0  0  0  0  0  0  0  0  0  0
  140.4366   78.0288  223.9460 H   0  0  0  0  0  0  0  0  0  0  0  0
  140.6444   79.6412  224.7691 H   0  0  0  0  0  0  0  0  0  0  0  0
  1  2  2  0
  2  3  1  0
  3  4  2  0
  4  5  1  0
  5  6  1  0
  5  7  2  0
  7  8  1  0
  8  9  2  0
  9 10  1  0
 10 11  2  0
 11 12  1  0
 12 13  2  0
 13 14  1  0
 14 15  2  0
 15 16  1  0
 16 17  2  0
 17 18  1  0
 18 19  1  0
 19 20  1  0
 20 21  1  0
 21 22  1  0
 22 23  1  0
 23 24  1  0
 18 25  2  0
 11 26  1  0
 26 27  1  0
 27 28  1  0
 28 29  1  0
 29 30  1  0
 30 31  1  0
 31 32  1  0
 32 33  1  0
 26  2  1  0
 33 28  1  0
  9  3  1  0
 25 14  1  0
 24 19  1  0
  4 34  1  0
  7 35  1  0
  8 36  1  0
 12 37  1  0
 13 38  1  0
 15 39  1  0
 16 40  1  0
 17 41  1  0
 20 42  1  0
 20 43  1  0
 21 44  1  0
 21 45  1  0
 22 46  1  0
 22 47  1  0
 23 48  1  0
 23 49  1  0
 24 50  1  0
 24 51  1  0
 25 52  1  0
 27 53  1  0
 27 54  1  0
 28 55  1  0
 29 56  1  0
 29 57  1  0
 30 58  1  0
 30 59  1  0
 31 60  1  0
 32 61  1  0
 32 62  1  0
 33 63  1  0
 33 64  1  0
M  END
>  <smiles>  (18) 
O=c1c2cc(Cl)ccc2nc(/C=C/c2cccc(N3CCCCC3)c2)n1CC1CCNCC1

>  <score_type>  (18) 
oracle

>  <origin>  (18) 
autodockgpu

>  <m_score__min__energy>  (18) 
-9.8300000000000001

>  <m_primary>  (18) 
energy

>  <rmsd>  (18) 
10.448212629783056

>  <m_score__min__rmsd>  (18) 
10.448212629783056

>  <meeko>  (18) 
{"free_energy": -8.23, "intermolecular_energy": -10.02, "internal_energy": -2.0, "cluster_size": 3, "cluster_id": 3, "rank_in_cluster": 3}

>  <energy>  (18) 
-9.1

>  <cluster_rmsd>  (18) 
0.39

>  <cluster>  (18) 
2

$$$$

     RDKit          3D

 64 68  0  0  0  0  0  0  0  0999 V2000
  142.7640   76.3630  218.7640 O   0  0  0  0  0  0  0  0  0  0  0  0
  142.1360   76.0060  219.8130 C   0  0  0  0  0  0  0  0  0  0  0  0
  141.6310   77.0360  220.5810 C   0  0  0  0  0  0  0  0  0  0  0  0
  141.7940   78.3640  220.2360 C   0  0  0  0  0  0  0  0  0  0  0  0
  141.2740   79.3790  221.0300 C   0  0  0  0  0  0  0  0  0  0  0  0
  141.4620   81.0720  220.6190 Cl  0  0  0  0  0  0  0  0  0  0  0  0
  140.5800   79.0750  222.1840 C   0  0  0  0  0  0  0  0  0  0  0  0
  140.4110   77.7540  222.5390 C   0  0  0  0  0  0  0  0  0  0  0  0
  140.9330   76.7530  221.7420 C   0  0  0  0  0  0  0  0  0  0  0  0
  140.7920   75.4500  222.0500 N   0  0  0  0  0  0  0  0  0  0  0  0
  141.2910   74.4610  221.2890 C   0  0  0  0  0  0  0  0  0  0  0  0
  141.0770   73.0660  221.7200 C   0  0  0  0  0  0  0  0  0  0  0  0
  140.0400   72.7550  222.4760 C   0  0  0  0  0  0  0  0  0  0  0  0
  139.7200   71.4140  222.9120 C   0  0  0  0  0  0  0  0  0  0  0  0
  139.1230   70.4890  222.0950 C   0  0  0  0  0  0  0  0  0  0  0  0
  138.8200   69.1940  222.5340 C   0  0  0  0  0  0  0  0  0  0  0  0
  139.1440   68.8510  223.8490 C   0  0  0  0  0  0  0  0  0  0  0  0
  139.7460   69.7640  224.6890 C   0  0  0  0  0  0  0  0  0  0  0  0
  140.0420   69.3400  226.0080 N   0  0  0  0  0  0  0  0  0  0  0  0
  140.8690   68.1620  226.1780 C   0  0  0  0  0  0  0  0  0  0  0  0
  141.0070   67.7520  227.6110 C   0  0  0  0  0  0  0  0  0  0  0  0
  141.3240   68.8920  228.5290 C   0  0  0  0  0  0  0  0  0  0  0  0
  140.8220   70.2220  228.0760 C   0  0  0  0  0  0  0  0  0  0  0  0
  139.5780   70.0030  227.2050 C   0  0  0  0  0  0  0  0  0  0  0  0
  140.0180   71.0200  224.1990 C   0  0  0  0  0  0  0  0  0  0  0  0
  141.9810   74.7010  220.1420 N   0  0  0  0  0  0  0  0  0  0  0  0
  142.5220   73.6580  219.3350 C   0  0  0  0  0  0  0  0  0  0  0  0
  143.9810   73.7100  219.0610 C   0  0  0  0  0  0  0  0  0  0  0  0
  144.4980   72.3870  218.4870 C   0  0  0  0  0  0  0  0  0  0  0  0
  144.7730   71.3900  219.5660 C   0  0  0  0  0  0  0  0  0  0  0  0
  144.4230   71.9620  220.8530 N   0  0  0  0  0  0  0  0  0  0  0  0
  145.1870   73.1390  221.1770 C   0  0  0  0  0  0  0  0  0  0  0  0
  144.8540   74.2070  220.1590 C   0  0  0  0  0  0  0  0  0  0  0  0
  142.3438   78.6217  219.3188 H   0  0  0  0  0  0  0  0  0  0  0  0
  140.1668   79.8775  222.8127 H   0  0  0  0  0  0  0  0  0  0  0  0
  139.8609   77.4967  223.4562 H   0  0  0  0  0  0  0  0  0  0  0  0
  141.7840   72.2823  221.4103 H   0  0  0  0  0  0  0  0  0  0  0  0
  139.3749   73.5708  222.7955 H   0  0  0  0  0  0  0  0  0  0  0  0
  138.8741   70.7729  221.0618 H   0  0  0  0  0  0  0  0  0  0  0  0
  138.3403   68.4671  221.8621 H   0  0  0  0  0  0  0  0  0  0  0  0
  138.9161   67.8404  224.2188 H   0  0  0  0  0  0  0  0  0  0  0  0
  140.4167   67.3311  225.6167 H   0  0  0  0  0  0  0  0  0  0  0  0
  141.8746   68.4067  225.8052 H   0  0  0  0  0  0  0  0  0  0  0  0
  140.0601   67.2960  227.9357 H   0  0  0  0  0  0  0  0  0  0  0  0
  141.8494   67.0468  227.6668 H   0  0  0  0  0  0  0  0  0  0  0  0
  140.8776   68.6745  229.5105 H   0  0  0  0  0  0  0  0  0  0  0  0
  142.4209   68.9696  228.5569 H   0  0  0  0  0  0  0  0  0  0  0  0
  140.5595   70.8366  228.9497 H   0  0  0  0  0  0  0  0  0  0  0  0
  141.6003   70.7410  227.4972 H   0  0  0  0  0  0  0  0  0  0  0  0
  138.8480   69.3719  227.7330 H   0  0  0  0  0  0  0  0  0  0  0  0
  139.0775   70.9541  226.9707 H   0  0  0  0  0  0  0  0  0  0  0  0
  140.4984   71.7482  224.8690 H   0  0  0  0  0  0  0  0  0  0  0  0
  142.3124   72.7037  219.8404 H   0  0  0  0  0  0  0  0  0  0  0  0
  142.0408   73.7757  218.3529 H   0  0  0  0  0  0  0  0  0  0  0  0
  144.0621   74.4975  218.2973 H   0  0  0  0  0  0  0  0  0  0  0  0
  143.7412   71.9742  217.8038 H   0  0  0  0  0  0  0  0  0  0  0  0
  145.4397   72.5871  217.9549 H   0  0  0  0  0  0  0  0  0  0  0  0
  144.1723   70.4853  219.3912 H   0  0  0  0  0  0  0  0  0  0  0  0
  145.8412   71.1275  219.5594 H   0  0  0  0  0  0  0  0  0  0  0  0
  144.3360   71.2660  221.5990 H   0  0  0  0  0  0  0  0  0  0  0  0
  144.9230   73.4895  222.1857 H   0  0  0  0  0  0  0  0  0  0  0  0
  146.2635   72.9136  221.1564 H   0  0  0  0  0  0  0  0  0  0  0  0
  144.3374   75.0316  220.6719 H   0  0  0  0  0  0  0  0  0  0  0  0
  145.8003   74.5357  219.7046 H   0  0  0  0  0  0  0  0  0  0  0  0
  1  2  2  0
  2  3  1  0
  3  4  2  0
  4  5  1  0
  5  6  1  0
  5  7  2  0
  7  8  1  0
  8  9  2  0
  9 10  1  0
 10 11  2  0
 11 12  1  0
 12 13  2  0
 13 14  1  0
 14 15  2  0
 15 16  1  0
 16 17  2  0
 17 18  1  0
 18 19  1  0
 19 20  1  0
 20 21  1  0
 21 22  1  0
 22 23  1  0
 23 24  1  0
 18 25  2  0
 11 26  1  0
 26 27  1  0
 27 28  1  0
 28 29  1  0
 29 30  1  0
 30 31  1  0
 31 32  1  0
 32 33  1  0
 26  2  1  0
 33 28  1  0
  9  3  1  0
 25 14  1  0
 24 19  1  0
  4 34  1  0
  7 35  1  0
  8 36  1  0
 12 37  1  0
 13 38  1  0
 15 39  1  0
 16 40  1  0
 17 41  1  0
 20 42  1  0
 20 43  1  0
 21 44  1  0
 21 45  1  0
 22 46  1  0
 22 47  1  0
 23 48  1  0
 23 49  1  0
 24 50  1  0
 24 51  1  0
 25 52  1  0
 27 53  1  0
 27 54  1  0
 28 55  1  0
 29 56  1  0
 29 57  1  0
 30 58  1  0
 30 59  1  0
 31 60  1  0
 32 61  1  0
 32 62  1  0
 33 63  1  0
 33 64  1  0
M  END
>  <smiles>  (19) 
O=c1c2cc(Cl)ccc2nc(/C=C/c2cccc(N3CCCCC3)c2)n1CC1CCNCC1

>  <score_type>  (19) 
oracle

>  <origin>  (19) 
autodockgpu

>  <m_score__min__energy>  (19) 
-9.8300000000000001

>  <m_primary>  (19) 
energy

>  <rmsd>  (19) 
11.4796868730978

>  <m_score__min__rmsd>  (19) 
11.4796868730978

>  <meeko>  (19) 
{"free_energy": -8.85, "intermolecular_energy": -10.64, "internal_energy": -1.54, "cluster_size": 14, "cluster_id": 1, "rank_in_cluster": 9}

>  <energy>  (19) 
-9.09

>  <cluster_rmsd>  (19) 
0.18

>  <cluster>  (19) 
2

$$$$

     RDKit          3D

 64 68  0  0  0  0  0  0  0  0999 V2000
  143.4110   76.5230  219.3260 O   0  0  0  0  0  0  0  0  0  0  0  0
  142.4950   76.1250  220.1160 C   0  0  0  0  0  0  0  0  0  0  0  0
  141.8290   77.1220  220.8020 C   0  0  0  0  0  0  0  0  0  0  0  0
  142.1340   78.4600  220.6420 C   0  0  0  0  0  0  0  0  0  0  0  0
  141.4460   79.4390  221.3470 C   0  0  0  0  0  0  0  0  0  0  0  0
  141.8090   81.1450  221.1650 Cl  0  0  0  0  0  0  0  0  0  0  0  0
  140.4390   79.0900  222.2240 C   0  0  0  0  0  0  0  0  0  0  0  0
  140.1260   77.7590  222.3920 C   0  0  0  0  0  0  0  0  0  0  0  0
  140.8170   76.7930  221.6860 C   0  0  0  0  0  0  0  0  0  0  0  0
  140.5440   75.4810  221.8190 N   0  0  0  0  0  0  0  0  0  0  0  0
  141.2040   74.5260  221.1410 C   0  0  0  0  0  0  0  0  0  0  0  0
  140.8230   73.1160  221.3630 C   0  0  0  0  0  0  0  0  0  0  0  0
  139.9780   72.8000  222.3280 C   0  0  0  0  0  0  0  0  0  0  0  0
  139.7400   71.4530  222.7950 C   0  0  0  0  0  0  0  0  0  0  0  0
  139.1270   70.4970  222.0250 C   0  0  0  0  0  0  0  0  0  0  0  0
  138.9050   69.1960  222.4930 C   0  0  0  0  0  0  0  0  0  0  0  0
  139.3260   68.8790  223.7870 C   0  0  0  0  0  0  0  0  0  0  0  0
  139.9440   69.8230  224.5790 C   0  0  0  0  0  0  0  0  0  0  0  0
  140.3410   69.4250  225.8790 N   0  0  0  0  0  0  0  0  0  0  0  0
  140.5330   70.4560  226.8810 C   0  0  0  0  0  0  0  0  0  0  0  0
  141.0670   69.9180  228.1720 C   0  0  0  0  0  0  0  0  0  0  0  0
  140.3520   68.6900  228.6470 C   0  0  0  0  0  0  0  0  0  0  0  0
  139.7530   67.8540  227.5670 C   0  0  0  0  0  0  0  0  0  0  0  0
  140.5700   68.0570  226.2840 C   0  0  0  0  0  0  0  0  0  0  0  0
  140.1350   71.0840  224.0630 C   0  0  0  0  0  0  0  0  0  0  0  0
  142.2030   74.8110  220.2650 N   0  0  0  0  0  0  0  0  0  0  0  0
  142.9140   73.8020  219.5510 C   0  0  0  0  0  0  0  0  0  0  0  0
  143.7010   72.8370  220.3600 C   0  0  0  0  0  0  0  0  0  0  0  0
  144.7810   73.5400  221.1900 C   0  0  0  0  0  0  0  0  0  0  0  0
  146.0080   73.8070  220.3790 C   0  0  0  0  0  0  0  0  0  0  0  0
  145.7950   73.3540  219.0170 N   0  0  0  0  0  0  0  0  0  0  0  0
  145.5410   71.9410  218.9220 C   0  0  0  0  0  0  0  0  0  0  0  0
  144.2460   71.6490  219.6480 C   0  0  0  0  0  0  0  0  0  0  0  0
  142.9335   78.7542  219.9460 H   0  0  0  0  0  0  0  0  0  0  0  0
  139.8931   79.8651  222.7819 H   0  0  0  0  0  0  0  0  0  0  0  0
  139.3263   77.4654  223.0879 H   0  0  0  0  0  0  0  0  0  0  0  0
  141.2442   72.3269  220.7228 H   0  0  0  0  0  0  0  0  0  0  0  0
  139.4183   73.6163  222.8081 H   0  0  0  0  0  0  0  0  0  0  0  0
  138.7998   70.7608  221.0085 H   0  0  0  0  0  0  0  0  0  0  0  0
  138.4125   68.4440  221.8590 H   0  0  0  0  0  0  0  0  0  0  0  0
  139.1624   67.8641  224.1784 H   0  0  0  0  0  0  0  0  0  0  0  0
  141.2433   71.1989  226.4892 H   0  0  0  0  0  0  0  0  0  0  0  0
  139.5495   70.9023  227.0897 H   0  0  0  0  0  0  0  0  0  0  0  0
  142.1299   69.6708  228.0335 H   0  0  0  0  0  0  0  0  0  0  0  0
  140.9166   70.6963  228.9347 H   0  0  0  0  0  0  0  0  0  0  0  0
  141.0713   68.0687  229.2007 H   0  0  0  0  0  0  0  0  0  0  0  0
  139.5131   69.0417  229.2656 H   0  0  0  0  0  0  0  0  0  0  0  0
  139.7799   66.7941  227.8602 H   0  0  0  0  0  0  0  0  0  0  0  0
  138.7069   68.1494  227.3983 H   0  0  0  0  0  0  0  0  0  0  0  0
  141.6393   67.8906  226.4813 H   0  0  0  0  0  0  0  0  0  0  0  0
  140.2695   67.3482  225.4983 H   0  0  0  0  0  0  0  0  0  0  0  0
  140.6285   71.8368  224.6952 H   0  0  0  0  0  0  0  0  0  0  0  0
  142.1795   73.2265  218.9685 H   0  0  0  0  0  0  0  0  0  0  0  0
  143.6569   74.3454  218.9486 H   0  0  0  0  0  0  0  0  0  0  0  0
  142.9460   72.4037  221.0325 H   0  0  0  0  0  0  0  0  0  0  0  0
  144.3819   74.4960  221.5597 H   0  0  0  0  0  0  0  0  0  0  0  0
  145.0568   72.8811  222.0265 H   0  0  0  0  0  0  0  0  0  0  0  0
  146.2190   74.8866  220.3777 H   0  0  0  0  0  0  0  0  0  0  0  0
  146.8612   73.2674  220.8159 H   0  0  0  0  0  0  0  0  0  0  0  0
  146.4760   73.7320  218.3510 H   0  0  0  0  0  0  0  0  0  0  0  0
  145.4510   71.6481  217.8655 H   0  0  0  0  0  0  0  0  0  0  0  0
  146.3682   71.3729  219.3725 H   0  0  0  0  0  0  0  0  0  0  0  0
  143.5013   71.3075  218.9140 H   0  0  0  0  0  0  0  0  0  0  0  0
  144.4578   70.8790  220.4045 H   0  0  0  0  0  0  0  0  0  0  0  0
  1  2  2  0
  2  3  1  0
  3  4  2  0
  4  5  1  0
  5  6  1  0
  5  7  2  0
  7  8  1  0
  8  9  2  0
  9 10  1  0
 10 11  2  0
 11 12  1  0
 12 13  2  0
 13 14  1  0
 14 15  2  0
 15 16  1  0
 16 17  2  0
 17 18  1  0
 18 19  1  0
 19 20  1  0
 20 21  1  0
 21 22  1  0
 22 23  1  0
 23 24  1  0
 18 25  2  0
 11 26  1  0
 26 27  1  0
 27 28  1  0
 28 29  1  0
 29 30  1  0
 30 31  1  0
 31 32  1  0
 32 33  1  0
 26  2  1  0
 33 28  1  0
  9  3  1  0
 25 14  1  0
 24 19  1  0
  4 34  1  0
  7 35  1  0
  8 36  1  0
 12 37  1  0
 13 38  1  0
 15 39  1  0
 16 40  1  0
 17 41  1  0
 20 42  1  0
 20 43  1  0
 21 44  1  0
 21 45  1  0
 22 46  1  0
 22 47  1  0
 23 48  1  0
 23 49  1  0
 24 50  1  0
 24 51  1  0
 25 52  1  0
 27 53  1  0
 27 54  1  0
 28 55  1  0
 29 56  1  0
 29 57  1  0
 30 58  1  0
 30 59  1  0
 31 60  1  0
 32 61  1  0
 32 62  1  0
 33 63  1  0
 33 64  1  0
M  END
>  <smiles>  (20) 
O=c1c2cc(Cl)ccc2nc(/C=C/c2cccc(N3CCCCC3)c2)n1CC1CCNCC1

>  <score_type>  (20) 
oracle

>  <origin>  (20) 
autodockgpu

>  <m_score__min__energy>  (20) 
-9.8300000000000001

>  <m_primary>  (20) 
energy

>  <rmsd>  (20) 
11.4921426681286

>  <m_score__min__rmsd>  (20) 
11.4921426681286

>  <meeko>  (20) 
{"free_energy": -9.36, "intermolecular_energy": -11.15, "internal_energy": -1.46, "cluster_size": 14, "cluster_id": 1, "rank_in_cluster": 5}

>  <energy>  (20) 
-9.09

>  <cluster_rmsd>  (20) 
0.9

>  <cluster>  (20) 
2

$$$$

     RDKit          3D

 64 68  0  0  0  0  0  0  0  0999 V2000
  138.4520   68.3480  224.0640 O   0  0  0  0  0  0  0  0  0  0  0  0
  138.9960   69.4970  224.0020 C   0  0  0  0  0  0  0  0  0  0  0  0
  139.7410   69.8620  225.1050 C   0  0  0  0  0  0  0  0  0  0  0  0
  139.8880   69.0370  226.2040 C   0  0  0  0  0  0  0  0  0  0  0  0
  140.6440   69.4320  227.3000 C   0  0  0  0  0  0  0  0  0  0  0  0
  140.8500   68.4070  228.7070 Cl  0  0  0  0  0  0  0  0  0  0  0  0
  141.2660   70.6640  227.3110 C   0  0  0  0  0  0  0  0  0  0  0  0
  141.1270   71.4970  226.2220 C   0  0  0  0  0  0  0  0  0  0  0  0
  140.3720   71.0930  225.1370 C   0  0  0  0  0  0  0  0  0  0  0  0
  140.2100   71.8740  224.0520 N   0  0  0  0  0  0  0  0  0  0  0  0
  139.4800   71.5000  222.9860 C   0  0  0  0  0  0  0  0  0  0  0  0
  139.3680   72.4350  221.8490 C   0  0  0  0  0  0  0  0  0  0  0  0
  140.0290   73.5790  221.8610 C   0  0  0  0  0  0  0  0  0  0  0  0
  139.4110   74.8760  222.0160 C   0  0  0  0  0  0  0  0  0  0  0  0
  138.0520   75.0590  222.0060 C   0  0  0  0  0  0  0  0  0  0  0  0
  137.4690   76.3230  222.1590 C   0  0  0  0  0  0  0  0  0  0  0  0
  138.3150   77.4230  222.3250 C   0  0  0  0  0  0  0  0  0  0  0  0
  139.6850   77.2650  222.3390 C   0  0  0  0  0  0  0  0  0  0  0  0
  140.4740   78.4280  222.5120 N   0  0  0  0  0  0  0  0  0  0  0  0
  141.5010   78.4110  223.5350 C   0  0  0  0  0  0  0  0  0  0  0  0
  142.1800   79.7350  223.6980 C   0  0  0  0  0  0  0  0  0  0  0  0
  142.5840   80.3610  222.3970 C   0  0  0  0  0  0  0  0  0  0  0  0
  141.7380   79.9840  221.2290 C   0  0  0  0  0  0  0  0  0  0  0  0
  140.3320   79.6390  221.7360 C   0  0  0  0  0  0  0  0  0  0  0  0
  140.1960   75.9970  222.1850 C   0  0  0  0  0  0  0  0  0  0  0  0
  138.8470   70.3000  222.9210 N   0  0  0  0  0  0  0  0  0  0  0  0
  138.0640   69.9010  221.7980 C   0  0  0  0  0  0  0  0  0  0  0  0
  136.6610   70.3880  221.7520 C   0  0  0  0  0  0  0  0  0  0  0  0
  136.2980   71.1910  223.0070 C   0  0  0  0  0  0  0  0  0  0  0  0
  135.9130   70.2950  224.1390 C   0  0  0  0  0  0  0  0  0  0  0  0
  136.0400   68.9100  223.7250 N   0  0  0  0  0  0  0  0  0  0  0  0
  135.1820   68.5680  222.6210 C   0  0  0  0  0  0  0  0  0  0  0  0
  135.6120   69.3850  221.4230 C   0  0  0  0  0  0  0  0  0  0  0  0
  139.3985   68.0519  226.2107 H   0  0  0  0  0  0  0  0  0  0  0  0
  141.8654   70.9772  228.1785 H   0  0  0  0  0  0  0  0  0  0  0  0
  141.6163   72.4822  226.2162 H   0  0  0  0  0  0  0  0  0  0  0  0
  138.7321   72.1784  220.9889 H   0  0  0  0  0  0  0  0  0  0  0  0
  141.1223   73.5416  221.7453 H   0  0  0  0  0  0  0  0  0  0  0  0
  137.3984   74.1842  221.8734 H   0  0  0  0  0  0  0  0  0  0  0  0
  136.3760   76.4466  222.1488 H   0  0  0  0  0  0  0  0  0  0  0  0
  137.8828   78.4273  222.4460 H   0  0  0  0  0  0  0  0  0  0  0  0
  141.0378   78.1333  224.4933 H   0  0  0  0  0  0  0  0  0  0  0  0
  142.2652   77.6831  223.2248 H   0  0  0  0  0  0  0  0  0  0  0  0
  141.4908   80.4190  224.2149 H   0  0  0  0  0  0  0  0  0  0  0  0
  143.1008   79.5591  224.2736 H   0  0  0  0  0  0  0  0  0  0  0  0
  142.5368   81.4537  222.5145 H   0  0  0  0  0  0  0  0  0  0  0  0
  143.5959   79.9897  222.1773 H   0  0  0  0  0  0  0  0  0  0  0  0
  141.6817   80.8269  220.5245 H   0  0  0  0  0  0  0  0  0  0  0  0
  142.1750   79.1169  220.7120 H   0  0  0  0  0  0  0  0  0  0  0  0
  139.9424   80.4527  222.3654 H   0  0  0  0  0  0  0  0  0  0  0  0
  139.6257   79.5035  220.9037 H   0  0  0  0  0  0  0  0  0  0  0  0
  141.2887   75.8707  222.1973 H   0  0  0  0  0  0  0  0  0  0  0  0
  138.5720   70.2640  220.8924 H   0  0  0  0  0  0  0  0  0  0  0  0
  137.9862   68.8065  221.8759 H   0  0  0  0  0  0  0  0  0  0  0  0
  136.6573   71.0541  220.8766 H   0  0  0  0  0  0  0  0  0  0  0  0
  137.1667   71.7946  223.3086 H   0  0  0  0  0  0  0  0  0  0  0  0
  135.4379   71.8338  222.7682 H   0  0  0  0  0  0  0  0  0  0  0  0
  136.5750   70.4833  224.9971 H   0  0  0  0  0  0  0  0  0  0  0  0
  134.8711   70.4970  224.4282 H   0  0  0  0  0  0  0  0  0  0  0  0
  136.0470   68.2490  224.5070 H   0  0  0  0  0  0  0  0  0  0  0  0
  135.2753   67.4957  222.3942 H   0  0  0  0  0  0  0  0  0  0  0  0
  134.1328   68.7822  222.8724 H   0  0  0  0  0  0  0  0  0  0  0  0
  136.0073   68.7024  220.6563 H   0  0  0  0  0  0  0  0  0  0  0  0
  134.7295   69.9357  221.0653 H   0  0  0  0  0  0  0  0  0  0  0  0
  1  2  2  0
  2  3  1  0
  3  4  2  0
  4  5  1  0
  5  6  1  0
  5  7  2  0
  7  8  1  0
  8  9  2  0
  9 10  1  0
 10 11  2  0
 11 12  1  0
 12 13  2  0
 13 14  1  0
 14 15  2  0
 15 16  1  0
 16 17  2  0
 17 18  1  0
 18 19  1  0
 19 20  1  0
 20 21  1  0
 21 22  1  0
 22 23  1  0
 23 24  1  0
 18 25  2  0
 11 26  1  0
 26 27  1  0
 27 28  1  0
 28 29  1  0
 29 30  1  0
 30 31  1  0
 31 32  1  0
 32 33  1  0
 26  2  1  0
 33 28  1  0
  9  3  1  0
 25 14  1  0
 24 19  1  0
  4 34  1  0
  7 35  1  0
  8 36  1  0
 12 37  1  0
 13 38  1  0
 15 39  1  0
 16 40  1  0
 17 41  1  0
 20 42  1  0
 20 43  1  0
 21 44  1  0
 21 45  1  0
 22 46  1  0
 22 47  1  0
 23 48  1  0
 23 49  1  0
 24 50  1  0
 24 51  1  0
 25 52  1  0
 27 53  1  0
 27 54  1  0
 28 55  1  0
 29 56  1  0
 29 57  1  0
 30 58  1  0
 30 59  1  0
 31 60  1  0
 32 61  1  0
 32 62  1  0
 33 63  1  0
 33 64  1  0
M  END
>  <smiles>  (21) 
O=c1c2cc(Cl)ccc2nc(/C=C/c2cccc(N3CCCCC3)c2)n1CC1CCNCC1

>  <score_type>  (21) 
oracle

>  <origin>  (21) 
autodockgpu

>  <m_score__min__energy>  (21) 
-9.8300000000000001

>  <m_primary>  (21) 
energy

>  <rmsd>  (21) 
6.285867771842938

>  <m_score__min__rmsd>  (21) 
6.285867771842938

>  <meeko>  (21) 
{"free_energy": -8.54, "intermolecular_energy": -10.33, "internal_energy": -1.92, "cluster_size": 26, "cluster_id": 2, "rank_in_cluster": 13}

>  <energy>  (21) 
-9.09

>  <cluster_rmsd>  (21) 
0.39

>  <cluster>  (21) 
2

$$$$

     RDKit          3D

 64 68  0  0  0  0  0  0  0  0999 V2000
  142.8680   77.1630  219.9060 O   0  0  0  0  0  0  0  0  0  0  0  0
  141.8500   76.7330  220.5370 C   0  0  0  0  0  0  0  0  0  0  0  0
  141.2820   77.6260  221.4240 C   0  0  0  0  0  0  0  0  0  0  0  0
  141.7830   78.9000  221.6140 C   0  0  0  0  0  0  0  0  0  0  0  0
  141.1890   79.7750  222.5140 C   0  0  0  0  0  0  0  0  0  0  0  0
  141.8000   81.3980  222.7760 Cl  0  0  0  0  0  0  0  0  0  0  0  0
  140.0810   79.3850  223.2390 C   0  0  0  0  0  0  0  0  0  0  0  0
  139.5720   78.1170  223.0590 C   0  0  0  0  0  0  0  0  0  0  0  0
  140.1710   77.2550  222.1610 C   0  0  0  0  0  0  0  0  0  0  0  0
  139.7080   76.0080  221.9530 N   0  0  0  0  0  0  0  0  0  0  0  0
  140.2750   75.1530  221.0840 C   0  0  0  0  0  0  0  0  0  0  0  0
  139.6850   73.8080  220.9350 C   0  0  0  0  0  0  0  0  0  0  0  0
  140.4380   72.7320  221.0740 C   0  0  0  0  0  0  0  0  0  0  0  0
  140.1010   71.6040  221.9130 C   0  0  0  0  0  0  0  0  0  0  0  0
  139.4780   70.4800  221.4330 C   0  0  0  0  0  0  0  0  0  0  0  0
  139.1600   69.3950  222.2590 C   0  0  0  0  0  0  0  0  0  0  0  0
  139.4940   69.4770  223.6140 C   0  0  0  0  0  0  0  0  0  0  0  0
  140.1210   70.5960  224.1200 C   0  0  0  0  0  0  0  0  0  0  0  0
  140.4260   70.6040  225.5030 N   0  0  0  0  0  0  0  0  0  0  0  0
  140.6840   71.8810  226.1380 C   0  0  0  0  0  0  0  0  0  0  0  0
  141.1120   71.7430  227.5660 C   0  0  0  0  0  0  0  0  0  0  0  0
  140.2580   70.7980  228.3550 C   0  0  0  0  0  0  0  0  0  0  0  0
  139.6180   69.7130  227.5560 C   0  0  0  0  0  0  0  0  0  0  0  0
  140.4990   69.4240  226.3330 C   0  0  0  0  0  0  0  0  0  0  0  0
  140.4080   71.6290  223.2570 C   0  0  0  0  0  0  0  0  0  0  0  0
  141.3660   75.4830  220.3440 N   0  0  0  0  0  0  0  0  0  0  0  0
  141.9790   74.5780  219.4280 C   0  0  0  0  0  0  0  0  0  0  0  0
  143.4540   74.4310  219.5180 C   0  0  0  0  0  0  0  0  0  0  0  0
  144.0320   73.7410  218.2760 C   0  0  0  0  0  0  0  0  0  0  0  0
  143.9130   72.2540  218.3700 C   0  0  0  0  0  0  0  0  0  0  0  0
  143.2390   71.9000  219.6040 N   0  0  0  0  0  0  0  0  0  0  0  0
  143.9470   72.3290  220.7820 C   0  0  0  0  0  0  0  0  0  0  0  0
  143.9970   73.8410  220.7720 C   0  0  0  0  0  0  0  0  0  0  0  0
  142.6655   79.2257  221.0438 H   0  0  0  0  0  0  0  0  0  0  0  0
  139.6100   80.0779  223.9518 H   0  0  0  0  0  0  0  0  0  0  0  0
  138.6897   77.7917  223.6298 H   0  0  0  0  0  0  0  0  0  0  0  0
  138.6141   73.7016  220.7073 H   0  0  0  0  0  0  0  0  0  0  0  0
  141.3842   72.6914  220.5144 H   0  0  0  0  0  0  0  0  0  0  0  0
  139.2200   70.4295  220.3649 H   0  0  0  0  0  0  0  0  0  0  0  0
  138.6611   68.5027  221.8529 H   0  0  0  0  0  0  0  0  0  0  0  0
  139.2537   68.6388  224.2846 H   0  0  0  0  0  0  0  0  0  0  0  0
  141.4803   72.3961  225.5807 H   0  0  0  0  0  0  0  0  0  0  0  0
  139.7438   72.4519  226.1278 H   0  0  0  0  0  0  0  0  0  0  0  0
  142.1485   71.3751  227.5853 H   0  0  0  0  0  0  0  0  0  0  0  0
  141.0139   72.7348  228.0315 H   0  0  0  0  0  0  0  0  0  0  0  0
  140.8886   70.3290  229.1246 H   0  0  0  0  0  0  0  0  0  0  0  0
  139.4367   71.3994  228.7719 H   0  0  0  0  0  0  0  0  0  0  0  0
  139.5262   68.8049  228.1700 H   0  0  0  0  0  0  0  0  0  0  0  0
  138.6144   70.0256  227.2320 H   0  0  0  0  0  0  0  0  0  0  0  0
  141.5376   69.2396  226.6449 H   0  0  0  0  0  0  0  0  0  0  0  0
  140.1574   68.5290  225.7924 H   0  0  0  0  0  0  0  0  0  0  0  0
  140.9086   72.5214  223.6607 H   0  0  0  0  0  0  0  0  0  0  0  0
  141.5349   73.5853  219.5934 H   0  0  0  0  0  0  0  0  0  0  0  0
  141.7926   75.0062  218.4320 H   0  0  0  0  0  0  0  0  0  0  0  0
  143.8048   75.4728  219.5568 H   0  0  0  0  0  0  0  0  0  0  0  0
  143.4846   74.0879  217.3872 H   0  0  0  0  0  0  0  0  0  0  0  0
  145.0991   73.9979  218.2038 H   0  0  0  0  0  0  0  0  0  0  0  0
  143.3329   71.8778  217.5144 H   0  0  0  0  0  0  0  0  0  0  0  0
  144.9169   71.8044  218.3585 H   0  0  0  0  0  0  0  0  0  0  0  0
  142.8920   70.9360  219.6170 H   0  0  0  0  0  0  0  0  0  0  0  0
  143.4208   71.9787  221.6822 H   0  0  0  0  0  0  0  0  0  0  0  0
  144.9652   71.9128  220.7889 H   0  0  0  0  0  0  0  0  0  0  0  0
  143.4071   74.2171  221.6208 H   0  0  0  0  0  0  0  0  0  0  0  0
  145.0541   74.1365  220.8447 H   0  0  0  0  0  0  0  0  0  0  0  0
  1  2  2  0
  2  3  1  0
  3  4  2  0
  4  5  1  0
  5  6  1  0
  5  7  2  0
  7  8  1  0
  8  9  2  0
  9 10  1  0
 10 11  2  0
 11 12  1  0
 12 13  2  0
 13 14  1  0
 14 15  2  0
 15 16  1  0
 16 17  2  0
 17 18  1  0
 18 19  1  0
 19 20  1  0
 20 21  1  0
 21 22  1  0
 22 23  1  0
 23 24  1  0
 18 25  2  0
 11 26  1  0
 26 27  1  0
 27 28  1  0
 28 29  1  0
 29 30  1  0
 30 31  1  0
 31 32  1  0
 32 33  1  0
 26  2  1  0
 33 28  1  0
  9  3  1  0
 25 14  1  0
 24 19  1  0
  4 34  1  0
  7 35  1  0
  8 36  1  0
 12 37  1  0
 13 38  1  0
 15 39  1  0
 16 40  1  0
 17 41  1  0
 20 42  1  0
 20 43  1  0
 21 44  1  0
 21 45  1  0
 22 46  1  0
 22 47  1  0
 23 48  1  0
 23 49  1  0
 24 50  1  0
 24 51  1  0
 25 52  1  0
 27 53  1  0
 27 54  1  0
 28 55  1  0
 29 56  1  0
 29 57  1  0
 30 58  1  0
 30 59  1  0
 31 60  1  0
 32 61  1  0
 32 62  1  0
 33 63  1  0
 33 64  1  0
M  END
>  <smiles>  (22) 
O=c1c2cc(Cl)ccc2nc(/C=C/c2cccc(N3CCCCC3)c2)n1CC1CCNCC1

>  <score_type>  (22) 
oracle

>  <origin>  (22) 
autodockgpu

>  <m_score__min__energy>  (22) 
-9.8300000000000001

>  <m_primary>  (22) 
energy

>  <rmsd>  (22) 
10.791337135054947

>  <m_score__min__rmsd>  (22) 
10.791337135054947

>  <meeko>  (22) 
{"free_energy": -8.21, "intermolecular_energy": -10.0, "internal_energy": -1.62, "cluster_size": 14, "cluster_id": 1, "rank_in_cluster": 14}

>  <energy>  (22) 
-9.05

>  <cluster_rmsd>  (22) 
0.89

>  <cluster>  (22) 
2

$$$$

     RDKit          3D

 64 68  0  0  0  0  0  0  0  0999 V2000
  138.7120   68.3460  223.8690 O   0  0  0  0  0  0  0  0  0  0  0  0
  139.2160   69.5160  223.8730 C   0  0  0  0  0  0  0  0  0  0  0  0
  139.8380   69.8900  225.0470 C   0  0  0  0  0  0  0  0  0  0  0  0
  139.9110   69.0530  226.1440 C   0  0  0  0  0  0  0  0  0  0  0  0
  140.5440   69.4580  227.3130 C   0  0  0  0  0  0  0  0  0  0  0  0
  140.6540   68.4190  228.7210 Cl  0  0  0  0  0  0  0  0  0  0  0  0
  141.1140   70.7130  227.3980 C   0  0  0  0  0  0  0  0  0  0  0  0
  141.0480   71.5570  226.3110 C   0  0  0  0  0  0  0  0  0  0  0  0
  140.4160   71.1430  225.1540 C   0  0  0  0  0  0  0  0  0  0  0  0
  140.3270   71.9340  224.0680 N   0  0  0  0  0  0  0  0  0  0  0  0
  139.7170   71.5510  222.9330 C   0  0  0  0  0  0  0  0  0  0  0  0
  139.6780   72.4990  221.8020 C   0  0  0  0  0  0  0  0  0  0  0  0
  139.5040   73.7890  222.0220 C   0  0  0  0  0  0  0  0  0  0  0  0
  140.3410   74.8310  221.4700 C   0  0  0  0  0  0  0  0  0  0  0  0
  141.1710   74.6290  220.3970 C   0  0  0  0  0  0  0  0  0  0  0  0
  141.9750   75.6500  219.8750 C   0  0  0  0  0  0  0  0  0  0  0  0
  141.9160   76.9090  220.4780 C   0  0  0  0  0  0  0  0  0  0  0  0
  141.0890   77.1370  221.5570 C   0  0  0  0  0  0  0  0  0  0  0  0
  141.0860   78.4400  222.1130 N   0  0  0  0  0  0  0  0  0  0  0  0
  140.0800   78.7560  223.1080 C   0  0  0  0  0  0  0  0  0  0  0  0
  140.1080   80.1930  223.5250 C   0  0  0  0  0  0  0  0  0  0  0  0
  141.4860   80.6990  223.8270 C   0  0  0  0  0  0  0  0  0  0  0  0
  142.5840   80.0130  223.0850 C   0  0  0  0  0  0  0  0  0  0  0  0
  142.0200   79.4840  221.7600 C   0  0  0  0  0  0  0  0  0  0  0  0
  140.3230   76.0940  222.0240 C   0  0  0  0  0  0  0  0  0  0  0  0
  139.1390   70.3290  222.7920 N   0  0  0  0  0  0  0  0  0  0  0  0
  138.4820   69.9200  221.5950 C   0  0  0  0  0  0  0  0  0  0  0  0
  136.9970   69.8930  221.6210 C   0  0  0  0  0  0  0  0  0  0  0  0
  136.3960   71.1500  220.9830 C   0  0  0  0  0  0  0  0  0  0  0  0
  136.3570   72.2900  221.9480 C   0  0  0  0  0  0  0  0  0  0  0  0
  136.9470   71.8780  223.2080 N   0  0  0  0  0  0  0  0  0  0  0  0
  136.2460   70.7870  223.8330 C   0  0  0  0  0  0  0  0  0  0  0  0
  136.3530   69.5810  222.9260 C   0  0  0  0  0  0  0  0  0  0  0  0
  139.4611   68.0506  226.0912 H   0  0  0  0  0  0  0  0  0  0  0  0
  141.6149   71.0351  228.3228 H   0  0  0  0  0  0  0  0  0  0  0  0
  141.4979   72.5594  226.3641 H   0  0  0  0  0  0  0  0  0  0  0  0
  139.7943   72.1293  220.7726 H   0  0  0  0  0  0  0  0  0  0  0  0
  138.6667   74.0913  222.6681 H   0  0  0  0  0  0  0  0  0  0  0  0
  141.2063   73.6330  219.9314 H   0  0  0  0  0  0  0  0  0  0  0  0
  142.6346   75.4659  219.0142 H   0  0  0  0  0  0  0  0  0  0  0  0
  142.5371   77.7283  220.0869 H   0  0  0  0  0  0  0  0  0  0  0  0
  139.0882   78.5310  222.6888 H   0  0  0  0  0  0  0  0  0  0  0  0
  140.2937   78.1482  223.9996 H   0  0  0  0  0  0  0  0  0  0  0  0
  139.6842   80.8003  222.7116 H   0  0  0  0  0  0  0  0  0  0  0  0
  139.5224   80.2731  224.4527 H   0  0  0  0  0  0  0  0  0  0  0  0
  141.5199   81.7692  223.5749 H   0  0  0  0  0  0  0  0  0  0  0  0
  141.6617   80.4972  224.8939 H   0  0  0  0  0  0  0  0  0  0  0  0
  143.3975   80.7256  222.8838 H   0  0  0  0  0  0  0  0  0  0  0  0
  142.9812   79.1806  223.6845 H   0  0  0  0  0  0  0  0  0  0  0  0
  141.5052   80.2891  221.2152 H   0  0  0  0  0  0  0  0  0  0  0  0
  142.8185   79.1055  221.1049 H   0  0  0  0  0  0  0  0  0  0  0  0
  139.6618   76.2768  222.8839 H   0  0  0  0  0  0  0  0  0  0  0  0
  138.7882   70.6101  220.7950 H   0  0  0  0  0  0  0  0  0  0  0  0
  138.7860   68.8738  221.4432 H   0  0  0  0  0  0  0  0  0  0  0  0
  136.7532   69.0161  221.0032 H   0  0  0  0  0  0  0  0  0  0  0  0
  137.0076   71.4374  220.1151 H   0  0  0  0  0  0  0  0  0  0  0  0
  135.3643   70.9217  220.6773 H   0  0  0  0  0  0  0  0  0  0  0  0
  136.9249   73.1377  221.5371 H   0  0  0  0  0  0  0  0  0  0  0  0
  135.3130   72.5939  222.1142 H   0  0  0  0  0  0  0  0  0  0  0  0
  137.1910   72.6630  223.8200 H   0  0  0  0  0  0  0  0  0  0  0  0
  136.7007   70.5615  224.8089 H   0  0  0  0  0  0  0  0  0  0  0  0
  135.1905   71.0526  223.9923 H   0  0  0  0  0  0  0  0  0  0  0  0
  136.9491   68.8100  223.4361 H   0  0  0  0  0  0  0  0  0  0  0  0
  135.3304   69.2349  222.7150 H   0  0  0  0  0  0  0  0  0  0  0  0
  1  2  2  0
  2  3  1  0
  3  4  2  0
  4  5  1  0
  5  6  1  0
  5  7  2  0
  7  8  1  0
  8  9  2  0
  9 10  1  0
 10 11  2  0
 11 12  1  0
 12 13  2  0
 13 14  1  0
 14 15  2  0
 15 16  1  0
 16 17  2  0
 17 18  1  0
 18 19  1  0
 19 20  1  0
 20 21  1  0
 21 22  1  0
 22 23  1  0
 23 24  1  0
 18 25  2  0
 11 26  1  0
 26 27  1  0
 27 28  1  0
 28 29  1  0
 29 30  1  0
 30 31  1  0
 31 32  1  0
 32 33  1  0
 26  2  1  0
 33 28  1  0
  9  3  1  0
 25 14  1  0
 24 19  1  0
  4 34  1  0
  7 35  1  0
  8 36  1  0
 12 37  1  0
 13 38  1  0
 15 39  1  0
 16 40  1  0
 17 41  1  0
 20 42  1  0
 20 43  1  0
 21 44  1  0
 21 45  1  0
 22 46  1  0
 22 47  1  0
 23 48  1  0
 23 49  1  0
 24 50  1  0
 24 51  1  0
 25 52  1  0
 27 53  1  0
 27 54  1  0
 28 55  1  0
 29 56  1  0
 29 57  1  0
 30 58  1  0
 30 59  1  0
 31 60  1  0
 32 61  1  0
 32 62  1  0
 33 63  1  0
 33 64  1  0
M  END
>  <smiles>  (23) 
O=c1c2cc(Cl)ccc2nc(/C=C/c2cccc(N3CCCCC3)c2)n1CC1CCNCC1

>  <score_type>  (23) 
oracle

>  <origin>  (23) 
autodockgpu

>  <m_score__min__energy>  (23) 
-9.8300000000000001

>  <m_primary>  (23) 
energy

>  <rmsd>  (23) 
6.467235848239728

>  <m_score__min__rmsd>  (23) 
6.467235848239728

>  <meeko>  (23) 
{"free_energy": -9.14, "intermolecular_energy": -10.93, "internal_energy": -1.53, "cluster_size": 26, "cluster_id": 2, "rank_in_cluster": 1}

>  <energy>  (23) 
-8.96

>  <cluster_rmsd>  (23) 
0.69

>  <cluster>  (23) 
2

$$$$

     RDKit          3D

 64 68  0  0  0  0  0  0  0  0999 V2000
  138.7610   68.1770  224.3520 O   0  0  0  0  0  0  0  0  0  0  0  0
  139.2510   69.3520  224.3520 C   0  0  0  0  0  0  0  0  0  0  0  0
  139.9410   69.7080  225.4940 C   0  0  0  0  0  0  0  0  0  0  0  0
  140.0910   68.8480  226.5650 C   0  0  0  0  0  0  0  0  0  0  0  0
  140.7900   69.2350  227.7010 C   0  0  0  0  0  0  0  0  0  0  0  0
  140.9980   68.1670  229.0750 Cl  0  0  0  0  0  0  0  0  0  0  0  0
  141.3510   70.4940  227.7800 C   0  0  0  0  0  0  0  0  0  0  0  0
  141.2080   71.3610  226.7180 C   0  0  0  0  0  0  0  0  0  0  0  0
  140.5100   70.9650  225.5930 C   0  0  0  0  0  0  0  0  0  0  0  0
  140.3460   71.7790  224.5330 N   0  0  0  0  0  0  0  0  0  0  0  0
  139.6720   71.4130  223.4290 C   0  0  0  0  0  0  0  0  0  0  0  0
  139.5530   72.3860  222.3240 C   0  0  0  0  0  0  0  0  0  0  0  0
  140.5350   72.5240  221.4520 C   0  0  0  0  0  0  0  0  0  0  0  0
  141.1310   73.7900  221.0880 C   0  0  0  0  0  0  0  0  0  0  0  0
  142.1430   73.8980  220.1690 C   0  0  0  0  0  0  0  0  0  0  0  0
  142.7090   75.1330  219.8270 C   0  0  0  0  0  0  0  0  0  0  0  0
  142.2140   76.2810  220.4530 C   0  0  0  0  0  0  0  0  0  0  0  0
  141.1970   76.1970  221.3800 C   0  0  0  0  0  0  0  0  0  0  0  0
  140.7510   77.4050  221.9700 N   0  0  0  0  0  0  0  0  0  0  0  0
  139.4090   77.4440  222.5160 C   0  0  0  0  0  0  0  0  0  0  0  0
  139.0180   78.8060  223.0000 C   0  0  0  0  0  0  0  0  0  0  0  0
  140.0700   79.4630  223.8410 C   0  0  0  0  0  0  0  0  0  0  0  0
  141.4690   79.0430  223.5400 C   0  0  0  0  0  0  0  0  0  0  0  0
  141.5430   78.6100  222.0700 C   0  0  0  0  0  0  0  0  0  0  0  0
  140.6820   74.9550  221.6720 C   0  0  0  0  0  0  0  0  0  0  0  0
  139.0990   70.1880  223.2960 N   0  0  0  0  0  0  0  0  0  0  0  0
  138.3740   69.7980  222.1330 C   0  0  0  0  0  0  0  0  0  0  0  0
  136.8970   69.7100  222.2620 C   0  0  0  0  0  0  0  0  0  0  0  0
  136.1890   70.7540  221.3900 C   0  0  0  0  0  0  0  0  0  0  0  0
  136.1340   72.0860  222.0650 C   0  0  0  0  0  0  0  0  0  0  0  0
  136.8130   72.0080  223.3440 N   0  0  0  0  0  0  0  0  0  0  0  0
  136.2120   71.0640  224.2500 C   0  0  0  0  0  0  0  0  0  0  0  0
  136.3430   69.6850  223.6430 C   0  0  0  0  0  0  0  0  0  0  0  0
  139.6500   67.8414  226.5172 H   0  0  0  0  0  0  0  0  0  0  0  0
  141.9051   70.8014  228.6791 H   0  0  0  0  0  0  0  0  0  0  0  0
  141.6492   72.3675  226.7660 H   0  0  0  0  0  0  0  0  0  0  0  0
  138.6437   72.9974  222.2272 H   0  0  0  0  0  0  0  0  0  0  0  0
  140.9256   71.6154  220.9705 H   0  0  0  0  0  0  0  0  0  0  0  0
  142.5224   72.9860  219.6850 H   0  0  0  0  0  0  0  0  0  0  0  0
  143.5201   75.1977  219.0867 H   0  0  0  0  0  0  0  0  0  0  0  0
  142.6413   77.2633  220.2028 H   0  0  0  0  0  0  0  0  0  0  0  0
  138.7019   77.1331  221.7328 H   0  0  0  0  0  0  0  0  0  0  0  0
  139.3841   76.7656  223.3815 H   0  0  0  0  0  0  0  0  0  0  0  0
  138.8219   79.4439  222.1255 H   0  0  0  0  0  0  0  0  0  0  0  0
  138.1266   78.6825  223.6326 H   0  0  0  0  0  0  0  0  0  0  0  0
  139.9995   80.5501  223.6884 H   0  0  0  0  0  0  0  0  0  0  0  0
  139.8722   79.1545  224.8782 H   0  0  0  0  0  0  0  0  0  0  0  0
  142.1546   79.8856  223.7134 H   0  0  0  0  0  0  0  0  0  0  0  0
  141.7600   78.2075  224.1936 H   0  0  0  0  0  0  0  0  0  0  0  0
  141.1295   79.3944  221.4191 H   0  0  0  0  0  0  0  0  0  0  0  0
  142.5819   78.4372  221.7524 H   0  0  0  0  0  0  0  0  0  0  0  0
  139.8693   74.8883  222.4103 H   0  0  0  0  0  0  0  0  0  0  0  0
  138.5958   70.5294  221.3419 H   0  0  0  0  0  0  0  0  0  0  0  0
  138.7055   68.7714  221.9183 H   0  0  0  0  0  0  0  0  0  0  0  0
  136.6733   68.7021  221.8823 H   0  0  0  0  0  0  0  0  0  0  0  0
  136.7355   70.8567  220.4409 H   0  0  0  0  0  0  0  0  0  0  0  0
  135.1578   70.4139  221.2138 H   0  0  0  0  0  0  0  0  0  0  0  0
  136.6283   72.8382  221.4327 H   0  0  0  0  0  0  0  0  0  0  0  0
  135.0842   72.3735  222.2240 H   0  0  0  0  0  0  0  0  0  0  0  0
  137.0430   72.9250  223.7410 H   0  0  0  0  0  0  0  0  0  0  0  0
  136.7300   71.0957  225.2199 H   0  0  0  0  0  0  0  0  0  0  0  0
  135.1524   71.3111  224.4118 H   0  0  0  0  0  0  0  0  0  0  0  0
  137.0105   69.0840  224.2780 H   0  0  0  0  0  0  0  0  0  0  0  0
  135.3332   69.2525  223.5857 H   0  0  0  0  0  0  0  0  0  0  0  0
  1  2  2  0
  2  3  1  0
  3  4  2  0
  4  5  1  0
  5  6  1  0
  5  7  2  0
  7  8  1  0
  8  9  2  0
  9 10  1  0
 10 11  2  0
 11 12  1  0
 12 13  2  0
 13 14  1  0
 14 15  2  0
 15 16  1  0
 16 17  2  0
 17 18  1  0
 18 19  1  0
 19 20  1  0
 20 21  1  0
 21 22  1  0
 22 23  1  0
 23 24  1  0
 18 25  2  0
 11 26  1  0
 26 27  1  0
 27 28  1  0
 28 29  1  0
 29 30  1  0
 30 31  1  0
 31 32  1  0
 32 33  1  0
 26  2  1  0
 33 28  1  0
  9  3  1  0
 25 14  1  0
 24 19  1  0
  4 34  1  0
  7 35  1  0
  8 36  1  0
 12 37  1  0
 13 38  1  0
 15 39  1  0
 16 40  1  0
 17 41  1  0
 20 42  1  0
 20 43  1  0
 21 44  1  0
 21 45  1  0
 22 46  1  0
 22 47  1  0
 23 48  1  0
 23 49  1  0
 24 50  1  0
 24 51  1  0
 25 52  1  0
 27 53  1  0
 27 54  1  0
 28 55  1  0
 29 56  1  0
 29 57  1  0
 30 58  1  0
 30 59  1  0
 31 60  1  0
 32 61  1  0
 32 62  1  0
 33 63  1  0
 33 64  1  0
M  END
>  <smiles>  (24) 
O=c1c2cc(Cl)ccc2nc(/C=C/c2cccc(N3CCCCC3)c2)n1CC1CCNCC1

>  <score_type>  (24) 
oracle

>  <origin>  (24) 
autodockgpu

>  <m_score__min__energy>  (24) 
-9.8300000000000001

>  <m_primary>  (24) 
energy

>  <rmsd>  (24) 
6.837055407766652

>  <m_score__min__rmsd>  (24) 
6.837055407766652

>  <meeko>  (24) 
{"free_energy": -8.81, "intermolecular_energy": -10.6, "internal_energy": -1.63, "cluster_size": 26, "cluster_id": 2, "rank_in_cluster": 11}

>  <energy>  (24) 
-8.96

>  <cluster_rmsd>  (24) 
0.74

>  <cluster>  (24) 
2

$$$$

     RDKit          3D

 64 68  0  0  0  0  0  0  0  0999 V2000
  138.7660   68.5290  223.7970 O   0  0  0  0  0  0  0  0  0  0  0  0
  139.2510   69.7060  223.8220 C   0  0  0  0  0  0  0  0  0  0  0  0
  139.8700   70.0670  225.0030 C   0  0  0  0  0  0  0  0  0  0  0  0
  139.9570   69.2110  226.0840 C   0  0  0  0  0  0  0  0  0  0  0  0
  140.5850   69.6030  227.2590 C   0  0  0  0  0  0  0  0  0  0  0  0
  140.7140   68.5390  228.6460 Cl  0  0  0  0  0  0  0  0  0  0  0  0
  141.1360   70.8640  227.3680 C   0  0  0  0  0  0  0  0  0  0  0  0
  141.0550   71.7280  226.2970 C   0  0  0  0  0  0  0  0  0  0  0  0
  140.4280   71.3270  225.1330 C   0  0  0  0  0  0  0  0  0  0  0  0
  140.3260   72.1370  224.0620 N   0  0  0  0  0  0  0  0  0  0  0  0
  139.7200   71.7660  222.9210 C   0  0  0  0  0  0  0  0  0  0  0  0
  139.6650   72.7350  221.8080 C   0  0  0  0  0  0  0  0  0  0  0  0
  139.4230   74.0110  222.0490 C   0  0  0  0  0  0  0  0  0  0  0  0
  140.2470   75.1010  221.5780 C   0  0  0  0  0  0  0  0  0  0  0  0
  140.9430   75.0510  220.3970 C   0  0  0  0  0  0  0  0  0  0  0  0
  141.7360   76.1170  219.9550 C   0  0  0  0  0  0  0  0  0  0  0  0
  141.8100   77.2600  220.7550 C   0  0  0  0  0  0  0  0  0  0  0  0
  141.1190   77.3340  221.9460 C   0  0  0  0  0  0  0  0  0  0  0  0
  141.2460   78.5260  222.7010 N   0  0  0  0  0  0  0  0  0  0  0  0
  142.5370   79.1840  222.7280 C   0  0  0  0  0  0  0  0  0  0  0  0
  142.5700   80.3600  223.6540 C   0  0  0  0  0  0  0  0  0  0  0  0
  141.3910   81.2720  223.5020 C   0  0  0  0  0  0  0  0  0  0  0  0
  140.1440   80.6110  223.0210 C   0  0  0  0  0  0  0  0  0  0  0  0
  140.1740   79.1390  223.4520 C   0  0  0  0  0  0  0  0  0  0  0  0
  140.3560   76.2540  222.3260 C   0  0  0  0  0  0  0  0  0  0  0  0
  139.1610   70.5380  222.7580 N   0  0  0  0  0  0  0  0  0  0  0  0
  138.5080   70.1430  221.5530 C   0  0  0  0  0  0  0  0  0  0  0  0
  137.0250   70.0660  221.5890 C   0  0  0  0  0  0  0  0  0  0  0  0
  136.3780   71.2470  220.8570 C   0  0  0  0  0  0  0  0  0  0  0  0
  136.3010   72.4580  221.7310 C   0  0  0  0  0  0  0  0  0  0  0  0
  136.9090   72.1660  223.0160 N   0  0  0  0  0  0  0  0  0  0  0  0
  136.2470   71.1040  223.7280 C   0  0  0  0  0  0  0  0  0  0  0  0
  136.3950   69.8350  222.9170 C   0  0  0  0  0  0  0  0  0  0  0  0
  139.5220   68.2032  226.0129 H   0  0  0  0  0  0  0  0  0  0  0  0
  141.6337   71.1756  228.2982 H   0  0  0  0  0  0  0  0  0  0  0  0
  141.4893   72.7361  226.3690 H   0  0  0  0  0  0  0  0  0  0  0  0
  139.8260   72.3931  220.7750 H   0  0  0  0  0  0  0  0  0  0  0  0
  138.5350   74.2607  222.6482 H   0  0  0  0  0  0  0  0  0  0  0  0
  140.8760   74.1446  219.7774 H   0  0  0  0  0  0  0  0  0  0  0  0
  142.2856   76.0562  219.0041 H   0  0  0  0  0  0  0  0  0  0  0  0
  142.4269   78.1111  220.4309 H   0  0  0  0  0  0  0  0  0  0  0  0
  143.2950   78.4573  223.0557 H   0  0  0  0  0  0  0  0  0  0  0  0
  142.7401   79.5561  221.7130 H   0  0  0  0  0  0  0  0  0  0  0  0
  142.5916   79.9880  224.6890 H   0  0  0  0  0  0  0  0  0  0  0  0
  143.4670   80.9452  223.4029 H   0  0  0  0  0  0  0  0  0  0  0  0
  141.1812   81.7255  224.4820 H   0  0  0  0  0  0  0  0  0  0  0  0
  141.6671   82.0075  222.7320 H   0  0  0  0  0  0  0  0  0  0  0  0
  139.2672   81.1084  223.4612 H   0  0  0  0  0  0  0  0  0  0  0  0
  140.0798   80.6809  221.9251 H   0  0  0  0  0  0  0  0  0  0  0  0
  140.3701   79.0607  224.5315 H   0  0  0  0  0  0  0  0  0  0  0  0
  139.2115   78.6428  223.2587 H   0  0  0  0  0  0  0  0  0  0  0  0
  139.8044   76.3135  223.2758 H   0  0  0  0  0  0  0  0  0  0  0  0
  138.7848   70.8665  220.7720 H   0  0  0  0  0  0  0  0  0  0  0  0
  138.8453   69.1126  221.3674 H   0  0  0  0  0  0  0  0  0  0  0  0
  136.8117   69.1348  221.0437 H   0  0  0  0  0  0  0  0  0  0  0  0
  136.9770   71.4867  219.9661 H   0  0  0  0  0  0  0  0  0  0  0  0
  135.3544   70.9593  220.5750 H   0  0  0  0  0  0  0  0  0  0  0  0
  136.8373   73.2906  221.2522 H   0  0  0  0  0  0  0  0  0  0  0  0
  135.2474   72.7375  221.8787 H   0  0  0  0  0  0  0  0  0  0  0  0
  137.1260   73.0040  223.5630 H   0  0  0  0  0  0  0  0  0  0  0  0
  136.7107   70.9715  224.7167 H   0  0  0  0  0  0  0  0  0  0  0  0
  135.1832   71.3445  223.8710 H   0  0  0  0  0  0  0  0  0  0  0  0
  137.0189   69.1276  223.4830 H   0  0  0  0  0  0  0  0  0  0  0  0
  135.3848   69.4381  222.7383 H   0  0  0  0  0  0  0  0  0  0  0  0
  1  2  2  0
  2  3  1  0
  3  4  2  0
  4  5  1  0
  5  6  1  0
  5  7  2  0
  7  8  1  0
  8  9  2  0
  9 10  1  0
 10 11  2  0
 11 12  1  0
 12 13  2  0
 13 14  1  0
 14 15  2  0
 15 16  1  0
 16 17  2  0
 17 18  1  0
 18 19  1  0
 19 20  1  0
 20 21  1  0
 21 22  1  0
 22 23  1  0
 23 24  1  0
 18 25  2  0
 11 26  1  0
 26 27  1  0
 27 28  1  0
 28 29  1  0
 29 30  1  0
 30 31  1  0
 31 32  1  0
 32 33  1  0
 26  2  1  0
 33 28  1  0
  9  3  1  0
 25 14  1  0
 24 19  1  0
  4 34  1  0
  7 35  1  0
  8 36  1  0
 12 37  1  0
 13 38  1  0
 15 39  1  0
 16 40  1  0
 17 41  1  0
 20 42  1  0
 20 43  1  0
 21 44  1  0
 21 45  1  0
 22 46  1  0
 22 47  1  0
 23 48  1  0
 23 49  1  0
 24 50  1  0
 24 51  1  0
 25 52  1  0
 27 53  1  0
 27 54  1  0
 28 55  1  0
 29 56  1  0
 29 57  1  0
 30 58  1  0
 30 59  1  0
 31 60  1  0
 32 61  1  0
 32 62  1  0
 33 63  1  0
 33 64  1  0
M  END
>  <smiles>  (25) 
O=c1c2cc(Cl)ccc2nc(/C=C/c2cccc(N3CCCCC3)c2)n1CC1CCNCC1

>  <score_type>  (25) 
oracle

>  <origin>  (25) 
autodockgpu

>  <m_score__min__energy>  (25) 
-9.8300000000000001

>  <m_primary>  (25) 
energy

>  <rmsd>  (25) 
6.364332723261861

>  <m_score__min__rmsd>  (25) 
6.364332723261861

>  <meeko>  (25) 
{"free_energy": -9.1, "intermolecular_energy": -10.89, "internal_energy": -1.58, "cluster_size": 26, "cluster_id": 2, "rank_in_cluster": 4}

>  <energy>  (25) 
-8.81

>  <cluster_rmsd>  (25) 
0.77

>  <cluster>  (25) 
2

$$$$

     RDKit          3D

 64 68  0  0  0  0  0  0  0  0999 V2000
  138.2460   68.3850  224.2990 O   0  0  0  0  0  0  0  0  0  0  0  0
  138.7910   69.5300  224.1800 C   0  0  0  0  0  0  0  0  0  0  0  0
  139.6310   69.8970  225.2130 C   0  0  0  0  0  0  0  0  0  0  0  0
  139.8660   69.0780  226.3010 C   0  0  0  0  0  0  0  0  0  0  0  0
  140.7160   69.4760  227.3250 C   0  0  0  0  0  0  0  0  0  0  0  0
  141.0360   68.4590  228.7170 Cl  0  0  0  0  0  0  0  0  0  0  0  0
  141.3460   70.7030  227.2720 C   0  0  0  0  0  0  0  0  0  0  0  0
  141.1190   71.5290  226.1920 C   0  0  0  0  0  0  0  0  0  0  0  0
  140.2710   71.1230  225.1790 C   0  0  0  0  0  0  0  0  0  0  0  0
  140.0210   71.8960  224.1060 N   0  0  0  0  0  0  0  0  0  0  0  0
  139.2000   71.5210  223.1100 C   0  0  0  0  0  0  0  0  0  0  0  0
  138.9970   72.4480  221.9790 C   0  0  0  0  0  0  0  0  0  0  0  0
  139.6380   73.6020  221.9420 C   0  0  0  0  0  0  0  0  0  0  0  0
  139.0100   74.8910  222.1290 C   0  0  0  0  0  0  0  0  0  0  0  0
  137.6630   75.0910  221.9750 C   0  0  0  0  0  0  0  0  0  0  0  0
  137.0710   76.3470  222.1610 C   0  0  0  0  0  0  0  0  0  0  0  0
  137.8940   77.4180  222.5140 C   0  0  0  0  0  0  0  0  0  0  0  0
  139.2520   77.2420  222.6750 C   0  0  0  0  0  0  0  0  0  0  0  0
  140.0200   78.3770  223.0320 N   0  0  0  0  0  0  0  0  0  0  0  0
  141.4640   78.2830  222.9380 C   0  0  0  0  0  0  0  0  0  0  0  0
  142.1600   79.5030  223.4570 C   0  0  0  0  0  0  0  0  0  0  0  0
  141.5690   80.7850  222.9550 C   0  0  0  0  0  0  0  0  0  0  0  0
  140.1160   80.7190  222.6220 C   0  0  0  0  0  0  0  0  0  0  0  0
  139.4660   79.6320  223.4870 C   0  0  0  0  0  0  0  0  0  0  0  0
  139.7740   75.9840  222.4790 C   0  0  0  0  0  0  0  0  0  0  0  0
  138.5540   70.3250  223.1090 N   0  0  0  0  0  0  0  0  0  0  0  0
  137.6740   69.9250  222.0610 C   0  0  0  0  0  0  0  0  0  0  0  0
  136.2830   70.4400  222.1210 C   0  0  0  0  0  0  0  0  0  0  0  0
  136.0110   71.1910  223.4300 C   0  0  0  0  0  0  0  0  0  0  0  0
  135.6730   70.2510  224.5410 C   0  0  0  0  0  0  0  0  0  0  0  0
  135.7440   68.8850  224.0570 N   0  0  0  0  0  0  0  0  0  0  0  0
  134.8160   68.6110  222.9920 C   0  0  0  0  0  0  0  0  0  0  0  0
  135.1940   69.4750  221.8090 C   0  0  0  0  0  0  0  0  0  0  0  0
  139.3727   68.0964  226.3569 H   0  0  0  0  0  0  0  0  0  0  0  0
  142.0209   71.0178  228.0816 H   0  0  0  0  0  0  0  0  0  0  0  0
  141.6124   72.5105  226.1365 H   0  0  0  0  0  0  0  0  0  0  0  0
  138.3095   72.1765  221.1644 H   0  0  0  0  0  0  0  0  0  0  0  0
  140.7221   73.5813  221.7565 H   0  0  0  0  0  0  0  0  0  0  0  0
  137.0264   74.2382  221.6965 H   0  0  0  0  0  0  0  0  0  0  0  0
  135.9874   76.4855  222.0324 H   0  0  0  0  0  0  0  0  0  0  0  0
  137.4536   78.4145  222.6656 H   0  0  0  0  0  0  0  0  0  0  0  0
  141.7983   77.4126  223.5217 H   0  0  0  0  0  0  0  0  0  0  0  0
  141.7207   78.1831  221.8731 H   0  0  0  0  0  0  0  0  0  0  0  0
  142.0997   79.4979  224.5553 H   0  0  0  0  0  0  0  0  0  0  0  0
  143.1986   79.4617  223.0970 H   0  0  0  0  0  0  0  0  0  0  0  0
  141.7071   81.5520  223.7313 H   0  0  0  0  0  0  0  0  0  0  0  0
  142.0907   81.0180  222.0150 H   0  0  0  0  0  0  0  0  0  0  0  0
  139.6434   81.6903  222.8300 H   0  0  0  0  0  0  0  0  0  0  0  0
  139.9846   80.4805  221.5562 H   0  0  0  0  0  0  0  0  0  0  0  0
  139.7062   79.7935  224.5482 H   0  0  0  0  0  0  0  0  0  0  0  0
  138.3699   79.6456  223.3951 H   0  0  0  0  0  0  0  0  0  0  0  0
  140.8572   75.8431  222.6083 H   0  0  0  0  0  0  0  0  0  0  0  0
  138.1131   70.2629  221.1108 H   0  0  0  0  0  0  0  0  0  0  0  0
  137.5813   68.8338  222.1642 H   0  0  0  0  0  0  0  0  0  0  0  0
  136.2441   71.1460  221.2783 H   0  0  0  0  0  0  0  0  0  0  0  0
  136.9087   71.7634  223.7068 H   0  0  0  0  0  0  0  0  0  0  0  0
  135.1528   71.8606  223.2716 H   0  0  0  0  0  0  0  0  0  0  0  0
  136.3885   70.3855  225.3656 H   0  0  0  0  0  0  0  0  0  0  0  0
  134.6549   70.4600  224.9013 H   0  0  0  0  0  0  0  0  0  0  0  0
  135.7820   68.1880  224.8080 H   0  0  0  0  0  0  0  0  0  0  0  0
  134.8724   67.5488  222.7117 H   0  0  0  0  0  0  0  0  0  0  0  0
  133.7879   68.8328  223.3143 H   0  0  0  0  0  0  0  0  0  0  0  0
  135.5282   68.8215  220.9897 H   0  0  0  0  0  0  0  0  0  0  0  0
  134.3050   70.0596  221.5298 H   0  0  0  0  0  0  0  0  0  0  0  0
  1  2  2  0
  2  3  1  0
  3  4  2  0
  4  5  1  0
  5  6  1  0
  5  7  2  0
  7  8  1  0
  8  9  2  0
  9 10  1  0
 10 11  2  0
 11 12  1  0
 12 13  2  0
 13 14  1  0
 14 15  2  0
 15 16  1  0
 16 17  2  0
 17 18  1  0
 18 19  1  0
 19 20  1  0
 20 21  1  0
 21 22  1  0
 22 23  1  0
 23 24  1  0
 18 25  2  0
 11 26  1  0
 26 27  1  0
 27 28  1  0
 28 29  1  0
 29 30  1  0
 30 31  1  0
 31 32  1  0
 32 33  1  0
 26  2  1  0
 33 28  1  0
  9  3  1  0
 25 14  1  0
 24 19  1  0
  4 34  1  0
  7 35  1  0
  8 36  1  0
 12 37  1  0
 13 38  1  0
 15 39  1  0
 16 40  1  0
 17 41  1  0
 20 42  1  0
 20 43  1  0
 21 44  1  0
 21 45  1  0
 22 46  1  0
 22 47  1  0
 23 48  1  0
 23 49  1  0
 24 50  1  0
 24 51  1  0
 25 52  1  0
 27 53  1  0
 27 54  1  0
 28 55  1  0
 29 56  1  0
 29 57  1  0
 30 58  1  0
 30 59  1  0
 31 60  1  0
 32 61  1  0
 32 62  1  0
 33 63  1  0
 33 64  1  0
M  END
>  <smiles>  (26) 
O=c1c2cc(Cl)ccc2nc(/C=C/c2cccc(N3CCCCC3)c2)n1CC1CCNCC1

>  <score_type>  (26) 
oracle

>  <origin>  (26) 
autodockgpu

>  <m_score__min__energy>  (26) 
-9.8300000000000001

>  <m_primary>  (26) 
energy

>  <rmsd>  (26) 
6.642385419653828

>  <m_score__min__rmsd>  (26) 
6.642385419653828

>  <meeko>  (26) 
{"free_energy": -8.46, "intermolecular_energy": -10.25, "internal_energy": -1.91, "cluster_size": 26, "cluster_id": 2, "rank_in_cluster": 17}

>  <energy>  (26) 
-8.55

>  <cluster_rmsd>  (26) 
1.37

>  <cluster>  (26) 
2

$$$$

     RDKit          3D

 64 68  0  0  0  0  0  0  0  0999 V2000
  138.4150   68.3450  224.0490 O   0  0  0  0  0  0  0  0  0  0  0  0
  138.9530   69.4980  223.9910 C   0  0  0  0  0  0  0  0  0  0  0  0
  139.6930   69.8630  225.0980 C   0  0  0  0  0  0  0  0  0  0  0  0
  139.8420   69.0350  226.1940 C   0  0  0  0  0  0  0  0  0  0  0  0
  140.5930   69.4300  227.2940 C   0  0  0  0  0  0  0  0  0  0  0  0
  140.8020   68.4020  228.6980 Cl  0  0  0  0  0  0  0  0  0  0  0  0
  141.2080   70.6660  227.3100 C   0  0  0  0  0  0  0  0  0  0  0  0
  141.0660   71.5020  226.2230 C   0  0  0  0  0  0  0  0  0  0  0  0
  140.3170   71.0980  225.1350 C   0  0  0  0  0  0  0  0  0  0  0  0
  140.1520   71.8810  224.0520 N   0  0  0  0  0  0  0  0  0  0  0  0
  139.4280   71.5070  222.9840 C   0  0  0  0  0  0  0  0  0  0  0  0
  139.3130   72.4450  221.8490 C   0  0  0  0  0  0  0  0  0  0  0  0
  140.0370   73.5490  221.8240 C   0  0  0  0  0  0  0  0  0  0  0  0
  139.5090   74.8770  222.0400 C   0  0  0  0  0  0  0  0  0  0  0  0
  138.1650   75.1380  222.1270 C   0  0  0  0  0  0  0  0  0  0  0  0
  137.6710   76.4310  222.3380 C   0  0  0  0  0  0  0  0  0  0  0  0
  138.5890   77.4760  222.4620 C   0  0  0  0  0  0  0  0  0  0  0  0
  139.9450   77.2390  222.3780 C   0  0  0  0  0  0  0  0  0  0  0  0
  140.8120   78.3510  222.5130 N   0  0  0  0  0  0  0  0  0  0  0  0
  141.2130   79.0540  221.3100 C   0  0  0  0  0  0  0  0  0  0  0  0
  142.2210   80.1280  221.5750 C   0  0  0  0  0  0  0  0  0  0  0  0
  141.8670   81.0040  222.7380 C   0  0  0  0  0  0  0  0  0  0  0  0
  141.0370   80.3470  223.7890 C   0  0  0  0  0  0  0  0  0  0  0  0
  141.3290   78.8400  223.7700 C   0  0  0  0  0  0  0  0  0  0  0  0
  140.3690   75.9460  222.1700 C   0  0  0  0  0  0  0  0  0  0  0  0
  138.8010   70.3030  222.9130 N   0  0  0  0  0  0  0  0  0  0  0  0
  138.0230   69.9040  221.7870 C   0  0  0  0  0  0  0  0  0  0  0  0
  136.6200   70.3890  221.7360 C   0  0  0  0  0  0  0  0  0  0  0  0
  136.2570   71.2070  222.9800 C   0  0  0  0  0  0  0  0  0  0  0  0
  135.8720   70.3230  224.1230 C   0  0  0  0  0  0  0  0  0  0  0  0
  135.9990   68.9340  223.7250 N   0  0  0  0  0  0  0  0  0  0  0  0
  135.1410   68.5780  222.6250 C   0  0  0  0  0  0  0  0  0  0  0  0
  135.5710   69.3820  221.4180 C   0  0  0  0  0  0  0  0  0  0  0  0
  139.3582   68.0471  226.1956 H   0  0  0  0  0  0  0  0  0  0  0  0
  141.8041   70.9799  228.1796 H   0  0  0  0  0  0  0  0  0  0  0  0
  141.5489   72.4903  226.2221 H   0  0  0  0  0  0  0  0  0  0  0  0
  138.6223   72.2233  221.0221 H   0  0  0  0  0  0  0  0  0  0  0  0
  141.1145   73.4514  221.6254 H   0  0  0  0  0  0  0  0  0  0  0  0
  137.4531   74.3053  222.0279 H   0  0  0  0  0  0  0  0  0  0  0  0
  136.5891   76.6186  222.4043 H   0  0  0  0  0  0  0  0  0  0  0  0
  138.2260   78.5009  222.6288 H   0  0  0  0  0  0  0  0  0  0  0  0
  141.6489   78.3283  220.6076 H   0  0  0  0  0  0  0  0  0  0  0  0
  140.3164   79.5365  220.8938 H   0  0  0  0  0  0  0  0  0  0  0  0
  143.1914   79.6523  221.7797 H   0  0  0  0  0  0  0  0  0  0  0  0
  142.2523   80.7706  220.6828 H   0  0  0  0  0  0  0  0  0  0  0  0
  142.8022   81.3461  223.2053 H   0  0  0  0  0  0  0  0  0  0  0  0
  141.2577   81.8249  222.3319 H   0  0  0  0  0  0  0  0  0  0  0  0
  141.2914   80.7617  224.7756 H   0  0  0  0  0  0  0  0  0  0  0  0
  139.9696   80.5263  223.5926 H   0  0  0  0  0  0  0  0  0  0  0  0
  142.4122   78.6596  223.8341 H   0  0  0  0  0  0  0  0  0  0  0  0
  140.8624   78.3280  224.6245 H   0  0  0  0  0  0  0  0  0  0  0  0
  141.4505   75.7561  222.1041 H   0  0  0  0  0  0  0  0  0  0  0  0
  138.5340   70.2684  220.8836 H   0  0  0  0  0  0  0  0  0  0  0  0
  137.9463   68.8094  221.8638 H   0  0  0  0  0  0  0  0  0  0  0  0
  136.6159   71.0444  220.8526 H   0  0  0  0  0  0  0  0  0  0  0  0
  137.1255   71.8144  223.2745 H   0  0  0  0  0  0  0  0  0  0  0  0
  135.3972   71.8474  222.7336 H   0  0  0  0  0  0  0  0  0  0  0  0
  136.5341   70.5211  224.9788 H   0  0  0  0  0  0  0  0  0  0  0  0
  134.8301   70.5281  224.4099 H   0  0  0  0  0  0  0  0  0  0  0  0
  136.0070   68.2820  224.5150 H   0  0  0  0  0  0  0  0  0  0  0  0
  135.2353   67.5032  222.4106 H   0  0  0  0  0  0  0  0  0  0  0  0
  134.0914   68.7935  222.8737 H   0  0  0  0  0  0  0  0  0  0  0  0
  135.9665   68.6911  220.6589 H   0  0  0  0  0  0  0  0  0  0  0  0
  134.6884   69.9286  221.0543 H   0  0  0  0  0  0  0  0  0  0  0  0
  1  2  2  0
  2  3  1  0
  3  4  2  0
  4  5  1  0
  5  6  1  0
  5  7  2  0
  7  8  1  0
  8  9  2  0
  9 10  1  0
 10 11  2  0
 11 12  1  0
 12 13  2  0
 13 14  1  0
 14 15  2  0
 15 16  1  0
 16 17  2  0
 17 18  1  0
 18 19  1  0
 19 20  1  0
 20 21  1  0
 21 22  1  0
 22 23  1  0
 23 24  1  0
 18 25  2  0
 11 26  1  0
 26 27  1  0
 27 28  1  0
 28 29  1  0
 29 30  1  0
 30 31  1  0
 31 32  1  0
 32 33  1  0
 26  2  1  0
 33 28  1  0
  9  3  1  0
 25 14  1  0
 24 19  1  0
  4 34  1  0
  7 35  1  0
  8 36  1  0
 12 37  1  0
 13 38  1  0
 15 39  1  0
 16 40  1  0
 17 41  1  0
 20 42  1  0
 20 43  1  0
 21 44  1  0
 21 45  1  0
 22 46  1  0
 22 47  1  0
 23 48  1  0
 23 49  1  0
 24 50  1  0
 24 51  1  0
 25 52  1  0
 27 53  1  0
 27 54  1  0
 28 55  1  0
 29 56  1  0
 29 57  1  0
 30 58  1  0
 30 59  1  0
 31 60  1  0
 32 61  1  0
 32 62  1  0
 33 63  1  0
 33 64  1  0
M  END
>  <smiles>  (27) 
O=c1c2cc(Cl)ccc2nc(/C=C/c2cccc(N3CCCCC3)c2)n1CC1CCNCC1

>  <score_type>  (27) 
oracle

>  <origin>  (27) 
autodockgpu

>  <m_score__min__energy>  (27) 
-9.8300000000000001

>  <m_primary>  (27) 
energy

>  <rmsd>  (27) 
6.623674268952507

>  <m_score__min__rmsd>  (27) 
6.623674268952507

>  <meeko>  (27) 
{"free_energy": -8.53, "intermolecular_energy": -10.32, "internal_energy": -1.91, "cluster_size": 26, "cluster_id": 2, "rank_in_cluster": 14}

>  <energy>  (27) 
-8.54

>  <cluster_rmsd>  (27) 
1.42

>  <cluster>  (27) 
2

$$$$

     RDKit          3D

 64 68  0  0  0  0  0  0  0  0999 V2000
  141.9510   77.7870  220.1710 O   0  0  0  0  0  0  0  0  0  0  0  0
  141.2270   76.9430  220.7900 C   0  0  0  0  0  0  0  0  0  0  0  0
  141.7000   75.6470  220.7960 C   0  0  0  0  0  0  0  0  0  0  0  0
  142.8800   75.2870  220.1730 C   0  0  0  0  0  0  0  0  0  0  0  0
  143.3300   73.9730  220.1960 C   0  0  0  0  0  0  0  0  0  0  0  0
  144.8240   73.4870  219.4170 Cl  0  0  0  0  0  0  0  0  0  0  0  0
  142.6020   72.9970  220.8460 C   0  0  0  0  0  0  0  0  0  0  0  0
  141.4230   73.3430  221.4710 C   0  0  0  0  0  0  0  0  0  0  0  0
  140.9850   74.6530  221.4420 C   0  0  0  0  0  0  0  0  0  0  0  0
  139.8400   75.0360  222.0380 N   0  0  0  0  0  0  0  0  0  0  0  0
  139.3960   76.3040  222.0220 C   0  0  0  0  0  0  0  0  0  0  0  0
  138.1260   76.6140  222.7090 C   0  0  0  0  0  0  0  0  0  0  0  0
  137.0640   75.8540  222.5160 C   0  0  0  0  0  0  0  0  0  0  0  0
  136.0020   75.6760  223.4810 C   0  0  0  0  0  0  0  0  0  0  0  0
  135.2840   76.7230  223.9980 C   0  0  0  0  0  0  0  0  0  0  0  0
  134.2570   76.5320  224.9310 C   0  0  0  0  0  0  0  0  0  0  0  0
  133.9690   75.2270  225.3380 C   0  0  0  0  0  0  0  0  0  0  0  0
  134.6770   74.1570  224.8310 C   0  0  0  0  0  0  0  0  0  0  0  0
  134.3270   72.8650  225.2930 N   0  0  0  0  0  0  0  0  0  0  0  0
  135.0440   71.7280  224.7520 C   0  0  0  0  0  0  0  0  0  0  0  0
  134.5000   70.4180  225.2280 C   0  0  0  0  0  0  0  0  0  0  0  0
  134.2570   70.3750  226.7060 C   0  0  0  0  0  0  0  0  0  0  0  0
  133.9500   71.6940  227.3310 C   0  0  0  0  0  0  0  0  0  0  0  0
  133.2990   72.5950  226.2730 C   0  0  0  0  0  0  0  0  0  0  0  0
  135.6740   74.4100  223.9170 C   0  0  0  0  0  0  0  0  0  0  0  0
  140.0720   77.3050  221.3980 N   0  0  0  0  0  0  0  0  0  0  0  0
  139.6020   78.6510  221.3680 C   0  0  0  0  0  0  0  0  0  0  0  0
  139.8720   79.4820  222.5690 C   0  0  0  0  0  0  0  0  0  0  0  0
  140.3710   80.8810  222.1900 C   0  0  0  0  0  0  0  0  0  0  0  0
  141.8380   80.8810  221.9030 C   0  0  0  0  0  0  0  0  0  0  0  0
  142.3550   79.5320  222.0280 N   0  0  0  0  0  0  0  0  0  0  0  0
  142.1950   78.9820  223.3490 C   0  0  0  0  0  0  0  0  0  0  0  0
  140.7140   78.8720  223.6340 C   0  0  0  0  0  0  0  0  0  0  0  0
  143.4721   76.0530  219.6508 H   0  0  0  0  0  0  0  0  0  0  0  0
  142.9580   71.9564  220.8651 H   0  0  0  0  0  0  0  0  0  0  0  0
  140.8312   72.5764  221.9926 H   0  0  0  0  0  0  0  0  0  0  0  0
  138.0648   77.4808  223.3835 H   0  0  0  0  0  0  0  0  0  0  0  0
  136.9815   75.3207  221.5575 H   0  0  0  0  0  0  0  0  0  0  0  0
  135.5219   77.7456  223.6697 H   0  0  0  0  0  0  0  0  0  0  0  0
  133.6925   77.3865  225.3324 H   0  0  0  0  0  0  0  0  0  0  0  0
  133.1683   75.0505  226.0713 H   0  0  0  0  0  0  0  0  0  0  0  0
  134.9750   71.7590  223.6546 H   0  0  0  0  0  0  0  0  0  0  0  0
  136.0857   71.7988  225.0982 H   0  0  0  0  0  0  0  0  0  0  0  0
  133.5469   70.2285  224.7125 H   0  0  0  0  0  0  0  0  0  0  0  0
  135.2557   69.6515  225.0012 H   0  0  0  0  0  0  0  0  0  0  0  0
  133.4071   69.7022  226.8930 H   0  0  0  0  0  0  0  0  0  0  0  0
  135.1957   70.0284  227.1628 H   0  0  0  0  0  0  0  0  0  0  0  0
  133.2582   71.5528  228.1745 H   0  0  0  0  0  0  0  0  0  0  0  0
  134.8748   72.1585  227.7039 H   0  0  0  0  0  0  0  0  0  0  0  0
  132.4486   72.0795  225.8028 H   0  0  0  0  0  0  0  0  0  0  0  0
  132.9119   73.5238  226.7175 H   0  0  0  0  0  0  0  0  0  0  0  0
  136.2391   73.5571  223.5130 H   0  0  0  0  0  0  0  0  0  0  0  0
  140.0720   79.1484  220.5068 H   0  0  0  0  0  0  0  0  0  0  0  0
  138.5062   78.5719  221.3134 H   0  0  0  0  0  0  0  0  0  0  0  0
  138.8828   79.5611  223.0435 H   0  0  0  0  0  0  0  0  0  0  0  0
  139.8316   81.2222  221.2941 H   0  0  0  0  0  0  0  0  0  0  0  0
  140.1858   81.5550  223.0394 H   0  0  0  0  0  0  0  0  0  0  0  0
  142.0115   81.2469  220.8802 H   0  0  0  0  0  0  0  0  0  0  0  0
  142.3518   81.5385  222.6197 H   0  0  0  0  0  0  0  0  0  0  0  0
  143.2770   79.4070  221.6000 H   0  0  0  0  0  0  0  0  0  0  0  0
  142.6593   77.9860  223.3973 H   0  0  0  0  0  0  0  0  0  0  0  0
  142.6800   79.6302  224.0938 H   0  0  0  0  0  0  0  0  0  0  0  0
  140.4517   77.8074  223.7220 H   0  0  0  0  0  0  0  0  0  0  0  0
  140.5158   79.4211  224.5663 H   0  0  0  0  0  0  0  0  0  0  0  0
  1  2  2  0
  2  3  1  0
  3  4  2  0
  4  5  1  0
  5  6  1  0
  5  7  2  0
  7  8  1  0
  8  9  2  0
  9 10  1  0
 10 11  2  0
 11 12  1  0
 12 13  2  0
 13 14  1  0
 14 15  2  0
 15 16  1  0
 16 17  2  0
 17 18  1  0
 18 19  1  0
 19 20  1  0
 20 21  1  0
 21 22  1  0
 22 23  1  0
 23 24  1  0
 18 25  2  0
 11 26  1  0
 26 27  1  0
 27 28  1  0
 28 29  1  0
 29 30  1  0
 30 31  1  0
 31 32  1  0
 32 33  1  0
 26  2  1  0
 33 28  1  0
  9  3  1  0
 25 14  1  0
 24 19  1  0
  4 34  1  0
  7 35  1  0
  8 36  1  0
 12 37  1  0
 13 38  1  0
 15 39  1  0
 16 40  1  0
 17 41  1  0
 20 42  1  0
 20 43  1  0
 21 44  1  0
 21 45  1  0
 22 46  1  0
 22 47  1  0
 23 48  1  0
 23 49  1  0
 24 50  1  0
 24 51  1  0
 25 52  1  0
 27 53  1  0
 27 54  1  0
 28 55  1  0
 29 56  1  0
 29 57  1  0
 30 58  1  0
 30 59  1  0
 31 60  1  0
 32 61  1  0
 32 62  1  0
 33 63  1  0
 33 64  1  0
M  END
>  <smiles>  (28) 
O=c1c2cc(Cl)ccc2nc(/C=C/c2cccc(N3CCCCC3)c2)n1CC1CCNCC1

>  <score_type>  (28) 
oracle

>  <origin>  (28) 
autodockgpu

>  <m_score__min__energy>  (28) 
-9.8300000000000001

>  <m_primary>  (28) 
energy

>  <rmsd>  (28) 
10.227458366136421

>  <m_score__min__rmsd>  (28) 
10.227458366136421

>  <meeko>  (28) 
{"free_energy": -8.26, "intermolecular_energy": -10.05, "internal_energy": -1.8, "cluster_size": 3, "cluster_id": 3, "rank_in_cluster": 2}

>  <energy>  (28) 
-8.53

>  <cluster_rmsd>  (28) 
1.38

>  <cluster>  (28) 
2

$$$$

     RDKit          3D

 64 68  0  0  0  0  0  0  0  0999 V2000
  143.2670   76.2930  219.7710 O   0  0  0  0  0  0  0  0  0  0  0  0
  142.3060   75.7930  220.4380 C   0  0  0  0  0  0  0  0  0  0  0  0
  141.5570   76.6950  221.1670 C   0  0  0  0  0  0  0  0  0  0  0  0
  141.8300   78.0490  221.1710 C   0  0  0  0  0  0  0  0  0  0  0  0
  141.0580   78.9330  221.9150 C   0  0  0  0  0  0  0  0  0  0  0  0
  141.3780   80.6560  221.9400 Cl  0  0  0  0  0  0  0  0  0  0  0  0
  139.9970   78.4690  222.6670 C   0  0  0  0  0  0  0  0  0  0  0  0
  139.7140   77.1210  222.6710 C   0  0  0  0  0  0  0  0  0  0  0  0
  140.4890   76.2510  221.9270 C   0  0  0  0  0  0  0  0  0  0  0  0
  140.2500   74.9270  221.9020 N   0  0  0  0  0  0  0  0  0  0  0  0
  140.9910   74.0640  221.1850 C   0  0  0  0  0  0  0  0  0  0  0  0
  140.6390   72.6300  221.2290 C   0  0  0  0  0  0  0  0  0  0  0  0
  139.5630   72.2300  221.8800 C   0  0  0  0  0  0  0  0  0  0  0  0
  139.4300   70.9420  222.5230 C   0  0  0  0  0  0  0  0  0  0  0  0
  139.0600   69.8070  221.8470 C   0  0  0  0  0  0  0  0  0  0  0  0
  138.9360   68.5670  222.4860 C   0  0  0  0  0  0  0  0  0  0  0  0
  139.2030   68.5020  223.8560 C   0  0  0  0  0  0  0  0  0  0  0  0
  139.5770   69.6280  224.5570 C   0  0  0  0  0  0  0  0  0  0  0  0
  139.8290   69.4810  225.9430 N   0  0  0  0  0  0  0  0  0  0  0  0
  139.9750   68.1390  226.4720 C   0  0  0  0  0  0  0  0  0  0  0  0
  140.1170   68.1150  227.9630 C   0  0  0  0  0  0  0  0  0  0  0  0
  141.1000   69.1180  228.4840 C   0  0  0  0  0  0  0  0  0  0  0  0
  141.2610   70.3370  227.6400 C   0  0  0  0  0  0  0  0  0  0  0  0
  139.9530   70.5780  226.8750 C   0  0  0  0  0  0  0  0  0  0  0  0
  139.6810   70.8180  223.8730 C   0  0  0  0  0  0  0  0  0  0  0  0
  142.0460   74.4640  220.4270 N   0  0  0  0  0  0  0  0  0  0  0  0
  142.8420   73.5530  219.6730 C   0  0  0  0  0  0  0  0  0  0  0  0
  143.7370   72.6500  220.4410 C   0  0  0  0  0  0  0  0  0  0  0  0
  144.7930   73.4330  221.2290 C   0  0  0  0  0  0  0  0  0  0  0  0
  145.9590   73.7990  220.3690 C   0  0  0  0  0  0  0  0  0  0  0  0
  145.7250   73.3360  219.0140 N   0  0  0  0  0  0  0  0  0  0  0  0
  145.5790   71.9070  218.9200 C   0  0  0  0  0  0  0  0  0  0  0  0
  144.3430   71.5120  219.6980 C   0  0  0  0  0  0  0  0  0  0  0  0
  142.6715   78.4335  220.5760 H   0  0  0  0  0  0  0  0  0  0  0  0
  139.3848   79.1678  223.2561 H   0  0  0  0  0  0  0  0  0  0  0  0
  138.8720   76.7371  223.2657 H   0  0  0  0  0  0  0  0  0  0  0  0
  141.2758   71.8932  220.7175 H   0  0  0  0  0  0  0  0  0  0  0  0
  138.7105   72.9228  221.9372 H   0  0  0  0  0  0  0  0  0  0  0  0
  138.8541   69.8730  220.7685 H   0  0  0  0  0  0  0  0  0  0  0  0
  138.6368   67.6693  221.9251 H   0  0  0  0  0  0  0  0  0  0  0  0
  139.1135   67.5399  224.3816 H   0  0  0  0  0  0  0  0  0  0  0  0
  139.0865   67.5531  226.1941 H   0  0  0  0  0  0  0  0  0  0  0  0
  140.8948   67.7129  226.0448 H   0  0  0  0  0  0  0  0  0  0  0  0
  139.1343   68.3254  228.4101 H   0  0  0  0  0  0  0  0  0  0  0  0
  140.4942   67.1186  228.2369 H   0  0  0  0  0  0  0  0  0  0  0  0
  140.7669   69.4357  229.4830 H   0  0  0  0  0  0  0  0  0  0  0  0
  142.0787   68.6159  228.4903 H   0  0  0  0  0  0  0  0  0  0  0  0
  141.4816   71.2043  228.2796 H   0  0  0  0  0  0  0  0  0  0  0  0
  142.0908   70.1971  226.9315 H   0  0  0  0  0  0  0  0  0  0  0  0
  139.1001   70.5877  227.5696 H   0  0  0  0  0  0  0  0  0  0  0  0
  139.9623   71.5481  226.3566 H   0  0  0  0  0  0  0  0  0  0  0  0
  139.9799   71.7167  224.4325 H   0  0  0  0  0  0  0  0  0  0  0  0
  142.1589   72.9227  219.0847 H   0  0  0  0  0  0  0  0  0  0  0  0
  143.5155   74.1857  219.0762 H   0  0  0  0  0  0  0  0  0  0  0  0
  143.0481   72.1559  221.1419 H   0  0  0  0  0  0  0  0  0  0  0  0
  144.3361   74.3532  221.6220 H   0  0  0  0  0  0  0  0  0  0  0  0
  145.1556   72.7947  222.0482 H   0  0  0  0  0  0  0  0  0  0  0  0
  146.0840   74.8919  220.3666 H   0  0  0  0  0  0  0  0  0  0  0  0
  146.8697   73.3265  220.7657 H   0  0  0  0  0  0  0  0  0  0  0  0
  146.3450   73.7690  218.3230 H   0  0  0  0  0  0  0  0  0  0  0  0
  145.4673   71.6115  217.8663 H   0  0  0  0  0  0  0  0  0  0  0  0
  146.4667   71.4040  219.3311 H   0  0  0  0  0  0  0  0  0  0  0  0
  143.5968   71.1159  218.9936 H   0  0  0  0  0  0  0  0  0  0  0  0
  144.6471   70.7586  220.4396 H   0  0  0  0  0  0  0  0  0  0  0  0
  1  2  2  0
  2  3  1  0
  3  4  2  0
  4  5  1  0
  5  6  1  0
  5  7  2  0
  7  8  1  0
  8  9  2  0
  9 10  1  0
 10 11  2  0
 11 12  1  0
 12 13  2  0
 13 14  1  0
 14 15  2  0
 15 16  1  0
 16 17  2  0
 17 18  1  0
 18 19  1  0
 19 20  1  0
 20 21  1  0
 21 22  1  0
 22 23  1  0
 23 24  1  0
 18 25  2  0
 11 26  1  0
 26 27  1  0
 27 28  1  0
 28 29  1  0
 29 30  1  0
 30 31  1  0
 31 32  1  0
 32 33  1  0
 26  2  1  0
 33 28  1  0
  9  3  1  0
 25 14  1  0
 24 19  1  0
  4 34  1  0
  7 35  1  0
  8 36  1  0
 12 37  1  0
 13 38  1  0
 15 39  1  0
 16 40  1  0
 17 41  1  0
 20 42  1  0
 20 43  1  0
 21 44  1  0
 21 45  1  0
 22 46  1  0
 22 47  1  0
 23 48  1  0
 23 49  1  0
 24 50  1  0
 24 51  1  0
 25 52  1  0
 27 53  1  0
 27 54  1  0
 28 55  1  0
 29 56  1  0
 29 57  1  0
 30 58  1  0
 30 59  1  0
 31 60  1  0
 32 61  1  0
 32 62  1  0
 33 63  1  0
 33 64  1  0
M  END
>  <smiles>  (29) 
O=c1c2cc(Cl)ccc2nc(/C=C/c2cccc(N3CCCCC3)c2)n1CC1CCNCC1

>  <score_type>  (29) 
oracle

>  <origin>  (29) 
autodockgpu

>  <m_score__min__energy>  (29) 
-9.8300000000000001

>  <m_primary>  (29) 
energy

>  <rmsd>  (29) 
11.542672773652619

>  <m_score__min__rmsd>  (29) 
11.542672773652619

>  <meeko>  (29) 
{"free_energy": -9.36, "intermolecular_energy": -11.15, "internal_energy": -1.51, "cluster_size": 14, "cluster_id": 1, "rank_in_cluster": 4}

>  <energy>  (29) 
-8.52

>  <cluster_rmsd>  (29) 
1.08

>  <cluster>  (29) 
2

$$$$

     RDKit          3D

 64 68  0  0  0  0  0  0  0  0999 V2000
  137.8090   69.2220  223.7360 O   0  0  0  0  0  0  0  0  0  0  0  0
  138.6010   70.2160  223.6620 C   0  0  0  0  0  0  0  0  0  0  0  0
  139.4070   70.4160  224.7640 C   0  0  0  0  0  0  0  0  0  0  0  0
  139.3600   69.5940  225.8730 C   0  0  0  0  0  0  0  0  0  0  0  0
  140.1850   69.8210  226.9680 C   0  0  0  0  0  0  0  0  0  0  0  0
  140.1490   68.7950  228.3890 Cl  0  0  0  0  0  0  0  0  0  0  0  0
  141.0710   70.8790  226.9660 C   0  0  0  0  0  0  0  0  0  0  0  0
  141.1270   71.7070  225.8660 C   0  0  0  0  0  0  0  0  0  0  0  0
  140.3020   71.4710  224.7820 C   0  0  0  0  0  0  0  0  0  0  0  0
  140.3240   72.2530  223.6870 N   0  0  0  0  0  0  0  0  0  0  0  0
  139.5300   72.0420  222.6220 C   0  0  0  0  0  0  0  0  0  0  0  0
  139.6370   72.9620  221.4730 C   0  0  0  0  0  0  0  0  0  0  0  0
  140.2060   74.1450  221.6180 C   0  0  0  0  0  0  0  0  0  0  0  0
  139.4990   75.3510  221.9870 C   0  0  0  0  0  0  0  0  0  0  0  0
  138.1300   75.4380  221.9940 C   0  0  0  0  0  0  0  0  0  0  0  0
  137.4610   76.6140  222.3560 C   0  0  0  0  0  0  0  0  0  0  0  0
  138.2280   77.7250  222.7170 C   0  0  0  0  0  0  0  0  0  0  0  0
  139.6060   77.6610  222.7180 C   0  0  0  0  0  0  0  0  0  0  0  0
  140.3130   78.8290  223.0960 N   0  0  0  0  0  0  0  0  0  0  0  0
  141.7610   78.7700  223.1310 C   0  0  0  0  0  0  0  0  0  0  0  0
  142.3800   80.0260  223.6590 C   0  0  0  0  0  0  0  0  0  0  0  0
  141.8060   81.2720  223.0580 C   0  0  0  0  0  0  0  0  0  0  0  0
  140.3900   81.1560  222.6030 C   0  0  0  0  0  0  0  0  0  0  0  0
  139.6920   80.0850  223.4510 C   0  0  0  0  0  0  0  0  0  0  0  0
  140.2050   76.4770  222.3540 C   0  0  0  0  0  0  0  0  0  0  0  0
  138.6400   71.0160  222.5690 N   0  0  0  0  0  0  0  0  0  0  0  0
  137.7880   70.7920  221.4480 C   0  0  0  0  0  0  0  0  0  0  0  0
  138.3610   70.0210  220.3150 C   0  0  0  0  0  0  0  0  0  0  0  0
  137.3450   69.0360  219.7270 C   0  0  0  0  0  0  0  0  0  0  0  0
  137.2900   67.7680  220.5160 C   0  0  0  0  0  0  0  0  0  0  0  0
  138.1970   67.8620  221.6450 N   0  0  0  0  0  0  0  0  0  0  0  0
  139.5710   68.0450  221.2560 C   0  0  0  0  0  0  0  0  0  0  0  0
  139.6820   69.3730  220.5420 C   0  0  0  0  0  0  0  0  0  0  0  0
  138.6588   68.7467  225.8897 H   0  0  0  0  0  0  0  0  0  0  0  0
  141.7247   71.0592  227.8321 H   0  0  0  0  0  0  0  0  0  0  0  0
  141.8275   72.5550  225.8504 H   0  0  0  0  0  0  0  0  0  0  0  0
  139.2412   72.6612  220.4918 H   0  0  0  0  0  0  0  0  0  0  0  0
  141.2901   74.2176  221.4466 H   0  0  0  0  0  0  0  0  0  0  0  0
  137.5389   74.5561  221.7062 H   0  0  0  0  0  0  0  0  0  0  0  0
  136.3620   76.6618  222.3562 H   0  0  0  0  0  0  0  0  0  0  0  0
  137.7271   78.6614  223.0037 H   0  0  0  0  0  0  0  0  0  0  0  0
  142.0631   77.9314  223.7756 H   0  0  0  0  0  0  0  0  0  0  0  0
  142.1121   78.6370  222.0971 H   0  0  0  0  0  0  0  0  0  0  0  0
  142.2242   80.0604  224.7474 H   0  0  0  0  0  0  0  0  0  0  0  0
  143.4467   79.9989  223.3916 H   0  0  0  0  0  0  0  0  0  0  0  0
  141.8579   82.0705  223.8127 H   0  0  0  0  0  0  0  0  0  0  0  0
  142.4025   81.4833  222.1583 H   0  0  0  0  0  0  0  0  0  0  0  0
  139.8790   82.1217  222.7308 H   0  0  0  0  0  0  0  0  0  0  0  0
  140.3577   80.8750  221.5400 H   0  0  0  0  0  0  0  0  0  0  0  0
  139.8343   80.2926  224.5218 H   0  0  0  0  0  0  0  0  0  0  0  0
  138.6082   80.0659  223.2639 H   0  0  0  0  0  0  0  0  0  0  0  0
  141.3038   76.4261  222.3559 H   0  0  0  0  0  0  0  0  0  0  0  0
  136.9021   70.2475  221.8068 H   0  0  0  0  0  0  0  0  0  0  0  0
  137.5803   71.7921  221.0398 H   0  0  0  0  0  0  0  0  0  0  0  0
  138.5864   70.8013  219.5731 H   0  0  0  0  0  0  0  0  0  0  0  0
  136.3494   69.5038  219.7327 H   0  0  0  0  0  0  0  0  0  0  0  0
  137.6570   68.7904  218.7012 H   0  0  0  0  0  0  0  0  0  0  0  0
  136.2649   67.6075  220.8814 H   0  0  0  0  0  0  0  0  0  0  0  0
  137.5870   66.9242  219.8759 H   0  0  0  0  0  0  0  0  0  0  0  0
  138.0260   67.1530  222.3650 H   0  0  0  0  0  0  0  0  0  0  0  0
  140.2145   68.0460  222.1481 H   0  0  0  0  0  0  0  0  0  0  0  0
  139.8927   67.2274  220.5941 H   0  0  0  0  0  0  0  0  0  0  0  0
  140.3039   70.0471  221.1493 H   0  0  0  0  0  0  0  0  0  0  0  0
  140.1293   69.1810  219.5556 H   0  0  0  0  0  0  0  0  0  0  0  0
  1  2  2  0
  2  3  1  0
  3  4  2  0
  4  5  1  0
  5  6  1  0
  5  7  2  0
  7  8  1  0
  8  9  2  0
  9 10  1  0
 10 11  2  0
 11 12  1  0
 12 13  2  0
 13 14  1  0
 14 15  2  0
 15 16  1  0
 16 17  2  0
 17 18  1  0
 18 19  1  0
 19 20  1  0
 20 21  1  0
 21 22  1  0
 22 23  1  0
 23 24  1  0
 18 25  2  0
 11 26  1  0
 26 27  1  0
 27 28  1  0
 28 29  1  0
 29 30  1  0
 30 31  1  0
 31 32  1  0
 32 33  1  0
 26  2  1  0
 33 28  1  0
  9  3  1  0
 25 14  1  0
 24 19  1  0
  4 34  1  0
  7 35  1  0
  8 36  1  0
 12 37  1  0
 13 38  1  0
 15 39  1  0
 16 40  1  0
 17 41  1  0
 20 42  1  0
 20 43  1  0
 21 44  1  0
 21 45  1  0
 22 46  1  0
 22 47  1  0
 23 48  1  0
 23 49  1  0
 24 50  1  0
 24 51  1  0
 25 52  1  0
 27 53  1  0
 27 54  1  0
 28 55  1  0
 29 56  1  0
 29 57  1  0
 30 58  1  0
 30 59  1  0
 31 60  1  0
 32 61  1  0
 32 62  1  0
 33 63  1  0
 33 64  1  0
M  END
>  <smiles>  (30) 
O=c1c2cc(Cl)ccc2nc(/C=C/c2cccc(N3CCCCC3)c2)n1CC1CCNCC1

>  <score_type>  (30) 
oracle

>  <origin>  (30) 
autodockgpu

>  <m_score__min__energy>  (30) 
-9.8300000000000001

>  <m_primary>  (30) 
energy

>  <rmsd>  (30) 
6.597788602442327

>  <m_score__min__rmsd>  (30) 
6.597788602442327

>  <meeko>  (30) 
{"free_energy": -8.27, "intermolecular_energy": -10.06, "internal_energy": -1.92, "cluster_size": 26, "cluster_id": 2, "rank_in_cluster": 24}

>  <energy>  (30) 
-8.49

>  <cluster_rmsd>  (30) 
1.21

>  <cluster>  (30) 
2

$$$$

     RDKit          3D

 64 68  0  0  0  0  0  0  0  0999 V2000
  142.9210   76.9410  219.0890 O   0  0  0  0  0  0  0  0  0  0  0  0
  142.2020   76.5020  220.0440 C   0  0  0  0  0  0  0  0  0  0  0  0
  141.6260   77.4670  220.8450 C   0  0  0  0  0  0  0  0  0  0  0  0
  141.8140   78.8180  220.6260 C   0  0  0  0  0  0  0  0  0  0  0  0
  141.2210   79.7670  221.4490 C   0  0  0  0  0  0  0  0  0  0  0  0
  141.4400   81.4880  221.1960 Cl  0  0  0  0  0  0  0  0  0  0  0  0
  140.4280   79.3730  222.5080 C   0  0  0  0  0  0  0  0  0  0  0  0
  140.2320   78.0280  222.7370 C   0  0  0  0  0  0  0  0  0  0  0  0
  140.8280   77.0930  221.9110 C   0  0  0  0  0  0  0  0  0  0  0  0
  140.6640   75.7700  222.0980 N   0  0  0  0  0  0  0  0  0  0  0  0
  141.2340   74.8450  221.3060 C   0  0  0  0  0  0  0  0  0  0  0  0
  140.9870   73.4190  221.6020 C   0  0  0  0  0  0  0  0  0  0  0  0
  139.9090   73.0560  222.2710 C   0  0  0  0  0  0  0  0  0  0  0  0
  139.6730   71.7230  222.7780 C   0  0  0  0  0  0  0  0  0  0  0  0
  139.0210   70.7570  222.0550 C   0  0  0  0  0  0  0  0  0  0  0  0
  138.8020   69.4700  222.5620 C   0  0  0  0  0  0  0  0  0  0  0  0
  139.2690   69.1780  223.8460 C   0  0  0  0  0  0  0  0  0  0  0  0
  139.9270   70.1320  224.5920 C   0  0  0  0  0  0  0  0  0  0  0  0
  140.3690   69.7600  225.8850 N   0  0  0  0  0  0  0  0  0  0  0  0
  140.4690   70.7930  226.8970 C   0  0  0  0  0  0  0  0  0  0  0  0
  141.0600   70.2950  228.1790 C   0  0  0  0  0  0  0  0  0  0  0  0
  140.4690   68.9990  228.6440 C   0  0  0  0  0  0  0  0  0  0  0  0
  139.9460   68.1210  227.5580 C   0  0  0  0  0  0  0  0  0  0  0  0
  140.7300   68.4150  226.2730 C   0  0  0  0  0  0  0  0  0  0  0  0
  140.1130   71.3790  224.0390 C   0  0  0  0  0  0  0  0  0  0  0  0
  142.0230   75.1750  220.2500 N   0  0  0  0  0  0  0  0  0  0  0  0
  142.6390   74.1990  219.4130 C   0  0  0  0  0  0  0  0  0  0  0  0
  144.1060   74.3130  219.2170 C   0  0  0  0  0  0  0  0  0  0  0  0
  144.6670   73.1290  218.4210 C   0  0  0  0  0  0  0  0  0  0  0  0
  144.9120   71.9450  219.3000 C   0  0  0  0  0  0  0  0  0  0  0  0
  144.5020   72.2560  220.6560 N   0  0  0  0  0  0  0  0  0  0  0  0
  145.2340   73.3530  221.2330 C   0  0  0  0  0  0  0  0  0  0  0  0
  144.9260   74.5950  220.4270 C   0  0  0  0  0  0  0  0  0  0  0  0
  142.4435   79.1476  219.7863 H   0  0  0  0  0  0  0  0  0  0  0  0
  139.9583   80.1232  223.1611 H   0  0  0  0  0  0  0  0  0  0  0  0
  139.6018   77.6987  223.5763 H   0  0  0  0  0  0  0  0  0  0  0  0
  141.7043   72.6569  221.2635 H   0  0  0  0  0  0  0  0  0  0  0  0
  139.1383   73.8189  222.4552 H   0  0  0  0  0  0  0  0  0  0  0  0
  138.6587   71.0007  221.0453 H   0  0  0  0  0  0  0  0  0  0  0  0
  138.2766   68.7097  221.9655 H   0  0  0  0  0  0  0  0  0  0  0  0
  139.1095   68.1742  224.2668 H   0  0  0  0  0  0  0  0  0  0  0  0
  141.1030   71.6041  226.5096 H   0  0  0  0  0  0  0  0  0  0  0  0
  139.4488   71.1412  227.1163 H   0  0  0  0  0  0  0  0  0  0  0  0
  142.1408   70.1524  228.0323 H   0  0  0  0  0  0  0  0  0  0  0  0
  140.8403   71.0471  228.9511 H   0  0  0  0  0  0  0  0  0  0  0  0
  141.2480   68.4436  229.1868 H   0  0  0  0  0  0  0  0  0  0  0  0
  139.6042   69.2620  229.2709 H   0  0  0  0  0  0  0  0  0  0  0  0
  140.0769   67.0656  227.8390 H   0  0  0  0  0  0  0  0  0  0  0  0
  138.8753   68.3164  227.3987 H   0  0  0  0  0  0  0  0  0  0  0  0
  141.8117   68.3489  226.4616 H   0  0  0  0  0  0  0  0  0  0  0  0
  140.4922   67.6896  225.4810 H   0  0  0  0  0  0  0  0  0  0  0  0
  140.6396   72.1401  224.6335 H   0  0  0  0  0  0  0  0  0  0  0  0
  142.4380   73.2104  219.8515 H   0  0  0  0  0  0  0  0  0  0  0  0
  142.2028   74.3594  218.4160 H   0  0  0  0  0  0  0  0  0  0  0  0
  144.2057   75.2335  218.6231 H   0  0  0  0  0  0  0  0  0  0  0  0
  143.9456   72.8503  217.6387 H   0  0  0  0  0  0  0  0  0  0  0  0
  145.6264   73.4345  217.9780 H   0  0  0  0  0  0  0  0  0  0  0  0
  144.3320   71.0870  218.9293 H   0  0  0  0  0  0  0  0  0  0  0  0
  145.9834   71.6959  219.2891 H   0  0  0  0  0  0  0  0  0  0  0  0
  144.3950   71.4270  221.2500 H   0  0  0  0  0  0  0  0  0  0  0  0
  144.9243   73.4999  222.2782 H   0  0  0  0  0  0  0  0  0  0  0  0
  146.3137   73.1436  221.2152 H   0  0  0  0  0  0  0  0  0  0  0  0
  144.3761   75.3009  221.0667 H   0  0  0  0  0  0  0  0  0  0  0  0
  145.8847   75.0126  220.0856 H   0  0  0  0  0  0  0  0  0  0  0  0
  1  2  2  0
  2  3  1  0
  3  4  2  0
  4  5  1  0
  5  6  1  0
  5  7  2  0
  7  8  1  0
  8  9  2  0
  9 10  1  0
 10 11  2  0
 11 12  1  0
 12 13  2  0
 13 14  1  0
 14 15  2  0
 15 16  1  0
 16 17  2  0
 17 18  1  0
 18 19  1  0
 19 20  1  0
 20 21  1  0
 21 22  1  0
 22 23  1  0
 23 24  1  0
 18 25  2  0
 11 26  1  0
 26 27  1  0
 27 28  1  0
 28 29  1  0
 29 30  1  0
 30 31  1  0
 31 32  1  0
 32 33  1  0
 26  2  1  0
 33 28  1  0
  9  3  1  0
 25 14  1  0
 24 19  1  0
  4 34  1  0
  7 35  1  0
  8 36  1  0
 12 37  1  0
 13 38  1  0
 15 39  1  0
 16 40  1  0
 17 41  1  0
 20 42  1  0
 20 43  1  0
 21 44  1  0
 21 45  1  0
 22 46  1  0
 22 47  1  0
 23 48  1  0
 23 49  1  0
 24 50  1  0
 24 51  1  0
 25 52  1  0
 27 53  1  0
 27 54  1  0
 28 55  1  0
 29 56  1  0
 29 57  1  0
 30 58  1  0
 30 59  1  0
 31 60  1  0
 32 61  1  0
 32 62  1  0
 33 63  1  0
 33 64  1  0
M  END
>  <smiles>  (31) 
O=c1c2cc(Cl)ccc2nc(/C=C/c2cccc(N3CCCCC3)c2)n1CC1CCNCC1

>  <score_type>  (31) 
oracle

>  <origin>  (31) 
autodockgpu

>  <m_score__min__energy>  (31) 
-9.8300000000000001

>  <m_primary>  (31) 
energy

>  <rmsd>  (31) 
11.258805782774592

>  <m_score__min__rmsd>  (31) 
11.258805782774592

>  <meeko>  (31) 
{"free_energy": -9.39, "intermolecular_energy": -11.18, "internal_energy": -1.5, "cluster_size": 14, "cluster_id": 1, "rank_in_cluster": 3}

>  <energy>  (31) 
-8.46

>  <cluster_rmsd>  (31) 
1.58

>  <cluster>  (31) 
2

$$$$

     RDKit          3D

 64 68  0  0  0  0  0  0  0  0999 V2000
  138.8000   68.2320  224.2430 O   0  0  0  0  0  0  0  0  0  0  0  0
  139.2700   69.4140  224.2970 C   0  0  0  0  0  0  0  0  0  0  0  0
  139.8910   69.7510  225.4830 C   0  0  0  0  0  0  0  0  0  0  0  0
  139.9970   68.8670  226.5390 C   0  0  0  0  0  0  0  0  0  0  0  0
  140.6280   69.2350  227.7210 C   0  0  0  0  0  0  0  0  0  0  0  0
  140.7800   68.1360  229.0780 Cl  0  0  0  0  0  0  0  0  0  0  0  0
  141.1640   70.5000  227.8600 C   0  0  0  0  0  0  0  0  0  0  0  0
  141.0650   71.3910  226.8140 C   0  0  0  0  0  0  0  0  0  0  0  0
  140.4350   71.0130  225.6430 C   0  0  0  0  0  0  0  0  0  0  0  0
  140.3150   71.8510  224.5960 N   0  0  0  0  0  0  0  0  0  0  0  0
  139.7060   71.5030  223.4490 C   0  0  0  0  0  0  0  0  0  0  0  0
  139.6310   72.5010  222.3630 C   0  0  0  0  0  0  0  0  0  0  0  0
  140.5900   72.5730  221.4580 C   0  0  0  0  0  0  0  0  0  0  0  0
  141.1880   73.8060  220.9970 C   0  0  0  0  0  0  0  0  0  0  0  0
  142.0980   73.8530  219.9730 C   0  0  0  0  0  0  0  0  0  0  0  0
  142.6670   75.0570  219.5390 C   0  0  0  0  0  0  0  0  0  0  0  0
  142.2840   76.2370  220.1810 C   0  0  0  0  0  0  0  0  0  0  0  0
  141.3700   76.2150  221.2130 C   0  0  0  0  0  0  0  0  0  0  0  0
  141.0330   77.4520  221.8140 N   0  0  0  0  0  0  0  0  0  0  0  0
  139.8420   77.5100  222.6380 C   0  0  0  0  0  0  0  0  0  0  0  0
  139.5310   78.8960  223.1130 C   0  0  0  0  0  0  0  0  0  0  0  0
  140.7240   79.6180  223.6610 C   0  0  0  0  0  0  0  0  0  0  0  0
  142.0340   79.1960  223.0870 C   0  0  0  0  0  0  0  0  0  0  0  0
  141.7960   78.6710  221.6650 C   0  0  0  0  0  0  0  0  0  0  0  0
  140.8460   75.0010  221.5940 C   0  0  0  0  0  0  0  0  0  0  0  0
  139.1620   70.2730  223.2560 N   0  0  0  0  0  0  0  0  0  0  0  0
  138.5060   69.9020  222.0450 C   0  0  0  0  0  0  0  0  0  0  0  0
  137.0990   70.3470  221.8820 C   0  0  0  0  0  0  0  0  0  0  0  0
  136.6260   71.1850  223.0750 C   0  0  0  0  0  0  0  0  0  0  0  0
  136.1830   70.3200  224.2110 C   0  0  0  0  0  0  0  0  0  0  0  0
  136.3740   68.9250  223.8590 N   0  0  0  0  0  0  0  0  0  0  0  0
  135.6060   68.5190  222.7110 C   0  0  0  0  0  0  0  0  0  0  0  0
  136.1010   69.3040  221.5170 C   0  0  0  0  0  0  0  0  0  0  0  0
  139.5752   67.8557  226.4427 H   0  0  0  0  0  0  0  0  0  0  0  0
  141.6641   70.7928  228.7950 H   0  0  0  0  0  0  0  0  0  0  0  0
  141.4869   72.4023  226.9105 H   0  0  0  0  0  0  0  0  0  0  0  0
  138.7729   73.1871  222.3077 H   0  0  0  0  0  0  0  0  0  0  0  0
  140.9588   71.6312  221.0256 H   0  0  0  0  0  0  0  0  0  0  0  0
  142.3905   72.9159  219.4767 H   0  0  0  0  0  0  0  0  0  0  0  0
  143.3956   75.0729  218.7151 H   0  0  0  0  0  0  0  0  0  0  0  0
  142.7170   77.1956  219.8592 H   0  0  0  0  0  0  0  0  0  0  0  0
  138.9892   77.1407  222.0494 H   0  0  0  0  0  0  0  0  0  0  0  0
  140.0242   76.8886  223.5272 H   0  0  0  0  0  0  0  0  0  0  0  0
  139.1323   79.4737  222.2661 H   0  0  0  0  0  0  0  0  0  0  0  0
  138.8027   78.8032  223.9321 H   0  0  0  0  0  0  0  0  0  0  0  0
  140.5942   80.6920  223.4618 H   0  0  0  0  0  0  0  0  0  0  0  0
  140.7652   79.3747  224.7330 H   0  0  0  0  0  0  0  0  0  0  0  0
  142.7194   80.0558  223.0552 H   0  0  0  0  0  0  0  0  0  0  0  0
  142.4819   78.4076  223.7098 H   0  0  0  0  0  0  0  0  0  0  0  0
  141.2297   79.4070  221.0754 H   0  0  0  0  0  0  0  0  0  0  0  0
  142.7443   78.4914  221.1373 H   0  0  0  0  0  0  0  0  0  0  0  0
  140.1167   74.9829  222.4173 H   0  0  0  0  0  0  0  0  0  0  0  0
  139.0865   70.3216  221.2101 H   0  0  0  0  0  0  0  0  0  0  0  0
  138.4594   68.8032  222.0680 H   0  0  0  0  0  0  0  0  0  0  0  0
  137.1425   70.9805  220.9838 H   0  0  0  0  0  0  0  0  0  0  0  0
  137.4549   71.8237  223.4142 H   0  0  0  0  0  0  0  0  0  0  0  0
  135.7695   71.7943  222.7508 H   0  0  0  0  0  0  0  0  0  0  0  0
  136.7770   70.5571  225.1059 H   0  0  0  0  0  0  0  0  0  0  0  0
  135.1185   70.5037  224.4187 H   0  0  0  0  0  0  0  0  0  0  0  0
  136.3410   68.2930  224.6650 H   0  0  0  0  0  0  0  0  0  0  0  0
  135.7422   67.4422  222.5324 H   0  0  0  0  0  0  0  0  0  0  0  0
  134.5362   68.7122  222.8788 H   0  0  0  0  0  0  0  0  0  0  0  0
  136.5673   68.6055  220.8066 H   0  0  0  0  0  0  0  0  0  0  0  0
  135.2333   69.8173  221.0769 H   0  0  0  0  0  0  0  0  0  0  0  0
  1  2  2  0
  2  3  1  0
  3  4  2  0
  4  5  1  0
  5  6  1  0
  5  7  2  0
  7  8  1  0
  8  9  2  0
  9 10  1  0
 10 11  2  0
 11 12  1  0
 12 13  2  0
 13 14  1  0
 14 15  2  0
 15 16  1  0
 16 17  2  0
 17 18  1  0
 18 19  1  0
 19 20  1  0
 20 21  1  0
 21 22  1  0
 22 23  1  0
 23 24  1  0
 18 25  2  0
 11 26  1  0
 26 27  1  0
 27 28  1  0
 28 29  1  0
 29 30  1  0
 30 31  1  0
 31 32  1  0
 32 33  1  0
 26  2  1  0
 33 28  1  0
  9  3  1  0
 25 14  1  0
 24 19  1  0
  4 34  1  0
  7 35  1  0
  8 36  1  0
 12 37  1  0
 13 38  1  0
 15 39  1  0
 16 40  1  0
 17 41  1  0
 20 42  1  0
 20 43  1  0
 21 44  1  0
 21 45  1  0
 22 46  1  0
 22 47  1  0
 23 48  1  0
 23 49  1  0
 24 50  1  0
 24 51  1  0
 25 52  1  0
 27 53  1  0
 27 54  1  0
 28 55  1  0
 29 56  1  0
 29 57  1  0
 30 58  1  0
 30 59  1  0
 31 60  1  0
 32 61  1  0
 32 62  1  0
 33 63  1  0
 33 64  1  0
M  END
>  <smiles>  (32) 
O=c1c2cc(Cl)ccc2nc(/C=C/c2cccc(N3CCCCC3)c2)n1CC1CCNCC1

>  <score_type>  (32) 
oracle

>  <origin>  (32) 
autodockgpu

>  <m_score__min__energy>  (32) 
-9.8300000000000001

>  <m_primary>  (32) 
energy

>  <rmsd>  (32) 
6.779031508668029

>  <m_score__min__rmsd>  (32) 
6.779031508668029

>  <meeko>  (32) 
{"free_energy": -8.49, "intermolecular_energy": -10.28, "internal_energy": -1.78, "cluster_size": 26, "cluster_id": 2, "rank_in_cluster": 16}

>  <energy>  (32) 
-8.33

>  <cluster_rmsd>  (32) 
1.37

>  <cluster>  (32) 
2

$$$$

     RDKit          3D

 64 68  0  0  0  0  0  0  0  0999 V2000
  143.0360   76.6810  218.9990 O   0  0  0  0  0  0  0  0  0  0  0  0
  142.3650   76.1480  219.9410 C   0  0  0  0  0  0  0  0  0  0  0  0
  141.7310   77.0320  220.7910 C   0  0  0  0  0  0  0  0  0  0  0  0
  141.8180   78.4020  220.6320 C   0  0  0  0  0  0  0  0  0  0  0  0
  141.1690   79.2660  221.5050 C   0  0  0  0  0  0  0  0  0  0  0  0
  141.2580   81.0080  221.3290 Cl  0  0  0  0  0  0  0  0  0  0  0  0
  140.4220   78.7670  222.5540 C   0  0  0  0  0  0  0  0  0  0  0  0
  140.3280   77.4030  222.7230 C   0  0  0  0  0  0  0  0  0  0  0  0
  140.9780   76.5530  221.8490 C   0  0  0  0  0  0  0  0  0  0  0  0
  140.9140   75.2140  221.9760 N   0  0  0  0  0  0  0  0  0  0  0  0
  141.5380   74.3700  221.1370 C   0  0  0  0  0  0  0  0  0  0  0  0
  141.4000   72.9180  221.3690 C   0  0  0  0  0  0  0  0  0  0  0  0
  140.2490   72.3140  221.1370 C   0  0  0  0  0  0  0  0  0  0  0  0
  139.3290   71.8880  222.1670 C   0  0  0  0  0  0  0  0  0  0  0  0
  138.0000   72.2280  222.1630 C   0  0  0  0  0  0  0  0  0  0  0  0
  137.1210   71.8060  223.1690 C   0  0  0  0  0  0  0  0  0  0  0  0
  137.6320   71.0160  224.2020 C   0  0  0  0  0  0  0  0  0  0  0  0
  138.9640   70.6610  224.2270 C   0  0  0  0  0  0  0  0  0  0  0  0
  139.4050   69.8580  225.3070 N   0  0  0  0  0  0  0  0  0  0  0  0
  139.1460   68.4330  225.2500 C   0  0  0  0  0  0  0  0  0  0  0  0
  139.5520   67.7190  226.5020 C   0  0  0  0  0  0  0  0  0  0  0  0
  140.9160   68.1010  226.9900 C   0  0  0  0  0  0  0  0  0  0  0  0
  141.3490   69.4810  226.6270 C   0  0  0  0  0  0  0  0  0  0  0  0
  140.1010   70.3590  226.4700 C   0  0  0  0  0  0  0  0  0  0  0  0
  139.7770   71.1060  223.2100 C   0  0  0  0  0  0  0  0  0  0  0  0
  142.2860   74.8040  220.0880 N   0  0  0  0  0  0  0  0  0  0  0  0
  142.9590   73.9140  219.2000 C   0  0  0  0  0  0  0  0  0  0  0  0
  144.4410   73.9920  219.1690 C   0  0  0  0  0  0  0  0  0  0  0  0
  145.0580   72.7930  218.4400 C   0  0  0  0  0  0  0  0  0  0  0  0
  145.1740   71.6050  219.3400 C   0  0  0  0  0  0  0  0  0  0  0  0
  144.6230   71.9290  220.6420 N   0  0  0  0  0  0  0  0  0  0  0  0
  145.3130   73.0090  221.2980 C   0  0  0  0  0  0  0  0  0  0  0  0
  145.1280   74.2570  220.4630 C   0  0  0  0  0  0  0  0  0  0  0  0
  142.4100   78.8145  219.8017 H   0  0  0  0  0  0  0  0  0  0  0  0
  139.9083   79.4504  223.2462 H   0  0  0  0  0  0  0  0  0  0  0  0
  139.7358   76.9909  223.5533 H   0  0  0  0  0  0  0  0  0  0  0  0
  142.2592   72.3376  221.7364 H   0  0  0  0  0  0  0  0  0  0  0  0
  139.9718   72.1223  220.0899 H   0  0  0  0  0  0  0  0  0  0  0  0
  137.6122   72.8517  221.3440 H   0  0  0  0  0  0  0  0  0  0  0  0
  136.0582   72.0887  223.1463 H   0  0  0  0  0  0  0  0  0  0  0  0
  136.9633   70.6730  225.0052 H   0  0  0  0  0  0  0  0  0  0  0  0
  138.0688   68.2777  225.0904 H   0  0  0  0  0  0  0  0  0  0  0  0
  139.7445   68.0203  224.4244 H   0  0  0  0  0  0  0  0  0  0  0  0
  138.8214   67.9543  227.2899 H   0  0  0  0  0  0  0  0  0  0  0  0
  139.5803   66.6445  226.2680 H   0  0  0  0  0  0  0  0  0  0  0  0
  140.9220   68.0184  228.0869 H   0  0  0  0  0  0  0  0  0  0  0  0
  141.6226   67.4165  226.4979 H   0  0  0  0  0  0  0  0  0  0  0  0
  141.9917   69.8888  227.4211 H   0  0  0  0  0  0  0  0  0  0  0  0
  141.9163   69.4617  225.6848 H   0  0  0  0  0  0  0  0  0  0  0  0
  139.4622   70.2782  227.3619 H   0  0  0  0  0  0  0  0  0  0  0  0
  140.3670   71.4201  226.3542 H   0  0  0  0  0  0  0  0  0  0  0  0
  140.8398   70.8230  223.2304 H   0  0  0  0  0  0  0  0  0  0  0  0
  142.6859   72.8879  219.4872 H   0  0  0  0  0  0  0  0  0  0  0  0
  142.6343   74.2131  218.1925 H   0  0  0  0  0  0  0  0  0  0  0  0
  144.6286   74.9086  218.5906 H   0  0  0  0  0  0  0  0  0  0  0  0
  144.4219   72.5305  217.5818 H   0  0  0  0  0  0  0  0  0  0  0  0
  146.0682   73.0739  218.1073 H   0  0  0  0  0  0  0  0  0  0  0  0
  144.6179   70.7608  218.9063 H   0  0  0  0  0  0  0  0  0  0  0  0
  146.2333   71.3293  219.4485 H   0  0  0  0  0  0  0  0  0  0  0  0
  144.4300   71.1050  221.2190 H   0  0  0  0  0  0  0  0  0  0  0  0
  144.8921   73.1658  222.3021 H   0  0  0  0  0  0  0  0  0  0  0  0
  146.3824   72.7729  221.4009 H   0  0  0  0  0  0  0  0  0  0  0  0
  144.5281   74.9780  221.0377 H   0  0  0  0  0  0  0  0  0  0  0  0
  146.1288   74.6501  220.2308 H   0  0  0  0  0  0  0  0  0  0  0  0
  1  2  2  0
  2  3  1  0
  3  4  2  0
  4  5  1  0
  5  6  1  0
  5  7  2  0
  7  8  1  0
  8  9  2  0
  9 10  1  0
 10 11  2  0
 11 12  1  0
 12 13  2  0
 13 14  1  0
 14 15  2  0
 15 16  1  0
 16 17  2  0
 17 18  1  0
 18 19  1  0
 19 20  1  0
 20 21  1  0
 21 22  1  0
 22 23  1  0
 23 24  1  0
 18 25  2  0
 11 26  1  0
 26 27  1  0
 27 28  1  0
 28 29  1  0
 29 30  1  0
 30 31  1  0
 31 32  1  0
 32 33  1  0
 26  2  1  0
 33 28  1  0
  9  3  1  0
 25 14  1  0
 24 19  1  0
  4 34  1  0
  7 35  1  0
  8 36  1  0
 12 37  1  0
 13 38  1  0
 15 39  1  0
 16 40  1  0
 17 41  1  0
 20 42  1  0
 20 43  1  0
 21 44  1  0
 21 45  1  0
 22 46  1  0
 22 47  1  0
 23 48  1  0
 23 49  1  0
 24 50  1  0
 24 51  1  0
 25 52  1  0
 27 53  1  0
 27 54  1  0
 28 55  1  0
 29 56  1  0
 29 57  1  0
 30 58  1  0
 30 59  1  0
 31 60  1  0
 32 61  1  0
 32 62  1  0
 33 63  1  0
 33 64  1  0
M  END
>  <smiles>  (33) 
O=c1c2cc(Cl)ccc2nc(/C=C/c2cccc(N3CCCCC3)c2)n1CC1CCNCC1

>  <score_type>  (33) 
oracle

>  <origin>  (33) 
autodockgpu

>  <m_score__min__energy>  (33) 
-9.8300000000000001

>  <m_primary>  (33) 
energy

>  <rmsd>  (33) 
10.789504591652548

>  <m_score__min__rmsd>  (33) 
10.789504591652548

>  <meeko>  (33) 
{"free_energy": -8.83, "intermolecular_energy": -10.62, "internal_energy": -1.72, "cluster_size": 14, "cluster_id": 1, "rank_in_cluster": 10}

>  <energy>  (33) 
-8.33

>  <cluster_rmsd>  (33) 
1.79

>  <cluster>  (33) 
2

$$$$

     RDKit          3D

 64 68  0  0  0  0  0  0  0  0999 V2000
  138.5560   68.5300  223.8830 O   0  0  0  0  0  0  0  0  0  0  0  0
  139.1100   69.6760  223.8800 C   0  0  0  0  0  0  0  0  0  0  0  0
  139.7630   70.0230  225.0460 C   0  0  0  0  0  0  0  0  0  0  0  0
  139.8130   69.1830  226.1420 C   0  0  0  0  0  0  0  0  0  0  0  0
  140.4780   69.5610  227.3020 C   0  0  0  0  0  0  0  0  0  0  0  0
  140.5610   68.5180  228.7090 Cl  0  0  0  0  0  0  0  0  0  0  0  0
  141.1040   70.7890  227.3800 C   0  0  0  0  0  0  0  0  0  0  0  0
  141.0600   71.6350  226.2930 C   0  0  0  0  0  0  0  0  0  0  0  0
  140.3960   71.2490  225.1440 C   0  0  0  0  0  0  0  0  0  0  0  0
  140.3280   72.0430  224.0590 N   0  0  0  0  0  0  0  0  0  0  0  0
  139.6880   71.6870  222.9320 C   0  0  0  0  0  0  0  0  0  0  0  0
  139.6760   72.6360  221.8010 C   0  0  0  0  0  0  0  0  0  0  0  0
  140.2930   73.8000  221.9030 C   0  0  0  0  0  0  0  0  0  0  0  0
  139.6200   75.0660  222.0880 C   0  0  0  0  0  0  0  0  0  0  0  0
  138.2550   75.1850  222.1250 C   0  0  0  0  0  0  0  0  0  0  0  0
  137.6200   76.4200  222.3060 C   0  0  0  0  0  0  0  0  0  0  0  0
  138.4180   77.5570  222.4510 C   0  0  0  0  0  0  0  0  0  0  0  0
  139.7940   77.4630  222.4170 C   0  0  0  0  0  0  0  0  0  0  0  0
  140.5340   78.6610  222.5710 N   0  0  0  0  0  0  0  0  0  0  0  0
  140.0610   79.6380  223.5320 C   0  0  0  0  0  0  0  0  0  0  0  0
  140.8590   80.9050  223.5110 C   0  0  0  0  0  0  0  0  0  0  0  0
  142.3390   80.6770  223.5070 C   0  0  0  0  0  0  0  0  0  0  0  0
  142.7760   79.3940  222.8830 C   0  0  0  0  0  0  0  0  0  0  0  0
  141.7350   78.9820  221.8340 C   0  0  0  0  0  0  0  0  0  0  0  0
  140.3580   76.2210  222.2370 C   0  0  0  0  0  0  0  0  0  0  0  0
  139.0550   70.4920  222.8000 N   0  0  0  0  0  0  0  0  0  0  0  0
  138.3650   70.1120  221.6110 C   0  0  0  0  0  0  0  0  0  0  0  0
  136.8820   70.1000  221.6720 C   0  0  0  0  0  0  0  0  0  0  0  0
  136.2730   71.2800  220.9060 C   0  0  0  0  0  0  0  0  0  0  0  0
  136.2610   72.5240  221.7350 C   0  0  0  0  0  0  0  0  0  0  0  0
  136.8770   72.2550  223.0200 N   0  0  0  0  0  0  0  0  0  0  0  0
  136.1840   71.2490  223.7820 C   0  0  0  0  0  0  0  0  0  0  0  0
  136.2650   69.9460  223.0180 C   0  0  0  0  0  0  0  0  0  0  0  0
  139.3193   68.2011  226.0955 H   0  0  0  0  0  0  0  0  0  0  0  0
  141.6311   71.0883  228.2979 H   0  0  0  0  0  0  0  0  0  0  0  0
  141.5532   72.6171  226.3399 H   0  0  0  0  0  0  0  0  0  0  0  0
  139.1517   72.3732  220.8704 H   0  0  0  0  0  0  0  0  0  0  0  0
  141.3914   73.8061  221.8432 H   0  0  0  0  0  0  0  0  0  0  0  0
  137.6385   74.2814  222.0088 H   0  0  0  0  0  0  0  0  0  0  0  0
  136.5227   76.4926  222.3332 H   0  0  0  0  0  0  0  0  0  0  0  0
  137.9438   78.5392  222.5940 H   0  0  0  0  0  0  0  0  0  0  0  0
  139.0127   79.8789  223.3016 H   0  0  0  0  0  0  0  0  0  0  0  0
  140.1671   79.1960  224.5337 H   0  0  0  0  0  0  0  0  0  0  0  0
  140.5911   81.4706  222.6064 H   0  0  0  0  0  0  0  0  0  0  0  0
  140.6182   81.4552  224.4326 H   0  0  0  0  0  0  0  0  0  0  0  0
  142.8104   81.5034  222.9548 H   0  0  0  0  0  0  0  0  0  0  0  0
  142.6460   80.6268  224.5621 H   0  0  0  0  0  0  0  0  0  0  0  0
  143.7548   79.5309  222.4002 H   0  0  0  0  0  0  0  0  0  0  0  0
  142.8650   78.6126  223.6520 H   0  0  0  0  0  0  0  0  0  0  0  0
  141.5456   79.8115  221.1368 H   0  0  0  0  0  0  0  0  0  0  0  0
  142.0819   78.1266  221.2357 H   0  0  0  0  0  0  0  0  0  0  0  0
  141.4551   76.1456  222.2106 H   0  0  0  0  0  0  0  0  0  0  0  0
  138.6596   70.8137  220.8167 H   0  0  0  0  0  0  0  0  0  0  0  0
  138.6540   69.0657  221.4327 H   0  0  0  0  0  0  0  0  0  0  0  0
  136.6206   69.1594  221.1651 H   0  0  0  0  0  0  0  0  0  0  0  0
  136.8668   71.4613  219.9980 H   0  0  0  0  0  0  0  0  0  0  0  0
  135.2338   71.0258  220.6502 H   0  0  0  0  0  0  0  0  0  0  0  0
  136.8234   73.3150  221.2173 H   0  0  0  0  0  0  0  0  0  0  0  0
  135.2224   72.8524  221.8880 H   0  0  0  0  0  0  0  0  0  0  0  0
  137.1390   73.1020  223.5330 H   0  0  0  0  0  0  0  0  0  0  0  0
  136.6589   71.1341  224.7675 H   0  0  0  0  0  0  0  0  0  0  0  0
  135.1337   71.5393  223.9324 H   0  0  0  0  0  0  0  0  0  0  0  0
  136.8681   69.2344  223.6010 H   0  0  0  0  0  0  0  0  0  0  0  0
  135.2361   69.5862  222.8698 H   0  0  0  0  0  0  0  0  0  0  0  0
  1  2  2  0
  2  3  1  0
  3  4  2  0
  4  5  1  0
  5  6  1  0
  5  7  2  0
  7  8  1  0
  8  9  2  0
  9 10  1  0
 10 11  2  0
 11 12  1  0
 12 13  2  0
 13 14  1  0
 14 15  2  0
 15 16  1  0
 16 17  2  0
 17 18  1  0
 18 19  1  0
 19 20  1  0
 20 21  1  0
 21 22  1  0
 22 23  1  0
 23 24  1  0
 18 25  2  0
 11 26  1  0
 26 27  1  0
 27 28  1  0
 28 29  1  0
 29 30  1  0
 30 31  1  0
 31 32  1  0
 32 33  1  0
 26  2  1  0
 33 28  1  0
  9  3  1  0
 25 14  1  0
 24 19  1  0
  4 34  1  0
  7 35  1  0
  8 36  1  0
 12 37  1  0
 13 38  1  0
 15 39  1  0
 16 40  1  0
 17 41  1  0
 20 42  1  0
 20 43  1  0
 21 44  1  0
 21 45  1  0
 22 46  1  0
 22 47  1  0
 23 48  1  0
 23 49  1  0
 24 50  1  0
 24 51  1  0
 25 52  1  0
 27 53  1  0
 27 54  1  0
 28 55  1  0
 29 56  1  0
 29 57  1  0
 30 58  1  0
 30 59  1  0
 31 60  1  0
 32 61  1  0
 32 62  1  0
 33 63  1  0
 33 64  1  0
M  END
>  <smiles>  (34) 
O=c1c2cc(Cl)ccc2nc(/C=C/c2cccc(N3CCCCC3)c2)n1CC1CCNCC1

>  <score_type>  (34) 
oracle

>  <origin>  (34) 
autodockgpu

>  <m_score__min__energy>  (34) 
-9.8300000000000001

>  <m_primary>  (34) 
energy

>  <rmsd>  (34) 
6.470642061644915

>  <m_score__min__rmsd>  (34) 
6.470642061644915

>  <meeko>  (34) 
{"free_energy": -9.14, "intermolecular_energy": -10.93, "internal_energy": -1.82, "cluster_size": 26, "cluster_id": 2, "rank_in_cluster": 2}

>  <energy>  (34) 
-8.31

>  <cluster_rmsd>  (34) 
1.71

>  <cluster>  (34) 
2

$$$$

     RDKit          3D

 64 68  0  0  0  0  0  0  0  0999 V2000
  137.9210   69.1530  223.7470 O   0  0  0  0  0  0  0  0  0  0  0  0
  138.6910   70.1650  223.6770 C   0  0  0  0  0  0  0  0  0  0  0  0
  139.4760   70.3910  224.7890 C   0  0  0  0  0  0  0  0  0  0  0  0
  139.4330   69.5760  225.9030 C   0  0  0  0  0  0  0  0  0  0  0  0
  140.2360   69.8300  227.0080 C   0  0  0  0  0  0  0  0  0  0  0  0
  140.2040   68.8130  228.4360 Cl  0  0  0  0  0  0  0  0  0  0  0  0
  141.0970   70.9090  227.0110 C   0  0  0  0  0  0  0  0  0  0  0  0
  141.1500   71.7300  225.9060 C   0  0  0  0  0  0  0  0  0  0  0  0
  140.3460   71.4670  224.8120 C   0  0  0  0  0  0  0  0  0  0  0  0
  140.3650   72.2420  223.7120 N   0  0  0  0  0  0  0  0  0  0  0  0
  139.5920   72.0050  222.6380 C   0  0  0  0  0  0  0  0  0  0  0  0
  139.6930   72.9190  221.4830 C   0  0  0  0  0  0  0  0  0  0  0  0
  140.3210   74.0740  221.6030 C   0  0  0  0  0  0  0  0  0  0  0  0
  139.6860   75.3120  221.9970 C   0  0  0  0  0  0  0  0  0  0  0  0
  138.3460   75.4050  222.2710 C   0  0  0  0  0  0  0  0  0  0  0  0
  137.7470   76.6120  222.6530 C   0  0  0  0  0  0  0  0  0  0  0  0
  138.5550   77.7470  222.7520 C   0  0  0  0  0  0  0  0  0  0  0  0
  139.9050   77.6780  222.4820 C   0  0  0  0  0  0  0  0  0  0  0  0
  140.6570   78.8720  222.6050 N   0  0  0  0  0  0  0  0  0  0  0  0
  140.1590   79.9060  223.4900 C   0  0  0  0  0  0  0  0  0  0  0  0
  140.9770   81.1590  223.4380 C   0  0  0  0  0  0  0  0  0  0  0  0
  142.4530   80.9110  223.5120 C   0  0  0  0  0  0  0  0  0  0  0  0
  142.8950   79.5900  222.9780 C   0  0  0  0  0  0  0  0  0  0  0  0
  141.8950   79.1370  221.9070 C   0  0  0  0  0  0  0  0  0  0  0  0
  140.4350   76.4630  222.1130 C   0  0  0  0  0  0  0  0  0  0  0  0
  138.7270   70.9580  222.5790 N   0  0  0  0  0  0  0  0  0  0  0  0
  137.8970   70.7060  221.4480 C   0  0  0  0  0  0  0  0  0  0  0  0
  138.4970   69.9240  220.3370 C   0  0  0  0  0  0  0  0  0  0  0  0
  137.4720   68.9900  219.6820 C   0  0  0  0  0  0  0  0  0  0  0  0
  137.3210   67.7170  220.4500 C   0  0  0  0  0  0  0  0  0  0  0  0
  138.1670   67.7590  221.6280 N   0  0  0  0  0  0  0  0  0  0  0  0
  139.5670   67.8860  221.3170 C   0  0  0  0  0  0  0  0  0  0  0  0
  139.7740   69.2160  220.6270 C   0  0  0  0  0  0  0  0  0  0  0  0
  138.7522   68.7121  225.9157 H   0  0  0  0  0  0  0  0  0  0  0  0
  141.7332   71.1109  227.8853 H   0  0  0  0  0  0  0  0  0  0  0  0
  141.8310   72.5937  225.8939 H   0  0  0  0  0  0  0  0  0  0  0  0
  139.2436   72.6367  220.5195 H   0  0  0  0  0  0  0  0  0  0  0  0
  141.3997   74.0961  221.3889 H   0  0  0  0  0  0  0  0  0  0  0  0
  137.7215   74.5032  222.1882 H   0  0  0  0  0  0  0  0  0  0  0  0
  136.6697   76.6647  222.8691 H   0  0  0  0  0  0  0  0  0  0  0  0
  138.1087   78.7075  223.0490 H   0  0  0  0  0  0  0  0  0  0  0  0
  139.1259   80.1487  223.2004 H   0  0  0  0  0  0  0  0  0  0  0  0
  140.2146   79.5170  224.5174 H   0  0  0  0  0  0  0  0  0  0  0  0
  140.7580   81.6792  222.4939 H   0  0  0  0  0  0  0  0  0  0  0  0
  140.7048   81.7606  224.3178 H   0  0  0  0  0  0  0  0  0  0  0  0
  142.9613   81.6993  222.9374 H   0  0  0  0  0  0  0  0  0  0  0  0
  142.7135   80.9148  224.5807 H   0  0  0  0  0  0  0  0  0  0  0  0
  143.8965   79.6862  222.5332 H   0  0  0  0  0  0  0  0  0  0  0  0
  142.9364   78.8503  223.7911 H   0  0  0  0  0  0  0  0  0  0  0  0
  141.7500   79.9307  221.1593 H   0  0  0  0  0  0  0  0  0  0  0  0
  142.2543   78.2461  221.3711 H   0  0  0  0  0  0  0  0  0  0  0  0
  141.5127   76.4075  221.8995 H   0  0  0  0  0  0  0  0  0  0  0  0
  137.0116   70.1569  221.8009 H   0  0  0  0  0  0  0  0  0  0  0  0
  137.6852   71.6971  221.0203 H   0  0  0  0  0  0  0  0  0  0  0  0
  138.7958   70.7015  219.6185 H   0  0  0  0  0  0  0  0  0  0  0  0
  136.4984   69.5003  219.6412 H   0  0  0  0  0  0  0  0  0  0  0  0
  137.8275   68.7427  218.6708 H   0  0  0  0  0  0  0  0  0  0  0  0
  136.2715   67.5961  220.7565 H   0  0  0  0  0  0  0  0  0  0  0  0
  137.6180   66.8689  219.8156 H   0  0  0  0  0  0  0  0  0  0  0  0
  137.9270   67.0510  222.3280 H   0  0  0  0  0  0  0  0  0  0  0  0
  140.1598   67.8496  222.2429 H   0  0  0  0  0  0  0  0  0  0  0  0
  139.8894   67.0622  220.6632 H   0  0  0  0  0  0  0  0  0  0  0  0
  140.3903   69.8557  221.2758 H   0  0  0  0  0  0  0  0  0  0  0  0
  140.2656   69.0148  219.6637 H   0  0  0  0  0  0  0  0  0  0  0  0
  1  2  2  0
  2  3  1  0
  3  4  2  0
  4  5  1  0
  5  6  1  0
  5  7  2  0
  7  8  1  0
  8  9  2  0
  9 10  1  0
 10 11  2  0
 11 12  1  0
 12 13  2  0
 13 14  1  0
 14 15  2  0
 15 16  1  0
 16 17  2  0
 17 18  1  0
 18 19  1  0
 19 20  1  0
 20 21  1  0
 21 22  1  0
 22 23  1  0
 23 24  1  0
 18 25  2  0
 11 26  1  0
 26 27  1  0
 27 28  1  0
 28 29  1  0
 29 30  1  0
 30 31  1  0
 31 32  1  0
 32 33  1  0
 26  2  1  0
 33 28  1  0
  9  3  1  0
 25 14  1  0
 24 19  1  0
  4 34  1  0
  7 35  1  0
  8 36  1  0
 12 37  1  0
 13 38  1  0
 15 39  1  0
 16 40  1  0
 17 41  1  0
 20 42  1  0
 20 43  1  0
 21 44  1  0
 21 45  1  0
 22 46  1  0
 22 47  1  0
 23 48  1  0
 23 49  1  0
 24 50  1  0
 24 51  1  0
 25 52  1  0
 27 53  1  0
 27 54  1  0
 28 55  1  0
 29 56  1  0
 29 57  1  0
 30 58  1  0
 30 59  1  0
 31 60  1  0
 32 61  1  0
 32 62  1  0
 33 63  1  0
 33 64  1  0
M  END
>  <smiles>  (35) 
O=c1c2cc(Cl)ccc2nc(/C=C/c2cccc(N3CCCCC3)c2)n1CC1CCNCC1

>  <score_type>  (35) 
oracle

>  <origin>  (35) 
autodockgpu

>  <m_score__min__energy>  (35) 
-9.8300000000000001

>  <m_primary>  (35) 
energy

>  <rmsd>  (35) 
6.4685103961317205

>  <m_score__min__rmsd>  (35) 
6.4685103961317205

>  <meeko>  (35) 
{"free_energy": -8.33, "intermolecular_energy": -10.12, "internal_energy": -1.89, "cluster_size": 26, "cluster_id": 2, "rank_in_cluster": 19}

>  <energy>  (35) 
-8.29

>  <cluster_rmsd>  (35) 
1.29

>  <cluster>  (35) 
2

$$$$

     RDKit          3D

 64 68  0  0  0  0  0  0  0  0999 V2000
  143.9750   76.4390  219.2800 O   0  0  0  0  0  0  0  0  0  0  0  0
  143.0120   75.9260  219.9360 C   0  0  0  0  0  0  0  0  0  0  0  0
  143.1000   74.5650  220.1520 C   0  0  0  0  0  0  0  0  0  0  0  0
  144.1610   73.8110  219.6900 C   0  0  0  0  0  0  0  0  0  0  0  0
  144.2220   72.4420  219.9230 C   0  0  0  0  0  0  0  0  0  0  0  0
  145.5550   71.4580  219.3510 Cl  0  0  0  0  0  0  0  0  0  0  0  0
  143.2160   71.8100  220.6260 C   0  0  0  0  0  0  0  0  0  0  0  0
  142.1520   72.5510  221.0920 C   0  0  0  0  0  0  0  0  0  0  0  0
  142.1030   73.9120  220.8540 C   0  0  0  0  0  0  0  0  0  0  0  0
  141.0840   74.6750  221.2910 N   0  0  0  0  0  0  0  0  0  0  0  0
  141.0160   76.0000  221.0710 C   0  0  0  0  0  0  0  0  0  0  0  0
  139.8520   76.7410  221.5960 C   0  0  0  0  0  0  0  0  0  0  0  0
  139.9540   77.4330  222.7150 C   0  0  0  0  0  0  0  0  0  0  0  0
  140.6050   78.7190  222.8230 C   0  0  0  0  0  0  0  0  0  0  0  0
  141.7530   78.9140  223.5470 C   0  0  0  0  0  0  0  0  0  0  0  0
  142.3710   80.1670  223.6400 C   0  0  0  0  0  0  0  0  0  0  0  0
  141.7860   81.2430  222.9680 C   0  0  0  0  0  0  0  0  0  0  0  0
  140.6310   81.0720  222.2340 C   0  0  0  0  0  0  0  0  0  0  0  0
  140.0980   82.2110  221.5820 N   0  0  0  0  0  0  0  0  0  0  0  0
  138.7340   82.5970  221.8870 C   0  0  0  0  0  0  0  0  0  0  0  0
  138.2520   83.7380  221.0470 C   0  0  0  0  0  0  0  0  0  0  0  0
  139.2310   84.8690  220.9590 C   0  0  0  0  0  0  0  0  0  0  0  0
  140.6620   84.4740  221.1060 C   0  0  0  0  0  0  0  0  0  0  0  0
  140.8190   83.0240  220.6290 C   0  0  0  0  0  0  0  0  0  0  0  0
  140.0720   79.8160  222.1800 C   0  0  0  0  0  0  0  0  0  0  0  0
  141.9760   76.6740  220.3860 N   0  0  0  0  0  0  0  0  0  0  0  0
  141.9060   78.0770  220.1400 C   0  0  0  0  0  0  0  0  0  0  0  0
  141.0030   78.5210  219.0480 C   0  0  0  0  0  0  0  0  0  0  0  0
  141.3190   77.8130  217.7260 C   0  0  0  0  0  0  0  0  0  0  0  0
  142.4530   78.4730  217.0080 C   0  0  0  0  0  0  0  0  0  0  0  0
  142.9530   79.5760  217.8060 N   0  0  0  0  0  0  0  0  0  0  0  0
  141.9670   80.5990  218.0420 C   0  0  0  0  0  0  0  0  0  0  0  0
  140.8480   79.9900  218.8580 C   0  0  0  0  0  0  0  0  0  0  0  0
  144.9702   74.3014  219.1290 H   0  0  0  0  0  0  0  0  0  0  0  0
  143.2633   70.7269  220.8121 H   0  0  0  0  0  0  0  0  0  0  0  0
  141.3426   72.0604  221.6526 H   0  0  0  0  0  0  0  0  0  0  0  0
  138.8961   76.7162  221.0523 H   0  0  0  0  0  0  0  0  0  0  0  0
  139.5141   77.0023  223.6266 H   0  0  0  0  0  0  0  0  0  0  0  0
  142.2031   78.0584  224.0717 H   0  0  0  0  0  0  0  0  0  0  0  0
  143.2921   80.3005  224.2263 H   0  0  0  0  0  0  0  0  0  0  0  0
  142.2518   82.2379  223.0250 H   0  0  0  0  0  0  0  0  0  0  0  0
  138.0771   81.7317  221.7146 H   0  0  0  0  0  0  0  0  0  0  0  0
  138.7098   82.9254  222.9366 H   0  0  0  0  0  0  0  0  0  0  0  0
  138.0584   83.3649  220.0305 H   0  0  0  0  0  0  0  0  0  0  0  0
  137.3436   84.1321  221.5260 H   0  0  0  0  0  0  0  0  0  0  0  0
  139.1087   85.3512  219.9779 H   0  0  0  0  0  0  0  0  0  0  0  0
  139.0071   85.5372  221.8036 H   0  0  0  0  0  0  0  0  0  0  0  0
  141.2941   85.1358  220.4956 H   0  0  0  0  0  0  0  0  0  0  0  0
  140.9702   84.5597  222.1585 H   0  0  0  0  0  0  0  0  0  0  0  0
  140.3907   82.9041  219.6229 H   0  0  0  0  0  0  0  0  0  0  0  0
  141.8778   82.7317  220.5696 H   0  0  0  0  0  0  0  0  0  0  0  0
  139.1517   79.6799  221.5931 H   0  0  0  0  0  0  0  0  0  0  0  0
  141.5687   78.5612  221.0683 H   0  0  0  0  0  0  0  0  0  0  0  0
  142.9164   78.3625  219.8120 H   0  0  0  0  0  0  0  0  0  0  0  0
  140.0109   78.2062  219.4039 H   0  0  0  0  0  0  0  0  0  0  0  0
  141.5891   76.7676  217.9361 H   0  0  0  0  0  0  0  0  0  0  0  0
  140.4270   77.8658  217.0845 H   0  0  0  0  0  0  0  0  0  0  0  0
  143.2593   77.7425  216.8459 H   0  0  0  0  0  0  0  0  0  0  0  0
  142.1016   78.8522  216.0371 H   0  0  0  0  0  0  0  0  0  0  0  0
  143.8780   79.9060  217.5120 H   0  0  0  0  0  0  0  0  0  0  0  0
  142.4208   81.4343  218.5955 H   0  0  0  0  0  0  0  0  0  0  0  0
  141.5785   80.9831  217.0872 H   0  0  0  0  0  0  0  0  0  0  0  0
  140.8319   80.4721  219.8466 H   0  0  0  0  0  0  0  0  0  0  0  0
  139.9102   80.1546  218.3072 H   0  0  0  0  0  0  0  0  0  0  0  0
  1  2  2  0
  2  3  1  0
  3  4  2  0
  4  5  1  0
  5  6  1  0
  5  7  2  0
  7  8  1  0
  8  9  2  0
  9 10  1  0
 10 11  2  0
 11 12  1  0
 12 13  2  0
 13 14  1  0
 14 15  2  0
 15 16  1  0
 16 17  2  0
 17 18  1  0
 18 19  1  0
 19 20  1  0
 20 21  1  0
 21 22  1  0
 22 23  1  0
 23 24  1  0
 18 25  2  0
 11 26  1  0
 26 27  1  0
 27 28  1  0
 28 29  1  0
 29 30  1  0
 30 31  1  0
 31 32  1  0
 32 33  1  0
 26  2  1  0
 33 28  1  0
  9  3  1  0
 25 14  1  0
 24 19  1  0
  4 34  1  0
  7 35  1  0
  8 36  1  0
 12 37  1  0
 13 38  1  0
 15 39  1  0
 16 40  1  0
 17 41  1  0
 20 42  1  0
 20 43  1  0
 21 44  1  0
 21 45  1  0
 22 46  1  0
 22 47  1  0
 23 48  1  0
 23 49  1  0
 24 50  1  0
 24 51  1  0
 25 52  1  0
 27 53  1  0
 27 54  1  0
 28 55  1  0
 29 56  1  0
 29 57  1  0
 30 58  1  0
 30 59  1  0
 31 60  1  0
 32 61  1  0
 32 62  1  0
 33 63  1  0
 33 64  1  0
M  END
>  <smiles>  (36) 
O=c1c2cc(Cl)ccc2nc(/C=C/c2cccc(N3CCCCC3)c2)n1CC1CCNCC1

>  <score_type>  (36) 
oracle

>  <origin>  (36) 
autodockgpu

>  <m_score__min__energy>  (36) 
-9.8300000000000001

>  <m_primary>  (36) 
energy

>  <rmsd>  (36) 
6.682546183663348

>  <m_score__min__rmsd>  (36) 
6.682546183663348

>  <meeko>  (36) 
{"free_energy": -7.76, "intermolecular_energy": -9.55, "internal_energy": -2.38, "cluster_size": 3, "cluster_id": 5, "rank_in_cluster": 3}

>  <energy>  (36) 
-8.28

>  <cluster_rmsd>  (36) 
1.76

>  <cluster>  (36) 
2

$$$$

     RDKit          3D

 64 68  0  0  0  0  0  0  0  0999 V2000
  138.4630   68.3620  223.9990 O   0  0  0  0  0  0  0  0  0  0  0  0
  138.9920   69.5190  223.9720 C   0  0  0  0  0  0  0  0  0  0  0  0
  139.7040   69.8730  225.1000 C   0  0  0  0  0  0  0  0  0  0  0  0
  139.8360   69.0290  226.1860 C   0  0  0  0  0  0  0  0  0  0  0  0
  140.5590   69.4140  227.3090 C   0  0  0  0  0  0  0  0  0  0  0  0
  140.7450   68.3650  228.7010 Cl  0  0  0  0  0  0  0  0  0  0  0  0
  141.1620   70.6550  227.3580 C   0  0  0  0  0  0  0  0  0  0  0  0
  141.0380   71.5060  226.2810 C   0  0  0  0  0  0  0  0  0  0  0  0
  140.3160   71.1120  225.1700 C   0  0  0  0  0  0  0  0  0  0  0  0
  140.1690   71.9110  224.0970 N   0  0  0  0  0  0  0  0  0  0  0  0
  139.4720   71.5480  223.0060 C   0  0  0  0  0  0  0  0  0  0  0  0
  139.3740   72.5030  221.8840 C   0  0  0  0  0  0  0  0  0  0  0  0
  140.1240   73.5890  221.8690 C   0  0  0  0  0  0  0  0  0  0  0  0
  139.6160   74.9340  222.0220 C   0  0  0  0  0  0  0  0  0  0  0  0
  138.2770   75.2200  222.0820 C   0  0  0  0  0  0  0  0  0  0  0  0
  137.8020   76.5290  222.2320 C   0  0  0  0  0  0  0  0  0  0  0  0
  138.7360   77.5640  222.3200 C   0  0  0  0  0  0  0  0  0  0  0  0
  140.0880   77.3010  222.2620 C   0  0  0  0  0  0  0  0  0  0  0  0
  140.9720   78.4030  222.3570 N   0  0  0  0  0  0  0  0  0  0  0  0
  141.0720   79.3000  221.2230 C   0  0  0  0  0  0  0  0  0  0  0  0
  142.1250   80.3490  221.4030 C   0  0  0  0  0  0  0  0  0  0  0  0
  142.0770   81.0170  222.7430 C   0  0  0  0  0  0  0  0  0  0  0  0
  141.5250   80.1780  223.8450 C   0  0  0  0  0  0  0  0  0  0  0  0
  141.7880   78.7030  223.5130 C   0  0  0  0  0  0  0  0  0  0  0  0
  140.4930   75.9940  222.1150 C   0  0  0  0  0  0  0  0  0  0  0  0
  138.8580   70.3400  222.9020 N   0  0  0  0  0  0  0  0  0  0  0  0
  138.1080   69.9520  221.7530 C   0  0  0  0  0  0  0  0  0  0  0  0
  136.6290   69.9390  221.8900 C   0  0  0  0  0  0  0  0  0  0  0  0
  135.9740   71.0570  221.0720 C   0  0  0  0  0  0  0  0  0  0  0  0
  135.9950   72.3590  221.8070 C   0  0  0  0  0  0  0  0  0  0  0  0
  136.6770   72.1870  223.0750 N   0  0  0  0  0  0  0  0  0  0  0  0
  136.0310   71.2370  223.9430 C   0  0  0  0  0  0  0  0  0  0  0  0
  136.0830   69.8820  223.2740 C   0  0  0  0  0  0  0  0  0  0  0  0
  139.3615   68.0369  226.1615 H   0  0  0  0  0  0  0  0  0  0  0  0
  141.7346   70.9609  228.2460 H   0  0  0  0  0  0  0  0  0  0  0  0
  141.5131   72.4978  226.3055 H   0  0  0  0  0  0  0  0  0  0  0  0
  138.6738   72.3087  221.0582 H   0  0  0  0  0  0  0  0  0  0  0  0
  141.2079   73.4623  221.7309 H   0  0  0  0  0  0  0  0  0  0  0  0
  137.5525   74.3954  222.0101 H   0  0  0  0  0  0  0  0  0  0  0  0
  136.7228   76.7364  222.2792 H   0  0  0  0  0  0  0  0  0  0  0  0
  138.3886   78.6011  222.4370 H   0  0  0  0  0  0  0  0  0  0  0  0
  141.3146   78.7087  220.3277 H   0  0  0  0  0  0  0  0  0  0  0  0
  140.1054   79.8154  221.1227 H   0  0  0  0  0  0  0  0  0  0  0  0
  143.1114   79.8768  221.2840 H   0  0  0  0  0  0  0  0  0  0  0  0
  141.9417   81.1260  220.6463 H   0  0  0  0  0  0  0  0  0  0  0  0
  143.1020   81.3082  223.0162 H   0  0  0  0  0  0  0  0  0  0  0  0
  141.3942   81.8727  222.6360 H   0  0  0  0  0  0  0  0  0  0  0  0
  142.0188   80.4387  224.7928 H   0  0  0  0  0  0  0  0  0  0  0  0
  140.4440   80.3542  223.9474 H   0  0  0  0  0  0  0  0  0  0  0  0
  142.8519   78.5473  223.2807 H   0  0  0  0  0  0  0  0  0  0  0  0
  141.5404   78.0486  224.3618 H   0  0  0  0  0  0  0  0  0  0  0  0
  141.5718   75.7841  222.0694 H   0  0  0  0  0  0  0  0  0  0  0  0
  138.3605   70.6489  220.9402 H   0  0  0  0  0  0  0  0  0  0  0  0
  138.3884   68.9047  221.5672 H   0  0  0  0  0  0  0  0  0  0  0  0
  136.3481   68.9632  221.4670 H   0  0  0  0  0  0  0  0  0  0  0  0
  136.5198   71.1730  220.1241 H   0  0  0  0  0  0  0  0  0  0  0  0
  134.9250   70.7812  220.8890 H   0  0  0  0  0  0  0  0  0  0  0  0
  136.5249   73.1116  221.2047 H   0  0  0  0  0  0  0  0  0  0  0  0
  134.9632   72.6947  221.9881 H   0  0  0  0  0  0  0  0  0  0  0  0
  136.9590   73.0710  223.5100 H   0  0  0  0  0  0  0  0  0  0  0  0
  136.5559   71.1968  224.9088 H   0  0  0  0  0  0  0  0  0  0  0  0
  134.9875   71.5336  224.1247 H   0  0  0  0  0  0  0  0  0  0  0  0
  136.7208   69.2179  223.8757 H   0  0  0  0  0  0  0  0  0  0  0  0
  135.0508   69.5079  223.2062 H   0  0  0  0  0  0  0  0  0  0  0  0
  1  2  2  0
  2  3  1  0
  3  4  2  0
  4  5  1  0
  5  6  1  0
  5  7  2  0
  7  8  1  0
  8  9  2  0
  9 10  1  0
 10 11  2  0
 11 12  1  0
 12 13  2  0
 13 14  1  0
 14 15  2  0
 15 16  1  0
 16 17  2  0
 17 18  1  0
 18 19  1  0
 19 20  1  0
 20 21  1  0
 21 22  1  0
 22 23  1  0
 23 24  1  0
 18 25  2  0
 11 26  1  0
 26 27  1  0
 27 28  1  0
 28 29  1  0
 29 30  1  0
 30 31  1  0
 31 32  1  0
 32 33  1  0
 26  2  1  0
 33 28  1  0
  9  3  1  0
 25 14  1  0
 24 19  1  0
  4 34  1  0
  7 35  1  0
  8 36  1  0
 12 37  1  0
 13 38  1  0
 15 39  1  0
 16 40  1  0
 17 41  1  0
 20 42  1  0
 20 43  1  0
 21 44  1  0
 21 45  1  0
 22 46  1  0
 22 47  1  0
 23 48  1  0
 23 49  1  0
 24 50  1  0
 24 51  1  0
 25 52  1  0
 27 53  1  0
 27 54  1  0
 28 55  1  0
 29 56  1  0
 29 57  1  0
 30 58  1  0
 30 59  1  0
 31 60  1  0
 32 61  1  0
 32 62  1  0
 33 63  1  0
 33 64  1  0
M  END
>  <smiles>  (37) 
O=c1c2cc(Cl)ccc2nc(/C=C/c2cccc(N3CCCCC3)c2)n1CC1CCNCC1

>  <score_type>  (37) 
oracle

>  <origin>  (37) 
autodockgpu

>  <m_score__min__energy>  (37) 
-9.8300000000000001

>  <m_primary>  (37) 
energy

>  <rmsd>  (37) 
6.573720349157097

>  <m_score__min__rmsd>  (37) 
6.573720349157097

>  <meeko>  (37) 
{"free_energy": -9.09, "intermolecular_energy": -10.88, "internal_energy": -1.79, "cluster_size": 26, "cluster_id": 2, "rank_in_cluster": 6}

>  <energy>  (37) 
-8.28

>  <cluster_rmsd>  (37) 
1.27

>  <cluster>  (37) 
2

$$$$

     RDKit          3D

 64 68  0  0  0  0  0  0  0  0999 V2000
  143.8930   76.5310  219.2940 O   0  0  0  0  0  0  0  0  0  0  0  0
  142.9430   76.0070  219.9600 C   0  0  0  0  0  0  0  0  0  0  0  0
  143.0530   74.6490  220.1820 C   0  0  0  0  0  0  0  0  0  0  0  0
  144.1220   73.9080  219.7150 C   0  0  0  0  0  0  0  0  0  0  0  0
  144.2050   72.5420  219.9540 C   0  0  0  0  0  0  0  0  0  0  0  0
  145.5480   71.5750  219.3760 Cl  0  0  0  0  0  0  0  0  0  0  0  0
  143.2140   71.8970  220.6680 C   0  0  0  0  0  0  0  0  0  0  0  0
  142.1430   72.6260  221.1400 C   0  0  0  0  0  0  0  0  0  0  0  0
  142.0710   73.9840  220.8950 C   0  0  0  0  0  0  0  0  0  0  0  0
  141.0440   74.7340  221.3370 N   0  0  0  0  0  0  0  0  0  0  0  0
  140.9550   76.0560  221.1100 C   0  0  0  0  0  0  0  0  0  0  0  0
  139.7840   76.7830  221.6410 C   0  0  0  0  0  0  0  0  0  0  0  0
  139.8940   77.5090  222.7380 C   0  0  0  0  0  0  0  0  0  0  0  0
  140.5850   78.7760  222.8130 C   0  0  0  0  0  0  0  0  0  0  0  0
  141.7700   78.9380  223.4840 C   0  0  0  0  0  0  0  0  0  0  0  0
  142.4270   80.1730  223.5460 C   0  0  0  0  0  0  0  0  0  0  0  0
  141.8430   81.2640  222.8980 C   0  0  0  0  0  0  0  0  0  0  0  0
  140.6520   81.1260  222.2160 C   0  0  0  0  0  0  0  0  0  0  0  0
  140.1230   82.2790  221.5860 N   0  0  0  0  0  0  0  0  0  0  0  0
  138.7650   82.6700  221.9060 C   0  0  0  0  0  0  0  0  0  0  0  0
  138.2860   83.8280  221.0870 C   0  0  0  0  0  0  0  0  0  0  0  0
  139.2730   84.9520  221.0090 C   0  0  0  0  0  0  0  0  0  0  0  0
  140.7020   84.5440  221.1400 C   0  0  0  0  0  0  0  0  0  0  0  0
  140.8440   83.1000  220.6400 C   0  0  0  0  0  0  0  0  0  0  0  0
  140.0550   79.8860  222.1910 C   0  0  0  0  0  0  0  0  0  0  0  0
  141.9000   76.7420  220.4140 N   0  0  0  0  0  0  0  0  0  0  0  0
  141.8070   78.1420  220.1620 C   0  0  0  0  0  0  0  0  0  0  0  0
  140.9410   78.5630  219.0310 C   0  0  0  0  0  0  0  0  0  0  0  0
  141.2630   77.7850  217.7500 C   0  0  0  0  0  0  0  0  0  0  0  0
  142.4320   78.3750  217.0290 C   0  0  0  0  0  0  0  0  0  0  0  0
  142.9500   79.4990  217.7870 N   0  0  0  0  0  0  0  0  0  0  0  0
  141.9920   80.5610  217.9540 C   0  0  0  0  0  0  0  0  0  0  0  0
  140.8380   80.0250  218.7710 C   0  0  0  0  0  0  0  0  0  0  0  0
  144.9194   74.4075  219.1453 H   0  0  0  0  0  0  0  0  0  0  0  0
  143.2784   70.8154  220.8577 H   0  0  0  0  0  0  0  0  0  0  0  0
  141.3464   72.1268  221.7112 H   0  0  0  0  0  0  0  0  0  0  0  0
  138.8170   76.7192  221.1206 H   0  0  0  0  0  0  0  0  0  0  0  0
  139.4283   77.1236  223.6570 H   0  0  0  0  0  0  0  0  0  0  0  0
  142.2186   78.0702  223.9896 H   0  0  0  0  0  0  0  0  0  0  0  0
  143.3769   80.2811  224.0901 H   0  0  0  0  0  0  0  0  0  0  0  0
  142.3390   82.2452  222.9320 H   0  0  0  0  0  0  0  0  0  0  0  0
  138.1004   81.8125  221.7245 H   0  0  0  0  0  0  0  0  0  0  0  0
  138.7502   82.9819  222.9607 H   0  0  0  0  0  0  0  0  0  0  0  0
  138.0819   83.4721  220.0664 H   0  0  0  0  0  0  0  0  0  0  0  0
  137.3844   84.2219  221.5789 H   0  0  0  0  0  0  0  0  0  0  0  0
  139.1477   85.4498  220.0361 H   0  0  0  0  0  0  0  0  0  0  0  0
  139.0603   85.6090  221.8652 H   0  0  0  0  0  0  0  0  0  0  0  0
  141.3350   85.2100  220.5352 H   0  0  0  0  0  0  0  0  0  0  0  0
  141.0184   84.6116  222.1914 H   0  0  0  0  0  0  0  0  0  0  0  0
  140.4077   82.9986  219.6353 H   0  0  0  0  0  0  0  0  0  0  0  0
  141.8999   82.8001  220.5684 H   0  0  0  0  0  0  0  0  0  0  0  0
  139.1057   79.7751  221.6464 H   0  0  0  0  0  0  0  0  0  0  0  0
  141.4188   78.6192  221.0739 H   0  0  0  0  0  0  0  0  0  0  0  0
  142.8234   78.4512  219.8768 H   0  0  0  0  0  0  0  0  0  0  0  0
  139.9318   78.2964  219.3780 H   0  0  0  0  0  0  0  0  0  0  0  0
  141.4950   76.7426  218.0138 H   0  0  0  0  0  0  0  0  0  0  0  0
  140.3872   77.8358  217.0864 H   0  0  0  0  0  0  0  0  0  0  0  0
  143.2179   77.6132  216.9194 H   0  0  0  0  0  0  0  0  0  0  0  0
  142.1138   78.7190  216.0338 H   0  0  0  0  0  0  0  0  0  0  0  0
  143.8900   79.7860  217.4990 H   0  0  0  0  0  0  0  0  0  0  0  0
  142.4600   81.4068  218.4790 H   0  0  0  0  0  0  0  0  0  0  0  0
  141.6360   80.9121  216.9742 H   0  0  0  0  0  0  0  0  0  0  0  0
  140.8167   80.5523  219.7361 H   0  0  0  0  0  0  0  0  0  0  0  0
  139.9180   80.1929  218.1919 H   0  0  0  0  0  0  0  0  0  0  0  0
  1  2  2  0
  2  3  1  0
  3  4  2  0
  4  5  1  0
  5  6  1  0
  5  7  2  0
  7  8  1  0
  8  9  2  0
  9 10  1  0
 10 11  2  0
 11 12  1  0
 12 13  2  0
 13 14  1  0
 14 15  2  0
 15 16  1  0
 16 17  2  0
 17 18  1  0
 18 19  1  0
 19 20  1  0
 20 21  1  0
 21 22  1  0
 22 23  1  0
 23 24  1  0
 18 25  2  0
 11 26  1  0
 26 27  1  0
 27 28  1  0
 28 29  1  0
 29 30  1  0
 30 31  1  0
 31 32  1  0
 32 33  1  0
 26  2  1  0
 33 28  1  0
  9  3  1  0
 25 14  1  0
 24 19  1  0
  4 34  1  0
  7 35  1  0
  8 36  1  0
 12 37  1  0
 13 38  1  0
 15 39  1  0
 16 40  1  0
 17 41  1  0
 20 42  1  0
 20 43  1  0
 21 44  1  0
 21 45  1  0
 22 46  1  0
 22 47  1  0
 23 48  1  0
 23 49  1  0
 24 50  1  0
 24 51  1  0
 25 52  1  0
 27 53  1  0
 27 54  1  0
 28 55  1  0
 29 56  1  0
 29 57  1  0
 30 58  1  0
 30 59  1  0
 31 60  1  0
 32 61  1  0
 32 62  1  0
 33 63  1  0
 33 64  1  0
M  END
>  <smiles>  (38) 
O=c1c2cc(Cl)ccc2nc(/C=C/c2cccc(N3CCCCC3)c2)n1CC1CCNCC1

>  <score_type>  (38) 
oracle

>  <origin>  (38) 
autodockgpu

>  <m_score__min__energy>  (38) 
-9.8300000000000001

>  <m_primary>  (38) 
energy

>  <rmsd>  (38) 
6.715587446579638

>  <m_score__min__rmsd>  (38) 
6.715587446579638

>  <meeko>  (38) 
{"free_energy": -7.8, "intermolecular_energy": -9.59, "internal_energy": -2.35, "cluster_size": 3, "cluster_id": 5, "rank_in_cluster": 1}

>  <energy>  (38) 
-8.27

>  <cluster_rmsd>  (38) 
1.84

>  <cluster>  (38) 
2

$$$$

     RDKit          3D

 64 68  0  0  0  0  0  0  0  0999 V2000
  137.6330   69.2830  223.9940 O   0  0  0  0  0  0  0  0  0  0  0  0
  138.5000   70.2050  223.8540 C   0  0  0  0  0  0  0  0  0  0  0  0
  139.3510   70.3880  224.9250 C   0  0  0  0  0  0  0  0  0  0  0  0
  139.2700   69.6220  226.0720 C   0  0  0  0  0  0  0  0  0  0  0  0
  140.1410   69.8290  227.1340 C   0  0  0  0  0  0  0  0  0  0  0  0
  140.0650   68.8730  228.6010 Cl  0  0  0  0  0  0  0  0  0  0  0  0
  141.1090   70.8100  227.0610 C   0  0  0  0  0  0  0  0  0  0  0  0
  141.2000   71.5810  225.9220 C   0  0  0  0  0  0  0  0  0  0  0  0
  140.3280   71.3660  224.8720 C   0  0  0  0  0  0  0  0  0  0  0  0
  140.3800   72.0950  223.7410 N   0  0  0  0  0  0  0  0  0  0  0  0
  139.5420   71.9020  222.7080 C   0  0  0  0  0  0  0  0  0  0  0  0
  139.6880   72.7590  221.5150 C   0  0  0  0  0  0  0  0  0  0  0  0
  140.3110   73.9200  221.6030 C   0  0  0  0  0  0  0  0  0  0  0  0
  139.6680   75.1680  221.9480 C   0  0  0  0  0  0  0  0  0  0  0  0
  138.3180   75.2730  222.1660 C   0  0  0  0  0  0  0  0  0  0  0  0
  137.7110   76.4900  222.5010 C   0  0  0  0  0  0  0  0  0  0  0  0
  138.5210   77.6230  222.6120 C   0  0  0  0  0  0  0  0  0  0  0  0
  139.8810   77.5420  222.3980 C   0  0  0  0  0  0  0  0  0  0  0  0
  140.6340   78.7340  222.5290 N   0  0  0  0  0  0  0  0  0  0  0  0
  140.1980   79.7150  223.5030 C   0  0  0  0  0  0  0  0  0  0  0  0
  141.0040   80.9760  223.4580 C   0  0  0  0  0  0  0  0  0  0  0  0
  142.4820   80.7370  223.4090 C   0  0  0  0  0  0  0  0  0  0  0  0
  142.8900   79.4510  222.7740 C   0  0  0  0  0  0  0  0  0  0  0  0
  141.8150   79.0470  221.7570 C   0  0  0  0  0  0  0  0  0  0  0  0
  140.4180   76.3180  222.0730 C   0  0  0  0  0  0  0  0  0  0  0  0
  138.5710   70.9510  222.7250 N   0  0  0  0  0  0  0  0  0  0  0  0
  137.6720   70.7480  221.6370 C   0  0  0  0  0  0  0  0  0  0  0  0
  138.1380   69.8630  220.5390 C   0  0  0  0  0  0  0  0  0  0  0  0
  137.0220   68.9360  220.0450 C   0  0  0  0  0  0  0  0  0  0  0  0
  136.8890   67.7270  220.9140 C   0  0  0  0  0  0  0  0  0  0  0  0
  137.8380   67.8110  222.0080 N   0  0  0  0  0  0  0  0  0  0  0  0
  139.2090   67.8500  221.5680 C   0  0  0  0  0  0  0  0  0  0  0  0
  139.4070   69.1190  220.7680 C   0  0  0  0  0  0  0  0  0  0  0  0
  138.5039   68.8361  226.1453 H   0  0  0  0  0  0  0  0  0  0  0  0
  141.7994   70.9746  227.9014 H   0  0  0  0  0  0  0  0  0  0  0  0
  141.9662   72.3668  225.8490 H   0  0  0  0  0  0  0  0  0  0  0  0
  139.2765   72.4294  220.5496 H   0  0  0  0  0  0  0  0  0  0  0  0
  141.3920   73.9388  221.4001 H   0  0  0  0  0  0  0  0  0  0  0  0
  137.6922   74.3730  222.0749 H   0  0  0  0  0  0  0  0  0  0  0  0
  136.6262   76.5521  222.6721 H   0  0  0  0  0  0  0  0  0  0  0  0
  138.0686   78.5911  222.8732 H   0  0  0  0  0  0  0  0  0  0  0  0
  139.1451   79.9637  223.3041 H   0  0  0  0  0  0  0  0  0  0  0  0
  140.3315   79.2723  224.5011 H   0  0  0  0  0  0  0  0  0  0  0  0
  140.7129   81.5439  222.5620 H   0  0  0  0  0  0  0  0  0  0  0  0
  140.7953   81.5276  224.3865 H   0  0  0  0  0  0  0  0  0  0  0  0
  142.9423   81.5593  222.8416 H   0  0  0  0  0  0  0  0  0  0  0  0
  142.8207   80.6857  224.4543 H   0  0  0  0  0  0  0  0  0  0  0  0
  143.8551   79.5798  222.2622 H   0  0  0  0  0  0  0  0  0  0  0  0
  142.9959   78.6693  223.5407 H   0  0  0  0  0  0  0  0  0  0  0  0
  141.6108   79.8782  221.0661 H   0  0  0  0  0  0  0  0  0  0  0  0
  142.1378   78.1892  221.1487 H   0  0  0  0  0  0  0  0  0  0  0  0
  141.5030   76.2534  221.9039 H   0  0  0  0  0  0  0  0  0  0  0  0
  136.7480   70.3129  222.0456 H   0  0  0  0  0  0  0  0  0  0  0  0
  137.5503   71.7391  221.1756 H   0  0  0  0  0  0  0  0  0  0  0  0
  138.4027   70.5734  219.7420 H   0  0  0  0  0  0  0  0  0  0  0  0
  136.0702   69.4874  220.0517 H   0  0  0  0  0  0  0  0  0  0  0  0
  137.2749   68.6034  219.0274 H   0  0  0  0  0  0  0  0  0  0  0  0
  135.8672   67.6765  221.3181 H   0  0  0  0  0  0  0  0  0  0  0  0
  137.0934   66.8241  220.3198 H   0  0  0  0  0  0  0  0  0  0  0  0
  137.6340   67.1650  222.7760 H   0  0  0  0  0  0  0  0  0  0  0  0
  139.8808   67.8491  222.4390 H   0  0  0  0  0  0  0  0  0  0  0  0
  139.4374   66.9690  220.9502 H   0  0  0  0  0  0  0  0  0  0  0  0
  140.1037   69.7727  221.3133 H   0  0  0  0  0  0  0  0  0  0  0  0
  139.8028   68.8302  219.7832 H   0  0  0  0  0  0  0  0  0  0  0  0
  1  2  2  0
  2  3  1  0
  3  4  2  0
  4  5  1  0
  5  6  1  0
  5  7  2  0
  7  8  1  0
  8  9  2  0
  9 10  1  0
 10 11  2  0
 11 12  1  0
 12 13  2  0
 13 14  1  0
 14 15  2  0
 15 16  1  0
 16 17  2  0
 17 18  1  0
 18 19  1  0
 19 20  1  0
 20 21  1  0
 21 22  1  0
 22 23  1  0
 23 24  1  0
 18 25  2  0
 11 26  1  0
 26 27  1  0
 27 28  1  0
 28 29  1  0
 29 30  1  0
 30 31  1  0
 31 32  1  0
 32 33  1  0
 26  2  1  0
 33 28  1  0
  9  3  1  0
 25 14  1  0
 24 19  1  0
  4 34  1  0
  7 35  1  0
  8 36  1  0
 12 37  1  0
 13 38  1  0
 15 39  1  0
 16 40  1  0
 17 41  1  0
 20 42  1  0
 20 43  1  0
 21 44  1  0
 21 45  1  0
 22 46  1  0
 22 47  1  0
 23 48  1  0
 23 49  1  0
 24 50  1  0
 24 51  1  0
 25 52  1  0
 27 53  1  0
 27 54  1  0
 28 55  1  0
 29 56  1  0
 29 57  1  0
 30 58  1  0
 30 59  1  0
 31 60  1  0
 32 61  1  0
 32 62  1  0
 33 63  1  0
 33 64  1  0
M  END
>  <smiles>  (39) 
O=c1c2cc(Cl)ccc2nc(/C=C/c2cccc(N3CCCCC3)c2)n1CC1CCNCC1

>  <score_type>  (39) 
oracle

>  <origin>  (39) 
autodockgpu

>  <m_score__min__energy>  (39) 
-9.8300000000000001

>  <m_primary>  (39) 
energy

>  <rmsd>  (39) 
6.436483117621393

>  <m_score__min__rmsd>  (39) 
6.436483117621393

>  <meeko>  (39) 
{"free_energy": -8.31, "intermolecular_energy": -10.1, "internal_energy": -1.94, "cluster_size": 26, "cluster_id": 2, "rank_in_cluster": 20}

>  <energy>  (39) 
-8.18

>  <cluster_rmsd>  (39) 
1.37

>  <cluster>  (39) 
2

$$$$

     RDKit          3D

 64 68  0  0  0  0  0  0  0  0999 V2000
  138.0870   69.2570  223.6250 O   0  0  0  0  0  0  0  0  0  0  0  0
  138.8950   70.2400  223.5900 C   0  0  0  0  0  0  0  0  0  0  0  0
  139.6050   70.4660  224.7520 C   0  0  0  0  0  0  0  0  0  0  0  0
  139.4500   69.6800  225.8780 C   0  0  0  0  0  0  0  0  0  0  0  0
  140.1790   69.9330  227.0330 C   0  0  0  0  0  0  0  0  0  0  0  0
  140.0060   68.9530  228.4770 Cl  0  0  0  0  0  0  0  0  0  0  0  0
  141.0760   70.9820  227.0760 C   0  0  0  0  0  0  0  0  0  0  0  0
  141.2390   71.7730  225.9600 C   0  0  0  0  0  0  0  0  0  0  0  0
  140.5090   71.5120  224.8160 C   0  0  0  0  0  0  0  0  0  0  0  0
  140.6360   72.2590  223.7030 N   0  0  0  0  0  0  0  0  0  0  0  0
  139.9360   72.0220  222.5810 C   0  0  0  0  0  0  0  0  0  0  0  0
  140.1540   72.9040  221.4170 C   0  0  0  0  0  0  0  0  0  0  0  0
  140.6460   74.1180  221.5860 C   0  0  0  0  0  0  0  0  0  0  0  0
  139.8580   75.2740  221.9500 C   0  0  0  0  0  0  0  0  0  0  0  0
  138.4870   75.2710  221.9440 C   0  0  0  0  0  0  0  0  0  0  0  0
  137.7390   76.4010  222.3000 C   0  0  0  0  0  0  0  0  0  0  0  0
  138.4280   77.5590  222.6690 C   0  0  0  0  0  0  0  0  0  0  0  0
  139.8070   77.5860  222.6830 C   0  0  0  0  0  0  0  0  0  0  0  0
  140.4320   78.7970  223.0680 N   0  0  0  0  0  0  0  0  0  0  0  0
  141.8770   78.8110  223.1900 C   0  0  0  0  0  0  0  0  0  0  0  0
  142.4020   80.1100  223.7180 C   0  0  0  0  0  0  0  0  0  0  0  0
  141.8050   81.3100  223.0490 C   0  0  0  0  0  0  0  0  0  0  0  0
  140.4260   81.1110  222.5150 C   0  0  0  0  0  0  0  0  0  0  0  0
  139.7310   80.0280  223.3500 C   0  0  0  0  0  0  0  0  0  0  0  0
  140.4850   76.4430  222.3240 C   0  0  0  0  0  0  0  0  0  0  0  0
  139.0400   71.0040  222.4810 N   0  0  0  0  0  0  0  0  0  0  0  0
  138.2860   70.7540  221.2970 C   0  0  0  0  0  0  0  0  0  0  0  0
  137.0560   71.5620  221.1020 C   0  0  0  0  0  0  0  0  0  0  0  0
  136.7960   72.4960  222.2890 C   0  0  0  0  0  0  0  0  0  0  0  0
  136.1080   71.7830  223.4080 C   0  0  0  0  0  0  0  0  0  0  0  0
  135.9250   70.3890  223.0520 N   0  0  0  0  0  0  0  0  0  0  0  0
  135.1060   70.2040  221.8830 C   0  0  0  0  0  0  0  0  0  0  0  0
  135.8240   70.8260  220.7060 C   0  0  0  0  0  0  0  0  0  0  0  0
  138.7385   68.8413  225.8594 H   0  0  0  0  0  0  0  0  0  0  0  0
  141.6534   71.1836  227.9903 H   0  0  0  0  0  0  0  0  0  0  0  0
  141.9500   72.6121  225.9795 H   0  0  0  0  0  0  0  0  0  0  0  0
  139.9059   72.5488  220.4059 H   0  0  0  0  0  0  0  0  0  0  0  0
  141.7271   74.2588  221.4401 H   0  0  0  0  0  0  0  0  0  0  0  0
  137.9576   74.3525  221.6505 H   0  0  0  0  0  0  0  0  0  0  0  0
  136.6393   76.3770  222.2893 H   0  0  0  0  0  0  0  0  0  0  0  0
  137.8640   78.4601  222.9518 H   0  0  0  0  0  0  0  0  0  0  0  0
  142.1797   78.0052  223.8748 H   0  0  0  0  0  0  0  0  0  0  0  0
  142.2959   78.6693  222.1828 H   0  0  0  0  0  0  0  0  0  0  0  0
  142.1797   80.1642  224.7939 H   0  0  0  0  0  0  0  0  0  0  0  0
  143.4829   80.1296  223.5147 H   0  0  0  0  0  0  0  0  0  0  0  0
  141.7724   82.1291  223.7824 H   0  0  0  0  0  0  0  0  0  0  0  0
  142.4435   81.5282  222.1803 H   0  0  0  0  0  0  0  0  0  0  0  0
  139.8617   82.0526  222.5852 H   0  0  0  0  0  0  0  0  0  0  0  0
  140.4717   80.8017  221.4604 H   0  0  0  0  0  0  0  0  0  0  0  0
  139.7981   80.2693  224.4211 H   0  0  0  0  0  0  0  0  0  0  0  0
  138.6627   79.9498  223.0997 H   0  0  0  0  0  0  0  0  0  0  0  0
  141.5847   76.4637  222.3363 H   0  0  0  0  0  0  0  0  0  0  0  0
  138.9460   70.9403  220.4370 H   0  0  0  0  0  0  0  0  0  0  0  0
  137.9353   69.7159  221.3937 H   0  0  0  0  0  0  0  0  0  0  0  0
  137.2912   72.1607  220.2097 H   0  0  0  0  0  0  0  0  0  0  0  0
  137.7574   72.8877  222.6526 H   0  0  0  0  0  0  0  0  0  0  0  0
  136.1433   73.3132  221.9480 H   0  0  0  0  0  0  0  0  0  0  0  0
  136.7212   71.8516  224.3187 H   0  0  0  0  0  0  0  0  0  0  0  0
  135.1275   72.2468  223.5909 H   0  0  0  0  0  0  0  0  0  0  0  0
  135.7030   69.7890  223.8530 H   0  0  0  0  0  0  0  0  0  0  0  0
  134.9520   69.1301  221.7012 H   0  0  0  0  0  0  0  0  0  0  0  0
  134.1238   70.6784  222.0256 H   0  0  0  0  0  0  0  0  0  0  0  0
  136.1030   70.0272  220.0030 H   0  0  0  0  0  0  0  0  0  0  0  0
  135.1379   71.5534  220.2477 H   0  0  0  0  0  0  0  0  0  0  0  0
  1  2  2  0
  2  3  1  0
  3  4  2  0
  4  5  1  0
  5  6  1  0
  5  7  2  0
  7  8  1  0
  8  9  2  0
  9 10  1  0
 10 11  2  0
 11 12  1  0
 12 13  2  0
 13 14  1  0
 14 15  2  0
 15 16  1  0
 16 17  2  0
 17 18  1  0
 18 19  1  0
 19 20  1  0
 20 21  1  0
 21 22  1  0
 22 23  1  0
 23 24  1  0
 18 25  2  0
 11 26  1  0
 26 27  1  0
 27 28  1  0
 28 29  1  0
 29 30  1  0
 30 31  1  0
 31 32  1  0
 32 33  1  0
 26  2  1  0
 33 28  1  0
  9  3  1  0
 25 14  1  0
 24 19  1  0
  4 34  1  0
  7 35  1  0
  8 36  1  0
 12 37  1  0
 13 38  1  0
 15 39  1  0
 16 40  1  0
 17 41  1  0
 20 42  1  0
 20 43  1  0
 21 44  1  0
 21 45  1  0
 22 46  1  0
 22 47  1  0
 23 48  1  0
 23 49  1  0
 24 50  1  0
 24 51  1  0
 25 52  1  0
 27 53  1  0
 27 54  1  0
 28 55  1  0
 29 56  1  0
 29 57  1  0
 30 58  1  0
 30 59  1  0
 31 60  1  0
 32 61  1  0
 32 62  1  0
 33 63  1  0
 33 64  1  0
M  END
>  <smiles>  (40) 
O=c1c2cc(Cl)ccc2nc(/C=C/c2cccc(N3CCCCC3)c2)n1CC1CCNCC1

>  <score_type>  (40) 
oracle

>  <origin>  (40) 
autodockgpu

>  <m_score__min__energy>  (40) 
-9.8300000000000001

>  <m_primary>  (40) 
energy

>  <rmsd>  (40) 
6.594334670166274

>  <m_score__min__rmsd>  (40) 
6.594334670166274

>  <meeko>  (40) 
{"free_energy": -8.29, "intermolecular_energy": -10.08, "internal_energy": -2.16, "cluster_size": 26, "cluster_id": 2, "rank_in_cluster": 21}

>  <energy>  (40) 
-7.96

>  <cluster_rmsd>  (40) 
1.6

>  <cluster>  (40) 
2

$$$$

     RDKit          3D

 64 68  0  0  0  0  0  0  0  0999 V2000
  137.9140   68.4570  224.5040 O   0  0  0  0  0  0  0  0  0  0  0  0
  138.5550   69.5310  224.2680 C   0  0  0  0  0  0  0  0  0  0  0  0
  139.4950   69.8810  225.2160 C   0  0  0  0  0  0  0  0  0  0  0  0
  139.7270   69.1190  226.3450 C   0  0  0  0  0  0  0  0  0  0  0  0
  140.6790   69.4980  227.2820 C   0  0  0  0  0  0  0  0  0  0  0  0
  140.9970   68.5510  228.7230 Cl  0  0  0  0  0  0  0  0  0  0  0  0
  141.4160   70.6510  227.1000 C   0  0  0  0  0  0  0  0  0  0  0  0
  141.1940   71.4210  225.9790 C   0  0  0  0  0  0  0  0  0  0  0  0
  140.2440   71.0340  225.0530 C   0  0  0  0  0  0  0  0  0  0  0  0
  139.9940   71.7540  223.9440 N   0  0  0  0  0  0  0  0  0  0  0  0
  139.0750   71.3960  223.0310 C   0  0  0  0  0  0  0  0  0  0  0  0
  138.8830   72.2610  221.8500 C   0  0  0  0  0  0  0  0  0  0  0  0
  138.6760   73.5560  222.0020 C   0  0  0  0  0  0  0  0  0  0  0  0
  139.6340   74.5820  221.6550 C   0  0  0  0  0  0  0  0  0  0  0  0
  140.5800   74.4150  220.6760 C   0  0  0  0  0  0  0  0  0  0  0  0
  141.5010   75.4190  220.3520 C   0  0  0  0  0  0  0  0  0  0  0  0
  141.4400   76.6230  221.0590 C   0  0  0  0  0  0  0  0  0  0  0  0
  140.4970   76.8150  222.0470 C   0  0  0  0  0  0  0  0  0  0  0  0
  140.5000   78.0610  222.7180 N   0  0  0  0  0  0  0  0  0  0  0  0
  141.7790   78.6780  223.0100 C   0  0  0  0  0  0  0  0  0  0  0  0
  141.6480   79.9270  223.8260 C   0  0  0  0  0  0  0  0  0  0  0  0
  140.5900   80.8590  223.3220 C   0  0  0  0  0  0  0  0  0  0  0  0
  139.4620   80.2000  222.6010 C   0  0  0  0  0  0  0  0  0  0  0  0
  139.3110   78.7700  223.1360 C   0  0  0  0  0  0  0  0  0  0  0  0
  139.6200   75.7900  222.3180 C   0  0  0  0  0  0  0  0  0  0  0  0
  138.3210   70.2720  223.1580 N   0  0  0  0  0  0  0  0  0  0  0  0
  137.3370   69.8910  222.1990 C   0  0  0  0  0  0  0  0  0  0  0  0
  135.9850   70.4850  222.3550 C   0  0  0  0  0  0  0  0  0  0  0  0
  135.8270   71.1900  223.7070 C   0  0  0  0  0  0  0  0  0  0  0  0
  135.4880   70.2220  224.7940 C   0  0  0  0  0  0  0  0  0  0  0  0
  135.4500   68.8780  224.2500 N   0  0  0  0  0  0  0  0  0  0  0  0
  134.4540   68.7080  223.2240 C   0  0  0  0  0  0  0  0  0  0  0  0
  134.8240   69.6010  222.0610 C   0  0  0  0  0  0  0  0  0  0  0  0
  139.1482   68.1972  226.5041 H   0  0  0  0  0  0  0  0  0  0  0  0
  142.1714   70.9515  227.8410 H   0  0  0  0  0  0  0  0  0  0  0  0
  141.7726   72.3431  225.8213 H   0  0  0  0  0  0  0  0  0  0  0  0
  138.9125   71.8252  220.8405 H   0  0  0  0  0  0  0  0  0  0  0  0
  137.7103   73.8758  222.4205 H   0  0  0  0  0  0  0  0  0  0  0  0
  140.6164   73.4620  220.1278 H   0  0  0  0  0  0  0  0  0  0  0  0
  142.2516   75.2642  219.5629 H   0  0  0  0  0  0  0  0  0  0  0  0
  142.1528   77.4274  220.8246 H   0  0  0  0  0  0  0  0  0  0  0  0
  142.3977   77.9582  223.5660 H   0  0  0  0  0  0  0  0  0  0  0  0
  142.2394   78.9561  222.0504 H   0  0  0  0  0  0  0  0  0  0  0  0
  141.3995   79.6437  224.8594 H   0  0  0  0  0  0  0  0  0  0  0  0
  142.6080   80.4599  223.7601 H   0  0  0  0  0  0  0  0  0  0  0  0
  140.1739   81.4013  224.1839 H   0  0  0  0  0  0  0  0  0  0  0  0
  141.0818   81.5159  222.5894 H   0  0  0  0  0  0  0  0  0  0  0  0
  138.5321   80.7613  222.7750 H   0  0  0  0  0  0  0  0  0  0  0  0
  139.6670   80.1783  221.5205 H   0  0  0  0  0  0  0  0  0  0  0  0
  139.2368   78.7782  224.2335 H   0  0  0  0  0  0  0  0  0  0  0  0
  138.3992   78.2898  222.7513 H   0  0  0  0  0  0  0  0  0  0  0  0
  138.8677   75.9430  223.1058 H   0  0  0  0  0  0  0  0  0  0  0  0
  137.7130   70.1758  221.2053 H   0  0  0  0  0  0  0  0  0  0  0  0
  137.1953   68.8101  222.3458 H   0  0  0  0  0  0  0  0  0  0  0  0
  135.9467   71.2300  221.5466 H   0  0  0  0  0  0  0  0  0  0  0  0
  136.7714   71.6944  223.9595 H   0  0  0  0  0  0  0  0  0  0  0  0
  135.0050   71.9161  223.6232 H   0  0  0  0  0  0  0  0  0  0  0  0
  136.2511   70.2762  225.5844 H   0  0  0  0  0  0  0  0  0  0  0  0
  134.5042   70.4746  225.2163 H   0  0  0  0  0  0  0  0  0  0  0  0
  135.4830   68.1460  224.9660 H   0  0  0  0  0  0  0  0  0  0  0  0
  134.4312   67.6583  222.8961 H   0  0  0  0  0  0  0  0  0  0  0  0
  133.4589   68.9751  223.6094 H   0  0  0  0  0  0  0  0  0  0  0  0
  135.0755   68.9670  221.1980 H   0  0  0  0  0  0  0  0  0  0  0  0
  133.9596   70.2494  221.8551 H   0  0  0  0  0  0  0  0  0  0  0  0
  1  2  2  0
  2  3  1  0
  3  4  2  0
  4  5  1  0
  5  6  1  0
  5  7  2  0
  7  8  1  0
  8  9  2  0
  9 10  1  0
 10 11  2  0
 11 12  1  0
 12 13  2  0
 13 14  1  0
 14 15  2  0
 15 16  1  0
 16 17  2  0
 17 18  1  0
 18 19  1  0
 19 20  1  0
 20 21  1  0
 21 22  1  0
 22 23  1  0
 23 24  1  0
 18 25  2  0
 11 26  1  0
 26 27  1  0
 27 28  1  0
 28 29  1  0
 29 30  1  0
 30 31  1  0
 31 32  1  0
 32 33  1  0
 26  2  1  0
 33 28  1  0
  9  3  1  0
 25 14  1  0
 24 19  1  0
  4 34  1  0
  7 35  1  0
  8 36  1  0
 12 37  1  0
 13 38  1  0
 15 39  1  0
 16 40  1  0
 17 41  1  0
 20 42  1  0
 20 43  1  0
 21 44  1  0
 21 45  1  0
 22 46  1  0
 22 47  1  0
 23 48  1  0
 23 49  1  0
 24 50  1  0
 24 51  1  0
 25 52  1  0
 27 53  1  0
 27 54  1  0
 28 55  1  0
 29 56  1  0
 29 57  1  0
 30 58  1  0
 30 59  1  0
 31 60  1  0
 32 61  1  0
 32 62  1  0
 33 63  1  0
 33 64  1  0
M  END
>  <smiles>  (41) 
O=c1c2cc(Cl)ccc2nc(/C=C/c2cccc(N3CCCCC3)c2)n1CC1CCNCC1

>  <score_type>  (41) 
oracle

>  <origin>  (41) 
autodockgpu

>  <m_score__min__energy>  (41) 
-9.8300000000000001

>  <m_primary>  (41) 
energy

>  <rmsd>  (41) 
6.412831911910896

>  <m_score__min__rmsd>  (41) 
6.412831911910896

>  <meeko>  (41) 
{"free_energy": -8.33, "intermolecular_energy": -10.12, "internal_energy": -1.8, "cluster_size": 26, "cluster_id": 2, "rank_in_cluster": 18}

>  <energy>  (41) 
-8.27

>  <cluster_rmsd>  (41) 
0.0

>  <cluster>  (41) 
3

$$$$

     RDKit          3D

 64 68  0  0  0  0  0  0  0  0999 V2000
  143.9360   76.5300  219.3210 O   0  0  0  0  0  0  0  0  0  0  0  0
  142.9700   75.9990  219.9580 C   0  0  0  0  0  0  0  0  0  0  0  0
  143.0690   74.6360  220.1570 C   0  0  0  0  0  0  0  0  0  0  0  0
  144.1430   73.8980  219.6980 C   0  0  0  0  0  0  0  0  0  0  0  0
  144.2140   72.5270  219.9140 C   0  0  0  0  0  0  0  0  0  0  0  0
  145.5640   71.5640  219.3450 Cl  0  0  0  0  0  0  0  0  0  0  0  0
  143.2060   71.8750  220.5950 C   0  0  0  0  0  0  0  0  0  0  0  0
  142.1300   72.6010  221.0580 C   0  0  0  0  0  0  0  0  0  0  0  0
  142.0700   73.9640  220.8380 C   0  0  0  0  0  0  0  0  0  0  0  0
  141.0380   74.7110  221.2720 N   0  0  0  0  0  0  0  0  0  0  0  0
  140.9600   76.0380  221.0680 C   0  0  0  0  0  0  0  0  0  0  0  0
  139.7820   76.7610  221.5880 C   0  0  0  0  0  0  0  0  0  0  0  0
  139.8620   77.4350  222.7200 C   0  0  0  0  0  0  0  0  0  0  0  0
  140.5600   78.6920  222.8740 C   0  0  0  0  0  0  0  0  0  0  0  0
  141.7340   78.8110  223.5720 C   0  0  0  0  0  0  0  0  0  0  0  0
  142.3970   80.0370  223.7100 C   0  0  0  0  0  0  0  0  0  0  0  0
  141.8300   81.1650  223.1110 C   0  0  0  0  0  0  0  0  0  0  0  0
  140.6500   81.0700  222.4030 C   0  0  0  0  0  0  0  0  0  0  0  0
  140.1390   82.2580  221.8260 N   0  0  0  0  0  0  0  0  0  0  0  0
  141.0720   83.1650  221.1880 C   0  0  0  0  0  0  0  0  0  0  0  0
  140.4260   84.4340  220.7270 C   0  0  0  0  0  0  0  0  0  0  0  0
  139.1420   84.2130  219.9860 C   0  0  0  0  0  0  0  0  0  0  0  0
  138.4000   82.9780  220.3690 C   0  0  0  0  0  0  0  0  0  0  0  0
  138.7430   82.6340  221.8250 C   0  0  0  0  0  0  0  0  0  0  0  0
  140.0470   79.8370  222.3030 C   0  0  0  0  0  0  0  0  0  0  0  0
  141.9220   76.7310  220.4040 N   0  0  0  0  0  0  0  0  0  0  0  0
  141.8410   78.1360  220.1760 C   0  0  0  0  0  0  0  0  0  0  0  0
  140.9360   78.5870  219.0880 C   0  0  0  0  0  0  0  0  0  0  0  0
  141.2150   77.8470  217.7750 C   0  0  0  0  0  0  0  0  0  0  0  0
  142.3570   78.4620  217.0310 C   0  0  0  0  0  0  0  0  0  0  0  0
  142.8990   79.5640  217.8030 N   0  0  0  0  0  0  0  0  0  0  0  0
  141.9460   80.6180  218.0330 C   0  0  0  0  0  0  0  0  0  0  0  0
  140.8210   80.0560  218.8740 C   0  0  0  0  0  0  0  0  0  0  0  0
  144.9542   74.4033  219.1533 H   0  0  0  0  0  0  0  0  0  0  0  0
  143.2608   70.7898  220.7660 H   0  0  0  0  0  0  0  0  0  0  0  0
  141.3189   72.0956  221.6027 H   0  0  0  0  0  0  0  0  0  0  0  0
  138.8344   76.7377  221.0299 H   0  0  0  0  0  0  0  0  0  0  0  0
  139.3645   77.0123  223.6053 H   0  0  0  0  0  0  0  0  0  0  0  0
  142.1691   77.9149  224.0386 H   0  0  0  0  0  0  0  0  0  0  0  0
  143.3383   80.1099  224.2745 H   0  0  0  0  0  0  0  0  0  0  0  0
  142.3305   82.1400  223.2051 H   0  0  0  0  0  0  0  0  0  0  0  0
  141.8654   83.4160  221.9074 H   0  0  0  0  0  0  0  0  0  0  0  0
  141.4725   82.6559  220.2989 H   0  0  0  0  0  0  0  0  0  0  0  0
  140.2172   85.0590  221.6078 H   0  0  0  0  0  0  0  0  0  0  0  0
  141.1244   84.9191  220.0292 H   0  0  0  0  0  0  0  0  0  0  0  0
  138.4869   85.0767  220.1726 H   0  0  0  0  0  0  0  0  0  0  0  0
  139.4141   84.0931  218.9269 H   0  0  0  0  0  0  0  0  0  0  0  0
  137.3179   83.1510  220.2739 H   0  0  0  0  0  0  0  0  0  0  0  0
  138.6866   82.1466  219.7083 H   0  0  0  0  0  0  0  0  0  0  0  0
  138.5820   83.5084  222.4727 H   0  0  0  0  0  0  0  0  0  0  0  0
  138.1065   81.8231  222.2087 H   0  0  0  0  0  0  0  0  0  0  0  0
  139.1064   79.7612  221.7378 H   0  0  0  0  0  0  0  0  0  0  0  0
  141.4983   78.6054  221.1099 H   0  0  0  0  0  0  0  0  0  0  0  0
  142.8496   78.4338  219.8533 H   0  0  0  0  0  0  0  0  0  0  0  0
  139.9398   78.3077  219.4617 H   0  0  0  0  0  0  0  0  0  0  0  0
  141.4588   76.7983  218.0006 H   0  0  0  0  0  0  0  0  0  0  0  0
  140.3164   77.9133  217.1440 H   0  0  0  0  0  0  0  0  0  0  0  0
  143.1400   77.7062  216.8710 H   0  0  0  0  0  0  0  0  0  0  0  0
  142.0031   78.8345  216.0584 H   0  0  0  0  0  0  0  0  0  0  0  0
  143.8290   79.8620  217.4910 H   0  0  0  0  0  0  0  0  0  0  0  0
  142.4305   81.4497  218.5655 H   0  0  0  0  0  0  0  0  0  0  0  0
  141.5559   80.9958  217.0764 H   0  0  0  0  0  0  0  0  0  0  0  0
  140.8321   80.5554  219.8540 H   0  0  0  0  0  0  0  0  0  0  0  0
  139.8811   80.2382  218.3324 H   0  0  0  0  0  0  0  0  0  0  0  0
  1  2  2  0
  2  3  1  0
  3  4  2  0
  4  5  1  0
  5  6  1  0
  5  7  2  0
  7  8  1  0
  8  9  2  0
  9 10  1  0
 10 11  2  0
 11 12  1  0
 12 13  2  0
 13 14  1  0
 14 15  2  0
 15 16  1  0
 16 17  2  0
 17 18  1  0
 18 19  1  0
 19 20  1  0
 20 21  1  0
 21 22  1  0
 22 23  1  0
 23 24  1  0
 18 25  2  0
 11 26  1  0
 26 27  1  0
 27 28  1  0
 28 29  1  0
 29 30  1  0
 30 31  1  0
 31 32  1  0
 32 33  1  0
 26  2  1  0
 33 28  1  0
  9  3  1  0
 25 14  1  0
 24 19  1  0
  4 34  1  0
  7 35  1  0
  8 36  1  0
 12 37  1  0
 13 38  1  0
 15 39  1  0
 16 40  1  0
 17 41  1  0
 20 42  1  0
 20 43  1  0
 21 44  1  0
 21 45  1  0
 22 46  1  0
 22 47  1  0
 23 48  1  0
 23 49  1  0
 24 50  1  0
 24 51  1  0
 25 52  1  0
 27 53  1  0
 27 54  1  0
 28 55  1  0
 29 56  1  0
 29 57  1  0
 30 58  1  0
 30 59  1  0
 31 60  1  0
 32 61  1  0
 32 62  1  0
 33 63  1  0
 33 64  1  0
M  END
>  <smiles>  (42) 
O=c1c2cc(Cl)ccc2nc(/C=C/c2cccc(N3CCCCC3)c2)n1CC1CCNCC1

>  <score_type>  (42) 
oracle

>  <origin>  (42) 
autodockgpu

>  <m_score__min__energy>  (42) 
-9.8300000000000001

>  <m_primary>  (42) 
energy

>  <rmsd>  (42) 
6.449429619562578

>  <m_score__min__rmsd>  (42) 
6.449429619562578

>  <meeko>  (42) 
{"free_energy": -7.76, "intermolecular_energy": -9.55, "internal_energy": -2.48, "cluster_size": 3, "cluster_id": 5, "rank_in_cluster": 2}

>  <energy>  (42) 
-8.26

>  <cluster_rmsd>  (42) 
1.08

>  <cluster>  (42) 
3

$$$$

     RDKit          3D

 64 68  0  0  0  0  0  0  0  0999 V2000
  143.0020   76.7380  218.9570 O   0  0  0  0  0  0  0  0  0  0  0  0
  142.3500   76.2560  219.9390 C   0  0  0  0  0  0  0  0  0  0  0  0
  141.7420   77.1850  220.7600 C   0  0  0  0  0  0  0  0  0  0  0  0
  141.8310   78.5440  220.5310 C   0  0  0  0  0  0  0  0  0  0  0  0
  141.2080   79.4550  221.3750 C   0  0  0  0  0  0  0  0  0  0  0  0
  141.3020   81.1850  221.1110 Cl  0  0  0  0  0  0  0  0  0  0  0  0
  140.4830   79.0130  222.4640 C   0  0  0  0  0  0  0  0  0  0  0  0
  140.3860   77.6600  222.7030 C   0  0  0  0  0  0  0  0  0  0  0  0
  141.0110   76.7630  221.8560 C   0  0  0  0  0  0  0  0  0  0  0  0
  140.9430   75.4330  222.0510 N   0  0  0  0  0  0  0  0  0  0  0  0
  141.5420   74.5440  221.2400 C   0  0  0  0  0  0  0  0  0  0  0  0
  141.4030   73.1070  221.5480 C   0  0  0  0  0  0  0  0  0  0  0  0
  140.2560   72.4890  221.3310 C   0  0  0  0  0  0  0  0  0  0  0  0
  139.8180   71.3080  222.0410 C   0  0  0  0  0  0  0  0  0  0  0  0
  139.2200   70.2440  221.4160 C   0  0  0  0  0  0  0  0  0  0  0  0
  138.8020   69.1070  222.1190 C   0  0  0  0  0  0  0  0  0  0  0  0
  139.0080   69.0730  223.5010 C   0  0  0  0  0  0  0  0  0  0  0  0
  139.6070   70.1310  224.1510 C   0  0  0  0  0  0  0  0  0  0  0  0
  139.7800   70.0220  225.5530 N   0  0  0  0  0  0  0  0  0  0  0  0
  139.7770   68.6970  226.1410 C   0  0  0  0  0  0  0  0  0  0  0  0
  139.8460   68.7260  227.6360 C   0  0  0  0  0  0  0  0  0  0  0  0
  140.8930   69.6580  228.1660 C   0  0  0  0  0  0  0  0  0  0  0  0
  141.2050   70.8190  227.2840 C   0  0  0  0  0  0  0  0  0  0  0  0
  139.9610   71.1440  226.4460 C   0  0  0  0  0  0  0  0  0  0  0  0
  139.9960   71.2200  223.4050 C   0  0  0  0  0  0  0  0  0  0  0  0
  142.2680   74.9210  220.1550 N   0  0  0  0  0  0  0  0  0  0  0  0
  142.9150   73.9850  219.2970 C   0  0  0  0  0  0  0  0  0  0  0  0
  144.3960   74.0620  219.2150 C   0  0  0  0  0  0  0  0  0  0  0  0
  144.9840   72.8800  218.4360 C   0  0  0  0  0  0  0  0  0  0  0  0
  145.1310   71.6720  219.3030 C   0  0  0  0  0  0  0  0  0  0  0  0
  144.6270   71.9650  220.6310 N   0  0  0  0  0  0  0  0  0  0  0  0
  145.3410   73.0290  221.2870 C   0  0  0  0  0  0  0  0  0  0  0  0
  145.1290   74.2960  220.4890 C   0  0  0  0  0  0  0  0  0  0  0  0
  142.4041   78.9110  219.6668 H   0  0  0  0  0  0  0  0  0  0  0  0
  139.9887   79.7330  223.1328 H   0  0  0  0  0  0  0  0  0  0  0  0
  139.8120   77.2933  223.5667 H   0  0  0  0  0  0  0  0  0  0  0  0
  142.2572   72.5492  221.9595 H   0  0  0  0  0  0  0  0  0  0  0  0
  139.5895   72.9002  220.5586 H   0  0  0  0  0  0  0  0  0  0  0  0
  139.0636   70.2847  220.3279 H   0  0  0  0  0  0  0  0  0  0  0  0
  138.3247   68.2640  221.5978 H   0  0  0  0  0  0  0  0  0  0  0  0
  138.6885   68.1918  224.0767 H   0  0  0  0  0  0  0  0  0  0  0  0
  138.8524   68.1817  225.8417 H   0  0  0  0  0  0  0  0  0  0  0  0
  140.6726   68.1715  225.7781 H   0  0  0  0  0  0  0  0  0  0  0  0
  138.8672   69.0444  228.0240 H   0  0  0  0  0  0  0  0  0  0  0  0
  140.1155   67.7126  227.9681 H   0  0  0  0  0  0  0  0  0  0  0  0
  140.5449   70.0480  229.1338 H   0  0  0  0  0  0  0  0  0  0  0  0
  141.8197   69.0701  228.2412 H   0  0  0  0  0  0  0  0  0  0  0  0
  141.4755   71.6898  227.8992 H   0  0  0  0  0  0  0  0  0  0  0  0
  142.0499   70.5736  226.6237 H   0  0  0  0  0  0  0  0  0  0  0  0
  139.0816   71.2610  227.0963 H   0  0  0  0  0  0  0  0  0  0  0  0
  140.0829   72.0859  225.8911 H   0  0  0  0  0  0  0  0  0  0  0  0
  140.4738   72.0640  223.9241 H   0  0  0  0  0  0  0  0  0  0  0  0
  142.6535   72.9760  219.6484 H   0  0  0  0  0  0  0  0  0  0  0  0
  142.5584   74.2287  218.2853 H   0  0  0  0  0  0  0  0  0  0  0  0
  144.5651   74.9918  218.6521 H   0  0  0  0  0  0  0  0  0  0  0  0
  144.3164   72.6380  217.5959 H   0  0  0  0  0  0  0  0  0  0  0  0
  145.9816   73.1678  218.0729 H   0  0  0  0  0  0  0  0  0  0  0  0
  144.5593   70.8381  218.8697 H   0  0  0  0  0  0  0  0  0  0  0  0
  146.1934   71.3943  219.3673 H   0  0  0  0  0  0  0  0  0  0  0  0
  144.4540   71.1280  221.1960 H   0  0  0  0  0  0  0  0  0  0  0  0
  144.9558   73.1625  222.3087 H   0  0  0  0  0  0  0  0  0  0  0  0
  146.4130   72.7898  221.3463 H   0  0  0  0  0  0  0  0  0  0  0  0
  144.5513   75.0040  221.1014 H   0  0  0  0  0  0  0  0  0  0  0  0
  146.1216   74.6935  220.2306 H   0  0  0  0  0  0  0  0  0  0  0  0
  1  2  2  0
  2  3  1  0
  3  4  2  0
  4  5  1  0
  5  6  1  0
  5  7  2  0
  7  8  1  0
  8  9  2  0
  9 10  1  0
 10 11  2  0
 11 12  1  0
 12 13  2  0
 13 14  1  0
 14 15  2  0
 15 16  1  0
 16 17  2  0
 17 18  1  0
 18 19  1  0
 19 20  1  0
 20 21  1  0
 21 22  1  0
 22 23  1  0
 23 24  1  0
 18 25  2  0
 11 26  1  0
 26 27  1  0
 27 28  1  0
 28 29  1  0
 29 30  1  0
 30 31  1  0
 31 32  1  0
 32 33  1  0
 26  2  1  0
 33 28  1  0
  9  3  1  0
 25 14  1  0
 24 19  1  0
  4 34  1  0
  7 35  1  0
  8 36  1  0
 12 37  1  0
 13 38  1  0
 15 39  1  0
 16 40  1  0
 17 41  1  0
 20 42  1  0
 20 43  1  0
 21 44  1  0
 21 45  1  0
 22 46  1  0
 22 47  1  0
 23 48  1  0
 23 49  1  0
 24 50  1  0
 24 51  1  0
 25 52  1  0
 27 53  1  0
 27 54  1  0
 28 55  1  0
 29 56  1  0
 29 57  1  0
 30 58  1  0
 30 59  1  0
 31 60  1  0
 32 61  1  0
 32 62  1  0
 33 63  1  0
 33 64  1  0
M  END
>  <smiles>  (43) 
O=c1c2cc(Cl)ccc2nc(/C=C/c2cccc(N3CCCCC3)c2)n1CC1CCNCC1

>  <score_type>  (43) 
oracle

>  <origin>  (43) 
autodockgpu

>  <m_score__min__energy>  (43) 
-9.8300000000000001

>  <m_primary>  (43) 
energy

>  <rmsd>  (43) 
11.029539558200243

>  <m_score__min__rmsd>  (43) 
11.029539558200243

>  <meeko>  (43) 
{"free_energy": -8.77, "intermolecular_energy": -10.55, "internal_energy": -1.63, "cluster_size": 14, "cluster_id": 1, "rank_in_cluster": 11}

>  <energy>  (43) 
-8.23

>  <cluster_rmsd>  (43) 
0.5

>  <cluster>  (43) 
3

$$$$

     RDKit          3D

 64 68  0  0  0  0  0  0  0  0999 V2000
  143.0270   77.0200  219.2540 O   0  0  0  0  0  0  0  0  0  0  0  0
  142.1990   76.5120  220.0770 C   0  0  0  0  0  0  0  0  0  0  0  0
  141.5920   77.4070  220.9350 C   0  0  0  0  0  0  0  0  0  0  0  0
  141.8630   78.7610  220.9050 C   0  0  0  0  0  0  0  0  0  0  0  0
  141.2370   79.6370  221.7820 C   0  0  0  0  0  0  0  0  0  0  0  0
  141.5590   81.3610  221.7670 Cl  0  0  0  0  0  0  0  0  0  0  0  0
  140.3260   79.1660  222.7060 C   0  0  0  0  0  0  0  0  0  0  0  0
  140.0470   77.8170  222.7470 C   0  0  0  0  0  0  0  0  0  0  0  0
  140.6770   76.9550  221.8690 C   0  0  0  0  0  0  0  0  0  0  0  0
  140.4350   75.6310  221.8740 N   0  0  0  0  0  0  0  0  0  0  0  0
  141.0350   74.7750  221.0290 C   0  0  0  0  0  0  0  0  0  0  0  0
  140.6950   73.3410  221.1210 C   0  0  0  0  0  0  0  0  0  0  0  0
  141.0620   72.6380  222.1760 C   0  0  0  0  0  0  0  0  0  0  0  0
  140.1930   71.7350  222.8970 C   0  0  0  0  0  0  0  0  0  0  0  0
  138.9360   71.4050  222.4600 C   0  0  0  0  0  0  0  0  0  0  0  0
  138.1070   70.5280  223.1710 C   0  0  0  0  0  0  0  0  0  0  0  0
  138.5920   69.9820  224.3620 C   0  0  0  0  0  0  0  0  0  0  0  0
  139.8530   70.2980  224.8210 C   0  0  0  0  0  0  0  0  0  0  0  0
  140.2730   69.7030  226.0360 N   0  0  0  0  0  0  0  0  0  0  0  0
  140.5360   70.5720  227.1670 C   0  0  0  0  0  0  0  0  0  0  0  0
  141.0870   69.8360  228.3480 C   0  0  0  0  0  0  0  0  0  0  0  0
  140.3370   68.5790  228.6690 C   0  0  0  0  0  0  0  0  0  0  0  0
  139.6740   67.9280  227.5030 C   0  0  0  0  0  0  0  0  0  0  0  0
  140.4590   68.2840  226.2340 C   0  0  0  0  0  0  0  0  0  0  0  0
  140.6200   71.1650  224.0770 C   0  0  0  0  0  0  0  0  0  0  0  0
  141.9390   75.1830  220.0990 N   0  0  0  0  0  0  0  0  0  0  0  0
  142.5880   74.2800  219.2070 C   0  0  0  0  0  0  0  0  0  0  0  0
  144.0700   74.3500  219.1430 C   0  0  0  0  0  0  0  0  0  0  0  0
  144.6570   73.2030  218.3120 C   0  0  0  0  0  0  0  0  0  0  0  0
  144.7860   71.9520  219.1190 C   0  0  0  0  0  0  0  0  0  0  0  0
  144.2710   72.1830  220.4550 N   0  0  0  0  0  0  0  0  0  0  0  0
  144.9870   73.2070  221.1700 C   0  0  0  0  0  0  0  0  0  0  0  0
  144.7920   74.5140  220.4340 C   0  0  0  0  0  0  0  0  0  0  0  0
  142.5866   79.1518  220.1745 H   0  0  0  0  0  0  0  0  0  0  0  0
  139.8289   79.8588  223.4009 H   0  0  0  0  0  0  0  0  0  0  0  0
  139.3235   77.4265  223.4778 H   0  0  0  0  0  0  0  0  0  0  0  0
  140.1341   72.8572  220.3078 H   0  0  0  0  0  0  0  0  0  0  0  0
  142.0977   72.7463  222.5302 H   0  0  0  0  0  0  0  0  0  0  0  0
  138.5668   71.8430  221.5210 H   0  0  0  0  0  0  0  0  0  0  0  0
  137.1019   70.2761  222.8018 H   0  0  0  0  0  0  0  0  0  0  0  0
  137.9602   69.2918  224.9404 H   0  0  0  0  0  0  0  0  0  0  0  0
  141.2630   71.3382  226.8599 H   0  0  0  0  0  0  0  0  0  0  0  0
  139.5777   71.0177  227.4721 H   0  0  0  0  0  0  0  0  0  0  0  0
  142.1342   69.5731  228.1374 H   0  0  0  0  0  0  0  0  0  0  0  0
  140.9924   70.5018  229.2185 H   0  0  0  0  0  0  0  0  0  0  0  0
  141.0463   67.8596  229.1041 H   0  0  0  0  0  0  0  0  0  0  0  0
  139.5313   68.8685  229.3597 H   0  0  0  0  0  0  0  0  0  0  0  0
  139.6680   66.8368  227.6415 H   0  0  0  0  0  0  0  0  0  0  0  0
  138.6359   68.2810  227.4149 H   0  0  0  0  0  0  0  0  0  0  0  0
  141.5262   68.0533  226.3674 H   0  0  0  0  0  0  0  0  0  0  0  0
  140.1065   67.7064  225.3667 H   0  0  0  0  0  0  0  0  0  0  0  0
  141.6264   71.4163  224.4431 H   0  0  0  0  0  0  0  0  0  0  0  0
  142.3161   73.2586  219.5116 H   0  0  0  0  0  0  0  0  0  0  0  0
  142.2430   74.5695  218.2035 H   0  0  0  0  0  0  0  0  0  0  0  0
  144.2513   75.3055  218.6290 H   0  0  0  0  0  0  0  0  0  0  0  0
  143.9962   73.0085  217.4543 H   0  0  0  0  0  0  0  0  0  0  0  0
  145.6606   73.5004  217.9738 H   0  0  0  0  0  0  0  0  0  0  0  0
  144.2122   71.1454  218.6393 H   0  0  0  0  0  0  0  0  0  0  0  0
  145.8455   71.6625  219.1795 H   0  0  0  0  0  0  0  0  0  0  0  0
  144.0860   71.3200  220.9760 H   0  0  0  0  0  0  0  0  0  0  0  0
  144.5932   73.2925  222.1935 H   0  0  0  0  0  0  0  0  0  0  0  0
  146.0566   72.9565  221.2273 H   0  0  0  0  0  0  0  0  0  0  0  0
  144.2135   75.1951  221.0755 H   0  0  0  0  0  0  0  0  0  0  0  0
  145.7901   74.9158  220.2051 H   0  0  0  0  0  0  0  0  0  0  0  0
  1  2  2  0
  2  3  1  0
  3  4  2  0
  4  5  1  0
  5  6  1  0
  5  7  2  0
  7  8  1  0
  8  9  2  0
  9 10  1  0
 10 11  2  0
 11 12  1  0
 12 13  2  0
 13 14  1  0
 14 15  2  0
 15 16  1  0
 16 17  2  0
 17 18  1  0
 18 19  1  0
 19 20  1  0
 20 21  1  0
 21 22  1  0
 22 23  1  0
 23 24  1  0
 18 25  2  0
 11 26  1  0
 26 27  1  0
 27 28  1  0
 28 29  1  0
 29 30  1  0
 30 31  1  0
 31 32  1  0
 32 33  1  0
 26  2  1  0
 33 28  1  0
  9  3  1  0
 25 14  1  0
 24 19  1  0
  4 34  1  0
  7 35  1  0
  8 36  1  0
 12 37  1  0
 13 38  1  0
 15 39  1  0
 16 40  1  0
 17 41  1  0
 20 42  1  0
 20 43  1  0
 21 44  1  0
 21 45  1  0
 22 46  1  0
 22 47  1  0
 23 48  1  0
 23 49  1  0
 24 50  1  0
 24 51  1  0
 25 52  1  0
 27 53  1  0
 27 54  1  0
 28 55  1  0
 29 56  1  0
 29 57  1  0
 30 58  1  0
 30 59  1  0
 31 60  1  0
 32 61  1  0
 32 62  1  0
 33 63  1  0
 33 64  1  0
M  END
>  <smiles>  (44) 
O=c1c2cc(Cl)ccc2nc(/C=C/c2cccc(N3CCCCC3)c2)n1CC1CCNCC1

>  <score_type>  (44) 
oracle

>  <origin>  (44) 
autodockgpu

>  <m_score__min__energy>  (44) 
-9.8300000000000001

>  <m_primary>  (44) 
energy

>  <rmsd>  (44) 
11.318438163380595

>  <m_score__min__rmsd>  (44) 
11.318438163380595

>  <meeko>  (44) 
{"free_energy": -9.1, "intermolecular_energy": -10.89, "internal_energy": -1.63, "cluster_size": 14, "cluster_id": 1, "rank_in_cluster": 7}

>  <energy>  (44) 
-8.08

>  <cluster_rmsd>  (44) 
0.0

>  <cluster>  (44) 
4

$$$$

     RDKit          3D

 64 68  0  0  0  0  0  0  0  0999 V2000
  139.0560   68.6370  223.6840 O   0  0  0  0  0  0  0  0  0  0  0  0
  139.5590   69.8020  223.7820 C   0  0  0  0  0  0  0  0  0  0  0  0
  140.0480   70.1340  225.0300 C   0  0  0  0  0  0  0  0  0  0  0  0
  139.9970   69.2610  226.1000 C   0  0  0  0  0  0  0  0  0  0  0  0
  140.4970   69.6240  227.3440 C   0  0  0  0  0  0  0  0  0  0  0  0
  140.4480   68.5380  228.7200 Cl  0  0  0  0  0  0  0  0  0  0  0  0
  141.0580   70.8700  227.5340 C   0  0  0  0  0  0  0  0  0  0  0  0
  141.1150   71.7500  226.4740 C   0  0  0  0  0  0  0  0  0  0  0  0
  140.6140   71.3790  225.2410 C   0  0  0  0  0  0  0  0  0  0  0  0
  140.6490   72.2050  224.1790 N   0  0  0  0  0  0  0  0  0  0  0  0
  140.1680   71.8640  222.9710 C   0  0  0  0  0  0  0  0  0  0  0  0
  140.2570   72.8490  221.8750 C   0  0  0  0  0  0  0  0  0  0  0  0
  139.1660   73.4350  221.4170 C   0  0  0  0  0  0  0  0  0  0  0  0
  138.6210   74.6670  221.9410 C   0  0  0  0  0  0  0  0  0  0  0  0
  137.3090   74.7990  222.3160 C   0  0  0  0  0  0  0  0  0  0  0  0
  136.7970   76.0010  222.8220 C   0  0  0  0  0  0  0  0  0  0  0  0
  137.6650   77.0890  222.9410 C   0  0  0  0  0  0  0  0  0  0  0  0
  138.9890   76.9810  222.5700 C   0  0  0  0  0  0  0  0  0  0  0  0
  139.8050   78.1290  222.7200 N   0  0  0  0  0  0  0  0  0  0  0  0
  139.2210   79.3070  223.3290 C   0  0  0  0  0  0  0  0  0  0  0  0
  140.1460   80.4850  223.3180 C   0  0  0  0  0  0  0  0  0  0  0  0
  141.5360   80.1540  223.7690 C   0  0  0  0  0  0  0  0  0  0  0  0
  141.9590   78.7450  223.5200 C   0  0  0  0  0  0  0  0  0  0  0  0
  141.1870   78.2110  222.3070 C   0  0  0  0  0  0  0  0  0  0  0  0
  139.4320   75.7730  222.0800 C   0  0  0  0  0  0  0  0  0  0  0  0
  139.6050   70.6510  222.7270 N   0  0  0  0  0  0  0  0  0  0  0  0
  139.0840   70.2860  221.4510 C   0  0  0  0  0  0  0  0  0  0  0  0
  137.6840   70.6870  221.1600 C   0  0  0  0  0  0  0  0  0  0  0  0
  136.9950   71.2810  222.3940 C   0  0  0  0  0  0  0  0  0  0  0  0
  136.4640   70.2120  223.2930 C   0  0  0  0  0  0  0  0  0  0  0  0
  136.7990   68.9100  222.7470 N   0  0  0  0  0  0  0  0  0  0  0  0
  136.2260   68.6750  221.4480 C   0  0  0  0  0  0  0  0  0  0  0  0
  136.8220   69.6780  220.4860 C   0  0  0  0  0  0  0  0  0  0  0  0
  139.5537   68.2634  225.9645 H   0  0  0  0  0  0  0  0  0  0  0  0
  141.4548   71.1578  228.5187 H   0  0  0  0  0  0  0  0  0  0  0  0
  141.5592   72.7471  226.6100 H   0  0  0  0  0  0  0  0  0  0  0  0
  141.2360   73.0957  221.4382 H   0  0  0  0  0  0  0  0  0  0  0  0
  138.6368   72.9538  220.5813 H   0  0  0  0  0  0  0  0  0  0  0  0
  136.6370   73.9338  222.2165 H   0  0  0  0  0  0  0  0  0  0  0  0
  135.7408   76.0856  223.1174 H   0  0  0  0  0  0  0  0  0  0  0  0
  137.2878   78.0440  223.3356 H   0  0  0  0  0  0  0  0  0  0  0  0
  138.3076   79.5722  222.7764 H   0  0  0  0  0  0  0  0  0  0  0  0
  139.0060   79.0645  224.3802 H   0  0  0  0  0  0  0  0  0  0  0  0
  140.1967   80.8790  222.2922 H   0  0  0  0  0  0  0  0  0  0  0  0
  139.7414   81.2224  224.0269 H   0  0  0  0  0  0  0  0  0  0  0  0
  142.2343   80.8189  223.2396 H   0  0  0  0  0  0  0  0  0  0  0  0
  141.5467   80.2908  224.8604 H   0  0  0  0  0  0  0  0  0  0  0  0
  143.0393   78.7128  223.3155 H   0  0  0  0  0  0  0  0  0  0  0  0
  141.7458   78.1262  224.4041 H   0  0  0  0  0  0  0  0  0  0  0  0
  141.2912   78.8985  221.4546 H   0  0  0  0  0  0  0  0  0  0  0  0
  141.5702   77.2317  221.9844 H   0  0  0  0  0  0  0  0  0  0  0  0
  140.4879   75.6859  221.7841 H   0  0  0  0  0  0  0  0  0  0  0  0
  139.7274   70.7441  220.6854 H   0  0  0  0  0  0  0  0  0  0  0  0
  139.0751   69.1860  221.4475 H   0  0  0  0  0  0  0  0  0  0  0  0
  137.8038   71.4688  220.3955 H   0  0  0  0  0  0  0  0  0  0  0  0
  137.7229   71.8883  222.9520 H   0  0  0  0  0  0  0  0  0  0  0  0
  136.1496   71.8971  222.0539 H   0  0  0  0  0  0  0  0  0  0  0  0
  136.9123   70.3170  224.2920 H   0  0  0  0  0  0  0  0  0  0  0  0
  135.3708   70.3071  223.3697 H   0  0  0  0  0  0  0  0  0  0  0  0
  136.7020   68.1470  223.4240 H   0  0  0  0  0  0  0  0  0  0  0  0
  136.4615   67.6533  221.1154 H   0  0  0  0  0  0  0  0  0  0  0  0
  135.1323   68.7861  221.4870 H   0  0  0  0  0  0  0  0  0  0  0  0
  137.4292   69.1362  219.7459 H   0  0  0  0  0  0  0  0  0  0  0  0
  135.9880   70.2189  220.0150 H   0  0  0  0  0  0  0  0  0  0  0  0
  1  2  2  0
  2  3  1  0
  3  4  2  0
  4  5  1  0
  5  6  1  0
  5  7  2  0
  7  8  1  0
  8  9  2  0
  9 10  1  0
 10 11  2  0
 11 12  1  0
 12 13  2  0
 13 14  1  0
 14 15  2  0
 15 16  1  0
 16 17  2  0
 17 18  1  0
 18 19  1  0
 19 20  1  0
 20 21  1  0
 21 22  1  0
 22 23  1  0
 23 24  1  0
 18 25  2  0
 11 26  1  0
 26 27  1  0
 27 28  1  0
 28 29  1  0
 29 30  1  0
 30 31  1  0
 31 32  1  0
 32 33  1  0
 26  2  1  0
 33 28  1  0
  9  3  1  0
 25 14  1  0
 24 19  1  0
  4 34  1  0
  7 35  1  0
  8 36  1  0
 12 37  1  0
 13 38  1  0
 15 39  1  0
 16 40  1  0
 17 41  1  0
 20 42  1  0
 20 43  1  0
 21 44  1  0
 21 45  1  0
 22 46  1  0
 22 47  1  0
 23 48  1  0
 23 49  1  0
 24 50  1  0
 24 51  1  0
 25 52  1  0
 27 53  1  0
 27 54  1  0
 28 55  1  0
 29 56  1  0
 29 57  1  0
 30 58  1  0
 30 59  1  0
 31 60  1  0
 32 61  1  0
 32 62  1  0
 33 63  1  0
 33 64  1  0
M  END
>  <smiles>  (45) 
O=c1c2cc(Cl)ccc2nc(/C=C/c2cccc(N3CCCCC3)c2)n1CC1CCNCC1

>  <score_type>  (45) 
oracle

>  <origin>  (45) 
autodockgpu

>  <m_score__min__energy>  (45) 
-9.8300000000000001

>  <m_primary>  (45) 
energy

>  <rmsd>  (45) 
6.688439844385739

>  <m_score__min__rmsd>  (45) 
6.688439844385739

>  <meeko>  (45) 
{"free_energy": -7.96, "intermolecular_energy": -9.75, "internal_energy": -1.98, "cluster_size": 26, "cluster_id": 2, "rank_in_cluster": 26}

>  <energy>  (45) 
-7.8

>  <cluster_rmsd>  (45) 
0.0

>  <cluster>  (45) 
5

$$$$

     RDKit          3D

 64 68  0  0  0  0  0  0  0  0999 V2000
  138.8520   68.2560  224.1960 O   0  0  0  0  0  0  0  0  0  0  0  0
  139.3190   69.4390  224.2620 C   0  0  0  0  0  0  0  0  0  0  0  0
  139.9200   69.7740  225.4590 C   0  0  0  0  0  0  0  0  0  0  0  0
  140.0100   68.8880  226.5150 C   0  0  0  0  0  0  0  0  0  0  0  0
  140.6200   69.2550  227.7070 C   0  0  0  0  0  0  0  0  0  0  0  0
  140.7510   68.1520  229.0640 Cl  0  0  0  0  0  0  0  0  0  0  0  0
  141.1510   70.5200  227.8590 C   0  0  0  0  0  0  0  0  0  0  0  0
  141.0670   71.4140  226.8130 C   0  0  0  0  0  0  0  0  0  0  0  0
  140.4570   71.0380  225.6310 C   0  0  0  0  0  0  0  0  0  0  0  0
  140.3530   71.8770  224.5840 N   0  0  0  0  0  0  0  0  0  0  0  0
  139.7650   71.5320  223.4260 C   0  0  0  0  0  0  0  0  0  0  0  0
  139.7060   72.5320  222.3420 C   0  0  0  0  0  0  0  0  0  0  0  0
  140.7090   72.6510  221.4920 C   0  0  0  0  0  0  0  0  0  0  0  0
  141.2290   73.9120  221.0140 C   0  0  0  0  0  0  0  0  0  0  0  0
  142.0870   74.0070  219.9480 C   0  0  0  0  0  0  0  0  0  0  0  0
  142.5810   75.2380  219.4980 C   0  0  0  0  0  0  0  0  0  0  0  0
  142.1770   76.3960  220.1670 C   0  0  0  0  0  0  0  0  0  0  0  0
  141.3140   76.3260  221.2410 C   0  0  0  0  0  0  0  0  0  0  0  0
  140.9520   77.5430  221.8670 N   0  0  0  0  0  0  0  0  0  0  0  0
  139.6330   77.6400  222.4620 C   0  0  0  0  0  0  0  0  0  0  0  0
  139.3300   79.0100  222.9820 C   0  0  0  0  0  0  0  0  0  0  0  0
  140.4430   79.5990  223.7950 C   0  0  0  0  0  0  0  0  0  0  0  0
  141.8070   79.1150  223.4360 C   0  0  0  0  0  0  0  0  0  0  0  0
  141.8060   78.7050  221.9580 C   0  0  0  0  0  0  0  0  0  0  0  0
  140.8630   75.0870  221.6350 C   0  0  0  0  0  0  0  0  0  0  0  0
  139.2260   70.3010  223.2210 N   0  0  0  0  0  0  0  0  0  0  0  0
  138.5920   69.9310  221.9990 C   0  0  0  0  0  0  0  0  0  0  0  0
  137.1120   69.8050  222.0230 C   0  0  0  0  0  0  0  0  0  0  0  0
  136.4410   70.8220  221.0930 C   0  0  0  0  0  0  0  0  0  0  0  0
  136.3020   72.1580  221.7490 C   0  0  0  0  0  0  0  0  0  0  0  0
  136.8910   72.1090  223.0740 N   0  0  0  0  0  0  0  0  0  0  0  0
  136.2520   71.1560  223.9440 C   0  0  0  0  0  0  0  0  0  0  0  0
  136.4610   69.7760  223.3620 C   0  0  0  0  0  0  0  0  0  0  0  0
  139.5919   67.8760  226.4099 H   0  0  0  0  0  0  0  0  0  0  0  0
  141.6351   70.8111  228.8029 H   0  0  0  0  0  0  0  0  0  0  0  0
  141.4851   72.4259  226.9189 H   0  0  0  0  0  0  0  0  0  0  0  0
  138.8231   73.1804  222.2420 H   0  0  0  0  0  0  0  0  0  0  0  0
  141.1807   71.7285  221.1227 H   0  0  0  0  0  0  0  0  0  0  0  0
  142.3969   73.0873  219.4302 H   0  0  0  0  0  0  0  0  0  0  0  0
  143.2685   75.2915  218.6410 H   0  0  0  0  0  0  0  0  0  0  0  0
  142.5514   77.3751  219.8335 H   0  0  0  0  0  0  0  0  0  0  0  0
  138.8838   77.3799  221.6998 H   0  0  0  0  0  0  0  0  0  0  0  0
  139.6037   76.9478  223.3164 H   0  0  0  0  0  0  0  0  0  0  0  0
  139.1356   79.6726  222.1257 H   0  0  0  0  0  0  0  0  0  0  0  0
  138.4570   78.9194  223.6451 H   0  0  0  0  0  0  0  0  0  0  0  0
  140.4220   80.6908  223.6626 H   0  0  0  0  0  0  0  0  0  0  0  0
  140.2670   79.2828  224.8338 H   0  0  0  0  0  0  0  0  0  0  0  0
  142.5402   79.9190  223.5973 H   0  0  0  0  0  0  0  0  0  0  0  0
  142.0787   78.2545  224.0651 H   0  0  0  0  0  0  0  0  0  0  0  0
  141.4092   79.5205  221.3355 H   0  0  0  0  0  0  0  0  0  0  0  0
  142.8229   78.4864  221.6001 H   0  0  0  0  0  0  0  0  0  0  0  0
  140.1740   75.0313  222.4907 H   0  0  0  0  0  0  0  0  0  0  0  0
  138.8489   70.6918  221.2472 H   0  0  0  0  0  0  0  0  0  0  0  0
  138.9632   68.9195  221.7772 H   0  0  0  0  0  0  0  0  0  0  0  0
  136.9428   68.7887  221.6377 H   0  0  0  0  0  0  0  0  0  0  0  0
  137.0512   70.9320  220.1844 H   0  0  0  0  0  0  0  0  0  0  0  0
  135.4345   70.4525  220.8473 H   0  0  0  0  0  0  0  0  0  0  0  0
  136.8192   72.9185  221.1456 H   0  0  0  0  0  0  0  0  0  0  0  0
  135.2362   72.4177  221.8305 H   0  0  0  0  0  0  0  0  0  0  0  0
  137.0670   73.0340  223.4760 H   0  0  0  0  0  0  0  0  0  0  0  0
  136.6989   71.2091  224.9477 H   0  0  0  0  0  0  0  0  0  0  0  0
  135.1775   71.3761  224.0272 H   0  0  0  0  0  0  0  0  0  0  0  0
  137.0965   69.1978  224.0489 H   0  0  0  0  0  0  0  0  0  0  0  0
  135.4694   69.3163  223.2374 H   0  0  0  0  0  0  0  0  0  0  0  0
  1  2  2  0
  2  3  1  0
  3  4  2  0
  4  5  1  0
  5  6  1  0
  5  7  2  0
  7  8  1  0
  8  9  2  0
  9 10  1  0
 10 11  2  0
 11 12  1  0
 12 13  2  0
 13 14  1  0
 14 15  2  0
 15 16  1  0
 16 17  2  0
 17 18  1  0
 18 19  1  0
 19 20  1  0
 20 21  1  0
 21 22  1  0
 22 23  1  0
 23 24  1  0
 18 25  2  0
 11 26  1  0
 26 27  1  0
 27 28  1  0
 28 29  1  0
 29 30  1  0
 30 31  1  0
 31 32  1  0
 32 33  1  0
 26  2  1  0
 33 28  1  0
  9  3  1  0
 25 14  1  0
 24 19  1  0
  4 34  1  0
  7 35  1  0
  8 36  1  0
 12 37  1  0
 13 38  1  0
 15 39  1  0
 16 40  1  0
 17 41  1  0
 20 42  1  0
 20 43  1  0
 21 44  1  0
 21 45  1  0
 22 46  1  0
 22 47  1  0
 23 48  1  0
 23 49  1  0
 24 50  1  0
 24 51  1  0
 25 52  1  0
 27 53  1  0
 27 54  1  0
 28 55  1  0
 29 56  1  0
 29 57  1  0
 30 58  1  0
 30 59  1  0
 31 60  1  0
 32 61  1  0
 32 62  1  0
 33 63  1  0
 33 64  1  0
M  END
>  <smiles>  (46) 
O=c1c2cc(Cl)ccc2nc(/C=C/c2cccc(N3CCCCC3)c2)n1CC1CCNCC1

>  <score_type>  (46) 
oracle

>  <origin>  (46) 
autodockgpu

>  <m_score__min__energy>  (46) 
-9.8300000000000001

>  <m_primary>  (46) 
energy

>  <rmsd>  (46) 
6.790661755938803

>  <m_score__min__rmsd>  (46) 
6.790661755938803

>  <meeko>  (46) 
{"free_energy": -8.96, "intermolecular_energy": -10.75, "internal_energy": -1.63, "cluster_size": 26, "cluster_id": 2, "rank_in_cluster": 9}

>  <energy>  (46) 
-7.76

>  <cluster_rmsd>  (46) 
0.34

>  <cluster>  (46) 
5

$$$$

     RDKit          3D

 64 68  0  0  0  0  0  0  0  0999 V2000
  143.1920   76.1110  220.0830 O   0  0  0  0  0  0  0  0  0  0  0  0
  142.1180   75.4890  220.3650 C   0  0  0  0  0  0  0  0  0  0  0  0
  141.2070   76.1940  221.1270 C   0  0  0  0  0  0  0  0  0  0  0  0
  141.4440   77.4860  221.5550 C   0  0  0  0  0  0  0  0  0  0  0  0
  140.5080   78.1690  222.3210 C   0  0  0  0  0  0  0  0  0  0  0  0
  140.7780   79.8100  222.8770 Cl  0  0  0  0  0  0  0  0  0  0  0  0
  139.3180   77.5640  222.6710 C   0  0  0  0  0  0  0  0  0  0  0  0
  139.0700   76.2750  222.2510 C   0  0  0  0  0  0  0  0  0  0  0  0
  140.0080   75.6050  221.4890 C   0  0  0  0  0  0  0  0  0  0  0  0
  139.8080   74.3460  221.0570 N   0  0  0  0  0  0  0  0  0  0  0  0
  140.7070   73.6770  220.3150 C   0  0  0  0  0  0  0  0  0  0  0  0
  140.3850   72.2980  219.8950 C   0  0  0  0  0  0  0  0  0  0  0  0
  140.4420   71.3080  220.7660 C   0  0  0  0  0  0  0  0  0  0  0  0
  139.6920   71.2630  222.0010 C   0  0  0  0  0  0  0  0  0  0  0  0
  138.3500   71.5350  222.0670 C   0  0  0  0  0  0  0  0  0  0  0  0
  137.6390   71.4870  223.2730 C   0  0  0  0  0  0  0  0  0  0  0  0
  138.3360   71.1500  224.4360 C   0  0  0  0  0  0  0  0  0  0  0  0
  139.6850   70.8720  224.3950 C   0  0  0  0  0  0  0  0  0  0  0  0
  140.3210   70.5390  225.6160 N   0  0  0  0  0  0  0  0  0  0  0  0
  140.3360   71.5330  226.6720 C   0  0  0  0  0  0  0  0  0  0  0  0
  141.1400   71.1050  227.8600 C   0  0  0  0  0  0  0  0  0  0  0  0
  140.8450   69.7050  228.3050 C   0  0  0  0  0  0  0  0  0  0  0  0
  140.3790   68.7870  227.2260 C   0  0  0  0  0  0  0  0  0  0  0  0
  140.9580   69.2710  225.8900 C   0  0  0  0  0  0  0  0  0  0  0  0
  140.3280   70.9350  223.1800 C   0  0  0  0  0  0  0  0  0  0  0  0
  141.8950   74.2220  219.9410 N   0  0  0  0  0  0  0  0  0  0  0  0
  142.8570   73.5150  219.1620 C   0  0  0  0  0  0  0  0  0  0  0  0
  143.6270   72.4510  219.8550 C   0  0  0  0  0  0  0  0  0  0  0  0
  144.6210   73.0350  220.8650 C   0  0  0  0  0  0  0  0  0  0  0  0
  145.8880   73.4690  220.1990 C   0  0  0  0  0  0  0  0  0  0  0  0
  145.7830   73.2460  218.7700 N   0  0  0  0  0  0  0  0  0  0  0  0
  145.5930   71.8620  218.4240 C   0  0  0  0  0  0  0  0  0  0  0  0
  144.2660   71.4160  218.9960 C   0  0  0  0  0  0  0  0  0  0  0  0
  142.3883   77.9814  221.2850 H   0  0  0  0  0  0  0  0  0  0  0  0
  138.5764   78.1041  223.2779 H   0  0  0  0  0  0  0  0  0  0  0  0
  138.1259   75.7798  222.5222 H   0  0  0  0  0  0  0  0  0  0  0  0
  140.0967   72.0955  218.8529 H   0  0  0  0  0  0  0  0  0  0  0  0
  141.1046   70.4604  220.5368 H   0  0  0  0  0  0  0  0  0  0  0  0
  137.8143   71.7994  221.1433 H   0  0  0  0  0  0  0  0  0  0  0  0
  136.5620   71.7085  223.3035 H   0  0  0  0  0  0  0  0  0  0  0  0
  137.8013   71.1061  225.3963 H   0  0  0  0  0  0  0  0  0  0  0  0
  140.7665   72.4633  226.2729 H   0  0  0  0  0  0  0  0  0  0  0  0
  139.2983   71.6749  227.0081 H   0  0  0  0  0  0  0  0  0  0  0  0
  142.2070   71.1710  227.6010 H   0  0  0  0  0  0  0  0  0  0  0  0
  140.8719   71.7734  228.6915 H   0  0  0  0  0  0  0  0  0  0  0  0
  141.7640   69.2837  228.7385 H   0  0  0  0  0  0  0  0  0  0  0  0
  140.0170   69.7788  229.0254 H   0  0  0  0  0  0  0  0  0  0  0  0
  140.7278   67.7645  227.4327 H   0  0  0  0  0  0  0  0  0  0  0  0
  139.2799   68.7855  227.1816 H   0  0  0  0  0  0  0  0  0  0  0  0
  142.0475   69.3999  225.9699 H   0  0  0  0  0  0  0  0  0  0  0  0
  140.7738   68.5451  225.0843 H   0  0  0  0  0  0  0  0  0  0  0  0
  141.4047   70.7123  223.1474 H   0  0  0  0  0  0  0  0  0  0  0  0
  142.3250   73.0468  218.3207 H   0  0  0  0  0  0  0  0  0  0  0  0
  143.6037   74.2690  218.8723 H   0  0  0  0  0  0  0  0  0  0  0  0
  142.8475   71.8899  220.3911 H   0  0  0  0  0  0  0  0  0  0  0  0
  144.1606   73.9039  221.3581 H   0  0  0  0  0  0  0  0  0  0  0  0
  144.8670   72.2532  221.5987 H   0  0  0  0  0  0  0  0  0  0  0  0
  146.0560   74.5388  220.3919 H   0  0  0  0  0  0  0  0  0  0  0  0
  146.7313   72.8876  220.6002 H   0  0  0  0  0  0  0  0  0  0  0  0
  146.4910   73.7500  218.2260 H   0  0  0  0  0  0  0  0  0  0  0  0
  145.5852   71.7483  217.3299 H   0  0  0  0  0  0  0  0  0  0  0  0
  146.4106   71.2499  218.8325 H   0  0  0  0  0  0  0  0  0  0  0  0
  143.5860   71.1823  218.1636 H   0  0  0  0  0  0  0  0  0  0  0  0
  144.4582   70.5362  219.6276 H   0  0  0  0  0  0  0  0  0  0  0  0
  1  2  2  0
  2  3  1  0
  3  4  2  0
  4  5  1  0
  5  6  1  0
  5  7  2  0
  7  8  1  0
  8  9  2  0
  9 10  1  0
 10 11  2  0
 11 12  1  0
 12 13  2  0
 13 14  1  0
 14 15  2  0
 15 16  1  0
 16 17  2  0
 17 18  1  0
 18 19  1  0
 19 20  1  0
 20 21  1  0
 21 22  1  0
 22 23  1  0
 23 24  1  0
 18 25  2  0
 11 26  1  0
 26 27  1  0
 27 28  1  0
 28 29  1  0
 29 30  1  0
 30 31  1  0
 31 32  1  0
 32 33  1  0
 26  2  1  0
 33 28  1  0
  9  3  1  0
 25 14  1  0
 24 19  1  0
  4 34  1  0
  7 35  1  0
  8 36  1  0
 12 37  1  0
 13 38  1  0
 15 39  1  0
 16 40  1  0
 17 41  1  0
 20 42  1  0
 20 43  1  0
 21 44  1  0
 21 45  1  0
 22 46  1  0
 22 47  1  0
 23 48  1  0
 23 49  1  0
 24 50  1  0
 24 51  1  0
 25 52  1  0
 27 53  1  0
 27 54  1  0
 28 55  1  0
 29 56  1  0
 29 57  1  0
 30 58  1  0
 30 59  1  0
 31 60  1  0
 32 61  1  0
 32 62  1  0
 33 63  1  0
 33 64  1  0
M  END
>  <smiles>  (47) 
O=c1c2cc(Cl)ccc2nc(/C=C/c2cccc(N3CCCCC3)c2)n1CC1CCNCC1

>  <score_type>  (47) 
oracle

>  <origin>  (47) 
autodockgpu

>  <m_score__min__energy>  (47) 
-9.8300000000000001

>  <m_primary>  (47) 
energy

>  <rmsd>  (47) 
10.86965292527365

>  <m_score__min__rmsd>  (47) 
10.86965292527365

>  <meeko>  (47) 
{"free_energy": -8.67, "intermolecular_energy": -10.46, "internal_energy": -1.93, "cluster_size": 14, "cluster_id": 1, "rank_in_cluster": 12}

>  <energy>  (47) 
-7.76

>  <cluster_rmsd>  (47) 
0.09

>  <cluster>  (47) 
5

$$$$

     RDKit          3D

 64 68  0  0  0  0  0  0  0  0999 V2000
  137.6710   79.0000  222.6340 O   0  0  0  0  0  0  0  0  0  0  0  0
  137.9390   77.7590  222.5370 C   0  0  0  0  0  0  0  0  0  0  0  0
  136.8760   76.9040  222.7530 C   0  0  0  0  0  0  0  0  0  0  0  0
  135.6080   77.3620  223.0530 C   0  0  0  0  0  0  0  0  0  0  0  0
  134.5590   76.4760  223.2650 C   0  0  0  0  0  0  0  0  0  0  0  0
  132.9380   77.0260  223.6460 Cl  0  0  0  0  0  0  0  0  0  0  0  0
  134.7670   75.1150  223.1790 C   0  0  0  0  0  0  0  0  0  0  0  0
  136.0280   74.6450  222.8810 C   0  0  0  0  0  0  0  0  0  0  0  0
  137.0640   75.5360  222.6710 C   0  0  0  0  0  0  0  0  0  0  0  0
  138.3110   75.1220  222.3770 N   0  0  0  0  0  0  0  0  0  0  0  0
  139.3330   75.9710  222.1700 C   0  0  0  0  0  0  0  0  0  0  0  0
  140.6610   75.4080  221.8530 C   0  0  0  0  0  0  0  0  0  0  0  0
  140.7610   74.2170  221.2910 C   0  0  0  0  0  0  0  0  0  0  0  0
  140.1450   73.0160  221.8090 C   0  0  0  0  0  0  0  0  0  0  0  0
  139.2190   72.2920  221.1020 C   0  0  0  0  0  0  0  0  0  0  0  0
  138.6330   71.1300  221.6190 C   0  0  0  0  0  0  0  0  0  0  0  0
  139.0140   70.7090  222.8950 C   0  0  0  0  0  0  0  0  0  0  0  0
  139.9440   71.4210  223.6250 C   0  0  0  0  0  0  0  0  0  0  0  0
  140.2780   70.9310  224.9110 N   0  0  0  0  0  0  0  0  0  0  0  0
  140.6850   71.8870  225.9220 C   0  0  0  0  0  0  0  0  0  0  0  0
  141.1250   71.2340  227.1940 C   0  0  0  0  0  0  0  0  0  0  0  0
  140.1920   70.1620  227.6680 C   0  0  0  0  0  0  0  0  0  0  0  0
  139.4230   69.4770  226.5890 C   0  0  0  0  0  0  0  0  0  0  0  0
  140.2410   69.5380  225.2930 C   0  0  0  0  0  0  0  0  0  0  0  0
  140.4850   72.5540  223.0620 C   0  0  0  0  0  0  0  0  0  0  0  0
  139.1850   77.3200  222.2420 N   0  0  0  0  0  0  0  0  0  0  0  0
  140.2670   78.2260  222.0330 C   0  0  0  0  0  0  0  0  0  0  0  0
  140.5010   79.2440  223.0880 C   0  0  0  0  0  0  0  0  0  0  0  0
  140.2610   80.6660  222.5670 C   0  0  0  0  0  0  0  0  0  0  0  0
  141.4580   81.1930  221.8420 C   0  0  0  0  0  0  0  0  0  0  0  0
  142.4900   80.1740  221.8080 N   0  0  0  0  0  0  0  0  0  0  0  0
  142.9430   79.7820  223.1170 C   0  0  0  0  0  0  0  0  0  0  0  0
  141.7790   79.1480  223.8450 C   0  0  0  0  0  0  0  0  0  0  0  0
  135.4259   78.4444  223.1251 H   0  0  0  0  0  0  0  0  0  0  0  0
  133.9365   74.4133  223.3462 H   0  0  0  0  0  0  0  0  0  0  0  0
  136.2098   73.5624  222.8104 H   0  0  0  0  0  0  0  0  0  0  0  0
  141.5698   75.9824  222.0857 H   0  0  0  0  0  0  0  0  0  0  0  0
  141.3524   74.1333  220.3673 H   0  0  0  0  0  0  0  0  0  0  0  0
  138.9278   72.6347  220.0981 H   0  0  0  0  0  0  0  0  0  0  0  0
  137.8921   70.5637  221.0355 H   0  0  0  0  0  0  0  0  0  0  0  0
  138.5677   69.7993  223.3231 H   0  0  0  0  0  0  0  0  0  0  0  0
  141.5202   72.4832  225.5259 H   0  0  0  0  0  0  0  0  0  0  0  0
  139.8115   72.5132  226.1562 H   0  0  0  0  0  0  0  0  0  0  0  0
  142.1163   70.7860  227.0308 H   0  0  0  0  0  0  0  0  0  0  0  0
  141.1429   72.0141  227.9693 H   0  0  0  0  0  0  0  0  0  0  0  0
  140.7851   69.4032  228.1995 H   0  0  0  0  0  0  0  0  0  0  0  0
  139.4489   70.6603  228.3079 H   0  0  0  0  0  0  0  0  0  0  0  0
  139.2475   68.4275  226.8677 H   0  0  0  0  0  0  0  0  0  0  0  0
  138.4522   69.9738  226.4451 H   0  0  0  0  0  0  0  0  0  0  0  0
  141.2601   69.1619  225.4661 H   0  0  0  0  0  0  0  0  0  0  0  0
  139.7934   68.9155  224.5042 H   0  0  0  0  0  0  0  0  0  0  0  0
  141.2278   73.1207  223.6425 H   0  0  0  0  0  0  0  0  0  0  0  0
  141.1863   77.6298  221.9361 H   0  0  0  0  0  0  0  0  0  0  0  0
  139.9928   78.7996  221.1353 H   0  0  0  0  0  0  0  0  0  0  0  0
  139.7413   78.9967  223.8441 H   0  0  0  0  0  0  0  0  0  0  0  0
  139.4027   80.6546  221.8791 H   0  0  0  0  0  0  0  0  0  0  0  0
  140.0633   81.3206  223.4286 H   0  0  0  0  0  0  0  0  0  0  0  0
  141.1747   81.4624  220.8138 H   0  0  0  0  0  0  0  0  0  0  0  0
  141.8392   82.0838  222.3626 H   0  0  0  0  0  0  0  0  0  0  0  0
  143.2240   80.3600  221.1180 H   0  0  0  0  0  0  0  0  0  0  0  0
  143.7654   79.0572  223.0257 H   0  0  0  0  0  0  0  0  0  0  0  0
  143.3091   80.6581  223.6724 H   0  0  0  0  0  0  0  0  0  0  0  0
  142.0077   78.0855  224.0144 H   0  0  0  0  0  0  0  0  0  0  0  0
  141.6444   79.6935  224.7907 H   0  0  0  0  0  0  0  0  0  0  0  0
  1  2  2  0
  2  3  1  0
  3  4  2  0
  4  5  1  0
  5  6  1  0
  5  7  2  0
  7  8  1  0
  8  9  2  0
  9 10  1  0
 10 11  2  0
 11 12  1  0
 12 13  2  0
 13 14  1  0
 14 15  2  0
 15 16  1  0
 16 17  2  0
 17 18  1  0
 18 19  1  0
 19 20  1  0
 20 21  1  0
 21 22  1  0
 22 23  1  0
 23 24  1  0
 18 25  2  0
 11 26  1  0
 26 27  1  0
 27 28  1  0
 28 29  1  0
 29 30  1  0
 30 31  1  0
 31 32  1  0
 32 33  1  0
 26  2  1  0
 33 28  1  0
  9  3  1  0
 25 14  1  0
 24 19  1  0
  4 34  1  0
  7 35  1  0
  8 36  1  0
 12 37  1  0
 13 38  1  0
 15 39  1  0
 16 40  1  0
 17 41  1  0
 20 42  1  0
 20 43  1  0
 21 44  1  0
 21 45  1  0
 22 46  1  0
 22 47  1  0
 23 48  1  0
 23 49  1  0
 24 50  1  0
 24 51  1  0
 25 52  1  0
 27 53  1  0
 27 54  1  0
 28 55  1  0
 29 56  1  0
 29 57  1  0
 30 58  1  0
 30 59  1  0
 31 60  1  0
 32 61  1  0
 32 62  1  0
 33 63  1  0
 33 64  1  0
M  END
>  <smiles>  (48) 
O=c1c2cc(Cl)ccc2nc(/C=C/c2cccc(N3CCCCC3)c2)n1CC1CCNCC1

>  <score_type>  (48) 
oracle

>  <origin>  (48) 
autodockgpu

>  <m_score__min__energy>  (48) 
-9.8300000000000001

>  <m_primary>  (48) 
energy

>  <rmsd>  (48) 
9.868585936835297

>  <m_score__min__rmsd>  (48) 
9.868585936835297

>  <meeko>  (48) 
{"free_energy": -8.08, "intermolecular_energy": -9.87, "internal_energy": -1.69, "cluster_size": 1, "cluster_id": 4, "rank_in_cluster": 1}

>  <energy>  (48) 
-7.77

>  <cluster_rmsd>  (48) 
0.0

>  <cluster>  (48) 
6

$$$$

     RDKit          3D

 64 68  0  0  0  0  0  0  0  0999 V2000
  138.1020   69.2560  223.6840 O   0  0  0  0  0  0  0  0  0  0  0  0
  138.9190   70.2300  223.6380 C   0  0  0  0  0  0  0  0  0  0  0  0
  139.6230   70.4690  224.8010 C   0  0  0  0  0  0  0  0  0  0  0  0
  139.4550   69.7030  225.9380 C   0  0  0  0  0  0  0  0  0  0  0  0
  140.1780   69.9690  227.0940 C   0  0  0  0  0  0  0  0  0  0  0  0
  139.9880   69.0140  228.5520 Cl  0  0  0  0  0  0  0  0  0  0  0  0
  141.0840   71.0100  227.1260 C   0  0  0  0  0  0  0  0  0  0  0  0
  141.2610   71.7820  225.9990 C   0  0  0  0  0  0  0  0  0  0  0  0
  140.5360   71.5080  224.8540 C   0  0  0  0  0  0  0  0  0  0  0  0
  140.6770   72.2360  223.7300 N   0  0  0  0  0  0  0  0  0  0  0  0
  139.9820   71.9870  222.6070 C   0  0  0  0  0  0  0  0  0  0  0  0
  140.2150   72.8480  221.4310 C   0  0  0  0  0  0  0  0  0  0  0  0
  140.6980   74.0670  221.5850 C   0  0  0  0  0  0  0  0  0  0  0  0
  139.9080   75.2160  221.9660 C   0  0  0  0  0  0  0  0  0  0  0  0
  138.5370   75.2080  221.9670 C   0  0  0  0  0  0  0  0  0  0  0  0
  137.7860   76.3310  222.3400 C   0  0  0  0  0  0  0  0  0  0  0  0
  138.4730   77.4870  222.7200 C   0  0  0  0  0  0  0  0  0  0  0  0
  139.8510   77.5190  222.7270 C   0  0  0  0  0  0  0  0  0  0  0  0
  140.4740   78.7280  223.1230 N   0  0  0  0  0  0  0  0  0  0  0  0
  141.9220   78.7600  223.1920 C   0  0  0  0  0  0  0  0  0  0  0  0
  142.4480   80.0510  223.7380 C   0  0  0  0  0  0  0  0  0  0  0  0
  141.8100   81.2610  223.1250 C   0  0  0  0  0  0  0  0  0  0  0  0
  140.4160   81.0570  222.6360 C   0  0  0  0  0  0  0  0  0  0  0  0
  139.7670   79.9410  223.4650 C   0  0  0  0  0  0  0  0  0  0  0  0
  140.5320   76.3840  222.3510 C   0  0  0  0  0  0  0  0  0  0  0  0
  139.0780   70.9760  222.5180 N   0  0  0  0  0  0  0  0  0  0  0  0
  138.3300   70.7130  221.3330 C   0  0  0  0  0  0  0  0  0  0  0  0
  137.1050   71.5240  221.1200 C   0  0  0  0  0  0  0  0  0  0  0  0
  136.8400   72.4730  222.2950 C   0  0  0  0  0  0  0  0  0  0  0  0
  136.1400   71.7750  223.4160 C   0  0  0  0  0  0  0  0  0  0  0  0
  135.9530   70.3780  223.0740 N   0  0  0  0  0  0  0  0  0  0  0  0
  135.1420   70.1840  221.9000 C   0  0  0  0  0  0  0  0  0  0  0  0
  135.8720   70.7910  220.7220 C   0  0  0  0  0  0  0  0  0  0  0  0
  138.7375   68.8693  225.9280 H   0  0  0  0  0  0  0  0  0  0  0  0
  141.6578   71.2205  228.0406 H   0  0  0  0  0  0  0  0  0  0  0  0
  141.9785   72.6157  226.0099 H   0  0  0  0  0  0  0  0  0  0  0  0
  139.9854   72.4727  220.4228 H   0  0  0  0  0  0  0  0  0  0  0  0
  141.7737   74.2184  221.4118 H   0  0  0  0  0  0  0  0  0  0  0  0
  138.0097   74.2910  221.6654 H   0  0  0  0  0  0  0  0  0  0  0  0
  136.6864   76.3032  222.3338 H   0  0  0  0  0  0  0  0  0  0  0  0
  137.9072   78.3823  223.0172 H   0  0  0  0  0  0  0  0  0  0  0  0
  142.2612   77.9395  223.8414 H   0  0  0  0  0  0  0  0  0  0  0  0
  142.3051   78.6534  222.1664 H   0  0  0  0  0  0  0  0  0  0  0  0
  142.2642   80.0716  224.8223 H   0  0  0  0  0  0  0  0  0  0  0  0
  143.5205   80.0923  223.4970 H   0  0  0  0  0  0  0  0  0  0  0  0
  141.7930   82.0588  223.8821 H   0  0  0  0  0  0  0  0  0  0  0  0
  142.4132   81.5126  222.2402 H   0  0  0  0  0  0  0  0  0  0  0  0
  139.8418   81.9879  222.7532 H   0  0  0  0  0  0  0  0  0  0  0  0
  140.4272   80.7779  221.5720 H   0  0  0  0  0  0  0  0  0  0  0  0
  139.8703   80.1536  224.5393 H   0  0  0  0  0  0  0  0  0  0  0  0
  138.6914   79.8542  223.2516 H   0  0  0  0  0  0  0  0  0  0  0  0
  141.6317   76.4097  222.3579 H   0  0  0  0  0  0  0  0  0  0  0  0
  138.9959   70.8845  220.4744 H   0  0  0  0  0  0  0  0  0  0  0  0
  137.9742   69.6778  221.4415 H   0  0  0  0  0  0  0  0  0  0  0  0
  137.3508   72.1106  220.2225 H   0  0  0  0  0  0  0  0  0  0  0  0
  137.8003   72.8644  222.6619 H   0  0  0  0  0  0  0  0  0  0  0  0
  136.1941   73.2896  221.9401 H   0  0  0  0  0  0  0  0  0  0  0  0
  136.7464   71.8506  224.3306 H   0  0  0  0  0  0  0  0  0  0  0  0
  135.1602   72.2452  223.5858 H   0  0  0  0  0  0  0  0  0  0  0  0
  135.7220   69.7880  223.8790 H   0  0  0  0  0  0  0  0  0  0  0  0
  134.9850   69.1089  221.7282 H   0  0  0  0  0  0  0  0  0  0  0  0
  134.1607   70.6637  222.0299 H   0  0  0  0  0  0  0  0  0  0  0  0
  136.1517   69.9841  220.0287 H   0  0  0  0  0  0  0  0  0  0  0  0
  135.1932   71.5177  220.2517 H   0  0  0  0  0  0  0  0  0  0  0  0
  1  2  2  0
  2  3  1  0
  3  4  2  0
  4  5  1  0
  5  6  1  0
  5  7  2  0
  7  8  1  0
  8  9  2  0
  9 10  1  0
 10 11  2  0
 11 12  1  0
 12 13  2  0
 13 14  1  0
 14 15  2  0
 15 16  1  0
 16 17  2  0
 17 18  1  0
 18 19  1  0
 19 20  1  0
 20 21  1  0
 21 22  1  0
 22 23  1  0
 23 24  1  0
 18 25  2  0
 11 26  1  0
 26 27  1  0
 27 28  1  0
 28 29  1  0
 29 30  1  0
 30 31  1  0
 31 32  1  0
 32 33  1  0
 26  2  1  0
 33 28  1  0
  9  3  1  0
 25 14  1  0
 24 19  1  0
  4 34  1  0
  7 35  1  0
  8 36  1  0
 12 37  1  0
 13 38  1  0
 15 39  1  0
 16 40  1  0
 17 41  1  0
 20 42  1  0
 20 43  1  0
 21 44  1  0
 21 45  1  0
 22 46  1  0
 22 47  1  0
 23 48  1  0
 23 49  1  0
 24 50  1  0
 24 51  1  0
 25 52  1  0
 27 53  1  0
 27 54  1  0
 28 55  1  0
 29 56  1  0
 29 57  1  0
 30 58  1  0
 30 59  1  0
 31 60  1  0
 32 61  1  0
 32 62  1  0
 33 63  1  0
 33 64  1  0
M  END
>  <smiles>  (49) 
O=c1c2cc(Cl)ccc2nc(/C=C/c2cccc(N3CCCCC3)c2)n1CC1CCNCC1

>  <score_type>  (49) 
oracle

>  <origin>  (49) 
autodockgpu

>  <m_score__min__energy>  (49) 
-9.8300000000000001

>  <m_primary>  (49) 
energy

>  <rmsd>  (49) 
6.628049438017959

>  <m_score__min__rmsd>  (49) 
6.628049438017959

>  <meeko>  (49) 
{"free_energy": -8.28, "intermolecular_energy": -10.07, "internal_energy": -2.16, "cluster_size": 26, "cluster_id": 2, "rank_in_cluster": 23}

>  <energy>  (49) 
-7.52

>  <cluster_rmsd>  (49) 
0.0

>  <cluster>  (49) 
7

$$$$

     RDKit          3D

 64 68  0  0  0  0  0  0  0  0999 V2000
  138.5450   68.3870  223.9530 O   0  0  0  0  0  0  0  0  0  0  0  0
  139.0820   69.5410  223.9190 C   0  0  0  0  0  0  0  0  0  0  0  0
  139.7660   69.9100  225.0600 C   0  0  0  0  0  0  0  0  0  0  0  0
  139.8630   69.0850  226.1640 C   0  0  0  0  0  0  0  0  0  0  0  0
  140.5580   69.4850  227.2980 C   0  0  0  0  0  0  0  0  0  0  0  0
  140.7010   68.4590  228.7130 Cl  0  0  0  0  0  0  0  0  0  0  0  0
  141.1680   70.7230  227.3420 C   0  0  0  0  0  0  0  0  0  0  0  0
  141.0770   71.5550  226.2480 C   0  0  0  0  0  0  0  0  0  0  0  0
  140.3830   71.1470  225.1250 C   0  0  0  0  0  0  0  0  0  0  0  0
  140.2690   71.9270  224.0340 N   0  0  0  0  0  0  0  0  0  0  0  0
  139.5990   71.5490  222.9320 C   0  0  0  0  0  0  0  0  0  0  0  0
  139.5370   72.4850  221.7910 C   0  0  0  0  0  0  0  0  0  0  0  0
  140.1810   73.6370  221.8410 C   0  0  0  0  0  0  0  0  0  0  0  0
  139.5410   74.9240  221.9950 C   0  0  0  0  0  0  0  0  0  0  0  0
  138.1800   75.0860  221.9610 C   0  0  0  0  0  0  0  0  0  0  0  0
  137.5760   76.3410  222.1130 C   0  0  0  0  0  0  0  0  0  0  0  0
  138.4010   77.4510  222.3040 C   0  0  0  0  0  0  0  0  0  0  0  0
  139.7730   77.3130  222.3420 C   0  0  0  0  0  0  0  0  0  0  0  0
  140.5420   78.4870  222.5380 N   0  0  0  0  0  0  0  0  0  0  0  0
  141.5550   78.4740  223.5750 C   0  0  0  0  0  0  0  0  0  0  0  0
  142.2110   79.8070  223.7610 C   0  0  0  0  0  0  0  0  0  0  0  0
  142.6210   80.4540  222.4740 C   0  0  0  0  0  0  0  0  0  0  0  0
  141.7960   80.0770  221.2900 C   0  0  0  0  0  0  0  0  0  0  0  0
  140.3890   79.7040  221.7750 C   0  0  0  0  0  0  0  0  0  0  0  0
  140.3060   76.0540  222.1870 C   0  0  0  0  0  0  0  0  0  0  0  0
  138.9810   70.3430  222.8330 N   0  0  0  0  0  0  0  0  0  0  0  0
  138.2590   69.9400  221.6710 C   0  0  0  0  0  0  0  0  0  0  0  0
  136.8600   70.4220  221.5490 C   0  0  0  0  0  0  0  0  0  0  0  0
  136.4450   71.2690  222.7580 C   0  0  0  0  0  0  0  0  0  0  0  0
  136.0130   70.4130  223.9050 C   0  0  0  0  0  0  0  0  0  0  0  0
  136.1570   69.0150  223.5460 N   0  0  0  0  0  0  0  0  0  0  0  0
  135.3460   68.6320  222.4200 C   0  0  0  0  0  0  0  0  0  0  0  0
  135.8250   69.4060  221.2130 C   0  0  0  0  0  0  0  0  0  0  0  0
  139.3822   68.0958  226.1445 H   0  0  0  0  0  0  0  0  0  0  0  0
  141.7195   71.0407  228.2391 H   0  0  0  0  0  0  0  0  0  0  0  0
  141.5570   72.5446  226.2684 H   0  0  0  0  0  0  0  0  0  0  0  0
  138.9527   72.2218  220.8970 H   0  0  0  0  0  0  0  0  0  0  0  0
  141.2778   73.6157  221.7601 H   0  0  0  0  0  0  0  0  0  0  0  0
  137.5421   74.2027  221.8096 H   0  0  0  0  0  0  0  0  0  0  0  0
  136.4817   76.4488  222.0827 H   0  0  0  0  0  0  0  0  0  0  0  0
  137.9515   78.4476  222.4256 H   0  0  0  0  0  0  0  0  0  0  0  0
  141.0831   78.1789  224.5238 H   0  0  0  0  0  0  0  0  0  0  0  0
  142.3343   77.7609  223.2682 H   0  0  0  0  0  0  0  0  0  0  0  0
  141.5047   80.4741  224.2769 H   0  0  0  0  0  0  0  0  0  0  0  0
  143.1274   79.6387  224.3457 H   0  0  0  0  0  0  0  0  0  0  0  0
  142.5544   81.5443  222.6035 H   0  0  0  0  0  0  0  0  0  0  0  0
  143.6415   80.1016  222.2633 H   0  0  0  0  0  0  0  0  0  0  0  0
  141.7354   80.9269  220.5943 H   0  0  0  0  0  0  0  0  0  0  0  0
  142.2534   79.2231  220.7688 H   0  0  0  0  0  0  0  0  0  0  0  0
  139.9784   80.5038  222.4089 H   0  0  0  0  0  0  0  0  0  0  0  0
  139.6948   79.5676  220.9327 H   0  0  0  0  0  0  0  0  0  0  0  0
  141.4000   75.9437  222.2180 H   0  0  0  0  0  0  0  0  0  0  0  0
  138.8133   70.3028  220.7929 H   0  0  0  0  0  0  0  0  0  0  0  0
  138.1797   68.8456  221.7478 H   0  0  0  0  0  0  0  0  0  0  0  0
  136.8929   71.0556  220.6504 H   0  0  0  0  0  0  0  0  0  0  0  0
  137.3004   71.8844  223.0737 H   0  0  0  0  0  0  0  0  0  0  0  0
  135.5956   71.9016  222.4607 H   0  0  0  0  0  0  0  0  0  0  0  0
  136.6389   70.6326  224.7825 H   0  0  0  0  0  0  0  0  0  0  0  0
  134.9601   70.6237  224.1437 H   0  0  0  0  0  0  0  0  0  0  0  0
  136.1320   68.3830  224.3520 H   0  0  0  0  0  0  0  0  0  0  0  0
  135.4491   67.5524  222.2359 H   0  0  0  0  0  0  0  0  0  0  0  0
  134.2871   68.8531  222.6196 H   0  0  0  0  0  0  0  0  0  0  0  0
  136.2516   68.6970  220.4882 H   0  0  0  0  0  0  0  0  0  0  0  0
  134.9581   69.9424  220.7998 H   0  0  0  0  0  0  0  0  0  0  0  0
  1  2  2  0
  2  3  1  0
  3  4  2  0
  4  5  1  0
  5  6  1  0
  5  7  2  0
  7  8  1  0
  8  9  2  0
  9 10  1  0
 10 11  2  0
 11 12  1  0
 12 13  2  0
 13 14  1  0
 14 15  2  0
 15 16  1  0
 16 17  2  0
 17 18  1  0
 18 19  1  0
 19 20  1  0
 20 21  1  0
 21 22  1  0
 22 23  1  0
 23 24  1  0
 18 25  2  0
 11 26  1  0
 26 27  1  0
 27 28  1  0
 28 29  1  0
 29 30  1  0
 30 31  1  0
 31 32  1  0
 32 33  1  0
 26  2  1  0
 33 28  1  0
  9  3  1  0
 25 14  1  0
 24 19  1  0
  4 34  1  0
  7 35  1  0
  8 36  1  0
 12 37  1  0
 13 38  1  0
 15 39  1  0
 16 40  1  0
 17 41  1  0
 20 42  1  0
 20 43  1  0
 21 44  1  0
 21 45  1  0
 22 46  1  0
 22 47  1  0
 23 48  1  0
 23 49  1  0
 24 50  1  0
 24 51  1  0
 25 52  1  0
 27 53  1  0
 27 54  1  0
 28 55  1  0
 29 56  1  0
 29 57  1  0
 30 58  1  0
 30 59  1  0
 31 60  1  0
 32 61  1  0
 32 62  1  0
 33 63  1  0
 33 64  1  0
M  END
>  <smiles>  (50) 
O=c1c2cc(Cl)ccc2nc(/C=C/c2cccc(N3CCCCC3)c2)n1CC1CCNCC1

>  <score_type>  (50) 
oracle

>  <origin>  (50) 
autodockgpu

>  <m_score__min__energy>  (50) 
-9.8300000000000001

>  <m_primary>  (50) 
energy

>  <rmsd>  (50) 
6.297067115644425

>  <m_score__min__rmsd>  (50) 
6.297067115644425

>  <meeko>  (50) 
{"free_energy": -8.55, "intermolecular_energy": -10.34, "internal_energy": -1.92, "cluster_size": 26, "cluster_id": 2, "rank_in_cluster": 12}

>  <energy>  (50) 
-7.5

>  <cluster_rmsd>  (50) 
1.04

>  <cluster>  (50) 
7

$$$$
