
     RDKit          3D

 42 44  0  0  0  0  0  0  0  0999 V2000
  135.2460   68.5140  224.8270 O   0  0  0  0  0  0  0  0  0  0  0  0
  135.6360   69.7140  224.8410 C   0  0  0  0  0  0  0  0  0  0  0  0
  136.8860   70.0580  224.2800 N   0  0  0  0  0  0  0  0  0  0  0  0
  137.7480   69.0820  223.6820 C   0  0  0  0  0  0  0  0  0  0  0  0
  138.8040   68.5990  224.5860 C   0  0  0  0  0  0  0  0  0  0  0  0
  138.9800   67.3930  224.8970 O   0  0  0  0  0  0  0  0  0  0  0  0
  139.6930   69.5520  225.1510 N   0  0  0  0  0  0  0  0  0  0  0  0
  140.2760   70.6500  224.3740 C   0  0  0  0  0  0  0  0  0  0  0  0
  140.8680   71.5650  225.4220 C   0  0  0  0  0  0  0  0  0  0  0  0
  140.2070   71.1550  226.7020 C   0  0  2  0  0  0  0  0  0  0  0  0
  141.0900   71.5390  227.8720 C   0  0  0  0  0  0  0  0  0  0  0  0
  141.8390   72.6580  227.5830 O   0  0  0  0  0  0  0  0  0  0  0  0
  140.1770   69.6330  226.5270 C   0  0  0  0  0  0  0  0  0  0  0  0
  134.7940   70.7560  225.4390 C   0  0  0  0  0  0  0  0  0  0  0  0
  133.7390   70.4040  226.2590 C   0  0  0  0  0  0  0  0  0  0  0  0
  132.9070   71.3330  226.8540 C   0  0  0  0  0  0  0  0  0  0  0  0
  133.1740   72.6770  226.5930 C   0  0  0  0  0  0  0  0  0  0  0  0
  132.3490   73.6200  227.1830 C   0  0  0  0  0  0  0  0  0  0  0  0
  132.6230   74.9470  226.9180 C   0  0  0  0  0  0  0  0  0  0  0  0
  131.6080   76.1700  227.6390 Cl  0  0  0  0  0  0  0  0  0  0  0  0
  133.6750   75.3100  226.1000 C   0  0  0  0  0  0  0  0  0  0  0  0
  134.5000   74.3740  225.5110 C   0  0  0  0  0  0  0  0  0  0  0  0
  134.2320   73.0240  225.7720 C   0  0  0  0  0  0  0  0  0  0  0  0
  135.0140   72.0710  225.2160 N   0  0  0  0  0  0  0  0  0  0  0  0
  137.1800   71.0700  224.3080 H   0  0  0  0  0  0  0  0  0  0  0  0
  137.1368   68.2223  223.3698 H   0  0  0  0  0  0  0  0  0  0  0  0
  138.2478   69.5693  222.8318 H   0  0  0  0  0  0  0  0  0  0  0  0
  141.0565   70.2769  223.6946 H   0  0  0  0  0  0  0  0  0  0  0  0
  139.5364   71.1577  223.7374 H   0  0  0  0  0  0  0  0  0  0  0  0
  141.9574   71.4272  225.4865 H   0  0  0  0  0  0  0  0  0  0  0  0
  140.7014   72.6271  225.1892 H   0  0  0  0  0  0  0  0  0  0  0  0
  139.2246   71.6109  226.8943 H   0  0  0  0  0  0  0  0  0  0  0  0
  140.4564   71.7471  228.7468 H   0  0  0  0  0  0  0  0  0  0  0  0
  141.7757   70.7045  228.0802 H   0  0  0  0  0  0  0  0  0  0  0  0
  141.2220   73.4330  227.5880 H   0  0  0  0  0  0  0  0  0  0  0  0
  141.1774   69.1887  226.6359 H   0  0  0  0  0  0  0  0  0  0  0  0
  139.5700   69.0908  227.2670 H   0  0  0  0  0  0  0  0  0  0  0  0
  133.5531   69.3362  226.4466 H   0  0  0  0  0  0  0  0  0  0  0  0
  132.0732   71.0271  227.5030 H   0  0  0  0  0  0  0  0  0  0  0  0
  131.5127   73.3249  227.8338 H   0  0  0  0  0  0  0  0  0  0  0  0
  133.8608   76.3778  225.9124 H   0  0  0  0  0  0  0  0  0  0  0  0
  135.3353   74.6759  224.8620 H   0  0  0  0  0  0  0  0  0  0  0  0
  1  2  2  0
  2  3  1  0
  3  4  1  0
  4  5  1  0
  5  6  2  0
  5  7  1  0
  7  8  1  0
  8  9  1  0
  9 10  1  0
 10 11  1  0
 11 12  1  0
 10 13  1  0
  2 14  1  0
 14 15  2  0
 15 16  1  0
 16 17  2  0
 17 18  1  0
 18 19  2  0
 19 20  1  0
 19 21  1  0
 21 22  2  0
 22 23  1  0
 23 24  2  0
 13  7  1  0
 24 14  1  0
 23 17  1  0
  3 25  1  0
  4 26  1  0
  4 27  1  0
  8 28  1  0
  8 29  1  0
  9 30  1  0
  9 31  1  0
 10 32  1  1
 11 33  1  0
 11 34  1  0
 12 35  1  0
 13 36  1  0
 13 37  1  0
 15 38  1  0
 16 39  1  0
 18 40  1  0
 21 41  1  0
 22 42  1  0
M  END
>  <smiles>  (1) 
O=C(NCC(=O)N1CC[C@H](CO)C1)c1ccc2cc(Cl)ccc2n1

>  <score_type>  (1) 
oracle

>  <origin>  (1) 
autodockgpu

>  <m_score__min__energy>  (1) 
-7.6399999999999997

>  <m_primary>  (1) 
energy

>  <rmsd>  (1) 
8.181153406365311

>  <m_score__min__rmsd>  (1) 
8.181153406365311

>  <meeko>  (1) 
{"free_energy": -6.83, "intermolecular_energy": -8.62, "internal_energy": -1.1, "cluster_size": 1, "cluster_id": 7, "rank_in_cluster": 1}

>  <energy>  (1) 
-7.64

>  <cluster_rmsd>  (1) 
0.0

>  <cluster>  (1) 
1

$$$$

     RDKit          3D

 42 44  0  0  0  0  0  0  0  0999 V2000
  140.2440   72.6110  220.8860 O   0  0  0  0  0  0  0  0  0  0  0  0
  139.9440   72.9450  222.0650 C   0  0  0  0  0  0  0  0  0  0  0  0
  139.5510   74.2730  222.3450 N   0  0  0  0  0  0  0  0  0  0  0  0
  139.4770   75.2770  221.3270 C   0  0  0  0  0  0  0  0  0  0  0  0
  138.7410   76.4810  221.7410 C   0  0  0  0  0  0  0  0  0  0  0  0
  137.4860   76.5790  221.7660 O   0  0  0  0  0  0  0  0  0  0  0  0
  139.4880   77.6210  222.1440 N   0  0  0  0  0  0  0  0  0  0  0  0
  138.9330   78.6660  223.0110 C   0  0  0  0  0  0  0  0  0  0  0  0
  140.1430   79.4730  223.4280 C   0  0  0  0  0  0  0  0  0  0  0  0
  141.3120   78.5860  223.1330 C   0  0  2  0  0  0  0  0  0  0  0  0
  142.5520   79.4340  222.9350 C   0  0  0  0  0  0  0  0  0  0  0  0
  142.4570   80.6220  223.6250 O   0  0  0  0  0  0  0  0  0  0  0  0
  140.8670   77.9650  221.8050 C   0  0  0  0  0  0  0  0  0  0  0  0
  140.0000   71.9570  223.1480 C   0  0  0  0  0  0  0  0  0  0  0  0
  139.5600   70.6660  222.9280 C   0  0  0  0  0  0  0  0  0  0  0  0
  139.5850   69.6870  223.9030 C   0  0  0  0  0  0  0  0  0  0  0  0
  140.0850   70.0550  225.1520 C   0  0  0  0  0  0  0  0  0  0  0  0
  140.1170   69.0840  226.1400 C   0  0  0  0  0  0  0  0  0  0  0  0
  140.6130   69.4580  227.3730 C   0  0  0  0  0  0  0  0  0  0  0  0
  140.6720   68.2680  228.6470 Cl  0  0  0  0  0  0  0  0  0  0  0  0
  141.0570   70.7450  227.6030 C   0  0  0  0  0  0  0  0  0  0  0  0
  141.0270   71.7160  226.6220 C   0  0  0  0  0  0  0  0  0  0  0  0
  140.5250   71.3480  225.3670 C   0  0  0  0  0  0  0  0  0  0  0  0
  140.4760   72.2660  224.3750 N   0  0  0  0  0  0  0  0  0  0  0  0
  139.3070   74.5170  223.3410 H   0  0  0  0  0  0  0  0  0  0  0  0
  140.5010   75.5719  221.0541 H   0  0  0  0  0  0  0  0  0  0  0  0
  138.9286   74.8385  220.4802 H   0  0  0  0  0  0  0  0  0  0  0  0
  138.2160   79.2921  222.4597 H   0  0  0  0  0  0  0  0  0  0  0  0
  138.3801   78.2561  223.8690 H   0  0  0  0  0  0  0  0  0  0  0  0
  140.2068   80.4048  222.8468 H   0  0  0  0  0  0  0  0  0  0  0  0
  140.1015   79.7680  224.4869 H   0  0  0  0  0  0  0  0  0  0  0  0
  141.5598   77.8548  223.9165 H   0  0  0  0  0  0  0  0  0  0  0  0
  143.4290   78.8776  223.2972 H   0  0  0  0  0  0  0  0  0  0  0  0
  142.6524   79.6602  221.8632 H   0  0  0  0  0  0  0  0  0  0  0  0
  143.1260   81.2410  223.2380 H   0  0  0  0  0  0  0  0  0  0  0  0
  140.9171   78.6881  220.9776 H   0  0  0  0  0  0  0  0  0  0  0  0
  141.4840   77.1251  221.4531 H   0  0  0  0  0  0  0  0  0  0  0  0
  139.1724   70.4057  221.9320 H   0  0  0  0  0  0  0  0  0  0  0  0
  139.2276   68.6660  223.7035 H   0  0  0  0  0  0  0  0  0  0  0  0
  139.7627   68.0600  225.9503 H   0  0  0  0  0  0  0  0  0  0  0  0
  141.4466   71.0047  228.5984 H   0  0  0  0  0  0  0  0  0  0  0  0
  141.3832   72.7381  226.8181 H   0  0  0  0  0  0  0  0  0  0  0  0
  1  2  2  0
  2  3  1  0
  3  4  1  0
  4  5  1  0
  5  6  2  0
  5  7  1  0
  7  8  1  0
  8  9  1  0
  9 10  1  0
 10 11  1  0
 11 12  1  0
 10 13  1  0
  2 14  1  0
 14 15  2  0
 15 16  1  0
 16 17  2  0
 17 18  1  0
 18 19  2  0
 19 20  1  0
 19 21  1  0
 21 22  2  0
 22 23  1  0
 23 24  2  0
 13  7  1  0
 24 14  1  0
 23 17  1  0
  3 25  1  0
  4 26  1  0
  4 27  1  0
  8 28  1  0
  8 29  1  0
  9 30  1  0
  9 31  1  0
 10 32  1  1
 11 33  1  0
 11 34  1  0
 12 35  1  0
 13 36  1  0
 13 37  1  0
 15 38  1  0
 16 39  1  0
 18 40  1  0
 21 41  1  0
 22 42  1  0
M  END
>  <smiles>  (2) 
O=C(NCC(=O)N1CC[C@H](CO)C1)c1ccc2cc(Cl)ccc2n1

>  <score_type>  (2) 
oracle

>  <origin>  (2) 
autodockgpu

>  <m_score__min__energy>  (2) 
-7.6399999999999997

>  <m_primary>  (2) 
energy

>  <rmsd>  (2) 
4.104879617603171

>  <m_score__min__rmsd>  (2) 
4.104879617603171

>  <meeko>  (2) 
{"free_energy": -6.87, "intermolecular_energy": -8.66, "internal_energy": -0.82, "cluster_size": 10, "cluster_id": 1, "rank_in_cluster": 7}

>  <energy>  (2) 
-7.63

>  <cluster_rmsd>  (2) 
0.27

>  <cluster>  (2) 
1

$$$$

     RDKit          3D

 42 44  0  0  0  0  0  0  0  0999 V2000
  138.9660   71.6200  220.5540 O   0  0  0  0  0  0  0  0  0  0  0  0
  139.4470   72.1370  221.6000 C   0  0  0  0  0  0  0  0  0  0  0  0
  139.8310   73.4960  221.6070 N   0  0  0  0  0  0  0  0  0  0  0  0
  139.6940   74.3320  220.4520 C   0  0  0  0  0  0  0  0  0  0  0  0
  140.9800   74.7930  219.9050 C   0  0  0  0  0  0  0  0  0  0  0  0
  141.1200   75.7970  219.1600 O   0  0  0  0  0  0  0  0  0  0  0  0
  142.1520   74.0610  220.2350 N   0  0  0  0  0  0  0  0  0  0  0  0
  142.1800   72.5960  220.2950 C   0  0  0  0  0  0  0  0  0  0  0  0
  143.6540   72.2610  220.3530 C   0  0  0  0  0  0  0  0  0  0  0  0
  144.3440   73.5050  219.8860 C   0  0  2  0  0  0  0  0  0  0  0  0
  145.7560   73.5370  220.4380 C   0  0  0  0  0  0  0  0  0  0  0  0
  146.6850   73.3760  219.4350 O   0  0  0  0  0  0  0  0  0  0  0  0
  143.4800   74.5770  220.5590 C   0  0  0  0  0  0  0  0  0  0  0  0
  139.6090   71.3270  222.8130 C   0  0  0  0  0  0  0  0  0  0  0  0
  139.1210   70.0350  222.8510 C   0  0  0  0  0  0  0  0  0  0  0  0
  139.2390   69.2190  223.9590 C   0  0  0  0  0  0  0  0  0  0  0  0
  139.8860   69.7570  225.0720 C   0  0  0  0  0  0  0  0  0  0  0  0
  140.0120   68.9510  226.1910 C   0  0  0  0  0  0  0  0  0  0  0  0
  140.6540   69.4930  227.2860 C   0  0  0  0  0  0  0  0  0  0  0  0
  140.8360   68.5130  228.7190 Cl  0  0  0  0  0  0  0  0  0  0  0  0
  141.1460   70.7830  227.2600 C   0  0  0  0  0  0  0  0  0  0  0  0
  141.0230   71.5900  226.1470 C   0  0  0  0  0  0  0  0  0  0  0  0
  140.3730   71.0510  225.0290 C   0  0  0  0  0  0  0  0  0  0  0  0
  140.2280   71.8040  223.9160 N   0  0  0  0  0  0  0  0  0  0  0  0
  140.2280   73.8940  222.4980 H   0  0  0  0  0  0  0  0  0  0  0  0
  139.1673   73.7636  219.6713 H   0  0  0  0  0  0  0  0  0  0  0  0
  139.1361   75.2269  220.7648 H   0  0  0  0  0  0  0  0  0  0  0  0
  141.6604   72.2313  221.1933 H   0  0  0  0  0  0  0  0  0  0  0  0
  141.6723   72.1271  219.4392 H   0  0  0  0  0  0  0  0  0  0  0  0
  143.9554   72.0128  221.3814 H   0  0  0  0  0  0  0  0  0  0  0  0
  143.9073   71.3870  219.7349 H   0  0  0  0  0  0  0  0  0  0  0  0
  144.4354   73.6129  218.7951 H   0  0  0  0  0  0  0  0  0  0  0  0
  145.9261   74.5044  220.9331 H   0  0  0  0  0  0  0  0  0  0  0  0
  145.8693   72.7102  221.1546 H   0  0  0  0  0  0  0  0  0  0  0  0
  146.7610   74.2440  218.9640 H   0  0  0  0  0  0  0  0  0  0  0  0
  143.6499   74.6177  221.6450 H   0  0  0  0  0  0  0  0  0  0  0  0
  143.6735   75.6079  220.2277 H   0  0  0  0  0  0  0  0  0  0  0  0
  138.6155   69.6382  221.9582 H   0  0  0  0  0  0  0  0  0  0  0  0
  138.8416   68.1933  223.9638 H   0  0  0  0  0  0  0  0  0  0  0  0
  139.6178   67.9242  226.2065 H   0  0  0  0  0  0  0  0  0  0  0  0
  141.6511   71.1794  228.1531 H   0  0  0  0  0  0  0  0  0  0  0  0
  141.4197   72.6159  226.1381 H   0  0  0  0  0  0  0  0  0  0  0  0
  1  2  2  0
  2  3  1  0
  3  4  1  0
  4  5  1  0
  5  6  2  0
  5  7  1  0
  7  8  1  0
  8  9  1  0
  9 10  1  0
 10 11  1  0
 11 12  1  0
 10 13  1  0
  2 14  1  0
 14 15  2  0
 15 16  1  0
 16 17  2  0
 17 18  1  0
 18 19  2  0
 19 20  1  0
 19 21  1  0
 21 22  2  0
 22 23  1  0
 23 24  2  0
 13  7  1  0
 24 14  1  0
 23 17  1  0
  3 25  1  0
  4 26  1  0
  4 27  1  0
  8 28  1  0
  8 29  1  0
  9 30  1  0
  9 31  1  0
 10 32  1  6
 11 33  1  0
 11 34  1  0
 12 35  1  0
 13 36  1  0
 13 37  1  0
 15 38  1  0
 16 39  1  0
 18 40  1  0
 21 41  1  0
 22 42  1  0
M  END
>  <smiles>  (3) 
O=C(NCC(=O)N1CC[C@H](CO)C1)c1ccc2cc(Cl)ccc2n1

>  <score_type>  (3) 
oracle

>  <origin>  (3) 
autodockgpu

>  <m_score__min__energy>  (3) 
-7.6399999999999997

>  <m_primary>  (3) 
energy

>  <rmsd>  (3) 
3.524398108853617

>  <m_score__min__rmsd>  (3) 
3.524398108853617

>  <meeko>  (3) 
{"free_energy": -6.69, "intermolecular_energy": -8.48, "internal_energy": -1.05, "cluster_size": 15, "cluster_id": 2, "rank_in_cluster": 14}

>  <energy>  (3) 
-7.53

>  <cluster_rmsd>  (3) 
0.18

>  <cluster>  (3) 
1

$$$$

     RDKit          3D

 42 44  0  0  0  0  0  0  0  0999 V2000
  141.4200   72.8730  220.7070 O   0  0  0  0  0  0  0  0  0  0  0  0
  140.7350   73.6540  221.4240 C   0  0  0  0  0  0  0  0  0  0  0  0
  139.7220   73.1390  222.2640 N   0  0  0  0  0  0  0  0  0  0  0  0
  139.4330   71.7390  222.3380 C   0  0  0  0  0  0  0  0  0  0  0  0
  138.8020   71.3350  223.6040 C   0  0  0  0  0  0  0  0  0  0  0  0
  137.5890   71.5180  223.8870 O   0  0  0  0  0  0  0  0  0  0  0  0
  139.6070   70.6930  224.5820 N   0  0  0  0  0  0  0  0  0  0  0  0
  140.6360   71.4020  225.3510 C   0  0  0  0  0  0  0  0  0  0  0  0
  140.9920   70.4370  226.4600 C   0  0  0  0  0  0  0  0  0  0  0  0
  139.8540   69.4630  226.4960 C   0  0  2  0  0  0  0  0  0  0  0  0
  140.3270   68.1570  227.1030 C   0  0  0  0  0  0  0  0  0  0  0  0
  139.6990   67.0810  226.5180 O   0  0  0  0  0  0  0  0  0  0  0  0
  139.5820   69.2930  224.9980 C   0  0  0  0  0  0  0  0  0  0  0  0
  140.9880   75.0990  221.3890 C   0  0  0  0  0  0  0  0  0  0  0  0
  141.8810   75.6210  220.4720 C   0  0  0  0  0  0  0  0  0  0  0  0
  142.1660   76.9700  220.3840 C   0  0  0  0  0  0  0  0  0  0  0  0
  141.5040   77.8130  221.2770 C   0  0  0  0  0  0  0  0  0  0  0  0
  141.7780   79.1690  221.2010 C   0  0  0  0  0  0  0  0  0  0  0  0
  141.1180   79.9940  222.0890 C   0  0  0  0  0  0  0  0  0  0  0  0
  141.4340   81.7100  222.0300 Cl  0  0  0  0  0  0  0  0  0  0  0  0
  140.2240   79.4840  223.0090 C   0  0  0  0  0  0  0  0  0  0  0  0
  139.9460   78.1340  223.0880 C   0  0  0  0  0  0  0  0  0  0  0  0
  140.6100   77.2860  222.1930 C   0  0  0  0  0  0  0  0  0  0  0  0
  140.3710   75.9560  222.2330 N   0  0  0  0  0  0  0  0  0  0  0  0
  139.1700   73.8200  222.8490 H   0  0  0  0  0  0  0  0  0  0  0  0
  138.7538   71.4798  221.5125 H   0  0  0  0  0  0  0  0  0  0  0  0
  140.3935   71.2069  222.2716 H   0  0  0  0  0  0  0  0  0  0  0  0
  141.5135   71.6183  224.7239 H   0  0  0  0  0  0  0  0  0  0  0  0
  140.2873   72.3738  225.7304 H   0  0  0  0  0  0  0  0  0  0  0  0
  141.9374   69.9210  226.2367 H   0  0  0  0  0  0  0  0  0  0  0  0
  141.1352   70.9458  227.4247 H   0  0  0  0  0  0  0  0  0  0  0  0
  138.9796   69.7784  227.0842 H   0  0  0  0  0  0  0  0  0  0  0  0
  141.4128   68.0639  226.9532 H   0  0  0  0  0  0  0  0  0  0  0  0
  140.0830   68.1624  228.1756 H   0  0  0  0  0  0  0  0  0  0  0  0
  139.8840   66.2900  227.0840 H   0  0  0  0  0  0  0  0  0  0  0  0
  140.3689   68.7048  224.5032 H   0  0  0  0  0  0  0  0  0  0  0  0
  138.6578   68.7500  224.7510 H   0  0  0  0  0  0  0  0  0  0  0  0
  142.3876   74.9311  219.7811 H   0  0  0  0  0  0  0  0  0  0  0  0
  142.8809   77.3608  219.6450 H   0  0  0  0  0  0  0  0  0  0  0  0
  142.4903   79.5704  220.4652 H   0  0  0  0  0  0  0  0  0  0  0  0
  139.7178   80.1741  223.7000 H   0  0  0  0  0  0  0  0  0  0  0  0
  139.2309   77.7399  223.8251 H   0  0  0  0  0  0  0  0  0  0  0  0
  1  2  2  0
  2  3  1  0
  3  4  1  0
  4  5  1  0
  5  6  2  0
  5  7  1  0
  7  8  1  0
  8  9  1  0
  9 10  1  0
 10 11  1  0
 11 12  1  0
 10 13  1  0
  2 14  1  0
 14 15  2  0
 15 16  1  0
 16 17  2  0
 17 18  1  0
 18 19  2  0
 19 20  1  0
 19 21  1  0
 21 22  2  0
 22 23  1  0
 23 24  2  0
 13  7  1  0
 24 14  1  0
 23 17  1  0
  3 25  1  0
  4 26  1  0
  4 27  1  0
  8 28  1  0
  8 29  1  0
  9 30  1  0
  9 31  1  0
 10 32  1  1
 11 33  1  0
 11 34  1  0
 12 35  1  0
 13 36  1  0
 13 37  1  0
 15 38  1  0
 16 39  1  0
 18 40  1  0
 21 41  1  0
 22 42  1  0
M  END
>  <smiles>  (4) 
O=C(NCC(=O)N1CC[C@H](CO)C1)c1ccc2cc(Cl)ccc2n1

>  <score_type>  (4) 
oracle

>  <origin>  (4) 
autodockgpu

>  <m_score__min__energy>  (4) 
-7.6399999999999997

>  <m_primary>  (4) 
energy

>  <rmsd>  (4) 
8.902494948938704

>  <m_score__min__rmsd>  (4) 
8.902494948938704

>  <meeko>  (4) 
{"free_energy": -7.21, "intermolecular_energy": -9.0, "internal_energy": -0.99, "cluster_size": 15, "cluster_id": 3, "rank_in_cluster": 10}

>  <energy>  (4) 
-7.47

>  <cluster_rmsd>  (4) 
0.34

>  <cluster>  (4) 
1

$$$$

     RDKit          3D

 42 44  0  0  0  0  0  0  0  0999 V2000
  140.4760   72.4620  220.7680 O   0  0  0  0  0  0  0  0  0  0  0  0
  140.1560   72.8610  221.9220 C   0  0  0  0  0  0  0  0  0  0  0  0
  139.8150   74.2150  222.1340 N   0  0  0  0  0  0  0  0  0  0  0  0
  139.8170   75.1760  221.0730 C   0  0  0  0  0  0  0  0  0  0  0  0
  139.8570   76.5700  221.5420 C   0  0  0  0  0  0  0  0  0  0  0  0
  139.5170   76.9460  222.6940 O   0  0  0  0  0  0  0  0  0  0  0  0
  140.3110   77.5700  220.6410 N   0  0  0  0  0  0  0  0  0  0  0  0
  140.2910   79.0000  220.9680 C   0  0  0  0  0  0  0  0  0  0  0  0
  141.1400   79.6330  219.8890 C   0  0  0  0  0  0  0  0  0  0  0  0
  141.9200   78.4960  219.3040 C   0  0  2  0  0  0  0  0  0  0  0  0
  142.3370   78.8450  217.8890 C   0  0  0  0  0  0  0  0  0  0  0  0
  142.9590   80.0720  217.8420 O   0  0  0  0  0  0  0  0  0  0  0  0
  140.8530   77.3970  219.2950 C   0  0  0  0  0  0  0  0  0  0  0  0
  140.1360   71.9190  223.0470 C   0  0  0  0  0  0  0  0  0  0  0  0
  139.6170   70.6500  222.8760 C   0  0  0  0  0  0  0  0  0  0  0  0
  139.5670   69.7140  223.8910 C   0  0  0  0  0  0  0  0  0  0  0  0
  140.0730   70.1030  225.1320 C   0  0  0  0  0  0  0  0  0  0  0  0
  140.0300   69.1760  226.1600 C   0  0  0  0  0  0  0  0  0  0  0  0
  140.5330   69.5720  227.3830 C   0  0  0  0  0  0  0  0  0  0  0  0
  140.4990   68.4360  228.7080 Cl  0  0  0  0  0  0  0  0  0  0  0  0
  141.0540   70.8370  227.5660 C   0  0  0  0  0  0  0  0  0  0  0  0
  141.0990   71.7640  226.5440 C   0  0  0  0  0  0  0  0  0  0  0  0
  140.5920   71.3750  225.2980 C   0  0  0  0  0  0  0  0  0  0  0  0
  140.6140   72.2500  224.2680 N   0  0  0  0  0  0  0  0  0  0  0  0
  139.5530   74.5130  223.1110 H   0  0  0  0  0  0  0  0  0  0  0  0
  140.6998   74.9958  220.4420 H   0  0  0  0  0  0  0  0  0  0  0  0
  138.8748   75.0483  220.5199 H   0  0  0  0  0  0  0  0  0  0  0  0
  139.2642   79.3935  220.9390 H   0  0  0  0  0  0  0  0  0  0  0  0
  140.6676   79.2085  221.9803 H   0  0  0  0  0  0  0  0  0  0  0  0
  140.5064   80.1037  219.1229 H   0  0  0  0  0  0  0  0  0  0  0  0
  141.7922   80.4259  220.2838 H   0  0  0  0  0  0  0  0  0  0  0  0
  142.8423   78.2299  219.8411 H   0  0  0  0  0  0  0  0  0  0  0  0
  143.0316   78.0762  217.5196 H   0  0  0  0  0  0  0  0  0  0  0  0
  141.4353   78.8871  217.2604 H   0  0  0  0  0  0  0  0  0  0  0  0
  143.6710   80.0140  217.1560 H   0  0  0  0  0  0  0  0  0  0  0  0
  140.0912   77.5720  218.5210 H   0  0  0  0  0  0  0  0  0  0  0  0
  141.2254   76.3871  219.0683 H   0  0  0  0  0  0  0  0  0  0  0  0
  139.2256   70.3721  221.8863 H   0  0  0  0  0  0  0  0  0  0  0  0
  139.1482   68.7099  223.7286 H   0  0  0  0  0  0  0  0  0  0  0  0
  139.6136   68.1692  226.0087 H   0  0  0  0  0  0  0  0  0  0  0  0
  141.4451   71.1148  228.5559 H   0  0  0  0  0  0  0  0  0  0  0  0
  141.5169   72.7691  226.7023 H   0  0  0  0  0  0  0  0  0  0  0  0
  1  2  2  0
  2  3  1  0
  3  4  1  0
  4  5  1  0
  5  6  2  0
  5  7  1  0
  7  8  1  0
  8  9  1  0
  9 10  1  0
 10 11  1  0
 11 12  1  0
 10 13  1  0
  2 14  1  0
 14 15  2  0
 15 16  1  0
 16 17  2  0
 17 18  1  0
 18 19  2  0
 19 20  1  0
 19 21  1  0
 21 22  2  0
 22 23  1  0
 23 24  2  0
 13  7  1  0
 24 14  1  0
 23 17  1  0
  3 25  1  0
  4 26  1  0
  4 27  1  0
  8 28  1  0
  8 29  1  0
  9 30  1  0
  9 31  1  0
 10 32  1  1
 11 33  1  0
 11 34  1  0
 12 35  1  0
 13 36  1  0
 13 37  1  0
 15 38  1  0
 16 39  1  0
 18 40  1  0
 21 41  1  0
 22 42  1  0
M  END
>  <smiles>  (5) 
O=C(NCC(=O)N1CC[C@H](CO)C1)c1ccc2cc(Cl)ccc2n1

>  <score_type>  (5) 
oracle

>  <origin>  (5) 
autodockgpu

>  <m_score__min__energy>  (5) 
-7.6399999999999997

>  <m_primary>  (5) 
energy

>  <rmsd>  (5) 
2.611094838781077

>  <m_score__min__rmsd>  (5) 
2.611094838781077

>  <meeko>  (5) 
{"free_energy": -6.7, "intermolecular_energy": -8.49, "internal_energy": -1.06, "cluster_size": 10, "cluster_id": 1, "rank_in_cluster": 10}

>  <energy>  (5) 
-7.36

>  <cluster_rmsd>  (5) 
1.04

>  <cluster>  (5) 
1

$$$$

     RDKit          3D

 42 44  0  0  0  0  0  0  0  0999 V2000
  140.3870   71.3530  221.3640 O   0  0  0  0  0  0  0  0  0  0  0  0
  139.8070   72.3440  221.8870 C   0  0  0  0  0  0  0  0  0  0  0  0
  138.6680   72.1490  222.6990 N   0  0  0  0  0  0  0  0  0  0  0  0
  138.1320   70.8470  222.9600 C   0  0  0  0  0  0  0  0  0  0  0  0
  139.1010   69.9240  223.5710 C   0  0  0  0  0  0  0  0  0  0  0  0
  139.5690   68.9020  223.0050 O   0  0  0  0  0  0  0  0  0  0  0  0
  139.5480   70.1960  224.8920 N   0  0  0  0  0  0  0  0  0  0  0  0
  139.6930   69.1500  225.9100 C   0  0  0  0  0  0  0  0  0  0  0  0
  140.4800   69.8220  227.0140 C   0  0  0  0  0  0  0  0  0  0  0  0
  141.0880   71.0280  226.3660 C   0  0  2  0  0  0  0  0  0  0  0  0
  141.3850   72.0720  227.4230 C   0  0  0  0  0  0  0  0  0  0  0  0
  140.4040   72.0940  228.3890 O   0  0  0  0  0  0  0  0  0  0  0  0
  139.9300   71.4810  225.4720 C   0  0  0  0  0  0  0  0  0  0  0  0
  140.3130   73.7020  221.6550 C   0  0  0  0  0  0  0  0  0  0  0  0
  141.4010   73.9000  220.8270 C   0  0  0  0  0  0  0  0  0  0  0  0
  141.9290   75.1500  220.5650 C   0  0  0  0  0  0  0  0  0  0  0  0
  141.3080   76.2370  221.1800 C   0  0  0  0  0  0  0  0  0  0  0  0
  141.8250   77.4970  220.9270 C   0  0  0  0  0  0  0  0  0  0  0  0
  141.2030   78.5660  221.5410 C   0  0  0  0  0  0  0  0  0  0  0  0
  141.8210   80.1720  221.2510 Cl  0  0  0  0  0  0  0  0  0  0  0  0
  140.1150   78.3800  222.3690 C   0  0  0  0  0  0  0  0  0  0  0  0
  139.5960   77.1260  222.6250 C   0  0  0  0  0  0  0  0  0  0  0  0
  140.2180   76.0340  222.0070 C   0  0  0  0  0  0  0  0  0  0  0  0
  139.7450   74.7860  222.2280 N   0  0  0  0  0  0  0  0  0  0  0  0
  138.2080   72.9990  223.1200 H   0  0  0  0  0  0  0  0  0  0  0  0
  137.2754   70.9536  223.6418 H   0  0  0  0  0  0  0  0  0  0  0  0
  137.8429   70.4163  221.9900 H   0  0  0  0  0  0  0  0  0  0  0  0
  138.7091   68.8208  226.2755 H   0  0  0  0  0  0  0  0  0  0  0  0
  140.1903   68.2483  225.5234 H   0  0  0  0  0  0  0  0  0  0  0  0
  139.8157   70.1182  227.8392 H   0  0  0  0  0  0  0  0  0  0  0  0
  141.2392   69.1557  227.4495 H   0  0  0  0  0  0  0  0  0  0  0  0
  142.0331   70.8521  225.8313 H   0  0  0  0  0  0  0  0  0  0  0  0
  142.3501   71.8390  227.8966 H   0  0  0  0  0  0  0  0  0  0  0  0
  141.4197   73.0589  226.9385 H   0  0  0  0  0  0  0  0  0  0  0  0
  140.1170   73.0360  228.4950 H   0  0  0  0  0  0  0  0  0  0  0  0
  139.1113   71.9257  226.0567 H   0  0  0  0  0  0  0  0  0  0  0  0
  140.1836   72.2643  224.7425 H   0  0  0  0  0  0  0  0  0  0  0  0
  141.8681   73.0231  220.3549 H   0  0  0  0  0  0  0  0  0  0  0  0
  142.7976   75.2814  219.9030 H   0  0  0  0  0  0  0  0  0  0  0  0
  142.6927   77.6396  220.2662 H   0  0  0  0  0  0  0  0  0  0  0  0
  139.6468   79.2572  222.8395 H   0  0  0  0  0  0  0  0  0  0  0  0
  138.7287   76.9904  223.2878 H   0  0  0  0  0  0  0  0  0  0  0  0
  1  2  2  0
  2  3  1  0
  3  4  1  0
  4  5  1  0
  5  6  2  0
  5  7  1  0
  7  8  1  0
  8  9  1  0
  9 10  1  0
 10 11  1  0
 11 12  1  0
 10 13  1  0
  2 14  1  0
 14 15  2  0
 15 16  1  0
 16 17  2  0
 17 18  1  0
 18 19  2  0
 19 20  1  0
 19 21  1  0
 21 22  2  0
 22 23  1  0
 23 24  2  0
 13  7  1  0
 24 14  1  0
 23 17  1  0
  3 25  1  0
  4 26  1  0
  4 27  1  0
  8 28  1  0
  8 29  1  0
  9 30  1  0
  9 31  1  0
 10 32  1  6
 11 33  1  0
 11 34  1  0
 12 35  1  0
 13 36  1  0
 13 37  1  0
 15 38  1  0
 16 39  1  0
 18 40  1  0
 21 41  1  0
 22 42  1  0
M  END
>  <smiles>  (6) 
O=C(NCC(=O)N1CC[C@H](CO)C1)c1ccc2cc(Cl)ccc2n1

>  <score_type>  (6) 
oracle

>  <origin>  (6) 
autodockgpu

>  <m_score__min__energy>  (6) 
-7.6399999999999997

>  <m_primary>  (6) 
energy

>  <rmsd>  (6) 
8.441104419565065

>  <m_score__min__rmsd>  (6) 
8.441104419565065

>  <meeko>  (6) 
{"free_energy": -6.63, "intermolecular_energy": -8.42, "internal_energy": -1.14, "cluster_size": 4, "cluster_id": 6, "rank_in_cluster": 3}

>  <energy>  (6) 
-7.04

>  <cluster_rmsd>  (6) 
0.59

>  <cluster>  (6) 
1

$$$$

     RDKit          3D

 42 44  0  0  0  0  0  0  0  0999 V2000
  135.2510   70.2950  224.4760 O   0  0  0  0  0  0  0  0  0  0  0  0
  135.4870   71.5330  224.5500 C   0  0  0  0  0  0  0  0  0  0  0  0
  136.5990   72.0820  223.8750 N   0  0  0  0  0  0  0  0  0  0  0  0
  137.4910   71.2780  223.0940 C   0  0  0  0  0  0  0  0  0  0  0  0
  138.9120   71.5340  223.3750 C   0  0  0  0  0  0  0  0  0  0  0  0
  139.5960   72.4380  222.8290 O   0  0  0  0  0  0  0  0  0  0  0  0
  139.5680   70.7100  224.3280 N   0  0  0  0  0  0  0  0  0  0  0  0
  140.6850   71.1850  225.1510 C   0  0  0  0  0  0  0  0  0  0  0  0
  140.8390   70.1150  226.2090 C   0  0  0  0  0  0  0  0  0  0  0  0
  139.5480   69.3570  226.1730 C   0  0  2  0  0  0  0  0  0  0  0  0
  139.7690   67.9580  226.7130 C   0  0  0  0  0  0  0  0  0  0  0  0
  139.5740   67.0100  225.7340 O   0  0  0  0  0  0  0  0  0  0  0  0
  139.2870   69.3160  224.6640 C   0  0  0  0  0  0  0  0  0  0  0  0
  134.6060   72.4050  225.3350 C   0  0  0  0  0  0  0  0  0  0  0  0
  133.5770   71.8580  226.0780 C   0  0  0  0  0  0  0  0  0  0  0  0
  132.7120   72.6200  226.8400 C   0  0  0  0  0  0  0  0  0  0  0  0
  132.9170   74.0000  226.8350 C   0  0  0  0  0  0  0  0  0  0  0  0
  132.0590   74.7780  227.5940 C   0  0  0  0  0  0  0  0  0  0  0  0
  132.2700   76.1420  227.5820 C   0  0  0  0  0  0  0  0  0  0  0  0
  131.2120   77.1610  228.5230 Cl  0  0  0  0  0  0  0  0  0  0  0  0
  133.2960   76.6990  226.8440 C   0  0  0  0  0  0  0  0  0  0  0  0
  134.1540   75.9280  226.0860 C   0  0  0  0  0  0  0  0  0  0  0  0
  133.9490   74.5430  226.0900 C   0  0  0  0  0  0  0  0  0  0  0  0
  134.7650   73.7470  225.3620 N   0  0  0  0  0  0  0  0  0  0  0  0
  136.7660   73.1200  223.9590 H   0  0  0  0  0  0  0  0  0  0  0  0
  137.2799   70.2192  223.3047 H   0  0  0  0  0  0  0  0  0  0  0  0
  137.3188   71.5365  222.0388 H   0  0  0  0  0  0  0  0  0  0  0  0
  141.6021   71.2764  224.5506 H   0  0  0  0  0  0  0  0  0  0  0  0
  140.5022   72.1815  225.5794 H   0  0  0  0  0  0  0  0  0  0  0  0
  141.6845   69.4528  225.9710 H   0  0  0  0  0  0  0  0  0  0  0  0
  141.0455   70.5388  227.2029 H   0  0  0  0  0  0  0  0  0  0  0  0
  138.7285   69.7910  226.7647 H   0  0  0  0  0  0  0  0  0  0  0  0
  140.7991   67.8776  227.0903 H   0  0  0  0  0  0  0  0  0  0  0  0
  139.0448   67.7781  227.5212 H   0  0  0  0  0  0  0  0  0  0  0  0
  140.4060   66.9660  225.1990 H   0  0  0  0  0  0  0  0  0  0  0  0
  139.9702   68.6248  224.1488 H   0  0  0  0  0  0  0  0  0  0  0  0
  138.2883   68.9583  224.3730 H   0  0  0  0  0  0  0  0  0  0  0  0
  133.4404   70.7666  226.0621 H   0  0  0  0  0  0  0  0  0  0  0  0
  131.9003   72.1603  227.4229 H   0  0  0  0  0  0  0  0  0  0  0  0
  131.2446   74.3285  228.1810 H   0  0  0  0  0  0  0  0  0  0  0  0
  133.4336   77.7902  226.8608 H   0  0  0  0  0  0  0  0  0  0  0  0
  134.9669   76.3838  225.5017 H   0  0  0  0  0  0  0  0  0  0  0  0
  1  2  2  0
  2  3  1  0
  3  4  1  0
  4  5  1  0
  5  6  2  0
  5  7  1  0
  7  8  1  0
  8  9  1  0
  9 10  1  0
 10 11  1  0
 11 12  1  0
 10 13  1  0
  2 14  1  0
 14 15  2  0
 15 16  1  0
 16 17  2  0
 17 18  1  0
 18 19  2  0
 19 20  1  0
 19 21  1  0
 21 22  2  0
 22 23  1  0
 23 24  2  0
 13  7  1  0
 24 14  1  0
 23 17  1  0
  3 25  1  0
  4 26  1  0
  4 27  1  0
  8 28  1  0
  8 29  1  0
  9 30  1  0
  9 31  1  0
 10 32  1  1
 11 33  1  0
 11 34  1  0
 12 35  1  0
 13 36  1  0
 13 37  1  0
 15 38  1  0
 16 39  1  0
 18 40  1  0
 21 41  1  0
 22 42  1  0
M  END
>  <smiles>  (7) 
O=C(NCC(=O)N1CC[C@H](CO)C1)c1ccc2cc(Cl)ccc2n1

>  <score_type>  (7) 
oracle

>  <origin>  (7) 
autodockgpu

>  <m_score__min__energy>  (7) 
-7.6399999999999997

>  <m_primary>  (7) 
energy

>  <rmsd>  (7) 
8.382829150346979

>  <m_score__min__rmsd>  (7) 
8.382829150346979

>  <meeko>  (7) 
{"free_energy": -6.59, "intermolecular_energy": -8.38, "internal_energy": -1.07, "cluster_size": 4, "cluster_id": 4, "rank_in_cluster": 3}

>  <energy>  (7) 
-6.87

>  <cluster_rmsd>  (7) 
1.17

>  <cluster>  (7) 
1

$$$$

     RDKit          3D

 42 44  0  0  0  0  0  0  0  0999 V2000
  139.8770   72.0370  220.7500 O   0  0  0  0  0  0  0  0  0  0  0  0
  139.8040   72.4690  221.9330 C   0  0  0  0  0  0  0  0  0  0  0  0
  139.6330   73.8510  222.1730 N   0  0  0  0  0  0  0  0  0  0  0  0
  139.5370   74.8030  221.1080 C   0  0  0  0  0  0  0  0  0  0  0  0
  140.4280   75.9620  221.2730 C   0  0  0  0  0  0  0  0  0  0  0  0
  140.6250   76.5620  222.3610 O   0  0  0  0  0  0  0  0  0  0  0  0
  141.1220   76.4440  220.1310 N   0  0  0  0  0  0  0  0  0  0  0  0
  141.7630   77.7620  220.0920 C   0  0  0  0  0  0  0  0  0  0  0  0
  142.6270   77.7110  218.8510 C   0  0  0  0  0  0  0  0  0  0  0  0
  142.7490   76.2530  218.5330 C   0  0  2  0  0  0  0  0  0  0  0  0
  143.0540   76.0810  217.0580 C   0  0  0  0  0  0  0  0  0  0  0  0
  144.2140   75.3640  216.8710 O   0  0  0  0  0  0  0  0  0  0  0  0
  141.3280   75.7760  218.8480 C   0  0  0  0  0  0  0  0  0  0  0  0
  139.8950   71.5380  223.0640 C   0  0  0  0  0  0  0  0  0  0  0  0
  139.4640   70.2330  222.9200 C   0  0  0  0  0  0  0  0  0  0  0  0
  139.5220   69.3050  223.9420 C   0  0  0  0  0  0  0  0  0  0  0  0
  140.0440   69.7410  225.1600 C   0  0  0  0  0  0  0  0  0  0  0  0
  140.1080   68.8230  226.1940 C   0  0  0  0  0  0  0  0  0  0  0  0
  140.6270   69.2640  227.3950 C   0  0  0  0  0  0  0  0  0  0  0  0
  140.7260   68.1410  228.7270 Cl  0  0  0  0  0  0  0  0  0  0  0  0
  141.0610   70.5660  227.5500 C   0  0  0  0  0  0  0  0  0  0  0  0
  140.9990   71.4850  226.5220 C   0  0  0  0  0  0  0  0  0  0  0  0
  140.4750   71.0490  225.2990 C   0  0  0  0  0  0  0  0  0  0  0  0
  140.3940   71.9140  224.2630 N   0  0  0  0  0  0  0  0  0  0  0  0
  139.5750   74.1760  223.1740 H   0  0  0  0  0  0  0  0  0  0  0  0
  139.7944   74.2977  220.1654 H   0  0  0  0  0  0  0  0  0  0  0  0
  138.5057   75.1857  221.1090 H   0  0  0  0  0  0  0  0  0  0  0  0
  141.0108   78.5606  220.0124 H   0  0  0  0  0  0  0  0  0  0  0  0
  142.3411   77.9792  221.0023 H   0  0  0  0  0  0  0  0  0  0  0  0
  142.1465   78.2502  218.0213 H   0  0  0  0  0  0  0  0  0  0  0  0
  143.6066   78.1868  219.0059 H   0  0  0  0  0  0  0  0  0  0  0  0
  143.5402   75.7156  219.0763 H   0  0  0  0  0  0  0  0  0  0  0  0
  142.2204   75.5466  216.5789 H   0  0  0  0  0  0  0  0  0  0  0  0
  143.1837   77.0773  216.6101 H   0  0  0  0  0  0  0  0  0  0  0  0
  144.9000   75.7530  217.4690 H   0  0  0  0  0  0  0  0  0  0  0  0
  140.6055   76.1133  218.0902 H   0  0  0  0  0  0  0  0  0  0  0  0
  141.1960   74.6841  218.8647 H   0  0  0  0  0  0  0  0  0  0  0  0
  139.0563   69.9188  221.9478 H   0  0  0  0  0  0  0  0  0  0  0  0
  139.1731   68.2713  223.8019 H   0  0  0  0  0  0  0  0  0  0  0  0
  139.7606   67.7874  226.0645 H   0  0  0  0  0  0  0  0  0  0  0  0
  141.4685   70.8801  228.5223 H   0  0  0  0  0  0  0  0  0  0  0  0
  141.3476   72.5194  226.6582 H   0  0  0  0  0  0  0  0  0  0  0  0
  1  2  2  0
  2  3  1  0
  3  4  1  0
  4  5  1  0
  5  6  2  0
  5  7  1  0
  7  8  1  0
  8  9  1  0
  9 10  1  0
 10 11  1  0
 11 12  1  0
 10 13  1  0
  2 14  1  0
 14 15  2  0
 15 16  1  0
 16 17  2  0
 17 18  1  0
 18 19  2  0
 19 20  1  0
 19 21  1  0
 21 22  2  0
 22 23  1  0
 23 24  2  0
 13  7  1  0
 24 14  1  0
 23 17  1  0
  3 25  1  0
  4 26  1  0
  4 27  1  0
  8 28  1  0
  8 29  1  0
  9 30  1  0
  9 31  1  0
 10 32  1  1
 11 33  1  0
 11 34  1  0
 12 35  1  0
 13 36  1  0
 13 37  1  0
 15 38  1  0
 16 39  1  0
 18 40  1  0
 21 41  1  0
 22 42  1  0
M  END
>  <smiles>  (8) 
O=C(NCC(=O)N1CC[C@H](CO)C1)c1ccc2cc(Cl)ccc2n1

>  <score_type>  (8) 
oracle

>  <origin>  (8) 
autodockgpu

>  <m_score__min__energy>  (8) 
-7.6399999999999997

>  <m_primary>  (8) 
energy

>  <rmsd>  (8) 
1.8573564591152767

>  <m_score__min__rmsd>  (8) 
1.8573564591152767

>  <meeko>  (8) 
{"free_energy": -6.59, "intermolecular_energy": -8.38, "internal_energy": -0.98, "cluster_size": 15, "cluster_id": 2, "rank_in_cluster": 15}

>  <energy>  (8) 
-6.85

>  <cluster_rmsd>  (8) 
1.96

>  <cluster>  (8) 
1

$$$$

     RDKit          3D

 42 44  0  0  0  0  0  0  0  0999 V2000
  141.5040   72.7660  220.6860 O   0  0  0  0  0  0  0  0  0  0  0  0
  140.9080   73.5470  221.4790 C   0  0  0  0  0  0  0  0  0  0  0  0
  140.0340   73.0280  222.4590 N   0  0  0  0  0  0  0  0  0  0  0  0
  139.7910   71.6230  222.5970 C   0  0  0  0  0  0  0  0  0  0  0  0
  139.0680   71.2690  223.8290 C   0  0  0  0  0  0  0  0  0  0  0  0
  137.8300   71.4140  223.9970 O   0  0  0  0  0  0  0  0  0  0  0  0
  139.8110   70.7240  224.9100 N   0  0  0  0  0  0  0  0  0  0  0  0
  140.7750   71.5110  225.6860 C   0  0  0  0  0  0  0  0  0  0  0  0
  141.0630   70.6470  226.8940 C   0  0  0  0  0  0  0  0  0  0  0  0
  139.9380   69.6610  226.9330 C   0  0  2  0  0  0  0  0  0  0  0  0
  140.3820   68.4180  227.6780 C   0  0  0  0  0  0  0  0  0  0  0  0
  140.5540   67.3570  226.8170 O   0  0  0  0  0  0  0  0  0  0  0  0
  139.7730   69.3620  225.4390 C   0  0  0  0  0  0  0  0  0  0  0  0
  141.1200   74.9960  221.3840 C   0  0  0  0  0  0  0  0  0  0  0  0
  141.9210   75.5120  220.3840 C   0  0  0  0  0  0  0  0  0  0  0  0
  142.1630   76.8640  220.2370 C   0  0  0  0  0  0  0  0  0  0  0  0
  141.5530   77.7170  221.1580 C   0  0  0  0  0  0  0  0  0  0  0  0
  141.7850   79.0760  221.0240 C   0  0  0  0  0  0  0  0  0  0  0  0
  141.1780   79.9100  221.9400 C   0  0  0  0  0  0  0  0  0  0  0  0
  141.4430   81.6300  221.8100 Cl  0  0  0  0  0  0  0  0  0  0  0  0
  140.3750   79.4050  222.9430 C   0  0  0  0  0  0  0  0  0  0  0  0
  140.1400   78.0520  223.0810 C   0  0  0  0  0  0  0  0  0  0  0  0
  140.7510   77.1950  222.1570 C   0  0  0  0  0  0  0  0  0  0  0  0
  140.5510   75.8610  222.2530 N   0  0  0  0  0  0  0  0  0  0  0  0
  139.5530   73.7080  223.1040 H   0  0  0  0  0  0  0  0  0  0  0  0
  139.1956   71.2866  221.7354 H   0  0  0  0  0  0  0  0  0  0  0  0
  140.7725   71.1288  222.6453 H   0  0  0  0  0  0  0  0  0  0  0  0
  141.6919   71.6896  225.1052 H   0  0  0  0  0  0  0  0  0  0  0  0
  140.3896   72.5048  225.9579 H   0  0  0  0  0  0  0  0  0  0  0  0
  142.0276   70.1306  226.7804 H   0  0  0  0  0  0  0  0  0  0  0  0
  141.1320   71.2364  227.8202 H   0  0  0  0  0  0  0  0  0  0  0  0
  139.0214   70.0096  227.4313 H   0  0  0  0  0  0  0  0  0  0  0  0
  141.3350   68.6256  228.1867 H   0  0  0  0  0  0  0  0  0  0  0  0
  139.6031   68.1521  228.4078 H   0  0  0  0  0  0  0  0  0  0  0  0
  140.0690   66.5850  227.2020 H   0  0  0  0  0  0  0  0  0  0  0  0
  140.5992   68.7485  225.0504 H   0  0  0  0  0  0  0  0  0  0  0  0
  138.8749   68.7842  225.1754 H   0  0  0  0  0  0  0  0  0  0  0  0
  142.3873   74.8147  219.6725 H   0  0  0  0  0  0  0  0  0  0  0  0
  142.8059   77.2500  219.4323 H   0  0  0  0  0  0  0  0  0  0  0  0
  142.4252   79.4728  220.2223 H   0  0  0  0  0  0  0  0  0  0  0  0
  139.9081   80.1024  223.6541 H   0  0  0  0  0  0  0  0  0  0  0  0
  139.4982   77.6622  223.8849 H   0  0  0  0  0  0  0  0  0  0  0  0
  1  2  2  0
  2  3  1  0
  3  4  1  0
  4  5  1  0
  5  6  2  0
  5  7  1  0
  7  8  1  0
  8  9  1  0
  9 10  1  0
 10 11  1  0
 11 12  1  0
 10 13  1  0
  2 14  1  0
 14 15  2  0
 15 16  1  0
 16 17  2  0
 17 18  1  0
 18 19  2  0
 19 20  1  0
 19 21  1  0
 21 22  2  0
 22 23  1  0
 23 24  2  0
 13  7  1  0
 24 14  1  0
 23 17  1  0
  3 25  1  0
  4 26  1  0
  4 27  1  0
  8 28  1  0
  8 29  1  0
  9 30  1  0
  9 31  1  0
 10 32  1  1
 11 33  1  0
 11 34  1  0
 12 35  1  0
 13 36  1  0
 13 37  1  0
 15 38  1  0
 16 39  1  0
 18 40  1  0
 21 41  1  0
 22 42  1  0
M  END
>  <smiles>  (9) 
O=C(NCC(=O)N1CC[C@H](CO)C1)c1ccc2cc(Cl)ccc2n1

>  <score_type>  (9) 
oracle

>  <origin>  (9) 
autodockgpu

>  <m_score__min__energy>  (9) 
-7.6399999999999997

>  <m_primary>  (9) 
energy

>  <rmsd>  (9) 
8.981848645860198

>  <m_score__min__rmsd>  (9) 
8.981848645860198

>  <meeko>  (9) 
{"free_energy": -7.19, "intermolecular_energy": -8.98, "internal_energy": -0.98, "cluster_size": 15, "cluster_id": 3, "rank_in_cluster": 11}

>  <energy>  (9) 
-6.83

>  <cluster_rmsd>  (9) 
1.88

>  <cluster>  (9) 
1

$$$$

     RDKit          3D

 42 44  0  0  0  0  0  0  0  0999 V2000
  140.2010   72.3980  220.7210 O   0  0  0  0  0  0  0  0  0  0  0  0
  140.0050   72.8200  221.8940 C   0  0  0  0  0  0  0  0  0  0  0  0
  139.7450   74.1900  222.1180 N   0  0  0  0  0  0  0  0  0  0  0  0
  139.6930   75.1410  221.0480 C   0  0  0  0  0  0  0  0  0  0  0  0
  141.0180   75.6250  220.6270 C   0  0  0  0  0  0  0  0  0  0  0  0
  141.3830   76.8280  220.6640 O   0  0  0  0  0  0  0  0  0  0  0  0
  141.9580   74.6750  220.1450 N   0  0  0  0  0  0  0  0  0  0  0  0
  141.8800   74.0970  218.8000 C   0  0  0  0  0  0  0  0  0  0  0  0
  143.2200   73.4190  218.6160 C   0  0  0  0  0  0  0  0  0  0  0  0
  144.0990   74.0250  219.6660 C   0  0  2  0  0  0  0  0  0  0  0  0
  145.2290   73.0690  219.9920 C   0  0  0  0  0  0  0  0  0  0  0  0
  146.2400   73.1590  219.0620 O   0  0  0  0  0  0  0  0  0  0  0  0
  143.1160   74.1160  220.8380 C   0  0  0  0  0  0  0  0  0  0  0  0
  140.0440   71.8910  223.0280 C   0  0  0  0  0  0  0  0  0  0  0  0
  139.5820   70.5970  222.8770 C   0  0  0  0  0  0  0  0  0  0  0  0
  139.5910   69.6710  223.9020 C   0  0  0  0  0  0  0  0  0  0  0  0
  140.0960   70.0960  225.1310 C   0  0  0  0  0  0  0  0  0  0  0  0
  140.1120   69.1790  226.1690 C   0  0  0  0  0  0  0  0  0  0  0  0
  140.6140   69.6100  227.3800 C   0  0  0  0  0  0  0  0  0  0  0  0
  140.6520   68.4880  228.7170 Cl  0  0  0  0  0  0  0  0  0  0  0  0
  141.0790   70.9000  227.5430 C   0  0  0  0  0  0  0  0  0  0  0  0
  141.0660   71.8170  226.5120 C   0  0  0  0  0  0  0  0  0  0  0  0
  140.5590   71.3920  225.2780 C   0  0  0  0  0  0  0  0  0  0  0  0
  140.5250   72.2560  224.2380 N   0  0  0  0  0  0  0  0  0  0  0  0
  139.5850   74.5080  223.1100 H   0  0  0  0  0  0  0  0  0  0  0  0
  139.2051   74.6664  220.1839 H   0  0  0  0  0  0  0  0  0  0  0  0
  139.1326   76.0127  221.4171 H   0  0  0  0  0  0  0  0  0  0  0  0
  141.0599   73.3668  218.7350 H   0  0  0  0  0  0  0  0  0  0  0  0
  141.6768   74.8514  218.0256 H   0  0  0  0  0  0  0  0  0  0  0  0
  143.1292   72.3330  218.7654 H   0  0  0  0  0  0  0  0  0  0  0  0
  143.6231   73.5612  217.6024 H   0  0  0  0  0  0  0  0  0  0  0  0
  144.5716   74.9801  219.3932 H   0  0  0  0  0  0  0  0  0  0  0  0
  145.6321   73.3151  220.9854 H   0  0  0  0  0  0  0  0  0  0  0  0
  144.8327   72.0430  219.9781 H   0  0  0  0  0  0  0  0  0  0  0  0
  146.3650   74.1200  218.8580 H   0  0  0  0  0  0  0  0  0  0  0  0
  142.8981   73.1270  221.2675 H   0  0  0  0  0  0  0  0  0  0  0  0
  143.4706   74.7005  221.6997 H   0  0  0  0  0  0  0  0  0  0  0  0
  139.1894   70.2908  221.8962 H   0  0  0  0  0  0  0  0  0  0  0  0
  139.2176   68.6467  223.7560 H   0  0  0  0  0  0  0  0  0  0  0  0
  139.7409   68.1523  226.0340 H   0  0  0  0  0  0  0  0  0  0  0  0
  141.4715   71.2057  228.5241 H   0  0  0  0  0  0  0  0  0  0  0  0
  141.4394   72.8419  226.6540 H   0  0  0  0  0  0  0  0  0  0  0  0
  1  2  2  0
  2  3  1  0
  3  4  1  0
  4  5  1  0
  5  6  2  0
  5  7  1  0
  7  8  1  0
  8  9  1  0
  9 10  1  0
 10 11  1  0
 11 12  1  0
 10 13  1  0
  2 14  1  0
 14 15  2  0
 15 16  1  0
 16 17  2  0
 17 18  1  0
 18 19  2  0
 19 20  1  0
 19 21  1  0
 21 22  2  0
 22 23  1  0
 23 24  2  0
 13  7  1  0
 24 14  1  0
 23 17  1  0
  3 25  1  0
  4 26  1  0
  4 27  1  0
  8 28  1  0
  8 29  1  0
  9 30  1  0
  9 31  1  0
 10 32  1  6
 11 33  1  0
 11 34  1  0
 12 35  1  0
 13 36  1  0
 13 37  1  0
 15 38  1  0
 16 39  1  0
 18 40  1  0
 21 41  1  0
 22 42  1  0
M  END
>  <smiles>  (10) 
O=C(NCC(=O)N1CC[C@H](CO)C1)c1ccc2cc(Cl)ccc2n1

>  <score_type>  (10) 
oracle

>  <origin>  (10) 
autodockgpu

>  <m_score__min__energy>  (10) 
-7.6399999999999997

>  <m_primary>  (10) 
energy

>  <rmsd>  (10) 
3.1925016051127684

>  <m_score__min__rmsd>  (10) 
3.1925016051127684

>  <meeko>  (10) 
{"free_energy": -7.25, "intermolecular_energy": -9.04, "internal_energy": -1.14, "cluster_size": 15, "cluster_id": 2, "rank_in_cluster": 4}

>  <energy>  (10) 
-6.7

>  <cluster_rmsd>  (10) 
1.97

>  <cluster>  (10) 
1

$$$$

     RDKit          3D

 42 44  0  0  0  0  0  0  0  0999 V2000
  141.3420   72.9340  220.6160 O   0  0  0  0  0  0  0  0  0  0  0  0
  140.7210   73.6960  221.4060 C   0  0  0  0  0  0  0  0  0  0  0  0
  139.7740   73.1610  222.3080 N   0  0  0  0  0  0  0  0  0  0  0  0
  139.4840   71.7600  222.3650 C   0  0  0  0  0  0  0  0  0  0  0  0
  138.7740   71.3560  223.5880 C   0  0  0  0  0  0  0  0  0  0  0  0
  137.5610   71.5970  223.8230 O   0  0  0  0  0  0  0  0  0  0  0  0
  139.4980   70.6420  224.5810 N   0  0  0  0  0  0  0  0  0  0  0  0
  140.6070   71.2370  225.3330 C   0  0  0  0  0  0  0  0  0  0  0  0
  140.8460   70.2610  226.4640 C   0  0  0  0  0  0  0  0  0  0  0  0
  139.5990   69.4350  226.5220 C   0  0  2  0  0  0  0  0  0  0  0  0
  139.9100   68.0950  227.1590 C   0  0  0  0  0  0  0  0  0  0  0  0
  139.2520   67.0730  226.5130 O   0  0  0  0  0  0  0  0  0  0  0  0
  139.3030   69.2650  225.0290 C   0  0  0  0  0  0  0  0  0  0  0  0
  140.9790   75.1410  221.3930 C   0  0  0  0  0  0  0  0  0  0  0  0
  141.9010   75.6680  220.5100 C   0  0  0  0  0  0  0  0  0  0  0  0
  142.1930   77.0170  220.4430 C   0  0  0  0  0  0  0  0  0  0  0  0
  141.5050   77.8540  221.3230 C   0  0  0  0  0  0  0  0  0  0  0  0
  141.7860   79.2090  221.2680 C   0  0  0  0  0  0  0  0  0  0  0  0
  141.1000   80.0280  222.1430 C   0  0  0  0  0  0  0  0  0  0  0  0
  141.4220   81.7430  222.1100 Cl  0  0  0  0  0  0  0  0  0  0  0  0
  140.1760   79.5120  223.0290 C   0  0  0  0  0  0  0  0  0  0  0  0
  139.8920   78.1630  223.0870 C   0  0  0  0  0  0  0  0  0  0  0  0
  140.5820   77.3210  222.2050 C   0  0  0  0  0  0  0  0  0  0  0  0
  140.3380   75.9910  222.2250 N   0  0  0  0  0  0  0  0  0  0  0  0
  139.2740   73.8270  222.9540 H   0  0  0  0  0  0  0  0  0  0  0  0
  138.8599   71.4983  221.4978 H   0  0  0  0  0  0  0  0  0  0  0  0
  140.4480   71.2302  222.3611 H   0  0  0  0  0  0  0  0  0  0  0  0
  141.5025   71.3304  224.7011 H   0  0  0  0  0  0  0  0  0  0  0  0
  140.3803   72.2524  225.6902 H   0  0  0  0  0  0  0  0  0  0  0  0
  141.7208   69.6286  226.2525 H   0  0  0  0  0  0  0  0  0  0  0  0
  141.0529   70.7702  227.4168 H   0  0  0  0  0  0  0  0  0  0  0  0
  138.7718   69.8688  227.1030 H   0  0  0  0  0  0  0  0  0  0  0  0
  140.9938   67.9148  227.1051 H   0  0  0  0  0  0  0  0  0  0  0  0
  139.5731   68.1199  228.2058 H   0  0  0  0  0  0  0  0  0  0  0  0
  139.5170   66.2280  226.9540 H   0  0  0  0  0  0  0  0  0  0  0  0
  140.0102   68.5737  224.5475 H   0  0  0  0  0  0  0  0  0  0  0  0
  138.3185   68.8336  224.7950 H   0  0  0  0  0  0  0  0  0  0  0  0
  142.4269   74.9826  219.8290 H   0  0  0  0  0  0  0  0  0  0  0  0
  142.9320   77.4122  219.7305 H   0  0  0  0  0  0  0  0  0  0  0  0
  142.5227   79.6147  220.5590 H   0  0  0  0  0  0  0  0  0  0  0  0
  139.6498   80.1973  223.7098 H   0  0  0  0  0  0  0  0  0  0  0  0
  139.1530   77.7644  223.7977 H   0  0  0  0  0  0  0  0  0  0  0  0
  1  2  2  0
  2  3  1  0
  3  4  1  0
  4  5  1  0
  5  6  2  0
  5  7  1  0
  7  8  1  0
  8  9  1  0
  9 10  1  0
 10 11  1  0
 11 12  1  0
 10 13  1  0
  2 14  1  0
 14 15  2  0
 15 16  1  0
 16 17  2  0
 17 18  1  0
 18 19  2  0
 19 20  1  0
 19 21  1  0
 21 22  2  0
 22 23  1  0
 23 24  2  0
 13  7  1  0
 24 14  1  0
 23 17  1  0
  3 25  1  0
  4 26  1  0
  4 27  1  0
  8 28  1  0
  8 29  1  0
  9 30  1  0
  9 31  1  0
 10 32  1  1
 11 33  1  0
 11 34  1  0
 12 35  1  0
 13 36  1  0
 13 37  1  0
 15 38  1  0
 16 39  1  0
 18 40  1  0
 21 41  1  0
 22 42  1  0
M  END
>  <smiles>  (11) 
O=C(NCC(=O)N1CC[C@H](CO)C1)c1ccc2cc(Cl)ccc2n1

>  <score_type>  (11) 
oracle

>  <origin>  (11) 
autodockgpu

>  <m_score__min__energy>  (11) 
-7.6399999999999997

>  <m_primary>  (11) 
energy

>  <rmsd>  (11) 
8.94148439474402

>  <m_score__min__rmsd>  (11) 
8.94148439474402

>  <meeko>  (11) 
{"free_energy": -7.25, "intermolecular_energy": -9.04, "internal_energy": -0.99, "cluster_size": 15, "cluster_id": 3, "rank_in_cluster": 8}

>  <energy>  (11) 
-7.44

>  <cluster_rmsd>  (11) 
0.0

>  <cluster>  (11) 
2

$$$$

     RDKit          3D

 42 44  0  0  0  0  0  0  0  0999 V2000
  141.3640   72.9560  220.6130 O   0  0  0  0  0  0  0  0  0  0  0  0
  140.7150   73.7210  221.3790 C   0  0  0  0  0  0  0  0  0  0  0  0
  139.7360   73.1890  222.2480 N   0  0  0  0  0  0  0  0  0  0  0  0
  139.4420   71.7880  222.2970 C   0  0  0  0  0  0  0  0  0  0  0  0
  138.7300   71.3800  223.5180 C   0  0  0  0  0  0  0  0  0  0  0  0
  137.5100   71.5930  223.7390 O   0  0  0  0  0  0  0  0  0  0  0  0
  139.4620   70.6950  224.5250 N   0  0  0  0  0  0  0  0  0  0  0  0
  140.4270   71.3690  225.4000 C   0  0  0  0  0  0  0  0  0  0  0  0
  140.7030   70.3560  226.4890 C   0  0  0  0  0  0  0  0  0  0  0  0
  139.5690   69.3820  226.3960 C   0  0  2  0  0  0  0  0  0  0  0  0
  139.9990   68.0510  226.9790 C   0  0  0  0  0  0  0  0  0  0  0  0
  139.2450   67.0180  226.4700 O   0  0  0  0  0  0  0  0  0  0  0  0
  139.4110   69.2780  224.8760 C   0  0  0  0  0  0  0  0  0  0  0  0
  140.9760   75.1650  221.3720 C   0  0  0  0  0  0  0  0  0  0  0  0
  141.8990   75.6950  220.4900 C   0  0  0  0  0  0  0  0  0  0  0  0
  142.1930   77.0430  220.4300 C   0  0  0  0  0  0  0  0  0  0  0  0
  141.5070   77.8770  221.3130 C   0  0  0  0  0  0  0  0  0  0  0  0
  141.7900   79.2320  221.2650 C   0  0  0  0  0  0  0  0  0  0  0  0
  141.1070   80.0490  222.1430 C   0  0  0  0  0  0  0  0  0  0  0  0
  141.4320   81.7630  222.1180 Cl  0  0  0  0  0  0  0  0  0  0  0  0
  140.1830   79.5300  223.0290 C   0  0  0  0  0  0  0  0  0  0  0  0
  139.8970   78.1810  223.0800 C   0  0  0  0  0  0  0  0  0  0  0  0
  140.5840   77.3420  222.1940 C   0  0  0  0  0  0  0  0  0  0  0  0
  140.3370   76.0130  222.2090 N   0  0  0  0  0  0  0  0  0  0  0  0
  139.2150   73.8570  222.8740 H   0  0  0  0  0  0  0  0  0  0  0  0
  138.8176   71.5327  221.4281 H   0  0  0  0  0  0  0  0  0  0  0  0
  140.4043   71.2551  222.2903 H   0  0  0  0  0  0  0  0  0  0  0  0
  141.3482   71.6137  224.8510 H   0  0  0  0  0  0  0  0  0  0  0  0
  140.0464   72.3224  225.7951 H   0  0  0  0  0  0  0  0  0  0  0  0
  141.6643   69.8505  226.3144 H   0  0  0  0  0  0  0  0  0  0  0  0
  140.7725   70.8213  227.4833 H   0  0  0  0  0  0  0  0  0  0  0  0
  138.6517   69.6715  226.9296 H   0  0  0  0  0  0  0  0  0  0  0  0
  141.0573   67.8772  226.7344 H   0  0  0  0  0  0  0  0  0  0  0  0
  139.8533   68.0846  228.0688 H   0  0  0  0  0  0  0  0  0  0  0  0
  139.4090   66.2250  227.0390 H   0  0  0  0  0  0  0  0  0  0  0  0
  140.2351   68.7125  224.4165 H   0  0  0  0  0  0  0  0  0  0  0  0
  138.5100   68.7460  224.5365 H   0  0  0  0  0  0  0  0  0  0  0  0
  142.4230   75.0122  219.8050 H   0  0  0  0  0  0  0  0  0  0  0  0
  142.9330   77.4402  219.7196 H   0  0  0  0  0  0  0  0  0  0  0  0
  142.5273   79.6394  220.5576 H   0  0  0  0  0  0  0  0  0  0  0  0
  139.6594   80.2126  223.7145 H   0  0  0  0  0  0  0  0  0  0  0  0
  139.1579   77.7802  223.7893 H   0  0  0  0  0  0  0  0  0  0  0  0
  1  2  2  0
  2  3  1  0
  3  4  1  0
  4  5  1  0
  5  6  2  0
  5  7  1  0
  7  8  1  0
  8  9  1  0
  9 10  1  0
 10 11  1  0
 11 12  1  0
 10 13  1  0
  2 14  1  0
 14 15  2  0
 15 16  1  0
 16 17  2  0
 17 18  1  0
 18 19  2  0
 19 20  1  0
 19 21  1  0
 21 22  2  0
 22 23  1  0
 23 24  2  0
 13  7  1  0
 24 14  1  0
 23 17  1  0
  3 25  1  0
  4 26  1  0
  4 27  1  0
  8 28  1  0
  8 29  1  0
  9 30  1  0
  9 31  1  0
 10 32  1  1
 11 33  1  0
 11 34  1  0
 12 35  1  0
 13 36  1  0
 13 37  1  0
 15 38  1  0
 16 39  1  0
 18 40  1  0
 21 41  1  0
 22 42  1  0
M  END
>  <smiles>  (12) 
O=C(NCC(=O)N1CC[C@H](CO)C1)c1ccc2cc(Cl)ccc2n1

>  <score_type>  (12) 
oracle

>  <origin>  (12) 
autodockgpu

>  <m_score__min__energy>  (12) 
-7.6399999999999997

>  <m_primary>  (12) 
energy

>  <rmsd>  (12) 
8.925718571607627

>  <m_score__min__rmsd>  (12) 
8.925718571607627

>  <meeko>  (12) 
{"free_energy": -7.28, "intermolecular_energy": -9.07, "internal_energy": -0.99, "cluster_size": 15, "cluster_id": 3, "rank_in_cluster": 6}

>  <energy>  (12) 
-7.34

>  <cluster_rmsd>  (12) 
0.29

>  <cluster>  (12) 
2

$$$$

     RDKit          3D

 42 44  0  0  0  0  0  0  0  0999 V2000
  141.4120   72.9380  220.6590 O   0  0  0  0  0  0  0  0  0  0  0  0
  140.7350   73.7060  221.3960 C   0  0  0  0  0  0  0  0  0  0  0  0
  139.7350   73.1770  222.2410 N   0  0  0  0  0  0  0  0  0  0  0  0
  139.4520   71.7740  222.3010 C   0  0  0  0  0  0  0  0  0  0  0  0
  138.7490   71.3680  223.5280 C   0  0  0  0  0  0  0  0  0  0  0  0
  137.5350   71.5980  223.7650 O   0  0  0  0  0  0  0  0  0  0  0  0
  139.4820   70.6640  224.5210 N   0  0  0  0  0  0  0  0  0  0  0  0
  140.5310   71.2970  225.3280 C   0  0  0  0  0  0  0  0  0  0  0  0
  140.7920   70.2990  226.4340 C   0  0  0  0  0  0  0  0  0  0  0  0
  139.5930   69.4010  226.4260 C   0  0  2  0  0  0  0  0  0  0  0  0
  139.9630   68.0610  227.0290 C   0  0  0  0  0  0  0  0  0  0  0  0
  139.2410   67.0400  226.4530 O   0  0  0  0  0  0  0  0  0  0  0  0
  139.3550   69.2640  224.9180 C   0  0  0  0  0  0  0  0  0  0  0  0
  140.9820   75.1530  221.3760 C   0  0  0  0  0  0  0  0  0  0  0  0
  141.8840   75.6860  220.4750 C   0  0  0  0  0  0  0  0  0  0  0  0
  142.1640   77.0370  220.4030 C   0  0  0  0  0  0  0  0  0  0  0  0
  141.4880   77.8700  221.2950 C   0  0  0  0  0  0  0  0  0  0  0  0
  141.7580   79.2270  221.2350 C   0  0  0  0  0  0  0  0  0  0  0  0
  141.0830   80.0410  222.1220 C   0  0  0  0  0  0  0  0  0  0  0  0
  141.3930   81.7590  222.0820 Cl  0  0  0  0  0  0  0  0  0  0  0  0
  140.1800   79.5190  223.0260 C   0  0  0  0  0  0  0  0  0  0  0  0
  139.9070   78.1680  223.0900 C   0  0  0  0  0  0  0  0  0  0  0  0
  140.5860   77.3310  222.1950 C   0  0  0  0  0  0  0  0  0  0  0  0
  140.3510   75.9990  222.2210 N   0  0  0  0  0  0  0  0  0  0  0  0
  139.1880   73.8480  222.8430 H   0  0  0  0  0  0  0  0  0  0  0  0
  138.8255   71.5081  221.4368 H   0  0  0  0  0  0  0  0  0  0  0  0
  140.4185   71.2489  222.2936 H   0  0  0  0  0  0  0  0  0  0  0  0
  141.4385   71.4635  224.7291 H   0  0  0  0  0  0  0  0  0  0  0  0
  140.2340   72.2849  225.7098 H   0  0  0  0  0  0  0  0  0  0  0  0
  141.7080   69.7250  226.2305 H   0  0  0  0  0  0  0  0  0  0  0  0
  140.9403   70.7869  227.4087 H   0  0  0  0  0  0  0  0  0  0  0  0
  138.7243   69.7666  226.9931 H   0  0  0  0  0  0  0  0  0  0  0  0
  141.0355   67.8782  226.8666 H   0  0  0  0  0  0  0  0  0  0  0  0
  139.7328   68.0872  228.1043 H   0  0  0  0  0  0  0  0  0  0  0  0
  139.4900   66.2040  226.9210 H   0  0  0  0  0  0  0  0  0  0  0  0
  140.1170   68.6317  224.4389 H   0  0  0  0  0  0  0  0  0  0  0  0
  138.4059   68.7839  224.6373 H   0  0  0  0  0  0  0  0  0  0  0  0
  142.4021   75.0043  219.7844 H   0  0  0  0  0  0  0  0  0  0  0  0
  142.8863   77.4372  219.6763 H   0  0  0  0  0  0  0  0  0  0  0  0
  142.4785   79.6379  220.5125 H   0  0  0  0  0  0  0  0  0  0  0  0
  139.6621   80.2009  223.7166 H   0  0  0  0  0  0  0  0  0  0  0  0
  139.1849   77.7642  223.8149 H   0  0  0  0  0  0  0  0  0  0  0  0
  1  2  2  0
  2  3  1  0
  3  4  1  0
  4  5  1  0
  5  6  2  0
  5  7  1  0
  7  8  1  0
  8  9  1  0
  9 10  1  0
 10 11  1  0
 11 12  1  0
 10 13  1  0
  2 14  1  0
 14 15  2  0
 15 16  1  0
 16 17  2  0
 17 18  1  0
 18 19  2  0
 19 20  1  0
 19 21  1  0
 21 22  2  0
 22 23  1  0
 23 24  2  0
 13  7  1  0
 24 14  1  0
 23 17  1  0
  3 25  1  0
  4 26  1  0
  4 27  1  0
  8 28  1  0
  8 29  1  0
  9 30  1  0
  9 31  1  0
 10 32  1  1
 11 33  1  0
 11 34  1  0
 12 35  1  0
 13 36  1  0
 13 37  1  0
 15 38  1  0
 16 39  1  0
 18 40  1  0
 21 41  1  0
 22 42  1  0
M  END
>  <smiles>  (13) 
O=C(NCC(=O)N1CC[C@H](CO)C1)c1ccc2cc(Cl)ccc2n1

>  <score_type>  (13) 
oracle

>  <origin>  (13) 
autodockgpu

>  <m_score__min__energy>  (13) 
-7.6399999999999997

>  <m_primary>  (13) 
energy

>  <rmsd>  (13) 
8.924040399814993

>  <m_score__min__rmsd>  (13) 
8.924040399814993

>  <meeko>  (13) 
{"free_energy": -7.28, "intermolecular_energy": -9.07, "internal_energy": -0.99, "cluster_size": 15, "cluster_id": 3, "rank_in_cluster": 5}

>  <energy>  (13) 
-7.28

>  <cluster_rmsd>  (13) 
0.52

>  <cluster>  (13) 
2

$$$$

     RDKit          3D

 42 44  0  0  0  0  0  0  0  0999 V2000
  140.8830   72.4830  221.2310 O   0  0  0  0  0  0  0  0  0  0  0  0
  140.1090   72.6410  222.2150 C   0  0  0  0  0  0  0  0  0  0  0  0
  139.2210   73.7390  222.2490 N   0  0  0  0  0  0  0  0  0  0  0  0
  139.1610   74.7020  221.1900 C   0  0  0  0  0  0  0  0  0  0  0  0
  139.8000   75.9840  221.5240 C   0  0  0  0  0  0  0  0  0  0  0  0
  139.4610   76.7230  222.4850 O   0  0  0  0  0  0  0  0  0  0  0  0
  140.8780   76.4290  220.7120 N   0  0  0  0  0  0  0  0  0  0  0  0
  141.9710   75.5460  220.2940 C   0  0  0  0  0  0  0  0  0  0  0  0
  142.6820   76.3310  219.2130 C   0  0  0  0  0  0  0  0  0  0  0  0
  141.7000   77.3850  218.8020 C   0  0  2  0  0  0  0  0  0  0  0  0
  142.4440   78.5600  218.2000 C   0  0  0  0  0  0  0  0  0  0  0  0
  143.3360   78.1430  217.2390 O   0  0  0  0  0  0  0  0  0  0  0  0
  141.1070   77.7640  220.1630 C   0  0  0  0  0  0  0  0  0  0  0  0
  140.1270   71.6850  223.3280 C   0  0  0  0  0  0  0  0  0  0  0  0
  139.6440   70.4030  223.1450 C   0  0  0  0  0  0  0  0  0  0  0  0
  139.6320   69.4530  224.1480 C   0  0  0  0  0  0  0  0  0  0  0  0
  140.1380   69.8410  225.3890 C   0  0  0  0  0  0  0  0  0  0  0  0
  140.1330   68.9000  226.4050 C   0  0  0  0  0  0  0  0  0  0  0  0
  140.6360   69.2940  227.6290 C   0  0  0  0  0  0  0  0  0  0  0  0
  140.6480   68.1410  228.9390 Cl  0  0  0  0  0  0  0  0  0  0  0  0
  141.1210   70.5720  227.8230 C   0  0  0  0  0  0  0  0  0  0  0  0
  141.1290   71.5130  226.8140 C   0  0  0  0  0  0  0  0  0  0  0  0
  140.6210   71.1250  225.5680 C   0  0  0  0  0  0  0  0  0  0  0  0
  140.6080   72.0140  224.5480 N   0  0  0  0  0  0  0  0  0  0  0  0
  138.5890   73.8400  223.0860 H   0  0  0  0  0  0  0  0  0  0  0  0
  139.6658   74.2811  220.3080 H   0  0  0  0  0  0  0  0  0  0  0  0
  138.0972   74.9105  221.0030 H   0  0  0  0  0  0  0  0  0  0  0  0
  142.6483   75.3369  221.1352 H   0  0  0  0  0  0  0  0  0  0  0  0
  141.6136   74.5673  219.9413 H   0  0  0  0  0  0  0  0  0  0  0  0
  143.6011   76.7893  219.6069 H   0  0  0  0  0  0  0  0  0  0  0  0
  142.9883   75.6951  218.3693 H   0  0  0  0  0  0  0  0  0  0  0  0
  140.9571   77.0728  218.0533 H   0  0  0  0  0  0  0  0  0  0  0  0
  141.7182   79.2479  217.7418 H   0  0  0  0  0  0  0  0  0  0  0  0
  143.0044   79.0652  219.0004 H   0  0  0  0  0  0  0  0  0  0  0  0
  143.6900   78.9550  216.7950 H   0  0  0  0  0  0  0  0  0  0  0  0
  141.8175   78.3413  220.7729 H   0  0  0  0  0  0  0  0  0  0  0  0
  140.2174   78.4096  220.1206 H   0  0  0  0  0  0  0  0  0  0  0  0
  139.2512   70.1264  222.1555 H   0  0  0  0  0  0  0  0  0  0  0  0
  139.2421   68.4389  223.9763 H   0  0  0  0  0  0  0  0  0  0  0  0
  139.7453   67.8833  226.2440 H   0  0  0  0  0  0  0  0  0  0  0  0
  141.5132   70.8486  228.8128 H   0  0  0  0  0  0  0  0  0  0  0  0
  141.5190   72.5278  226.9816 H   0  0  0  0  0  0  0  0  0  0  0  0
  1  2  2  0
  2  3  1  0
  3  4  1  0
  4  5  1  0
  5  6  2  0
  5  7  1  0
  7  8  1  0
  8  9  1  0
  9 10  1  0
 10 11  1  0
 11 12  1  0
 10 13  1  0
  2 14  1  0
 14 15  2  0
 15 16  1  0
 16 17  2  0
 17 18  1  0
 18 19  2  0
 19 20  1  0
 19 21  1  0
 21 22  2  0
 22 23  1  0
 23 24  2  0
 13  7  1  0
 24 14  1  0
 23 17  1  0
  3 25  1  0
  4 26  1  0
  4 27  1  0
  8 28  1  0
  8 29  1  0
  9 30  1  0
  9 31  1  0
 10 32  1  6
 11 33  1  0
 11 34  1  0
 12 35  1  0
 13 36  1  0
 13 37  1  0
 15 38  1  0
 16 39  1  0
 18 40  1  0
 21 41  1  0
 22 42  1  0
M  END
>  <smiles>  (14) 
O=C(NCC(=O)N1CC[C@H](CO)C1)c1ccc2cc(Cl)ccc2n1

>  <score_type>  (14) 
oracle

>  <origin>  (14) 
autodockgpu

>  <m_score__min__energy>  (14) 
-7.6399999999999997

>  <m_primary>  (14) 
energy

>  <rmsd>  (14) 
2.190976139911522

>  <m_score__min__rmsd>  (14) 
2.190976139911522

>  <meeko>  (14) 
{"free_energy": -6.85, "intermolecular_energy": -8.64, "internal_energy": -0.84, "cluster_size": 10, "cluster_id": 1, "rank_in_cluster": 8}

>  <energy>  (14) 
-7.25

>  <cluster_rmsd>  (14) 
0.61

>  <cluster>  (14) 
2

$$$$

     RDKit          3D

 42 44  0  0  0  0  0  0  0  0999 V2000
  139.8340   72.1750  220.8720 O   0  0  0  0  0  0  0  0  0  0  0  0
  139.7520   72.5810  222.0630 C   0  0  0  0  0  0  0  0  0  0  0  0
  139.5500   73.9530  222.3310 N   0  0  0  0  0  0  0  0  0  0  0  0
  139.4310   74.9240  221.2850 C   0  0  0  0  0  0  0  0  0  0  0  0
  140.6790   75.6560  221.0170 C   0  0  0  0  0  0  0  0  0  0  0  0
  141.7620   75.1170  220.6690 O   0  0  0  0  0  0  0  0  0  0  0  0
  140.6730   77.0700  221.1570 N   0  0  0  0  0  0  0  0  0  0  0  0
  139.4500   77.8330  221.4280 C   0  0  0  0  0  0  0  0  0  0  0  0
  139.9560   79.2060  221.8110 C   0  0  0  0  0  0  0  0  0  0  0  0
  141.4000   78.9990  222.1500 C   0  0  2  0  0  0  0  0  0  0  0  0
  142.1520   80.3020  221.9720 C   0  0  0  0  0  0  0  0  0  0  0  0
  143.2940   80.3260  222.7410 O   0  0  0  0  0  0  0  0  0  0  0  0
  141.8010   77.9930  221.0660 C   0  0  0  0  0  0  0  0  0  0  0  0
  139.8650   71.6310  223.1760 C   0  0  0  0  0  0  0  0  0  0  0  0
  139.4630   70.3200  223.0060 C   0  0  0  0  0  0  0  0  0  0  0  0
  139.5430   69.3730  224.0100 C   0  0  0  0  0  0  0  0  0  0  0  0
  140.0570   69.7970  225.2360 C   0  0  0  0  0  0  0  0  0  0  0  0
  140.1430   68.8600  226.2520 C   0  0  0  0  0  0  0  0  0  0  0  0
  140.6530   69.2890  227.4610 C   0  0  0  0  0  0  0  0  0  0  0  0
  140.7800   68.1420  228.7700 Cl  0  0  0  0  0  0  0  0  0  0  0  0
  141.0580   70.5970  227.6410 C   0  0  0  0  0  0  0  0  0  0  0  0
  140.9750   71.5340  226.6310 C   0  0  0  0  0  0  0  0  0  0  0  0
  140.4580   71.1100  225.4000 C   0  0  0  0  0  0  0  0  0  0  0  0
  140.3570   71.9940  224.3810 N   0  0  0  0  0  0  0  0  0  0  0  0
  139.4860   74.2580  223.3380 H   0  0  0  0  0  0  0  0  0  0  0  0
  139.1262   74.4068  220.3632 H   0  0  0  0  0  0  0  0  0  0  0  0
  138.6869   75.6641  221.6146 H   0  0  0  0  0  0  0  0  0  0  0  0
  138.8148   77.8859  220.5315 H   0  0  0  0  0  0  0  0  0  0  0  0
  138.8292   77.3754  222.2123 H   0  0  0  0  0  0  0  0  0  0  0  0
  139.8518   79.9064  220.9692 H   0  0  0  0  0  0  0  0  0  0  0  0
  139.3900   79.6389  222.6490 H   0  0  0  0  0  0  0  0  0  0  0  0
  141.6016   78.6647  223.1784 H   0  0  0  0  0  0  0  0  0  0  0  0
  142.4295   80.4146  220.9136 H   0  0  0  0  0  0  0  0  0  0  0  0
  141.4992   81.1278  222.2913 H   0  0  0  0  0  0  0  0  0  0  0  0
  143.9490   79.7200  222.3120 H   0  0  0  0  0  0  0  0  0  0  0  0
  141.8656   78.4640  220.0740 H   0  0  0  0  0  0  0  0  0  0  0  0
  142.7913   77.5334  221.2000 H   0  0  0  0  0  0  0  0  0  0  0  0
  139.0613   70.0162  222.0280 H   0  0  0  0  0  0  0  0  0  0  0  0
  139.2170   68.3347  223.8500 H   0  0  0  0  0  0  0  0  0  0  0  0
  139.8191   67.8195  226.1023 H   0  0  0  0  0  0  0  0  0  0  0  0
  141.4589   70.9013  228.6191 H   0  0  0  0  0  0  0  0  0  0  0  0
  141.3019   72.5727  226.7865 H   0  0  0  0  0  0  0  0  0  0  0  0
  1  2  2  0
  2  3  1  0
  3  4  1  0
  4  5  1  0
  5  6  2  0
  5  7  1  0
  7  8  1  0
  8  9  1  0
  9 10  1  0
 10 11  1  0
 11 12  1  0
 10 13  1  0
  2 14  1  0
 14 15  2  0
 15 16  1  0
 16 17  2  0
 17 18  1  0
 18 19  2  0
 19 20  1  0
 19 21  1  0
 21 22  2  0
 22 23  1  0
 23 24  2  0
 13  7  1  0
 24 14  1  0
 23 17  1  0
  3 25  1  0
  4 26  1  0
  4 27  1  0
  8 28  1  0
  8 29  1  0
  9 30  1  0
  9 31  1  0
 10 32  1  1
 11 33  1  0
 11 34  1  0
 12 35  1  0
 13 36  1  0
 13 37  1  0
 15 38  1  0
 16 39  1  0
 18 40  1  0
 21 41  1  0
 22 42  1  0
M  END
>  <smiles>  (15) 
O=C(NCC(=O)N1CC[C@H](CO)C1)c1ccc2cc(Cl)ccc2n1

>  <score_type>  (15) 
oracle

>  <origin>  (15) 
autodockgpu

>  <m_score__min__energy>  (15) 
-7.6399999999999997

>  <m_primary>  (15) 
energy

>  <rmsd>  (15) 
3.556569580667784

>  <m_score__min__rmsd>  (15) 
3.556569580667784

>  <meeko>  (15) 
{"free_energy": -7.04, "intermolecular_energy": -8.83, "internal_energy": -0.84, "cluster_size": 10, "cluster_id": 1, "rank_in_cluster": 6}

>  <energy>  (15) 
-6.98

>  <cluster_rmsd>  (15) 
1.43

>  <cluster>  (15) 
2

$$$$

     RDKit          3D

 42 44  0  0  0  0  0  0  0  0999 V2000
  140.9440   72.7000  221.0980 O   0  0  0  0  0  0  0  0  0  0  0  0
  140.2400   72.9160  222.1230 C   0  0  0  0  0  0  0  0  0  0  0  0
  139.4850   74.1050  222.2250 N   0  0  0  0  0  0  0  0  0  0  0  0
  139.4840   75.0980  221.1920 C   0  0  0  0  0  0  0  0  0  0  0  0
  140.7220   75.8920  221.1390 C   0  0  0  0  0  0  0  0  0  0  0  0
  141.8080   75.4890  220.6470 O   0  0  0  0  0  0  0  0  0  0  0  0
  140.7010   77.2070  221.6770 N   0  0  0  0  0  0  0  0  0  0  0  0
  139.5760   77.7230  222.4630 C   0  0  0  0  0  0  0  0  0  0  0  0
  140.1160   78.9930  223.0820 C   0  0  0  0  0  0  0  0  0  0  0  0
  141.6040   78.8720  222.9600 C   0  0  2  0  0  0  0  0  0  0  0  0
  142.2260   80.2550  222.9760 C   0  0  0  0  0  0  0  0  0  0  0  0
  143.5990   80.1830  222.9040 O   0  0  0  0  0  0  0  0  0  0  0  0
  141.7220   78.2460  221.5670 C   0  0  0  0  0  0  0  0  0  0  0  0
  140.2020   71.9330  223.2110 C   0  0  0  0  0  0  0  0  0  0  0  0
  139.6740   70.6760  222.9880 C   0  0  0  0  0  0  0  0  0  0  0  0
  139.6080   69.7030  223.9660 C   0  0  0  0  0  0  0  0  0  0  0  0
  140.1060   70.0410  225.2250 C   0  0  0  0  0  0  0  0  0  0  0  0
  140.0470   69.0760  226.2170 C   0  0  0  0  0  0  0  0  0  0  0  0
  140.5430   69.4200  227.4580 C   0  0  0  0  0  0  0  0  0  0  0  0
  140.4880   68.2360  228.7390 Cl  0  0  0  0  0  0  0  0  0  0  0  0
  141.0730   70.6730  227.6930 C   0  0  0  0  0  0  0  0  0  0  0  0
  141.1350   71.6380  226.7080 C   0  0  0  0  0  0  0  0  0  0  0  0
  140.6350   71.3000  225.4440 C   0  0  0  0  0  0  0  0  0  0  0  0
  140.6730   72.2130  224.4470 N   0  0  0  0  0  0  0  0  0  0  0  0
  138.9080   74.2530  223.0940 H   0  0  0  0  0  0  0  0  0  0  0  0
  139.3528   74.5928  220.2237 H   0  0  0  0  0  0  0  0  0  0  0  0
  138.6623   75.7948  221.4141 H   0  0  0  0  0  0  0  0  0  0  0  0
  138.7132   77.9393  221.8159 H   0  0  0  0  0  0  0  0  0  0  0  0
  139.2187   77.0037  223.2146 H   0  0  0  0  0  0  0  0  0  0  0  0
  139.7524   79.8759  222.5358 H   0  0  0  0  0  0  0  0  0  0  0  0
  139.7926   79.1176  224.1260 H   0  0  0  0  0  0  0  0  0  0  0  0
  142.0990   78.3009  223.7593 H   0  0  0  0  0  0  0  0  0  0  0  0
  141.8508   80.8274  222.1148 H   0  0  0  0  0  0  0  0  0  0  0  0
  141.9516   80.7501  223.9192 H   0  0  0  0  0  0  0  0  0  0  0  0
  143.8210   79.5440  222.1810 H   0  0  0  0  0  0  0  0  0  0  0  0
  141.4867   78.9688  220.7719 H   0  0  0  0  0  0  0  0  0  0  0  0
  142.7269   77.8861  221.3011 H   0  0  0  0  0  0  0  0  0  0  0  0
  139.2884   70.4392  221.9854 H   0  0  0  0  0  0  0  0  0  0  0  0
  139.1831   68.7090  223.7622 H   0  0  0  0  0  0  0  0  0  0  0  0
  139.6234   68.0793  226.0240 H   0  0  0  0  0  0  0  0  0  0  0  0
  141.4577   70.9096  228.6960 H   0  0  0  0  0  0  0  0  0  0  0  0
  141.5601   72.6327  226.9077 H   0  0  0  0  0  0  0  0  0  0  0  0
  1  2  2  0
  2  3  1  0
  3  4  1  0
  4  5  1  0
  5  6  2  0
  5  7  1  0
  7  8  1  0
  8  9  1  0
  9 10  1  0
 10 11  1  0
 11 12  1  0
 10 13  1  0
  2 14  1  0
 14 15  2  0
 15 16  1  0
 16 17  2  0
 17 18  1  0
 18 19  2  0
 19 20  1  0
 19 21  1  0
 21 22  2  0
 22 23  1  0
 23 24  2  0
 13  7  1  0
 24 14  1  0
 23 17  1  0
  3 25  1  0
  4 26  1  0
  4 27  1  0
  8 28  1  0
  8 29  1  0
  9 30  1  0
  9 31  1  0
 10 32  1  1
 11 33  1  0
 11 34  1  0
 12 35  1  0
 13 36  1  0
 13 37  1  0
 15 38  1  0
 16 39  1  0
 18 40  1  0
 21 41  1  0
 22 42  1  0
M  END
>  <smiles>  (16) 
O=C(NCC(=O)N1CC[C@H](CO)C1)c1ccc2cc(Cl)ccc2n1

>  <score_type>  (16) 
oracle

>  <origin>  (16) 
autodockgpu

>  <m_score__min__energy>  (16) 
-7.6399999999999997

>  <m_primary>  (16) 
energy

>  <rmsd>  (16) 
3.892392963564658

>  <m_score__min__rmsd>  (16) 
3.892392963564658

>  <meeko>  (16) 
{"free_energy": -7.63, "intermolecular_energy": -9.42, "internal_energy": -0.72, "cluster_size": 10, "cluster_id": 1, "rank_in_cluster": 2}

>  <energy>  (16) 
-6.92

>  <cluster_rmsd>  (16) 
1.02

>  <cluster>  (16) 
2

$$$$

     RDKit          3D

 42 44  0  0  0  0  0  0  0  0999 V2000
  140.9020   72.1910  220.9780 O   0  0  0  0  0  0  0  0  0  0  0  0
  140.2760   72.5330  222.0200 C   0  0  0  0  0  0  0  0  0  0  0  0
  139.6410   73.7930  222.0820 N   0  0  0  0  0  0  0  0  0  0  0  0
  139.6760   74.7190  220.9900 C   0  0  0  0  0  0  0  0  0  0  0  0
  140.9730   75.3950  220.8340 C   0  0  0  0  0  0  0  0  0  0  0  0
  141.2150   76.5720  221.2100 O   0  0  0  0  0  0  0  0  0  0  0  0
  142.0350   74.6790  220.2190 N   0  0  0  0  0  0  0  0  0  0  0  0
  142.1060   74.4570  218.7710 C   0  0  0  0  0  0  0  0  0  0  0  0
  143.5170   73.9600  218.5480 C   0  0  0  0  0  0  0  0  0  0  0  0
  144.2580   74.3480  219.7900 C   0  0  2  0  0  0  0  0  0  0  0  0
  145.4550   73.4360  219.9700 C   0  0  0  0  0  0  0  0  0  0  0  0
  146.1130   73.2380  218.7770 O   0  0  0  0  0  0  0  0  0  0  0  0
  143.1950   74.0580  220.8540 C   0  0  0  0  0  0  0  0  0  0  0  0
  140.2060   71.6240  223.1690 C   0  0  0  0  0  0  0  0  0  0  0  0
  139.6130   70.3830  223.0320 C   0  0  0  0  0  0  0  0  0  0  0  0
  139.5140   69.4780  224.0720 C   0  0  0  0  0  0  0  0  0  0  0  0
  140.0470   69.8690  225.3000 C   0  0  0  0  0  0  0  0  0  0  0  0
  139.9560   68.9730  226.3520 C   0  0  0  0  0  0  0  0  0  0  0  0
  140.4870   69.3700  227.5630 C   0  0  0  0  0  0  0  0  0  0  0  0
  140.3930   68.2720  228.9170 Cl  0  0  0  0  0  0  0  0  0  0  0  0
  141.0830   70.6060  227.7110 C   0  0  0  0  0  0  0  0  0  0  0  0
  141.1770   71.5030  226.6650 C   0  0  0  0  0  0  0  0  0  0  0  0
  140.6410   71.1120  225.4320 C   0  0  0  0  0  0  0  0  0  0  0  0
  140.7100   71.9570  224.3790 N   0  0  0  0  0  0  0  0  0  0  0  0
  139.1270   74.0450  222.9670 H   0  0  0  0  0  0  0  0  0  0  0  0
  139.4553   74.1712  220.0620 H   0  0  0  0  0  0  0  0  0  0  0  0
  138.9292   75.4980  221.2029 H   0  0  0  0  0  0  0  0  0  0  0  0
  141.3707   73.7027  218.4542 H   0  0  0  0  0  0  0  0  0  0  0  0
  141.8790   75.3638  218.1911 H   0  0  0  0  0  0  0  0  0  0  0  0
  143.5272   72.8681  218.4155 H   0  0  0  0  0  0  0  0  0  0  0  0
  143.9706   74.3884  217.6421 H   0  0  0  0  0  0  0  0  0  0  0  0
  144.6487   75.3762  219.8057 H   0  0  0  0  0  0  0  0  0  0  0  0
  146.1489   73.8925  220.6912 H   0  0  0  0  0  0  0  0  0  0  0  0
  145.0992   72.4622  220.3378 H   0  0  0  0  0  0  0  0  0  0  0  0
  146.4610   74.1180  218.4850 H   0  0  0  0  0  0  0  0  0  0  0  0
  143.0502   72.9780  221.0044 H   0  0  0  0  0  0  0  0  0  0  0  0
  143.4302   74.4311  221.8617 H   0  0  0  0  0  0  0  0  0  0  0  0
  139.2013   70.1030  222.0511 H   0  0  0  0  0  0  0  0  0  0  0  0
  139.0374   68.4958  223.9375 H   0  0  0  0  0  0  0  0  0  0  0  0
  139.4815   67.9883  226.2282 H   0  0  0  0  0  0  0  0  0  0  0  0
  141.4956   70.8852  228.6917 H   0  0  0  0  0  0  0  0  0  0  0  0
  141.6540   72.4856  226.7954 H   0  0  0  0  0  0  0  0  0  0  0  0
  1  2  2  0
  2  3  1  0
  3  4  1  0
  4  5  1  0
  5  6  2  0
  5  7  1  0
  7  8  1  0
  8  9  1  0
  9 10  1  0
 10 11  1  0
 11 12  1  0
 10 13  1  0
  2 14  1  0
 14 15  2  0
 15 16  1  0
 16 17  2  0
 17 18  1  0
 18 19  2  0
 19 20  1  0
 19 21  1  0
 21 22  2  0
 22 23  1  0
 23 24  2  0
 13  7  1  0
 24 14  1  0
 23 17  1  0
  3 25  1  0
  4 26  1  0
  4 27  1  0
  8 28  1  0
  8 29  1  0
  9 30  1  0
  9 31  1  0
 10 32  1  6
 11 33  1  0
 11 34  1  0
 12 35  1  0
 13 36  1  0
 13 37  1  0
 15 38  1  0
 16 39  1  0
 18 40  1  0
 21 41  1  0
 22 42  1  0
M  END
>  <smiles>  (17) 
O=C(NCC(=O)N1CC[C@H](CO)C1)c1ccc2cc(Cl)ccc2n1

>  <score_type>  (17) 
oracle

>  <origin>  (17) 
autodockgpu

>  <m_score__min__energy>  (17) 
-7.6399999999999997

>  <m_primary>  (17) 
energy

>  <rmsd>  (17) 
3.0855952866039114

>  <m_score__min__rmsd>  (17) 
3.0855952866039114

>  <meeko>  (17) 
{"free_energy": -7.28, "intermolecular_energy": -9.07, "internal_energy": -0.97, "cluster_size": 15, "cluster_id": 2, "rank_in_cluster": 3}

>  <energy>  (17) 
-6.92

>  <cluster_rmsd>  (17) 
1.64

>  <cluster>  (17) 
2

$$$$

     RDKit          3D

 42 44  0  0  0  0  0  0  0  0999 V2000
  138.7240   71.8240  220.8590 O   0  0  0  0  0  0  0  0  0  0  0  0
  139.2150   72.2830  221.9270 C   0  0  0  0  0  0  0  0  0  0  0  0
  139.5290   73.6560  222.0280 N   0  0  0  0  0  0  0  0  0  0  0  0
  139.3100   74.5700  220.9480 C   0  0  0  0  0  0  0  0  0  0  0  0
  140.4810   74.7380  220.0730 C   0  0  0  0  0  0  0  0  0  0  0  0
  140.5270   75.5110  219.0820 O   0  0  0  0  0  0  0  0  0  0  0  0
  141.6470   73.9780  220.3580 N   0  0  0  0  0  0  0  0  0  0  0  0
  141.6900   72.5170  220.2400 C   0  0  0  0  0  0  0  0  0  0  0  0
  143.1640   72.1880  220.3160 C   0  0  0  0  0  0  0  0  0  0  0  0
  143.8580   73.4840  220.0340 C   0  0  2  0  0  0  0  0  0  0  0  0
  145.2460   73.4570  220.6420 C   0  0  0  0  0  0  0  0  0  0  0  0
  146.2070   73.2530  219.6780 O   0  0  0  0  0  0  0  0  0  0  0  0
  142.9550   74.4590  220.7970 C   0  0  0  0  0  0  0  0  0  0  0  0
  139.4600   71.3920  223.0670 C   0  0  0  0  0  0  0  0  0  0  0  0
  139.0980   70.0610  222.9940 C   0  0  0  0  0  0  0  0  0  0  0  0
  139.3000   69.1680  224.0290 C   0  0  0  0  0  0  0  0  0  0  0  0
  139.8990   69.6690  225.1850 C   0  0  0  0  0  0  0  0  0  0  0  0
  140.1090   68.7870  226.2310 C   0  0  0  0  0  0  0  0  0  0  0  0
  140.7030   69.2930  227.3700 C   0  0  0  0  0  0  0  0  0  0  0  0
  140.9860   68.2170  228.7150 Cl  0  0  0  0  0  0  0  0  0  0  0  0
  141.0700   70.6210  227.4550 C   0  0  0  0  0  0  0  0  0  0  0  0
  140.8630   71.5040  226.4140 C   0  0  0  0  0  0  0  0  0  0  0  0
  140.2610   71.0030  225.2530 C   0  0  0  0  0  0  0  0  0  0  0  0
  140.0390   71.8310  224.2080 N   0  0  0  0  0  0  0  0  0  0  0  0
  139.9380   74.0050  222.9350 H   0  0  0  0  0  0  0  0  0  0  0  0
  138.4725   74.1965  220.3405 H   0  0  0  0  0  0  0  0  0  0  0  0
  139.0968   75.5524  221.3945 H   0  0  0  0  0  0  0  0  0  0  0  0
  141.1400   72.0415  221.0655 H   0  0  0  0  0  0  0  0  0  0  0  0
  141.2217   72.1527  219.3137 H   0  0  0  0  0  0  0  0  0  0  0  0
  143.4274   71.8169  221.3174 H   0  0  0  0  0  0  0  0  0  0  0  0
  143.4513   71.3990  219.6054 H   0  0  0  0  0  0  0  0  0  0  0  0
  143.9922   73.7261  218.9694 H   0  0  0  0  0  0  0  0  0  0  0  0
  145.4376   74.4178  221.1421 H   0  0  0  0  0  0  0  0  0  0  0  0
  145.2945   72.6282  221.3636 H   0  0  0  0  0  0  0  0  0  0  0  0
  146.4070   74.1330  219.2720 H   0  0  0  0  0  0  0  0  0  0  0  0
  143.0808   74.3670  221.8859 H   0  0  0  0  0  0  0  0  0  0  0  0
  143.1494   75.5241  220.6025 H   0  0  0  0  0  0  0  0  0  0  0  0
  138.6273   69.6951  222.0696 H   0  0  0  0  0  0  0  0  0  0  0  0
  139.0026   68.1123  223.9454 H   0  0  0  0  0  0  0  0  0  0  0  0
  139.8155   67.7294  226.1580 H   0  0  0  0  0  0  0  0  0  0  0  0
  141.5412   70.9865  228.3793 H   0  0  0  0  0  0  0  0  0  0  0  0
  141.1595   72.5603  226.4935 H   0  0  0  0  0  0  0  0  0  0  0  0
  1  2  2  0
  2  3  1  0
  3  4  1  0
  4  5  1  0
  5  6  2  0
  5  7  1  0
  7  8  1  0
  8  9  1  0
  9 10  1  0
 10 11  1  0
 11 12  1  0
 10 13  1  0
  2 14  1  0
 14 15  2  0
 15 16  1  0
 16 17  2  0
 17 18  1  0
 18 19  2  0
 19 20  1  0
 19 21  1  0
 21 22  2  0
 22 23  1  0
 23 24  2  0
 13  7  1  0
 24 14  1  0
 23 17  1  0
  3 25  1  0
  4 26  1  0
  4 27  1  0
  8 28  1  0
  8 29  1  0
  9 30  1  0
  9 31  1  0
 10 32  1  6
 11 33  1  0
 11 34  1  0
 12 35  1  0
 13 36  1  0
 13 37  1  0
 15 38  1  0
 16 39  1  0
 18 40  1  0
 21 41  1  0
 22 42  1  0
M  END
>  <smiles>  (18) 
O=C(NCC(=O)N1CC[C@H](CO)C1)c1ccc2cc(Cl)ccc2n1

>  <score_type>  (18) 
oracle

>  <origin>  (18) 
autodockgpu

>  <m_score__min__energy>  (18) 
-7.6399999999999997

>  <m_primary>  (18) 
energy

>  <rmsd>  (18) 
3.390319287085014

>  <m_score__min__rmsd>  (18) 
3.390319287085014

>  <meeko>  (18) 
{"free_energy": -6.7, "intermolecular_energy": -8.49, "internal_energy": -1.16, "cluster_size": 15, "cluster_id": 2, "rank_in_cluster": 13}

>  <energy>  (18) 
-6.86

>  <cluster_rmsd>  (18) 
0.96

>  <cluster>  (18) 
2

$$$$

     RDKit          3D

 42 44  0  0  0  0  0  0  0  0999 V2000
  140.2420   74.0770  222.0670 O   0  0  0  0  0  0  0  0  0  0  0  0
  140.0470   72.8450  221.8800 C   0  0  0  0  0  0  0  0  0  0  0  0
  139.8200   72.3540  220.5750 N   0  0  0  0  0  0  0  0  0  0  0  0
  139.8020   73.2140  219.4300 C   0  0  0  0  0  0  0  0  0  0  0  0
  141.1220   73.3860  218.8030 C   0  0  0  0  0  0  0  0  0  0  0  0
  141.3050   73.7530  217.6140 O   0  0  0  0  0  0  0  0  0  0  0  0
  142.2780   73.1230  219.5870 N   0  0  0  0  0  0  0  0  0  0  0  0
  142.6550   71.7720  220.0140 C   0  0  0  0  0  0  0  0  0  0  0  0
  144.0710   71.9320  220.5200 C   0  0  0  0  0  0  0  0  0  0  0  0
  144.5350   73.2350  219.9480 C   0  0  2  0  0  0  0  0  0  0  0  0
  145.6470   73.7980  220.8090 C   0  0  0  0  0  0  0  0  0  0  0  0
  146.8510   73.7760  220.1430 O   0  0  0  0  0  0  0  0  0  0  0  0
  143.2620   74.0760  220.0950 C   0  0  0  0  0  0  0  0  0  0  0  0
  140.0560   71.9170  223.0170 C   0  0  0  0  0  0  0  0  0  0  0  0
  139.5400   70.6430  222.8710 C   0  0  0  0  0  0  0  0  0  0  0  0
  139.5170   69.7190  223.8990 C   0  0  0  0  0  0  0  0  0  0  0  0
  140.0460   70.1260  225.1230 C   0  0  0  0  0  0  0  0  0  0  0  0
  140.0300   69.2110  226.1630 C   0  0  0  0  0  0  0  0  0  0  0  0
  140.5570   69.6240  227.3710 C   0  0  0  0  0  0  0  0  0  0  0  0
  140.5570   68.5040  228.7100 Cl  0  0  0  0  0  0  0  0  0  0  0  0
  141.0750   70.8940  227.5280 C   0  0  0  0  0  0  0  0  0  0  0  0
  141.0930   71.8090  226.4940 C   0  0  0  0  0  0  0  0  0  0  0  0
  140.5620   71.4020  225.2640 C   0  0  0  0  0  0  0  0  0  0  0  0
  140.5580   72.2640  224.2230 N   0  0  0  0  0  0  0  0  0  0  0  0
  139.6610   71.3190  220.4560 H   0  0  0  0  0  0  0  0  0  0  0  0
  139.1157   72.7863  218.6843 H   0  0  0  0  0  0  0  0  0  0  0  0
  139.4771   74.2062  219.7763 H   0  0  0  0  0  0  0  0  0  0  0  0
  141.9911   71.4153  220.8153 H   0  0  0  0  0  0  0  0  0  0  0  0
  142.5754   71.0332  219.2029 H   0  0  0  0  0  0  0  0  0  0  0  0
  144.0887   71.9629  221.6194 H   0  0  0  0  0  0  0  0  0  0  0  0
  144.7167   71.0932  220.2209 H   0  0  0  0  0  0  0  0  0  0  0  0
  144.9329   73.1863  218.9236 H   0  0  0  0  0  0  0  0  0  0  0  0
  145.4033   74.8370  221.0758 H   0  0  0  0  0  0  0  0  0  0  0  0
  145.7369   73.1768  221.7123 H   0  0  0  0  0  0  0  0  0  0  0  0
  146.9900   74.6780  219.7570 H   0  0  0  0  0  0  0  0  0  0  0  0
  143.0679   74.3454  221.1437 H   0  0  0  0  0  0  0  0  0  0  0  0
  143.2818   75.0465  219.5776 H   0  0  0  0  0  0  0  0  0  0  0  0
  139.1293   70.3513  221.8931 H   0  0  0  0  0  0  0  0  0  0  0  0
  139.1010   68.7105  223.7579 H   0  0  0  0  0  0  0  0  0  0  0  0
  139.6159   68.2003  226.0325 H   0  0  0  0  0  0  0  0  0  0  0  0
  141.4856   71.1857  228.5059 H   0  0  0  0  0  0  0  0  0  0  0  0
  141.5083   72.8183  226.6312 H   0  0  0  0  0  0  0  0  0  0  0  0
  1  2  2  0
  2  3  1  0
  3  4  1  0
  4  5  1  0
  5  6  2  0
  5  7  1  0
  7  8  1  0
  8  9  1  0
  9 10  1  0
 10 11  1  0
 11 12  1  0
 10 13  1  0
  2 14  1  0
 14 15  2  0
 15 16  1  0
 16 17  2  0
 17 18  1  0
 18 19  2  0
 19 20  1  0
 19 21  1  0
 21 22  2  0
 22 23  1  0
 23 24  2  0
 13  7  1  0
 24 14  1  0
 23 17  1  0
  3 25  1  0
  4 26  1  0
  4 27  1  0
  8 28  1  0
  8 29  1  0
  9 30  1  0
  9 31  1  0
 10 32  1  6
 11 33  1  0
 11 34  1  0
 12 35  1  0
 13 36  1  0
 13 37  1  0
 15 38  1  0
 16 39  1  0
 18 40  1  0
 21 41  1  0
 22 42  1  0
M  END
>  <smiles>  (19) 
O=C(NCC(=O)N1CC[C@H](CO)C1)c1ccc2cc(Cl)ccc2n1

>  <score_type>  (19) 
oracle

>  <origin>  (19) 
autodockgpu

>  <m_score__min__energy>  (19) 
-7.6399999999999997

>  <m_primary>  (19) 
energy

>  <rmsd>  (19) 
3.8981320578119285

>  <m_score__min__rmsd>  (19) 
3.8981320578119285

>  <meeko>  (19) 
{"free_energy": -6.92, "intermolecular_energy": -8.71, "internal_energy": -0.99, "cluster_size": 15, "cluster_id": 2, "rank_in_cluster": 7}

>  <energy>  (19) 
-6.85

>  <cluster_rmsd>  (19) 
0.93

>  <cluster>  (19) 
2

$$$$

     RDKit          3D

 42 44  0  0  0  0  0  0  0  0999 V2000
  138.5990   71.9740  220.9140 O   0  0  0  0  0  0  0  0  0  0  0  0
  139.3090   72.3430  221.8900 C   0  0  0  0  0  0  0  0  0  0  0  0
  139.9230   73.6150  221.8780 N   0  0  0  0  0  0  0  0  0  0  0  0
  139.7710   74.5230  220.7810 C   0  0  0  0  0  0  0  0  0  0  0  0
  141.0480   74.9290  220.1730 C   0  0  0  0  0  0  0  0  0  0  0  0
  141.2250   75.9940  219.5260 O   0  0  0  0  0  0  0  0  0  0  0  0
  142.1670   74.0650  220.3190 N   0  0  0  0  0  0  0  0  0  0  0  0
  142.1000   72.6280  220.0350 C   0  0  0  0  0  0  0  0  0  0  0  0
  143.5490   72.1930  220.0100 C   0  0  0  0  0  0  0  0  0  0  0  0
  144.3230   73.4640  219.8450 C   0  0  2  0  0  0  0  0  0  0  0  0
  145.7270   73.2740  220.3850 C   0  0  0  0  0  0  0  0  0  0  0  0
  146.6500   73.2340  219.3650 O   0  0  0  0  0  0  0  0  0  0  0  0
  143.5210   74.4030  220.7520 C   0  0  0  0  0  0  0  0  0  0  0  0
  139.4980   71.4530  223.0410 C   0  0  0  0  0  0  0  0  0  0  0  0
  139.0490   70.1470  222.9850 C   0  0  0  0  0  0  0  0  0  0  0  0
  139.1950   69.2560  224.0310 C   0  0  0  0  0  0  0  0  0  0  0  0
  139.8290   69.7320  225.1800 C   0  0  0  0  0  0  0  0  0  0  0  0
  139.9830   68.8510  226.2370 C   0  0  0  0  0  0  0  0  0  0  0  0
  140.6110   69.3310  227.3690 C   0  0  0  0  0  0  0  0  0  0  0  0
  140.8260   68.2560  228.7260 Cl  0  0  0  0  0  0  0  0  0  0  0  0
  141.0640   70.6330  227.4360 C   0  0  0  0  0  0  0  0  0  0  0  0
  140.9130   71.5150  226.3840 C   0  0  0  0  0  0  0  0  0  0  0  0
  140.2770   71.0390  225.2310 C   0  0  0  0  0  0  0  0  0  0  0  0
  140.1060   71.8670  224.1750 N   0  0  0  0  0  0  0  0  0  0  0  0
  140.5090   73.8900  222.7090 H   0  0  0  0  0  0  0  0  0  0  0  0
  139.1571   74.0363  220.0089 H   0  0  0  0  0  0  0  0  0  0  0  0
  139.2981   75.4334  221.1780 H   0  0  0  0  0  0  0  0  0  0  0  0
  141.5462   72.0986  220.8244 H   0  0  0  0  0  0  0  0  0  0  0  0
  141.5745   72.4059  219.0945 H   0  0  0  0  0  0  0  0  0  0  0  0
  143.8204   71.6927  220.9513 H   0  0  0  0  0  0  0  0  0  0  0  0
  143.7540   71.4726  219.2044 H   0  0  0  0  0  0  0  0  0  0  0  0
  144.4349   73.8176  218.8094 H   0  0  0  0  0  0  0  0  0  0  0  0
  145.9698   74.1109  221.0563 H   0  0  0  0  0  0  0  0  0  0  0  0
  145.7656   72.3182  220.9281 H   0  0  0  0  0  0  0  0  0  0  0  0
  146.6790   74.1360  218.9600 H   0  0  0  0  0  0  0  0  0  0  0  0
  143.6788   74.1775  221.8170 H   0  0  0  0  0  0  0  0  0  0  0  0
  143.7846   75.4679  220.6709 H   0  0  0  0  0  0  0  0  0  0  0  0
  138.5529   69.8013  222.0661 H   0  0  0  0  0  0  0  0  0  0  0  0
  138.8291   68.2210  223.9616 H   0  0  0  0  0  0  0  0  0  0  0  0
  139.6209   67.8140  226.1774 H   0  0  0  0  0  0  0  0  0  0  0  0
  141.5602   70.9786  228.3549 H   0  0  0  0  0  0  0  0  0  0  0  0
  141.2780   72.5506  226.4494 H   0  0  0  0  0  0  0  0  0  0  0  0
  1  2  2  0
  2  3  1  0
  3  4  1  0
  4  5  1  0
  5  6  2  0
  5  7  1  0
  7  8  1  0
  8  9  1  0
  9 10  1  0
 10 11  1  0
 11 12  1  0
 10 13  1  0
  2 14  1  0
 14 15  2  0
 15 16  1  0
 16 17  2  0
 17 18  1  0
 18 19  2  0
 19 20  1  0
 19 21  1  0
 21 22  2  0
 22 23  1  0
 23 24  2  0
 13  7  1  0
 24 14  1  0
 23 17  1  0
  3 25  1  0
  4 26  1  0
  4 27  1  0
  8 28  1  0
  8 29  1  0
  9 30  1  0
  9 31  1  0
 10 32  1  6
 11 33  1  0
 11 34  1  0
 12 35  1  0
 13 36  1  0
 13 37  1  0
 15 38  1  0
 16 39  1  0
 18 40  1  0
 21 41  1  0
 22 42  1  0
M  END
>  <smiles>  (20) 
O=C(NCC(=O)N1CC[C@H](CO)C1)c1ccc2cc(Cl)ccc2n1

>  <score_type>  (20) 
oracle

>  <origin>  (20) 
autodockgpu

>  <m_score__min__energy>  (20) 
-7.6399999999999997

>  <m_primary>  (20) 
energy

>  <rmsd>  (20) 
3.522275625779096

>  <m_score__min__rmsd>  (20) 
3.522275625779096

>  <meeko>  (20) 
{"free_energy": -6.74, "intermolecular_energy": -8.53, "internal_energy": -1.17, "cluster_size": 15, "cluster_id": 2, "rank_in_cluster": 11}

>  <energy>  (20) 
-6.82

>  <cluster_rmsd>  (20) 
0.95

>  <cluster>  (20) 
2

$$$$

     RDKit          3D

 42 44  0  0  0  0  0  0  0  0999 V2000
  135.2970   70.2170  224.4820 O   0  0  0  0  0  0  0  0  0  0  0  0
  135.5630   71.4460  224.5900 C   0  0  0  0  0  0  0  0  0  0  0  0
  136.7320   71.9720  223.9970 N   0  0  0  0  0  0  0  0  0  0  0  0
  137.6490   71.1530  223.2630 C   0  0  0  0  0  0  0  0  0  0  0  0
  139.0600   71.4250  223.5760 C   0  0  0  0  0  0  0  0  0  0  0  0
  139.7660   72.2930  223.0000 O   0  0  0  0  0  0  0  0  0  0  0  0
  139.6810   70.6600  224.6000 N   0  0  0  0  0  0  0  0  0  0  0  0
  140.8250   71.1530  225.3750 C   0  0  0  0  0  0  0  0  0  0  0  0
  140.9320   70.1780  226.5270 C   0  0  0  0  0  0  0  0  0  0  0  0
  139.6050   69.4850  226.5620 C   0  0  2  0  0  0  0  0  0  0  0  0
  139.7610   68.1320  227.2290 C   0  0  0  0  0  0  0  0  0  0  0  0
  139.2160   67.1320  226.4550 O   0  0  0  0  0  0  0  0  0  0  0  0
  139.3340   69.3180  225.0640 C   0  0  0  0  0  0  0  0  0  0  0  0
  134.6580   72.3330  225.3310 C   0  0  0  0  0  0  0  0  0  0  0  0
  133.5780   71.8050  226.0110 C   0  0  0  0  0  0  0  0  0  0  0  0
  132.6880   72.5810  226.7280 C   0  0  0  0  0  0  0  0  0  0  0  0
  132.9220   73.9560  226.7430 C   0  0  0  0  0  0  0  0  0  0  0  0
  132.0380   74.7480  227.4570 C   0  0  0  0  0  0  0  0  0  0  0  0
  132.2790   76.1080  227.4660 C   0  0  0  0  0  0  0  0  0  0  0  0
  131.1900   77.1440  228.3530 Cl  0  0  0  0  0  0  0  0  0  0  0  0
  133.3550   76.6470  226.7900 C   0  0  0  0  0  0  0  0  0  0  0  0
  134.2390   75.8610  226.0770 C   0  0  0  0  0  0  0  0  0  0  0  0
  134.0050   74.4810  226.0610 C   0  0  0  0  0  0  0  0  0  0  0  0
  134.8440   73.6720  225.3750 N   0  0  0  0  0  0  0  0  0  0  0  0
  136.9220   73.0030  224.1070 H   0  0  0  0  0  0  0  0  0  0  0  0
  137.4377   70.0990  223.4963 H   0  0  0  0  0  0  0  0  0  0  0  0
  137.5046   71.3819  222.1968 H   0  0  0  0  0  0  0  0  0  0  0  0
  141.7422   71.1435  224.7678 H   0  0  0  0  0  0  0  0  0  0  0  0
  140.6939   72.1925  225.7101 H   0  0  0  0  0  0  0  0  0  0  0  0
  141.7425   69.4556  226.3500 H   0  0  0  0  0  0  0  0  0  0  0  0
  141.1647   70.6803  227.4775 H   0  0  0  0  0  0  0  0  0  0  0  0
  138.8107   70.0116  227.1114 H   0  0  0  0  0  0  0  0  0  0  0  0
  140.8312   67.9269  227.3796 H   0  0  0  0  0  0  0  0  0  0  0  0
  139.2323   68.1548  228.1934 H   0  0  0  0  0  0  0  0  0  0  0  0
  139.3760   66.2760  226.9270 H   0  0  0  0  0  0  0  0  0  0  0  0
  139.9797   68.5494  224.6142 H   0  0  0  0  0  0  0  0  0  0  0  0
  138.3174   68.9846  224.8084 H   0  0  0  0  0  0  0  0  0  0  0  0
  133.4193   70.7169  225.9803 H   0  0  0  0  0  0  0  0  0  0  0  0
  131.8354   72.1358  227.2617 H   0  0  0  0  0  0  0  0  0  0  0  0
  131.1817   74.3130  227.9933 H   0  0  0  0  0  0  0  0  0  0  0  0
  133.5132   77.7352  226.8200 H   0  0  0  0  0  0  0  0  0  0  0  0
  135.0934   76.3021  225.5427 H   0  0  0  0  0  0  0  0  0  0  0  0
  1  2  2  0
  2  3  1  0
  3  4  1  0
  4  5  1  0
  5  6  2  0
  5  7  1  0
  7  8  1  0
  8  9  1  0
  9 10  1  0
 10 11  1  0
 11 12  1  0
 10 13  1  0
  2 14  1  0
 14 15  2  0
 15 16  1  0
 16 17  2  0
 17 18  1  0
 18 19  2  0
 19 20  1  0
 19 21  1  0
 21 22  2  0
 22 23  1  0
 23 24  2  0
 13  7  1  0
 24 14  1  0
 23 17  1  0
  3 25  1  0
  4 26  1  0
  4 27  1  0
  8 28  1  0
  8 29  1  0
  9 30  1  0
  9 31  1  0
 10 32  1  1
 11 33  1  0
 11 34  1  0
 12 35  1  0
 13 36  1  0
 13 37  1  0
 15 38  1  0
 16 39  1  0
 18 40  1  0
 21 41  1  0
 22 42  1  0
M  END
>  <smiles>  (21) 
O=C(NCC(=O)N1CC[C@H](CO)C1)c1ccc2cc(Cl)ccc2n1

>  <score_type>  (21) 
oracle

>  <origin>  (21) 
autodockgpu

>  <m_score__min__energy>  (21) 
-7.6399999999999997

>  <m_primary>  (21) 
energy

>  <rmsd>  (21) 
8.56101743982648

>  <m_score__min__rmsd>  (21) 
8.56101743982648

>  <meeko>  (21) 
{"free_energy": -7.0, "intermolecular_energy": -8.79, "internal_energy": -1.07, "cluster_size": 4, "cluster_id": 4, "rank_in_cluster": 2}

>  <energy>  (21) 
-6.74

>  <cluster_rmsd>  (21) 
0.81

>  <cluster>  (21) 
2

$$$$

     RDKit          3D

 42 44  0  0  0  0  0  0  0  0999 V2000
  140.3950   71.3250  221.4560 O   0  0  0  0  0  0  0  0  0  0  0  0
  139.7960   72.3280  221.9330 C   0  0  0  0  0  0  0  0  0  0  0  0
  138.6320   72.1520  222.7140 N   0  0  0  0  0  0  0  0  0  0  0  0
  138.0920   70.8560  222.9950 C   0  0  0  0  0  0  0  0  0  0  0  0
  139.0490   69.9490  223.6480 C   0  0  0  0  0  0  0  0  0  0  0  0
  139.5740   68.9470  223.0960 O   0  0  0  0  0  0  0  0  0  0  0  0
  139.4130   70.2130  224.9950 N   0  0  0  0  0  0  0  0  0  0  0  0
  139.2730   69.2180  226.0640 C   0  0  0  0  0  0  0  0  0  0  0  0
  140.0630   69.8040  227.2130 C   0  0  0  0  0  0  0  0  0  0  0  0
  140.9350   70.8460  226.5830 C   0  0  2  0  0  0  0  0  0  0  0  0
  141.3160   71.8810  227.6230 C   0  0  0  0  0  0  0  0  0  0  0  0
  140.3900   71.9260  228.6410 O   0  0  0  0  0  0  0  0  0  0  0  0
  139.9640   71.4430  225.5590 C   0  0  0  0  0  0  0  0  0  0  0  0
  140.3050   73.6810  221.6780 C   0  0  0  0  0  0  0  0  0  0  0  0
  141.3720   73.8660  220.8200 C   0  0  0  0  0  0  0  0  0  0  0  0
  141.9010   75.1110  220.5350 C   0  0  0  0  0  0  0  0  0  0  0  0
  141.3060   76.2060  221.1620 C   0  0  0  0  0  0  0  0  0  0  0  0
  141.8250   77.4600  220.8870 C   0  0  0  0  0  0  0  0  0  0  0  0
  141.2290   78.5370  221.5120 C   0  0  0  0  0  0  0  0  0  0  0  0
  141.8500   80.1370  221.1950 Cl  0  0  0  0  0  0  0  0  0  0  0  0
  140.1620   78.3640  222.3710 C   0  0  0  0  0  0  0  0  0  0  0  0
  139.6410   77.1160  222.6480 C   0  0  0  0  0  0  0  0  0  0  0  0
  140.2380   76.0160  222.0200 C   0  0  0  0  0  0  0  0  0  0  0  0
  139.7620   74.7730  222.2610 N   0  0  0  0  0  0  0  0  0  0  0  0
  138.1580   73.0120  223.0970 H   0  0  0  0  0  0  0  0  0  0  0  0
  137.2213   70.9777  223.6561 H   0  0  0  0  0  0  0  0  0  0  0  0
  137.8235   70.4018  222.0298 H   0  0  0  0  0  0  0  0  0  0  0  0
  138.2166   69.0880  226.3416 H   0  0  0  0  0  0  0  0  0  0  0  0
  139.6331   68.2222  225.7662 H   0  0  0  0  0  0  0  0  0  0  0  0
  139.3897   70.2584  227.9547 H   0  0  0  0  0  0  0  0  0  0  0  0
  140.6471   69.0409  227.7483 H   0  0  0  0  0  0  0  0  0  0  0  0
  141.8786   70.4776  226.1541 H   0  0  0  0  0  0  0  0  0  0  0  0
  142.2993   71.6229  228.0431 H   0  0  0  0  0  0  0  0  0  0  0  0
  141.3494   72.8676  227.1377 H   0  0  0  0  0  0  0  0  0  0  0  0
  140.0870   72.8660  228.7200 H   0  0  0  0  0  0  0  0  0  0  0  0
  139.1879   72.0564  226.0400 H   0  0  0  0  0  0  0  0  0  0  0  0
  140.4200   72.1273  224.8283 H   0  0  0  0  0  0  0  0  0  0  0  0
  141.8208   72.9827  220.3421 H   0  0  0  0  0  0  0  0  0  0  0  0
  142.7505   75.2324  219.8468 H   0  0  0  0  0  0  0  0  0  0  0  0
  142.6746   77.5921  220.2009 H   0  0  0  0  0  0  0  0  0  0  0  0
  139.7135   79.2473  222.8491 H   0  0  0  0  0  0  0  0  0  0  0  0
  138.7908   76.9907  223.3346 H   0  0  0  0  0  0  0  0  0  0  0  0
  1  2  2  0
  2  3  1  0
  3  4  1  0
  4  5  1  0
  5  6  2  0
  5  7  1  0
  7  8  1  0
  8  9  1  0
  9 10  1  0
 10 11  1  0
 11 12  1  0
 10 13  1  0
  2 14  1  0
 14 15  2  0
 15 16  1  0
 16 17  2  0
 17 18  1  0
 18 19  2  0
 19 20  1  0
 19 21  1  0
 21 22  2  0
 22 23  1  0
 23 24  2  0
 13  7  1  0
 24 14  1  0
 23 17  1  0
  3 25  1  0
  4 26  1  0
  4 27  1  0
  8 28  1  0
  8 29  1  0
  9 30  1  0
  9 31  1  0
 10 32  1  6
 11 33  1  0
 11 34  1  0
 12 35  1  0
 13 36  1  0
 13 37  1  0
 15 38  1  0
 16 39  1  0
 18 40  1  0
 21 41  1  0
 22 42  1  0
M  END
>  <smiles>  (22) 
O=C(NCC(=O)N1CC[C@H](CO)C1)c1ccc2cc(Cl)ccc2n1

>  <score_type>  (22) 
oracle

>  <origin>  (22) 
autodockgpu

>  <m_score__min__energy>  (22) 
-7.6399999999999997

>  <m_primary>  (22) 
energy

>  <rmsd>  (22) 
8.517787384090493

>  <m_score__min__rmsd>  (22) 
8.517787384090493

>  <meeko>  (22) 
{"free_energy": -6.64, "intermolecular_energy": -8.43, "internal_energy": -1.12, "cluster_size": 4, "cluster_id": 6, "rank_in_cluster": 2}

>  <energy>  (22) 
-6.71

>  <cluster_rmsd>  (22) 
0.79

>  <cluster>  (22) 
2

$$$$

     RDKit          3D

 42 44  0  0  0  0  0  0  0  0999 V2000
  141.7270   73.0450  220.6480 O   0  0  0  0  0  0  0  0  0  0  0  0
  141.0430   73.8010  221.3920 C   0  0  0  0  0  0  0  0  0  0  0  0
  140.1030   73.2490  222.2900 N   0  0  0  0  0  0  0  0  0  0  0  0
  139.8870   71.8370  222.3940 C   0  0  0  0  0  0  0  0  0  0  0  0
  139.0530   71.4530  223.5440 C   0  0  0  0  0  0  0  0  0  0  0  0
  137.8240   71.7020  223.6490 O   0  0  0  0  0  0  0  0  0  0  0  0
  139.6680   70.7520  224.6160 N   0  0  0  0  0  0  0  0  0  0  0  0
  140.5650   71.4020  225.5760 C   0  0  0  0  0  0  0  0  0  0  0  0
  140.7090   70.3860  226.6870 C   0  0  0  0  0  0  0  0  0  0  0  0
  139.5620   69.4430  226.4900 C   0  0  2  0  0  0  0  0  0  0  0  0
  139.8980   68.1020  227.1110 C   0  0  0  0  0  0  0  0  0  0  0  0
  139.2050   67.0830  226.4980 O   0  0  0  0  0  0  0  0  0  0  0  0
  139.5440   69.3380  224.9610 C   0  0  0  0  0  0  0  0  0  0  0  0
  141.2240   75.2560  221.3290 C   0  0  0  0  0  0  0  0  0  0  0  0
  141.9940   75.8130  220.3260 C   0  0  0  0  0  0  0  0  0  0  0  0
  142.2050   77.1730  220.2070 C   0  0  0  0  0  0  0  0  0  0  0  0
  141.5970   77.9910  221.1600 C   0  0  0  0  0  0  0  0  0  0  0  0
  141.7980   79.3570  221.0540 C   0  0  0  0  0  0  0  0  0  0  0  0
  141.1920   80.1560  222.0020 C   0  0  0  0  0  0  0  0  0  0  0  0
  141.4200   81.8840  221.9080 Cl  0  0  0  0  0  0  0  0  0  0  0  0
  140.4200   79.6110  223.0090 C   0  0  0  0  0  0  0  0  0  0  0  0
  140.2160   78.2510  223.1180 C   0  0  0  0  0  0  0  0  0  0  0  0
  140.8260   77.4290  222.1620 C   0  0  0  0  0  0  0  0  0  0  0  0
  140.6550   76.0890  222.2290 N   0  0  0  0  0  0  0  0  0  0  0  0
  139.5500   73.9100  222.8970 H   0  0  0  0  0  0  0  0  0  0  0  0
  139.3918   71.4920  221.4744 H   0  0  0  0  0  0  0  0  0  0  0  0
  140.8720   71.3692  222.5386 H   0  0  0  0  0  0  0  0  0  0  0  0
  141.5401   71.6187  225.1154 H   0  0  0  0  0  0  0  0  0  0  0  0
  140.1763   72.3673  225.9325 H   0  0  0  0  0  0  0  0  0  0  0  0
  141.6679   69.8534  226.6039 H   0  0  0  0  0  0  0  0  0  0  0  0
  140.6976   70.8533  227.6827 H   0  0  0  0  0  0  0  0  0  0  0  0
  138.6078   69.7597  226.9363 H   0  0  0  0  0  0  0  0  0  0  0  0
  140.9771   67.9172  227.0042 H   0  0  0  0  0  0  0  0  0  0  0  0
  139.6127   68.1282  228.1730 H   0  0  0  0  0  0  0  0  0  0  0  0
  139.5490   66.2310  226.8670 H   0  0  0  0  0  0  0  0  0  0  0  0
  140.3910   68.7479  224.5810 H   0  0  0  0  0  0  0  0  0  0  0  0
  138.6642   68.8303  224.5387 H   0  0  0  0  0  0  0  0  0  0  0  0
  142.4602   75.1430  219.5887 H   0  0  0  0  0  0  0  0  0  0  0  0
  142.8232   77.5914  219.3990 H   0  0  0  0  0  0  0  0  0  0  0  0
  142.4135   79.7862  220.2497 H   0  0  0  0  0  0  0  0  0  0  0  0
  139.9538   80.2813  223.7462 H   0  0  0  0  0  0  0  0  0  0  0  0
  139.5983   77.8286  223.9243 H   0  0  0  0  0  0  0  0  0  0  0  0
  1  2  2  0
  2  3  1  0
  3  4  1  0
  4  5  1  0
  5  6  2  0
  5  7  1  0
  7  8  1  0
  8  9  1  0
  9 10  1  0
 10 11  1  0
 11 12  1  0
 10 13  1  0
  2 14  1  0
 14 15  2  0
 15 16  1  0
 16 17  2  0
 17 18  1  0
 18 19  2  0
 19 20  1  0
 19 21  1  0
 21 22  2  0
 22 23  1  0
 23 24  2  0
 13  7  1  0
 24 14  1  0
 23 17  1  0
  3 25  1  0
  4 26  1  0
  4 27  1  0
  8 28  1  0
  8 29  1  0
  9 30  1  0
  9 31  1  0
 10 32  1  1
 11 33  1  0
 11 34  1  0
 12 35  1  0
 13 36  1  0
 13 37  1  0
 15 38  1  0
 16 39  1  0
 18 40  1  0
 21 41  1  0
 22 42  1  0
M  END
>  <smiles>  (23) 
O=C(NCC(=O)N1CC[C@H](CO)C1)c1ccc2cc(Cl)ccc2n1

>  <score_type>  (23) 
oracle

>  <origin>  (23) 
autodockgpu

>  <m_score__min__energy>  (23) 
-7.6399999999999997

>  <m_primary>  (23) 
energy

>  <rmsd>  (23) 
9.01557686370697

>  <m_score__min__rmsd>  (23) 
9.01557686370697

>  <meeko>  (23) 
{"free_energy": -7.27, "intermolecular_energy": -9.06, "internal_energy": -0.97, "cluster_size": 15, "cluster_id": 3, "rank_in_cluster": 7}

>  <energy>  (23) 
-6.7

>  <cluster_rmsd>  (23) 
0.87

>  <cluster>  (23) 
2

$$$$

     RDKit          3D

 42 44  0  0  0  0  0  0  0  0999 V2000
  141.6180   72.9560  220.8340 O   0  0  0  0  0  0  0  0  0  0  0  0
  140.8770   73.7430  221.4850 C   0  0  0  0  0  0  0  0  0  0  0  0
  139.8350   73.2310  222.2900 N   0  0  0  0  0  0  0  0  0  0  0  0
  139.5780   71.8270  222.4010 C   0  0  0  0  0  0  0  0  0  0  0  0
  138.8540   71.4570  223.6270 C   0  0  0  0  0  0  0  0  0  0  0  0
  137.6540   71.7510  223.8640 O   0  0  0  0  0  0  0  0  0  0  0  0
  139.5490   70.7150  224.6190 N   0  0  0  0  0  0  0  0  0  0  0  0
  140.6320   71.2890  225.4250 C   0  0  0  0  0  0  0  0  0  0  0  0
  140.8390   70.2780  226.5310 C   0  0  0  0  0  0  0  0  0  0  0  0
  139.5930   69.4470  226.5240 C   0  0  2  0  0  0  0  0  0  0  0  0
  139.8900   68.0890  227.1270 C   0  0  0  0  0  0  0  0  0  0  0  0
  139.2090   67.0910  226.4660 O   0  0  0  0  0  0  0  0  0  0  0  0
  139.3460   69.3230  225.0170 C   0  0  0  0  0  0  0  0  0  0  0  0
  141.0960   75.1920  221.4100 C   0  0  0  0  0  0  0  0  0  0  0  0
  141.9270   75.7150  220.4380 C   0  0  0  0  0  0  0  0  0  0  0  0
  142.1760   77.0680  220.3100 C   0  0  0  0  0  0  0  0  0  0  0  0
  141.5430   77.9140  221.2210 C   0  0  0  0  0  0  0  0  0  0  0  0
  141.7820   79.2740  221.1060 C   0  0  0  0  0  0  0  0  0  0  0  0
  141.1510   80.1020  222.0120 C   0  0  0  0  0  0  0  0  0  0  0  0
  141.4240   81.8220  221.9050 Cl  0  0  0  0  0  0  0  0  0  0  0  0
  140.3180   79.5900  222.9870 C   0  0  0  0  0  0  0  0  0  0  0  0
  140.0750   78.2370  223.1050 C   0  0  0  0  0  0  0  0  0  0  0  0
  140.7110   77.3860  222.1920 C   0  0  0  0  0  0  0  0  0  0  0  0
  140.5040   76.0520  222.2690 N   0  0  0  0  0  0  0  0  0  0  0  0
  139.2360   73.9170  222.8200 H   0  0  0  0  0  0  0  0  0  0  0  0
  138.9775   71.5136  221.5343 H   0  0  0  0  0  0  0  0  0  0  0  0
  140.5544   71.3217  222.4375 H   0  0  0  0  0  0  0  0  0  0  0  0
  141.5467   71.4053  224.8251 H   0  0  0  0  0  0  0  0  0  0  0  0
  140.3901   72.2917  225.8072 H   0  0  0  0  0  0  0  0  0  0  0  0
  141.7221   69.6548  226.3267 H   0  0  0  0  0  0  0  0  0  0  0  0
  141.0145   70.7571  227.5055 H   0  0  0  0  0  0  0  0  0  0  0  0
  138.7460   69.8597  227.0917 H   0  0  0  0  0  0  0  0  0  0  0  0
  140.9702   67.8936  227.0567 H   0  0  0  0  0  0  0  0  0  0  0  0
  139.5647   68.0957  228.1778 H   0  0  0  0  0  0  0  0  0  0  0  0
  139.3720   66.2480  226.9580 H   0  0  0  0  0  0  0  0  0  0  0  0
  140.0716   68.6498  224.5371 H   0  0  0  0  0  0  0  0  0  0  0  0
  138.3717   68.8955  224.7378 H   0  0  0  0  0  0  0  0  0  0  0  0
  142.4124   75.0229  219.7342 H   0  0  0  0  0  0  0  0  0  0  0  0
  142.8418   77.4596  219.5268 H   0  0  0  0  0  0  0  0  0  0  0  0
  142.4458   79.6762  220.3265 H   0  0  0  0  0  0  0  0  0  0  0  0
  139.8332   80.2821  223.6913 H   0  0  0  0  0  0  0  0  0  0  0  0
  139.4080   77.8420  223.8854 H   0  0  0  0  0  0  0  0  0  0  0  0
  1  2  2  0
  2  3  1  0
  3  4  1  0
  4  5  1  0
  5  6  2  0
  5  7  1  0
  7  8  1  0
  8  9  1  0
  9 10  1  0
 10 11  1  0
 11 12  1  0
 10 13  1  0
  2 14  1  0
 14 15  2  0
 15 16  1  0
 16 17  2  0
 17 18  1  0
 18 19  2  0
 19 20  1  0
 19 21  1  0
 21 22  2  0
 22 23  1  0
 23 24  2  0
 13  7  1  0
 24 14  1  0
 23 17  1  0
  3 25  1  0
  4 26  1  0
  4 27  1  0
  8 28  1  0
  8 29  1  0
  9 30  1  0
  9 31  1  0
 10 32  1  1
 11 33  1  0
 11 34  1  0
 12 35  1  0
 13 36  1  0
 13 37  1  0
 15 38  1  0
 16 39  1  0
 18 40  1  0
 21 41  1  0
 22 42  1  0
M  END
>  <smiles>  (24) 
O=C(NCC(=O)N1CC[C@H](CO)C1)c1ccc2cc(Cl)ccc2n1

>  <score_type>  (24) 
oracle

>  <origin>  (24) 
autodockgpu

>  <m_score__min__energy>  (24) 
-7.6399999999999997

>  <m_primary>  (24) 
energy

>  <rmsd>  (24) 
8.977356249369194

>  <m_score__min__rmsd>  (24) 
8.977356249369194

>  <meeko>  (24) 
{"free_energy": -7.29, "intermolecular_energy": -9.08, "internal_energy": -0.99, "cluster_size": 15, "cluster_id": 3, "rank_in_cluster": 2}

>  <energy>  (24) 
-6.69

>  <cluster_rmsd>  (24) 
0.87

>  <cluster>  (24) 
2

$$$$

     RDKit          3D

 42 44  0  0  0  0  0  0  0  0999 V2000
  138.8050   71.8690  220.8420 O   0  0  0  0  0  0  0  0  0  0  0  0
  139.2630   72.3250  221.9260 C   0  0  0  0  0  0  0  0  0  0  0  0
  139.5570   73.7010  222.0470 N   0  0  0  0  0  0  0  0  0  0  0  0
  139.3520   74.6210  220.9680 C   0  0  0  0  0  0  0  0  0  0  0  0
  140.5670   74.8830  220.1800 C   0  0  0  0  0  0  0  0  0  0  0  0
  140.6980   75.8300  219.3630 O   0  0  0  0  0  0  0  0  0  0  0  0
  141.6770   74.0110  220.3470 N   0  0  0  0  0  0  0  0  0  0  0  0
  141.6080   72.5760  220.0510 C   0  0  0  0  0  0  0  0  0  0  0  0
  143.0540   72.1330  220.0560 C   0  0  0  0  0  0  0  0  0  0  0  0
  143.8400   73.4010  219.9190 C   0  0  2  0  0  0  0  0  0  0  0  0
  145.2290   73.1980  220.4900 C   0  0  0  0  0  0  0  0  0  0  0  0
  146.1850   73.2470  219.5010 O   0  0  0  0  0  0  0  0  0  0  0  0
  143.0220   74.3380  220.8130 C   0  0  0  0  0  0  0  0  0  0  0  0
  139.4910   71.4280  223.0650 C   0  0  0  0  0  0  0  0  0  0  0  0
  139.1140   70.1010  222.9850 C   0  0  0  0  0  0  0  0  0  0  0  0
  139.2990   69.2030  224.0180 C   0  0  0  0  0  0  0  0  0  0  0  0
  139.8980   69.6930  225.1790 C   0  0  0  0  0  0  0  0  0  0  0  0
  140.0920   68.8050  226.2240 C   0  0  0  0  0  0  0  0  0  0  0  0
  140.6850   69.3000  227.3680 C   0  0  0  0  0  0  0  0  0  0  0  0
  140.9480   68.2160  228.7100 Cl  0  0  0  0  0  0  0  0  0  0  0  0
  141.0670   70.6240  227.4580 C   0  0  0  0  0  0  0  0  0  0  0  0
  140.8770   71.5130  226.4200 C   0  0  0  0  0  0  0  0  0  0  0  0
  140.2750   71.0220  225.2540 C   0  0  0  0  0  0  0  0  0  0  0  0
  140.0680   71.8560  224.2100 N   0  0  0  0  0  0  0  0  0  0  0  0
  139.9380   74.0480  222.9660 H   0  0  0  0  0  0  0  0  0  0  0  0
  138.5852   74.2057  220.2975 H   0  0  0  0  0  0  0  0  0  0  0  0
  139.0432   75.5781  221.4136 H   0  0  0  0  0  0  0  0  0  0  0  0
  141.0332   72.0443  220.8236 H   0  0  0  0  0  0  0  0  0  0  0  0
  141.1028   72.3637  219.0972 H   0  0  0  0  0  0  0  0  0  0  0  0
  143.3005   71.6237  220.9993 H   0  0  0  0  0  0  0  0  0  0  0  0
  143.2733   71.4179  219.2494 H   0  0  0  0  0  0  0  0  0  0  0  0
  143.9791   73.7619  218.8892 H   0  0  0  0  0  0  0  0  0  0  0  0
  145.4335   73.9891  221.2264 H   0  0  0  0  0  0  0  0  0  0  0  0
  145.2692   72.2067  220.9650 H   0  0  0  0  0  0  0  0  0  0  0  0
  146.1070   74.1300  219.0610 H   0  0  0  0  0  0  0  0  0  0  0  0
  143.1538   74.1045  221.8798 H   0  0  0  0  0  0  0  0  0  0  0  0
  143.2932   75.4019  220.7448 H   0  0  0  0  0  0  0  0  0  0  0  0
  138.6452   69.7435  222.0563 H   0  0  0  0  0  0  0  0  0  0  0  0
  138.9888   68.1514  223.9296 H   0  0  0  0  0  0  0  0  0  0  0  0
  139.7868   67.7511  226.1457 H   0  0  0  0  0  0  0  0  0  0  0  0
  141.5374   70.9810  228.3860 H   0  0  0  0  0  0  0  0  0  0  0  0
  141.1859   72.5654  226.5046 H   0  0  0  0  0  0  0  0  0  0  0  0
  1  2  2  0
  2  3  1  0
  3  4  1  0
  4  5  1  0
  5  6  2  0
  5  7  1  0
  7  8  1  0
  8  9  1  0
  9 10  1  0
 10 11  1  0
 11 12  1  0
 10 13  1  0
  2 14  1  0
 14 15  2  0
 15 16  1  0
 16 17  2  0
 17 18  1  0
 18 19  2  0
 19 20  1  0
 19 21  1  0
 21 22  2  0
 22 23  1  0
 23 24  2  0
 13  7  1  0
 24 14  1  0
 23 17  1  0
  3 25  1  0
  4 26  1  0
  4 27  1  0
  8 28  1  0
  8 29  1  0
  9 30  1  0
  9 31  1  0
 10 32  1  6
 11 33  1  0
 11 34  1  0
 12 35  1  0
 13 36  1  0
 13 37  1  0
 15 38  1  0
 16 39  1  0
 18 40  1  0
 21 41  1  0
 22 42  1  0
M  END
>  <smiles>  (25) 
O=C(NCC(=O)N1CC[C@H](CO)C1)c1ccc2cc(Cl)ccc2n1

>  <score_type>  (25) 
oracle

>  <origin>  (25) 
autodockgpu

>  <m_score__min__energy>  (25) 
-7.6399999999999997

>  <m_primary>  (25) 
energy

>  <rmsd>  (25) 
3.3584424371412047

>  <m_score__min__rmsd>  (25) 
3.3584424371412047

>  <meeko>  (25) 
{"free_energy": -6.71, "intermolecular_energy": -8.5, "internal_energy": -1.15, "cluster_size": 15, "cluster_id": 2, "rank_in_cluster": 12}

>  <energy>  (25) 
-6.59

>  <cluster_rmsd>  (25) 
1.25

>  <cluster>  (25) 
2

$$$$

     RDKit          3D

 42 44  0  0  0  0  0  0  0  0999 V2000
  139.1340   71.7520  220.8630 O   0  0  0  0  0  0  0  0  0  0  0  0
  139.4570   72.2310  221.9850 C   0  0  0  0  0  0  0  0  0  0  0  0
  139.6570   73.6220  222.1290 N   0  0  0  0  0  0  0  0  0  0  0  0
  139.5060   74.5320  221.0340 C   0  0  0  0  0  0  0  0  0  0  0  0
  140.4240   74.2640  219.9160 C   0  0  0  0  0  0  0  0  0  0  0  0
  140.1520   74.4660  218.7040 O   0  0  0  0  0  0  0  0  0  0  0  0
  141.7110   73.7410  220.2140 N   0  0  0  0  0  0  0  0  0  0  0  0
  142.0060   72.3050  220.1960 C   0  0  0  0  0  0  0  0  0  0  0  0
  143.5170   72.2420  220.2460 C   0  0  0  0  0  0  0  0  0  0  0  0
  143.9670   73.6150  219.8520 C   0  0  2  0  0  0  0  0  0  0  0  0
  145.3500   73.8730  220.4150 C   0  0  0  0  0  0  0  0  0  0  0  0
  146.3270   73.3860  219.5750 O   0  0  0  0  0  0  0  0  0  0  0  0
  142.9230   74.4720  220.5750 C   0  0  0  0  0  0  0  0  0  0  0  0
  139.6240   71.3460  223.1430 C   0  0  0  0  0  0  0  0  0  0  0  0
  139.1860   70.0370  223.0800 C   0  0  0  0  0  0  0  0  0  0  0  0
  139.3130   69.1510  224.1320 C   0  0  0  0  0  0  0  0  0  0  0  0
  139.9150   69.6340  225.2940 C   0  0  0  0  0  0  0  0  0  0  0  0
  140.0500   68.7570  226.3580 C   0  0  0  0  0  0  0  0  0  0  0  0
  140.6470   69.2450  227.5020 C   0  0  0  0  0  0  0  0  0  0  0  0
  140.8370   68.1750  228.8680 Cl  0  0  0  0  0  0  0  0  0  0  0  0
  141.0900   70.5510  227.5760 C   0  0  0  0  0  0  0  0  0  0  0  0
  140.9580   71.4280  226.5190 C   0  0  0  0  0  0  0  0  0  0  0  0
  140.3530   70.9450  225.3520 C   0  0  0  0  0  0  0  0  0  0  0  0
  140.2020   71.7680  224.2900 N   0  0  0  0  0  0  0  0  0  0  0  0
  139.9250   73.9880  223.0810 H   0  0  0  0  0  0  0  0  0  0  0  0
  138.4735   74.4598  220.6614 H   0  0  0  0  0  0  0  0  0  0  0  0
  139.7439   75.5366  221.4137 H   0  0  0  0  0  0  0  0  0  0  0  0
  141.5645   71.8040  221.0701 H   0  0  0  0  0  0  0  0  0  0  0  0
  141.5897   71.7979  219.3130 H   0  0  0  0  0  0  0  0  0  0  0  0
  143.8618   71.9971  221.2614 H   0  0  0  0  0  0  0  0  0  0  0  0
  143.9237   71.4641  219.5831 H   0  0  0  0  0  0  0  0  0  0  0  0
  144.0347   73.7981  218.7695 H   0  0  0  0  0  0  0  0  0  0  0  0
  145.4907   74.9569  220.5391 H   0  0  0  0  0  0  0  0  0  0  0  0
  145.4341   73.3583  221.3835 H   0  0  0  0  0  0  0  0  0  0  0  0
  146.6730   74.1520  219.0520 H   0  0  0  0  0  0  0  0  0  0  0  0
  143.0853   74.4838  221.6629 H   0  0  0  0  0  0  0  0  0  0  0  0
  142.9238   75.5373  220.3009 H   0  0  0  0  0  0  0  0  0  0  0  0
  138.7151   69.6847  222.1504 H   0  0  0  0  0  0  0  0  0  0  0  0
  138.9562   68.1132  224.0570 H   0  0  0  0  0  0  0  0  0  0  0  0
  139.6967   67.7173  226.2935 H   0  0  0  0  0  0  0  0  0  0  0  0
  141.5621   70.9025  228.5053 H   0  0  0  0  0  0  0  0  0  0  0  0
  141.3142   72.4663  226.5902 H   0  0  0  0  0  0  0  0  0  0  0  0
  1  2  2  0
  2  3  1  0
  3  4  1  0
  4  5  1  0
  5  6  2  0
  5  7  1  0
  7  8  1  0
  8  9  1  0
  9 10  1  0
 10 11  1  0
 11 12  1  0
 10 13  1  0
  2 14  1  0
 14 15  2  0
 15 16  1  0
 16 17  2  0
 17 18  1  0
 18 19  2  0
 19 20  1  0
 19 21  1  0
 21 22  2  0
 22 23  1  0
 23 24  2  0
 13  7  1  0
 24 14  1  0
 23 17  1  0
  3 25  1  0
  4 26  1  0
  4 27  1  0
  8 28  1  0
  8 29  1  0
  9 30  1  0
  9 31  1  0
 10 32  1  6
 11 33  1  0
 11 34  1  0
 12 35  1  0
 13 36  1  0
 13 37  1  0
 15 38  1  0
 16 39  1  0
 18 40  1  0
 21 41  1  0
 22 42  1  0
M  END
>  <smiles>  (26) 
O=C(NCC(=O)N1CC[C@H](CO)C1)c1ccc2cc(Cl)ccc2n1

>  <score_type>  (26) 
oracle

>  <origin>  (26) 
autodockgpu

>  <m_score__min__energy>  (26) 
-7.6399999999999997

>  <m_primary>  (26) 
energy

>  <rmsd>  (26) 
3.407725363924796

>  <m_score__min__rmsd>  (26) 
3.407725363924796

>  <meeko>  (26) 
{"free_energy": -6.86, "intermolecular_energy": -8.65, "internal_energy": -1.19, "cluster_size": 15, "cluster_id": 2, "rank_in_cluster": 8}

>  <energy>  (26) 
-7.3

>  <cluster_rmsd>  (26) 
0.0

>  <cluster>  (26) 
3

$$$$

     RDKit          3D

 42 44  0  0  0  0  0  0  0  0999 V2000
  141.3890   73.2020  220.3890 O   0  0  0  0  0  0  0  0  0  0  0  0
  140.8280   73.9340  221.2510 C   0  0  0  0  0  0  0  0  0  0  0  0
  139.9750   73.3600  222.2190 N   0  0  0  0  0  0  0  0  0  0  0  0
  139.7140   71.9520  222.2670 C   0  0  0  0  0  0  0  0  0  0  0  0
  138.9370   71.5380  223.4460 C   0  0  0  0  0  0  0  0  0  0  0  0
  137.7140   71.7790  223.6160 O   0  0  0  0  0  0  0  0  0  0  0  0
  139.6050   70.8140  224.4700 N   0  0  0  0  0  0  0  0  0  0  0  0
  140.4040   71.4690  225.5100 C   0  0  0  0  0  0  0  0  0  0  0  0
  140.6380   70.3770  226.5320 C   0  0  0  0  0  0  0  0  0  0  0  0
  139.6070   69.3370  226.2180 C   0  0  2  0  0  0  0  0  0  0  0  0
  140.0780   67.9900  226.7290 C   0  0  0  0  0  0  0  0  0  0  0  0
  139.1530   67.0060  226.4620 O   0  0  0  0  0  0  0  0  0  0  0  0
  139.6320   69.3690  224.6860 C   0  0  0  0  0  0  0  0  0  0  0  0
  141.0600   75.3830  221.2500 C   0  0  0  0  0  0  0  0  0  0  0  0
  141.9240   75.9430  220.3290 C   0  0  0  0  0  0  0  0  0  0  0  0
  142.1870   77.2980  220.2720 C   0  0  0  0  0  0  0  0  0  0  0  0
  141.5340   78.1060  221.2030 C   0  0  0  0  0  0  0  0  0  0  0  0
  141.7870   79.4670  221.1580 C   0  0  0  0  0  0  0  0  0  0  0  0
  141.1360   80.2580  222.0840 C   0  0  0  0  0  0  0  0  0  0  0  0
  141.4260   81.9790  222.0650 Cl  0  0  0  0  0  0  0  0  0  0  0  0
  140.2700   79.7090  223.0090 C   0  0  0  0  0  0  0  0  0  0  0  0
  140.0140   78.3530  223.0570 C   0  0  0  0  0  0  0  0  0  0  0  0
  140.6690   77.5410  222.1230 C   0  0  0  0  0  0  0  0  0  0  0  0
  140.4500   76.2070  222.1320 N   0  0  0  0  0  0  0  0  0  0  0  0
  139.5230   74.0010  222.9240 H   0  0  0  0  0  0  0  0  0  0  0  0
  139.1523   71.6712  221.3639 H   0  0  0  0  0  0  0  0  0  0  0  0
  140.6881   71.4447  222.3276 H   0  0  0  0  0  0  0  0  0  0  0  0
  141.3580   71.8321  225.0999 H   0  0  0  0  0  0  0  0  0  0  0  0
  139.9029   72.3498  225.9378 H   0  0  0  0  0  0  0  0  0  0  0  0
  141.6516   69.9616  226.4311 H   0  0  0  0  0  0  0  0  0  0  0  0
  140.5551   70.7477  227.5643 H   0  0  0  0  0  0  0  0  0  0  0  0
  138.6144   69.5065  226.6607 H   0  0  0  0  0  0  0  0  0  0  0  0
  141.0281   67.7322  226.2383 H   0  0  0  0  0  0  0  0  0  0  0  0
  140.2106   68.0575  227.8189 H   0  0  0  0  0  0  0  0  0  0  0  0
  139.2160   66.3380  227.1900 H   0  0  0  0  0  0  0  0  0  0  0  0
  140.5470   68.9114  224.2816 H   0  0  0  0  0  0  0  0  0  0  0  0
  138.8230   68.8087  224.1945 H   0  0  0  0  0  0  0  0  0  0  0  0
  142.4252   75.2800  219.6084 H   0  0  0  0  0  0  0  0  0  0  0  0
  142.8785   77.7198  219.5278 H   0  0  0  0  0  0  0  0  0  0  0  0
  142.4761   79.8988  220.4173 H   0  0  0  0  0  0  0  0  0  0  0  0
  139.7689   80.3721  223.7295 H   0  0  0  0  0  0  0  0  0  0  0  0
  139.3229   77.9275  223.7995 H   0  0  0  0  0  0  0  0  0  0  0  0
  1  2  2  0
  2  3  1  0
  3  4  1  0
  4  5  1  0
  5  6  2  0
  5  7  1  0
  7  8  1  0
  8  9  1  0
  9 10  1  0
 10 11  1  0
 11 12  1  0
 10 13  1  0
  2 14  1  0
 14 15  2  0
 15 16  1  0
 16 17  2  0
 17 18  1  0
 18 19  2  0
 19 20  1  0
 19 21  1  0
 21 22  2  0
 22 23  1  0
 23 24  2  0
 13  7  1  0
 24 14  1  0
 23 17  1  0
  3 25  1  0
  4 26  1  0
  4 27  1  0
  8 28  1  0
  8 29  1  0
  9 30  1  0
  9 31  1  0
 10 32  1  1
 11 33  1  0
 11 34  1  0
 12 35  1  0
 13 36  1  0
 13 37  1  0
 15 38  1  0
 16 39  1  0
 18 40  1  0
 21 41  1  0
 22 42  1  0
M  END
>  <smiles>  (27) 
O=C(NCC(=O)N1CC[C@H](CO)C1)c1ccc2cc(Cl)ccc2n1

>  <score_type>  (27) 
oracle

>  <origin>  (27) 
autodockgpu

>  <m_score__min__energy>  (27) 
-7.6399999999999997

>  <m_primary>  (27) 
energy

>  <rmsd>  (27) 
8.996757522007966

>  <m_score__min__rmsd>  (27) 
8.996757522007966

>  <meeko>  (27) 
{"free_energy": -7.17, "intermolecular_energy": -8.96, "internal_energy": -0.97, "cluster_size": 15, "cluster_id": 3, "rank_in_cluster": 12}

>  <energy>  (27) 
-7.29

>  <cluster_rmsd>  (27) 
0.1

>  <cluster>  (27) 
3

$$$$

     RDKit          3D

 42 44  0  0  0  0  0  0  0  0999 V2000
  139.7100   72.1780  220.8430 O   0  0  0  0  0  0  0  0  0  0  0  0
  139.7000   72.5880  222.0360 C   0  0  0  0  0  0  0  0  0  0  0  0
  139.5500   73.9650  222.3110 N   0  0  0  0  0  0  0  0  0  0  0  0
  139.4050   74.9380  221.2700 C   0  0  0  0  0  0  0  0  0  0  0  0
  140.6000   75.7740  221.0770 C   0  0  0  0  0  0  0  0  0  0  0  0
  141.6600   75.3880  220.5200 O   0  0  0  0  0  0  0  0  0  0  0  0
  140.5660   77.1140  221.5480 N   0  0  0  0  0  0  0  0  0  0  0  0
  139.4010   77.6840  222.2340 C   0  0  0  0  0  0  0  0  0  0  0  0
  139.9210   78.9760  222.8240 C   0  0  0  0  0  0  0  0  0  0  0  0
  141.4110   78.8290  222.8060 C   0  0  2  0  0  0  0  0  0  0  0  0
  142.0530   80.2020  222.7960 C   0  0  0  0  0  0  0  0  0  0  0  0
  143.4260   80.1090  222.8160 O   0  0  0  0  0  0  0  0  0  0  0  0
  141.6090   78.1330  221.4550 C   0  0  0  0  0  0  0  0  0  0  0  0
  139.8430   71.6350  223.1430 C   0  0  0  0  0  0  0  0  0  0  0  0
  139.4760   70.3140  222.9690 C   0  0  0  0  0  0  0  0  0  0  0  0
  139.5840   69.3650  223.9670 C   0  0  0  0  0  0  0  0  0  0  0  0
  140.0910   69.7970  225.1930 C   0  0  0  0  0  0  0  0  0  0  0  0
  140.2060   68.8570  226.2050 C   0  0  0  0  0  0  0  0  0  0  0  0
  140.7090   69.2940  227.4140 C   0  0  0  0  0  0  0  0  0  0  0  0
  140.8710   68.1440  228.7170 Cl  0  0  0  0  0  0  0  0  0  0  0  0
  141.0790   70.6110  227.5990 C   0  0  0  0  0  0  0  0  0  0  0  0
  140.9670   71.5510  226.5950 C   0  0  0  0  0  0  0  0  0  0  0  0
  140.4580   71.1190  225.3630 C   0  0  0  0  0  0  0  0  0  0  0  0
  140.3290   72.0050  224.3490 N   0  0  0  0  0  0  0  0  0  0  0  0
  139.5450   74.2720  223.3190 H   0  0  0  0  0  0  0  0  0  0  0  0
  139.1930   74.4110  220.3280 H   0  0  0  0  0  0  0  0  0  0  0  0
  138.5854   75.6090  221.5665 H   0  0  0  0  0  0  0  0  0  0  0  0
  138.5850   77.8793  221.5226 H   0  0  0  0  0  0  0  0  0  0  0  0
  138.9847   77.0078  222.9952 H   0  0  0  0  0  0  0  0  0  0  0  0
  139.6085   79.8353  222.2125 H   0  0  0  0  0  0  0  0  0  0  0  0
  139.5327   79.1571  223.8371 H   0  0  0  0  0  0  0  0  0  0  0  0
  141.8435   78.2913  223.6626 H   0  0  0  0  0  0  0  0  0  0  0  0
  141.7427   80.7367  221.8862 H   0  0  0  0  0  0  0  0  0  0  0  0
  141.7273   80.7456  223.6951 H   0  0  0  0  0  0  0  0  0  0  0  0
  143.6980   79.6080  222.0060 H   0  0  0  0  0  0  0  0  0  0  0  0
  141.4376   78.8187  220.6121 H   0  0  0  0  0  0  0  0  0  0  0  0
  142.6230   77.7472  221.2734 H   0  0  0  0  0  0  0  0  0  0  0  0
  139.0797   70.0040  221.9908 H   0  0  0  0  0  0  0  0  0  0  0  0
  139.2847   68.3193  223.8031 H   0  0  0  0  0  0  0  0  0  0  0  0
  139.9095   67.8089  226.0516 H   0  0  0  0  0  0  0  0  0  0  0  0
  141.4754   70.9208  228.5772 H   0  0  0  0  0  0  0  0  0  0  0  0
  141.2653   72.5976  226.7554 H   0  0  0  0  0  0  0  0  0  0  0  0
  1  2  2  0
  2  3  1  0
  3  4  1  0
  4  5  1  0
  5  6  2  0
  5  7  1  0
  7  8  1  0
  8  9  1  0
  9 10  1  0
 10 11  1  0
 11 12  1  0
 10 13  1  0
  2 14  1  0
 14 15  2  0
 15 16  1  0
 16 17  2  0
 17 18  1  0
 18 19  2  0
 19 20  1  0
 19 21  1  0
 21 22  2  0
 22 23  1  0
 23 24  2  0
 13  7  1  0
 24 14  1  0
 23 17  1  0
  3 25  1  0
  4 26  1  0
  4 27  1  0
  8 28  1  0
  8 29  1  0
  9 30  1  0
  9 31  1  0
 10 32  1  1
 11 33  1  0
 11 34  1  0
 12 35  1  0
 13 36  1  0
 13 37  1  0
 15 38  1  0
 16 39  1  0
 18 40  1  0
 21 41  1  0
 22 42  1  0
M  END
>  <smiles>  (28) 
O=C(NCC(=O)N1CC[C@H](CO)C1)c1ccc2cc(Cl)ccc2n1

>  <score_type>  (28) 
oracle

>  <origin>  (28) 
autodockgpu

>  <m_score__min__energy>  (28) 
-7.6399999999999997

>  <m_primary>  (28) 
energy

>  <rmsd>  (28) 
3.7376166096277483

>  <m_score__min__rmsd>  (28) 
3.7376166096277483

>  <meeko>  (28) 
{"free_energy": -7.47, "intermolecular_energy": -9.26, "internal_energy": -0.86, "cluster_size": 10, "cluster_id": 1, "rank_in_cluster": 4}

>  <energy>  (28) 
-7.29

>  <cluster_rmsd>  (28) 
0.15

>  <cluster>  (28) 
3

$$$$

     RDKit          3D

 42 44  0  0  0  0  0  0  0  0999 V2000
  139.8810   72.3670  220.7130 O   0  0  0  0  0  0  0  0  0  0  0  0
  139.7830   72.8020  221.8940 C   0  0  0  0  0  0  0  0  0  0  0  0
  139.5850   74.1810  222.1270 N   0  0  0  0  0  0  0  0  0  0  0  0
  139.4880   75.1270  221.0560 C   0  0  0  0  0  0  0  0  0  0  0  0
  140.6580   76.0120  220.9460 C   0  0  0  0  0  0  0  0  0  0  0  0
  141.6790   75.7620  220.2540 O   0  0  0  0  0  0  0  0  0  0  0  0
  140.6450   77.2370  221.6650 N   0  0  0  0  0  0  0  0  0  0  0  0
  139.5880   77.5840  222.6200 C   0  0  0  0  0  0  0  0  0  0  0  0
  140.1420   78.7810  223.3600 C   0  0  0  0  0  0  0  0  0  0  0  0
  141.6130   78.7510  223.0820 C   0  0  2  0  0  0  0  0  0  0  0  0
  142.1840   80.1470  223.2370 C   0  0  0  0  0  0  0  0  0  0  0  0
  143.5460   80.1520  223.0310 O   0  0  0  0  0  0  0  0  0  0  0  0
  141.6130   78.3300  221.6090 C   0  0  0  0  0  0  0  0  0  0  0  0
  139.8740   71.8770  223.0300 C   0  0  0  0  0  0  0  0  0  0  0  0
  139.4390   70.5720  222.8940 C   0  0  0  0  0  0  0  0  0  0  0  0
  139.4960   69.6490  223.9210 C   0  0  0  0  0  0  0  0  0  0  0  0
  140.0230   70.0900  225.1350 C   0  0  0  0  0  0  0  0  0  0  0  0
  140.0870   69.1770  226.1740 C   0  0  0  0  0  0  0  0  0  0  0  0
  140.6090   69.6240  227.3710 C   0  0  0  0  0  0  0  0  0  0  0  0
  140.7090   68.5070  228.7090 Cl  0  0  0  0  0  0  0  0  0  0  0  0
  141.0470   70.9250  227.5190 C   0  0  0  0  0  0  0  0  0  0  0  0
  140.9860   71.8380  226.4860 C   0  0  0  0  0  0  0  0  0  0  0  0
  140.4580   71.3970  225.2660 C   0  0  0  0  0  0  0  0  0  0  0  0
  140.3770   72.2570  224.2260 N   0  0  0  0  0  0  0  0  0  0  0  0
  139.5070   74.5090  223.1250 H   0  0  0  0  0  0  0  0  0  0  0  0
  139.3802   74.5736  220.1115 H   0  0  0  0  0  0  0  0  0  0  0  0
  138.6180   75.7661  221.2671 H   0  0  0  0  0  0  0  0  0  0  0  0
  138.6572   77.8452  222.0952 H   0  0  0  0  0  0  0  0  0  0  0  0
  139.3345   76.7509  223.2921 H   0  0  0  0  0  0  0  0  0  0  0  0
  139.6945   79.7121  222.9821 H   0  0  0  0  0  0  0  0  0  0  0  0
  139.9207   78.7440  224.4369 H   0  0  0  0  0  0  0  0  0  0  0  0
  142.2057   78.0995  223.7410 H   0  0  0  0  0  0  0  0  0  0  0  0
  141.7073   80.8135  222.5031 H   0  0  0  0  0  0  0  0  0  0  0  0
  141.9846   80.4940  224.2616 H   0  0  0  0  0  0  0  0  0  0  0  0
  143.7370   79.4950  222.3150 H   0  0  0  0  0  0  0  0  0  0  0  0
  141.2743   79.1436  220.9506 H   0  0  0  0  0  0  0  0  0  0  0  0
  142.5983   78.0596  221.2015 H   0  0  0  0  0  0  0  0  0  0  0  0
  139.0288   70.2537  221.9242 H   0  0  0  0  0  0  0  0  0  0  0  0
  139.1427   68.6159  223.7875 H   0  0  0  0  0  0  0  0  0  0  0  0
  139.7374   68.1413  226.0509 H   0  0  0  0  0  0  0  0  0  0  0  0
  141.4567   71.2432  228.4890 H   0  0  0  0  0  0  0  0  0  0  0  0
  141.3384   72.8719  226.6157 H   0  0  0  0  0  0  0  0  0  0  0  0
  1  2  2  0
  2  3  1  0
  3  4  1  0
  4  5  1  0
  5  6  2  0
  5  7  1  0
  7  8  1  0
  8  9  1  0
  9 10  1  0
 10 11  1  0
 11 12  1  0
 10 13  1  0
  2 14  1  0
 14 15  2  0
 15 16  1  0
 16 17  2  0
 17 18  1  0
 18 19  2  0
 19 20  1  0
 19 21  1  0
 21 22  2  0
 22 23  1  0
 23 24  2  0
 13  7  1  0
 24 14  1  0
 23 17  1  0
  3 25  1  0
  4 26  1  0
  4 27  1  0
  8 28  1  0
  8 29  1  0
  9 30  1  0
  9 31  1  0
 10 32  1  1
 11 33  1  0
 11 34  1  0
 12 35  1  0
 13 36  1  0
 13 37  1  0
 15 38  1  0
 16 39  1  0
 18 40  1  0
 21 41  1  0
 22 42  1  0
M  END
>  <smiles>  (29) 
O=C(NCC(=O)N1CC[C@H](CO)C1)c1ccc2cc(Cl)ccc2n1

>  <score_type>  (29) 
oracle

>  <origin>  (29) 
autodockgpu

>  <m_score__min__energy>  (29) 
-7.6399999999999997

>  <m_primary>  (29) 
energy

>  <rmsd>  (29) 
3.9283168011127496

>  <m_score__min__rmsd>  (29) 
3.9283168011127496

>  <meeko>  (29) 
{"free_energy": -7.53, "intermolecular_energy": -9.32, "internal_energy": -0.86, "cluster_size": 10, "cluster_id": 1, "rank_in_cluster": 3}

>  <energy>  (29) 
-7.29

>  <cluster_rmsd>  (29) 
0.08

>  <cluster>  (29) 
3

$$$$

     RDKit          3D

 42 44  0  0  0  0  0  0  0  0999 V2000
  137.7710   71.5890  223.3940 O   0  0  0  0  0  0  0  0  0  0  0  0
  138.9160   71.1800  223.0570 C   0  0  0  0  0  0  0  0  0  0  0  0
  139.3500   69.8930  223.4460 N   0  0  0  0  0  0  0  0  0  0  0  0
  138.5290   69.0140  224.2230 C   0  0  0  0  0  0  0  0  0  0  0  0
  139.2790   68.2410  225.2250 C   0  0  0  0  0  0  0  0  0  0  0  0
  139.5160   67.0080  225.1440 O   0  0  0  0  0  0  0  0  0  0  0  0
  139.7750   68.9240  226.3670 N   0  0  0  0  0  0  0  0  0  0  0  0
  140.4710   68.2380  227.4610 C   0  0  0  0  0  0  0  0  0  0  0  0
  141.0860   69.3620  228.2650 C   0  0  0  0  0  0  0  0  0  0  0  0
  141.0650   70.5430  227.3430 C   0  0  2  0  0  0  0  0  0  0  0  0
  141.0820   71.8200  228.1590 C   0  0  0  0  0  0  0  0  0  0  0  0
  139.8510   72.0630  228.7260 O   0  0  0  0  0  0  0  0  0  0  0  0
  139.7020   70.3510  226.6710 C   0  0  0  0  0  0  0  0  0  0  0  0
  139.8000   72.0380  222.2610 C   0  0  0  0  0  0  0  0  0  0  0  0
  140.7590   71.4710  221.4430 C   0  0  0  0  0  0  0  0  0  0  0  0
  141.6240   72.2180  220.6670 C   0  0  0  0  0  0  0  0  0  0  0  0
  141.4930   73.6060  220.7370 C   0  0  0  0  0  0  0  0  0  0  0  0
  142.3520   74.3690  219.9640 C   0  0  0  0  0  0  0  0  0  0  0  0
  142.2140   75.7410  220.0410 C   0  0  0  0  0  0  0  0  0  0  0  0
  143.2760   76.7430  219.0850 Cl  0  0  0  0  0  0  0  0  0  0  0  0
  141.2590   76.3190  220.8540 C   0  0  0  0  0  0  0  0  0  0  0  0
  140.4010   75.5620  221.6250 C   0  0  0  0  0  0  0  0  0  0  0  0
  140.5310   74.1690  221.5560 C   0  0  0  0  0  0  0  0  0  0  0  0
  139.7120   73.3860  222.2950 N   0  0  0  0  0  0  0  0  0  0  0  0
  140.3130   69.5840  223.1470 H   0  0  0  0  0  0  0  0  0  0  0  0
  137.7708   69.6165  224.7446 H   0  0  0  0  0  0  0  0  0  0  0  0
  138.0810   68.2904  223.5261 H   0  0  0  0  0  0  0  0  0  0  0  0
  139.7630   67.6608  228.0738 H   0  0  0  0  0  0  0  0  0  0  0  0
  141.2191   67.5167  227.1005 H   0  0  0  0  0  0  0  0  0  0  0  0
  140.4912   69.5639  229.1680 H   0  0  0  0  0  0  0  0  0  0  0  0
  142.1023   69.1203  228.6096 H   0  0  0  0  0  0  0  0  0  0  0  0
  141.9110   70.6124  226.6434 H   0  0  0  0  0  0  0  0  0  0  0  0
  141.8329   71.7261  228.9573 H   0  0  0  0  0  0  0  0  0  0  0  0
  141.3302   72.6579  227.4909 H   0  0  0  0  0  0  0  0  0  0  0  0
  139.8050   73.0320  228.9250 H   0  0  0  0  0  0  0  0  0  0  0  0
  138.8722   70.5818  227.3552 H   0  0  0  0  0  0  0  0  0  0  0  0
  139.5137   71.0027  225.8051 H   0  0  0  0  0  0  0  0  0  0  0  0
  140.8371   70.3743  221.4083 H   0  0  0  0  0  0  0  0  0  0  0  0
  142.3796   71.7420  220.0248 H   0  0  0  0  0  0  0  0  0  0  0  0
  143.1104   73.9032  219.3176 H   0  0  0  0  0  0  0  0  0  0  0  0
  141.1800   77.4156  220.8879 H   0  0  0  0  0  0  0  0  0  0  0  0
  139.6443   76.0340  222.2688 H   0  0  0  0  0  0  0  0  0  0  0  0
  1  2  2  0
  2  3  1  0
  3  4  1  0
  4  5  1  0
  5  6  2  0
  5  7  1  0
  7  8  1  0
  8  9  1  0
  9 10  1  0
 10 11  1  0
 11 12  1  0
 10 13  1  0
  2 14  1  0
 14 15  2  0
 15 16  1  0
 16 17  2  0
 17 18  1  0
 18 19  2  0
 19 20  1  0
 19 21  1  0
 21 22  2  0
 22 23  1  0
 23 24  2  0
 13  7  1  0
 24 14  1  0
 23 17  1  0
  3 25  1  0
  4 26  1  0
  4 27  1  0
  8 28  1  0
  8 29  1  0
  9 30  1  0
  9 31  1  0
 10 32  1  6
 11 33  1  0
 11 34  1  0
 12 35  1  0
 13 36  1  0
 13 37  1  0
 15 38  1  0
 16 39  1  0
 18 40  1  0
 21 41  1  0
 22 42  1  0
M  END
>  <smiles>  (30) 
O=C(NCC(=O)N1CC[C@H](CO)C1)c1ccc2cc(Cl)ccc2n1

>  <score_type>  (30) 
oracle

>  <origin>  (30) 
autodockgpu

>  <m_score__min__energy>  (30) 
-7.6399999999999997

>  <m_primary>  (30) 
energy

>  <rmsd>  (30) 
8.744636985705956

>  <m_score__min__rmsd>  (30) 
8.744636985705956

>  <meeko>  (30) 
{"free_energy": -6.88, "intermolecular_energy": -8.67, "internal_energy": -0.81, "cluster_size": 4, "cluster_id": 6, "rank_in_cluster": 1}

>  <energy>  (30) 
-7.28

>  <cluster_rmsd>  (30) 
0.2

>  <cluster>  (30) 
3

$$$$

     RDKit          3D

 42 44  0  0  0  0  0  0  0  0999 V2000
  141.0630   71.8590  220.8830 O   0  0  0  0  0  0  0  0  0  0  0  0
  140.5090   72.7130  221.6280 C   0  0  0  0  0  0  0  0  0  0  0  0
  139.5880   72.2990  222.6160 N   0  0  0  0  0  0  0  0  0  0  0  0
  139.2490   70.9210  222.8130 C   0  0  0  0  0  0  0  0  0  0  0  0
  138.7660   70.6220  224.1700 C   0  0  0  0  0  0  0  0  0  0  0  0
  137.5570   70.4590  224.4780 O   0  0  0  0  0  0  0  0  0  0  0  0
  139.7240   70.5070  225.2130 N   0  0  0  0  0  0  0  0  0  0  0  0
  140.6290   71.6000  225.5820 C   0  0  0  0  0  0  0  0  0  0  0  0
  141.2140   71.1590  226.9050 C   0  0  0  0  0  0  0  0  0  0  0  0
  140.2900   70.0850  227.3900 C   0  0  2  0  0  0  0  0  0  0  0  0
  141.0330   69.1730  228.3460 C   0  0  0  0  0  0  0  0  0  0  0  0
  140.2430   68.1160  228.7390 O   0  0  0  0  0  0  0  0  0  0  0  0
  139.9890   69.3580  226.0760 C   0  0  0  0  0  0  0  0  0  0  0  0
  140.8190   74.1380  221.4730 C   0  0  0  0  0  0  0  0  0  0  0  0
  141.8280   74.5350  220.6160 C   0  0  0  0  0  0  0  0  0  0  0  0
  142.1720   75.8590  220.4220 C   0  0  0  0  0  0  0  0  0  0  0  0
  141.4470   76.8100  221.1390 C   0  0  0  0  0  0  0  0  0  0  0  0
  141.7790   78.1420  220.9550 C   0  0  0  0  0  0  0  0  0  0  0  0
  141.0550   79.0750  221.6700 C   0  0  0  0  0  0  0  0  0  0  0  0
  141.4410   80.7660  221.4700 Cl  0  0  0  0  0  0  0  0  0  0  0  0
  140.0440   78.6900  222.5280 C   0  0  0  0  0  0  0  0  0  0  0  0
  139.7090   77.3640  222.7140 C   0  0  0  0  0  0  0  0  0  0  0  0
  140.4370   76.4080  221.9950 C   0  0  0  0  0  0  0  0  0  0  0  0
  140.1440   75.0970  222.1460 N   0  0  0  0  0  0  0  0  0  0  0  0
  139.1440   73.0390  223.2210 H   0  0  0  0  0  0  0  0  0  0  0  0
  138.4601   70.6509  222.0956 H   0  0  0  0  0  0  0  0  0  0  0  0
  140.1691   70.3374  222.6620 H   0  0  0  0  0  0  0  0  0  0  0  0
  141.4193   71.7251  224.8272 H   0  0  0  0  0  0  0  0  0  0  0  0
  140.1159   72.5707  225.6483 H   0  0  0  0  0  0  0  0  0  0  0  0
  142.2308   70.7627  226.7667 H   0  0  0  0  0  0  0  0  0  0  0  0
  141.2981   71.9901  227.6206 H   0  0  0  0  0  0  0  0  0  0  0  0
  139.3983   70.4366  227.9297 H   0  0  0  0  0  0  0  0  0  0  0  0
  141.9314   68.7831  227.8451 H   0  0  0  0  0  0  0  0  0  0  0  0
  141.3087   69.7535  229.2388 H   0  0  0  0  0  0  0  0  0  0  0  0
  140.3870   67.3840  228.0890 H   0  0  0  0  0  0  0  0  0  0  0  0
  140.8517   68.7728  225.7250 H   0  0  0  0  0  0  0  0  0  0  0  0
  139.1771   68.6177  226.1285 H   0  0  0  0  0  0  0  0  0  0  0  0
  142.3822   73.7620  220.0634 H   0  0  0  0  0  0  0  0  0  0  0  0
  142.9799   76.1492  219.7342 H   0  0  0  0  0  0  0  0  0  0  0  0
  142.5844   78.4433  220.2691 H   0  0  0  0  0  0  0  0  0  0  0  0
  139.4891   79.4631  223.0797 H   0  0  0  0  0  0  0  0  0  0  0  0
  138.9014   77.0696  223.4004 H   0  0  0  0  0  0  0  0  0  0  0  0
  1  2  2  0
  2  3  1  0
  3  4  1  0
  4  5  1  0
  5  6  2  0
  5  7  1  0
  7  8  1  0
  8  9  1  0
  9 10  1  0
 10 11  1  0
 11 12  1  0
 10 13  1  0
  2 14  1  0
 14 15  2  0
 15 16  1  0
 16 17  2  0
 17 18  1  0
 18 19  2  0
 19 20  1  0
 19 21  1  0
 21 22  2  0
 22 23  1  0
 23 24  2  0
 13  7  1  0
 24 14  1  0
 23 17  1  0
  3 25  1  0
  4 26  1  0
  4 27  1  0
  8 28  1  0
  8 29  1  0
  9 30  1  0
  9 31  1  0
 10 32  1  1
 11 33  1  0
 11 34  1  0
 12 35  1  0
 13 36  1  0
 13 37  1  0
 15 38  1  0
 16 39  1  0
 18 40  1  0
 21 41  1  0
 22 42  1  0
M  END
>  <smiles>  (31) 
O=C(NCC(=O)N1CC[C@H](CO)C1)c1ccc2cc(Cl)ccc2n1

>  <score_type>  (31) 
oracle

>  <origin>  (31) 
autodockgpu

>  <m_score__min__energy>  (31) 
-7.6399999999999997

>  <m_primary>  (31) 
energy

>  <rmsd>  (31) 
8.834411569438704

>  <m_score__min__rmsd>  (31) 
8.834411569438704

>  <meeko>  (31) 
{"free_energy": -6.91, "intermolecular_energy": -8.7, "internal_energy": -1.0, "cluster_size": 15, "cluster_id": 3, "rank_in_cluster": 15}

>  <energy>  (31) 
-7.28

>  <cluster_rmsd>  (31) 
0.21

>  <cluster>  (31) 
3

$$$$

     RDKit          3D

 42 44  0  0  0  0  0  0  0  0999 V2000
  140.7660   72.6400  220.9480 O   0  0  0  0  0  0  0  0  0  0  0  0
  140.1670   72.9210  222.0230 C   0  0  0  0  0  0  0  0  0  0  0  0
  139.5150   74.1660  222.1650 N   0  0  0  0  0  0  0  0  0  0  0  0
  139.5030   75.1440  221.1190 C   0  0  0  0  0  0  0  0  0  0  0  0
  139.2070   76.5060  221.5900 C   0  0  0  0  0  0  0  0  0  0  0  0
  138.0790   76.8920  221.9940 O   0  0  0  0  0  0  0  0  0  0  0  0
  140.2590   77.4600  221.5940 N   0  0  0  0  0  0  0  0  0  0  0  0
  140.9820   77.8480  220.3780 C   0  0  0  0  0  0  0  0  0  0  0  0
  141.7540   79.0810  220.7910 C   0  0  0  0  0  0  0  0  0  0  0  0
  141.0860   79.5450  222.0480 C   0  0  2  0  0  0  0  0  0  0  0  0
  142.0650   80.3620  222.8680 C   0  0  0  0  0  0  0  0  0  0  0  0
  143.3050   79.7650  222.9010 O   0  0  0  0  0  0  0  0  0  0  0  0
  140.8040   78.2020  222.7290 C   0  0  0  0  0  0  0  0  0  0  0  0
  140.1450   71.9570  223.1290 C   0  0  0  0  0  0  0  0  0  0  0  0
  139.6340   70.6890  222.9280 C   0  0  0  0  0  0  0  0  0  0  0  0
  139.5840   69.7320  223.9240 C   0  0  0  0  0  0  0  0  0  0  0  0
  140.0800   70.0980  225.1750 C   0  0  0  0  0  0  0  0  0  0  0  0
  140.0370   69.1500  226.1840 C   0  0  0  0  0  0  0  0  0  0  0  0
  140.5310   69.5230  227.4180 C   0  0  0  0  0  0  0  0  0  0  0  0
  140.4950   68.3610  228.7190 Cl  0  0  0  0  0  0  0  0  0  0  0  0
  141.0440   70.7870  227.6300 C   0  0  0  0  0  0  0  0  0  0  0  0
  141.0900   71.7350  226.6270 C   0  0  0  0  0  0  0  0  0  0  0  0
  140.5920   71.3690  225.3710 C   0  0  0  0  0  0  0  0  0  0  0  0
  140.6150   72.2650  224.3580 N   0  0  0  0  0  0  0  0  0  0  0  0
  139.0250   74.3670  223.0760 H   0  0  0  0  0  0  0  0  0  0  0  0
  140.4917   75.1499  220.6370 H   0  0  0  0  0  0  0  0  0  0  0  0
  138.6998   74.8617  220.4224 H   0  0  0  0  0  0  0  0  0  0  0  0
  141.6652   77.0479  220.0569 H   0  0  0  0  0  0  0  0  0  0  0  0
  140.3107   78.0335  219.5266 H   0  0  0  0  0  0  0  0  0  0  0  0
  142.8086   78.8326  220.9812 H   0  0  0  0  0  0  0  0  0  0  0  0
  141.7518   79.8545  220.0089 H   0  0  0  0  0  0  0  0  0  0  0  0
  140.1981   80.1784  221.9054 H   0  0  0  0  0  0  0  0  0  0  0  0
  142.1601   81.3626  222.4212 H   0  0  0  0  0  0  0  0  0  0  0  0
  141.6842   80.4322  223.8976 H   0  0  0  0  0  0  0  0  0  0  0  0
  143.6500   79.7540  221.9730 H   0  0  0  0  0  0  0  0  0  0  0  0
  141.7230   77.7390  223.1177 H   0  0  0  0  0  0  0  0  0  0  0  0
  140.1475   78.2548  223.6101 H   0  0  0  0  0  0  0  0  0  0  0  0
  139.2497   70.4296  221.9305 H   0  0  0  0  0  0  0  0  0  0  0  0
  139.1724   68.7289  223.7387 H   0  0  0  0  0  0  0  0  0  0  0  0
  139.6272   68.1442  226.0097 H   0  0  0  0  0  0  0  0  0  0  0  0
  141.4276   71.0468  228.6277 H   0  0  0  0  0  0  0  0  0  0  0  0
  141.5020   72.7388  226.8080 H   0  0  0  0  0  0  0  0  0  0  0  0
  1  2  2  0
  2  3  1  0
  3  4  1  0
  4  5  1  0
  5  6  2  0
  5  7  1  0
  7  8  1  0
  8  9  1  0
  9 10  1  0
 10 11  1  0
 11 12  1  0
 10 13  1  0
  2 14  1  0
 14 15  2  0
 15 16  1  0
 16 17  2  0
 17 18  1  0
 18 19  2  0
 19 20  1  0
 19 21  1  0
 21 22  2  0
 22 23  1  0
 23 24  2  0
 13  7  1  0
 24 14  1  0
 23 17  1  0
  3 25  1  0
  4 26  1  0
  4 27  1  0
  8 28  1  0
  8 29  1  0
  9 30  1  0
  9 31  1  0
 10 32  1  6
 11 33  1  0
 11 34  1  0
 12 35  1  0
 13 36  1  0
 13 37  1  0
 15 38  1  0
 16 39  1  0
 18 40  1  0
 21 41  1  0
 22 42  1  0
M  END
>  <smiles>  (32) 
O=C(NCC(=O)N1CC[C@H](CO)C1)c1ccc2cc(Cl)ccc2n1

>  <score_type>  (32) 
oracle

>  <origin>  (32) 
autodockgpu

>  <m_score__min__energy>  (32) 
-7.6399999999999997

>  <m_primary>  (32) 
energy

>  <rmsd>  (32) 
3.605046965918615

>  <m_score__min__rmsd>  (32) 
3.605046965918615

>  <meeko>  (32) 
{"free_energy": -7.36, "intermolecular_energy": -9.14, "internal_energy": -0.76, "cluster_size": 10, "cluster_id": 1, "rank_in_cluster": 5}

>  <energy>  (32) 
-7.27

>  <cluster_rmsd>  (32) 
0.13

>  <cluster>  (32) 
3

$$$$

     RDKit          3D

 42 44  0  0  0  0  0  0  0  0999 V2000
  139.9530   70.2580  221.8340 O   0  0  0  0  0  0  0  0  0  0  0  0
  139.4780   71.3190  222.3230 C   0  0  0  0  0  0  0  0  0  0  0  0
  138.4010   71.2590  223.2350 N   0  0  0  0  0  0  0  0  0  0  0  0
  137.8110   70.0170  223.6360 C   0  0  0  0  0  0  0  0  0  0  0  0
  138.7460   69.1210  224.3350 C   0  0  0  0  0  0  0  0  0  0  0  0
  138.9370   67.9140  224.0360 O   0  0  0  0  0  0  0  0  0  0  0  0
  139.4910   69.6460  225.4260 N   0  0  0  0  0  0  0  0  0  0  0  0
  140.2170   68.7920  226.3720 C   0  0  0  0  0  0  0  0  0  0  0  0
  141.0980   69.7590  227.1320 C   0  0  0  0  0  0  0  0  0  0  0  0
  141.1310   70.9910  226.2820 C   0  0  2  0  0  0  0  0  0  0  0  0
  141.4520   72.1930  227.1480 C   0  0  0  0  0  0  0  0  0  0  0  0
  140.6490   72.2280  228.2660 O   0  0  0  0  0  0  0  0  0  0  0  0
  139.6760   71.0440  225.8060 C   0  0  0  0  0  0  0  0  0  0  0  0
  140.0440   72.6210  221.9480 C   0  0  0  0  0  0  0  0  0  0  0  0
  141.2090   72.6790  221.2080 C   0  0  0  0  0  0  0  0  0  0  0  0
  141.7950   73.8690  220.8210 C   0  0  0  0  0  0  0  0  0  0  0  0
  141.1540   75.0440  221.2130 C   0  0  0  0  0  0  0  0  0  0  0  0
  141.7290   76.2450  220.8320 C   0  0  0  0  0  0  0  0  0  0  0  0
  141.0860   77.4020  221.2250 C   0  0  0  0  0  0  0  0  0  0  0  0
  141.7750   78.9380  220.7690 Cl  0  0  0  0  0  0  0  0  0  0  0  0
  139.9210   77.3550  221.9650 C   0  0  0  0  0  0  0  0  0  0  0  0
  139.3430   76.1610  222.3460 C   0  0  0  0  0  0  0  0  0  0  0  0
  139.9870   74.9800  221.9530 C   0  0  0  0  0  0  0  0  0  0  0  0
  139.4580   73.7860  222.3040 N   0  0  0  0  0  0  0  0  0  0  0  0
  138.0290   72.1650  223.6240 H   0  0  0  0  0  0  0  0  0  0  0  0
  136.9677   70.2333  224.3084 H   0  0  0  0  0  0  0  0  0  0  0  0
  137.4919   69.4997  222.7192 H   0  0  0  0  0  0  0  0  0  0  0  0
  139.5200   68.2802  227.0519 H   0  0  0  0  0  0  0  0  0  0  0  0
  140.7909   67.9976  225.8725 H   0  0  0  0  0  0  0  0  0  0  0  0
  140.6685   69.9808  228.1201 H   0  0  0  0  0  0  0  0  0  0  0  0
  142.1035   69.3515  227.3137 H   0  0  0  0  0  0  0  0  0  0  0  0
  141.8747   70.9864  225.4716 H   0  0  0  0  0  0  0  0  0  0  0  0
  142.5044   72.1377  227.4633 H   0  0  0  0  0  0  0  0  0  0  0  0
  141.2716   73.1050  226.5600 H   0  0  0  0  0  0  0  0  0  0  0  0
  140.2680   73.1400  228.3260 H   0  0  0  0  0  0  0  0  0  0  0  0
  138.9915   71.3430  226.6135 H   0  0  0  0  0  0  0  0  0  0  0  0
  139.4721   71.7748  225.0096 H   0  0  0  0  0  0  0  0  0  0  0  0
  141.6919   71.7355  220.9136 H   0  0  0  0  0  0  0  0  0  0  0  0
  142.7235   73.8887  220.2314 H   0  0  0  0  0  0  0  0  0  0  0  0
  142.6571   76.2758  220.2423 H   0  0  0  0  0  0  0  0  0  0  0  0
  139.4387   78.2986  222.2600 H   0  0  0  0  0  0  0  0  0  0  0  0
  138.4140   76.1373  222.9346 H   0  0  0  0  0  0  0  0  0  0  0  0
  1  2  2  0
  2  3  1  0
  3  4  1  0
  4  5  1  0
  5  6  2  0
  5  7  1  0
  7  8  1  0
  8  9  1  0
  9 10  1  0
 10 11  1  0
 11 12  1  0
 10 13  1  0
  2 14  1  0
 14 15  2  0
 15 16  1  0
 16 17  2  0
 17 18  1  0
 18 19  2  0
 19 20  1  0
 19 21  1  0
 21 22  2  0
 22 23  1  0
 23 24  2  0
 13  7  1  0
 24 14  1  0
 23 17  1  0
  3 25  1  0
  4 26  1  0
  4 27  1  0
  8 28  1  0
  8 29  1  0
  9 30  1  0
  9 31  1  0
 10 32  1  6
 11 33  1  0
 11 34  1  0
 12 35  1  0
 13 36  1  0
 13 37  1  0
 15 38  1  0
 16 39  1  0
 18 40  1  0
 21 41  1  0
 22 42  1  0
M  END
>  <smiles>  (33) 
O=C(NCC(=O)N1CC[C@H](CO)C1)c1ccc2cc(Cl)ccc2n1

>  <score_type>  (33) 
oracle

>  <origin>  (33) 
autodockgpu

>  <m_score__min__energy>  (33) 
-7.6399999999999997

>  <m_primary>  (33) 
energy

>  <rmsd>  (33) 
8.28780221615474

>  <m_score__min__rmsd>  (33) 
8.28780221615474

>  <meeko>  (33) 
{"free_energy": -6.59, "intermolecular_energy": -8.38, "internal_energy": -1.2, "cluster_size": 4, "cluster_id": 6, "rank_in_cluster": 4}

>  <energy>  (33) 
-7.25

>  <cluster_rmsd>  (33) 
0.21

>  <cluster>  (33) 
3

$$$$

     RDKit          3D

 42 44  0  0  0  0  0  0  0  0999 V2000
  141.5210   72.9140  220.7350 O   0  0  0  0  0  0  0  0  0  0  0  0
  140.8120   73.6970  221.4260 C   0  0  0  0  0  0  0  0  0  0  0  0
  139.7820   73.1820  222.2450 N   0  0  0  0  0  0  0  0  0  0  0  0
  139.5020   71.7800  222.3270 C   0  0  0  0  0  0  0  0  0  0  0  0
  138.7970   71.3920  223.5590 C   0  0  0  0  0  0  0  0  0  0  0  0
  137.5940   71.6640  223.8090 O   0  0  0  0  0  0  0  0  0  0  0  0
  139.5150   70.6590  224.5410 N   0  0  0  0  0  0  0  0  0  0  0  0
  140.6100   71.2430  225.3230 C   0  0  0  0  0  0  0  0  0  0  0  0
  140.8430   70.2390  226.4300 C   0  0  0  0  0  0  0  0  0  0  0  0
  139.6020   69.4020  226.4510 C   0  0  2  0  0  0  0  0  0  0  0  0
  139.9170   68.0480  227.0560 C   0  0  0  0  0  0  0  0  0  0  0  0
  139.2180   67.0460  226.4230 O   0  0  0  0  0  0  0  0  0  0  0  0
  139.3260   69.2690  224.9500 C   0  0  0  0  0  0  0  0  0  0  0  0
  141.0540   75.1430  221.3820 C   0  0  0  0  0  0  0  0  0  0  0  0
  141.9280   75.6680  220.4490 C   0  0  0  0  0  0  0  0  0  0  0  0
  142.2020   77.0190  220.3520 C   0  0  0  0  0  0  0  0  0  0  0  0
  141.5490   77.8600  221.2520 C   0  0  0  0  0  0  0  0  0  0  0  0
  141.8120   79.2180  221.1680 C   0  0  0  0  0  0  0  0  0  0  0  0
  141.1600   80.0410  222.0630 C   0  0  0  0  0  0  0  0  0  0  0  0
  141.4630   81.7590  221.9930 Cl  0  0  0  0  0  0  0  0  0  0  0  0
  140.2850   79.5280  222.9990 C   0  0  0  0  0  0  0  0  0  0  0  0
  140.0180   78.1770  223.0870 C   0  0  0  0  0  0  0  0  0  0  0  0
  140.6740   77.3300  222.1840 C   0  0  0  0  0  0  0  0  0  0  0  0
  140.4440   75.9990  222.2330 N   0  0  0  0  0  0  0  0  0  0  0  0
  139.2100   73.8650  222.8080 H   0  0  0  0  0  0  0  0  0  0  0  0
  138.8780   71.4989  221.4658 H   0  0  0  0  0  0  0  0  0  0  0  0
  140.4697   71.2570  222.3303 H   0  0  0  0  0  0  0  0  0  0  0  0
  141.5125   71.3607  224.7052 H   0  0  0  0  0  0  0  0  0  0  0  0
  140.3704   72.2466  225.7043 H   0  0  0  0  0  0  0  0  0  0  0  0
  141.7253   69.6192  226.2122 H   0  0  0  0  0  0  0  0  0  0  0  0
  141.0343   70.7242  227.3985 H   0  0  0  0  0  0  0  0  0  0  0  0
  138.7641   69.8136  227.0328 H   0  0  0  0  0  0  0  0  0  0  0  0
  140.9948   67.8522  226.9560 H   0  0  0  0  0  0  0  0  0  0  0  0
  139.6225   68.0627  228.1157 H   0  0  0  0  0  0  0  0  0  0  0  0
  139.4440   66.1970  226.8790 H   0  0  0  0  0  0  0  0  0  0  0  0
  140.0450   68.5964  224.4594 H   0  0  0  0  0  0  0  0  0  0  0  0
  138.3483   68.8359  224.6922 H   0  0  0  0  0  0  0  0  0  0  0  0
  142.4281   74.9794  219.7521 H   0  0  0  0  0  0  0  0  0  0  0  0
  142.9022   77.4122  219.6003 H   0  0  0  0  0  0  0  0  0  0  0  0
  142.5102   79.6222  220.4203 H   0  0  0  0  0  0  0  0  0  0  0  0
  139.7853   80.2169  223.6959 H   0  0  0  0  0  0  0  0  0  0  0  0
  139.3175   77.7805  223.8368 H   0  0  0  0  0  0  0  0  0  0  0  0
  1  2  2  0
  2  3  1  0
  3  4  1  0
  4  5  1  0
  5  6  2  0
  5  7  1  0
  7  8  1  0
  8  9  1  0
  9 10  1  0
 10 11  1  0
 11 12  1  0
 10 13  1  0
  2 14  1  0
 14 15  2  0
 15 16  1  0
 16 17  2  0
 17 18  1  0
 18 19  2  0
 19 20  1  0
 19 21  1  0
 21 22  2  0
 22 23  1  0
 23 24  2  0
 13  7  1  0
 24 14  1  0
 23 17  1  0
  3 25  1  0
  4 26  1  0
  4 27  1  0
  8 28  1  0
  8 29  1  0
  9 30  1  0
  9 31  1  0
 10 32  1  1
 11 33  1  0
 11 34  1  0
 12 35  1  0
 13 36  1  0
 13 37  1  0
 15 38  1  0
 16 39  1  0
 18 40  1  0
 21 41  1  0
 22 42  1  0
M  END
>  <smiles>  (34) 
O=C(NCC(=O)N1CC[C@H](CO)C1)c1ccc2cc(Cl)ccc2n1

>  <score_type>  (34) 
oracle

>  <origin>  (34) 
autodockgpu

>  <m_score__min__energy>  (34) 
-7.6399999999999997

>  <m_primary>  (34) 
energy

>  <rmsd>  (34) 
8.938996709048592

>  <m_score__min__rmsd>  (34) 
8.938996709048592

>  <meeko>  (34) 
{"free_energy": -7.29, "intermolecular_energy": -9.08, "internal_energy": -0.99, "cluster_size": 15, "cluster_id": 3, "rank_in_cluster": 3}

>  <energy>  (34) 
-7.22

>  <cluster_rmsd>  (34) 
0.83

>  <cluster>  (34) 
3

$$$$

     RDKit          3D

 42 44  0  0  0  0  0  0  0  0999 V2000
  135.2300   70.2480  224.4770 O   0  0  0  0  0  0  0  0  0  0  0  0
  135.5030   71.4750  224.5910 C   0  0  0  0  0  0  0  0  0  0  0  0
  136.6640   72.0010  223.9830 N   0  0  0  0  0  0  0  0  0  0  0  0
  137.5650   71.1840  223.2260 C   0  0  0  0  0  0  0  0  0  0  0  0
  138.9830   71.4910  223.4690 C   0  0  0  0  0  0  0  0  0  0  0  0
  139.6420   72.3610  222.8430 O   0  0  0  0  0  0  0  0  0  0  0  0
  139.6650   70.7610  224.4790 N   0  0  0  0  0  0  0  0  0  0  0  0
  140.5590   71.4000  225.4500 C   0  0  0  0  0  0  0  0  0  0  0  0
  140.7880   70.3290  226.4940 C   0  0  0  0  0  0  0  0  0  0  0  0
  139.6830   69.3420  226.2740 C   0  0  2  0  0  0  0  0  0  0  0  0
  140.1040   67.9870  226.8050 C   0  0  0  0  0  0  0  0  0  0  0  0
  139.1790   67.0190  226.4870 O   0  0  0  0  0  0  0  0  0  0  0  0
  139.6220   69.3250  224.7430 C   0  0  0  0  0  0  0  0  0  0  0  0
  134.6150   72.3590  225.3550 C   0  0  0  0  0  0  0  0  0  0  0  0
  133.5620   71.8260  226.0730 C   0  0  0  0  0  0  0  0  0  0  0  0
  132.6890   72.6000  226.8130 C   0  0  0  0  0  0  0  0  0  0  0  0
  132.9120   73.9770  226.8120 C   0  0  0  0  0  0  0  0  0  0  0  0
  132.0450   74.7670  227.5490 C   0  0  0  0  0  0  0  0  0  0  0  0
  132.2750   76.1280  227.5420 C   0  0  0  0  0  0  0  0  0  0  0  0
  131.2070   77.1620  228.4570 Cl  0  0  0  0  0  0  0  0  0  0  0  0
  133.3240   76.6710  226.8280 C   0  0  0  0  0  0  0  0  0  0  0  0
  134.1910   75.8890  226.0920 C   0  0  0  0  0  0  0  0  0  0  0  0
  133.9680   74.5060  226.0920 C   0  0  0  0  0  0  0  0  0  0  0  0
  134.7910   73.6990  225.3850 N   0  0  0  0  0  0  0  0  0  0  0  0
  136.8610   73.0300  224.0990 H   0  0  0  0  0  0  0  0  0  0  0  0
  137.3865   70.1315  223.4912 H   0  0  0  0  0  0  0  0  0  0  0  0
  137.3685   71.3863  222.1628 H   0  0  0  0  0  0  0  0  0  0  0  0
  141.5071   71.6928  224.9753 H   0  0  0  0  0  0  0  0  0  0  0  0
  140.1349   72.3220  225.8742 H   0  0  0  0  0  0  0  0  0  0  0  0
  141.7687   69.8516  226.3515 H   0  0  0  0  0  0  0  0  0  0  0  0
  140.7853   70.7362  227.5159 H   0  0  0  0  0  0  0  0  0  0  0  0
  138.7286   69.5832  226.7648 H   0  0  0  0  0  0  0  0  0  0  0  0
  141.0744   67.7146  226.3644 H   0  0  0  0  0  0  0  0  0  0  0  0
  140.1797   68.0502  227.9006 H   0  0  0  0  0  0  0  0  0  0  0  0
  139.2120   66.3350  227.2010 H   0  0  0  0  0  0  0  0  0  0  0  0
  140.4847   68.8020  224.3046 H   0  0  0  0  0  0  0  0  0  0  0  0
  138.7554   68.7983  224.3167 H   0  0  0  0  0  0  0  0  0  0  0  0
  133.4119   70.7364  226.0547 H   0  0  0  0  0  0  0  0  0  0  0  0
  131.8574   72.1516  227.3763 H   0  0  0  0  0  0  0  0  0  0  0  0
  131.2098   74.3289  228.1150 H   0  0  0  0  0  0  0  0  0  0  0  0
  133.4737   77.7606  226.8461 H   0  0  0  0  0  0  0  0  0  0  0  0
  135.0239   76.3340  225.5279 H   0  0  0  0  0  0  0  0  0  0  0  0
  1  2  2  0
  2  3  1  0
  3  4  1  0
  4  5  1  0
  5  6  2  0
  5  7  1  0
  7  8  1  0
  8  9  1  0
  9 10  1  0
 10 11  1  0
 11 12  1  0
 10 13  1  0
  2 14  1  0
 14 15  2  0
 15 16  1  0
 16 17  2  0
 17 18  1  0
 18 19  2  0
 19 20  1  0
 19 21  1  0
 21 22  2  0
 22 23  1  0
 23 24  2  0
 13  7  1  0
 24 14  1  0
 23 17  1  0
  3 25  1  0
  4 26  1  0
  4 27  1  0
  8 28  1  0
  8 29  1  0
  9 30  1  0
  9 31  1  0
 10 32  1  1
 11 33  1  0
 11 34  1  0
 12 35  1  0
 13 36  1  0
 13 37  1  0
 15 38  1  0
 16 39  1  0
 18 40  1  0
 21 41  1  0
 22 42  1  0
M  END
>  <smiles>  (35) 
O=C(NCC(=O)N1CC[C@H](CO)C1)c1ccc2cc(Cl)ccc2n1

>  <score_type>  (35) 
oracle

>  <origin>  (35) 
autodockgpu

>  <m_score__min__energy>  (35) 
-7.6399999999999997

>  <m_primary>  (35) 
energy

>  <rmsd>  (35) 
8.52417025937609

>  <m_score__min__rmsd>  (35) 
8.52417025937609

>  <meeko>  (35) 
{"free_energy": -7.07, "intermolecular_energy": -8.86, "internal_energy": -1.04, "cluster_size": 4, "cluster_id": 4, "rank_in_cluster": 1}

>  <energy>  (35) 
-7.21

>  <cluster_rmsd>  (35) 
0.26

>  <cluster>  (35) 
3

$$$$

     RDKit          3D

 42 44  0  0  0  0  0  0  0  0999 V2000
  138.7860   71.5110  221.0740 O   0  0  0  0  0  0  0  0  0  0  0  0
  139.2570   72.0040  222.1360 C   0  0  0  0  0  0  0  0  0  0  0  0
  139.5660   73.3800  222.2010 N   0  0  0  0  0  0  0  0  0  0  0  0
  139.3640   74.2610  221.0900 C   0  0  0  0  0  0  0  0  0  0  0  0
  140.3440   74.0760  220.0080 C   0  0  0  0  0  0  0  0  0  0  0  0
  140.1150   74.3010  218.7910 O   0  0  0  0  0  0  0  0  0  0  0  0
  141.6430   73.6140  220.3500 N   0  0  0  0  0  0  0  0  0  0  0  0
  141.9160   72.2220  220.7240 C   0  0  0  0  0  0  0  0  0  0  0  0
  143.4240   72.1220  220.6810 C   0  0  0  0  0  0  0  0  0  0  0  0
  143.8610   73.3070  219.8770 C   0  0  2  0  0  0  0  0  0  0  0  0
  145.2880   73.6650  220.2390 C   0  0  0  0  0  0  0  0  0  0  0  0
  146.1620   73.2960  219.2410 O   0  0  0  0  0  0  0  0  0  0  0  0
  142.8910   74.3730  220.3970 C   0  0  0  0  0  0  0  0  0  0  0  0
  139.4840   71.1490  223.3070 C   0  0  0  0  0  0  0  0  0  0  0  0
  139.0990   69.8220  223.2780 C   0  0  0  0  0  0  0  0  0  0  0  0
  139.2830   68.9620  224.3440 C   0  0  0  0  0  0  0  0  0  0  0  0
  139.8880   69.4920  225.4830 C   0  0  0  0  0  0  0  0  0  0  0  0
  140.0790   68.6430  226.5600 C   0  0  0  0  0  0  0  0  0  0  0  0
  140.6790   69.1770  227.6830 C   0  0  0  0  0  0  0  0  0  0  0  0
  140.9400   68.1430  229.0650 Cl  0  0  0  0  0  0  0  0  0  0  0  0
  141.0680   70.5010  227.7230 C   0  0  0  0  0  0  0  0  0  0  0  0
  140.8800   71.3520  226.6520 C   0  0  0  0  0  0  0  0  0  0  0  0
  140.2720   70.8210  225.5080 C   0  0  0  0  0  0  0  0  0  0  0  0
  140.0670   71.6170  224.4340 N   0  0  0  0  0  0  0  0  0  0  0  0
  139.9570   73.7580  223.1040 H   0  0  0  0  0  0  0  0  0  0  0  0
  138.3579   74.0826  220.6827 H   0  0  0  0  0  0  0  0  0  0  0  0
  139.4864   75.2878  221.4651 H   0  0  0  0  0  0  0  0  0  0  0  0
  141.5383   72.0072  221.7346 H   0  0  0  0  0  0  0  0  0  0  0  0
  141.4241   71.4994  220.0562 H   0  0  0  0  0  0  0  0  0  0  0  0
  143.8447   72.1657  221.6964 H   0  0  0  0  0  0  0  0  0  0  0  0
  143.7657   71.1728  220.2425 H   0  0  0  0  0  0  0  0  0  0  0  0
  143.8445   73.1695  218.7858 H   0  0  0  0  0  0  0  0  0  0  0  0
  145.3573   74.7520  220.3930 H   0  0  0  0  0  0  0  0  0  0  0  0
  145.5603   73.1252  221.1579 H   0  0  0  0  0  0  0  0  0  0  0  0
  146.7260   74.0840  219.0390 H   0  0  0  0  0  0  0  0  0  0  0  0
  143.1400   74.6887  221.4209 H   0  0  0  0  0  0  0  0  0  0  0  0
  142.8855   75.3151  219.8293 H   0  0  0  0  0  0  0  0  0  0  0  0
  138.6246   69.4327  222.3651 H   0  0  0  0  0  0  0  0  0  0  0  0
  138.9672   67.9094  224.2962 H   0  0  0  0  0  0  0  0  0  0  0  0
  139.7663   67.5890  226.5225 H   0  0  0  0  0  0  0  0  0  0  0  0
  141.5423   70.8899  228.6361 H   0  0  0  0  0  0  0  0  0  0  0  0
  141.1953   72.4049  226.6958 H   0  0  0  0  0  0  0  0  0  0  0  0
  1  2  2  0
  2  3  1  0
  3  4  1  0
  4  5  1  0
  5  6  2  0
  5  7  1  0
  7  8  1  0
  8  9  1  0
  9 10  1  0
 10 11  1  0
 11 12  1  0
 10 13  1  0
  2 14  1  0
 14 15  2  0
 15 16  1  0
 16 17  2  0
 17 18  1  0
 18 19  2  0
 19 20  1  0
 19 21  1  0
 21 22  2  0
 22 23  1  0
 23 24  2  0
 13  7  1  0
 24 14  1  0
 23 17  1  0
  3 25  1  0
  4 26  1  0
  4 27  1  0
  8 28  1  0
  8 29  1  0
  9 30  1  0
  9 31  1  0
 10 32  1  6
 11 33  1  0
 11 34  1  0
 12 35  1  0
 13 36  1  0
 13 37  1  0
 15 38  1  0
 16 39  1  0
 18 40  1  0
 21 41  1  0
 22 42  1  0
M  END
>  <smiles>  (36) 
O=C(NCC(=O)N1CC[C@H](CO)C1)c1ccc2cc(Cl)ccc2n1

>  <score_type>  (36) 
oracle

>  <origin>  (36) 
autodockgpu

>  <m_score__min__energy>  (36) 
-7.6399999999999997

>  <m_primary>  (36) 
energy

>  <rmsd>  (36) 
3.395248626004993

>  <m_score__min__rmsd>  (36) 
3.395248626004993

>  <meeko>  (36) 
{"free_energy": -6.92, "intermolecular_energy": -8.71, "internal_energy": -1.15, "cluster_size": 15, "cluster_id": 2, "rank_in_cluster": 6}

>  <energy>  (36) 
-7.19

>  <cluster_rmsd>  (36) 
0.48

>  <cluster>  (36) 
3

$$$$

     RDKit          3D

 42 44  0  0  0  0  0  0  0  0999 V2000
  141.4270   72.9110  220.6710 O   0  0  0  0  0  0  0  0  0  0  0  0
  140.7510   73.6830  221.4060 C   0  0  0  0  0  0  0  0  0  0  0  0
  139.7430   73.1590  222.2440 N   0  0  0  0  0  0  0  0  0  0  0  0
  139.4480   71.7580  222.2980 C   0  0  0  0  0  0  0  0  0  0  0  0
  138.8070   71.3400  223.5550 C   0  0  0  0  0  0  0  0  0  0  0  0
  137.5860   71.4940  223.8190 O   0  0  0  0  0  0  0  0  0  0  0  0
  139.6120   70.7180  224.5460 N   0  0  0  0  0  0  0  0  0  0  0  0
  140.6820   71.4260  225.2570 C   0  0  0  0  0  0  0  0  0  0  0  0
  141.0300   70.5030  226.4040 C   0  0  0  0  0  0  0  0  0  0  0  0
  139.8610   69.5730  226.5120 C   0  0  2  0  0  0  0  0  0  0  0  0
  140.3030   68.2820  227.1720 C   0  0  0  0  0  0  0  0  0  0  0  0
  139.7570   67.1880  226.5380 O   0  0  0  0  0  0  0  0  0  0  0  0
  139.5480   69.3410  225.0300 C   0  0  0  0  0  0  0  0  0  0  0  0
  141.0100   75.1270  221.3920 C   0  0  0  0  0  0  0  0  0  0  0  0
  141.9280   75.6550  220.5040 C   0  0  0  0  0  0  0  0  0  0  0  0
  142.2200   77.0040  220.4380 C   0  0  0  0  0  0  0  0  0  0  0  0
  141.5380   77.8400  221.3220 C   0  0  0  0  0  0  0  0  0  0  0  0
  141.8190   79.1950  221.2670 C   0  0  0  0  0  0  0  0  0  0  0  0
  141.1390   80.0140  222.1460 C   0  0  0  0  0  0  0  0  0  0  0  0
  141.4620   81.7290  222.1130 Cl  0  0  0  0  0  0  0  0  0  0  0  0
  140.2190   79.4970  223.0370 C   0  0  0  0  0  0  0  0  0  0  0  0
  139.9350   78.1480  223.0950 C   0  0  0  0  0  0  0  0  0  0  0  0
  140.6200   77.3070  222.2080 C   0  0  0  0  0  0  0  0  0  0  0  0
  140.3740   75.9770  222.2290 N   0  0  0  0  0  0  0  0  0  0  0  0
  139.1980   73.8320  222.8440 H   0  0  0  0  0  0  0  0  0  0  0  0
  138.7732   71.5121  221.4648 H   0  0  0  0  0  0  0  0  0  0  0  0
  140.4069   71.2231  222.2309 H   0  0  0  0  0  0  0  0  0  0  0  0
  141.5517   71.5806  224.6015 H   0  0  0  0  0  0  0  0  0  0  0  0
  140.3760   72.4267  225.5959 H   0  0  0  0  0  0  0  0  0  0  0  0
  141.9517   69.9437  226.1859 H   0  0  0  0  0  0  0  0  0  0  0  0
  141.2126   71.0522  227.3394 H   0  0  0  0  0  0  0  0  0  0  0  0
  139.0118   69.9469  227.1028 H   0  0  0  0  0  0  0  0  0  0  0  0
  141.3999   68.2128  227.1269 H   0  0  0  0  0  0  0  0  0  0  0  0
  139.9583   68.2881  228.2166 H   0  0  0  0  0  0  0  0  0  0  0  0
  139.6440   66.4800  227.2200 H   0  0  0  0  0  0  0  0  0  0  0  0
  140.3021   68.7019  224.5474 H   0  0  0  0  0  0  0  0  0  0  0  0
  138.6000   68.8202  224.8298 H   0  0  0  0  0  0  0  0  0  0  0  0
  142.4497   74.9705  219.8189 H   0  0  0  0  0  0  0  0  0  0  0  0
  142.9555   77.3998  219.7222 H   0  0  0  0  0  0  0  0  0  0  0  0
  142.5519   79.6009  220.5542 H   0  0  0  0  0  0  0  0  0  0  0  0
  139.6967   80.1817  223.7214 H   0  0  0  0  0  0  0  0  0  0  0  0
  139.2000   77.7486  223.8093 H   0  0  0  0  0  0  0  0  0  0  0  0
  1  2  2  0
  2  3  1  0
  3  4  1  0
  4  5  1  0
  5  6  2  0
  5  7  1  0
  7  8  1  0
  8  9  1  0
  9 10  1  0
 10 11  1  0
 11 12  1  0
 10 13  1  0
  2 14  1  0
 14 15  2  0
 15 16  1  0
 16 17  2  0
 17 18  1  0
 18 19  2  0
 19 20  1  0
 19 21  1  0
 21 22  2  0
 22 23  1  0
 23 24  2  0
 13  7  1  0
 24 14  1  0
 23 17  1  0
  3 25  1  0
  4 26  1  0
  4 27  1  0
  8 28  1  0
  8 29  1  0
  9 30  1  0
  9 31  1  0
 10 32  1  1
 11 33  1  0
 11 34  1  0
 12 35  1  0
 13 36  1  0
 13 37  1  0
 15 38  1  0
 16 39  1  0
 18 40  1  0
 21 41  1  0
 22 42  1  0
M  END
>  <smiles>  (37) 
O=C(NCC(=O)N1CC[C@H](CO)C1)c1ccc2cc(Cl)ccc2n1

>  <score_type>  (37) 
oracle

>  <origin>  (37) 
autodockgpu

>  <m_score__min__energy>  (37) 
-7.6399999999999997

>  <m_primary>  (37) 
energy

>  <rmsd>  (37) 
8.888902639459513

>  <m_score__min__rmsd>  (37) 
8.888902639459513

>  <meeko>  (37) 
{"free_energy": -7.16, "intermolecular_energy": -8.95, "internal_energy": -1.0, "cluster_size": 15, "cluster_id": 3, "rank_in_cluster": 13}

>  <energy>  (37) 
-7.17

>  <cluster_rmsd>  (37) 
0.24

>  <cluster>  (37) 
3

$$$$

     RDKit          3D

 42 44  0  0  0  0  0  0  0  0999 V2000
  138.5320   72.0410  220.9760 O   0  0  0  0  0  0  0  0  0  0  0  0
  139.2970   72.3850  221.9190 C   0  0  0  0  0  0  0  0  0  0  0  0
  139.9520   73.6360  221.8790 N   0  0  0  0  0  0  0  0  0  0  0  0
  139.7800   74.5520  220.7910 C   0  0  0  0  0  0  0  0  0  0  0  0
  140.9620   74.6600  219.9220 C   0  0  0  0  0  0  0  0  0  0  0  0
  141.0200   75.3610  218.8780 O   0  0  0  0  0  0  0  0  0  0  0  0
  142.1270   73.9270  220.2760 N   0  0  0  0  0  0  0  0  0  0  0  0
  142.1250   72.4700  220.4430 C   0  0  0  0  0  0  0  0  0  0  0  0
  143.5930   72.1070  220.4900 C   0  0  0  0  0  0  0  0  0  0  0  0
  144.2980   73.2980  219.9180 C   0  0  2  0  0  0  0  0  0  0  0  0
  145.7230   73.3370  220.4330 C   0  0  0  0  0  0  0  0  0  0  0  0
  146.6270   73.2590  219.3980 O   0  0  0  0  0  0  0  0  0  0  0  0
  143.4730   74.4350  220.5310 C   0  0  0  0  0  0  0  0  0  0  0  0
  139.5100   71.4880  223.0600 C   0  0  0  0  0  0  0  0  0  0  0  0
  139.1020   70.1700  222.9870 C   0  0  0  0  0  0  0  0  0  0  0  0
  139.2710   69.2710  224.0220 C   0  0  0  0  0  0  0  0  0  0  0  0
  139.8850   69.7520  225.1790 C   0  0  0  0  0  0  0  0  0  0  0  0
  140.0630   68.8630  226.2270 C   0  0  0  0  0  0  0  0  0  0  0  0
  140.6710   69.3490  227.3660 C   0  0  0  0  0  0  0  0  0  0  0  0
  140.9140   68.2640  228.7120 Cl  0  0  0  0  0  0  0  0  0  0  0  0
  141.0830   70.6640  227.4510 C   0  0  0  0  0  0  0  0  0  0  0  0
  140.9100   71.5530  226.4100 C   0  0  0  0  0  0  0  0  0  0  0  0
  140.2930   71.0720  225.2480 C   0  0  0  0  0  0  0  0  0  0  0  0
  140.1010   71.9070  224.2020 N   0  0  0  0  0  0  0  0  0  0  0  0
  140.5830   73.8910  222.6830 H   0  0  0  0  0  0  0  0  0  0  0  0
  138.9296   74.2127  220.1814 H   0  0  0  0  0  0  0  0  0  0  0  0
  139.6089   75.5463  221.2293 H   0  0  0  0  0  0  0  0  0  0  0  0
  141.6210   72.1839  221.3780 H   0  0  0  0  0  0  0  0  0  0  0  0
  141.5854   71.9514  219.6368 H   0  0  0  0  0  0  0  0  0  0  0  0
  143.9149   71.9265  221.5262 H   0  0  0  0  0  0  0  0  0  0  0  0
  143.8119   71.1856  219.9304 H   0  0  0  0  0  0  0  0  0  0  0  0
  144.3654   73.3251  218.8204 H   0  0  0  0  0  0  0  0  0  0  0  0
  145.8821   74.2789  220.9785 H   0  0  0  0  0  0  0  0  0  0  0  0
  145.8778   72.4741  221.0974 H   0  0  0  0  0  0  0  0  0  0  0  0
  146.7070   74.1660  219.0090 H   0  0  0  0  0  0  0  0  0  0  0  0
  143.6703   74.5502  221.6070 H   0  0  0  0  0  0  0  0  0  0  0  0
  143.6797   75.4347  220.1212 H   0  0  0  0  0  0  0  0  0  0  0  0
  138.6203   69.8204  222.0619 H   0  0  0  0  0  0  0  0  0  0  0  0
  138.9376   68.2261  223.9382 H   0  0  0  0  0  0  0  0  0  0  0  0
  139.7340   67.8159  226.1539 H   0  0  0  0  0  0  0  0  0  0  0  0
  141.5637   71.0136  228.3766 H   0  0  0  0  0  0  0  0  0  0  0  0
  141.2435   72.5982  226.4895 H   0  0  0  0  0  0  0  0  0  0  0  0
  1  2  2  0
  2  3  1  0
  3  4  1  0
  4  5  1  0
  5  6  2  0
  5  7  1  0
  7  8  1  0
  8  9  1  0
  9 10  1  0
 10 11  1  0
 11 12  1  0
 10 13  1  0
  2 14  1  0
 14 15  2  0
 15 16  1  0
 16 17  2  0
 17 18  1  0
 18 19  2  0
 19 20  1  0
 19 21  1  0
 21 22  2  0
 22 23  1  0
 23 24  2  0
 13  7  1  0
 24 14  1  0
 23 17  1  0
  3 25  1  0
  4 26  1  0
  4 27  1  0
  8 28  1  0
  8 29  1  0
  9 30  1  0
  9 31  1  0
 10 32  1  6
 11 33  1  0
 11 34  1  0
 12 35  1  0
 13 36  1  0
 13 37  1  0
 15 38  1  0
 16 39  1  0
 18 40  1  0
 21 41  1  0
 22 42  1  0
M  END
>  <smiles>  (38) 
O=C(NCC(=O)N1CC[C@H](CO)C1)c1ccc2cc(Cl)ccc2n1

>  <score_type>  (38) 
oracle

>  <origin>  (38) 
autodockgpu

>  <m_score__min__energy>  (38) 
-7.6399999999999997

>  <m_primary>  (38) 
energy

>  <rmsd>  (38) 
3.578751984815879

>  <m_score__min__rmsd>  (38) 
3.578751984815879

>  <meeko>  (38) 
{"free_energy": -6.85, "intermolecular_energy": -8.64, "internal_energy": -1.1, "cluster_size": 15, "cluster_id": 2, "rank_in_cluster": 9}

>  <energy>  (38) 
-7.16

>  <cluster_rmsd>  (38) 
0.27

>  <cluster>  (38) 
3

$$$$

     RDKit          3D

 42 44  0  0  0  0  0  0  0  0999 V2000
  139.9900   71.7490  220.7470 O   0  0  0  0  0  0  0  0  0  0  0  0
  139.9330   72.2300  221.9130 C   0  0  0  0  0  0  0  0  0  0  0  0
  139.8100   73.6250  222.0970 N   0  0  0  0  0  0  0  0  0  0  0  0
  139.7460   74.5370  220.9950 C   0  0  0  0  0  0  0  0  0  0  0  0
  140.9440   75.3790  220.8570 C   0  0  0  0  0  0  0  0  0  0  0  0
  141.0240   76.5760  221.2380 O   0  0  0  0  0  0  0  0  0  0  0  0
  142.0990   74.8110  220.2540 N   0  0  0  0  0  0  0  0  0  0  0  0
  142.5930   75.2300  218.9380 C   0  0  0  0  0  0  0  0  0  0  0  0
  143.9730   74.6180  218.8550 C   0  0  0  0  0  0  0  0  0  0  0  0
  144.3240   74.2790  220.2710 C   0  0  2  0  0  0  0  0  0  0  0  0
  145.3540   73.1670  220.2830 C   0  0  0  0  0  0  0  0  0  0  0  0
  146.2750   73.3310  219.2720 O   0  0  0  0  0  0  0  0  0  0  0  0
  142.9740   73.7660  220.7810 C   0  0  0  0  0  0  0  0  0  0  0  0
  139.9940   71.3430  223.0800 C   0  0  0  0  0  0  0  0  0  0  0  0
  139.5360   70.0430  222.9830 C   0  0  0  0  0  0  0  0  0  0  0  0
  139.5640   69.1550  224.0410 C   0  0  0  0  0  0  0  0  0  0  0  0
  140.0850   69.6270  225.2460 C   0  0  0  0  0  0  0  0  0  0  0  0
  140.1200   68.7490  226.3160 C   0  0  0  0  0  0  0  0  0  0  0  0
  140.6370   69.2260  227.5040 C   0  0  0  0  0  0  0  0  0  0  0  0
  140.7000   68.1540  228.8790 Cl  0  0  0  0  0  0  0  0  0  0  0  0
  141.0980   70.5230  227.6120 C   0  0  0  0  0  0  0  0  0  0  0  0
  141.0660   71.4020  226.5480 C   0  0  0  0  0  0  0  0  0  0  0  0
  140.5430   70.9290  225.3380 C   0  0  0  0  0  0  0  0  0  0  0  0
  140.4900   71.7540  224.2680 N   0  0  0  0  0  0  0  0  0  0  0  0
  139.7660   73.9920  223.0840 H   0  0  0  0  0  0  0  0  0  0  0  0
  139.6210   73.9558  220.0695 H   0  0  0  0  0  0  0  0  0  0  0  0
  138.8977   75.2115  221.1834 H   0  0  0  0  0  0  0  0  0  0  0  0
  141.9455   74.8452  218.1364 H   0  0  0  0  0  0  0  0  0  0  0  0
  142.6063   76.3234  218.8187 H   0  0  0  0  0  0  0  0  0  0  0  0
  143.9588   73.7120  218.2313 H   0  0  0  0  0  0  0  0  0  0  0  0
  144.7041   75.3003  218.3968 H   0  0  0  0  0  0  0  0  0  0  0  0
  144.7507   75.1027  220.8622 H   0  0  0  0  0  0  0  0  0  0  0  0
  145.8778   73.1734  221.2502 H   0  0  0  0  0  0  0  0  0  0  0  0
  144.8349   72.2094  220.1297 H   0  0  0  0  0  0  0  0  0  0  0  0
  146.5960   74.2660  219.3170 H   0  0  0  0  0  0  0  0  0  0  0  0
  142.7279   72.7777  220.3655 H   0  0  0  0  0  0  0  0  0  0  0  0
  142.9142   73.6121  221.8685 H   0  0  0  0  0  0  0  0  0  0  0  0
  139.1307   69.6995  222.0198 H   0  0  0  0  0  0  0  0  0  0  0  0
  139.1930   68.1246  223.9381 H   0  0  0  0  0  0  0  0  0  0  0  0
  139.7520   67.7165  226.2236 H   0  0  0  0  0  0  0  0  0  0  0  0
  141.5032   70.8664  228.5753 H   0  0  0  0  0  0  0  0  0  0  0  0
  141.4366   72.4330  226.6467 H   0  0  0  0  0  0  0  0  0  0  0  0
  1  2  2  0
  2  3  1  0
  3  4  1  0
  4  5  1  0
  5  6  2  0
  5  7  1  0
  7  8  1  0
  8  9  1  0
  9 10  1  0
 10 11  1  0
 11 12  1  0
 10 13  1  0
  2 14  1  0
 14 15  2  0
 15 16  1  0
 16 17  2  0
 17 18  1  0
 18 19  2  0
 19 20  1  0
 19 21  1  0
 21 22  2  0
 22 23  1  0
 23 24  2  0
 13  7  1  0
 24 14  1  0
 23 17  1  0
  3 25  1  0
  4 26  1  0
  4 27  1  0
  8 28  1  0
  8 29  1  0
  9 30  1  0
  9 31  1  0
 10 32  1  1
 11 33  1  0
 11 34  1  0
 12 35  1  0
 13 36  1  0
 13 37  1  0
 15 38  1  0
 16 39  1  0
 18 40  1  0
 21 41  1  0
 22 42  1  0
M  END
>  <smiles>  (39) 
O=C(NCC(=O)N1CC[C@H](CO)C1)c1ccc2cc(Cl)ccc2n1

>  <score_type>  (39) 
oracle

>  <origin>  (39) 
autodockgpu

>  <m_score__min__energy>  (39) 
-7.6399999999999997

>  <m_primary>  (39) 
energy

>  <rmsd>  (39) 
3.0625352742830896

>  <m_score__min__rmsd>  (39) 
3.0625352742830896

>  <meeko>  (39) 
{"free_energy": -7.34, "intermolecular_energy": -9.13, "internal_energy": -1.06, "cluster_size": 15, "cluster_id": 2, "rank_in_cluster": 2}

>  <energy>  (39) 
-7.1

>  <cluster_rmsd>  (39) 
0.42

>  <cluster>  (39) 
3

$$$$

     RDKit          3D

 42 44  0  0  0  0  0  0  0  0999 V2000
  141.6670   72.9740  220.7260 O   0  0  0  0  0  0  0  0  0  0  0  0
  140.9520   73.7470  221.4220 C   0  0  0  0  0  0  0  0  0  0  0  0
  139.9570   73.2170  222.2730 N   0  0  0  0  0  0  0  0  0  0  0  0
  139.7200   71.8090  222.3830 C   0  0  0  0  0  0  0  0  0  0  0  0
  138.9620   71.4320  223.5860 C   0  0  0  0  0  0  0  0  0  0  0  0
  137.7530   71.7160  223.7870 O   0  0  0  0  0  0  0  0  0  0  0  0
  139.6330   70.6950  224.5990 N   0  0  0  0  0  0  0  0  0  0  0  0
  140.6450   71.2940  225.4760 C   0  0  0  0  0  0  0  0  0  0  0  0
  140.8340   70.2670  226.5700 C   0  0  0  0  0  0  0  0  0  0  0  0
  139.6270   69.3850  226.4760 C   0  0  2  0  0  0  0  0  0  0  0  0
  139.9470   68.0260  227.0650 C   0  0  0  0  0  0  0  0  0  0  0  0
  139.2140   67.0340  226.4540 O   0  0  0  0  0  0  0  0  0  0  0  0
  139.4670   69.2880  224.9550 C   0  0  0  0  0  0  0  0  0  0  0  0
  141.1520   75.1990  221.3510 C   0  0  0  0  0  0  0  0  0  0  0  0
  141.9520   75.7380  220.3610 C   0  0  0  0  0  0  0  0  0  0  0  0
  142.1820   77.0940  220.2350 C   0  0  0  0  0  0  0  0  0  0  0  0
  141.5630   77.9270  221.1670 C   0  0  0  0  0  0  0  0  0  0  0  0
  141.7840   79.2900  221.0550 C   0  0  0  0  0  0  0  0  0  0  0  0
  141.1660   80.1050  221.9820 C   0  0  0  0  0  0  0  0  0  0  0  0
  141.4170   81.8290  221.8790 Cl  0  0  0  0  0  0  0  0  0  0  0  0
  140.3640   79.5780  222.9750 C   0  0  0  0  0  0  0  0  0  0  0  0
  140.1410   78.2210  223.0910 C   0  0  0  0  0  0  0  0  0  0  0  0
  140.7620   77.3840  222.1560 C   0  0  0  0  0  0  0  0  0  0  0  0
  140.5730   76.0470  222.2300 N   0  0  0  0  0  0  0  0  0  0  0  0
  139.3790   73.8910  222.8400 H   0  0  0  0  0  0  0  0  0  0  0  0
  139.1541   71.4814  221.4984 H   0  0  0  0  0  0  0  0  0  0  0  0
  140.7031   71.3209  222.4548 H   0  0  0  0  0  0  0  0  0  0  0  0
  141.5853   71.4619  224.9305 H   0  0  0  0  0  0  0  0  0  0  0  0
  140.3402   72.2766  225.8653 H   0  0  0  0  0  0  0  0  0  0  0  0
  141.7529   69.6861  226.4023 H   0  0  0  0  0  0  0  0  0  0  0  0
  140.9349   70.7300  227.5627 H   0  0  0  0  0  0  0  0  0  0  0  0
  138.7339   69.7484  227.0055 H   0  0  0  0  0  0  0  0  0  0  0  0
  141.0182   67.8179  226.9262 H   0  0  0  0  0  0  0  0  0  0  0  0
  139.6903   68.0405  228.1345 H   0  0  0  0  0  0  0  0  0  0  0  0
  139.2370   66.2430  227.0490 H   0  0  0  0  0  0  0  0  0  0  0  0
  140.2448   68.6564  224.5010 H   0  0  0  0  0  0  0  0  0  0  0  0
  138.5275   68.8287  224.6137 H   0  0  0  0  0  0  0  0  0  0  0  0
  142.4271   75.0558  219.6406 H   0  0  0  0  0  0  0  0  0  0  0  0
  142.8230   77.4979  219.4375 H   0  0  0  0  0  0  0  0  0  0  0  0
  142.4239   79.7046  220.2621 H   0  0  0  0  0  0  0  0  0  0  0  0
  139.8887   80.2603  223.6951 H   0  0  0  0  0  0  0  0  0  0  0  0
  139.5005   77.8130  223.8868 H   0  0  0  0  0  0  0  0  0  0  0  0
  1  2  2  0
  2  3  1  0
  3  4  1  0
  4  5  1  0
  5  6  2  0
  5  7  1  0
  7  8  1  0
  8  9  1  0
  9 10  1  0
 10 11  1  0
 11 12  1  0
 10 13  1  0
  2 14  1  0
 14 15  2  0
 15 16  1  0
 16 17  2  0
 17 18  1  0
 18 19  2  0
 19 20  1  0
 19 21  1  0
 21 22  2  0
 22 23  1  0
 23 24  2  0
 13  7  1  0
 24 14  1  0
 23 17  1  0
  3 25  1  0
  4 26  1  0
  4 27  1  0
  8 28  1  0
  8 29  1  0
  9 30  1  0
  9 31  1  0
 10 32  1  1
 11 33  1  0
 11 34  1  0
 12 35  1  0
 13 36  1  0
 13 37  1  0
 15 38  1  0
 16 39  1  0
 18 40  1  0
 21 41  1  0
 22 42  1  0
M  END
>  <smiles>  (40) 
O=C(NCC(=O)N1CC[C@H](CO)C1)c1ccc2cc(Cl)ccc2n1

>  <score_type>  (40) 
oracle

>  <origin>  (40) 
autodockgpu

>  <m_score__min__energy>  (40) 
-7.6399999999999997

>  <m_primary>  (40) 
energy

>  <rmsd>  (40) 
8.998713552791488

>  <m_score__min__rmsd>  (40) 
8.998713552791488

>  <meeko>  (40) 
{"free_energy": -7.3, "intermolecular_energy": -9.09, "internal_energy": -0.98, "cluster_size": 15, "cluster_id": 3, "rank_in_cluster": 1}

>  <energy>  (40) 
-6.91

>  <cluster_rmsd>  (40) 
1.2

>  <cluster>  (40) 
3

$$$$

     RDKit          3D

 42 44  0  0  0  0  0  0  0  0999 V2000
  139.6390   71.8680  220.4870 O   0  0  0  0  0  0  0  0  0  0  0  0
  139.8940   72.3730  221.6150 C   0  0  0  0  0  0  0  0  0  0  0  0
  140.1370   73.7600  221.7310 N   0  0  0  0  0  0  0  0  0  0  0  0
  140.1060   74.6360  220.5990 C   0  0  0  0  0  0  0  0  0  0  0  0
  140.9290   74.1700  219.4720 C   0  0  0  0  0  0  0  0  0  0  0  0
  140.4700   73.7530  218.3770 O   0  0  0  0  0  0  0  0  0  0  0  0
  142.3420   74.1880  219.6190 N   0  0  0  0  0  0  0  0  0  0  0  0
  143.0740   75.3680  220.0890 C   0  0  0  0  0  0  0  0  0  0  0  0
  144.4590   74.8400  220.3940 C   0  0  0  0  0  0  0  0  0  0  0  0
  144.2870   73.3560  220.4920 C   0  0  2  0  0  0  0  0  0  0  0  0
  145.6090   72.6740  220.2020 C   0  0  0  0  0  0  0  0  0  0  0  0
  146.1140   73.0680  218.9830 O   0  0  0  0  0  0  0  0  0  0  0  0
  143.2930   73.1120  219.3520 C   0  0  0  0  0  0  0  0  0  0  0  0
  139.9370   71.5230  222.8100 C   0  0  0  0  0  0  0  0  0  0  0  0
  139.4320   70.2380  222.7610 C   0  0  0  0  0  0  0  0  0  0  0  0
  139.4410   69.3840  223.8480 C   0  0  0  0  0  0  0  0  0  0  0  0
  139.9930   69.8760  225.0310 C   0  0  0  0  0  0  0  0  0  0  0  0
  140.0100   69.0330  226.1290 C   0  0  0  0  0  0  0  0  0  0  0  0
  140.5590   69.5290  227.2940 C   0  0  0  0  0  0  0  0  0  0  0  0
  140.6000   68.5010  228.7040 Cl  0  0  0  0  0  0  0  0  0  0  0  0
  141.0670   70.8120  227.3550 C   0  0  0  0  0  0  0  0  0  0  0  0
  141.0530   71.6560  226.2630 C   0  0  0  0  0  0  0  0  0  0  0  0
  140.4980   71.1630  225.0750 C   0  0  0  0  0  0  0  0  0  0  0  0
  140.4620   71.9550  223.9790 N   0  0  0  0  0  0  0  0  0  0  0  0
  140.3450   74.1470  222.6890 H   0  0  0  0  0  0  0  0  0  0  0  0
  139.0646   74.7246  220.2561 H   0  0  0  0  0  0  0  0  0  0  0  0
  140.5220   75.6005  220.9255 H   0  0  0  0  0  0  0  0  0  0  0  0
  143.1133   76.1411  219.3074 H   0  0  0  0  0  0  0  0  0  0  0  0
  142.5994   75.8420  220.9608 H   0  0  0  0  0  0  0  0  0  0  0  0
  145.1588   75.0968  219.5851 H   0  0  0  0  0  0  0  0  0  0  0  0
  144.8756   75.2724  221.3157 H   0  0  0  0  0  0  0  0  0  0  0  0
  143.9557   72.9820  221.4720 H   0  0  0  0  0  0  0  0  0  0  0  0
  146.3292   72.9366  220.9909 H   0  0  0  0  0  0  0  0  0  0  0  0
  145.4426   71.5870  220.1760 H   0  0  0  0  0  0  0  0  0  0  0  0
  146.2420   74.0490  219.0210 H   0  0  0  0  0  0  0  0  0  0  0  0
  143.7671   73.2202  218.3653 H   0  0  0  0  0  0  0  0  0  0  0  0
  142.8576   72.1023  219.3216 H   0  0  0  0  0  0  0  0  0  0  0  0
  139.0033   69.8781  221.8141 H   0  0  0  0  0  0  0  0  0  0  0  0
  139.0323   68.3648  223.7833 H   0  0  0  0  0  0  0  0  0  0  0  0
  139.6036   68.0122  226.0752 H   0  0  0  0  0  0  0  0  0  0  0  0
  141.4955   71.1718  228.3021 H   0  0  0  0  0  0  0  0  0  0  0  0
  141.4615   72.6756  226.3232 H   0  0  0  0  0  0  0  0  0  0  0  0
  1  2  2  0
  2  3  1  0
  3  4  1  0
  4  5  1  0
  5  6  2  0
  5  7  1  0
  7  8  1  0
  8  9  1  0
  9 10  1  0
 10 11  1  0
 11 12  1  0
 10 13  1  0
  2 14  1  0
 14 15  2  0
 15 16  1  0
 16 17  2  0
 17 18  1  0
 18 19  2  0
 19 20  1  0
 19 21  1  0
 21 22  2  0
 22 23  1  0
 23 24  2  0
 13  7  1  0
 24 14  1  0
 23 17  1  0
  3 25  1  0
  4 26  1  0
  4 27  1  0
  8 28  1  0
  8 29  1  0
  9 30  1  0
  9 31  1  0
 10 32  1  1
 11 33  1  0
 11 34  1  0
 12 35  1  0
 13 36  1  0
 13 37  1  0
 15 38  1  0
 16 39  1  0
 18 40  1  0
 21 41  1  0
 22 42  1  0
M  END
>  <smiles>  (41) 
O=C(NCC(=O)N1CC[C@H](CO)C1)c1ccc2cc(Cl)ccc2n1

>  <score_type>  (41) 
oracle

>  <origin>  (41) 
autodockgpu

>  <m_score__min__energy>  (41) 
-7.6399999999999997

>  <m_primary>  (41) 
energy

>  <rmsd>  (41) 
3.3054763883723264

>  <m_score__min__rmsd>  (41) 
3.3054763883723264

>  <meeko>  (41) 
{"free_energy": -6.82, "intermolecular_energy": -8.61, "internal_energy": -1.1, "cluster_size": 15, "cluster_id": 2, "rank_in_cluster": 10}

>  <energy>  (41) 
-7.07

>  <cluster_rmsd>  (41) 
0.0

>  <cluster>  (41) 
4

$$$$

     RDKit          3D

 42 44  0  0  0  0  0  0  0  0999 V2000
  141.2090   72.6860  220.9510 O   0  0  0  0  0  0  0  0  0  0  0  0
  140.4880   73.5200  221.5640 C   0  0  0  0  0  0  0  0  0  0  0  0
  139.3810   73.0770  222.3210 N   0  0  0  0  0  0  0  0  0  0  0  0
  139.0350   71.6910  222.4250 C   0  0  0  0  0  0  0  0  0  0  0  0
  138.5530   71.3040  223.7600 C   0  0  0  0  0  0  0  0  0  0  0  0
  137.3930   71.5260  224.1930 O   0  0  0  0  0  0  0  0  0  0  0  0
  139.4530   70.6300  224.6300 N   0  0  0  0  0  0  0  0  0  0  0  0
  140.5790   71.3050  225.2820 C   0  0  0  0  0  0  0  0  0  0  0  0
  141.0410   70.3160  226.3290 C   0  0  0  0  0  0  0  0  0  0  0  0
  139.8940   69.3660  226.4860 C   0  0  2  0  0  0  0  0  0  0  0  0
  140.4040   68.0420  227.0170 C   0  0  0  0  0  0  0  0  0  0  0  0
  139.6950   66.9880  226.4880 O   0  0  0  0  0  0  0  0  0  0  0  0
  139.4450   69.2240  225.0280 C   0  0  0  0  0  0  0  0  0  0  0  0
  140.7960   74.9530  221.4940 C   0  0  0  0  0  0  0  0  0  0  0  0
  141.7250   75.4150  220.5810 C   0  0  0  0  0  0  0  0  0  0  0  0
  142.0620   76.7500  220.4620 C   0  0  0  0  0  0  0  0  0  0  0  0
  141.4150   77.6420  221.3170 C   0  0  0  0  0  0  0  0  0  0  0  0
  141.7420   78.9840  221.2100 C   0  0  0  0  0  0  0  0  0  0  0  0
  141.0960   79.8580  222.0610 C   0  0  0  0  0  0  0  0  0  0  0  0
  141.4780   81.5580  221.9610 Cl  0  0  0  0  0  0  0  0  0  0  0  0
  140.1660   79.4070  222.9760 C   0  0  0  0  0  0  0  0  0  0  0  0
  139.8370   78.0720  223.0870 C   0  0  0  0  0  0  0  0  0  0  0  0
  140.4850   77.1750  222.2290 C   0  0  0  0  0  0  0  0  0  0  0  0
  140.1950   75.8560  222.3010 N   0  0  0  0  0  0  0  0  0  0  0  0
  138.8000   73.8010  222.8210 H   0  0  0  0  0  0  0  0  0  0  0  0
  138.2433   71.4741  221.6928 H   0  0  0  0  0  0  0  0  0  0  0  0
  139.9515   71.1139  222.2326 H   0  0  0  0  0  0  0  0  0  0  0  0
  141.3818   71.5132  224.5594 H   0  0  0  0  0  0  0  0  0  0  0  0
  140.2982   72.2775  225.7125 H   0  0  0  0  0  0  0  0  0  0  0  0
  141.9419   69.7839  225.9894 H   0  0  0  0  0  0  0  0  0  0  0  0
  141.3079   70.8069  227.2765 H   0  0  0  0  0  0  0  0  0  0  0  0
  139.1020   69.6911  227.1767 H   0  0  0  0  0  0  0  0  0  0  0  0
  141.4649   67.9320  226.7478 H   0  0  0  0  0  0  0  0  0  0  0  0
  140.2785   68.0331  228.1098 H   0  0  0  0  0  0  0  0  0  0  0  0
  139.2630   66.5150  227.2440 H   0  0  0  0  0  0  0  0  0  0  0  0
  140.1553   68.6271  224.4371 H   0  0  0  0  0  0  0  0  0  0  0  0
  138.4864   68.7040  224.8838 H   0  0  0  0  0  0  0  0  0  0  0  0
  142.2182   74.6876  219.9195 H   0  0  0  0  0  0  0  0  0  0  0  0
  142.8056   77.0930  219.7275 H   0  0  0  0  0  0  0  0  0  0  0  0
  142.4840   79.3376  220.4789 H   0  0  0  0  0  0  0  0  0  0  0  0
  139.6721   80.1345  223.6369 H   0  0  0  0  0  0  0  0  0  0  0  0
  139.0945   77.7256  223.8210 H   0  0  0  0  0  0  0  0  0  0  0  0
  1  2  2  0
  2  3  1  0
  3  4  1  0
  4  5  1  0
  5  6  2  0
  5  7  1  0
  7  8  1  0
  8  9  1  0
  9 10  1  0
 10 11  1  0
 11 12  1  0
 10 13  1  0
  2 14  1  0
 14 15  2  0
 15 16  1  0
 16 17  2  0
 17 18  1  0
 18 19  2  0
 19 20  1  0
 19 21  1  0
 21 22  2  0
 22 23  1  0
 23 24  2  0
 13  7  1  0
 24 14  1  0
 23 17  1  0
  3 25  1  0
  4 26  1  0
  4 27  1  0
  8 28  1  0
  8 29  1  0
  9 30  1  0
  9 31  1  0
 10 32  1  1
 11 33  1  0
 11 34  1  0
 12 35  1  0
 13 36  1  0
 13 37  1  0
 15 38  1  0
 16 39  1  0
 18 40  1  0
 21 41  1  0
 22 42  1  0
M  END
>  <smiles>  (42) 
O=C(NCC(=O)N1CC[C@H](CO)C1)c1ccc2cc(Cl)ccc2n1

>  <score_type>  (42) 
oracle

>  <origin>  (42) 
autodockgpu

>  <m_score__min__energy>  (42) 
-7.6399999999999997

>  <m_primary>  (42) 
energy

>  <rmsd>  (42) 
8.845366920022135

>  <m_score__min__rmsd>  (42) 
8.845366920022135

>  <meeko>  (42) 
{"free_energy": -7.1, "intermolecular_energy": -8.89, "internal_energy": -1.0, "cluster_size": 15, "cluster_id": 3, "rank_in_cluster": 14}

>  <energy>  (42) 
-7.0

>  <cluster_rmsd>  (42) 
0.21

>  <cluster>  (42) 
4

$$$$

     RDKit          3D

 42 44  0  0  0  0  0  0  0  0999 V2000
  135.6150   69.5680  224.0130 O   0  0  0  0  0  0  0  0  0  0  0  0
  135.9400   70.7680  224.2300 C   0  0  0  0  0  0  0  0  0  0  0  0
  137.1740   71.2640  223.7530 N   0  0  0  0  0  0  0  0  0  0  0  0
  138.0920   70.4460  223.0190 C   0  0  0  0  0  0  0  0  0  0  0  0
  138.5960   69.2950  223.7840 C   0  0  0  0  0  0  0  0  0  0  0  0
  138.3640   68.0910  223.5010 O   0  0  0  0  0  0  0  0  0  0  0  0
  139.4040   69.5490  224.9260 N   0  0  0  0  0  0  0  0  0  0  0  0
  139.9520   70.8750  225.2290 C   0  0  0  0  0  0  0  0  0  0  0  0
  140.4460   70.7480  226.6530 C   0  0  0  0  0  0  0  0  0  0  0  0
  139.7600   69.5290  227.1860 C   0  0  2  0  0  0  0  0  0  0  0  0
  140.5710   68.9520  228.3290 C   0  0  0  0  0  0  0  0  0  0  0  0
  141.1660   67.7650  227.9670 O   0  0  0  0  0  0  0  0  0  0  0  0
  139.8270   68.6100  225.9620 C   0  0  0  0  0  0  0  0  0  0  0  0
  135.0380   71.6520  224.9760 C   0  0  0  0  0  0  0  0  0  0  0  0
  134.0120   71.1140  225.7300 C   0  0  0  0  0  0  0  0  0  0  0  0
  133.1280   71.8880  226.4560 C   0  0  0  0  0  0  0  0  0  0  0  0
  133.3090   73.2700  226.4030 C   0  0  0  0  0  0  0  0  0  0  0  0
  132.4300   74.0590  227.1270 C   0  0  0  0  0  0  0  0  0  0  0  0
  132.6190   75.4250  227.0670 C   0  0  0  0  0  0  0  0  0  0  0  0
  131.5340   76.4590  227.9630 Cl  0  0  0  0  0  0  0  0  0  0  0  0
  133.6400   75.9740  226.3180 C   0  0  0  0  0  0  0  0  0  0  0  0
  134.5190   75.1910  225.5960 C   0  0  0  0  0  0  0  0  0  0  0  0
  134.3380   73.8040  225.6480 C   0  0  0  0  0  0  0  0  0  0  0  0
  135.1740   72.9970  224.9560 N   0  0  0  0  0  0  0  0  0  0  0  0
  137.4130   72.2710  223.9520 H   0  0  0  0  0  0  0  0  0  0  0  0
  137.5809   70.0697  222.1206 H   0  0  0  0  0  0  0  0  0  0  0  0
  138.9600   71.0754  222.7734 H   0  0  0  0  0  0  0  0  0  0  0  0
  140.7800   71.1212  224.5480 H   0  0  0  0  0  0  0  0  0  0  0  0
  139.2104   71.6783  225.1074 H   0  0  0  0  0  0  0  0  0  0  0  0
  141.5382   70.6191  226.6746 H   0  0  0  0  0  0  0  0  0  0  0  0
  140.2260   71.6444  227.2513 H   0  0  0  0  0  0  0  0  0  0  0  0
  138.7452   69.6916  227.5782 H   0  0  0  0  0  0  0  0  0  0  0  0
  141.3517   69.6724  228.6146 H   0  0  0  0  0  0  0  0  0  0  0  0
  139.8939   68.7589  229.1741 H   0  0  0  0  0  0  0  0  0  0  0  0
  140.4780   67.0570  228.0410 H   0  0  0  0  0  0  0  0  0  0  0  0
  140.8466   68.2371  225.7852 H   0  0  0  0  0  0  0  0  0  0  0  0
  139.2243   67.6926  226.0341 H   0  0  0  0  0  0  0  0  0  0  0  0
  133.8943   70.0206  225.7528 H   0  0  0  0  0  0  0  0  0  0  0  0
  132.3190   71.4357  227.0483 H   0  0  0  0  0  0  0  0  0  0  0  0
  131.6180   73.6168  227.7229 H   0  0  0  0  0  0  0  0  0  0  0  0
  133.7570   77.0675  226.2955 H   0  0  0  0  0  0  0  0  0  0  0  0
  135.3297   75.6397  225.0032 H   0  0  0  0  0  0  0  0  0  0  0  0
  1  2  2  0
  2  3  1  0
  3  4  1  0
  4  5  1  0
  5  6  2  0
  5  7  1  0
  7  8  1  0
  8  9  1  0
  9 10  1  0
 10 11  1  0
 11 12  1  0
 10 13  1  0
  2 14  1  0
 14 15  2  0
 15 16  1  0
 16 17  2  0
 17 18  1  0
 18 19  2  0
 19 20  1  0
 19 21  1  0
 21 22  2  0
 22 23  1  0
 23 24  2  0
 13  7  1  0
 24 14  1  0
 23 17  1  0
  3 25  1  0
  4 26  1  0
  4 27  1  0
  8 28  1  0
  8 29  1  0
  9 30  1  0
  9 31  1  0
 10 32  1  1
 11 33  1  0
 11 34  1  0
 12 35  1  0
 13 36  1  0
 13 37  1  0
 15 38  1  0
 16 39  1  0
 18 40  1  0
 21 41  1  0
 22 42  1  0
M  END
>  <smiles>  (43) 
O=C(NCC(=O)N1CC[C@H](CO)C1)c1ccc2cc(Cl)ccc2n1

>  <score_type>  (43) 
oracle

>  <origin>  (43) 
autodockgpu

>  <m_score__min__energy>  (43) 
-7.6399999999999997

>  <m_primary>  (43) 
energy

>  <rmsd>  (43) 
8.590755192242563

>  <m_score__min__rmsd>  (43) 
8.590755192242563

>  <meeko>  (43) 
{"free_energy": -6.47, "intermolecular_energy": -8.26, "internal_energy": -1.1, "cluster_size": 4, "cluster_id": 4, "rank_in_cluster": 4}

>  <energy>  (43) 
-6.59

>  <cluster_rmsd>  (43) 
0.53

>  <cluster>  (43) 
4

$$$$

     RDKit          3D

 42 44  0  0  0  0  0  0  0  0999 V2000
  139.8870   71.9480  220.7380 O   0  0  0  0  0  0  0  0  0  0  0  0
  139.8060   72.3950  221.9150 C   0  0  0  0  0  0  0  0  0  0  0  0
  139.6310   73.7790  222.1360 N   0  0  0  0  0  0  0  0  0  0  0  0
  139.5390   74.7170  221.0580 C   0  0  0  0  0  0  0  0  0  0  0  0
  140.7510   75.5330  220.8840 C   0  0  0  0  0  0  0  0  0  0  0  0
  140.8840   76.7120  221.3000 O   0  0  0  0  0  0  0  0  0  0  0  0
  141.8550   74.9580  220.1990 N   0  0  0  0  0  0  0  0  0  0  0  0
  142.4420   75.5590  218.9970 C   0  0  0  0  0  0  0  0  0  0  0  0
  143.7460   74.8150  218.8160 C   0  0  0  0  0  0  0  0  0  0  0  0
  144.0030   74.1700  220.1440 C   0  0  2  0  0  0  0  0  0  0  0  0
  144.8980   72.9620  219.9540 C   0  0  0  0  0  0  0  0  0  0  0  0
  145.9650   73.2590  219.1360 O   0  0  0  0  0  0  0  0  0  0  0  0
  142.5840   73.7340  220.5240 C   0  0  0  0  0  0  0  0  0  0  0  0
  139.8930   71.4790  223.0580 C   0  0  0  0  0  0  0  0  0  0  0  0
  139.4580   70.1740  222.9310 C   0  0  0  0  0  0  0  0  0  0  0  0
  139.5110   69.2590  223.9660 C   0  0  0  0  0  0  0  0  0  0  0  0
  140.0340   69.7100  225.1780 C   0  0  0  0  0  0  0  0  0  0  0  0
  140.0940   68.8050  226.2250 C   0  0  0  0  0  0  0  0  0  0  0  0
  140.6130   69.2610  227.4210 C   0  0  0  0  0  0  0  0  0  0  0  0
  140.7070   68.1550  228.7680 Cl  0  0  0  0  0  0  0  0  0  0  0  0
  141.0510   70.5630  227.5590 C   0  0  0  0  0  0  0  0  0  0  0  0
  140.9940   71.4680  226.5180 C   0  0  0  0  0  0  0  0  0  0  0  0
  140.4690   71.0170  225.3010 C   0  0  0  0  0  0  0  0  0  0  0  0
  140.3920   71.8690  224.2530 N   0  0  0  0  0  0  0  0  0  0  0  0
  139.5670   74.1170  223.1330 H   0  0  0  0  0  0  0  0  0  0  0  0
  139.3576   74.1603  220.1268 H   0  0  0  0  0  0  0  0  0  0  0  0
  138.7168   75.4068  221.2991 H   0  0  0  0  0  0  0  0  0  0  0  0
  141.7851   75.4142  218.1267 H   0  0  0  0  0  0  0  0  0  0  0  0
  142.5841   76.6456  219.0929 H   0  0  0  0  0  0  0  0  0  0  0  0
  143.6524   74.0544  218.0269 H   0  0  0  0  0  0  0  0  0  0  0  0
  144.5665   75.4811  218.5109 H   0  0  0  0  0  0  0  0  0  0  0  0
  144.4990   74.8072  220.8910 H   0  0  0  0  0  0  0  0  0  0  0  0
  145.2765   72.6376  220.9346 H   0  0  0  0  0  0  0  0  0  0  0  0
  144.3088   72.1615  219.4827 H   0  0  0  0  0  0  0  0  0  0  0  0
  145.9760   74.2410  219.0110 H   0  0  0  0  0  0  0  0  0  0  0  0
  142.2420   72.8810  219.9195 H   0  0  0  0  0  0  0  0  0  0  0  0
  142.4660   73.3820  221.5595 H   0  0  0  0  0  0  0  0  0  0  0  0
  139.0510   69.8481  221.9624 H   0  0  0  0  0  0  0  0  0  0  0  0
  139.1577   68.2249  223.8398 H   0  0  0  0  0  0  0  0  0  0  0  0
  139.7437   67.7687  226.1090 H   0  0  0  0  0  0  0  0  0  0  0  0
  141.4576   70.8891  228.5276 H   0  0  0  0  0  0  0  0  0  0  0  0
  141.3472   72.5026  226.6399 H   0  0  0  0  0  0  0  0  0  0  0  0
  1  2  2  0
  2  3  1  0
  3  4  1  0
  4  5  1  0
  5  6  2  0
  5  7  1  0
  7  8  1  0
  8  9  1  0
  9 10  1  0
 10 11  1  0
 11 12  1  0
 10 13  1  0
  2 14  1  0
 14 15  2  0
 15 16  1  0
 16 17  2  0
 17 18  1  0
 18 19  2  0
 19 20  1  0
 19 21  1  0
 21 22  2  0
 22 23  1  0
 23 24  2  0
 13  7  1  0
 24 14  1  0
 23 17  1  0
  3 25  1  0
  4 26  1  0
  4 27  1  0
  8 28  1  0
  8 29  1  0
  9 30  1  0
  9 31  1  0
 10 32  1  1
 11 33  1  0
 11 34  1  0
 12 35  1  0
 13 36  1  0
 13 37  1  0
 15 38  1  0
 16 39  1  0
 18 40  1  0
 21 41  1  0
 22 42  1  0
M  END
>  <smiles>  (44) 
O=C(NCC(=O)N1CC[C@H](CO)C1)c1ccc2cc(Cl)ccc2n1

>  <score_type>  (44) 
oracle

>  <origin>  (44) 
autodockgpu

>  <m_score__min__energy>  (44) 
-7.6399999999999997

>  <m_primary>  (44) 
energy

>  <rmsd>  (44) 
2.860788757062044

>  <m_score__min__rmsd>  (44) 
2.860788757062044

>  <meeko>  (44) 
{"free_energy": -7.44, "intermolecular_energy": -9.23, "internal_energy": -1.04, "cluster_size": 15, "cluster_id": 2, "rank_in_cluster": 1}

>  <energy>  (44) 
-6.47

>  <cluster_rmsd>  (44) 
1.27

>  <cluster>  (44) 
4

$$$$

     RDKit          3D

 42 44  0  0  0  0  0  0  0  0999 V2000
  141.5910   72.9420  220.7380 O   0  0  0  0  0  0  0  0  0  0  0  0
  140.8840   73.7180  221.4390 C   0  0  0  0  0  0  0  0  0  0  0  0
  139.8800   73.1930  222.2830 N   0  0  0  0  0  0  0  0  0  0  0  0
  139.6240   71.7870  222.3790 C   0  0  0  0  0  0  0  0  0  0  0  0
  138.9000   71.4040  223.6010 C   0  0  0  0  0  0  0  0  0  0  0  0
  137.6970   71.6890  223.8370 O   0  0  0  0  0  0  0  0  0  0  0  0
  139.5960   70.6580  224.5890 N   0  0  0  0  0  0  0  0  0  0  0  0
  140.6750   71.2310  225.4000 C   0  0  0  0  0  0  0  0  0  0  0  0
  140.8840   70.2150  226.5000 C   0  0  0  0  0  0  0  0  0  0  0  0
  139.6430   69.3780  226.4860 C   0  0  2  0  0  0  0  0  0  0  0  0
  139.9440   68.0170  227.0810 C   0  0  0  0  0  0  0  0  0  0  0  0
  139.2400   67.0250  226.4350 O   0  0  0  0  0  0  0  0  0  0  0  0
  139.3980   69.2630  224.9770 C   0  0  0  0  0  0  0  0  0  0  0  0
  141.1020   75.1680  221.3810 C   0  0  0  0  0  0  0  0  0  0  0  0
  141.9440   75.7010  220.4230 C   0  0  0  0  0  0  0  0  0  0  0  0
  142.1940   77.0560  220.3120 C   0  0  0  0  0  0  0  0  0  0  0  0
  141.5500   77.8920  221.2250 C   0  0  0  0  0  0  0  0  0  0  0  0
  141.7910   79.2520  221.1260 C   0  0  0  0  0  0  0  0  0  0  0  0
  141.1490   80.0710  222.0340 C   0  0  0  0  0  0  0  0  0  0  0  0
  141.4230   81.7920  221.9480 Cl  0  0  0  0  0  0  0  0  0  0  0  0
  140.3060   79.5490  222.9950 C   0  0  0  0  0  0  0  0  0  0  0  0
  140.0630   78.1940  223.0970 C   0  0  0  0  0  0  0  0  0  0  0  0
  140.7090   77.3540  222.1820 C   0  0  0  0  0  0  0  0  0  0  0  0
  140.5020   76.0190  222.2430 N   0  0  0  0  0  0  0  0  0  0  0  0
  139.3090   73.8700  222.8540 H   0  0  0  0  0  0  0  0  0  0  0  0
  139.0239   71.4823  221.5089 H   0  0  0  0  0  0  0  0  0  0  0  0
  140.6007   71.2819  222.4101 H   0  0  0  0  0  0  0  0  0  0  0  0
  141.5902   71.3543  224.8024 H   0  0  0  0  0  0  0  0  0  0  0  0
  140.4285   72.2305  225.7877 H   0  0  0  0  0  0  0  0  0  0  0  0
  141.7706   69.5974  226.2941 H   0  0  0  0  0  0  0  0  0  0  0  0
  141.0545   70.6896  227.4776 H   0  0  0  0  0  0  0  0  0  0  0  0
  138.7938   69.7830  227.0559 H   0  0  0  0  0  0  0  0  0  0  0  0
  141.0208   67.8136  226.9852 H   0  0  0  0  0  0  0  0  0  0  0  0
  139.6438   68.0250  228.1392 H   0  0  0  0  0  0  0  0  0  0  0  0
  139.3140   66.2070  226.9870 H   0  0  0  0  0  0  0  0  0  0  0  0
  140.1268   68.5959  224.4934 H   0  0  0  0  0  0  0  0  0  0  0  0
  138.4258   68.8335  224.6937 H   0  0  0  0  0  0  0  0  0  0  0  0
  142.4372   75.0162  219.7174 H   0  0  0  0  0  0  0  0  0  0  0  0
  142.8685   77.4562  219.5407 H   0  0  0  0  0  0  0  0  0  0  0  0
  142.4638   79.6618  220.3583 H   0  0  0  0  0  0  0  0  0  0  0  0
  139.8131   80.2338  223.7008 H   0  0  0  0  0  0  0  0  0  0  0  0
  139.3886   77.7903  223.8666 H   0  0  0  0  0  0  0  0  0  0  0  0
  1  2  2  0
  2  3  1  0
  3  4  1  0
  4  5  1  0
  5  6  2  0
  5  7  1  0
  7  8  1  0
  8  9  1  0
  9 10  1  0
 10 11  1  0
 11 12  1  0
 10 13  1  0
  2 14  1  0
 14 15  2  0
 15 16  1  0
 16 17  2  0
 17 18  1  0
 18 19  2  0
 19 20  1  0
 19 21  1  0
 21 22  2  0
 22 23  1  0
 23 24  2  0
 13  7  1  0
 24 14  1  0
 23 17  1  0
  3 25  1  0
  4 26  1  0
  4 27  1  0
  8 28  1  0
  8 29  1  0
  9 30  1  0
  9 31  1  0
 10 32  1  1
 11 33  1  0
 11 34  1  0
 12 35  1  0
 13 36  1  0
 13 37  1  0
 15 38  1  0
 16 39  1  0
 18 40  1  0
 21 41  1  0
 22 42  1  0
M  END
>  <smiles>  (45) 
O=C(NCC(=O)N1CC[C@H](CO)C1)c1ccc2cc(Cl)ccc2n1

>  <score_type>  (45) 
oracle

>  <origin>  (45) 
autodockgpu

>  <m_score__min__energy>  (45) 
-7.6399999999999997

>  <m_primary>  (45) 
energy

>  <rmsd>  (45) 
8.976754956463363

>  <m_score__min__rmsd>  (45) 
8.976754956463363

>  <meeko>  (45) 
{"free_energy": -7.29, "intermolecular_energy": -9.08, "internal_energy": -0.99, "cluster_size": 15, "cluster_id": 3, "rank_in_cluster": 4}

>  <energy>  (45) 
-6.93

>  <cluster_rmsd>  (45) 
0.0

>  <cluster>  (45) 
5

$$$$

     RDKit          3D

 42 44  0  0  0  0  0  0  0  0999 V2000
  139.6030   73.8950  222.3820 O   0  0  0  0  0  0  0  0  0  0  0  0
  139.7230   72.6630  222.1320 C   0  0  0  0  0  0  0  0  0  0  0  0
  139.7340   72.2100  220.7950 N   0  0  0  0  0  0  0  0  0  0  0  0
  139.6130   73.1070  219.6850 C   0  0  0  0  0  0  0  0  0  0  0  0
  140.7370   74.0490  219.5640 C   0  0  0  0  0  0  0  0  0  0  0  0
  140.6150   75.2860  219.3680 O   0  0  0  0  0  0  0  0  0  0  0  0
  142.0580   73.5370  219.6770 N   0  0  0  0  0  0  0  0  0  0  0  0
  142.5630   72.4550  218.8260 C   0  0  0  0  0  0  0  0  0  0  0  0
  144.0560   72.4690  219.0650 C   0  0  0  0  0  0  0  0  0  0  0  0
  144.3300   73.8080  219.6780 C   0  0  2  0  0  0  0  0  0  0  0  0
  145.6070   73.7400  220.4900 C   0  0  0  0  0  0  0  0  0  0  0  0
  146.6770   73.3760  219.7050 O   0  0  0  0  0  0  0  0  0  0  0  0
  143.1130   73.9510  220.5980 C   0  0  0  0  0  0  0  0  0  0  0  0
  139.8520   71.6980  223.2300 C   0  0  0  0  0  0  0  0  0  0  0  0
  139.4580   70.3870  223.0460 C   0  0  0  0  0  0  0  0  0  0  0  0
  139.5520   69.4270  224.0350 C   0  0  0  0  0  0  0  0  0  0  0  0
  140.0730   69.8370  225.2630 C   0  0  0  0  0  0  0  0  0  0  0  0
  140.1740   68.8870  226.2650 C   0  0  0  0  0  0  0  0  0  0  0  0
  140.6900   69.3030  227.4760 C   0  0  0  0  0  0  0  0  0  0  0  0
  140.8350   68.1390  228.7680 Cl  0  0  0  0  0  0  0  0  0  0  0  0
  141.0870   70.6110  227.6710 C   0  0  0  0  0  0  0  0  0  0  0  0
  140.9890   71.5610  226.6750 C   0  0  0  0  0  0  0  0  0  0  0  0
  140.4660   71.1510  225.4430 C   0  0  0  0  0  0  0  0  0  0  0  0
  140.3510   72.0480  224.4370 N   0  0  0  0  0  0  0  0  0  0  0  0
  139.8370   71.1750  220.6230 H   0  0  0  0  0  0  0  0  0  0  0  0
  139.5569   72.5120  218.7615 H   0  0  0  0  0  0  0  0  0  0  0  0
  138.7060   73.7066  219.8520 H   0  0  0  0  0  0  0  0  0  0  0  0
  142.1285   71.4890  219.1226 H   0  0  0  0  0  0  0  0  0  0  0  0
  142.3023   72.5928  217.7663 H   0  0  0  0  0  0  0  0  0  0  0  0
  144.3465   71.6608  219.7524 H   0  0  0  0  0  0  0  0  0  0  0  0
  144.6275   72.3104  218.1386 H   0  0  0  0  0  0  0  0  0  0  0  0
  144.4614   74.6360  218.9658 H   0  0  0  0  0  0  0  0  0  0  0  0
  145.8050   74.7282  220.9307 H   0  0  0  0  0  0  0  0  0  0  0  0
  145.4791   72.9827  221.2775 H   0  0  0  0  0  0  0  0  0  0  0  0
  147.0050   74.1960  219.2570 H   0  0  0  0  0  0  0  0  0  0  0  0
  143.1791   73.2849  221.4709 H   0  0  0  0  0  0  0  0  0  0  0  0
  142.9791   74.9484  221.0422 H   0  0  0  0  0  0  0  0  0  0  0  0
  139.0507   70.0939  222.0671 H   0  0  0  0  0  0  0  0  0  0  0  0
  139.2315   68.3889  223.8627 H   0  0  0  0  0  0  0  0  0  0  0  0
  139.8569   67.8462  226.1033 H   0  0  0  0  0  0  0  0  0  0  0  0
  141.4937   70.9046  228.6500 H   0  0  0  0  0  0  0  0  0  0  0  0
  141.3093   72.5999  226.8426 H   0  0  0  0  0  0  0  0  0  0  0  0
  1  2  2  0
  2  3  1  0
  3  4  1  0
  4  5  1  0
  5  6  2  0
  5  7  1  0
  7  8  1  0
  8  9  1  0
  9 10  1  0
 10 11  1  0
 11 12  1  0
 10 13  1  0
  2 14  1  0
 14 15  2  0
 15 16  1  0
 16 17  2  0
 17 18  1  0
 18 19  2  0
 19 20  1  0
 19 21  1  0
 21 22  2  0
 22 23  1  0
 23 24  2  0
 13  7  1  0
 24 14  1  0
 23 17  1  0
  3 25  1  0
  4 26  1  0
  4 27  1  0
  8 28  1  0
  8 29  1  0
  9 30  1  0
  9 31  1  0
 10 32  1  6
 11 33  1  0
 11 34  1  0
 12 35  1  0
 13 36  1  0
 13 37  1  0
 15 38  1  0
 16 39  1  0
 18 40  1  0
 21 41  1  0
 22 42  1  0
M  END
>  <smiles>  (46) 
O=C(NCC(=O)N1CC[C@H](CO)C1)c1ccc2cc(Cl)ccc2n1

>  <score_type>  (46) 
oracle

>  <origin>  (46) 
autodockgpu

>  <m_score__min__energy>  (46) 
-7.6399999999999997

>  <m_primary>  (46) 
energy

>  <rmsd>  (46) 
3.5737318724545175

>  <m_score__min__rmsd>  (46) 
3.5737318724545175

>  <meeko>  (46) 
{"free_energy": -6.98, "intermolecular_energy": -8.77, "internal_energy": -0.9, "cluster_size": 15, "cluster_id": 2, "rank_in_cluster": 5}

>  <energy>  (46) 
-6.88

>  <cluster_rmsd>  (46) 
0.0

>  <cluster>  (46) 
6

$$$$

     RDKit          3D

 42 44  0  0  0  0  0  0  0  0999 V2000
  140.1290   72.5120  220.8580 O   0  0  0  0  0  0  0  0  0  0  0  0
  139.8990   72.8880  222.0400 C   0  0  0  0  0  0  0  0  0  0  0  0
  139.5710   74.2360  222.3040 N   0  0  0  0  0  0  0  0  0  0  0  0
  139.4860   75.2170  221.2640 C   0  0  0  0  0  0  0  0  0  0  0  0
  140.7010   76.0360  221.1290 C   0  0  0  0  0  0  0  0  0  0  0  0
  141.7310   75.6870  220.4970 O   0  0  0  0  0  0  0  0  0  0  0  0
  140.7220   77.3140  221.7500 N   0  0  0  0  0  0  0  0  0  0  0  0
  139.6400   77.7920  222.6170 C   0  0  0  0  0  0  0  0  0  0  0  0
  140.2240   79.0130  223.2900 C   0  0  0  0  0  0  0  0  0  0  0  0
  141.7030   78.8830  223.0960 C   0  0  2  0  0  0  0  0  0  0  0  0
  142.3450   80.2540  223.1730 C   0  0  0  0  0  0  0  0  0  0  0  0
  143.6700   80.2040  222.8040 O   0  0  0  0  0  0  0  0  0  0  0  0
  141.7520   78.3460  221.6620 C   0  0  0  0  0  0  0  0  0  0  0  0
  139.9710   71.9250  223.1460 C   0  0  0  0  0  0  0  0  0  0  0  0
  139.5250   70.6300  222.9630 C   0  0  0  0  0  0  0  0  0  0  0  0
  139.5640   69.6740  223.9590 C   0  0  0  0  0  0  0  0  0  0  0  0
  140.0820   70.0690  225.1920 C   0  0  0  0  0  0  0  0  0  0  0  0
  140.1280   69.1220  226.2020 C   0  0  0  0  0  0  0  0  0  0  0  0
  140.6430   69.5240  227.4170 C   0  0  0  0  0  0  0  0  0  0  0  0
  140.7190   68.3630  228.7190 Cl  0  0  0  0  0  0  0  0  0  0  0  0
  141.0920   70.8150  227.6120 C   0  0  0  0  0  0  0  0  0  0  0  0
  141.0490   71.7630  226.6090 C   0  0  0  0  0  0  0  0  0  0  0  0
  140.5280   71.3670  225.3700 C   0  0  0  0  0  0  0  0  0  0  0  0
  140.4650   72.2610  224.3580 N   0  0  0  0  0  0  0  0  0  0  0  0
  139.3850   74.5140  223.3030 H   0  0  0  0  0  0  0  0  0  0  0  0
  139.3077   74.6988  220.3103 H   0  0  0  0  0  0  0  0  0  0  0  0
  138.6641   75.8986  221.5285 H   0  0  0  0  0  0  0  0  0  0  0  0
  138.7527   78.0590  222.0241 H   0  0  0  0  0  0  0  0  0  0  0  0
  139.3062   77.0303  223.3370 H   0  0  0  0  0  0  0  0  0  0  0  0
  139.8501   79.9329  222.8168 H   0  0  0  0  0  0  0  0  0  0  0  0
  139.9475   79.0747  224.3529 H   0  0  0  0  0  0  0  0  0  0  0  0
  142.2236   78.2563  223.8351 H   0  0  0  0  0  0  0  0  0  0  0  0
  141.8103   80.9391  222.4987 H   0  0  0  0  0  0  0  0  0  0  0  0
  142.2858   80.6087  224.2126 H   0  0  0  0  0  0  0  0  0  0  0  0
  143.8020   79.3640  222.2970 H   0  0  0  0  0  0  0  0  0  0  0  0
  141.4932   79.1210  220.9255 H   0  0  0  0  0  0  0  0  0  0  0  0
  142.7393   77.9921  221.3303 H   0  0  0  0  0  0  0  0  0  0  0  0
  139.1207   70.3478  221.9797 H   0  0  0  0  0  0  0  0  0  0  0  0
  139.2033   68.6490  223.7877 H   0  0  0  0  0  0  0  0  0  0  0  0
  139.7696   68.0944  226.0422 H   0  0  0  0  0  0  0  0  0  0  0  0
  141.4960   71.0967  228.5956 H   0  0  0  0  0  0  0  0  0  0  0  0
  141.4095   72.7887  226.7760 H   0  0  0  0  0  0  0  0  0  0  0  0
  1  2  2  0
  2  3  1  0
  3  4  1  0
  4  5  1  0
  5  6  2  0
  5  7  1  0
  7  8  1  0
  8  9  1  0
  9 10  1  0
 10 11  1  0
 11 12  1  0
 10 13  1  0
  2 14  1  0
 14 15  2  0
 15 16  1  0
 16 17  2  0
 17 18  1  0
 18 19  2  0
 19 20  1  0
 19 21  1  0
 21 22  2  0
 22 23  1  0
 23 24  2  0
 13  7  1  0
 24 14  1  0
 23 17  1  0
  3 25  1  0
  4 26  1  0
  4 27  1  0
  8 28  1  0
  8 29  1  0
  9 30  1  0
  9 31  1  0
 10 32  1  1
 11 33  1  0
 11 34  1  0
 12 35  1  0
 13 36  1  0
 13 37  1  0
 15 38  1  0
 16 39  1  0
 18 40  1  0
 21 41  1  0
 22 42  1  0
M  END
>  <smiles>  (47) 
O=C(NCC(=O)N1CC[C@H](CO)C1)c1ccc2cc(Cl)ccc2n1

>  <score_type>  (47) 
oracle

>  <origin>  (47) 
autodockgpu

>  <m_score__min__energy>  (47) 
-7.6399999999999997

>  <m_primary>  (47) 
energy

>  <rmsd>  (47) 
3.950105732476033

>  <m_score__min__rmsd>  (47) 
3.950105732476033

>  <meeko>  (47) 
{"free_energy": -7.64, "intermolecular_energy": -9.43, "internal_energy": -0.81, "cluster_size": 10, "cluster_id": 1, "rank_in_cluster": 1}

>  <energy>  (47) 
-6.64

>  <cluster_rmsd>  (47) 
1.92

>  <cluster>  (47) 
6

$$$$

     RDKit          3D

 42 44  0  0  0  0  0  0  0  0999 V2000
  141.0580   72.6860  221.0930 O   0  0  0  0  0  0  0  0  0  0  0  0
  140.2830   72.8750  222.0700 C   0  0  0  0  0  0  0  0  0  0  0  0
  139.4620   74.0240  222.1110 N   0  0  0  0  0  0  0  0  0  0  0  0
  139.4720   75.0050  221.0670 C   0  0  0  0  0  0  0  0  0  0  0  0
  140.0080   76.3080  221.4890 C   0  0  0  0  0  0  0  0  0  0  0  0
  139.6510   76.9250  222.5260 O   0  0  0  0  0  0  0  0  0  0  0  0
  140.9980   76.9230  220.6770 N   0  0  0  0  0  0  0  0  0  0  0  0
  142.0380   76.1590  219.9810 C   0  0  0  0  0  0  0  0  0  0  0  0
  142.6370   77.1550  219.0130 C   0  0  0  0  0  0  0  0  0  0  0  0
  141.6230   78.2530  218.9230 C   0  0  2  0  0  0  0  0  0  0  0  0
  142.3070   79.5370  218.4950 C   0  0  0  0  0  0  0  0  0  0  0  0
  142.3670   79.6340  217.1230 O   0  0  0  0  0  0  0  0  0  0  0  0
  141.1760   78.3440  220.3850 C   0  0  0  0  0  0  0  0  0  0  0  0
  140.2310   71.9030  223.1680 C   0  0  0  0  0  0  0  0  0  0  0  0
  139.6860   70.6510  222.9560 C   0  0  0  0  0  0  0  0  0  0  0  0
  139.6060   69.6890  223.9440 C   0  0  0  0  0  0  0  0  0  0  0  0
  140.1070   70.0320  225.2000 C   0  0  0  0  0  0  0  0  0  0  0  0
  140.0330   69.0780  226.2010 C   0  0  0  0  0  0  0  0  0  0  0  0
  140.5320   69.4280  227.4400 C   0  0  0  0  0  0  0  0  0  0  0  0
  140.4600   68.2570  228.7320 Cl  0  0  0  0  0  0  0  0  0  0  0  0
  141.0780   70.6760  227.6640 C   0  0  0  0  0  0  0  0  0  0  0  0
  141.1540   71.6300  226.6690 C   0  0  0  0  0  0  0  0  0  0  0  0
  140.6510   71.2870  225.4080 C   0  0  0  0  0  0  0  0  0  0  0  0
  140.7030   72.1890  224.4020 N   0  0  0  0  0  0  0  0  0  0  0  0
  138.8270   74.1510  222.9420 H   0  0  0  0  0  0  0  0  0  0  0  0
  140.0900   74.6261  220.2396 H   0  0  0  0  0  0  0  0  0  0  0  0
  138.4262   75.1680  220.7673 H   0  0  0  0  0  0  0  0  0  0  0  0
  142.7975   75.7969  220.6895 H   0  0  0  0  0  0  0  0  0  0  0  0
  141.6415   75.2649  219.4776 H   0  0  0  0  0  0  0  0  0  0  0  0
  143.5936   77.5406  219.3953 H   0  0  0  0  0  0  0  0  0  0  0  0
  142.8522   76.7053  218.0325 H   0  0  0  0  0  0  0  0  0  0  0  0
  140.8053   78.0841  218.2069 H   0  0  0  0  0  0  0  0  0  0  0  0
  141.7425   80.3939  218.8912 H   0  0  0  0  0  0  0  0  0  0  0  0
  143.3337   79.5339  218.8899 H   0  0  0  0  0  0  0  0  0  0  0  0
  143.3160   79.7720  216.8800 H   0  0  0  0  0  0  0  0  0  0  0  0
  141.9487   78.7993  221.0219 H   0  0  0  0  0  0  0  0  0  0  0  0
  140.2901   78.9712  220.5635 H   0  0  0  0  0  0  0  0  0  0  0  0
  139.2984   70.4095  221.9553 H   0  0  0  0  0  0  0  0  0  0  0  0
  139.1678   68.6989  223.7496 H   0  0  0  0  0  0  0  0  0  0  0  0
  139.5961   68.0854  226.0173 H   0  0  0  0  0  0  0  0  0  0  0  0
  141.4641   70.9175  228.6653 H   0  0  0  0  0  0  0  0  0  0  0  0
  141.5925   72.6207  226.8593 H   0  0  0  0  0  0  0  0  0  0  0  0
  1  2  2  0
  2  3  1  0
  3  4  1  0
  4  5  1  0
  5  6  2  0
  5  7  1  0
  7  8  1  0
  8  9  1  0
  9 10  1  0
 10 11  1  0
 11 12  1  0
 10 13  1  0
  2 14  1  0
 14 15  2  0
 15 16  1  0
 16 17  2  0
 17 18  1  0
 18 19  2  0
 19 20  1  0
 19 21  1  0
 21 22  2  0
 22 23  1  0
 23 24  2  0
 13  7  1  0
 24 14  1  0
 23 17  1  0
  3 25  1  0
  4 26  1  0
  4 27  1  0
  8 28  1  0
  8 29  1  0
  9 30  1  0
  9 31  1  0
 10 32  1  6
 11 33  1  0
 11 34  1  0
 12 35  1  0
 13 36  1  0
 13 37  1  0
 15 38  1  0
 16 39  1  0
 18 40  1  0
 21 41  1  0
 22 42  1  0
M  END
>  <smiles>  (48) 
O=C(NCC(=O)N1CC[C@H](CO)C1)c1ccc2cc(Cl)ccc2n1

>  <score_type>  (48) 
oracle

>  <origin>  (48) 
autodockgpu

>  <m_score__min__energy>  (48) 
-7.6399999999999997

>  <m_primary>  (48) 
energy

>  <rmsd>  (48) 
2.496608676503232

>  <m_score__min__rmsd>  (48) 
2.496608676503232

>  <meeko>  (48) 
{"free_energy": -6.93, "intermolecular_energy": -8.72, "internal_energy": -0.82, "cluster_size": 1, "cluster_id": 5, "rank_in_cluster": 1}

>  <energy>  (48) 
-6.63

>  <cluster_rmsd>  (48) 
1.95

>  <cluster>  (48) 
6

$$$$

     RDKit          3D

 42 44  0  0  0  0  0  0  0  0999 V2000
  139.8630   72.1720  220.7890 O   0  0  0  0  0  0  0  0  0  0  0  0
  139.7890   72.5900  221.9770 C   0  0  0  0  0  0  0  0  0  0  0  0
  139.6070   73.9670  222.2330 N   0  0  0  0  0  0  0  0  0  0  0  0
  139.5000   74.9300  221.1780 C   0  0  0  0  0  0  0  0  0  0  0  0
  139.7520   76.3120  221.6170 C   0  0  0  0  0  0  0  0  0  0  0  0
  139.4030   76.7830  222.7300 O   0  0  0  0  0  0  0  0  0  0  0  0
  140.4360   77.1850  220.7280 N   0  0  0  0  0  0  0  0  0  0  0  0
  140.7750   78.5680  221.0810 C   0  0  0  0  0  0  0  0  0  0  0  0
  141.7500   78.9900  220.0040 C   0  0  0  0  0  0  0  0  0  0  0  0
  142.2190   77.7060  219.3920 C   0  0  2  0  0  0  0  0  0  0  0  0
  142.7010   77.9680  217.9790 C   0  0  0  0  0  0  0  0  0  0  0  0
  142.8880   79.3140  217.7590 O   0  0  0  0  0  0  0  0  0  0  0  0
  140.9110   76.9080  219.3750 C   0  0  0  0  0  0  0  0  0  0  0  0
  139.8910   71.6480  223.0970 C   0  0  0  0  0  0  0  0  0  0  0  0
  139.4690   70.3410  222.9410 C   0  0  0  0  0  0  0  0  0  0  0  0
  139.5370   69.4030  223.9530 C   0  0  0  0  0  0  0  0  0  0  0  0
  140.0600   69.8290  225.1730 C   0  0  0  0  0  0  0  0  0  0  0  0
  140.1350   68.9000  226.1970 C   0  0  0  0  0  0  0  0  0  0  0  0
  140.6550   69.3320  227.4010 C   0  0  0  0  0  0  0  0  0  0  0  0
  140.7670   68.1950  228.7200 Cl  0  0  0  0  0  0  0  0  0  0  0  0
  141.0800   70.6350  227.5690 C   0  0  0  0  0  0  0  0  0  0  0  0
  141.0080   71.5640  226.5510 C   0  0  0  0  0  0  0  0  0  0  0  0
  140.4820   71.1380  225.3250 C   0  0  0  0  0  0  0  0  0  0  0  0
  140.3920   72.0140  224.2990 N   0  0  0  0  0  0  0  0  0  0  0  0
  139.5490   74.2810  223.2370 H   0  0  0  0  0  0  0  0  0  0  0  0
  140.2313   74.6738  220.3972 H   0  0  0  0  0  0  0  0  0  0  0  0
  138.4646   74.8915  220.8085 H   0  0  0  0  0  0  0  0  0  0  0  0
  139.8788   79.2058  221.0693 H   0  0  0  0  0  0  0  0  0  0  0  0
  141.1967   78.6562  222.0931 H   0  0  0  0  0  0  0  0  0  0  0  0
  141.2497   79.6181  219.2522 H   0  0  0  0  0  0  0  0  0  0  0  0
  142.5814   79.5877  220.4060 H   0  0  0  0  0  0  0  0  0  0  0  0
  143.0489   77.2080  219.9148 H   0  0  0  0  0  0  0  0  0  0  0  0
  143.6546   77.4427  217.8219 H   0  0  0  0  0  0  0  0  0  0  0  0
  141.9372   77.6028  217.2768 H   0  0  0  0  0  0  0  0  0  0  0  0
  143.6820   79.4090  217.1750 H   0  0  0  0  0  0  0  0  0  0  0  0
  140.2131   77.2820  218.6114 H   0  0  0  0  0  0  0  0  0  0  0  0
  141.0187   75.8415  219.1279 H   0  0  0  0  0  0  0  0  0  0  0  0
  139.0605   70.0338  221.9669 H   0  0  0  0  0  0  0  0  0  0  0  0
  139.1945   68.3685  223.8031 H   0  0  0  0  0  0  0  0  0  0  0  0
  139.7952   67.8632  226.0575 H   0  0  0  0  0  0  0  0  0  0  0  0
  141.4882   70.9417  228.5433 H   0  0  0  0  0  0  0  0  0  0  0  0
  141.3505   72.5991  226.6969 H   0  0  0  0  0  0  0  0  0  0  0  0
  1  2  2  0
  2  3  1  0
  3  4  1  0
  4  5  1  0
  5  6  2  0
  5  7  1  0
  7  8  1  0
  8  9  1  0
  9 10  1  0
 10 11  1  0
 11 12  1  0
 10 13  1  0
  2 14  1  0
 14 15  2  0
 15 16  1  0
 16 17  2  0
 17 18  1  0
 18 19  2  0
 19 20  1  0
 19 21  1  0
 21 22  2  0
 22 23  1  0
 23 24  2  0
 13  7  1  0
 24 14  1  0
 23 17  1  0
  3 25  1  0
  4 26  1  0
  4 27  1  0
  8 28  1  0
  8 29  1  0
  9 30  1  0
  9 31  1  0
 10 32  1  1
 11 33  1  0
 11 34  1  0
 12 35  1  0
 13 36  1  0
 13 37  1  0
 15 38  1  0
 16 39  1  0
 18 40  1  0
 21 41  1  0
 22 42  1  0
M  END
>  <smiles>  (49) 
O=C(NCC(=O)N1CC[C@H](CO)C1)c1ccc2cc(Cl)ccc2n1

>  <score_type>  (49) 
oracle

>  <origin>  (49) 
autodockgpu

>  <m_score__min__energy>  (49) 
-7.6399999999999997

>  <m_primary>  (49) 
energy

>  <rmsd>  (49) 
2.2930718944805495

>  <m_score__min__rmsd>  (49) 
2.2930718944805495

>  <meeko>  (49) 
{"free_energy": -6.83, "intermolecular_energy": -8.62, "internal_energy": -1.05, "cluster_size": 10, "cluster_id": 1, "rank_in_cluster": 9}

>  <energy>  (49) 
-6.59

>  <cluster_rmsd>  (49) 
1.5

>  <cluster>  (49) 
6

$$$$

     RDKit          3D

 42 44  0  0  0  0  0  0  0  0999 V2000
  141.6560   72.3040  220.9220 O   0  0  0  0  0  0  0  0  0  0  0  0
  141.0060   73.1500  221.5960 C   0  0  0  0  0  0  0  0  0  0  0  0
  140.0940   72.7170  222.5840 N   0  0  0  0  0  0  0  0  0  0  0  0
  139.8710   71.3300  222.8590 C   0  0  0  0  0  0  0  0  0  0  0  0
  139.1320   71.0900  224.1090 C   0  0  0  0  0  0  0  0  0  0  0  0
  137.8960   71.2750  224.2550 O   0  0  0  0  0  0  0  0  0  0  0  0
  139.8540   70.6150  225.2370 N   0  0  0  0  0  0  0  0  0  0  0  0
  140.7160   71.4820  226.0470 C   0  0  0  0  0  0  0  0  0  0  0  0
  141.0030   70.6580  227.2830 C   0  0  0  0  0  0  0  0  0  0  0  0
  139.9530   69.5910  227.2810 C   0  0  2  0  0  0  0  0  0  0  0  0
  140.4470   68.3940  228.0680 C   0  0  0  0  0  0  0  0  0  0  0  0
  140.9360   67.4160  227.2320 O   0  0  0  0  0  0  0  0  0  0  0  0
  139.8890   69.2620  225.7860 C   0  0  0  0  0  0  0  0  0  0  0  0
  141.1950   74.5850  221.3570 C   0  0  0  0  0  0  0  0  0  0  0  0
  142.0060   75.0110  220.3230 C   0  0  0  0  0  0  0  0  0  0  0  0
  142.2280   76.3460  220.0420 C   0  0  0  0  0  0  0  0  0  0  0  0
  141.5870   77.2770  220.8600 C   0  0  0  0  0  0  0  0  0  0  0  0
  141.7990   78.6190  220.5910 C   0  0  0  0  0  0  0  0  0  0  0  0
  141.1600   79.5310  221.4070 C   0  0  0  0  0  0  0  0  0  0  0  0
  141.3990   81.2340  221.1050 Cl  0  0  0  0  0  0  0  0  0  0  0  0
  140.3470   79.1170  222.4430 C   0  0  0  0  0  0  0  0  0  0  0  0
  140.1330   77.7810  222.7150 C   0  0  0  0  0  0  0  0  0  0  0  0
  140.7750   76.8450  221.8940 C   0  0  0  0  0  0  0  0  0  0  0  0
  140.5960   75.5250  222.1220 N   0  0  0  0  0  0  0  0  0  0  0  0
  139.5680   73.4510  223.1280 H   0  0  0  0  0  0  0  0  0  0  0  0
  139.2962   70.8982  222.0265 H   0  0  0  0  0  0  0  0  0  0  0  0
  140.8591   70.8600  222.9723 H   0  0  0  0  0  0  0  0  0  0  0  0
  141.6464   71.7200  225.5106 H   0  0  0  0  0  0  0  0  0  0  0  0
  140.2455   72.4483  226.2813 H   0  0  0  0  0  0  0  0  0  0  0  0
  142.0077   70.2135  227.2282 H   0  0  0  0  0  0  0  0  0  0  0  0
  140.9794   71.2632  228.2012 H   0  0  0  0  0  0  0  0  0  0  0  0
  138.9886   69.8766  227.7263 H   0  0  0  0  0  0  0  0  0  0  0  0
  141.2483   68.7179  228.7485 H   0  0  0  0  0  0  0  0  0  0  0  0
  139.6016   67.9769  228.6349 H   0  0  0  0  0  0  0  0  0  0  0  0
  140.3080   66.6520  227.2760 H   0  0  0  0  0  0  0  0  0  0  0  0
  140.7775   68.7069  225.4505 H   0  0  0  0  0  0  0  0  0  0  0  0
  139.0508   68.6157  225.4865 H   0  0  0  0  0  0  0  0  0  0  0  0
  142.4974   74.2534  219.6948 H   0  0  0  0  0  0  0  0  0  0  0  0
  142.8792   76.6596  219.2128 H   0  0  0  0  0  0  0  0  0  0  0  0
  142.4476   78.9437  219.7640 H   0  0  0  0  0  0  0  0  0  0  0  0
  139.8550   79.8747  223.0705 H   0  0  0  0  0  0  0  0  0  0  0  0
  139.4836   77.4635  223.5442 H   0  0  0  0  0  0  0  0  0  0  0  0
  1  2  2  0
  2  3  1  0
  3  4  1  0
  4  5  1  0
  5  6  2  0
  5  7  1  0
  7  8  1  0
  8  9  1  0
  9 10  1  0
 10 11  1  0
 11 12  1  0
 10 13  1  0
  2 14  1  0
 14 15  2  0
 15 16  1  0
 16 17  2  0
 17 18  1  0
 18 19  2  0
 19 20  1  0
 19 21  1  0
 21 22  2  0
 22 23  1  0
 23 24  2  0
 13  7  1  0
 24 14  1  0
 23 17  1  0
  3 25  1  0
  4 26  1  0
  4 27  1  0
  8 28  1  0
  8 29  1  0
  9 30  1  0
  9 31  1  0
 10 32  1  1
 11 33  1  0
 11 34  1  0
 12 35  1  0
 13 36  1  0
 13 37  1  0
 15 38  1  0
 16 39  1  0
 18 40  1  0
 21 41  1  0
 22 42  1  0
M  END
>  <smiles>  (50) 
O=C(NCC(=O)N1CC[C@H](CO)C1)c1ccc2cc(Cl)ccc2n1

>  <score_type>  (50) 
oracle

>  <origin>  (50) 
autodockgpu

>  <m_score__min__energy>  (50) 
-7.6399999999999997

>  <m_primary>  (50) 
energy

>  <rmsd>  (50) 
9.048835537892995

>  <m_score__min__rmsd>  (50) 
9.048835537892995

>  <meeko>  (50) 
{"free_energy": -7.22, "intermolecular_energy": -9.01, "internal_energy": -0.98, "cluster_size": 15, "cluster_id": 3, "rank_in_cluster": 9}

>  <energy>  (50) 
-6.83

>  <cluster_rmsd>  (50) 
0.0

>  <cluster>  (50) 
7

$$$$
