
     RDKit          3D

 62 65  0  0  0  0  0  0  0  0999 V2000
  141.2940   77.7960  219.5090 C   0  0  0  0  0  0  0  0  0  0  0  0
  141.2340   76.9420  220.7950 C   0  0  2  0  0  0  0  0  0  0  0  0
  140.1120   76.0740  220.7910 N   0  0  0  0  0  0  0  0  0  0  0  0
  140.1170   74.7640  221.4000 C   0  0  0  0  0  0  0  0  0  0  0  0
  141.1330   74.3160  221.9730 O   0  0  0  0  0  0  0  0  0  0  0  0
  138.8350   74.0070  221.2840 C   0  0  0  0  0  0  0  0  0  0  0  0
  137.8580   74.6630  222.1160 N   0  0  0  0  0  0  0  0  0  0  0  0
  137.2270   75.8810  221.8750 C   0  0  0  0  0  0  0  0  0  0  0  0
  137.4790   76.5470  220.8490 O   0  0  0  0  0  0  0  0  0  0  0  0
  136.2430   76.3880  222.8640 C   0  0  0  0  0  0  0  0  0  0  0  0
  135.6960   77.6430  222.7370 C   0  0  0  0  0  0  0  0  0  0  0  0
  134.7800   78.1690  223.6410 C   0  0  0  0  0  0  0  0  0  0  0  0
  134.4400   77.3340  224.7020 C   0  0  0  0  0  0  0  0  0  0  0  0
  133.5340   77.7420  225.6670 C   0  0  0  0  0  0  0  0  0  0  0  0
  133.1820   76.9060  226.7360 C   0  0  0  0  0  0  0  0  0  0  0  0
  132.0270   77.4430  227.9540 Cl  0  0  0  0  0  0  0  0  0  0  0  0
  133.7560   75.6560  226.8180 C   0  0  0  0  0  0  0  0  0  0  0  0
  134.6780   75.2150  225.8570 C   0  0  0  0  0  0  0  0  0  0  0  0
  134.9910   76.0830  224.8190 C   0  0  0  0  0  0  0  0  0  0  0  0
  135.8900   75.5910  223.9170 N   0  0  0  0  0  0  0  0  0  0  0  0
  141.3330   77.9100  221.9400 C   0  0  1  0  0  0  0  0  0  0  0  0
  141.8180   79.2770  221.4590 C   0  0  0  0  0  0  0  0  0  0  0  0
  142.2680   80.0370  222.6770 C   0  0  0  0  0  0  0  0  0  0  0  0
  141.5610   79.5200  223.8810 C   0  0  0  0  0  0  0  0  0  0  0  0
  140.2040   79.1360  223.6610 N   0  0  0  0  0  0  0  0  0  0  0  0
  139.4070   80.2940  223.3380 C   0  0  0  0  0  0  0  0  0  0  0  0
  138.4120   80.5150  224.4750 C   0  0  0  0  0  0  0  0  0  0  0  0
  137.4100   81.4540  223.8420 C   0  0  0  0  0  0  0  0  0  0  0  0
  137.2900   80.9590  222.4370 C   0  0  0  0  0  0  0  0  0  0  0  0
  138.4830   80.0740  222.1630 C   0  0  0  0  0  0  0  0  0  0  0  0
  140.0890   78.0270  222.7770 C   0  0  0  0  0  0  0  0  0  0  0  0
  141.3688   78.8599  219.7785 H   0  0  0  0  0  0  0  0  0  0  0  0
  142.1739   77.5051  218.9164 H   0  0  0  0  0  0  0  0  0  0  0  0
  140.3821   77.6311  218.9164 H   0  0  0  0  0  0  0  0  0  0  0  0
  142.0683   76.2306  220.8840 H   0  0  0  0  0  0  0  0  0  0  0  0
  139.2300   76.4310  220.3090 H   0  0  0  0  0  0  0  0  0  0  0  0
  138.4949   74.0055  220.2379 H   0  0  0  0  0  0  0  0  0  0  0  0
  138.9746   72.9643  221.6053 H   0  0  0  0  0  0  0  0  0  0  0  0
  137.6030   74.1430  223.0120 H   0  0  0  0  0  0  0  0  0  0  0  0
  135.9978   78.2609  221.8784 H   0  0  0  0  0  0  0  0  0  0  0  0
  134.3530   79.1762  223.5259 H   0  0  0  0  0  0  0  0  0  0  0  0
  133.0816   78.7419  225.5932 H   0  0  0  0  0  0  0  0  0  0  0  0
  133.4863   74.9917  227.6523 H   0  0  0  0  0  0  0  0  0  0  0  0
  135.1366   74.2174  225.9232 H   0  0  0  0  0  0  0  0  0  0  0  0
  142.0847   77.4816  222.6193 H   0  0  0  0  0  0  0  0  0  0  0  0
  142.6571   79.1551  220.7583 H   0  0  0  0  0  0  0  0  0  0  0  0
  141.0157   79.8160  220.9339 H   0  0  0  0  0  0  0  0  0  0  0  0
  143.3528   79.9097  222.8072 H   0  0  0  0  0  0  0  0  0  0  0  0
  142.0341   81.1040  222.5475 H   0  0  0  0  0  0  0  0  0  0  0  0
  142.1100   78.6405  224.2485 H   0  0  0  0  0  0  0  0  0  0  0  0
  141.5344   80.3490  224.6035 H   0  0  0  0  0  0  0  0  0  0  0  0
  140.1244   81.1053  223.1453 H   0  0  0  0  0  0  0  0  0  0  0  0
  137.9372   79.5705  224.7791 H   0  0  0  0  0  0  0  0  0  0  0  0
  138.8704   80.9109  225.3932 H   0  0  0  0  0  0  0  0  0  0  0  0
  136.4412   81.3994  224.3601 H   0  0  0  0  0  0  0  0  0  0  0  0
  137.7236   82.5070  223.8951 H   0  0  0  0  0  0  0  0  0  0  0  0
  136.3603   80.3827  222.3201 H   0  0  0  0  0  0  0  0  0  0  0  0
  137.2629   81.8018  221.7307 H   0  0  0  0  0  0  0  0  0  0  0  0
  138.1770   79.0191  222.1033 H   0  0  0  0  0  0  0  0  0  0  0  0
  138.9664   80.3149  221.2047 H   0  0  0  0  0  0  0  0  0  0  0  0
  139.9553   77.1056  223.3628 H   0  0  0  0  0  0  0  0  0  0  0  0
  139.2212   78.1771  222.1179 H   0  0  0  0  0  0  0  0  0  0  0  0
  1  2  1  0
  2  3  1  0
  3  4  1  0
  4  5  2  0
  4  6  1  0
  6  7  1  0
  7  8  1  0
  8  9  2  0
  8 10  1  0
 10 11  2  0
 11 12  1  0
 12 13  2  0
 13 14  1  0
 14 15  2  0
 15 16  1  0
 15 17  1  0
 17 18  2  0
 18 19  1  0
 19 20  2  0
  2 21  1  0
 21 22  1  0
 22 23  1  0
 23 24  1  0
 24 25  1  0
 25 26  1  0
 26 27  1  0
 27 28  1  0
 28 29  1  0
 29 30  1  0
 25 31  1  0
 20 10  1  0
 31 21  1  0
 19 13  1  0
 30 26  1  0
  1 32  1  0
  1 33  1  0
  1 34  1  0
  2 35  1  6
  3 36  1  0
  6 37  1  0
  6 38  1  0
  7 39  1  0
 11 40  1  0
 12 41  1  0
 14 42  1  0
 17 43  1  0
 18 44  1  0
 21 45  1  1
 22 46  1  0
 22 47  1  0
 23 48  1  0
 23 49  1  0
 24 50  1  0
 24 51  1  0
 26 52  1  0
 27 53  1  0
 27 54  1  0
 28 55  1  0
 28 56  1  0
 29 57  1  0
 29 58  1  0
 30 59  1  0
 30 60  1  0
 31 61  1  0
 31 62  1  0
M  END
>  <smiles>  (1) 
C[C@H](NC(=O)CNC(=O)c1ccc2cc(Cl)ccc2n1)[C@H]1CCCN(C2CCCC2)C1

>  <score_type>  (1) 
oracle

>  <origin>  (1) 
autodockgpu

>  <m_score__min__energy>  (1) 
-9.0800000000000001

>  <m_primary>  (1) 
energy

>  <rmsd>  (1) 
6.28072932534213

>  <m_score__min__rmsd>  (1) 
6.28072932534213

>  <meeko>  (1) 
{"free_energy": -7.02, "intermolecular_energy": -8.81, "internal_energy": -3.54, "cluster_size": 12, "cluster_id": 5, "rank_in_cluster": 4}

>  <energy>  (1) 
-9.08

>  <cluster_rmsd>  (1) 
0.0

>  <cluster>  (1) 
1

$$$$

     RDKit          3D

 62 65  0  0  0  0  0  0  0  0999 V2000
  136.3520   77.5370  223.1230 C   0  0  0  0  0  0  0  0  0  0  0  0
  137.0960   77.9730  221.8400 C   0  0  2  0  0  0  0  0  0  0  0  0
  138.0720   77.0180  221.4550 N   0  0  0  0  0  0  0  0  0  0  0  0
  137.8440   75.5920  221.4820 C   0  0  0  0  0  0  0  0  0  0  0  0
  136.7510   75.1140  221.8570 O   0  0  0  0  0  0  0  0  0  0  0  0
  139.0000   74.7570  221.0390 C   0  0  0  0  0  0  0  0  0  0  0  0
  139.1900   73.7130  222.0150 N   0  0  0  0  0  0  0  0  0  0  0  0
  139.2720   72.3440  221.7780 C   0  0  0  0  0  0  0  0  0  0  0  0
  139.1780   71.8810  220.6220 O   0  0  0  0  0  0  0  0  0  0  0  0
  139.4720   71.4270  222.9290 C   0  0  0  0  0  0  0  0  0  0  0  0
  139.0490   70.1200  222.8730 C   0  0  0  0  0  0  0  0  0  0  0  0
  139.2020   69.2250  223.9250 C   0  0  0  0  0  0  0  0  0  0  0  0
  139.8210   69.7380  225.0620 C   0  0  0  0  0  0  0  0  0  0  0  0
  140.0340   68.9430  226.1760 C   0  0  0  0  0  0  0  0  0  0  0  0
  140.6610   69.4500  227.3230 C   0  0  0  0  0  0  0  0  0  0  0  0
  140.9240   68.4240  228.7320 Cl  0  0  0  0  0  0  0  0  0  0  0  0
  141.0690   70.7670  227.3300 C   0  0  0  0  0  0  0  0  0  0  0  0
  140.8650   71.5960  226.2170 C   0  0  0  0  0  0  0  0  0  0  0  0
  140.2390   71.0440  225.1080 C   0  0  0  0  0  0  0  0  0  0  0  0
  140.0760   71.9030  224.0590 N   0  0  0  0  0  0  0  0  0  0  0  0
  137.5840   79.3700  222.0980 C   0  0  1  0  0  0  0  0  0  0  0  0
  137.4630   79.7260  223.5800 C   0  0  0  0  0  0  0  0  0  0  0  0
  137.5790   81.2220  223.6830 C   0  0  0  0  0  0  0  0  0  0  0  0
  138.3480   81.7470  222.5210 C   0  0  0  0  0  0  0  0  0  0  0  0
  139.4180   80.9110  222.0820 N   0  0  0  0  0  0  0  0  0  0  0  0
  140.4430   80.8470  223.0950 C   0  0  0  0  0  0  0  0  0  0  0  0
  141.7660   81.2660  222.4560 C   0  0  0  0  0  0  0  0  0  0  0  0
  142.7760   80.7690  223.4650 C   0  0  0  0  0  0  0  0  0  0  0  0
  142.2140   79.4650  223.9290 C   0  0  0  0  0  0  0  0  0  0  0  0
  140.7540   79.4370  223.5410 C   0  0  0  0  0  0  0  0  0  0  0  0
  138.9610   79.6650  221.5700 C   0  0  0  0  0  0  0  0  0  0  0  0
  136.9182   77.8688  224.0058 H   0  0  0  0  0  0  0  0  0  0  0  0
  135.3501   77.9909  223.1381 H   0  0  0  0  0  0  0  0  0  0  0  0
  136.2583   76.4411  223.1381 H   0  0  0  0  0  0  0  0  0  0  0  0
  136.4490   78.0036  220.9509 H   0  0  0  0  0  0  0  0  0  0  0  0
  139.0140   77.3980  221.1300 H   0  0  0  0  0  0  0  0  0  0  0  0
  138.7865   74.3146  220.0548 H   0  0  0  0  0  0  0  0  0  0  0  0
  139.9077   75.3724  220.9534 H   0  0  0  0  0  0  0  0  0  0  0  0
  139.2750   74.0470  223.0250 H   0  0  0  0  0  0  0  0  0  0  0  0
  138.5659   69.7655  221.9505 H   0  0  0  0  0  0  0  0  0  0  0  0
  138.8575   68.1821  223.8637 H   0  0  0  0  0  0  0  0  0  0  0  0
  139.7049   67.8935  226.1605 H   0  0  0  0  0  0  0  0  0  0  0  0
  141.5632   71.1748  228.2241 H   0  0  0  0  0  0  0  0  0  0  0  0
  141.1898   72.6469  226.2229 H   0  0  0  0  0  0  0  0  0  0  0  0
  136.9172   80.0232  221.5160 H   0  0  0  0  0  0  0  0  0  0  0  0
  136.4892   79.3947  223.9699 H   0  0  0  0  0  0  0  0  0  0  0  0
  138.2485   79.2296  224.1687 H   0  0  0  0  0  0  0  0  0  0  0  0
  136.5732   81.6673  223.6871 H   0  0  0  0  0  0  0  0  0  0  0  0
  138.1026   81.4835  224.6144 H   0  0  0  0  0  0  0  0  0  0  0  0
  137.6503   81.8787  221.6808 H   0  0  0  0  0  0  0  0  0  0  0  0
  138.8089   82.6881  222.8556 H   0  0  0  0  0  0  0  0  0  0  0  0
  140.0787   81.4668  223.9276 H   0  0  0  0  0  0  0  0  0  0  0  0
  141.9077   80.7830  221.4779 H   0  0  0  0  0  0  0  0  0  0  0  0
  141.8374   82.3447  222.2525 H   0  0  0  0  0  0  0  0  0  0  0  0
  143.7599   80.6252  222.9947 H   0  0  0  0  0  0  0  0  0  0  0  0
  142.9337   81.4790  224.2903 H   0  0  0  0  0  0  0  0  0  0  0  0
  142.7472   78.6329  223.4460 H   0  0  0  0  0  0  0  0  0  0  0  0
  142.3280   79.3591  225.0179 H   0  0  0  0  0  0  0  0  0  0  0  0
  140.5855   78.7252  222.7195 H   0  0  0  0  0  0  0  0  0  0  0  0
  140.1106   79.1144  224.3729 H   0  0  0  0  0  0  0  0  0  0  0  0
  138.9284   79.7117  220.4715 H   0  0  0  0  0  0  0  0  0  0  0  0
  139.6495   78.8680  221.8874 H   0  0  0  0  0  0  0  0  0  0  0  0
  1  2  1  0
  2  3  1  0
  3  4  1  0
  4  5  2  0
  4  6  1  0
  6  7  1  0
  7  8  1  0
  8  9  2  0
  8 10  1  0
 10 11  2  0
 11 12  1  0
 12 13  2  0
 13 14  1  0
 14 15  2  0
 15 16  1  0
 15 17  1  0
 17 18  2  0
 18 19  1  0
 19 20  2  0
  2 21  1  0
 21 22  1  0
 22 23  1  0
 23 24  1  0
 24 25  1  0
 25 26  1  0
 26 27  1  0
 27 28  1  0
 28 29  1  0
 29 30  1  0
 25 31  1  0
 20 10  1  0
 31 21  1  0
 19 13  1  0
 30 26  1  0
  1 32  1  0
  1 33  1  0
  1 34  1  0
  2 35  1  6
  3 36  1  0
  6 37  1  0
  6 38  1  0
  7 39  1  0
 11 40  1  0
 12 41  1  0
 14 42  1  0
 17 43  1  0
 18 44  1  0
 21 45  1  6
 22 46  1  0
 22 47  1  0
 23 48  1  0
 23 49  1  0
 24 50  1  0
 24 51  1  0
 26 52  1  0
 27 53  1  0
 27 54  1  0
 28 55  1  0
 28 56  1  0
 29 57  1  0
 29 58  1  0
 30 59  1  0
 30 60  1  0
 31 61  1  0
 31 62  1  0
M  END
>  <smiles>  (2) 
C[C@H](NC(=O)CNC(=O)c1ccc2cc(Cl)ccc2n1)[C@H]1CCCN(C2CCCC2)C1

>  <score_type>  (2) 
oracle

>  <origin>  (2) 
autodockgpu

>  <m_score__min__energy>  (2) 
-9.0800000000000001

>  <m_primary>  (2) 
energy

>  <rmsd>  (2) 
4.264030118804425

>  <m_score__min__rmsd>  (2) 
4.264030118804425

>  <meeko>  (2) 
{"free_energy": -8.26, "intermolecular_energy": -10.05, "internal_energy": -1.56, "cluster_size": 28, "cluster_id": 1, "rank_in_cluster": 23}

>  <energy>  (2) 
-9.0

>  <cluster_rmsd>  (2) 
1.73

>  <cluster>  (2) 
1

$$$$

     RDKit          3D

 62 65  0  0  0  0  0  0  0  0999 V2000
  134.1350   76.6550  222.4290 C   0  0  0  0  0  0  0  0  0  0  0  0
  135.1670   75.9730  223.3550 C   0  0  2  0  0  0  0  0  0  0  0  0
  135.9130   74.9840  222.6630 N   0  0  0  0  0  0  0  0  0  0  0  0
  137.1610   75.2550  221.9870 C   0  0  0  0  0  0  0  0  0  0  0  0
  137.6590   76.4010  221.9740 O   0  0  0  0  0  0  0  0  0  0  0  0
  137.7870   74.0770  221.3170 C   0  0  0  0  0  0  0  0  0  0  0  0
  138.1260   73.1170  222.3380 N   0  0  0  0  0  0  0  0  0  0  0  0
  137.3290   72.0840  222.8210 C   0  0  0  0  0  0  0  0  0  0  0  0
  136.1760   71.8960  222.3790 O   0  0  0  0  0  0  0  0  0  0  0  0
  137.8680   71.1970  223.8840 C   0  0  0  0  0  0  0  0  0  0  0  0
  137.1800   70.0760  224.2860 C   0  0  0  0  0  0  0  0  0  0  0  0
  137.6360   69.2210  225.2820 C   0  0  0  0  0  0  0  0  0  0  0  0
  138.8530   69.5700  225.8600 C   0  0  0  0  0  0  0  0  0  0  0  0
  139.4140   68.7950  226.8620 C   0  0  0  0  0  0  0  0  0  0  0  0
  140.6420   69.1360  227.4460 C   0  0  0  0  0  0  0  0  0  0  0  0
  141.3400   68.1380  228.7190 Cl  0  0  0  0  0  0  0  0  0  0  0  0
  141.2940   70.2680  227.0070 C   0  0  0  0  0  0  0  0  0  0  0  0
  140.7500   71.0740  225.9950 C   0  0  0  0  0  0  0  0  0  0  0  0
  139.5310   70.6900  225.4510 C   0  0  0  0  0  0  0  0  0  0  0  0
  139.0610   71.5150  224.4700 N   0  0  0  0  0  0  0  0  0  0  0  0
  134.4020   75.5180  224.5640 C   0  0  1  0  0  0  0  0  0  0  0  0
  132.9470   75.2130  224.2070 C   0  0  0  0  0  0  0  0  0  0  0  0
  132.1790   75.1640  225.4990 C   0  0  0  0  0  0  0  0  0  0  0  0
  133.0980   74.8120  226.6170 C   0  0  0  0  0  0  0  0  0  0  0  0
  134.1170   73.8720  226.2810 N   0  0  0  0  0  0  0  0  0  0  0  0
  133.5290   72.5890  225.9810 C   0  0  0  0  0  0  0  0  0  0  0  0
  133.9140   71.6200  227.0970 C   0  0  0  0  0  0  0  0  0  0  0  0
  133.6050   70.2780  226.4720 C   0  0  0  0  0  0  0  0  0  0  0  0
  134.0210   70.4390  225.0460 C   0  0  0  0  0  0  0  0  0  0  0  0
  134.1400   71.9200  224.7720 C   0  0  0  0  0  0  0  0  0  0  0  0
  135.0350   74.3830  225.3210 C   0  0  0  0  0  0  0  0  0  0  0  0
  133.3716   77.1595  223.0395 H   0  0  0  0  0  0  0  0  0  0  0  0
  134.6445   77.3948  221.7941 H   0  0  0  0  0  0  0  0  0  0  0  0
  133.6542   75.8962  221.7941 H   0  0  0  0  0  0  0  0  0  0  0  0
  135.9605   76.6532  223.6979 H   0  0  0  0  0  0  0  0  0  0  0  0
  135.5120   73.9950  222.6580 H   0  0  0  0  0  0  0  0  0  0  0  0
  137.0772   73.6308  220.6049 H   0  0  0  0  0  0  0  0  0  0  0  0
  138.6872   74.3834  220.7640 H   0  0  0  0  0  0  0  0  0  0  0  0
  139.1010   73.2280  222.7580 H   0  0  0  0  0  0  0  0  0  0  0  0
  136.2228   69.8452  223.7955 H   0  0  0  0  0  0  0  0  0  0  0  0
  137.0730   68.3285  225.5927 H   0  0  0  0  0  0  0  0  0  0  0  0
  138.8852   67.8939  227.2063 H   0  0  0  0  0  0  0  0  0  0  0  0
  142.2583   70.5449  227.4580 H   0  0  0  0  0  0  0  0  0  0  0  0
  141.2705   71.9777  225.6451 H   0  0  0  0  0  0  0  0  0  0  0  0
  134.4297   76.3673  225.2625 H   0  0  0  0  0  0  0  0  0  0  0  0
  132.5436   76.0037  223.5573 H   0  0  0  0  0  0  0  0  0  0  0  0
  132.8670   74.2586  223.6660 H   0  0  0  0  0  0  0  0  0  0  0  0
  131.7272   76.1480  225.6932 H   0  0  0  0  0  0  0  0  0  0  0  0
  131.3887   74.4026  225.4240 H   0  0  0  0  0  0  0  0  0  0  0  0
  133.5852   75.7355  226.9631 H   0  0  0  0  0  0  0  0  0  0  0  0
  132.4774   74.3330  227.3886 H   0  0  0  0  0  0  0  0  0  0  0  0
  132.4546   72.7789  225.8413 H   0  0  0  0  0  0  0  0  0  0  0  0
  134.9810   71.7063  227.3503 H   0  0  0  0  0  0  0  0  0  0  0  0
  133.3824   71.8006  228.0429 H   0  0  0  0  0  0  0  0  0  0  0  0
  134.1812   69.4777  226.9594 H   0  0  0  0  0  0  0  0  0  0  0  0
  132.5466   69.9966  226.5751 H   0  0  0  0  0  0  0  0  0  0  0  0
  134.9908   69.9472  224.8799 H   0  0  0  0  0  0  0  0  0  0  0  0
  133.2829   69.9786  224.3728 H   0  0  0  0  0  0  0  0  0  0  0  0
  135.1954   72.2096  224.6614 H   0  0  0  0  0  0  0  0  0  0  0  0
  133.6355   72.2104  223.8387 H   0  0  0  0  0  0  0  0  0  0  0  0
  135.9372   74.7455  225.8354 H   0  0  0  0  0  0  0  0  0  0  0  0
  135.3061   73.5831  224.6163 H   0  0  0  0  0  0  0  0  0  0  0  0
  1  2  1  0
  2  3  1  0
  3  4  1  0
  4  5  2  0
  4  6  1  0
  6  7  1  0
  7  8  1  0
  8  9  2  0
  8 10  1  0
 10 11  2  0
 11 12  1  0
 12 13  2  0
 13 14  1  0
 14 15  2  0
 15 16  1  0
 15 17  1  0
 17 18  2  0
 18 19  1  0
 19 20  2  0
  2 21  1  0
 21 22  1  0
 22 23  1  0
 23 24  1  0
 24 25  1  0
 25 26  1  0
 26 27  1  0
 27 28  1  0
 28 29  1  0
 29 30  1  0
 25 31  1  0
 20 10  1  0
 31 21  1  0
 19 13  1  0
 30 26  1  0
  1 32  1  0
  1 33  1  0
  1 34  1  0
  2 35  1  1
  3 36  1  0
  6 37  1  0
  6 38  1  0
  7 39  1  0
 11 40  1  0
 12 41  1  0
 14 42  1  0
 17 43  1  0
 18 44  1  0
 21 45  1  1
 22 46  1  0
 22 47  1  0
 23 48  1  0
 23 49  1  0
 24 50  1  0
 24 51  1  0
 26 52  1  0
 27 53  1  0
 27 54  1  0
 28 55  1  0
 28 56  1  0
 29 57  1  0
 29 58  1  0
 30 59  1  0
 30 60  1  0
 31 61  1  0
 31 62  1  0
M  END
>  <smiles>  (3) 
C[C@H](NC(=O)CNC(=O)c1ccc2cc(Cl)ccc2n1)[C@H]1CCCN(C2CCCC2)C1

>  <score_type>  (3) 
oracle

>  <origin>  (3) 
autodockgpu

>  <m_score__min__energy>  (3) 
-9.0800000000000001

>  <m_primary>  (3) 
energy

>  <rmsd>  (3) 
6.757331534814188

>  <m_score__min__rmsd>  (3) 
6.757331534814188

>  <meeko>  (3) 
{"free_energy": -6.96, "intermolecular_energy": -8.75, "internal_energy": -3.41, "cluster_size": 2, "cluster_id": 4, "rank_in_cluster": 2}

>  <energy>  (3) 
-8.99

>  <cluster_rmsd>  (3) 
0.3

>  <cluster>  (3) 
1

$$$$

     RDKit          3D

 62 65  0  0  0  0  0  0  0  0999 V2000
  141.1990   74.9870  220.8150 C   0  0  0  0  0  0  0  0  0  0  0  0
  140.2410   75.4310  221.9430 C   0  0  2  0  0  0  0  0  0  0  0  0
  139.1530   74.5300  222.0840 N   0  0  0  0  0  0  0  0  0  0  0  0
  138.0870   74.4120  221.1170 C   0  0  0  0  0  0  0  0  0  0  0  0
  138.0640   75.1140  220.0830 O   0  0  0  0  0  0  0  0  0  0  0  0
  137.0360   73.4060  221.4540 C   0  0  0  0  0  0  0  0  0  0  0  0
  137.5880   72.5010  222.4310 N   0  0  0  0  0  0  0  0  0  0  0  0
  138.3970   71.3940  222.1910 C   0  0  0  0  0  0  0  0  0  0  0  0
  138.7290   71.0750  221.0300 O   0  0  0  0  0  0  0  0  0  0  0  0
  138.8660   70.5840  223.3440 C   0  0  0  0  0  0  0  0  0  0  0  0
  138.6280   69.2310  223.4000 C   0  0  0  0  0  0  0  0  0  0  0  0
  139.0350   68.4310  224.4610 C   0  0  0  0  0  0  0  0  0  0  0  0
  139.7130   69.0900  225.4820 C   0  0  0  0  0  0  0  0  0  0  0  0
  140.1740   68.4010  226.5920 C   0  0  0  0  0  0  0  0  0  0  0  0
  140.8620   69.0560  227.6230 C   0  0  0  0  0  0  0  0  0  0  0  0
  141.4410   68.1630  229.0270 Cl  0  0  0  0  0  0  0  0  0  0  0  0
  141.0790   70.4130  227.5190 C   0  0  0  0  0  0  0  0  0  0  0  0
  140.6230   71.1380  226.4080 C   0  0  0  0  0  0  0  0  0  0  0  0
  139.9460   70.4400  225.4160 C   0  0  0  0  0  0  0  0  0  0  0  0
  139.5340   71.2050  224.3620 N   0  0  0  0  0  0  0  0  0  0  0  0
  139.8960   76.8640  221.6540 C   0  0  1  0  0  0  0  0  0  0  0  0
  138.8990   77.4030  222.6800 C   0  0  0  0  0  0  0  0  0  0  0  0
  138.3120   78.6620  222.1020 C   0  0  0  0  0  0  0  0  0  0  0  0
  139.2670   79.2600  221.1270 C   0  0  0  0  0  0  0  0  0  0  0  0
  140.6430   79.1330  221.4810 N   0  0  0  0  0  0  0  0  0  0  0  0
  140.9240   79.9090  222.6650 C   0  0  0  0  0  0  0  0  0  0  0  0
  141.5520   81.2300  222.2270 C   0  0  0  0  0  0  0  0  0  0  0  0
  142.1540   81.7380  223.5170 C   0  0  0  0  0  0  0  0  0  0  0  0
  142.6810   80.5060  224.1800 C   0  0  0  0  0  0  0  0  0  0  0  0
  142.0220   79.3180  223.5190 C   0  0  0  0  0  0  0  0  0  0  0  0
  141.0790   77.7790  221.4980 C   0  0  0  0  0  0  0  0  0  0  0  0
  142.1133   74.5633  221.2561 H   0  0  0  0  0  0  0  0  0  0  0  0
  140.7052   74.2259  220.1929 H   0  0  0  0  0  0  0  0  0  0  0  0
  141.4605   75.8557  220.1929 H   0  0  0  0  0  0  0  0  0  0  0  0
  140.6978   75.3921  222.9429 H   0  0  0  0  0  0  0  0  0  0  0  0
  139.1470   73.9170  222.9570 H   0  0  0  0  0  0  0  0  0  0  0  0
  136.1530   73.9128  221.8705 H   0  0  0  0  0  0  0  0  0  0  0  0
  136.7278   72.8562  220.5525 H   0  0  0  0  0  0  0  0  0  0  0  0
  137.3380   72.7210  223.4450 H   0  0  0  0  0  0  0  0  0  0  0  0
  138.0896   68.7591  222.5649 H   0  0  0  0  0  0  0  0  0  0  0  0
  138.8347   67.3498  224.4916 H   0  0  0  0  0  0  0  0  0  0  0  0
  139.9966   67.3179  226.6659 H   0  0  0  0  0  0  0  0  0  0  0  0
  141.6193   70.9368  228.3213 H   0  0  0  0  0  0  0  0  0  0  0  0
  140.7955   72.2212  226.3253 H   0  0  0  0  0  0  0  0  0  0  0  0
  139.4204   76.8548  220.6622 H   0  0  0  0  0  0  0  0  0  0  0  0
  138.1047   76.6635  222.8598 H   0  0  0  0  0  0  0  0  0  0  0  0
  139.3947   77.6056  223.6409 H   0  0  0  0  0  0  0  0  0  0  0  0
  137.3680   78.4238  221.5900 H   0  0  0  0  0  0  0  0  0  0  0  0
  138.1215   79.3806  222.9127 H   0  0  0  0  0  0  0  0  0  0  0  0
  139.1170   78.7671  220.1551 H   0  0  0  0  0  0  0  0  0  0  0  0
  139.0517   80.3385  221.1052 H   0  0  0  0  0  0  0  0  0  0  0  0
  139.9720   79.9731  223.2123 H   0  0  0  0  0  0  0  0  0  0  0  0
  142.3254   81.0699  221.4614 H   0  0  0  0  0  0  0  0  0  0  0  0
  140.8375   81.9285  221.7670 H   0  0  0  0  0  0  0  0  0  0  0  0
  142.9666   82.4514  223.3150 H   0  0  0  0  0  0  0  0  0  0  0  0
  141.4254   82.2760  224.1412 H   0  0  0  0  0  0  0  0  0  0  0  0
  143.7722   80.4488  224.0535 H   0  0  0  0  0  0  0  0  0  0  0  0
  142.4610   80.5214  225.2577 H   0  0  0  0  0  0  0  0  0  0  0  0
  142.7451   78.7711  222.8961 H   0  0  0  0  0  0  0  0  0  0  0  0
  141.6333   78.5976  224.2538 H   0  0  0  0  0  0  0  0  0  0  0  0
  141.5956   77.5500  220.5543 H   0  0  0  0  0  0  0  0  0  0  0  0
  141.7669   77.6299  222.3433 H   0  0  0  0  0  0  0  0  0  0  0  0
  1  2  1  0
  2  3  1  0
  3  4  1  0
  4  5  2  0
  4  6  1  0
  6  7  1  0
  7  8  1  0
  8  9  2  0
  8 10  1  0
 10 11  2  0
 11 12  1  0
 12 13  2  0
 13 14  1  0
 14 15  2  0
 15 16  1  0
 15 17  1  0
 17 18  2  0
 18 19  1  0
 19 20  2  0
  2 21  1  0
 21 22  1  0
 22 23  1  0
 23 24  1  0
 24 25  1  0
 25 26  1  0
 26 27  1  0
 27 28  1  0
 28 29  1  0
 29 30  1  0
 25 31  1  0
 20 10  1  0
 31 21  1  0
 19 13  1  0
 30 26  1  0
  1 32  1  0
  1 33  1  0
  1 34  1  0
  2 35  1  1
  3 36  1  0
  6 37  1  0
  6 38  1  0
  7 39  1  0
 11 40  1  0
 12 41  1  0
 14 42  1  0
 17 43  1  0
 18 44  1  0
 21 45  1  6
 22 46  1  0
 22 47  1  0
 23 48  1  0
 23 49  1  0
 24 50  1  0
 24 51  1  0
 26 52  1  0
 27 53  1  0
 27 54  1  0
 28 55  1  0
 28 56  1  0
 29 57  1  0
 29 58  1  0
 30 59  1  0
 30 60  1  0
 31 61  1  0
 31 62  1  0
M  END
>  <smiles>  (4) 
C[C@H](NC(=O)CNC(=O)c1ccc2cc(Cl)ccc2n1)[C@H]1CCCN(C2CCCC2)C1

>  <score_type>  (4) 
oracle

>  <origin>  (4) 
autodockgpu

>  <m_score__min__energy>  (4) 
-9.0800000000000001

>  <m_primary>  (4) 
energy

>  <rmsd>  (4) 
4.5533400663579044

>  <m_score__min__rmsd>  (4) 
4.5533400663579044

>  <meeko>  (4) 
{"free_energy": -8.96, "intermolecular_energy": -10.75, "internal_energy": -1.84, "cluster_size": 28, "cluster_id": 1, "rank_in_cluster": 4}

>  <energy>  (4) 
-8.96

>  <cluster_rmsd>  (4) 
1.42

>  <cluster>  (4) 
1

$$$$

     RDKit          3D

 62 65  0  0  0  0  0  0  0  0999 V2000
  137.1080   67.5590  221.4560 C   0  0  0  0  0  0  0  0  0  0  0  0
  136.6410   68.1380  222.8100 C   0  0  2  0  0  0  0  0  0  0  0  0
  135.3840   68.7860  222.6910 N   0  0  0  0  0  0  0  0  0  0  0  0
  134.2870   68.5690  223.6050 C   0  0  0  0  0  0  0  0  0  0  0  0
  134.3880   67.7770  224.5680 O   0  0  0  0  0  0  0  0  0  0  0  0
  133.0490   69.3470  223.3050 C   0  0  0  0  0  0  0  0  0  0  0  0
  133.1790   70.6410  223.9270 N   0  0  0  0  0  0  0  0  0  0  0  0
  134.1270   71.6200  223.6440 C   0  0  0  0  0  0  0  0  0  0  0  0
  135.0010   71.4400  222.7700 O   0  0  0  0  0  0  0  0  0  0  0  0
  134.0900   72.8950  224.4030 C   0  0  0  0  0  0  0  0  0  0  0  0
  135.0970   73.8240  224.2730 C   0  0  0  0  0  0  0  0  0  0  0  0
  135.1150   75.0270  224.9690 C   0  0  0  0  0  0  0  0  0  0  0  0
  134.0360   75.2430  225.8200 C   0  0  0  0  0  0  0  0  0  0  0  0
  133.9380   76.4070  226.5660 C   0  0  0  0  0  0  0  0  0  0  0  0
  132.8510   76.6350  227.4210 C   0  0  0  0  0  0  0  0  0  0  0  0
  132.7440   78.1210  228.3620 Cl  0  0  0  0  0  0  0  0  0  0  0  0
  131.8670   75.6740  227.5150 C   0  0  0  0  0  0  0  0  0  0  0  0
  131.9390   74.4850  226.7740 C   0  0  0  0  0  0  0  0  0  0  0  0
  133.0370   74.3100  225.9420 C   0  0  0  0  0  0  0  0  0  0  0  0
  133.0430   73.1350  225.2470 N   0  0  0  0  0  0  0  0  0  0  0  0
  137.7820   68.9680  223.3220 C   0  0  1  0  0  0  0  0  0  0  0  0
  137.2710   70.1630  224.1260 C   0  0  0  0  0  0  0  0  0  0  0  0
  138.4140   71.1330  224.2470 C   0  0  0  0  0  0  0  0  0  0  0  0
  139.7060   70.4030  224.1290 C   0  0  0  0  0  0  0  0  0  0  0  0
  139.7200   69.1070  224.7240 N   0  0  0  0  0  0  0  0  0  0  0  0
  139.5860   69.2170  226.1560 C   0  0  0  0  0  0  0  0  0  0  0  0
  140.5800   70.2700  226.6440 C   0  0  0  0  0  0  0  0  0  0  0  0
  140.6310   69.9930  228.1290 C   0  0  0  0  0  0  0  0  0  0  0  0
  140.5660   68.5030  228.2220 C   0  0  0  0  0  0  0  0  0  0  0  0
  140.0580   67.9870  226.8970 C   0  0  0  0  0  0  0  0  0  0  0  0
  138.8320   68.2020  224.0770 C   0  0  0  0  0  0  0  0  0  0  0  0
  137.7895   66.7141  221.6340 H   0  0  0  0  0  0  0  0  0  0  0  0
  136.2344   67.2115  220.8849 H   0  0  0  0  0  0  0  0  0  0  0  0
  137.6326   68.3392  220.8849 H   0  0  0  0  0  0  0  0  0  0  0  0
  136.4260   67.3658  223.5633 H   0  0  0  0  0  0  0  0  0  0  0  0
  135.2700   69.4680  221.8790 H   0  0  0  0  0  0  0  0  0  0  0  0
  132.9356   69.4646  222.2172 H   0  0  0  0  0  0  0  0  0  0  0  0
  132.1629   68.8225  223.6918 H   0  0  0  0  0  0  0  0  0  0  0  0
  132.4600   70.8530  224.6870 H   0  0  0  0  0  0  0  0  0  0  0  0
  135.9271   73.6040  223.5856 H   0  0  0  0  0  0  0  0  0  0  0  0
  135.9279   75.7591  224.8545 H   0  0  0  0  0  0  0  0  0  0  0  0
  134.7291   77.1670  226.4854 H   0  0  0  0  0  0  0  0  0  0  0  0
  131.0097   75.8426  228.1833 H   0  0  0  0  0  0  0  0  0  0  0  0
  131.1536   73.7185  226.8493 H   0  0  0  0  0  0  0  0  0  0  0  0
  138.2997   69.3349  222.4235 H   0  0  0  0  0  0  0  0  0  0  0  0
  136.4271   70.6369  223.6033 H   0  0  0  0  0  0  0  0  0  0  0  0
  136.9183   69.8463  225.1186 H   0  0  0  0  0  0  0  0  0  0  0  0
  138.3434   71.8832  223.4456 H   0  0  0  0  0  0  0  0  0  0  0  0
  138.3659   71.6326  225.2258 H   0  0  0  0  0  0  0  0  0  0  0  0
  139.9385   70.2906  223.0597 H   0  0  0  0  0  0  0  0  0  0  0  0
  140.4495   71.0015  224.6758 H   0  0  0  0  0  0  0  0  0  0  0  0
  138.5208   69.4197  226.3408 H   0  0  0  0  0  0  0  0  0  0  0  0
  141.5671   70.1335  226.1782 H   0  0  0  0  0  0  0  0  0  0  0  0
  140.2895   71.3015  226.3959 H   0  0  0  0  0  0  0  0  0  0  0  0
  141.5672   70.3714  228.5653 H   0  0  0  0  0  0  0  0  0  0  0  0
  139.8171   70.4872  228.6797 H   0  0  0  0  0  0  0  0  0  0  0  0
  141.5674   68.0954  228.4248 H   0  0  0  0  0  0  0  0  0  0  0  0
  139.8978   68.1948  229.0396 H   0  0  0  0  0  0  0  0  0  0  0  0
  140.8648   67.4863  226.3416 H   0  0  0  0  0  0  0  0  0  0  0  0
  139.2555   67.2451  227.0216 H   0  0  0  0  0  0  0  0  0  0  0  0
  139.3995   67.5728  223.3756 H   0  0  0  0  0  0  0  0  0  0  0  0
  138.3450   67.5691  224.8335 H   0  0  0  0  0  0  0  0  0  0  0  0
  1  2  1  0
  2  3  1  0
  3  4  1  0
  4  5  2  0
  4  6  1  0
  6  7  1  0
  7  8  1  0
  8  9  2  0
  8 10  1  0
 10 11  2  0
 11 12  1  0
 12 13  2  0
 13 14  1  0
 14 15  2  0
 15 16  1  0
 15 17  1  0
 17 18  2  0
 18 19  1  0
 19 20  2  0
  2 21  1  0
 21 22  1  0
 22 23  1  0
 23 24  1  0
 24 25  1  0
 25 26  1  0
 26 27  1  0
 27 28  1  0
 28 29  1  0
 29 30  1  0
 25 31  1  0
 20 10  1  0
 31 21  1  0
 19 13  1  0
 30 26  1  0
  1 32  1  0
  1 33  1  0
  1 34  1  0
  2 35  1  1
  3 36  1  0
  6 37  1  0
  6 38  1  0
  7 39  1  0
 11 40  1  0
 12 41  1  0
 14 42  1  0
 17 43  1  0
 18 44  1  0
 21 45  1  6
 22 46  1  0
 22 47  1  0
 23 48  1  0
 23 49  1  0
 24 50  1  0
 24 51  1  0
 26 52  1  0
 27 53  1  0
 27 54  1  0
 28 55  1  0
 28 56  1  0
 29 57  1  0
 29 58  1  0
 30 59  1  0
 30 60  1  0
 31 61  1  0
 31 62  1  0
M  END
>  <smiles>  (5) 
C[C@H](NC(=O)CNC(=O)c1ccc2cc(Cl)ccc2n1)[C@H]1CCCN(C2CCCC2)C1

>  <score_type>  (5) 
oracle

>  <origin>  (5) 
autodockgpu

>  <m_score__min__energy>  (5) 
-9.0800000000000001

>  <m_primary>  (5) 
energy

>  <rmsd>  (5) 
10.691783506678853

>  <m_score__min__rmsd>  (5) 
10.691783506678853

>  <meeko>  (5) 
{"free_energy": -6.91, "intermolecular_energy": -8.7, "internal_energy": -2.82, "cluster_size": 1, "cluster_id": 6, "rank_in_cluster": 1}

>  <energy>  (5) 
-8.94

>  <cluster_rmsd>  (5) 
0.39

>  <cluster>  (5) 
1

$$$$

     RDKit          3D

 62 65  0  0  0  0  0  0  0  0999 V2000
  141.1450   78.5080  219.4320 C   0  0  0  0  0  0  0  0  0  0  0  0
  141.3040   77.5870  220.6620 C   0  0  2  0  0  0  0  0  0  0  0  0
  140.2590   76.6290  220.7320 N   0  0  0  0  0  0  0  0  0  0  0  0
  140.3950   75.3490  221.3880 C   0  0  0  0  0  0  0  0  0  0  0  0
  141.4650   75.0090  221.9380 O   0  0  0  0  0  0  0  0  0  0  0  0
  139.1780   74.4850  221.3490 C   0  0  0  0  0  0  0  0  0  0  0  0
  139.3430   73.4450  222.3330 N   0  0  0  0  0  0  0  0  0  0  0  0
  138.8060   72.1610  222.3000 C   0  0  0  0  0  0  0  0  0  0  0  0
  138.0860   71.7860  221.3510 O   0  0  0  0  0  0  0  0  0  0  0  0
  139.0980   71.2320  223.4210 C   0  0  0  0  0  0  0  0  0  0  0  0
  138.6370   69.9360  223.4030 C   0  0  0  0  0  0  0  0  0  0  0  0
  138.8730   69.0310  224.4310 C   0  0  0  0  0  0  0  0  0  0  0  0
  139.6190   69.5190  225.4990 C   0  0  0  0  0  0  0  0  0  0  0  0
  139.9250   68.7120  226.5820 C   0  0  0  0  0  0  0  0  0  0  0  0
  140.6800   69.1940  227.6600 C   0  0  0  0  0  0  0  0  0  0  0  0
  141.0590   68.1520  229.0300 Cl  0  0  0  0  0  0  0  0  0  0  0  0
  141.1220   70.5000  227.6300 C   0  0  0  0  0  0  0  0  0  0  0  0
  140.8270   71.3410  226.5480 C   0  0  0  0  0  0  0  0  0  0  0  0
  140.0750   70.8130  225.5060 C   0  0  0  0  0  0  0  0  0  0  0  0
  139.8290   71.6840  224.4840 N   0  0  0  0  0  0  0  0  0  0  0  0
  141.4630   78.4980  221.8450 C   0  0  1  0  0  0  0  0  0  0  0  0
  141.8340   79.9120  221.3990 C   0  0  0  0  0  0  0  0  0  0  0  0
  142.3600   80.6310  222.6110 C   0  0  0  0  0  0  0  0  0  0  0  0
  141.7950   80.0170  223.8440 C   0  0  0  0  0  0  0  0  0  0  0  0
  140.4440   79.5720  223.7280 N   0  0  0  0  0  0  0  0  0  0  0  0
  139.5650   80.7020  223.5450 C   0  0  0  0  0  0  0  0  0  0  0  0
  138.4550   80.6110  224.5900 C   0  0  0  0  0  0  0  0  0  0  0  0
  137.4230   81.5700  224.0410 C   0  0  0  0  0  0  0  0  0  0  0  0
  137.4790   81.3540  222.5630 C   0  0  0  0  0  0  0  0  0  0  0  0
  138.7760   80.6420  222.2580 C   0  0  0  0  0  0  0  0  0  0  0  0
  140.3000   78.5060  222.7980 C   0  0  0  0  0  0  0  0  0  0  0  0
  140.9668   79.5403  219.7675 H   0  0  0  0  0  0  0  0  0  0  0  0
  142.0626   78.4725  218.8263 H   0  0  0  0  0  0  0  0  0  0  0  0
  140.2924   78.1670  218.8263 H   0  0  0  0  0  0  0  0  0  0  0  0
  142.1958   76.9449  220.6122 H   0  0  0  0  0  0  0  0  0  0  0  0
  139.3330   76.8930  220.2720 H   0  0  0  0  0  0  0  0  0  0  0  0
  138.2861   75.0844  221.5843 H   0  0  0  0  0  0  0  0  0  0  0  0
  139.0490   74.0487  220.3475 H   0  0  0  0  0  0  0  0  0  0  0  0
  139.9480   73.7070  223.1730 H   0  0  0  0  0  0  0  0  0  0  0  0
  138.0535   69.5999  222.5332 H   0  0  0  0  0  0  0  0  0  0  0  0
  138.4953   67.9983  224.4021 H   0  0  0  0  0  0  0  0  0  0  0  0
  139.5683   67.6715  226.5965 H   0  0  0  0  0  0  0  0  0  0  0  0
  141.7165   70.8886  228.4700 H   0  0  0  0  0  0  0  0  0  0  0  0
  141.1788   72.3830  226.5248 H   0  0  0  0  0  0  0  0  0  0  0  0
  142.2947   78.0750  222.4275 H   0  0  0  0  0  0  0  0  0  0  0  0
  142.6079   79.8712  220.6184 H   0  0  0  0  0  0  0  0  0  0  0  0
  140.9606   80.4339  220.9810 H   0  0  0  0  0  0  0  0  0  0  0  0
  143.4571   80.5542  222.6341 H   0  0  0  0  0  0  0  0  0  0  0  0
  142.0644   81.6895  222.5631 H   0  0  0  0  0  0  0  0  0  0  0  0
  142.4184   79.1510  224.1112 H   0  0  0  0  0  0  0  0  0  0  0  0
  141.7955   80.8063  224.6102 H   0  0  0  0  0  0  0  0  0  0  0  0
  140.2105   81.5918  223.5862 H   0  0  0  0  0  0  0  0  0  0  0  0
  138.0538   79.5890  224.6583 H   0  0  0  0  0  0  0  0  0  0  0  0
  138.7868   80.8545  225.6101 H   0  0  0  0  0  0  0  0  0  0  0  0
  136.4226   81.3344  224.4330 H   0  0  0  0  0  0  0  0  0  0  0  0
  137.6222   82.6141  224.3242 H   0  0  0  0  0  0  0  0  0  0  0  0
  136.6270   80.7373  222.2409 H   0  0  0  0  0  0  0  0  0  0  0  0
  137.4286   82.3141  222.0285 H   0  0  0  0  0  0  0  0  0  0  0  0
  138.5855   79.5978  221.9692 H   0  0  0  0  0  0  0  0  0  0  0  0
  139.3158   81.1064  221.4196 H   0  0  0  0  0  0  0  0  0  0  0  0
  140.2669   77.5500  223.3412 H   0  0  0  0  0  0  0  0  0  0  0  0
  139.3677   78.6437  222.2307 H   0  0  0  0  0  0  0  0  0  0  0  0
  1  2  1  0
  2  3  1  0
  3  4  1  0
  4  5  2  0
  4  6  1  0
  6  7  1  0
  7  8  1  0
  8  9  2  0
  8 10  1  0
 10 11  2  0
 11 12  1  0
 12 13  2  0
 13 14  1  0
 14 15  2  0
 15 16  1  0
 15 17  1  0
 17 18  2  0
 18 19  1  0
 19 20  2  0
  2 21  1  0
 21 22  1  0
 22 23  1  0
 23 24  1  0
 24 25  1  0
 25 26  1  0
 26 27  1  0
 27 28  1  0
 28 29  1  0
 29 30  1  0
 25 31  1  0
 20 10  1  0
 31 21  1  0
 19 13  1  0
 30 26  1  0
  1 32  1  0
  1 33  1  0
  1 34  1  0
  2 35  1  6
  3 36  1  0
  6 37  1  0
  6 38  1  0
  7 39  1  0
 11 40  1  0
 12 41  1  0
 14 42  1  0
 17 43  1  0
 18 44  1  0
 21 45  1  1
 22 46  1  0
 22 47  1  0
 23 48  1  0
 23 49  1  0
 24 50  1  0
 24 51  1  0
 26 52  1  0
 27 53  1  0
 27 54  1  0
 28 55  1  0
 28 56  1  0
 29 57  1  0
 29 58  1  0
 30 59  1  0
 30 60  1  0
 31 61  1  0
 31 62  1  0
M  END
>  <smiles>  (6) 
C[C@H](NC(=O)CNC(=O)c1ccc2cc(Cl)ccc2n1)[C@H]1CCCN(C2CCCC2)C1

>  <score_type>  (6) 
oracle

>  <origin>  (6) 
autodockgpu

>  <m_score__min__energy>  (6) 
-9.0800000000000001

>  <m_primary>  (6) 
energy

>  <rmsd>  (6) 
4.079579453820149

>  <m_score__min__rmsd>  (6) 
4.079579453820149

>  <meeko>  (6) 
{"free_energy": -8.86, "intermolecular_energy": -10.65, "internal_energy": -2.19, "cluster_size": 28, "cluster_id": 1, "rank_in_cluster": 8}

>  <energy>  (6) 
-8.91

>  <cluster_rmsd>  (6) 
1.42

>  <cluster>  (6) 
1

$$$$

     RDKit          3D

 62 65  0  0  0  0  0  0  0  0999 V2000
  135.8110   77.6800  222.0170 C   0  0  0  0  0  0  0  0  0  0  0  0
  136.9520   78.2610  221.1520 C   0  0  2  0  0  0  0  0  0  0  0  0
  137.9100   77.2690  220.8210 N   0  0  0  0  0  0  0  0  0  0  0  0
  138.3030   76.2100  221.7220 C   0  0  0  0  0  0  0  0  0  0  0  0
  137.8090   76.1120  222.8670 O   0  0  0  0  0  0  0  0  0  0  0  0
  139.3280   75.2670  221.1840 C   0  0  0  0  0  0  0  0  0  0  0  0
  139.4470   74.1690  222.1090 N   0  0  0  0  0  0  0  0  0  0  0  0
  139.9210   72.8880  221.8390 C   0  0  0  0  0  0  0  0  0  0  0  0
  140.3030   72.5680  220.6940 O   0  0  0  0  0  0  0  0  0  0  0  0
  139.9630   71.8920  222.9400 C   0  0  0  0  0  0  0  0  0  0  0  0
  139.5020   70.6100  222.7510 C   0  0  0  0  0  0  0  0  0  0  0  0
  139.5090   69.6440  223.7510 C   0  0  0  0  0  0  0  0  0  0  0  0
  140.0230   70.0560  224.9770 C   0  0  0  0  0  0  0  0  0  0  0  0
  140.0880   69.1830  226.0510 C   0  0  0  0  0  0  0  0  0  0  0  0
  140.6090   69.5880  227.2880 C   0  0  0  0  0  0  0  0  0  0  0  0
  140.6840   68.4640  228.6430 Cl  0  0  0  0  0  0  0  0  0  0  0  0
  141.0620   70.8830  227.4260 C   0  0  0  0  0  0  0  0  0  0  0  0
  141.0070   71.7890  226.3570 C   0  0  0  0  0  0  0  0  0  0  0  0
  140.4820   71.3370  225.1540 C   0  0  0  0  0  0  0  0  0  0  0  0
  140.4620   72.2680  224.1550 N   0  0  0  0  0  0  0  0  0  0  0  0
  137.4580   79.4680  221.8890 C   0  0  1  0  0  0  0  0  0  0  0  0
  137.3310   79.2780  223.4000 C   0  0  0  0  0  0  0  0  0  0  0  0
  137.4670   80.6380  224.0270 C   0  0  0  0  0  0  0  0  0  0  0  0
  138.2510   81.5300  223.1270 C   0  0  0  0  0  0  0  0  0  0  0  0
  139.3120   80.8870  222.4220 N   0  0  0  0  0  0  0  0  0  0  0  0
  140.3300   80.4520  223.3480 C   0  0  0  0  0  0  0  0  0  0  0  0
  141.6080   81.2320  223.0460 C   0  0  0  0  0  0  0  0  0  0  0  0
  142.6550   80.4160  223.7700 C   0  0  0  0  0  0  0  0  0  0  0  0
  142.2260   79.0020  223.5530 C   0  0  0  0  0  0  0  0  0  0  0  0
  140.7800   79.0290  223.1160 C   0  0  0  0  0  0  0  0  0  0  0  0
  138.8420   79.9110  221.5010 C   0  0  0  0  0  0  0  0  0  0  0  0
  136.0576   77.8056  223.0816 H   0  0  0  0  0  0  0  0  0  0  0  0
  134.8740   78.2108  221.7926 H   0  0  0  0  0  0  0  0  0  0  0  0
  135.6891   76.6101  221.7926 H   0  0  0  0  0  0  0  0  0  0  0  0
  136.6185   78.5919  220.1574 H   0  0  0  0  0  0  0  0  0  0  0  0
  138.3480   77.3270  219.8500 H   0  0  0  0  0  0  0  0  0  0  0  0
  139.0119   74.8934  220.1989 H   0  0  0  0  0  0  0  0  0  0  0  0
  140.2955   75.7774  221.0681 H   0  0  0  0  0  0  0  0  0  0  0  0
  139.1320   74.3800  223.1070 H   0  0  0  0  0  0  0  0  0  0  0  0
  139.1088   70.3357  221.7610 H   0  0  0  0  0  0  0  0  0  0  0  0
  139.1338   68.6235  223.5845 H   0  0  0  0  0  0  0  0  0  0  0  0
  139.7237   68.1521  225.9307 H   0  0  0  0  0  0  0  0  0  0  0  0
  141.4738   71.2113  228.3917 H   0  0  0  0  0  0  0  0  0  0  0  0
  141.3675   72.8223  226.4679 H   0  0  0  0  0  0  0  0  0  0  0  0
  136.8046   80.2954  221.5753 H   0  0  0  0  0  0  0  0  0  0  0  0
  136.3498   78.8454  223.6452 H   0  0  0  0  0  0  0  0  0  0  0  0
  138.1053   78.5931  223.7760 H   0  0  0  0  0  0  0  0  0  0  0  0
  136.4674   81.0681  224.1878 H   0  0  0  0  0  0  0  0  0  0  0  0
  137.9883   80.5441  224.9911 H   0  0  0  0  0  0  0  0  0  0  0  0
  137.5608   81.9615  222.3871 H   0  0  0  0  0  0  0  0  0  0  0  0
  138.7222   82.2849  223.7736 H   0  0  0  0  0  0  0  0  0  0  0  0
  139.8966   80.5833  224.3505 H   0  0  0  0  0  0  0  0  0  0  0  0
  141.8074   81.2687  221.9649 H   0  0  0  0  0  0  0  0  0  0  0  0
  141.5697   82.2846  223.3630 H   0  0  0  0  0  0  0  0  0  0  0  0
  143.6528   80.5919  223.3416 H   0  0  0  0  0  0  0  0  0  0  0  0
  142.7314   80.6760  224.8361 H   0  0  0  0  0  0  0  0  0  0  0  0
  142.8458   78.5369  222.7723 H   0  0  0  0  0  0  0  0  0  0  0  0
  142.3411   78.4158  224.4766 H   0  0  0  0  0  0  0  0  0  0  0  0
  140.6923   78.7640  222.0520 H   0  0  0  0  0  0  0  0  0  0  0  0
  140.1661   78.3049  223.6717 H   0  0  0  0  0  0  0  0  0  0  0  0
  138.8165   80.3450  220.4906 H   0  0  0  0  0  0  0  0  0  0  0  0
  139.5180   79.0434  221.5152 H   0  0  0  0  0  0  0  0  0  0  0  0
  1  2  1  0
  2  3  1  0
  3  4  1  0
  4  5  2  0
  4  6  1  0
  6  7  1  0
  7  8  1  0
  8  9  2  0
  8 10  1  0
 10 11  2  0
 11 12  1  0
 12 13  2  0
 13 14  1  0
 14 15  2  0
 15 16  1  0
 15 17  1  0
 17 18  2  0
 18 19  1  0
 19 20  2  0
  2 21  1  0
 21 22  1  0
 22 23  1  0
 23 24  1  0
 24 25  1  0
 25 26  1  0
 26 27  1  0
 27 28  1  0
 28 29  1  0
 29 30  1  0
 25 31  1  0
 20 10  1  0
 31 21  1  0
 19 13  1  0
 30 26  1  0
  1 32  1  0
  1 33  1  0
  1 34  1  0
  2 35  1  6
  3 36  1  0
  6 37  1  0
  6 38  1  0
  7 39  1  0
 11 40  1  0
 12 41  1  0
 14 42  1  0
 17 43  1  0
 18 44  1  0
 21 45  1  6
 22 46  1  0
 22 47  1  0
 23 48  1  0
 23 49  1  0
 24 50  1  0
 24 51  1  0
 26 52  1  0
 27 53  1  0
 27 54  1  0
 28 55  1  0
 28 56  1  0
 29 57  1  0
 29 58  1  0
 30 59  1  0
 30 60  1  0
 31 61  1  0
 31 62  1  0
M  END
>  <smiles>  (7) 
C[C@H](NC(=O)CNC(=O)c1ccc2cc(Cl)ccc2n1)[C@H]1CCCN(C2CCCC2)C1

>  <score_type>  (7) 
oracle

>  <origin>  (7) 
autodockgpu

>  <m_score__min__energy>  (7) 
-9.0800000000000001

>  <m_primary>  (7) 
energy

>  <rmsd>  (7) 
4.367500477298708

>  <m_score__min__rmsd>  (7) 
4.367500477298708

>  <meeko>  (7) 
{"free_energy": -8.52, "intermolecular_energy": -10.31, "internal_energy": -2.18, "cluster_size": 28, "cluster_id": 1, "rank_in_cluster": 17}

>  <energy>  (7) 
-8.9

>  <cluster_rmsd>  (7) 
1.42

>  <cluster>  (7) 
1

$$$$

     RDKit          3D

 62 65  0  0  0  0  0  0  0  0999 V2000
  136.2030   77.7800  222.7530 C   0  0  0  0  0  0  0  0  0  0  0  0
  137.0070   78.1390  221.4840 C   0  0  2  0  0  0  0  0  0  0  0  0
  137.7470   77.0270  221.0050 N   0  0  0  0  0  0  0  0  0  0  0  0
  138.5540   76.1820  221.8550 C   0  0  0  0  0  0  0  0  0  0  0  0
  138.6480   76.3940  223.0830 O   0  0  0  0  0  0  0  0  0  0  0  0
  139.2540   75.0650  221.1550 C   0  0  0  0  0  0  0  0  0  0  0  0
  139.4110   73.9840  222.0960 N   0  0  0  0  0  0  0  0  0  0  0  0
  139.6950   72.6520  221.8090 C   0  0  0  0  0  0  0  0  0  0  0  0
  139.8430   72.2620  220.6320 O   0  0  0  0  0  0  0  0  0  0  0  0
  139.8190   71.6870  222.9310 C   0  0  0  0  0  0  0  0  0  0  0  0
  139.4240   70.3770  222.7830 C   0  0  0  0  0  0  0  0  0  0  0  0
  139.5080   69.4380  223.8040 C   0  0  0  0  0  0  0  0  0  0  0  0
  140.0260   69.9070  225.0080 C   0  0  0  0  0  0  0  0  0  0  0  0
  140.1640   69.0660  226.1000 C   0  0  0  0  0  0  0  0  0  0  0  0
  140.6900   69.5280  227.3140 C   0  0  0  0  0  0  0  0  0  0  0  0
  140.8580   68.4430  228.6920 Cl  0  0  0  0  0  0  0  0  0  0  0  0
  141.0740   70.8490  227.4120 C   0  0  0  0  0  0  0  0  0  0  0  0
  140.9440   71.7250  226.3240 C   0  0  0  0  0  0  0  0  0  0  0  0
  140.4170   71.2150  225.1440 C   0  0  0  0  0  0  0  0  0  0  0  0
  140.3230   72.1190  224.1250 N   0  0  0  0  0  0  0  0  0  0  0  0
  137.7920   79.3730  221.8260 C   0  0  1  0  0  0  0  0  0  0  0  0
  137.7840   79.6250  223.3340 C   0  0  0  0  0  0  0  0  0  0  0  0
  138.2230   81.0480  223.5440 C   0  0  0  0  0  0  0  0  0  0  0  0
  139.0610   81.4900  222.3940 C   0  0  0  0  0  0  0  0  0  0  0  0
  139.9150   80.4840  221.8520 N   0  0  0  0  0  0  0  0  0  0  0  0
  140.9250   80.1190  222.8160 C   0  0  0  0  0  0  0  0  0  0  0  0
  141.5570   81.4040  223.3460 C   0  0  0  0  0  0  0  0  0  0  0  0
  142.8220   80.8900  223.9950 C   0  0  0  0  0  0  0  0  0  0  0  0
  143.2860   79.8070  223.0760 C   0  0  0  0  0  0  0  0  0  0  0  0
  142.1170   79.4260  222.1980 C   0  0  0  0  0  0  0  0  0  0  0  0
  139.1870   79.4100  221.2660 C   0  0  0  0  0  0  0  0  0  0  0  0
  136.7902   78.0422  223.6455 H   0  0  0  0  0  0  0  0  0  0  0  0
  135.2569   78.3412  222.7587 H   0  0  0  0  0  0  0  0  0  0  0  0
  135.9893   76.7010  222.7587 H   0  0  0  0  0  0  0  0  0  0  0  0
  136.3704   78.3755  220.6186 H   0  0  0  0  0  0  0  0  0  0  0  0
  137.6840   76.8220  219.9600 H   0  0  0  0  0  0  0  0  0  0  0  0
  138.6556   74.7288  220.2954 H   0  0  0  0  0  0  0  0  0  0  0  0
  140.2351   75.3982  220.7858 H   0  0  0  0  0  0  0  0  0  0  0  0
  139.2940   74.2560  223.1220 H   0  0  0  0  0  0  0  0  0  0  0  0
  139.0225   70.0579  221.8099 H   0  0  0  0  0  0  0  0  0  0  0  0
  139.1868   68.3945  223.6698 H   0  0  0  0  0  0  0  0  0  0  0  0
  139.8544   68.0141  226.0125 H   0  0  0  0  0  0  0  0  0  0  0  0
  141.4894   71.2222  228.3597 H   0  0  0  0  0  0  0  0  0  0  0  0
  141.2487   72.7790  226.4024 H   0  0  0  0  0  0  0  0  0  0  0  0
  137.2695   80.1990  221.3214 H   0  0  0  0  0  0  0  0  0  0  0  0
  136.7706   79.4790  223.7361 H   0  0  0  0  0  0  0  0  0  0  0  0
  138.4566   78.9259  223.8525 H   0  0  0  0  0  0  0  0  0  0  0  0
  137.3376   81.6961  223.6217 H   0  0  0  0  0  0  0  0  0  0  0  0
  138.8120   81.1145  224.4707 H   0  0  0  0  0  0  0  0  0  0  0  0
  138.3892   81.8352  221.5943 H   0  0  0  0  0  0  0  0  0  0  0  0
  139.7214   82.2809  222.7792 H   0  0  0  0  0  0  0  0  0  0  0  0
  140.4179   79.4778  223.5520 H   0  0  0  0  0  0  0  0  0  0  0  0
  141.7837   82.1042  222.5285 H   0  0  0  0  0  0  0  0  0  0  0  0
  140.9061   81.9681  224.0302 H   0  0  0  0  0  0  0  0  0  0  0  0
  143.5751   81.6883  224.0701 H   0  0  0  0  0  0  0  0  0  0  0  0
  142.6554   80.5315  225.0215 H   0  0  0  0  0  0  0  0  0  0  0  0
  144.1185   80.1713  222.4561 H   0  0  0  0  0  0  0  0  0  0  0  0
  143.6403   78.9374  223.6490 H   0  0  0  0  0  0  0  0  0  0  0  0
  142.2768   79.7759  221.1674 H   0  0  0  0  0  0  0  0  0  0  0  0
  141.9792   78.3361  222.1416 H   0  0  0  0  0  0  0  0  0  0  0  0
  139.1391   79.5532  220.1764 H   0  0  0  0  0  0  0  0  0  0  0  0
  139.6945   78.4610  221.4939 H   0  0  0  0  0  0  0  0  0  0  0  0
  1  2  1  0
  2  3  1  0
  3  4  1  0
  4  5  2  0
  4  6  1  0
  6  7  1  0
  7  8  1  0
  8  9  2  0
  8 10  1  0
 10 11  2  0
 11 12  1  0
 12 13  2  0
 13 14  1  0
 14 15  2  0
 15 16  1  0
 15 17  1  0
 17 18  2  0
 18 19  1  0
 19 20  2  0
  2 21  1  0
 21 22  1  0
 22 23  1  0
 23 24  1  0
 24 25  1  0
 25 26  1  0
 26 27  1  0
 27 28  1  0
 28 29  1  0
 29 30  1  0
 25 31  1  0
 20 10  1  0
 31 21  1  0
 19 13  1  0
 30 26  1  0
  1 32  1  0
  1 33  1  0
  1 34  1  0
  2 35  1  6
  3 36  1  0
  6 37  1  0
  6 38  1  0
  7 39  1  0
 11 40  1  0
 12 41  1  0
 14 42  1  0
 17 43  1  0
 18 44  1  0
 21 45  1  6
 22 46  1  0
 22 47  1  0
 23 48  1  0
 23 49  1  0
 24 50  1  0
 24 51  1  0
 26 52  1  0
 27 53  1  0
 27 54  1  0
 28 55  1  0
 28 56  1  0
 29 57  1  0
 29 58  1  0
 30 59  1  0
 30 60  1  0
 31 61  1  0
 31 62  1  0
M  END
>  <smiles>  (8) 
C[C@H](NC(=O)CNC(=O)c1ccc2cc(Cl)ccc2n1)[C@H]1CCCN(C2CCCC2)C1

>  <score_type>  (8) 
oracle

>  <origin>  (8) 
autodockgpu

>  <m_score__min__energy>  (8) 
-9.0800000000000001

>  <m_primary>  (8) 
energy

>  <rmsd>  (8) 
4.24956271277017

>  <m_score__min__rmsd>  (8) 
4.24956271277017

>  <meeko>  (8) 
{"free_energy": -8.57, "intermolecular_energy": -10.36, "internal_energy": -2.21, "cluster_size": 28, "cluster_id": 1, "rank_in_cluster": 12}

>  <energy>  (8) 
-8.86

>  <cluster_rmsd>  (8) 
0.34

>  <cluster>  (8) 
1

$$$$

     RDKit          3D

 62 65  0  0  0  0  0  0  0  0999 V2000
  141.2390   78.7360  219.4050 C   0  0  0  0  0  0  0  0  0  0  0  0
  141.3600   77.7990  220.6270 C   0  0  2  0  0  0  0  0  0  0  0  0
  140.3110   76.8440  220.6560 N   0  0  0  0  0  0  0  0  0  0  0  0
  140.4270   75.5520  221.2930 C   0  0  0  0  0  0  0  0  0  0  0  0
  141.4830   75.2000  221.8620 O   0  0  0  0  0  0  0  0  0  0  0  0
  139.2090   74.6940  221.2100 C   0  0  0  0  0  0  0  0  0  0  0  0
  139.3570   73.6250  222.1660 N   0  0  0  0  0  0  0  0  0  0  0  0
  139.2130   72.2600  221.9320 C   0  0  0  0  0  0  0  0  0  0  0  0
  138.9210   71.8260  220.7980 O   0  0  0  0  0  0  0  0  0  0  0  0
  139.4090   71.3140  223.0600 C   0  0  0  0  0  0  0  0  0  0  0  0
  138.9520   70.0190  222.9840 C   0  0  0  0  0  0  0  0  0  0  0  0
  139.0990   69.0990  224.0150 C   0  0  0  0  0  0  0  0  0  0  0  0
  139.7510   69.5720  225.1500 C   0  0  0  0  0  0  0  0  0  0  0  0
  139.9630   68.7480  226.2440 C   0  0  0  0  0  0  0  0  0  0  0  0
  140.6220   69.2150  227.3900 C   0  0  0  0  0  0  0  0  0  0  0  0
  140.8830   68.1530  228.7720 Cl  0  0  0  0  0  0  0  0  0  0  0  0
  141.0640   70.5200  227.4170 C   0  0  0  0  0  0  0  0  0  0  0  0
  140.8620   71.3780  226.3260 C   0  0  0  0  0  0  0  0  0  0  0  0
  140.2030   70.8650  225.2160 C   0  0  0  0  0  0  0  0  0  0  0  0
  140.0440   71.7510  224.1890 N   0  0  0  0  0  0  0  0  0  0  0  0
  141.4890   78.6950  221.8250 C   0  0  1  0  0  0  0  0  0  0  0  0
  141.7920   80.1330  221.4020 C   0  0  0  0  0  0  0  0  0  0  0  0
  142.2960   80.8530  222.6230 C   0  0  0  0  0  0  0  0  0  0  0  0
  141.7690   80.1920  223.8490 C   0  0  0  0  0  0  0  0  0  0  0  0
  140.4390   79.6890  223.7350 N   0  0  0  0  0  0  0  0  0  0  0  0
  139.5080   80.7810  223.5790 C   0  0  0  0  0  0  0  0  0  0  0  0
  138.3900   80.5990  224.6040 C   0  0  0  0  0  0  0  0  0  0  0  0
  137.3210   81.5270  224.0730 C   0  0  0  0  0  0  0  0  0  0  0  0
  137.4070   81.3670  222.5900 C   0  0  0  0  0  0  0  0  0  0  0  0
  138.7410   80.7300  222.2790 C   0  0  0  0  0  0  0  0  0  0  0  0
  140.3340   78.6340  222.7870 C   0  0  0  0  0  0  0  0  0  0  0  0
  141.1052   79.7721  219.7493 H   0  0  0  0  0  0  0  0  0  0  0  0
  142.1536   78.6666  218.7977 H   0  0  0  0  0  0  0  0  0  0  0  0
  140.3721   78.4365  218.7977 H   0  0  0  0  0  0  0  0  0  0  0  0
  142.2503   77.1538  220.5940 H   0  0  0  0  0  0  0  0  0  0  0  0
  139.3970   77.1190  220.1790 H   0  0  0  0  0  0  0  0  0  0  0  0
  138.3152   75.2889  221.4493 H   0  0  0  0  0  0  0  0  0  0  0  0
  139.0936   74.2879  220.1943 H   0  0  0  0  0  0  0  0  0  0  0  0
  139.6040   73.9340  223.1570 H   0  0  0  0  0  0  0  0  0  0  0  0
  138.4456   69.6959  222.0625 H   0  0  0  0  0  0  0  0  0  0  0  0
  138.7255   68.0671  223.9392 H   0  0  0  0  0  0  0  0  0  0  0  0
  139.6074   67.7076  226.2126 H   0  0  0  0  0  0  0  0  0  0  0  0
  141.5846   70.8955  228.3103 H   0  0  0  0  0  0  0  0  0  0  0  0
  141.2130   72.4202  226.3486 H   0  0  0  0  0  0  0  0  0  0  0  0
  142.3443   78.2996  222.3925 H   0  0  0  0  0  0  0  0  0  0  0  0
  142.5599   80.1414  220.6145 H   0  0  0  0  0  0  0  0  0  0  0  0
  140.8922   80.6224  221.0008 H   0  0  0  0  0  0  0  0  0  0  0  0
  143.3956   80.8247  222.6363 H   0  0  0  0  0  0  0  0  0  0  0  0
  141.9536   81.8980  222.5968 H   0  0  0  0  0  0  0  0  0  0  0  0
  142.4328   79.3503  224.0957 H   0  0  0  0  0  0  0  0  0  0  0  0
  141.7403   80.9667  224.6294 H   0  0  0  0  0  0  0  0  0  0  0  0
  140.1083   81.6990  223.6615 H   0  0  0  0  0  0  0  0  0  0  0  0
  138.0377   79.5573  224.6301 H   0  0  0  0  0  0  0  0  0  0  0  0
  138.6958   80.8205  225.6372 H   0  0  0  0  0  0  0  0  0  0  0  0
  136.3278   81.2305  224.4412 H   0  0  0  0  0  0  0  0  0  0  0  0
  137.4665   82.5686  224.3954 H   0  0  0  0  0  0  0  0  0  0  0  0
  136.5905   80.7217  222.2338 H   0  0  0  0  0  0  0  0  0  0  0  0
  137.3170   82.3422  222.0891 H   0  0  0  0  0  0  0  0  0  0  0  0
  138.6056   79.6891  221.9500 H   0  0  0  0  0  0  0  0  0  0  0  0
  139.2688   81.2499  221.4659 H   0  0  0  0  0  0  0  0  0  0  0  0
  140.3477   77.6680  223.3130 H   0  0  0  0  0  0  0  0  0  0  0  0
  139.3916   78.7398  222.2295 H   0  0  0  0  0  0  0  0  0  0  0  0
  1  2  1  0
  2  3  1  0
  3  4  1  0
  4  5  2  0
  4  6  1  0
  6  7  1  0
  7  8  1  0
  8  9  2  0
  8 10  1  0
 10 11  2  0
 11 12  1  0
 12 13  2  0
 13 14  1  0
 14 15  2  0
 15 16  1  0
 15 17  1  0
 17 18  2  0
 18 19  1  0
 19 20  2  0
  2 21  1  0
 21 22  1  0
 22 23  1  0
 23 24  1  0
 24 25  1  0
 25 26  1  0
 26 27  1  0
 27 28  1  0
 28 29  1  0
 29 30  1  0
 25 31  1  0
 20 10  1  0
 31 21  1  0
 19 13  1  0
 30 26  1  0
  1 32  1  0
  1 33  1  0
  1 34  1  0
  2 35  1  6
  3 36  1  0
  6 37  1  0
  6 38  1  0
  7 39  1  0
 11 40  1  0
 12 41  1  0
 14 42  1  0
 17 43  1  0
 18 44  1  0
 21 45  1  1
 22 46  1  0
 22 47  1  0
 23 48  1  0
 23 49  1  0
 24 50  1  0
 24 51  1  0
 26 52  1  0
 27 53  1  0
 27 54  1  0
 28 55  1  0
 28 56  1  0
 29 57  1  0
 29 58  1  0
 30 59  1  0
 30 60  1  0
 31 61  1  0
 31 62  1  0
M  END
>  <smiles>  (9) 
C[C@H](NC(=O)CNC(=O)c1ccc2cc(Cl)ccc2n1)[C@H]1CCCN(C2CCCC2)C1

>  <score_type>  (9) 
oracle

>  <origin>  (9) 
autodockgpu

>  <m_score__min__energy>  (9) 
-9.0800000000000001

>  <m_primary>  (9) 
energy

>  <rmsd>  (9) 
3.9802460886975566

>  <m_score__min__rmsd>  (9) 
3.9802460886975566

>  <meeko>  (9) 
{"free_energy": -9.08, "intermolecular_energy": -10.87, "internal_energy": -1.91, "cluster_size": 28, "cluster_id": 1, "rank_in_cluster": 1}

>  <energy>  (9) 
-8.73

>  <cluster_rmsd>  (9) 
0.3

>  <cluster>  (9) 
1

$$$$

     RDKit          3D

 62 65  0  0  0  0  0  0  0  0999 V2000
  141.8220   78.8500  219.3990 C   0  0  0  0  0  0  0  0  0  0  0  0
  141.6020   78.0610  220.7100 C   0  0  2  0  0  0  0  0  0  0  0  0
  140.7050   76.9780  220.5200 N   0  0  0  0  0  0  0  0  0  0  0  0
  140.4000   76.0080  221.5460 C   0  0  0  0  0  0  0  0  0  0  0  0
  140.9240   76.0720  222.6790 O   0  0  0  0  0  0  0  0  0  0  0  0
  139.4330   74.9440  221.1440 C   0  0  0  0  0  0  0  0  0  0  0  0
  139.5420   73.8660  222.0950 N   0  0  0  0  0  0  0  0  0  0  0  0
  139.4030   72.5040  221.8440 C   0  0  0  0  0  0  0  0  0  0  0  0
  139.1510   72.0810  220.6960 O   0  0  0  0  0  0  0  0  0  0  0  0
  139.5550   71.5480  222.9700 C   0  0  0  0  0  0  0  0  0  0  0  0
  139.0860   70.2580  222.8690 C   0  0  0  0  0  0  0  0  0  0  0  0
  139.1930   69.3280  223.8970 C   0  0  0  0  0  0  0  0  0  0  0  0
  139.8150   69.7850  225.0550 C   0  0  0  0  0  0  0  0  0  0  0  0
  139.9860   68.9510  226.1480 C   0  0  0  0  0  0  0  0  0  0  0  0
  140.6160   69.4010  227.3160 C   0  0  0  0  0  0  0  0  0  0  0  0
  140.8240   68.3260  228.6970 Cl  0  0  0  0  0  0  0  0  0  0  0  0
  141.0720   70.7010  227.3670 C   0  0  0  0  0  0  0  0  0  0  0  0
  140.9120   71.5690  226.2770 C   0  0  0  0  0  0  0  0  0  0  0  0
  140.2800   71.0730  225.1440 C   0  0  0  0  0  0  0  0  0  0  0  0
  140.1620   71.9680  224.1200 N   0  0  0  0  0  0  0  0  0  0  0  0
  141.2190   79.0790  221.7460 C   0  0  1  0  0  0  0  0  0  0  0  0
  142.4440   79.8550  222.2270 C   0  0  0  0  0  0  0  0  0  0  0  0
  142.0550   80.5390  223.5100 C   0  0  0  0  0  0  0  0  0  0  0  0
  140.5810   80.7490  223.5400 C   0  0  0  0  0  0  0  0  0  0  0  0
  139.9950   81.0680  222.2790 N   0  0  0  0  0  0  0  0  0  0  0  0
  140.4570   82.3590  221.8310 C   0  0  0  0  0  0  0  0  0  0  0  0
  139.2340   83.2450  221.6010 C   0  0  0  0  0  0  0  0  0  0  0  0
  139.8100   84.3700  220.7700 C   0  0  0  0  0  0  0  0  0  0  0  0
  140.7840   83.6890  219.8650 C   0  0  0  0  0  0  0  0  0  0  0  0
  141.0730   82.3270  220.4510 C   0  0  0  0  0  0  0  0  0  0  0  0
  140.1020   80.0020  221.3420 C   0  0  0  0  0  0  0  0  0  0  0  0
  142.1104   79.8844  219.6376 H   0  0  0  0  0  0  0  0  0  0  0  0
  142.6212   78.3723  218.8133 H   0  0  0  0  0  0  0  0  0  0  0  0
  140.8909   78.8548  218.8133 H   0  0  0  0  0  0  0  0  0  0  0  0
  142.5064   77.5451  221.0649 H   0  0  0  0  0  0  0  0  0  0  0  0
  140.2430   76.8990  219.5620 H   0  0  0  0  0  0  0  0  0  0  0  0
  138.4094   75.3468  221.1509 H   0  0  0  0  0  0  0  0  0  0  0  0
  139.6578   74.5846  220.1290 H   0  0  0  0  0  0  0  0  0  0  0  0
  139.7550   74.1660  223.0970 H   0  0  0  0  0  0  0  0  0  0  0  0
  138.6036   69.9480  221.9303 H   0  0  0  0  0  0  0  0  0  0  0  0
  138.8118   68.3006  223.8015 H   0  0  0  0  0  0  0  0  0  0  0  0
  139.6199   67.9149  226.0979 H   0  0  0  0  0  0  0  0  0  0  0  0
  141.5699   71.0638  228.2783 H   0  0  0  0  0  0  0  0  0  0  0  0
  141.2745   72.6067  226.3180 H   0  0  0  0  0  0  0  0  0  0  0  0
  140.8087   78.4995  222.5862 H   0  0  0  0  0  0  0  0  0  0  0  0
  143.2821   79.1653  222.4056 H   0  0  0  0  0  0  0  0  0  0  0  0
  142.7655   80.5883  221.4728 H   0  0  0  0  0  0  0  0  0  0  0  0
  142.3524   79.9119  224.3634 H   0  0  0  0  0  0  0  0  0  0  0  0
  142.5630   81.5127  223.5722 H   0  0  0  0  0  0  0  0  0  0  0  0
  140.1116   79.8261  223.9115 H   0  0  0  0  0  0  0  0  0  0  0  0
  140.4059   81.6183  224.1909 H   0  0  0  0  0  0  0  0  0  0  0  0
  141.1767   82.6981  222.5906 H   0  0  0  0  0  0  0  0  0  0  0  0
  138.4476   82.7057  221.0527 H   0  0  0  0  0  0  0  0  0  0  0  0
  138.7512   83.5830  222.5298 H   0  0  0  0  0  0  0  0  0  0  0  0
  139.0212   84.8708  220.1895 H   0  0  0  0  0  0  0  0  0  0  0  0
  140.2789   85.1528  221.3843 H   0  0  0  0  0  0  0  0  0  0  0  0
  140.3505   83.5810  218.8598 H   0  0  0  0  0  0  0  0  0  0  0  0
  141.7092   84.2777  219.7785 H   0  0  0  0  0  0  0  0  0  0  0  0
  140.6124   81.5370  219.8397 H   0  0  0  0  0  0  0  0  0  0  0  0
  142.1510   82.1103  220.4835 H   0  0  0  0  0  0  0  0  0  0  0  0
  139.1559   79.4414  221.3170 H   0  0  0  0  0  0  0  0  0  0  0  0
  140.3145   80.4148  220.3448 H   0  0  0  0  0  0  0  0  0  0  0  0
  1  2  1  0
  2  3  1  0
  3  4  1  0
  4  5  2  0
  4  6  1  0
  6  7  1  0
  7  8  1  0
  8  9  2  0
  8 10  1  0
 10 11  2  0
 11 12  1  0
 12 13  2  0
 13 14  1  0
 14 15  2  0
 15 16  1  0
 15 17  1  0
 17 18  2  0
 18 19  1  0
 19 20  2  0
  2 21  1  0
 21 22  1  0
 22 23  1  0
 23 24  1  0
 24 25  1  0
 25 26  1  0
 26 27  1  0
 27 28  1  0
 28 29  1  0
 29 30  1  0
 25 31  1  0
 20 10  1  0
 31 21  1  0
 19 13  1  0
 30 26  1  0
  1 32  1  0
  1 33  1  0
  1 34  1  0
  2 35  1  1
  3 36  1  0
  6 37  1  0
  6 38  1  0
  7 39  1  0
 11 40  1  0
 12 41  1  0
 14 42  1  0
 17 43  1  0
 18 44  1  0
 21 45  1  1
 22 46  1  0
 22 47  1  0
 23 48  1  0
 23 49  1  0
 24 50  1  0
 24 51  1  0
 26 52  1  0
 27 53  1  0
 27 54  1  0
 28 55  1  0
 28 56  1  0
 29 57  1  0
 29 58  1  0
 30 59  1  0
 30 60  1  0
 31 61  1  0
 31 62  1  0
M  END
>  <smiles>  (10) 
C[C@H](NC(=O)CNC(=O)c1ccc2cc(Cl)ccc2n1)[C@H]1CCCN(C2CCCC2)C1

>  <score_type>  (10) 
oracle

>  <origin>  (10) 
autodockgpu

>  <m_score__min__energy>  (10) 
-9.0800000000000001

>  <m_primary>  (10) 
energy

>  <rmsd>  (10) 
3.759100227276772

>  <m_score__min__rmsd>  (10) 
3.759100227276772

>  <meeko>  (10) 
{"free_energy": -8.51, "intermolecular_energy": -10.3, "internal_energy": -2.26, "cluster_size": 28, "cluster_id": 1, "rank_in_cluster": 18}

>  <energy>  (10) 
-8.61

>  <cluster_rmsd>  (10) 
1.4

>  <cluster>  (10) 
1

$$$$

     RDKit          3D

 62 65  0  0  0  0  0  0  0  0999 V2000
  142.6150   77.0350  218.5070 C   0  0  0  0  0  0  0  0  0  0  0  0
  142.0200   77.0770  219.9330 C   0  0  2  0  0  0  0  0  0  0  0  0
  140.8840   76.2350  220.0470 N   0  0  0  0  0  0  0  0  0  0  0  0
  140.4720   75.6180  221.2870 C   0  0  0  0  0  0  0  0  0  0  0  0
  141.1100   75.7970  222.3470 O   0  0  0  0  0  0  0  0  0  0  0  0
  139.2500   74.7660  221.1940 C   0  0  0  0  0  0  0  0  0  0  0  0
  139.3860   73.6950  222.1490 N   0  0  0  0  0  0  0  0  0  0  0  0
  138.9350   72.3840  222.0150 C   0  0  0  0  0  0  0  0  0  0  0  0
  138.3330   72.0100  220.9870 O   0  0  0  0  0  0  0  0  0  0  0  0
  139.1770   71.4250  223.1230 C   0  0  0  0  0  0  0  0  0  0  0  0
  138.6790   70.1440  223.0700 C   0  0  0  0  0  0  0  0  0  0  0  0
  138.8670   69.2130  224.0840 C   0  0  0  0  0  0  0  0  0  0  0  0
  139.6050   69.6580  225.1770 C   0  0  0  0  0  0  0  0  0  0  0  0
  139.8650   68.8210  226.2500 C   0  0  0  0  0  0  0  0  0  0  0  0
  140.6110   69.2600  227.3520 C   0  0  0  0  0  0  0  0  0  0  0  0
  140.9310   68.1820  228.7090 Cl  0  0  0  0  0  0  0  0  0  0  0  0
  141.0910   70.5530  227.3570 C   0  0  0  0  0  0  0  0  0  0  0  0
  140.8430   71.4240  226.2860 C   0  0  0  0  0  0  0  0  0  0  0  0
  140.0980   70.9380  225.2190 C   0  0  0  0  0  0  0  0  0  0  0  0
  139.8980   71.8350  224.2100 N   0  0  0  0  0  0  0  0  0  0  0  0
  141.8160   78.5300  220.2540 C   0  0  1  0  0  0  0  0  0  0  0  0
  140.6670   79.1150  219.4340 C   0  0  0  0  0  0  0  0  0  0  0  0
  140.7920   80.6120  219.5060 C   0  0  0  0  0  0  0  0  0  0  0  0
  141.5170   80.9960  220.7490 C   0  0  0  0  0  0  0  0  0  0  0  0
  141.2300   80.1830  221.8860 N   0  0  0  0  0  0  0  0  0  0  0  0
  139.8570   80.3640  222.2900 C   0  0  0  0  0  0  0  0  0  0  0  0
  139.8500   80.8130  223.7500 C   0  0  0  0  0  0  0  0  0  0  0  0
  138.4120   80.5660  224.1500 C   0  0  0  0  0  0  0  0  0  0  0  0
  138.0560   79.2940  223.4520 C   0  0  0  0  0  0  0  0  0  0  0  0
  139.0820   79.0690  222.3660 C   0  0  0  0  0  0  0  0  0  0  0  0
  141.6640   78.8380  221.7180 C   0  0  0  0  0  0  0  0  0  0  0  0
  143.7105   76.9577  218.5689 H   0  0  0  0  0  0  0  0  0  0  0  0
  142.2157   76.1628  217.9686 H   0  0  0  0  0  0  0  0  0  0  0  0
  142.3422   77.9546  217.9686 H   0  0  0  0  0  0  0  0  0  0  0  0
  142.6904   76.6557  220.6966 H   0  0  0  0  0  0  0  0  0  0  0  0
  140.3200   76.0650  219.1580 H   0  0  0  0  0  0  0  0  0  0  0  0
  138.3575   75.3649  221.4280 H   0  0  0  0  0  0  0  0  0  0  0  0
  139.1396   74.3621  220.1768 H   0  0  0  0  0  0  0  0  0  0  0  0
  139.8910   73.9540  223.0530 H   0  0  0  0  0  0  0  0  0  0  0  0
  138.1042   69.8421  222.1821 H   0  0  0  0  0  0  0  0  0  0  0  0
  138.4599   68.1927  224.0269 H   0  0  0  0  0  0  0  0  0  0  0  0
  139.4782   67.7914  226.2366 H   0  0  0  0  0  0  0  0  0  0  0  0
  141.6789   70.9075  228.2164 H   0  0  0  0  0  0  0  0  0  0  0  0
  141.2250   72.4556  226.2908 H   0  0  0  0  0  0  0  0  0  0  0  0
  142.7533   79.0263  219.9623 H   0  0  0  0  0  0  0  0  0  0  0  0
  140.7400   78.7798  218.3889 H   0  0  0  0  0  0  0  0  0  0  0  0
  139.6951   78.7832  219.8282 H   0  0  0  0  0  0  0  0  0  0  0  0
  141.3501   80.9748  218.6303 H   0  0  0  0  0  0  0  0  0  0  0  0
  139.7880   81.0613  219.5163 H   0  0  0  0  0  0  0  0  0  0  0  0
  142.5967   80.9340  220.5481 H   0  0  0  0  0  0  0  0  0  0  0  0
  141.1795   82.0119  221.0023 H   0  0  0  0  0  0  0  0  0  0  0  0
  139.4190   81.0583  221.5578 H   0  0  0  0  0  0  0  0  0  0  0  0
  140.5423   80.2106  224.3564 H   0  0  0  0  0  0  0  0  0  0  0  0
  140.1776   81.8530  223.8950 H   0  0  0  0  0  0  0  0  0  0  0  0
  138.3236   80.4516  225.2405 H   0  0  0  0  0  0  0  0  0  0  0  0
  137.7476   81.3990  223.8769 H   0  0  0  0  0  0  0  0  0  0  0  0
  138.0742   78.4566  224.1650 H   0  0  0  0  0  0  0  0  0  0  0  0
  137.0452   79.3576  223.0227 H   0  0  0  0  0  0  0  0  0  0  0  0
  139.7480   78.2342  222.6296 H   0  0  0  0  0  0  0  0  0  0  0  0
  138.6168   78.8074  221.4042 H   0  0  0  0  0  0  0  0  0  0  0  0
  142.6320   78.7011  222.2222 H   0  0  0  0  0  0  0  0  0  0  0  0
  140.9180   78.1586  222.1562 H   0  0  0  0  0  0  0  0  0  0  0  0
  1  2  1  0
  2  3  1  0
  3  4  1  0
  4  5  2  0
  4  6  1  0
  6  7  1  0
  7  8  1  0
  8  9  2  0
  8 10  1  0
 10 11  2  0
 11 12  1  0
 12 13  2  0
 13 14  1  0
 14 15  2  0
 15 16  1  0
 15 17  1  0
 17 18  2  0
 18 19  1  0
 19 20  2  0
  2 21  1  0
 21 22  1  0
 22 23  1  0
 23 24  1  0
 24 25  1  0
 25 26  1  0
 26 27  1  0
 27 28  1  0
 28 29  1  0
 29 30  1  0
 25 31  1  0
 20 10  1  0
 31 21  1  0
 19 13  1  0
 30 26  1  0
  1 32  1  0
  1 33  1  0
  1 34  1  0
  2 35  1  1
  3 36  1  0
  6 37  1  0
  6 38  1  0
  7 39  1  0
 11 40  1  0
 12 41  1  0
 14 42  1  0
 17 43  1  0
 18 44  1  0
 21 45  1  6
 22 46  1  0
 22 47  1  0
 23 48  1  0
 23 49  1  0
 24 50  1  0
 24 51  1  0
 26 52  1  0
 27 53  1  0
 27 54  1  0
 28 55  1  0
 28 56  1  0
 29 57  1  0
 29 58  1  0
 30 59  1  0
 30 60  1  0
 31 61  1  0
 31 62  1  0
M  END
>  <smiles>  (11) 
C[C@H](NC(=O)CNC(=O)c1ccc2cc(Cl)ccc2n1)[C@H]1CCCN(C2CCCC2)C1

>  <score_type>  (11) 
oracle

>  <origin>  (11) 
autodockgpu

>  <m_score__min__energy>  (11) 
-9.0800000000000001

>  <m_primary>  (11) 
energy

>  <rmsd>  (11) 
4.0718201110583285

>  <m_score__min__rmsd>  (11) 
4.0718201110583285

>  <meeko>  (11) 
{"free_energy": -8.07, "intermolecular_energy": -9.86, "internal_energy": -2.41, "cluster_size": 28, "cluster_id": 1, "rank_in_cluster": 25}

>  <energy>  (11) 
-8.58

>  <cluster_rmsd>  (11) 
1.6

>  <cluster>  (11) 
1

$$$$

     RDKit          3D

 62 65  0  0  0  0  0  0  0  0999 V2000
  141.6450   77.7320  219.4960 C   0  0  0  0  0  0  0  0  0  0  0  0
  141.4110   76.9360  220.8000 C   0  0  2  0  0  0  0  0  0  0  0  0
  140.2540   76.1200  220.7100 N   0  0  0  0  0  0  0  0  0  0  0  0
  140.1500   74.8150  221.3200 C   0  0  0  0  0  0  0  0  0  0  0  0
  141.0980   74.3230  221.9710 O   0  0  0  0  0  0  0  0  0  0  0  0
  138.8480   74.1180  221.1070 C   0  0  0  0  0  0  0  0  0  0  0  0
  137.8680   74.7420  221.9600 N   0  0  0  0  0  0  0  0  0  0  0  0
  137.2780   75.9920  221.7910 C   0  0  0  0  0  0  0  0  0  0  0  0
  137.5750   76.7210  220.8210 O   0  0  0  0  0  0  0  0  0  0  0  0
  136.2830   76.4570  222.7900 C   0  0  0  0  0  0  0  0  0  0  0  0
  135.7240   77.7110  222.7000 C   0  0  0  0  0  0  0  0  0  0  0  0
  134.7980   78.1980  223.6140 C   0  0  0  0  0  0  0  0  0  0  0  0
  134.4590   77.3260  224.6450 C   0  0  0  0  0  0  0  0  0  0  0  0
  133.5430   77.6940  225.6170 C   0  0  0  0  0  0  0  0  0  0  0  0
  133.1920   76.8200  226.6550 C   0  0  0  0  0  0  0  0  0  0  0  0
  132.0240   77.3060  227.8830 Cl  0  0  0  0  0  0  0  0  0  0  0  0
  133.7770   75.5730  226.7010 C   0  0  0  0  0  0  0  0  0  0  0  0
  134.7100   75.1730  225.7320 C   0  0  0  0  0  0  0  0  0  0  0  0
  135.0210   76.0770  224.7250 C   0  0  0  0  0  0  0  0  0  0  0  0
  135.9310   75.6230  223.8140 N   0  0  0  0  0  0  0  0  0  0  0  0
  141.4410   77.9440  221.9120 C   0  0  1  0  0  0  0  0  0  0  0  0
  141.8520   79.3210  221.3910 C   0  0  0  0  0  0  0  0  0  0  0  0
  142.2440   80.1450  222.5870 C   0  0  0  0  0  0  0  0  0  0  0  0
  141.5530   79.6280  223.8000 C   0  0  0  0  0  0  0  0  0  0  0  0
  140.2230   79.1590  223.5800 N   0  0  0  0  0  0  0  0  0  0  0  0
  139.3650   80.2590  223.2100 C   0  0  0  0  0  0  0  0  0  0  0  0
  138.3910   80.5050  224.3600 C   0  0  0  0  0  0  0  0  0  0  0  0
  137.3300   81.3570  223.7000 C   0  0  0  0  0  0  0  0  0  0  0  0
  137.1960   80.7710  222.3320 C   0  0  0  0  0  0  0  0  0  0  0  0
  138.4220   79.9250  222.0780 C   0  0  0  0  0  0  0  0  0  0  0  0
  140.1820   78.0170  222.7320 C   0  0  0  0  0  0  0  0  0  0  0  0
  141.9473   78.7603  219.7434 H   0  0  0  0  0  0  0  0  0  0  0  0
  142.4388   77.2478  218.9083 H   0  0  0  0  0  0  0  0  0  0  0  0
  140.7154   77.7544  218.9083 H   0  0  0  0  0  0  0  0  0  0  0  0
  142.1952   76.1917  221.0026 H   0  0  0  0  0  0  0  0  0  0  0  0
  139.4290   76.5150  220.1610 H   0  0  0  0  0  0  0  0  0  0  0  0
  138.5416   74.2115  220.0547 H   0  0  0  0  0  0  0  0  0  0  0  0
  138.9413   73.0488  221.3480 H   0  0  0  0  0  0  0  0  0  0  0  0
  137.5750   74.1670  222.8100 H   0  0  0  0  0  0  0  0  0  0  0  0
  136.0249   78.3593  221.8639 H   0  0  0  0  0  0  0  0  0  0  0  0
  134.3622   79.2044  223.5289 H   0  0  0  0  0  0  0  0  0  0  0  0
  133.0821   78.6918  225.5733 H   0  0  0  0  0  0  0  0  0  0  0  0
  133.5080   74.8793  227.5112 H   0  0  0  0  0  0  0  0  0  0  0  0
  135.1784   74.1784  225.7689 H   0  0  0  0  0  0  0  0  0  0  0  0
  142.2082   77.5814  222.6119 H   0  0  0  0  0  0  0  0  0  0  0  0
  142.7045   79.2253  220.7024 H   0  0  0  0  0  0  0  0  0  0  0  0
  141.0256   79.7954  220.8414 H   0  0  0  0  0  0  0  0  0  0  0  0
  143.3327   80.0840  222.7323 H   0  0  0  0  0  0  0  0  0  0  0  0
  141.9521   81.1923  222.4197 H   0  0  0  0  0  0  0  0  0  0  0  0
  142.1471   78.7943  224.2025 H   0  0  0  0  0  0  0  0  0  0  0  0
  141.4697   80.4779  224.4934 H   0  0  0  0  0  0  0  0  0  0  0  0
  140.0384   81.0883  222.9476 H   0  0  0  0  0  0  0  0  0  0  0  0
  137.9689   79.5608  224.7346 H   0  0  0  0  0  0  0  0  0  0  0  0
  138.8542   80.9772  225.2389 H   0  0  0  0  0  0  0  0  0  0  0  0
  136.3787   81.2915  224.2484 H   0  0  0  0  0  0  0  0  0  0  0  0
  137.5959   82.4242  223.6795 H   0  0  0  0  0  0  0  0  0  0  0  0
  136.2915   80.1474  222.2776 H   0  0  0  0  0  0  0  0  0  0  0  0
  137.1107   81.5661  221.5767 H   0  0  0  0  0  0  0  0  0  0  0  0
  138.1642   78.8557  222.0916 H   0  0  0  0  0  0  0  0  0  0  0  0
  138.8685   80.1274  221.0933 H   0  0  0  0  0  0  0  0  0  0  0  0
  140.0937   77.1090  223.3466 H   0  0  0  0  0  0  0  0  0  0  0  0
  139.3152   78.0958  222.0593 H   0  0  0  0  0  0  0  0  0  0  0  0
  1  2  1  0
  2  3  1  0
  3  4  1  0
  4  5  2  0
  4  6  1  0
  6  7  1  0
  7  8  1  0
  8  9  2  0
  8 10  1  0
 10 11  2  0
 11 12  1  0
 12 13  2  0
 13 14  1  0
 14 15  2  0
 15 16  1  0
 15 17  1  0
 17 18  2  0
 18 19  1  0
 19 20  2  0
  2 21  1  0
 21 22  1  0
 22 23  1  0
 23 24  1  0
 24 25  1  0
 25 26  1  0
 26 27  1  0
 27 28  1  0
 28 29  1  0
 29 30  1  0
 25 31  1  0
 20 10  1  0
 31 21  1  0
 19 13  1  0
 30 26  1  0
  1 32  1  0
  1 33  1  0
  1 34  1  0
  2 35  1  1
  3 36  1  0
  6 37  1  0
  6 38  1  0
  7 39  1  0
 11 40  1  0
 12 41  1  0
 14 42  1  0
 17 43  1  0
 18 44  1  0
 21 45  1  1
 22 46  1  0
 22 47  1  0
 23 48  1  0
 23 49  1  0
 24 50  1  0
 24 51  1  0
 26 52  1  0
 27 53  1  0
 27 54  1  0
 28 55  1  0
 28 56  1  0
 29 57  1  0
 29 58  1  0
 30 59  1  0
 30 60  1  0
 31 61  1  0
 31 62  1  0
M  END
>  <smiles>  (12) 
C[C@H](NC(=O)CNC(=O)c1ccc2cc(Cl)ccc2n1)[C@H]1CCCN(C2CCCC2)C1

>  <score_type>  (12) 
oracle

>  <origin>  (12) 
autodockgpu

>  <m_score__min__energy>  (12) 
-9.0800000000000001

>  <m_primary>  (12) 
energy

>  <rmsd>  (12) 
6.236944218531533

>  <m_score__min__rmsd>  (12) 
6.236944218531533

>  <meeko>  (12) 
{"free_energy": -7.02, "intermolecular_energy": -8.81, "internal_energy": -3.61, "cluster_size": 12, "cluster_id": 5, "rank_in_cluster": 5}

>  <energy>  (12) 
-8.57

>  <cluster_rmsd>  (12) 
1.52

>  <cluster>  (12) 
1

$$$$

     RDKit          3D

 62 65  0  0  0  0  0  0  0  0999 V2000
  141.8340   78.7280  224.1000 C   0  0  0  0  0  0  0  0  0  0  0  0
  140.6640   78.6080  223.0980 C   0  0  2  0  0  0  0  0  0  0  0  0
  140.7350   77.3990  222.3580 N   0  0  0  0  0  0  0  0  0  0  0  0
  139.5880   76.5660  222.0820 C   0  0  0  0  0  0  0  0  0  0  0  0
  138.4480   76.8710  222.4930 O   0  0  0  0  0  0  0  0  0  0  0  0
  139.8760   75.3350  221.2890 C   0  0  0  0  0  0  0  0  0  0  0  0
  139.8890   74.2160  222.1980 N   0  0  0  0  0  0  0  0  0  0  0  0
  140.2760   72.9090  221.9200 C   0  0  0  0  0  0  0  0  0  0  0  0
  140.6670   72.5790  220.7800 O   0  0  0  0  0  0  0  0  0  0  0  0
  140.2150   71.8960  223.0040 C   0  0  0  0  0  0  0  0  0  0  0  0
  139.6820   70.6480  222.7760 C   0  0  0  0  0  0  0  0  0  0  0  0
  139.5920   69.6690  223.7590 C   0  0  0  0  0  0  0  0  0  0  0  0
  140.0830   70.0300  225.0100 C   0  0  0  0  0  0  0  0  0  0  0  0
  140.0530   69.1390  226.0710 C   0  0  0  0  0  0  0  0  0  0  0  0
  140.5510   69.4920  227.3330 C   0  0  0  0  0  0  0  0  0  0  0  0
  140.5040   68.3460  228.6700 Cl  0  0  0  0  0  0  0  0  0  0  0  0
  141.0770   70.7540  227.5100 C   0  0  0  0  0  0  0  0  0  0  0  0
  141.1190   71.6780  226.4550 C   0  0  0  0  0  0  0  0  0  0  0  0
  140.6130   71.2770  225.2260 C   0  0  0  0  0  0  0  0  0  0  0  0
  140.6890   72.2220  224.2430 N   0  0  0  0  0  0  0  0  0  0  0  0
  140.6640   79.8840  222.3060 C   0  0  1  0  0  0  0  0  0  0  0  0
  142.0190   80.5850  222.4000 C   0  0  0  0  0  0  0  0  0  0  0  0
  141.8130   82.0020  221.9400 C   0  0  0  0  0  0  0  0  0  0  0  0
  140.6420   82.0670  221.0230 C   0  0  0  0  0  0  0  0  0  0  0  0
  140.4900   80.9390  220.1620 N   0  0  0  0  0  0  0  0  0  0  0  0
  141.5840   80.8830  219.2230 C   0  0  0  0  0  0  0  0  0  0  0  0
  141.0460   81.2740  217.8480 C   0  0  0  0  0  0  0  0  0  0  0  0
  142.1430   80.7860  216.9280 C   0  0  0  0  0  0  0  0  0  0  0  0
  142.5830   79.4980  217.5430 C   0  0  0  0  0  0  0  0  0  0  0  0
  142.0790   79.4780  218.9670 C   0  0  0  0  0  0  0  0  0  0  0  0
  140.2140   79.7410  220.8780 C   0  0  0  0  0  0  0  0  0  0  0  0
  141.4426   78.6879  225.1272 H   0  0  0  0  0  0  0  0  0  0  0  0
  142.5378   77.8973  223.9431 H   0  0  0  0  0  0  0  0  0  0  0  0
  142.3545   79.6842  223.9431 H   0  0  0  0  0  0  0  0  0  0  0  0
  139.6819   78.5162  223.5849 H   0  0  0  0  0  0  0  0  0  0  0  0
  141.6970   77.1140  221.9940 H   0  0  0  0  0  0  0  0  0  0  0  0
  139.0953   75.1894  220.5279 H   0  0  0  0  0  0  0  0  0  0  0  0
  140.8463   75.4258  220.7788 H   0  0  0  0  0  0  0  0  0  0  0  0
  139.5610   74.4350  223.1900 H   0  0  0  0  0  0  0  0  0  0  0  0
  139.3094   70.4138  221.7679 H   0  0  0  0  0  0  0  0  0  0  0  0
  139.1617   68.6761  223.5612 H   0  0  0  0  0  0  0  0  0  0  0  0
  139.6300   68.1349  225.9199 H   0  0  0  0  0  0  0  0  0  0  0  0
  141.4708   71.0417  228.4960 H   0  0  0  0  0  0  0  0  0  0  0  0
  141.5382   72.6850  226.5967 H   0  0  0  0  0  0  0  0  0  0  0  0
  139.8980   80.5180  222.7763 H   0  0  0  0  0  0  0  0  0  0  0  0
  142.3791   80.5736  223.4393 H   0  0  0  0  0  0  0  0  0  0  0  0
  142.7691   80.0751  221.7777 H   0  0  0  0  0  0  0  0  0  0  0  0
  141.6304   82.6467  222.8124 H   0  0  0  0  0  0  0  0  0  0  0  0
  142.7119   82.3464  221.4077 H   0  0  0  0  0  0  0  0  0  0  0  0
  139.7326   82.1543  221.6357 H   0  0  0  0  0  0  0  0  0  0  0  0
  140.8106   82.9346  220.3681 H   0  0  0  0  0  0  0  0  0  0  0  0
  142.3731   81.5227  219.6451 H   0  0  0  0  0  0  0  0  0  0  0  0
  140.0920   80.7698  217.6344 H   0  0  0  0  0  0  0  0  0  0  0  0
  140.8284   82.3475  217.7468 H   0  0  0  0  0  0  0  0  0  0  0  0
  141.7567   80.6221  215.9112 H   0  0  0  0  0  0  0  0  0  0  0  0
  142.9650   81.5101  216.8274 H   0  0  0  0  0  0  0  0  0  0  0  0
  142.1600   78.6509  216.9831 H   0  0  0  0  0  0  0  0  0  0  0  0
  143.6794   79.4125  217.5193 H   0  0  0  0  0  0  0  0  0  0  0  0
  141.2595   78.7526  219.0775 H   0  0  0  0  0  0  0  0  0  0  0  0
  142.8615   79.1779  219.6795 H   0  0  0  0  0  0  0  0  0  0  0  0
  139.1323   79.5428  220.8544 H   0  0  0  0  0  0  0  0  0  0  0  0
  140.7550   78.9057  220.4093 H   0  0  0  0  0  0  0  0  0  0  0  0
  1  2  1  0
  2  3  1  0
  3  4  1  0
  4  5  2  0
  4  6  1  0
  6  7  1  0
  7  8  1  0
  8  9  2  0
  8 10  1  0
 10 11  2  0
 11 12  1  0
 12 13  2  0
 13 14  1  0
 14 15  2  0
 15 16  1  0
 15 17  1  0
 17 18  2  0
 18 19  1  0
 19 20  2  0
  2 21  1  0
 21 22  1  0
 22 23  1  0
 23 24  1  0
 24 25  1  0
 25 26  1  0
 26 27  1  0
 27 28  1  0
 28 29  1  0
 29 30  1  0
 25 31  1  0
 20 10  1  0
 31 21  1  0
 19 13  1  0
 30 26  1  0
  1 32  1  0
  1 33  1  0
  1 34  1  0
  2 35  1  1
  3 36  1  0
  6 37  1  0
  6 38  1  0
  7 39  1  0
 11 40  1  0
 12 41  1  0
 14 42  1  0
 17 43  1  0
 18 44  1  0
 21 45  1  1
 22 46  1  0
 22 47  1  0
 23 48  1  0
 23 49  1  0
 24 50  1  0
 24 51  1  0
 26 52  1  0
 27 53  1  0
 27 54  1  0
 28 55  1  0
 28 56  1  0
 29 57  1  0
 29 58  1  0
 30 59  1  0
 30 60  1  0
 31 61  1  0
 31 62  1  0
M  END
>  <smiles>  (13) 
C[C@H](NC(=O)CNC(=O)c1ccc2cc(Cl)ccc2n1)[C@H]1CCCN(C2CCCC2)C1

>  <score_type>  (13) 
oracle

>  <origin>  (13) 
autodockgpu

>  <m_score__min__energy>  (13) 
-9.0800000000000001

>  <m_primary>  (13) 
energy

>  <rmsd>  (13) 
3.2158100179124602

>  <m_score__min__rmsd>  (13) 
3.2158100179124602

>  <meeko>  (13) 
{"free_energy": -9.0, "intermolecular_energy": -10.79, "internal_energy": -1.66, "cluster_size": 28, "cluster_id": 1, "rank_in_cluster": 2}

>  <energy>  (13) 
-8.55

>  <cluster_rmsd>  (13) 
1.19

>  <cluster>  (13) 
1

$$$$

     RDKit          3D

 62 65  0  0  0  0  0  0  0  0999 V2000
  141.5830   77.8320  219.4730 C   0  0  0  0  0  0  0  0  0  0  0  0
  141.3740   76.9900  220.7520 C   0  0  2  0  0  0  0  0  0  0  0  0
  140.2190   76.1720  220.6530 N   0  0  0  0  0  0  0  0  0  0  0  0
  140.0480   74.9430  221.3920 C   0  0  0  0  0  0  0  0  0  0  0  0
  140.9300   74.5250  222.1730 O   0  0  0  0  0  0  0  0  0  0  0  0
  138.7600   74.2290  221.1440 C   0  0  0  0  0  0  0  0  0  0  0  0
  137.7640   74.8010  222.0150 N   0  0  0  0  0  0  0  0  0  0  0  0
  137.2610   76.0990  221.9810 C   0  0  0  0  0  0  0  0  0  0  0  0
  137.6650   76.9270  221.1370 O   0  0  0  0  0  0  0  0  0  0  0  0
  136.2300   76.4950  222.9730 C   0  0  0  0  0  0  0  0  0  0  0  0
  135.6540   77.7440  222.9330 C   0  0  0  0  0  0  0  0  0  0  0  0
  134.6930   78.1670  223.8440 C   0  0  0  0  0  0  0  0  0  0  0  0
  134.3400   77.2370  224.8170 C   0  0  0  0  0  0  0  0  0  0  0  0
  133.3910   77.5390  225.7800 C   0  0  0  0  0  0  0  0  0  0  0  0
  133.0250   76.6070  226.7610 C   0  0  0  0  0  0  0  0  0  0  0  0
  131.8150   77.0090  227.9770 Cl  0  0  0  0  0  0  0  0  0  0  0  0
  133.6300   75.3680  226.7570 C   0  0  0  0  0  0  0  0  0  0  0  0
  134.5960   75.0340  225.7970 C   0  0  0  0  0  0  0  0  0  0  0  0
  134.9210   75.9950  224.8480 C   0  0  0  0  0  0  0  0  0  0  0  0
  135.8640   75.6030  223.9410 N   0  0  0  0  0  0  0  0  0  0  0  0
  141.4170   77.9600  221.8980 C   0  0  1  0  0  0  0  0  0  0  0  0
  141.8150   79.3550  221.4190 C   0  0  0  0  0  0  0  0  0  0  0  0
  142.2220   80.1390  222.6370 C   0  0  0  0  0  0  0  0  0  0  0  0
  141.5510   79.5770  223.8420 C   0  0  0  0  0  0  0  0  0  0  0  0
  140.2200   79.1110  223.6250 N   0  0  0  0  0  0  0  0  0  0  0  0
  139.3530   80.2190  223.3070 C   0  0  0  0  0  0  0  0  0  0  0  0
  138.4070   80.4320  224.4880 C   0  0  0  0  0  0  0  0  0  0  0  0
  137.3300   81.3000  223.8770 C   0  0  0  0  0  0  0  0  0  0  0  0
  137.1620   80.7520  222.4970 C   0  0  0  0  0  0  0  0  0  0  0  0
  138.3820   79.9150  222.1900 C   0  0  0  0  0  0  0  0  0  0  0  0
  140.1710   77.9980  222.7390 C   0  0  0  0  0  0  0  0  0  0  0  0
  141.8393   78.8648  219.7517 H   0  0  0  0  0  0  0  0  0  0  0  0
  142.4009   77.3989  218.8785 H   0  0  0  0  0  0  0  0  0  0  0  0
  140.6575   77.8316  218.8785 H   0  0  0  0  0  0  0  0  0  0  0  0
  142.1648   76.2431  220.9154 H   0  0  0  0  0  0  0  0  0  0  0  0
  139.4490   76.5050  219.9930 H   0  0  0  0  0  0  0  0  0  0  0  0
  138.4572   74.3573  220.0943 H   0  0  0  0  0  0  0  0  0  0  0  0
  138.8726   73.1531  221.3436 H   0  0  0  0  0  0  0  0  0  0  0  0
  137.3810   74.1410  222.7610 H   0  0  0  0  0  0  0  0  0  0  0  0
  135.9690   78.4410  222.1424 H   0  0  0  0  0  0  0  0  0  0  0  0
  134.2420   79.1693  223.7987 H   0  0  0  0  0  0  0  0  0  0  0  0
  132.9149   78.5306  225.7747 H   0  0  0  0  0  0  0  0  0  0  0  0
  133.3497   74.6279  227.5210 H   0  0  0  0  0  0  0  0  0  0  0  0
  135.0793   74.0459  225.7954 H   0  0  0  0  0  0  0  0  0  0  0  0
  142.1964   77.5778  222.5736 H   0  0  0  0  0  0  0  0  0  0  0  0
  142.6574   79.2866  220.7149 H   0  0  0  0  0  0  0  0  0  0  0  0
  140.9788   79.8446  220.8984 H   0  0  0  0  0  0  0  0  0  0  0  0
  143.3129   80.0777  222.7638 H   0  0  0  0  0  0  0  0  0  0  0  0
  141.9237   81.1902  222.5105 H   0  0  0  0  0  0  0  0  0  0  0  0
  142.1539   78.7321  224.2062 H   0  0  0  0  0  0  0  0  0  0  0  0
  141.4754   80.4015  224.5662 H   0  0  0  0  0  0  0  0  0  0  0  0
  140.0192   81.0560  223.0508 H   0  0  0  0  0  0  0  0  0  0  0  0
  137.9949   79.4774  224.8470 H   0  0  0  0  0  0  0  0  0  0  0  0
  138.8911   80.8803  225.3682 H   0  0  0  0  0  0  0  0  0  0  0  0
  136.3925   81.2186  224.4466 H   0  0  0  0  0  0  0  0  0  0  0  0
  137.5956   82.3675  223.8787 H   0  0  0  0  0  0  0  0  0  0  0  0
  136.2568   80.1289  222.4478 H   0  0  0  0  0  0  0  0  0  0  0  0
  137.0571   81.5673  221.7661 H   0  0  0  0  0  0  0  0  0  0  0  0
  138.1252   78.8454  222.1808 H   0  0  0  0  0  0  0  0  0  0  0  0
  138.8038   80.1451  221.2005 H   0  0  0  0  0  0  0  0  0  0  0  0
  140.0967   77.0691  223.3235 H   0  0  0  0  0  0  0  0  0  0  0  0
  139.2933   78.0949  222.0830 H   0  0  0  0  0  0  0  0  0  0  0  0
  1  2  1  0
  2  3  1  0
  3  4  1  0
  4  5  2  0
  4  6  1  0
  6  7  1  0
  7  8  1  0
  8  9  2  0
  8 10  1  0
 10 11  2  0
 11 12  1  0
 12 13  2  0
 13 14  1  0
 14 15  2  0
 15 16  1  0
 15 17  1  0
 17 18  2  0
 18 19  1  0
 19 20  2  0
  2 21  1  0
 21 22  1  0
 22 23  1  0
 23 24  1  0
 24 25  1  0
 25 26  1  0
 26 27  1  0
 27 28  1  0
 28 29  1  0
 29 30  1  0
 25 31  1  0
 20 10  1  0
 31 21  1  0
 19 13  1  0
 30 26  1  0
  1 32  1  0
  1 33  1  0
  1 34  1  0
  2 35  1  1
  3 36  1  0
  6 37  1  0
  6 38  1  0
  7 39  1  0
 11 40  1  0
 12 41  1  0
 14 42  1  0
 17 43  1  0
 18 44  1  0
 21 45  1  1
 22 46  1  0
 22 47  1  0
 23 48  1  0
 23 49  1  0
 24 50  1  0
 24 51  1  0
 26 52  1  0
 27 53  1  0
 27 54  1  0
 28 55  1  0
 28 56  1  0
 29 57  1  0
 29 58  1  0
 30 59  1  0
 30 60  1  0
 31 61  1  0
 31 62  1  0
M  END
>  <smiles>  (14) 
C[C@H](NC(=O)CNC(=O)c1ccc2cc(Cl)ccc2n1)[C@H]1CCCN(C2CCCC2)C1

>  <score_type>  (14) 
oracle

>  <origin>  (14) 
autodockgpu

>  <m_score__min__energy>  (14) 
-9.0800000000000001

>  <m_primary>  (14) 
energy

>  <rmsd>  (14) 
6.221989253919076

>  <m_score__min__rmsd>  (14) 
6.221989253919076

>  <meeko>  (14) 
{"free_energy": -6.99, "intermolecular_energy": -8.78, "internal_energy": -3.59, "cluster_size": 12, "cluster_id": 5, "rank_in_cluster": 9}

>  <energy>  (14) 
-8.54

>  <cluster_rmsd>  (14) 
1.58

>  <cluster>  (14) 
1

$$$$

     RDKit          3D

 62 65  0  0  0  0  0  0  0  0999 V2000
  141.4820   78.4120  219.4470 C   0  0  0  0  0  0  0  0  0  0  0  0
  141.4250   77.5070  220.6990 C   0  0  2  0  0  0  0  0  0  0  0  0
  140.6520   76.3410  220.4630 N   0  0  0  0  0  0  0  0  0  0  0  0
  140.0830   75.5360  221.5190 C   0  0  0  0  0  0  0  0  0  0  0  0
  140.2480   75.8300  222.7230 O   0  0  0  0  0  0  0  0  0  0  0  0
  139.3040   74.3480  221.0590 C   0  0  0  0  0  0  0  0  0  0  0  0
  139.4240   73.3250  222.0670 N   0  0  0  0  0  0  0  0  0  0  0  0
  139.3730   71.9470  221.8790 C   0  0  0  0  0  0  0  0  0  0  0  0
  139.2040   71.4550  220.7430 O   0  0  0  0  0  0  0  0  0  0  0  0
  139.5190   71.0550  223.0580 C   0  0  0  0  0  0  0  0  0  0  0  0
  139.0380   69.7670  223.0330 C   0  0  0  0  0  0  0  0  0  0  0  0
  139.1390   68.8970  224.1130 C   0  0  0  0  0  0  0  0  0  0  0  0
  139.7700   69.4130  225.2400 C   0  0  0  0  0  0  0  0  0  0  0  0
  139.9360   68.6420  226.3790 C   0  0  0  0  0  0  0  0  0  0  0  0
  140.5750   69.1520  227.5180 C   0  0  0  0  0  0  0  0  0  0  0  0
  140.7770   68.1570  228.9580 Cl  0  0  0  0  0  0  0  0  0  0  0  0
  141.0430   70.4490  227.4920 C   0  0  0  0  0  0  0  0  0  0  0  0
  140.8870   71.2540  226.3540 C   0  0  0  0  0  0  0  0  0  0  0  0
  140.2470   70.6990  225.2540 C   0  0  0  0  0  0  0  0  0  0  0  0
  140.1340   71.5350  224.1800 N   0  0  0  0  0  0  0  0  0  0  0  0
  140.9830   78.3910  221.8300 C   0  0  1  0  0  0  0  0  0  0  0  0
  142.1820   79.0610  222.5010 C   0  0  0  0  0  0  0  0  0  0  0  0
  141.7070   79.5810  223.8300 C   0  0  0  0  0  0  0  0  0  0  0  0
  140.2400   79.8300  223.7760 C   0  0  0  0  0  0  0  0  0  0  0  0
  139.7610   80.3300  222.5280 N   0  0  0  0  0  0  0  0  0  0  0  0
  140.2830   81.6540  222.2920 C   0  0  0  0  0  0  0  0  0  0  0  0
  139.1160   82.5590  221.9000 C   0  0  0  0  0  0  0  0  0  0  0  0
  139.8280   83.7500  221.2980 C   0  0  0  0  0  0  0  0  0  0  0  0
  140.9720   83.1480  220.5500 C   0  0  0  0  0  0  0  0  0  0  0  0
  141.1600   81.7400  221.0640 C   0  0  0  0  0  0  0  0  0  0  0  0
  139.9200   79.3930  221.4700 C   0  0  0  0  0  0  0  0  0  0  0  0
  141.5483   79.4649  219.7584 H   0  0  0  0  0  0  0  0  0  0  0  0
  142.3655   78.1511  218.8459 H   0  0  0  0  0  0  0  0  0  0  0  0
  140.5727   78.2640  218.8459 H   0  0  0  0  0  0  0  0  0  0  0  0
  142.4011   77.0786  220.9706 H   0  0  0  0  0  0  0  0  0  0  0  0
  140.4950   76.0670  219.4440 H   0  0  0  0  0  0  0  0  0  0  0  0
  138.2467   74.6218  220.9278 H   0  0  0  0  0  0  0  0  0  0  0  0
  139.6905   73.9849  220.0953 H   0  0  0  0  0  0  0  0  0  0  0  0
  139.5680   73.6840  223.0620 H   0  0  0  0  0  0  0  0  0  0  0  0
  138.5501   69.4078  222.1149 H   0  0  0  0  0  0  0  0  0  0  0  0
  138.7464   67.8700  224.0784 H   0  0  0  0  0  0  0  0  0  0  0  0
  139.5588   67.6087  226.3900 H   0  0  0  0  0  0  0  0  0  0  0  0
  141.5474   70.8594  228.3792 H   0  0  0  0  0  0  0  0  0  0  0  0
  141.2588   72.2891  226.3338 H   0  0  0  0  0  0  0  0  0  0  0  0
  140.4975   77.7180  222.5520 H   0  0  0  0  0  0  0  0  0  0  0  0
  142.9902   78.3295  222.6484 H   0  0  0  0  0  0  0  0  0  0  0  0
  142.5758   79.8773  221.8776 H   0  0  0  0  0  0  0  0  0  0  0  0
  141.9233   78.8381  224.6118 H   0  0  0  0  0  0  0  0  0  0  0  0
  142.2280   80.5220  224.0604 H   0  0  0  0  0  0  0  0  0  0  0  0
  139.7244   78.8809  223.9845 H   0  0  0  0  0  0  0  0  0  0  0  0
  140.0320   80.6114  224.5217 H   0  0  0  0  0  0  0  0  0  0  0  0
  140.8331   81.9249  223.2053 H   0  0  0  0  0  0  0  0  0  0  0  0
  138.4617   82.0704  221.1630 H   0  0  0  0  0  0  0  0  0  0  0  0
  138.4539   82.8168  222.7398 H   0  0  0  0  0  0  0  0  0  0  0  0
  139.1621   84.3003  220.6170 H   0  0  0  0  0  0  0  0  0  0  0  0
  140.1542   84.4760  222.0573 H   0  0  0  0  0  0  0  0  0  0  0  0
  140.7477   83.1279  219.4733 H   0  0  0  0  0  0  0  0  0  0  0  0
  141.8869   83.7402  220.6991 H   0  0  0  0  0  0  0  0  0  0  0  0
  140.8414   81.0065  220.3087 H   0  0  0  0  0  0  0  0  0  0  0  0
  142.2134   81.5193  221.2911 H   0  0  0  0  0  0  0  0  0  0  0  0
  138.9676   78.8695  221.3000 H   0  0  0  0  0  0  0  0  0  0  0  0
  140.2191   79.9261  220.5555 H   0  0  0  0  0  0  0  0  0  0  0  0
  1  2  1  0
  2  3  1  0
  3  4  1  0
  4  5  2  0
  4  6  1  0
  6  7  1  0
  7  8  1  0
  8  9  2  0
  8 10  1  0
 10 11  2  0
 11 12  1  0
 12 13  2  0
 13 14  1  0
 14 15  2  0
 15 16  1  0
 15 17  1  0
 17 18  2  0
 18 19  1  0
 19 20  2  0
  2 21  1  0
 21 22  1  0
 22 23  1  0
 23 24  1  0
 24 25  1  0
 25 26  1  0
 26 27  1  0
 27 28  1  0
 28 29  1  0
 29 30  1  0
 25 31  1  0
 20 10  1  0
 31 21  1  0
 19 13  1  0
 30 26  1  0
  1 32  1  0
  1 33  1  0
  1 34  1  0
  2 35  1  1
  3 36  1  0
  6 37  1  0
  6 38  1  0
  7 39  1  0
 11 40  1  0
 12 41  1  0
 14 42  1  0
 17 43  1  0
 18 44  1  0
 21 45  1  1
 22 46  1  0
 22 47  1  0
 23 48  1  0
 23 49  1  0
 24 50  1  0
 24 51  1  0
 26 52  1  0
 27 53  1  0
 27 54  1  0
 28 55  1  0
 28 56  1  0
 29 57  1  0
 29 58  1  0
 30 59  1  0
 30 60  1  0
 31 61  1  0
 31 62  1  0
M  END
>  <smiles>  (15) 
C[C@H](NC(=O)CNC(=O)c1ccc2cc(Cl)ccc2n1)[C@H]1CCCN(C2CCCC2)C1

>  <score_type>  (15) 
oracle

>  <origin>  (15) 
autodockgpu

>  <m_score__min__energy>  (15) 
-9.0800000000000001

>  <m_primary>  (15) 
energy

>  <rmsd>  (15) 
3.9711729501034987

>  <m_score__min__rmsd>  (15) 
3.9711729501034987

>  <meeko>  (15) 
{"free_energy": -8.55, "intermolecular_energy": -10.34, "internal_energy": -2.19, "cluster_size": 28, "cluster_id": 1, "rank_in_cluster": 13}

>  <energy>  (15) 
-8.53

>  <cluster_rmsd>  (15) 
1.58

>  <cluster>  (15) 
1

$$$$

     RDKit          3D

 62 65  0  0  0  0  0  0  0  0999 V2000
  142.9090   76.1480  218.4030 C   0  0  0  0  0  0  0  0  0  0  0  0
  142.4020   74.7030  218.6120 C   0  0  2  0  0  0  0  0  0  0  0  0
  141.1880   74.6800  219.3450 N   0  0  0  0  0  0  0  0  0  0  0  0
  140.9470   75.4970  220.5130 C   0  0  0  0  0  0  0  0  0  0  0  0
  141.8160   76.2820  220.9490 O   0  0  0  0  0  0  0  0  0  0  0  0
  139.6040   75.3220  221.1410 C   0  0  0  0  0  0  0  0  0  0  0  0
  139.6840   74.2060  222.0500 N   0  0  0  0  0  0  0  0  0  0  0  0
  139.9020   72.8700  221.7250 C   0  0  0  0  0  0  0  0  0  0  0  0
  140.0510   72.5090  220.5390 O   0  0  0  0  0  0  0  0  0  0  0  0
  139.9510   71.8640  222.8170 C   0  0  0  0  0  0  0  0  0  0  0  0
  139.5100   70.5770  222.6130 C   0  0  0  0  0  0  0  0  0  0  0  0
  139.5240   69.6030  223.6040 C   0  0  0  0  0  0  0  0  0  0  0  0
  140.0220   70.0110  224.8380 C   0  0  0  0  0  0  0  0  0  0  0  0
  140.0910   69.1300  225.9040 C   0  0  0  0  0  0  0  0  0  0  0  0
  140.5960   69.5310  227.1490 C   0  0  0  0  0  0  0  0  0  0  0  0
  140.6770   68.3960  228.4950 Cl  0  0  0  0  0  0  0  0  0  0  0  0
  141.0280   70.8310  227.3030 C   0  0  0  0  0  0  0  0  0  0  0  0
  140.9690   71.7470  226.2420 C   0  0  0  0  0  0  0  0  0  0  0  0
  140.4600   71.2970  225.0300 C   0  0  0  0  0  0  0  0  0  0  0  0
  140.4340   72.2370  224.0400 N   0  0  0  0  0  0  0  0  0  0  0  0
  143.5560   73.9390  219.1940 C   0  0  1  0  0  0  0  0  0  0  0  0
  143.0620   72.8040  220.0910 C   0  0  0  0  0  0  0  0  0  0  0  0
  144.2320   72.3660  220.9290 C   0  0  0  0  0  0  0  0  0  0  0  0
  145.5040   72.6920  220.2250 C   0  0  0  0  0  0  0  0  0  0  0  0
  145.4610   72.5380  218.8070 N   0  0  0  0  0  0  0  0  0  0  0  0
  145.2940   71.1460  218.4650 C   0  0  0  0  0  0  0  0  0  0  0  0
  146.2390   70.3270  219.3420 C   0  0  0  0  0  0  0  0  0  0  0  0
  146.2700   68.9990  218.6190 C   0  0  0  0  0  0  0  0  0  0  0  0
  146.2570   69.3730  217.1730 C   0  0  0  0  0  0  0  0  0  0  0  0
  145.7950   70.8090  217.0790 C   0  0  0  0  0  0  0  0  0  0  0  0
  144.5610   73.4500  218.1880 C   0  0  0  0  0  0  0  0  0  0  0  0
  143.0757   76.6231  219.3810 H   0  0  0  0  0  0  0  0  0  0  0  0
  143.8536   76.1273  217.8396 H   0  0  0  0  0  0  0  0  0  0  0  0
  142.1586   76.7220  217.8396 H   0  0  0  0  0  0  0  0  0  0  0  0
  142.1092   74.2044  217.6762 H   0  0  0  0  0  0  0  0  0  0  0  0
  140.4270   74.0190  218.9950 H   0  0  0  0  0  0  0  0  0  0  0  0
  139.3266   76.2333  221.6910 H   0  0  0  0  0  0  0  0  0  0  0  0
  138.8412   75.1358  220.3706 H   0  0  0  0  0  0  0  0  0  0  0  0
  139.5610   74.4510  223.0810 H   0  0  0  0  0  0  0  0  0  0  0  0
  139.1280   70.3059  221.6177 H   0  0  0  0  0  0  0  0  0  0  0  0
  139.1656   68.5785  223.4253 H   0  0  0  0  0  0  0  0  0  0  0  0
  139.7427   68.0950  225.7715 H   0  0  0  0  0  0  0  0  0  0  0  0
  141.4262   71.1561  228.2755 H   0  0  0  0  0  0  0  0  0  0  0  0
  141.3134   72.7844  226.3652 H   0  0  0  0  0  0  0  0  0  0  0  0
  144.1079   74.6673  219.8064 H   0  0  0  0  0  0  0  0  0  0  0  0
  142.2466   73.1607  220.7374 H   0  0  0  0  0  0  0  0  0  0  0  0
  142.6745   71.9683  219.4898 H   0  0  0  0  0  0  0  0  0  0  0  0
  144.2051   72.8890  221.8963 H   0  0  0  0  0  0  0  0  0  0  0  0
  144.1753   71.2800  221.0945 H   0  0  0  0  0  0  0  0  0  0  0  0
  145.7596   73.7385  220.4477 H   0  0  0  0  0  0  0  0  0  0  0  0
  146.2527   71.9742  220.5913 H   0  0  0  0  0  0  0  0  0  0  0  0
  144.2190   70.9388  218.5715 H   0  0  0  0  0  0  0  0  0  0  0  0
  147.2395   70.7821  219.3844 H   0  0  0  0  0  0  0  0  0  0  0  0
  145.9167   70.2527  220.3911 H   0  0  0  0  0  0  0  0  0  0  0  0
  147.1829   68.4389  218.8696 H   0  0  0  0  0  0  0  0  0  0  0  0
  145.4277   68.3476  218.8949 H   0  0  0  0  0  0  0  0  0  0  0  0
  147.2680   69.2754  216.7508 H   0  0  0  0  0  0  0  0  0  0  0  0
  145.5836   68.7117  216.6080 H   0  0  0  0  0  0  0  0  0  0  0  0
  146.6306   71.4671  216.7985 H   0  0  0  0  0  0  0  0  0  0  0  0
  145.0180   70.9454  216.3124 H   0  0  0  0  0  0  0  0  0  0  0  0
  145.1254   74.3063  217.7904 H   0  0  0  0  0  0  0  0  0  0  0  0
  144.0342   72.9392  217.3685 H   0  0  0  0  0  0  0  0  0  0  0  0
  1  2  1  0
  2  3  1  0
  3  4  1  0
  4  5  2  0
  4  6  1  0
  6  7  1  0
  7  8  1  0
  8  9  2  0
  8 10  1  0
 10 11  2  0
 11 12  1  0
 12 13  2  0
 13 14  1  0
 14 15  2  0
 15 16  1  0
 15 17  1  0
 17 18  2  0
 18 19  1  0
 19 20  2  0
  2 21  1  0
 21 22  1  0
 22 23  1  0
 23 24  1  0
 24 25  1  0
 25 26  1  0
 26 27  1  0
 27 28  1  0
 28 29  1  0
 29 30  1  0
 25 31  1  0
 20 10  1  0
 31 21  1  0
 19 13  1  0
 30 26  1  0
  1 32  1  0
  1 33  1  0
  1 34  1  0
  2 35  1  6
  3 36  1  0
  6 37  1  0
  6 38  1  0
  7 39  1  0
 11 40  1  0
 12 41  1  0
 14 42  1  0
 17 43  1  0
 18 44  1  0
 21 45  1  1
 22 46  1  0
 22 47  1  0
 23 48  1  0
 23 49  1  0
 24 50  1  0
 24 51  1  0
 26 52  1  0
 27 53  1  0
 27 54  1  0
 28 55  1  0
 28 56  1  0
 29 57  1  0
 29 58  1  0
 30 59  1  0
 30 60  1  0
 31 61  1  0
 31 62  1  0
M  END
>  <smiles>  (16) 
C[C@H](NC(=O)CNC(=O)c1ccc2cc(Cl)ccc2n1)[C@H]1CCCN(C2CCCC2)C1

>  <score_type>  (16) 
oracle

>  <origin>  (16) 
autodockgpu

>  <m_score__min__energy>  (16) 
-9.0800000000000001

>  <m_primary>  (16) 
energy

>  <rmsd>  (16) 
6.029637094722057

>  <m_score__min__rmsd>  (16) 
6.029637094722057

>  <meeko>  (16) 
{"free_energy": -7.89, "intermolecular_energy": -9.68, "internal_energy": -2.59, "cluster_size": 3, "cluster_id": 2, "rank_in_cluster": 1}

>  <energy>  (16) 
-8.53

>  <cluster_rmsd>  (16) 
0.38

>  <cluster>  (16) 
1

$$$$

     RDKit          3D

 62 65  0  0  0  0  0  0  0  0999 V2000
  141.7150   77.7110  219.5510 C   0  0  0  0  0  0  0  0  0  0  0  0
  141.4060   76.9440  220.8560 C   0  0  2  0  0  0  0  0  0  0  0  0
  140.2350   76.1530  220.7280 N   0  0  0  0  0  0  0  0  0  0  0  0
  140.0350   74.9060  221.4310 C   0  0  0  0  0  0  0  0  0  0  0  0
  140.9050   74.4480  222.2030 O   0  0  0  0  0  0  0  0  0  0  0  0
  138.7340   74.2270  221.1570 C   0  0  0  0  0  0  0  0  0  0  0  0
  137.7420   74.8070  222.0270 N   0  0  0  0  0  0  0  0  0  0  0  0
  137.2190   76.0960  221.9650 C   0  0  0  0  0  0  0  0  0  0  0  0
  137.5970   76.9060  221.0930 O   0  0  0  0  0  0  0  0  0  0  0  0
  136.1960   76.5040  222.9620 C   0  0  0  0  0  0  0  0  0  0  0  0
  135.6760   77.7770  222.9600 C   0  0  0  0  0  0  0  0  0  0  0  0
  134.7260   78.2110  223.8770 C   0  0  0  0  0  0  0  0  0  0  0  0
  134.3220   77.2650  224.8140 C   0  0  0  0  0  0  0  0  0  0  0  0
  133.3770   77.5760  225.7780 C   0  0  0  0  0  0  0  0  0  0  0  0
  132.9600   76.6270  226.7220 C   0  0  0  0  0  0  0  0  0  0  0  0
  131.7570   77.0410  227.9410 Cl  0  0  0  0  0  0  0  0  0  0  0  0
  133.5090   75.3630  226.6810 C   0  0  0  0  0  0  0  0  0  0  0  0
  134.4690   75.0200  225.7180 C   0  0  0  0  0  0  0  0  0  0  0  0
  134.8460   75.9970  224.8060 C   0  0  0  0  0  0  0  0  0  0  0  0
  135.7800   75.5950  223.8950 N   0  0  0  0  0  0  0  0  0  0  0  0
  141.4090   77.9710  221.9510 C   0  0  1  0  0  0  0  0  0  0  0  0
  141.8060   79.3450  221.4110 C   0  0  0  0  0  0  0  0  0  0  0  0
  142.1740   80.1940  222.5970 C   0  0  0  0  0  0  0  0  0  0  0  0
  141.4780   79.6870  223.8120 C   0  0  0  0  0  0  0  0  0  0  0  0
  140.1580   79.1950  223.5860 N   0  0  0  0  0  0  0  0  0  0  0  0
  139.2880   80.2760  223.1900 C   0  0  0  0  0  0  0  0  0  0  0  0
  138.3070   80.5360  224.3320 C   0  0  0  0  0  0  0  0  0  0  0  0
  137.2380   81.3610  223.6490 C   0  0  0  0  0  0  0  0  0  0  0  0
  137.1150   80.7430  222.2940 C   0  0  0  0  0  0  0  0  0  0  0  0
  138.3510   79.9060  222.0630 C   0  0  0  0  0  0  0  0  0  0  0  0
  140.1420   78.0390  222.7580 C   0  0  0  0  0  0  0  0  0  0  0  0
  142.1157   78.7056  219.7964 H   0  0  0  0  0  0  0  0  0  0  0  0
  142.4577   77.1511  218.9637 H   0  0  0  0  0  0  0  0  0  0  0  0
  140.7916   77.8224  218.9637 H   0  0  0  0  0  0  0  0  0  0  0  0
  142.1636   76.1866  221.1058 H   0  0  0  0  0  0  0  0  0  0  0  0
  139.4750   76.5210  220.0760 H   0  0  0  0  0  0  0  0  0  0  0  0
  138.4459   74.3803  220.1065 H   0  0  0  0  0  0  0  0  0  0  0  0
  138.8194   73.1455  221.3391 H   0  0  0  0  0  0  0  0  0  0  0  0
  137.3800   74.1620  222.7970 H   0  0  0  0  0  0  0  0  0  0  0  0
  136.0287   78.4857  222.1962 H   0  0  0  0  0  0  0  0  0  0  0  0
  134.3208   79.2335  223.8629 H   0  0  0  0  0  0  0  0  0  0  0  0
  132.9453   78.5874  225.8033 H   0  0  0  0  0  0  0  0  0  0  0  0
  133.1884   74.6104  227.4165 H   0  0  0  0  0  0  0  0  0  0  0  0
  134.9082   74.0120  225.6862 H   0  0  0  0  0  0  0  0  0  0  0  0
  142.1738   77.6312  222.6649 H   0  0  0  0  0  0  0  0  0  0  0  0
  142.6668   79.2501  220.7327 H   0  0  0  0  0  0  0  0  0  0  0  0
  140.9788   79.7984  220.8451 H   0  0  0  0  0  0  0  0  0  0  0  0
  143.2619   80.1511  222.7540 H   0  0  0  0  0  0  0  0  0  0  0  0
  141.8688   81.2340  222.4095 H   0  0  0  0  0  0  0  0  0  0  0  0
  142.0800   78.8690  224.2345 H   0  0  0  0  0  0  0  0  0  0  0  0
  141.3752   80.5468  224.4904 H   0  0  0  0  0  0  0  0  0  0  0  0
  139.9528   81.1069  222.9112 H   0  0  0  0  0  0  0  0  0  0  0  0
  137.8947   79.5955  224.7262 H   0  0  0  0  0  0  0  0  0  0  0  0
  138.7616   81.0328  225.2018 H   0  0  0  0  0  0  0  0  0  0  0  0
  136.2857   81.2970  224.1959 H   0  0  0  0  0  0  0  0  0  0  0  0
  137.4920   82.4304  223.6051 H   0  0  0  0  0  0  0  0  0  0  0  0
  136.2179   80.1079  222.2509 H   0  0  0  0  0  0  0  0  0  0  0  0
  137.0230   81.5199  221.5207 H   0  0  0  0  0  0  0  0  0  0  0  0
  138.1052   78.8345  222.1002 H   0  0  0  0  0  0  0  0  0  0  0  0
  138.7980   80.0917  221.0752 H   0  0  0  0  0  0  0  0  0  0  0  0
  140.0616   77.1404  223.3874 H   0  0  0  0  0  0  0  0  0  0  0  0
  139.2804   78.0933  222.0763 H   0  0  0  0  0  0  0  0  0  0  0  0
  1  2  1  0
  2  3  1  0
  3  4  1  0
  4  5  2  0
  4  6  1  0
  6  7  1  0
  7  8  1  0
  8  9  2  0
  8 10  1  0
 10 11  2  0
 11 12  1  0
 12 13  2  0
 13 14  1  0
 14 15  2  0
 15 16  1  0
 15 17  1  0
 17 18  2  0
 18 19  1  0
 19 20  2  0
  2 21  1  0
 21 22  1  0
 22 23  1  0
 23 24  1  0
 24 25  1  0
 25 26  1  0
 26 27  1  0
 27 28  1  0
 28 29  1  0
 29 30  1  0
 25 31  1  0
 20 10  1  0
 31 21  1  0
 19 13  1  0
 30 26  1  0
  1 32  1  0
  1 33  1  0
  1 34  1  0
  2 35  1  1
  3 36  1  0
  6 37  1  0
  6 38  1  0
  7 39  1  0
 11 40  1  0
 12 41  1  0
 14 42  1  0
 17 43  1  0
 18 44  1  0
 21 45  1  1
 22 46  1  0
 22 47  1  0
 23 48  1  0
 23 49  1  0
 24 50  1  0
 24 51  1  0
 26 52  1  0
 27 53  1  0
 27 54  1  0
 28 55  1  0
 28 56  1  0
 29 57  1  0
 29 58  1  0
 30 59  1  0
 30 60  1  0
 31 61  1  0
 31 62  1  0
M  END
>  <smiles>  (17) 
C[C@H](NC(=O)CNC(=O)c1ccc2cc(Cl)ccc2n1)[C@H]1CCCN(C2CCCC2)C1

>  <score_type>  (17) 
oracle

>  <origin>  (17) 
autodockgpu

>  <m_score__min__energy>  (17) 
-9.0800000000000001

>  <m_primary>  (17) 
energy

>  <rmsd>  (17) 
6.221962299878307

>  <m_score__min__rmsd>  (17) 
6.221962299878307

>  <meeko>  (17) 
{"free_energy": -6.98, "intermolecular_energy": -8.77, "internal_energy": -3.59, "cluster_size": 12, "cluster_id": 5, "rank_in_cluster": 10}

>  <energy>  (17) 
-8.52

>  <cluster_rmsd>  (17) 
1.57

>  <cluster>  (17) 
1

$$$$

     RDKit          3D

 62 65  0  0  0  0  0  0  0  0999 V2000
  141.2080   74.8200  220.5180 C   0  0  0  0  0  0  0  0  0  0  0  0
  140.4060   75.3710  221.7180 C   0  0  2  0  0  0  0  0  0  0  0  0
  139.2700   74.5680  221.9960 N   0  0  0  0  0  0  0  0  0  0  0  0
  138.2630   74.2450  221.0120 C   0  0  0  0  0  0  0  0  0  0  0  0
  138.3400   74.6700  219.8380 O   0  0  0  0  0  0  0  0  0  0  0  0
  137.1450   73.3880  221.5060 C   0  0  0  0  0  0  0  0  0  0  0  0
  137.6870   72.4790  222.4860 N   0  0  0  0  0  0  0  0  0  0  0  0
  138.0800   71.1590  222.2840 C   0  0  0  0  0  0  0  0  0  0  0  0
  137.9830   70.6210  221.1610 O   0  0  0  0  0  0  0  0  0  0  0  0
  138.6170   70.3860  223.4320 C   0  0  0  0  0  0  0  0  0  0  0  0
  138.4830   69.0180  223.4880 C   0  0  0  0  0  0  0  0  0  0  0  0
  138.9580   68.2510  224.5450 C   0  0  0  0  0  0  0  0  0  0  0  0
  139.5920   68.9590  225.5620 C   0  0  0  0  0  0  0  0  0  0  0  0
  140.1120   68.3060  226.6670 C   0  0  0  0  0  0  0  0  0  0  0  0
  140.7560   69.0100  227.6940 C   0  0  0  0  0  0  0  0  0  0  0  0
  141.4120   68.1630  229.0930 Cl  0  0  0  0  0  0  0  0  0  0  0  0
  140.8680   70.3810  227.5900 C   0  0  0  0  0  0  0  0  0  0  0  0
  140.3490   71.0700  226.4840 C   0  0  0  0  0  0  0  0  0  0  0  0
  139.7210   70.3230  225.4960 C   0  0  0  0  0  0  0  0  0  0  0  0
  139.2440   71.0550  224.4460 N   0  0  0  0  0  0  0  0  0  0  0  0
  140.1500   76.8190  221.4160 C   0  0  1  0  0  0  0  0  0  0  0  0
  139.0650   77.3850  222.3320 C   0  0  0  0  0  0  0  0  0  0  0  0
  138.5950   78.6730  221.7130 C   0  0  0  0  0  0  0  0  0  0  0  0
  139.6740   79.2440  220.8600 C   0  0  0  0  0  0  0  0  0  0  0  0
  140.9970   79.0600  221.3630 N   0  0  0  0  0  0  0  0  0  0  0  0
  141.1710   79.8100  222.5830 C   0  0  0  0  0  0  0  0  0  0  0  0
  141.6720   81.2050  222.2130 C   0  0  0  0  0  0  0  0  0  0  0  0
  142.1920   81.7160  223.5370 C   0  0  0  0  0  0  0  0  0  0  0  0
  142.8270   80.5180  224.1640 C   0  0  0  0  0  0  0  0  0  0  0  0
  142.3050   79.2980  223.4410 C   0  0  0  0  0  0  0  0  0  0  0  0
  141.3770   77.6890  221.4070 C   0  0  0  0  0  0  0  0  0  0  0  0
  142.0623   74.2331  220.8864 H   0  0  0  0  0  0  0  0  0  0  0  0
  140.5578   74.1770  219.9066 H   0  0  0  0  0  0  0  0  0  0  0  0
  141.5750   75.6576  219.9066 H   0  0  0  0  0  0  0  0  0  0  0  0
  140.9561   75.3200  222.6692 H   0  0  0  0  0  0  0  0  0  0  0  0
  139.1790   74.1910  222.9900 H   0  0  0  0  0  0  0  0  0  0  0  0
  136.3679   74.0154  221.9669 H   0  0  0  0  0  0  0  0  0  0  0  0
  136.6914   72.8302  220.6735 H   0  0  0  0  0  0  0  0  0  0  0  0
  137.7910   72.8820  223.4690 H   0  0  0  0  0  0  0  0  0  0  0  0
  137.9757   68.5069  222.6565 H   0  0  0  0  0  0  0  0  0  0  0  0
  138.8408   67.1577  224.5759 H   0  0  0  0  0  0  0  0  0  0  0  0
  140.0178   67.2125  226.7403 H   0  0  0  0  0  0  0  0  0  0  0  0
  141.3733   70.9439  228.3886 H   0  0  0  0  0  0  0  0  0  0  0  0
  140.4363   72.1635  226.4021 H   0  0  0  0  0  0  0  0  0  0  0  0
  139.7885   76.8398  220.3773 H   0  0  0  0  0  0  0  0  0  0  0  0
  138.2280   76.6755  222.4094 H   0  0  0  0  0  0  0  0  0  0  0  0
  139.4568   77.5564  223.3454 H   0  0  0  0  0  0  0  0  0  0  0  0
  137.7055   78.4786  221.0958 H   0  0  0  0  0  0  0  0  0  0  0  0
  138.3434   79.3889  222.5093 H   0  0  0  0  0  0  0  0  0  0  0  0
  139.6153   78.7680  219.8701 H   0  0  0  0  0  0  0  0  0  0  0  0
  139.5027   80.3302  220.8310 H   0  0  0  0  0  0  0  0  0  0  0  0
  140.2056   79.7551  223.1074 H   0  0  0  0  0  0  0  0  0  0  0  0
  142.4738   81.1550  221.4615 H   0  0  0  0  0  0  0  0  0  0  0  0
  140.9008   81.8473  221.7627 H   0  0  0  0  0  0  0  0  0  0  0  0
  142.9320   82.5154  223.3840 H   0  0  0  0  0  0  0  0  0  0  0  0
  141.3991   82.1508  224.1633 H   0  0  0  0  0  0  0  0  0  0  0  0
  143.9207   80.5758  224.0621 H   0  0  0  0  0  0  0  0  0  0  0  0
  142.5849   80.4669  225.2358 H   0  0  0  0  0  0  0  0  0  0  0  0
  143.0926   78.8522  222.8157 H   0  0  0  0  0  0  0  0  0  0  0  0
  141.9754   78.5132  224.1377 H   0  0  0  0  0  0  0  0  0  0  0  0
  141.9868   77.4508  220.5231 H   0  0  0  0  0  0  0  0  0  0  0  0
  141.9599   77.5034  222.3212 H   0  0  0  0  0  0  0  0  0  0  0  0
  1  2  1  0
  2  3  1  0
  3  4  1  0
  4  5  2  0
  4  6  1  0
  6  7  1  0
  7  8  1  0
  8  9  2  0
  8 10  1  0
 10 11  2  0
 11 12  1  0
 12 13  2  0
 13 14  1  0
 14 15  2  0
 15 16  1  0
 15 17  1  0
 17 18  2  0
 18 19  1  0
 19 20  2  0
  2 21  1  0
 21 22  1  0
 22 23  1  0
 23 24  1  0
 24 25  1  0
 25 26  1  0
 26 27  1  0
 27 28  1  0
 28 29  1  0
 29 30  1  0
 25 31  1  0
 20 10  1  0
 31 21  1  0
 19 13  1  0
 30 26  1  0
  1 32  1  0
  1 33  1  0
  1 34  1  0
  2 35  1  1
  3 36  1  0
  6 37  1  0
  6 38  1  0
  7 39  1  0
 11 40  1  0
 12 41  1  0
 14 42  1  0
 17 43  1  0
 18 44  1  0
 21 45  1  6
 22 46  1  0
 22 47  1  0
 23 48  1  0
 23 49  1  0
 24 50  1  0
 24 51  1  0
 26 52  1  0
 27 53  1  0
 27 54  1  0
 28 55  1  0
 28 56  1  0
 29 57  1  0
 29 58  1  0
 30 59  1  0
 30 60  1  0
 31 61  1  0
 31 62  1  0
M  END
>  <smiles>  (18) 
C[C@H](NC(=O)CNC(=O)c1ccc2cc(Cl)ccc2n1)[C@H]1CCCN(C2CCCC2)C1

>  <score_type>  (18) 
oracle

>  <origin>  (18) 
autodockgpu

>  <m_score__min__energy>  (18) 
-9.0800000000000001

>  <m_primary>  (18) 
energy

>  <rmsd>  (18) 
4.6436076761811815

>  <m_score__min__rmsd>  (18) 
4.6436076761811815

>  <meeko>  (18) 
{"free_energy": -8.91, "intermolecular_energy": -10.7, "internal_energy": -1.83, "cluster_size": 28, "cluster_id": 1, "rank_in_cluster": 6}

>  <energy>  (18) 
-8.51

>  <cluster_rmsd>  (18) 
1.42

>  <cluster>  (18) 
1

$$$$

     RDKit          3D

 62 65  0  0  0  0  0  0  0  0999 V2000
  134.9900   70.3190  224.6380 C   0  0  0  0  0  0  0  0  0  0  0  0
  136.2010   71.2080  224.2760 C   0  0  2  0  0  0  0  0  0  0  0  0
  135.8630   72.1710  223.2910 N   0  0  0  0  0  0  0  0  0  0  0  0
  134.7870   73.1230  223.4440 C   0  0  0  0  0  0  0  0  0  0  0  0
  134.0790   73.1460  224.4750 O   0  0  0  0  0  0  0  0  0  0  0  0
  134.5930   74.0500  222.2900 C   0  0  0  0  0  0  0  0  0  0  0  0
  135.4950   75.1610  222.4610 N   0  0  0  0  0  0  0  0  0  0  0  0
  136.8840   75.1400  222.3690 C   0  0  0  0  0  0  0  0  0  0  0  0
  137.4990   74.0830  222.1170 O   0  0  0  0  0  0  0  0  0  0  0  0
  137.6370   76.4030  222.5800 C   0  0  0  0  0  0  0  0  0  0  0  0
  136.9780   77.5880  222.8140 C   0  0  0  0  0  0  0  0  0  0  0  0
  137.6350   78.7970  223.0070 C   0  0  0  0  0  0  0  0  0  0  0  0
  139.0250   78.7390  222.9500 C   0  0  0  0  0  0  0  0  0  0  0  0
  139.7930   79.8780  223.1310 C   0  0  0  0  0  0  0  0  0  0  0  0
  141.1930   79.8280  223.0810 C   0  0  0  0  0  0  0  0  0  0  0  0
  142.1540   81.2870  223.3130 Cl  0  0  0  0  0  0  0  0  0  0  0  0
  141.8060   78.6160  222.8460 C   0  0  0  0  0  0  0  0  0  0  0  0
  141.0550   77.4460  222.6580 C   0  0  0  0  0  0  0  0  0  0  0  0
  139.6710   77.5520  222.7170 C   0  0  0  0  0  0  0  0  0  0  0  0
  139.0020   76.3770  222.5300 N   0  0  0  0  0  0  0  0  0  0  0  0
  137.3210   70.2650  223.9420 C   0  0  1  0  0  0  0  0  0  0  0  0
  138.6030   71.0330  223.6210 C   0  0  0  0  0  0  0  0  0  0  0  0
  139.5270   70.0740  222.9210 C   0  0  0  0  0  0  0  0  0  0  0  0
  139.1910   68.6770  223.3140 C   0  0  0  0  0  0  0  0  0  0  0  0
  138.7860   68.5170  224.6730 N   0  0  0  0  0  0  0  0  0  0  0  0
  139.8910   68.8030  225.5560 C   0  0  0  0  0  0  0  0  0  0  0  0
  140.1110   67.5830  226.4480 C   0  0  0  0  0  0  0  0  0  0  0  0
  140.9730   68.1500  227.5530 C   0  0  0  0  0  0  0  0  0  0  0  0
  140.4160   69.5170  227.7820 C   0  0  0  0  0  0  0  0  0  0  0  0
  139.5780   69.8730  226.5760 C   0  0  0  0  0  0  0  0  0  0  0  0
  137.5630   69.1850  224.9590 C   0  0  0  0  0  0  0  0  0  0  0  0
  134.8985   70.2518  225.7321 H   0  0  0  0  0  0  0  0  0  0  0  0
  134.0732   70.7602  224.2198 H   0  0  0  0  0  0  0  0  0  0  0  0
  135.1362   69.3122  224.2198 H   0  0  0  0  0  0  0  0  0  0  0  0
  136.5371   71.8460  225.1067 H   0  0  0  0  0  0  0  0  0  0  0  0
  136.4510   72.1750  222.4010 H   0  0  0  0  0  0  0  0  0  0  0  0
  134.8173   73.5274  221.3484 H   0  0  0  0  0  0  0  0  0  0  0  0
  133.5518   74.4028  222.2513 H   0  0  0  0  0  0  0  0  0  0  0  0
  135.0280   76.0950  222.6820 H   0  0  0  0  0  0  0  0  0  0  0  0
  135.8786   77.5777  222.8500 H   0  0  0  0  0  0  0  0  0  0  0  0
  137.0936   79.7364  223.1923 H   0  0  0  0  0  0  0  0  0  0  0  0
  139.2942   80.8405  223.3176 H   0  0  0  0  0  0  0  0  0  0  0  0
  142.9041   78.5652  222.8051 H   0  0  0  0  0  0  0  0  0  0  0  0
  141.5446   76.4790  222.4705 H   0  0  0  0  0  0  0  0  0  0  0  0
  136.9892   69.7269  223.0418 H   0  0  0  0  0  0  0  0  0  0  0  0
  138.3776   71.8870  222.9653 H   0  0  0  0  0  0  0  0  0  0  0  0
  139.0659   71.4249  224.5387 H   0  0  0  0  0  0  0  0  0  0  0  0
  139.4134   70.1852  221.8326 H   0  0  0  0  0  0  0  0  0  0  0  0
  140.5660   70.2936  223.2079 H   0  0  0  0  0  0  0  0  0  0  0  0
  138.3706   68.3285  222.6695 H   0  0  0  0  0  0  0  0  0  0  0  0
  140.1152   68.0922  223.1961 H   0  0  0  0  0  0  0  0  0  0  0  0
  140.7270   69.0944  224.9032 H   0  0  0  0  0  0  0  0  0  0  0  0
  139.1583   67.1993  226.8418 H   0  0  0  0  0  0  0  0  0  0  0  0
  140.5664   66.7289  225.9254 H   0  0  0  0  0  0  0  0  0  0  0  0
  140.8936   67.5381  228.4636 H   0  0  0  0  0  0  0  0  0  0  0  0
  142.0409   68.1671  227.2898 H   0  0  0  0  0  0  0  0  0  0  0  0
  139.7919   69.5215  228.6878 H   0  0  0  0  0  0  0  0  0  0  0  0
  141.2264   70.2478  227.9204 H   0  0  0  0  0  0  0  0  0  0  0  0
  138.5081   69.8631  226.8315 H   0  0  0  0  0  0  0  0  0  0  0  0
  139.8014   70.8822  226.1996 H   0  0  0  0  0  0  0  0  0  0  0  0
  136.7355   68.4610  224.9264 H   0  0  0  0  0  0  0  0  0  0  0  0
  137.6221   69.6366  225.9603 H   0  0  0  0  0  0  0  0  0  0  0  0
  1  2  1  0
  2  3  1  0
  3  4  1  0
  4  5  2  0
  4  6  1  0
  6  7  1  0
  7  8  1  0
  8  9  2  0
  8 10  1  0
 10 11  2  0
 11 12  1  0
 12 13  2  0
 13 14  1  0
 14 15  2  0
 15 16  1  0
 15 17  1  0
 17 18  2  0
 18 19  1  0
 19 20  2  0
  2 21  1  0
 21 22  1  0
 22 23  1  0
 23 24  1  0
 24 25  1  0
 25 26  1  0
 26 27  1  0
 27 28  1  0
 28 29  1  0
 29 30  1  0
 25 31  1  0
 20 10  1  0
 31 21  1  0
 19 13  1  0
 30 26  1  0
  1 32  1  0
  1 33  1  0
  1 34  1  0
  2 35  1  1
  3 36  1  0
  6 37  1  0
  6 38  1  0
  7 39  1  0
 11 40  1  0
 12 41  1  0
 14 42  1  0
 17 43  1  0
 18 44  1  0
 21 45  1  6
 22 46  1  0
 22 47  1  0
 23 48  1  0
 23 49  1  0
 24 50  1  0
 24 51  1  0
 26 52  1  0
 27 53  1  0
 27 54  1  0
 28 55  1  0
 28 56  1  0
 29 57  1  0
 29 58  1  0
 30 59  1  0
 30 60  1  0
 31 61  1  0
 31 62  1  0
M  END
>  <smiles>  (19) 
C[C@H](NC(=O)CNC(=O)c1ccc2cc(Cl)ccc2n1)[C@H]1CCCN(C2CCCC2)C1

>  <score_type>  (19) 
oracle

>  <origin>  (19) 
autodockgpu

>  <m_score__min__energy>  (19) 
-9.0800000000000001

>  <m_primary>  (19) 
energy

>  <rmsd>  (19) 
9.812059023237266

>  <m_score__min__rmsd>  (19) 
9.812059023237266

>  <meeko>  (19) 
{"free_energy": -7.38, "intermolecular_energy": -9.17, "internal_energy": -2.12, "cluster_size": 3, "cluster_id": 3, "rank_in_cluster": 3}

>  <energy>  (19) 
-8.5

>  <cluster_rmsd>  (19) 
1.6

>  <cluster>  (19) 
1

$$$$

     RDKit          3D

 62 65  0  0  0  0  0  0  0  0999 V2000
  135.8480   77.5450  222.1070 C   0  0  0  0  0  0  0  0  0  0  0  0
  136.9270   78.0850  221.1420 C   0  0  2  0  0  0  0  0  0  0  0  0
  137.8830   77.0870  220.8220 N   0  0  0  0  0  0  0  0  0  0  0  0
  138.5420   76.2680  221.8140 C   0  0  0  0  0  0  0  0  0  0  0  0
  138.3000   76.4010  223.0330 O   0  0  0  0  0  0  0  0  0  0  0  0
  139.5170   75.2760  221.2700 C   0  0  0  0  0  0  0  0  0  0  0  0
  139.5780   74.1680  222.1900 N   0  0  0  0  0  0  0  0  0  0  0  0
  140.1010   72.9010  221.9480 C   0  0  0  0  0  0  0  0  0  0  0  0
  140.5900   72.6040  220.8380 O   0  0  0  0  0  0  0  0  0  0  0  0
  140.0700   71.8920  223.0370 C   0  0  0  0  0  0  0  0  0  0  0  0
  139.5220   70.6470  222.8310 C   0  0  0  0  0  0  0  0  0  0  0  0
  139.4570   69.6720  223.8190 C   0  0  0  0  0  0  0  0  0  0  0  0
  139.9920   70.0330  225.0520 C   0  0  0  0  0  0  0  0  0  0  0  0
  139.9910   69.1450  226.1160 C   0  0  0  0  0  0  0  0  0  0  0  0
  140.5310   69.4990  227.3600 C   0  0  0  0  0  0  0  0  0  0  0  0
  140.5210   68.3570  228.7020 Cl  0  0  0  0  0  0  0  0  0  0  0  0
  141.0710   70.7580  227.5160 C   0  0  0  0  0  0  0  0  0  0  0  0
  141.0850   71.6780  226.4580 C   0  0  0  0  0  0  0  0  0  0  0  0
  140.5360   71.2770  225.2470 C   0  0  0  0  0  0  0  0  0  0  0  0
  140.5860   72.2180  224.2600 N   0  0  0  0  0  0  0  0  0  0  0  0
  137.4510   79.3450  221.7690 C   0  0  1  0  0  0  0  0  0  0  0  0
  137.2820   79.3100  223.2880 C   0  0  0  0  0  0  0  0  0  0  0  0
  137.4450   80.7230  223.7800 C   0  0  0  0  0  0  0  0  0  0  0  0
  138.2770   81.4970  222.8170 C   0  0  0  0  0  0  0  0  0  0  0  0
  139.3350   80.7580  222.2090 N   0  0  0  0  0  0  0  0  0  0  0  0
  140.3160   80.3900  223.2010 C   0  0  0  0  0  0  0  0  0  0  0  0
  141.6150   81.1260  222.8770 C   0  0  0  0  0  0  0  0  0  0  0  0
  142.6260   80.3610  223.7000 C   0  0  0  0  0  0  0  0  0  0  0  0
  142.1830   78.9380  223.5880 C   0  0  0  0  0  0  0  0  0  0  0  0
  140.7520   78.9460  223.1020 C   0  0  0  0  0  0  0  0  0  0  0  0
  138.8570   79.7070  221.3770 C   0  0  0  0  0  0  0  0  0  0  0  0
  136.1712   77.7067  223.1459 H   0  0  0  0  0  0  0  0  0  0  0  0
  134.9003   78.0751  221.9311 H   0  0  0  0  0  0  0  0  0  0  0  0
  135.7043   76.4687  221.9311 H   0  0  0  0  0  0  0  0  0  0  0  0
  136.5323   78.3453  220.1488 H   0  0  0  0  0  0  0  0  0  0  0  0
  138.1090   76.9500  219.7880 H   0  0  0  0  0  0  0  0  0  0  0  0
  139.1820   74.9247  220.2829 H   0  0  0  0  0  0  0  0  0  0  0  0
  140.5098   75.7358  221.1560 H   0  0  0  0  0  0  0  0  0  0  0  0
  139.1730   74.3600  223.1590 H   0  0  0  0  0  0  0  0  0  0  0  0
  139.1157   70.4120  221.8362 H   0  0  0  0  0  0  0  0  0  0  0  0
  139.0128   68.6820  223.6387 H   0  0  0  0  0  0  0  0  0  0  0  0
  139.5579   68.1428  225.9816 H   0  0  0  0  0  0  0  0  0  0  0  0
  141.4984   71.0458  228.4878 H   0  0  0  0  0  0  0  0  0  0  0  0
  141.5158   72.6824  226.5828 H   0  0  0  0  0  0  0  0  0  0  0  0
  136.8309   80.1551  221.3576 H   0  0  0  0  0  0  0  0  0  0  0  0
  136.2824   78.9319  223.5485 H   0  0  0  0  0  0  0  0  0  0  0  0
  138.0252   78.6442  223.7511 H   0  0  0  0  0  0  0  0  0  0  0  0
  136.4556   81.1952  223.8703 H   0  0  0  0  0  0  0  0  0  0  0  0
  137.9400   80.7119  224.7623 H   0  0  0  0  0  0  0  0  0  0  0  0
  137.6182   81.8702  222.0191 H   0  0  0  0  0  0  0  0  0  0  0  0
  138.7550   82.2998  223.3976 H   0  0  0  0  0  0  0  0  0  0  0  0
  139.8533   80.6103  224.1743 H   0  0  0  0  0  0  0  0  0  0  0  0
  141.8490   81.0694  221.8037 H   0  0  0  0  0  0  0  0  0  0  0  0
  141.5826   82.2019  223.1039 H   0  0  0  0  0  0  0  0  0  0  0  0
  143.6393   80.4882  223.2912 H   0  0  0  0  0  0  0  0  0  0  0  0
  142.6724   80.7086  224.7426 H   0  0  0  0  0  0  0  0  0  0  0  0
  142.8207   78.4013  222.8702 H   0  0  0  0  0  0  0  0  0  0  0  0
  142.2595   78.4301  224.5607 H   0  0  0  0  0  0  0  0  0  0  0  0
  140.6948   78.5949  222.0611 H   0  0  0  0  0  0  0  0  0  0  0  0
  140.1096   78.2778  223.6944 H   0  0  0  0  0  0  0  0  0  0  0  0
  138.8698   80.0375  220.3279 H   0  0  0  0  0  0  0  0  0  0  0  0
  139.5051   78.8263  221.4967 H   0  0  0  0  0  0  0  0  0  0  0  0
  1  2  1  0
  2  3  1  0
  3  4  1  0
  4  5  2  0
  4  6  1  0
  6  7  1  0
  7  8  1  0
  8  9  2  0
  8 10  1  0
 10 11  2  0
 11 12  1  0
 12 13  2  0
 13 14  1  0
 14 15  2  0
 15 16  1  0
 15 17  1  0
 17 18  2  0
 18 19  1  0
 19 20  2  0
  2 21  1  0
 21 22  1  0
 22 23  1  0
 23 24  1  0
 24 25  1  0
 25 26  1  0
 26 27  1  0
 27 28  1  0
 28 29  1  0
 29 30  1  0
 25 31  1  0
 20 10  1  0
 31 21  1  0
 19 13  1  0
 30 26  1  0
  1 32  1  0
  1 33  1  0
  1 34  1  0
  2 35  1  6
  3 36  1  0
  6 37  1  0
  6 38  1  0
  7 39  1  0
 11 40  1  0
 12 41  1  0
 14 42  1  0
 17 43  1  0
 18 44  1  0
 21 45  1  6
 22 46  1  0
 22 47  1  0
 23 48  1  0
 23 49  1  0
 24 50  1  0
 24 51  1  0
 26 52  1  0
 27 53  1  0
 27 54  1  0
 28 55  1  0
 28 56  1  0
 29 57  1  0
 29 58  1  0
 30 59  1  0
 30 60  1  0
 31 61  1  0
 31 62  1  0
M  END
>  <smiles>  (20) 
C[C@H](NC(=O)CNC(=O)c1ccc2cc(Cl)ccc2n1)[C@H]1CCCN(C2CCCC2)C1

>  <score_type>  (20) 
oracle

>  <origin>  (20) 
autodockgpu

>  <m_score__min__energy>  (20) 
-9.0800000000000001

>  <m_primary>  (20) 
energy

>  <rmsd>  (20) 
4.362791676258085

>  <m_score__min__rmsd>  (20) 
4.362791676258085

>  <meeko>  (20) 
{"free_energy": -8.49, "intermolecular_energy": -10.28, "internal_energy": -2.29, "cluster_size": 28, "cluster_id": 1, "rank_in_cluster": 20}

>  <energy>  (20) 
-8.49

>  <cluster_rmsd>  (20) 
1.59

>  <cluster>  (20) 
1

$$$$

     RDKit          3D

 62 65  0  0  0  0  0  0  0  0999 V2000
  134.5130   69.7520  223.0560 C   0  0  0  0  0  0  0  0  0  0  0  0
  135.7040   70.5620  223.6140 C   0  0  2  0  0  0  0  0  0  0  0  0
  135.8720   71.7860  222.9160 N   0  0  0  0  0  0  0  0  0  0  0  0
  135.7920   73.0820  223.5500 C   0  0  0  0  0  0  0  0  0  0  0  0
  135.5610   73.1950  224.7730 O   0  0  0  0  0  0  0  0  0  0  0  0
  135.9970   74.2460  222.6380 C   0  0  0  0  0  0  0  0  0  0  0  0
  137.4010   74.3170  222.3220 N   0  0  0  0  0  0  0  0  0  0  0  0
  138.0820   73.5940  221.3470 C   0  0  0  0  0  0  0  0  0  0  0  0
  137.4890   72.7670  220.6220 O   0  0  0  0  0  0  0  0  0  0  0  0
  139.5410   73.8140  221.1770 C   0  0  0  0  0  0  0  0  0  0  0  0
  140.0550   75.0840  221.0520 C   0  0  0  0  0  0  0  0  0  0  0  0
  141.4090   75.3430  220.8800 C   0  0  0  0  0  0  0  0  0  0  0  0
  142.2330   74.2220  220.8440 C   0  0  0  0  0  0  0  0  0  0  0  0
  143.6030   74.3490  220.6820 C   0  0  0  0  0  0  0  0  0  0  0  0
  144.4410   73.2260  220.6490 C   0  0  0  0  0  0  0  0  0  0  0  0
  146.1810   73.4080  220.4420 Cl  0  0  0  0  0  0  0  0  0  0  0  0
  143.8780   71.9740  220.7810 C   0  0  0  0  0  0  0  0  0  0  0  0
  142.4950   71.8130  220.9450 C   0  0  0  0  0  0  0  0  0  0  0  0
  141.7110   72.9590  220.9700 C   0  0  0  0  0  0  0  0  0  0  0  0
  140.3750   72.7310  221.1370 N   0  0  0  0  0  0  0  0  0  0  0  0
  136.8760   69.6230  223.6210 C   0  0  1  0  0  0  0  0  0  0  0  0
  137.9970   70.1420  222.7200 C   0  0  0  0  0  0  0  0  0  0  0  0
  138.9270   68.9870  222.4680 C   0  0  0  0  0  0  0  0  0  0  0  0
  138.8260   68.0070  223.5840 C   0  0  0  0  0  0  0  0  0  0  0  0
  138.6340   68.5850  224.8750 N   0  0  0  0  0  0  0  0  0  0  0  0
  139.8060   69.3350  225.2600 C   0  0  0  0  0  0  0  0  0  0  0  0
  140.0990   69.0320  226.7280 C   0  0  0  0  0  0  0  0  0  0  0  0
  141.0460   70.1510  227.0990 C   0  0  0  0  0  0  0  0  0  0  0  0
  140.5050   71.3380  226.3720 C   0  0  0  0  0  0  0  0  0  0  0  0
  139.5730   70.8280  225.2980 C   0  0  0  0  0  0  0  0  0  0  0  0
  137.3880   69.2630  224.9890 C   0  0  0  0  0  0  0  0  0  0  0  0
  133.9205   69.3490  223.8906 H   0  0  0  0  0  0  0  0  0  0  0  0
  133.8801   70.4077  222.4400 H   0  0  0  0  0  0  0  0  0  0  0  0
  134.8903   68.9224  222.4400 H   0  0  0  0  0  0  0  0  0  0  0  0
  135.5487   70.9110  224.6455 H   0  0  0  0  0  0  0  0  0  0  0  0
  136.0720   71.7190  221.8700 H   0  0  0  0  0  0  0  0  0  0  0  0
  135.4128   74.1066  221.7165 H   0  0  0  0  0  0  0  0  0  0  0  0
  135.6649   75.1762  223.1222 H   0  0  0  0  0  0  0  0  0  0  0  0
  137.9650   75.0050  222.9110 H   0  0  0  0  0  0  0  0  0  0  0  0
  139.3600   75.9358  221.0901 H   0  0  0  0  0  0  0  0  0  0  0  0
  141.8032   76.3650  220.7791 H   0  0  0  0  0  0  0  0  0  0  0  0
  144.0422   75.3520  220.5771 H   0  0  0  0  0  0  0  0  0  0  0  0
  144.5259   71.0854  220.7572 H   0  0  0  0  0  0  0  0  0  0  0  0
  142.0466   70.8141  221.0502 H   0  0  0  0  0  0  0  0  0  0  0  0
  136.4938   68.6771  223.2097 H   0  0  0  0  0  0  0  0  0  0  0  0
  137.5800   70.5060  221.7694 H   0  0  0  0  0  0  0  0  0  0  0  0
  138.5291   70.9785  223.1967 H   0  0  0  0  0  0  0  0  0  0  0  0
  138.6511   68.4950  221.5236 H   0  0  0  0  0  0  0  0  0  0  0  0
  139.9601   69.3593  222.4033 H   0  0  0  0  0  0  0  0  0  0  0  0
  137.9754   67.3407  223.3779 H   0  0  0  0  0  0  0  0  0  0  0  0
  139.7915   67.4812  223.6216 H   0  0  0  0  0  0  0  0  0  0  0  0
  140.5866   69.0629  224.5343 H   0  0  0  0  0  0  0  0  0  0  0  0
  139.1817   69.0678  227.3340 H   0  0  0  0  0  0  0  0  0  0  0  0
  140.5125   68.0271  226.8987 H   0  0  0  0  0  0  0  0  0  0  0  0
  141.0419   70.3226  228.1855 H   0  0  0  0  0  0  0  0  0  0  0  0
  142.0894   69.9293  226.8303 H   0  0  0  0  0  0  0  0  0  0  0  0
  139.9548   71.9867  227.0695 H   0  0  0  0  0  0  0  0  0  0  0  0
  141.3222   71.9255  225.9282 H   0  0  0  0  0  0  0  0  0  0  0  0
  138.5269   71.0503  225.5555 H   0  0  0  0  0  0  0  0  0  0  0  0
  139.7635   71.3024  224.3240 H   0  0  0  0  0  0  0  0  0  0  0  0
  136.6604   68.6078  225.4904 H   0  0  0  0  0  0  0  0  0  0  0  0
  137.5273   70.1817  225.5777 H   0  0  0  0  0  0  0  0  0  0  0  0
  1  2  1  0
  2  3  1  0
  3  4  1  0
  4  5  2  0
  4  6  1  0
  6  7  1  0
  7  8  1  0
  8  9  2  0
  8 10  1  0
 10 11  2  0
 11 12  1  0
 12 13  2  0
 13 14  1  0
 14 15  2  0
 15 16  1  0
 15 17  1  0
 17 18  2  0
 18 19  1  0
 19 20  2  0
  2 21  1  0
 21 22  1  0
 22 23  1  0
 23 24  1  0
 24 25  1  0
 25 26  1  0
 26 27  1  0
 27 28  1  0
 28 29  1  0
 29 30  1  0
 25 31  1  0
 20 10  1  0
 31 21  1  0
 19 13  1  0
 30 26  1  0
  1 32  1  0
  1 33  1  0
  1 34  1  0
  2 35  1  1
  3 36  1  0
  6 37  1  0
  6 38  1  0
  7 39  1  0
 11 40  1  0
 12 41  1  0
 14 42  1  0
 17 43  1  0
 18 44  1  0
 21 45  1  6
 22 46  1  0
 22 47  1  0
 23 48  1  0
 23 49  1  0
 24 50  1  0
 24 51  1  0
 26 52  1  0
 27 53  1  0
 27 54  1  0
 28 55  1  0
 28 56  1  0
 29 57  1  0
 29 58  1  0
 30 59  1  0
 30 60  1  0
 31 61  1  0
 31 62  1  0
M  END
>  <smiles>  (21) 
C[C@H](NC(=O)CNC(=O)c1ccc2cc(Cl)ccc2n1)[C@H]1CCCN(C2CCCC2)C1

>  <score_type>  (21) 
oracle

>  <origin>  (21) 
autodockgpu

>  <m_score__min__energy>  (21) 
-9.0800000000000001

>  <m_primary>  (21) 
energy

>  <rmsd>  (21) 
9.378909301332012

>  <m_score__min__rmsd>  (21) 
9.378909301332012

>  <meeko>  (21) 
{"free_energy": -6.91, "intermolecular_energy": -8.7, "internal_energy": -2.79, "cluster_size": 1, "cluster_id": 7, "rank_in_cluster": 1}

>  <energy>  (21) 
-8.34

>  <cluster_rmsd>  (21) 
1.33

>  <cluster>  (21) 
1

$$$$

     RDKit          3D

 62 65  0  0  0  0  0  0  0  0999 V2000
  141.0610   78.7160  219.2840 C   0  0  0  0  0  0  0  0  0  0  0  0
  141.2910   77.6860  220.4130 C   0  0  2  0  0  0  0  0  0  0  0  0
  140.3040   76.6670  220.3960 N   0  0  0  0  0  0  0  0  0  0  0  0
  140.3740   75.4780  221.2140 C   0  0  0  0  0  0  0  0  0  0  0  0
  141.3300   75.2790  221.9940 O   0  0  0  0  0  0  0  0  0  0  0  0
  139.2350   74.5270  221.0470 C   0  0  0  0  0  0  0  0  0  0  0  0
  139.3840   73.4830  222.0290 N   0  0  0  0  0  0  0  0  0  0  0  0
  138.8110   72.2150  222.0040 C   0  0  0  0  0  0  0  0  0  0  0  0
  138.0690   71.8590  221.0640 O   0  0  0  0  0  0  0  0  0  0  0  0
  139.0910   71.2780  223.1210 C   0  0  0  0  0  0  0  0  0  0  0  0
  138.6240   69.9840  223.0930 C   0  0  0  0  0  0  0  0  0  0  0  0
  138.8490   69.0720  224.1180 C   0  0  0  0  0  0  0  0  0  0  0  0
  139.5900   69.5520  225.1940 C   0  0  0  0  0  0  0  0  0  0  0  0
  139.8840   68.7370  226.2750 C   0  0  0  0  0  0  0  0  0  0  0  0
  140.6340   69.2100  227.3610 C   0  0  0  0  0  0  0  0  0  0  0  0
  140.9990   68.1600  228.7270 Cl  0  0  0  0  0  0  0  0  0  0  0  0
  141.0820   70.5140  227.3410 C   0  0  0  0  0  0  0  0  0  0  0  0
  140.7980   71.3630  226.2610 C   0  0  0  0  0  0  0  0  0  0  0  0
  140.0510   70.8440  225.2110 C   0  0  0  0  0  0  0  0  0  0  0  0
  139.8160   71.7210  224.1920 N   0  0  0  0  0  0  0  0  0  0  0  0
  141.4170   78.4820  221.6800 C   0  0  1  0  0  0  0  0  0  0  0  0
  141.8430   79.9200  221.3830 C   0  0  0  0  0  0  0  0  0  0  0  0
  142.3280   80.5110  222.6780 C   0  0  0  0  0  0  0  0  0  0  0  0
  141.6910   79.8040  223.8230 C   0  0  0  0  0  0  0  0  0  0  0  0
  140.3360   79.4110  223.6060 N   0  0  0  0  0  0  0  0  0  0  0  0
  139.4950   80.5770  223.4880 C   0  0  0  0  0  0  0  0  0  0  0  0
  138.4210   80.4970  224.5710 C   0  0  0  0  0  0  0  0  0  0  0  0
  137.4070   81.5100  224.0870 C   0  0  0  0  0  0  0  0  0  0  0  0
  137.4010   81.3350  222.6030 C   0  0  0  0  0  0  0  0  0  0  0  0
  138.6580   80.5840  222.2290 C   0  0  0  0  0  0  0  0  0  0  0  0
  140.2100   78.4370  222.5760 C   0  0  0  0  0  0  0  0  0  0  0  0
  140.8413   79.6998  219.7244 H   0  0  0  0  0  0  0  0  0  0  0  0
  141.9655   78.7864  218.6620 H   0  0  0  0  0  0  0  0  0  0  0  0
  140.2124   78.3949  218.6620 H   0  0  0  0  0  0  0  0  0  0  0  0
  142.2163   77.1041  220.2898 H   0  0  0  0  0  0  0  0  0  0  0  0
  139.4760   76.8110  219.7400 H   0  0  0  0  0  0  0  0  0  0  0  0
  138.2820   75.0538  221.2028 H   0  0  0  0  0  0  0  0  0  0  0  0
  139.2352   74.1023  220.0323 H   0  0  0  0  0  0  0  0  0  0  0  0
  140.0070   73.7290  222.8610 H   0  0  0  0  0  0  0  0  0  0  0  0
  138.0448   69.6553  222.2175 H   0  0  0  0  0  0  0  0  0  0  0  0
  138.4673   68.0410  224.0811 H   0  0  0  0  0  0  0  0  0  0  0  0
  139.5219   67.6983  226.2814 H   0  0  0  0  0  0  0  0  0  0  0  0
  141.6726   70.8953  228.1871 H   0  0  0  0  0  0  0  0  0  0  0  0
  141.1544   72.4035  226.2461 H   0  0  0  0  0  0  0  0  0  0  0  0
  142.2106   77.9852  222.2574 H   0  0  0  0  0  0  0  0  0  0  0  0
  142.6519   79.9281  220.6376 H   0  0  0  0  0  0  0  0  0  0  0  0
  141.0032   80.5022  220.9759 H   0  0  0  0  0  0  0  0  0  0  0  0
  143.4206   80.4017  222.7431 H   0  0  0  0  0  0  0  0  0  0  0  0
  142.0602   81.5773  222.7142 H   0  0  0  0  0  0  0  0  0  0  0  0
  142.2794   78.8995  224.0366 H   0  0  0  0  0  0  0  0  0  0  0  0
  141.6754   80.5196  224.6583 H   0  0  0  0  0  0  0  0  0  0  0  0
  140.1748   81.4408  223.5303 H   0  0  0  0  0  0  0  0  0  0  0  0
  137.9837   79.4892  224.6260 H   0  0  0  0  0  0  0  0  0  0  0  0
  138.7985   80.6980  225.5844 H   0  0  0  0  0  0  0  0  0  0  0  0
  136.4131   81.3008  224.5094 H   0  0  0  0  0  0  0  0  0  0  0  0
  137.6565   82.5373  224.3911 H   0  0  0  0  0  0  0  0  0  0  0  0
  136.5148   80.7602  222.2962 H   0  0  0  0  0  0  0  0  0  0  0  0
  137.3684   82.3116  222.0979 H   0  0  0  0  0  0  0  0  0  0  0  0
  138.4173   79.5566  221.9184 H   0  0  0  0  0  0  0  0  0  0  0  0
  139.1844   81.0518  221.3840 H   0  0  0  0  0  0  0  0  0  0  0  0
  140.1276   77.4372  223.0273 H   0  0  0  0  0  0  0  0  0  0  0  0
  139.3093   78.6517  221.9821 H   0  0  0  0  0  0  0  0  0  0  0  0
  1  2  1  0
  2  3  1  0
  3  4  1  0
  4  5  2  0
  4  6  1  0
  6  7  1  0
  7  8  1  0
  8  9  2  0
  8 10  1  0
 10 11  2  0
 11 12  1  0
 12 13  2  0
 13 14  1  0
 14 15  2  0
 15 16  1  0
 15 17  1  0
 17 18  2  0
 18 19  1  0
 19 20  2  0
  2 21  1  0
 21 22  1  0
 22 23  1  0
 23 24  1  0
 24 25  1  0
 25 26  1  0
 26 27  1  0
 27 28  1  0
 28 29  1  0
 29 30  1  0
 25 31  1  0
 20 10  1  0
 31 21  1  0
 19 13  1  0
 30 26  1  0
  1 32  1  0
  1 33  1  0
  1 34  1  0
  2 35  1  6
  3 36  1  0
  6 37  1  0
  6 38  1  0
  7 39  1  0
 11 40  1  0
 12 41  1  0
 14 42  1  0
 17 43  1  0
 18 44  1  0
 21 45  1  1
 22 46  1  0
 22 47  1  0
 23 48  1  0
 23 49  1  0
 24 50  1  0
 24 51  1  0
 26 52  1  0
 27 53  1  0
 27 54  1  0
 28 55  1  0
 28 56  1  0
 29 57  1  0
 29 58  1  0
 30 59  1  0
 30 60  1  0
 31 61  1  0
 31 62  1  0
M  END
>  <smiles>  (22) 
C[C@H](NC(=O)CNC(=O)c1ccc2cc(Cl)ccc2n1)[C@H]1CCCN(C2CCCC2)C1

>  <score_type>  (22) 
oracle

>  <origin>  (22) 
autodockgpu

>  <m_score__min__energy>  (22) 
-9.0800000000000001

>  <m_primary>  (22) 
energy

>  <rmsd>  (22) 
4.051379878501449

>  <m_score__min__rmsd>  (22) 
4.051379878501449

>  <meeko>  (22) 
{"free_energy": -8.73, "intermolecular_energy": -10.52, "internal_energy": -2.36, "cluster_size": 28, "cluster_id": 1, "rank_in_cluster": 9}

>  <energy>  (22) 
-8.32

>  <cluster_rmsd>  (22) 
1.43

>  <cluster>  (22) 
1

$$$$

     RDKit          3D

 62 65  0  0  0  0  0  0  0  0999 V2000
  143.2530   75.9280  217.9620 C   0  0  0  0  0  0  0  0  0  0  0  0
  142.7830   74.5110  218.3630 C   0  0  2  0  0  0  0  0  0  0  0  0
  141.5530   74.5520  219.0680 N   0  0  0  0  0  0  0  0  0  0  0  0
  141.2940   75.4530  220.1670 C   0  0  0  0  0  0  0  0  0  0  0  0
  142.1620   76.2600  220.5650 O   0  0  0  0  0  0  0  0  0  0  0  0
  139.9360   75.3370  220.7750 C   0  0  0  0  0  0  0  0  0  0  0  0
  139.9620   74.2350  221.7040 N   0  0  0  0  0  0  0  0  0  0  0  0
  140.0210   72.8780  221.4000 C   0  0  0  0  0  0  0  0  0  0  0  0
  140.0550   72.4820  220.2150 O   0  0  0  0  0  0  0  0  0  0  0  0
  140.0390   71.8930  222.5110 C   0  0  0  0  0  0  0  0  0  0  0  0
  139.5810   70.6090  222.3250 C   0  0  0  0  0  0  0  0  0  0  0  0
  139.5660   69.6540  223.3340 C   0  0  0  0  0  0  0  0  0  0  0  0
  140.0530   70.0780  224.5670 C   0  0  0  0  0  0  0  0  0  0  0  0
  140.0950   69.2160  225.6510 C   0  0  0  0  0  0  0  0  0  0  0  0
  140.5880   69.6330  226.8950 C   0  0  0  0  0  0  0  0  0  0  0  0
  140.6330   68.5230  228.2630 Cl  0  0  0  0  0  0  0  0  0  0  0  0
  141.0390   70.9290  227.0300 C   0  0  0  0  0  0  0  0  0  0  0  0
  141.0080   71.8250  225.9510 C   0  0  0  0  0  0  0  0  0  0  0  0
  140.5090   71.3600  224.7410 C   0  0  0  0  0  0  0  0  0  0  0  0
  140.5120   72.2810  223.7330 N   0  0  0  0  0  0  0  0  0  0  0  0
  143.9450   73.8740  219.0700 C   0  0  1  0  0  0  0  0  0  0  0  0
  143.5260   73.3450  220.4420 C   0  0  0  0  0  0  0  0  0  0  0  0
  144.7870   73.1040  221.2240 C   0  0  0  0  0  0  0  0  0  0  0  0
  145.9190   72.8590  220.2880 C   0  0  0  0  0  0  0  0  0  0  0  0
  145.5790   72.1230  219.1140 N   0  0  0  0  0  0  0  0  0  0  0  0
  145.2040   70.7750  219.4660 C   0  0  0  0  0  0  0  0  0  0  0  0
  146.2780   69.8310  218.9300 C   0  0  0  0  0  0  0  0  0  0  0  0
  145.5820   68.4900  218.9930 C   0  0  0  0  0  0  0  0  0  0  0  0
  144.1740   68.7940  218.5960 C   0  0  0  0  0  0  0  0  0  0  0  0
  143.9760   70.2860  218.7330 C   0  0  0  0  0  0  0  0  0  0  0  0
  144.6740   72.8280  218.2730 C   0  0  0  0  0  0  0  0  0  0  0  0
  143.4492   76.5195  218.8685 H   0  0  0  0  0  0  0  0  0  0  0  0
  144.1746   75.8537  217.3661 H   0  0  0  0  0  0  0  0  0  0  0  0
  142.4697   76.4192  217.3661 H   0  0  0  0  0  0  0  0  0  0  0  0
  142.5270   73.8768  217.5015 H   0  0  0  0  0  0  0  0  0  0  0  0
  140.7930   73.8740  218.7480 H   0  0  0  0  0  0  0  0  0  0  0  0
  139.6824   76.2671  221.3047 H   0  0  0  0  0  0  0  0  0  0  0  0
  139.1793   75.1647  219.9954 H   0  0  0  0  0  0  0  0  0  0  0  0
  139.9320   74.5100  222.7350 H   0  0  0  0  0  0  0  0  0  0  0  0
  139.2088   70.3249  221.3296 H   0  0  0  0  0  0  0  0  0  0  0  0
  139.1943   68.6318  223.1695 H   0  0  0  0  0  0  0  0  0  0  0  0
  139.7342   68.1836  225.5329 H   0  0  0  0  0  0  0  0  0  0  0  0
  141.4301   71.2664  228.0012 H   0  0  0  0  0  0  0  0  0  0  0  0
  141.3662   72.8594  226.0594 H   0  0  0  0  0  0  0  0  0  0  0  0
  144.6804   74.6808  219.2052 H   0  0  0  0  0  0  0  0  0  0  0  0
  142.8980   74.0867  220.9572 H   0  0  0  0  0  0  0  0  0  0  0  0
  142.9419   72.4181  220.3437 H   0  0  0  0  0  0  0  0  0  0  0  0
  145.0082   73.9866  221.8422 H   0  0  0  0  0  0  0  0  0  0  0  0
  144.6521   72.2244  221.8706 H   0  0  0  0  0  0  0  0  0  0  0  0
  146.3212   73.8340  219.9756 H   0  0  0  0  0  0  0  0  0  0  0  0
  146.6465   72.2439  220.8379 H   0  0  0  0  0  0  0  0  0  0  0  0
  145.0519   70.7825  220.5554 H   0  0  0  0  0  0  0  0  0  0  0  0
  146.5562   70.0882  217.8973 H   0  0  0  0  0  0  0  0  0  0  0  0
  147.2208   69.8670  219.4954 H   0  0  0  0  0  0  0  0  0  0  0  0
  146.0410   67.7780  218.2913 H   0  0  0  0  0  0  0  0  0  0  0  0
  145.6502   68.0241  219.9871 H   0  0  0  0  0  0  0  0  0  0  0  0
  144.0028   68.4865  217.5538 H   0  0  0  0  0  0  0  0  0  0  0  0
  143.4645   68.2485  219.2355 H   0  0  0  0  0  0  0  0  0  0  0  0
  143.9022   70.7593  217.7428 H   0  0  0  0  0  0  0  0  0  0  0  0
  143.0477   70.5333  219.2689 H   0  0  0  0  0  0  0  0  0  0  0  0
  145.2340   73.3133  217.4600 H   0  0  0  0  0  0  0  0  0  0  0  0
  143.9451   72.1204  217.8511 H   0  0  0  0  0  0  0  0  0  0  0  0
  1  2  1  0
  2  3  1  0
  3  4  1  0
  4  5  2  0
  4  6  1  0
  6  7  1  0
  7  8  1  0
  8  9  2  0
  8 10  1  0
 10 11  2  0
 11 12  1  0
 12 13  2  0
 13 14  1  0
 14 15  2  0
 15 16  1  0
 15 17  1  0
 17 18  2  0
 18 19  1  0
 19 20  2  0
  2 21  1  0
 21 22  1  0
 22 23  1  0
 23 24  1  0
 24 25  1  0
 25 26  1  0
 26 27  1  0
 27 28  1  0
 28 29  1  0
 29 30  1  0
 25 31  1  0
 20 10  1  0
 31 21  1  0
 19 13  1  0
 30 26  1  0
  1 32  1  0
  1 33  1  0
  1 34  1  0
  2 35  1  6
  3 36  1  0
  6 37  1  0
  6 38  1  0
  7 39  1  0
 11 40  1  0
 12 41  1  0
 14 42  1  0
 17 43  1  0
 18 44  1  0
 21 45  1  1
 22 46  1  0
 22 47  1  0
 23 48  1  0
 23 49  1  0
 24 50  1  0
 24 51  1  0
 26 52  1  0
 27 53  1  0
 27 54  1  0
 28 55  1  0
 28 56  1  0
 29 57  1  0
 29 58  1  0
 30 59  1  0
 30 60  1  0
 31 61  1  0
 31 62  1  0
M  END
>  <smiles>  (23) 
C[C@H](NC(=O)CNC(=O)c1ccc2cc(Cl)ccc2n1)[C@H]1CCCN(C2CCCC2)C1

>  <score_type>  (23) 
oracle

>  <origin>  (23) 
autodockgpu

>  <m_score__min__energy>  (23) 
-9.0800000000000001

>  <m_primary>  (23) 
energy

>  <rmsd>  (23) 
6.144437036027141

>  <m_score__min__rmsd>  (23) 
6.144437036027141

>  <meeko>  (23) 
{"free_energy": -7.81, "intermolecular_energy": -9.6, "internal_energy": -2.79, "cluster_size": 3, "cluster_id": 2, "rank_in_cluster": 3}

>  <energy>  (23) 
-8.26

>  <cluster_rmsd>  (23) 
1.48

>  <cluster>  (23) 
1

$$$$

     RDKit          3D

 62 65  0  0  0  0  0  0  0  0999 V2000
  140.9950   76.0850  217.8550 C   0  0  0  0  0  0  0  0  0  0  0  0
  140.7440   76.3090  219.3630 C   0  0  2  0  0  0  0  0  0  0  0  0
  139.6420   75.5450  219.8250 N   0  0  0  0  0  0  0  0  0  0  0  0
  139.6580   74.7880  221.0560 C   0  0  0  0  0  0  0  0  0  0  0  0
  140.6680   74.7650  221.7930 O   0  0  0  0  0  0  0  0  0  0  0  0
  138.3970   74.0500  221.3620 C   0  0  0  0  0  0  0  0  0  0  0  0
  138.6970   73.0620  222.3670 N   0  0  0  0  0  0  0  0  0  0  0  0
  138.1030   71.8130  222.5250 C   0  0  0  0  0  0  0  0  0  0  0  0
  137.1970   71.4260  221.7560 O   0  0  0  0  0  0  0  0  0  0  0  0
  138.5580   70.9350  223.6330 C   0  0  0  0  0  0  0  0  0  0  0  0
  138.1480   69.6250  223.7110 C   0  0  0  0  0  0  0  0  0  0  0  0
  138.5360   68.7660  224.7330 C   0  0  0  0  0  0  0  0  0  0  0  0
  139.3830   69.3180  225.6890 C   0  0  0  0  0  0  0  0  0  0  0  0
  139.8430   68.5620  226.7550 C   0  0  0  0  0  0  0  0  0  0  0  0
  140.7000   69.1090  227.7200 C   0  0  0  0  0  0  0  0  0  0  0  0
  141.2750   68.1310  229.0690 Cl  0  0  0  0  0  0  0  0  0  0  0  0
  141.0850   70.4260  227.5960 C   0  0  0  0  0  0  0  0  0  0  0  0
  140.6340   71.2180  226.5290 C   0  0  0  0  0  0  0  0  0  0  0  0
  139.7870   70.6270  225.6010 C   0  0  0  0  0  0  0  0  0  0  0  0
  139.3900   71.4500  224.5880 N   0  0  0  0  0  0  0  0  0  0  0  0
  140.6600   77.7960  219.5530 C   0  0  1  0  0  0  0  0  0  0  0  0
  139.3510   78.1860  220.2390 C   0  0  0  0  0  0  0  0  0  0  0  0
  139.1660   79.6640  220.0260 C   0  0  0  0  0  0  0  0  0  0  0  0
  140.4910   80.3100  219.8130 C   0  0  0  0  0  0  0  0  0  0  0  0
  141.5580   79.7620  220.5870 N   0  0  0  0  0  0  0  0  0  0  0  0
  141.3370   80.0230  221.9890 C   0  0  0  0  0  0  0  0  0  0  0  0
  142.5630   80.7540  222.5320 C   0  0  0  0  0  0  0  0  0  0  0  0
  142.3900   80.5950  224.0260 C   0  0  0  0  0  0  0  0  0  0  0  0
  141.8520   79.2100  224.1820 C   0  0  0  0  0  0  0  0  0  0  0  0
  141.3290   78.7710  222.8350 C   0  0  0  0  0  0  0  0  0  0  0  0
  141.8490   78.4140  220.2360 C   0  0  0  0  0  0  0  0  0  0  0  0
  141.8098   75.3579  217.7229 H   0  0  0  0  0  0  0  0  0  0  0  0
  140.0789   75.6987  217.3842 H   0  0  0  0  0  0  0  0  0  0  0  0
  141.2750   77.0389  217.3842 H   0  0  0  0  0  0  0  0  0  0  0  0
  141.5595   75.9359  220.0000 H   0  0  0  0  0  0  0  0  0  0  0  0
  138.7660   75.5470  219.2160 H   0  0  0  0  0  0  0  0  0  0  0  0
  137.6367   74.7493  221.7401 H   0  0  0  0  0  0  0  0  0  0  0  0
  138.0045   73.5678  220.4546 H   0  0  0  0  0  0  0  0  0  0  0  0
  139.4640   73.3360  223.0580 H   0  0  0  0  0  0  0  0  0  0  0  0
  137.4807   69.2378  222.9269 H   0  0  0  0  0  0  0  0  0  0  0  0
  138.1964   67.7209  224.7825 H   0  0  0  0  0  0  0  0  0  0  0  0
  139.5295   67.5116  226.8459 H   0  0  0  0  0  0  0  0  0  0  0  0
  141.7583   70.8647  228.3471 H   0  0  0  0  0  0  0  0  0  0  0  0
  140.9406   72.2699  226.4313 H   0  0  0  0  0  0  0  0  0  0  0  0
  140.6730   78.2200  218.5381 H   0  0  0  0  0  0  0  0  0  0  0  0
  138.5115   77.6321  219.7936 H   0  0  0  0  0  0  0  0  0  0  0  0
  139.3831   77.9450  221.3118 H   0  0  0  0  0  0  0  0  0  0  0  0
  138.5322   79.8296  219.1424 H   0  0  0  0  0  0  0  0  0  0  0  0
  138.6852   80.1026  220.9128 H   0  0  0  0  0  0  0  0  0  0  0  0
  140.7534   80.2091  218.7495 H   0  0  0  0  0  0  0  0  0  0  0  0
  140.3802   81.3554  220.1367 H   0  0  0  0  0  0  0  0  0  0  0  0
  140.3778   80.5585  222.0456 H   0  0  0  0  0  0  0  0  0  0  0  0
  143.4948   80.2831  222.1855 H   0  0  0  0  0  0  0  0  0  0  0  0
  142.6356   81.8013  222.2036 H   0  0  0  0  0  0  0  0  0  0  0  0
  143.3542   80.7007  224.5447 H   0  0  0  0  0  0  0  0  0  0  0  0
  141.7267   81.3582  224.4590 H   0  0  0  0  0  0  0  0  0  0  0  0
  142.6520   78.5316  224.5134 H   0  0  0  0  0  0  0  0  0  0  0  0
  141.0499   79.1887  224.9344 H   0  0  0  0  0  0  0  0  0  0  0  0
  141.9838   78.0034  222.3968 H   0  0  0  0  0  0  0  0  0  0  0  0
  140.3261   78.3246  222.9052 H   0  0  0  0  0  0  0  0  0  0  0  0
  142.7128   78.3925  219.5553 H   0  0  0  0  0  0  0  0  0  0  0  0
  142.0804   77.8437  221.1477 H   0  0  0  0  0  0  0  0  0  0  0  0
  1  2  1  0
  2  3  1  0
  3  4  1  0
  4  5  2  0
  4  6  1  0
  6  7  1  0
  7  8  1  0
  8  9  2  0
  8 10  1  0
 10 11  2  0
 11 12  1  0
 12 13  2  0
 13 14  1  0
 14 15  2  0
 15 16  1  0
 15 17  1  0
 17 18  2  0
 18 19  1  0
 19 20  2  0
  2 21  1  0
 21 22  1  0
 22 23  1  0
 23 24  1  0
 24 25  1  0
 25 26  1  0
 26 27  1  0
 27 28  1  0
 28 29  1  0
 29 30  1  0
 25 31  1  0
 20 10  1  0
 31 21  1  0
 19 13  1  0
 30 26  1  0
  1 32  1  0
  1 33  1  0
  1 34  1  0
  2 35  1  1
  3 36  1  0
  6 37  1  0
  6 38  1  0
  7 39  1  0
 11 40  1  0
 12 41  1  0
 14 42  1  0
 17 43  1  0
 18 44  1  0
 21 45  1  6
 22 46  1  0
 22 47  1  0
 23 48  1  0
 23 49  1  0
 24 50  1  0
 24 51  1  0
 26 52  1  0
 27 53  1  0
 27 54  1  0
 28 55  1  0
 28 56  1  0
 29 57  1  0
 29 58  1  0
 30 59  1  0
 30 60  1  0
 31 61  1  0
 31 62  1  0
M  END
>  <smiles>  (24) 
C[C@H](NC(=O)CNC(=O)c1ccc2cc(Cl)ccc2n1)[C@H]1CCCN(C2CCCC2)C1

>  <score_type>  (24) 
oracle

>  <origin>  (24) 
autodockgpu

>  <m_score__min__energy>  (24) 
-9.0800000000000001

>  <m_primary>  (24) 
energy

>  <rmsd>  (24) 
4.531390949333029

>  <m_score__min__rmsd>  (24) 
4.531390949333029

>  <meeko>  (24) 
{"free_energy": -8.13, "intermolecular_energy": -9.92, "internal_energy": -2.34, "cluster_size": 28, "cluster_id": 1, "rank_in_cluster": 24}

>  <energy>  (24) 
-8.13

>  <cluster_rmsd>  (24) 
1.4

>  <cluster>  (24) 
1

$$$$

     RDKit          3D

 62 65  0  0  0  0  0  0  0  0999 V2000
  134.8780   70.1880  224.6380 C   0  0  0  0  0  0  0  0  0  0  0  0
  136.0910   71.1360  224.5110 C   0  0  2  0  0  0  0  0  0  0  0  0
  135.8020   72.2400  223.6670 N   0  0  0  0  0  0  0  0  0  0  0  0
  134.9830   73.3590  224.0730 C   0  0  0  0  0  0  0  0  0  0  0  0
  134.4720   73.4130  225.2130 O   0  0  0  0  0  0  0  0  0  0  0  0
  134.7980   74.4170  223.0360 C   0  0  0  0  0  0  0  0  0  0  0  0
  136.0160   75.1860  222.9690 N   0  0  0  0  0  0  0  0  0  0  0  0
  137.1870   74.8510  222.2960 C   0  0  0  0  0  0  0  0  0  0  0  0
  137.2810   73.7830  221.6550 O   0  0  0  0  0  0  0  0  0  0  0  0
  138.3390   75.7870  222.3490 C   0  0  0  0  0  0  0  0  0  0  0  0
  139.5870   75.3970  221.9220 C   0  0  0  0  0  0  0  0  0  0  0  0
  140.6990   76.2300  221.9620 C   0  0  0  0  0  0  0  0  0  0  0  0
  140.4720   77.5070  222.4670 C   0  0  0  0  0  0  0  0  0  0  0  0
  141.5000   78.4310  222.5540 C   0  0  0  0  0  0  0  0  0  0  0  0
  141.2800   79.7210  223.0560 C   0  0  0  0  0  0  0  0  0  0  0  0
  142.6000   80.8840  223.1590 Cl  0  0  0  0  0  0  0  0  0  0  0  0
  140.0100   80.0650  223.4700 C   0  0  0  0  0  0  0  0  0  0  0  0
  138.9490   79.1500  223.3950 C   0  0  0  0  0  0  0  0  0  0  0  0
  139.2230   77.8860  222.8900 C   0  0  0  0  0  0  0  0  0  0  0  0
  138.1460   77.0480  222.8410 N   0  0  0  0  0  0  0  0  0  0  0  0
  137.2540   70.2720  224.1150 C   0  0  1  0  0  0  0  0  0  0  0  0
  138.4880   71.1220  223.8110 C   0  0  0  0  0  0  0  0  0  0  0  0
  139.4480   70.2470  223.0530 C   0  0  0  0  0  0  0  0  0  0  0  0
  139.1940   68.8170  223.3840 C   0  0  0  0  0  0  0  0  0  0  0  0
  138.8220   68.5720  224.7400 N   0  0  0  0  0  0  0  0  0  0  0  0
  139.9260   68.8760  225.6180 C   0  0  0  0  0  0  0  0  0  0  0  0
  140.2220   67.6310  226.4520 C   0  0  0  0  0  0  0  0  0  0  0  0
  141.0730   68.1930  227.5690 C   0  0  0  0  0  0  0  0  0  0  0  0
  140.4510   69.5190  227.8660 C   0  0  0  0  0  0  0  0  0  0  0  0
  139.5770   69.8830  226.6890 C   0  0  0  0  0  0  0  0  0  0  0  0
  137.5700   69.1600  225.0760 C   0  0  0  0  0  0  0  0  0  0  0  0
  134.6573   70.0155  225.7017 H   0  0  0  0  0  0  0  0  0  0  0  0
  134.0034   70.6444  224.1514 H   0  0  0  0  0  0  0  0  0  0  0  0
  135.1096   69.2291  224.1514 H   0  0  0  0  0  0  0  0  0  0  0  0
  136.3520   71.6363  225.4553 H   0  0  0  0  0  0  0  0  0  0  0  0
  136.2250   72.2210  222.6880 H   0  0  0  0  0  0  0  0  0  0  0  0
  134.5944   73.9527  222.0598 H   0  0  0  0  0  0  0  0  0  0  0  0
  133.9480   75.0652  223.2956 H   0  0  0  0  0  0  0  0  0  0  0  0
  135.9970   76.1120  223.5000 H   0  0  0  0  0  0  0  0  0  0  0  0
  139.7110   74.3767  221.5300 H   0  0  0  0  0  0  0  0  0  0  0  0
  141.6911   75.9023  221.6179 H   0  0  0  0  0  0  0  0  0  0  0  0
  142.5096   78.1467  222.2224 H   0  0  0  0  0  0  0  0  0  0  0  0
  139.8258   81.0746  223.8660 H   0  0  0  0  0  0  0  0  0  0  0  0
  137.9360   79.4243  223.7246 H   0  0  0  0  0  0  0  0  0  0  0  0
  136.9364   69.7602  223.1946 H   0  0  0  0  0  0  0  0  0  0  0  0
  138.2063   71.9920  223.1997 H   0  0  0  0  0  0  0  0  0  0  0  0
  138.9458   71.4957  224.7388 H   0  0  0  0  0  0  0  0  0  0  0  0
  139.3093   70.4023  221.9729 H   0  0  0  0  0  0  0  0  0  0  0  0
  140.4787   70.5082  223.3349 H   0  0  0  0  0  0  0  0  0  0  0  0
  138.3822   68.4550  222.7360 H   0  0  0  0  0  0  0  0  0  0  0  0
  140.1458   68.2892  223.2245 H   0  0  0  0  0  0  0  0  0  0  0  0
  140.7348   69.2382  224.9664 H   0  0  0  0  0  0  0  0  0  0  0  0
  139.2965   67.1824  226.8421 H   0  0  0  0  0  0  0  0  0  0  0  0
  140.7111   66.8248  225.8856 H   0  0  0  0  0  0  0  0  0  0  0  0
  141.0397   67.5389  228.4528 H   0  0  0  0  0  0  0  0  0  0  0  0
  142.1342   68.2760  227.2917 H   0  0  0  0  0  0  0  0  0  0  0  0
  139.8422   69.4523  228.7797 H   0  0  0  0  0  0  0  0  0  0  0  0
  141.2254   70.2838  228.0253 H   0  0  0  0  0  0  0  0  0  0  0  0
  138.5133   69.8075  226.9591 H   0  0  0  0  0  0  0  0  0  0  0  0
  139.7438   70.9175  226.3542 H   0  0  0  0  0  0  0  0  0  0  0  0
  136.7812   68.3952  225.0213 H   0  0  0  0  0  0  0  0  0  0  0  0
  137.6226   69.5668  226.0967 H   0  0  0  0  0  0  0  0  0  0  0  0
  1  2  1  0
  2  3  1  0
  3  4  1  0
  4  5  2  0
  4  6  1  0
  6  7  1  0
  7  8  1  0
  8  9  2  0
  8 10  1  0
 10 11  2  0
 11 12  1  0
 12 13  2  0
 13 14  1  0
 14 15  2  0
 15 16  1  0
 15 17  1  0
 17 18  2  0
 18 19  1  0
 19 20  2  0
  2 21  1  0
 21 22  1  0
 22 23  1  0
 23 24  1  0
 24 25  1  0
 25 26  1  0
 26 27  1  0
 27 28  1  0
 28 29  1  0
 29 30  1  0
 25 31  1  0
 20 10  1  0
 31 21  1  0
 19 13  1  0
 30 26  1  0
  1 32  1  0
  1 33  1  0
  1 34  1  0
  2 35  1  1
  3 36  1  0
  6 37  1  0
  6 38  1  0
  7 39  1  0
 11 40  1  0
 12 41  1  0
 14 42  1  0
 17 43  1  0
 18 44  1  0
 21 45  1  6
 22 46  1  0
 22 47  1  0
 23 48  1  0
 23 49  1  0
 24 50  1  0
 24 51  1  0
 26 52  1  0
 27 53  1  0
 27 54  1  0
 28 55  1  0
 28 56  1  0
 29 57  1  0
 29 58  1  0
 30 59  1  0
 30 60  1  0
 31 61  1  0
 31 62  1  0
M  END
>  <smiles>  (25) 
C[C@H](NC(=O)CNC(=O)c1ccc2cc(Cl)ccc2n1)[C@H]1CCCN(C2CCCC2)C1

>  <score_type>  (25) 
oracle

>  <origin>  (25) 
autodockgpu

>  <m_score__min__energy>  (25) 
-9.0800000000000001

>  <m_primary>  (25) 
energy

>  <rmsd>  (25) 
9.697698108404644

>  <m_score__min__rmsd>  (25) 
9.697698108404644

>  <meeko>  (25) 
{"free_energy": -7.8, "intermolecular_energy": -9.58, "internal_energy": -2.68, "cluster_size": 3, "cluster_id": 3, "rank_in_cluster": 1}

>  <energy>  (25) 
-8.07

>  <cluster_rmsd>  (25) 
0.96

>  <cluster>  (25) 
1

$$$$

     RDKit          3D

 62 65  0  0  0  0  0  0  0  0999 V2000
  141.4500   77.6920  219.5160 C   0  0  0  0  0  0  0  0  0  0  0  0
  141.2480   76.8920  220.8220 C   0  0  2  0  0  0  0  0  0  0  0  0
  140.0730   76.0990  220.7680 N   0  0  0  0  0  0  0  0  0  0  0  0
  139.9120   74.8620  221.4990 C   0  0  0  0  0  0  0  0  0  0  0  0
  140.8230   74.4150  222.2300 O   0  0  0  0  0  0  0  0  0  0  0  0
  138.6000   74.1780  221.3050 C   0  0  0  0  0  0  0  0  0  0  0  0
  137.6370   74.8190  222.1660 N   0  0  0  0  0  0  0  0  0  0  0  0
  137.0630   76.0760  221.9990 C   0  0  0  0  0  0  0  0  0  0  0  0
  137.3610   76.7980  221.0240 O   0  0  0  0  0  0  0  0  0  0  0  0
  136.0840   76.5580  223.0060 C   0  0  0  0  0  0  0  0  0  0  0  0
  135.5940   77.8420  222.9570 C   0  0  0  0  0  0  0  0  0  0  0  0
  134.6860   78.3450  223.8820 C   0  0  0  0  0  0  0  0  0  0  0  0
  134.2910   77.4560  224.8770 C   0  0  0  0  0  0  0  0  0  0  0  0
  133.3860   77.8380  225.8540 C   0  0  0  0  0  0  0  0  0  0  0  0
  132.9790   76.9480  226.8580 C   0  0  0  0  0  0  0  0  0  0  0  0
  131.8270   77.4510  228.0930 Cl  0  0  0  0  0  0  0  0  0  0  0  0
  133.4960   75.6700  226.8620 C   0  0  0  0  0  0  0  0  0  0  0  0
  134.4160   75.2550  225.8870 C   0  0  0  0  0  0  0  0  0  0  0  0
  134.7850   76.1770  224.9160 C   0  0  0  0  0  0  0  0  0  0  0  0
  135.6780   75.7070  223.9960 N   0  0  0  0  0  0  0  0  0  0  0  0
  141.3360   77.8920  221.9390 C   0  0  1  0  0  0  0  0  0  0  0  0
  141.8170   79.2470  221.4210 C   0  0  0  0  0  0  0  0  0  0  0  0
  142.2580   80.0430  222.6190 C   0  0  0  0  0  0  0  0  0  0  0  0
  141.5460   79.5580  223.8340 C   0  0  0  0  0  0  0  0  0  0  0  0
  140.1920   79.1610  223.6180 N   0  0  0  0  0  0  0  0  0  0  0  0
  139.3920   80.3060  223.2580 C   0  0  0  0  0  0  0  0  0  0  0  0
  138.3680   80.5350  224.3680 C   0  0  0  0  0  0  0  0  0  0  0  0
  137.3720   81.4530  223.6950 C   0  0  0  0  0  0  0  0  0  0  0  0
  137.2900   80.9360  222.2960 C   0  0  0  0  0  0  0  0  0  0  0  0
  138.4980   80.0590  222.0650 C   0  0  0  0  0  0  0  0  0  0  0  0
  140.0870   78.0270  222.7650 C   0  0  0  0  0  0  0  0  0  0  0  0
  141.7126   78.7320  219.7600 H   0  0  0  0  0  0  0  0  0  0  0  0
  142.2614   77.2370  218.9291 H   0  0  0  0  0  0  0  0  0  0  0  0
  140.5198   77.6767  218.9291 H   0  0  0  0  0  0  0  0  0  0  0  0
  142.0251   76.1322  220.9919 H   0  0  0  0  0  0  0  0  0  0  0  0
  139.2780   76.4570  220.1530 H   0  0  0  0  0  0  0  0  0  0  0  0
  138.2824   74.2685  220.2557 H   0  0  0  0  0  0  0  0  0  0  0  0
  138.6839   73.1092  221.5511 H   0  0  0  0  0  0  0  0  0  0  0  0
  137.3440   74.2510  223.0210 H   0  0  0  0  0  0  0  0  0  0  0  0
  135.9368   78.5028  222.1472 H   0  0  0  0  0  0  0  0  0  0  0  0
  134.3056   79.3759  223.8308 H   0  0  0  0  0  0  0  0  0  0  0  0
  132.9787   78.8598  225.8418 H   0  0  0  0  0  0  0  0  0  0  0  0
  133.1817   74.9627  227.6437 H   0  0  0  0  0  0  0  0  0  0  0  0
  134.8301   74.2359  225.8916 H   0  0  0  0  0  0  0  0  0  0  0  0
  142.0856   77.4869  222.6347 H   0  0  0  0  0  0  0  0  0  0  0  0
  142.6598   79.1091  220.7277 H   0  0  0  0  0  0  0  0  0  0  0  0
  141.0148   79.7672  220.8770 H   0  0  0  0  0  0  0  0  0  0  0  0
  143.3425   79.9232  222.7585 H   0  0  0  0  0  0  0  0  0  0  0  0
  142.0213   81.1051  222.4578 H   0  0  0  0  0  0  0  0  0  0  0  0
  142.0970   78.6924  224.2304 H   0  0  0  0  0  0  0  0  0  0  0  0
  141.5111   80.4079  224.5314 H   0  0  0  0  0  0  0  0  0  0  0  0
  140.1062   81.1211  223.0694 H   0  0  0  0  0  0  0  0  0  0  0  0
  137.8956   79.5907  224.6766 H   0  0  0  0  0  0  0  0  0  0  0  0
  138.8002   80.9505  225.2903 H   0  0  0  0  0  0  0  0  0  0  0  0
  136.3916   81.3964  224.1906 H   0  0  0  0  0  0  0  0  0  0  0  0
  137.6746   82.5097  223.7382 H   0  0  0  0  0  0  0  0  0  0  0  0
  136.3690   80.3487  222.1659 H   0  0  0  0  0  0  0  0  0  0  0  0
  137.2712   81.7674  221.5760 H   0  0  0  0  0  0  0  0  0  0  0  0
  138.2037   79.0003  222.0146 H   0  0  0  0  0  0  0  0  0  0  0  0
  139.0020   80.2904  221.1150 H   0  0  0  0  0  0  0  0  0  0  0  0
  139.9539   77.1219  223.3759 H   0  0  0  0  0  0  0  0  0  0  0  0
  139.2225   78.1546  222.0969 H   0  0  0  0  0  0  0  0  0  0  0  0
  1  2  1  0
  2  3  1  0
  3  4  1  0
  4  5  2  0
  4  6  1  0
  6  7  1  0
  7  8  1  0
  8  9  2  0
  8 10  1  0
 10 11  2  0
 11 12  1  0
 12 13  2  0
 13 14  1  0
 14 15  2  0
 15 16  1  0
 15 17  1  0
 17 18  2  0
 18 19  1  0
 19 20  2  0
  2 21  1  0
 21 22  1  0
 22 23  1  0
 23 24  1  0
 24 25  1  0
 25 26  1  0
 26 27  1  0
 27 28  1  0
 28 29  1  0
 29 30  1  0
 25 31  1  0
 20 10  1  0
 31 21  1  0
 19 13  1  0
 30 26  1  0
  1 32  1  0
  1 33  1  0
  1 34  1  0
  2 35  1  1
  3 36  1  0
  6 37  1  0
  6 38  1  0
  7 39  1  0
 11 40  1  0
 12 41  1  0
 14 42  1  0
 17 43  1  0
 18 44  1  0
 21 45  1  1
 22 46  1  0
 22 47  1  0
 23 48  1  0
 23 49  1  0
 24 50  1  0
 24 51  1  0
 26 52  1  0
 27 53  1  0
 27 54  1  0
 28 55  1  0
 28 56  1  0
 29 57  1  0
 29 58  1  0
 30 59  1  0
 30 60  1  0
 31 61  1  0
 31 62  1  0
M  END
>  <smiles>  (26) 
C[C@H](NC(=O)CNC(=O)c1ccc2cc(Cl)ccc2n1)[C@H]1CCCN(C2CCCC2)C1

>  <score_type>  (26) 
oracle

>  <origin>  (26) 
autodockgpu

>  <m_score__min__energy>  (26) 
-9.0800000000000001

>  <m_primary>  (26) 
energy

>  <rmsd>  (26) 
6.359882177344446

>  <m_score__min__rmsd>  (26) 
6.359882177344446

>  <meeko>  (26) 
{"free_energy": -7.01, "intermolecular_energy": -8.8, "internal_energy": -3.55, "cluster_size": 12, "cluster_id": 5, "rank_in_cluster": 6}

>  <energy>  (26) 
-7.87

>  <cluster_rmsd>  (26) 
1.83

>  <cluster>  (26) 
1

$$$$

     RDKit          3D

 62 65  0  0  0  0  0  0  0  0999 V2000
  141.5910   77.7140  219.5030 C   0  0  0  0  0  0  0  0  0  0  0  0
  141.3630   76.9010  220.7970 C   0  0  2  0  0  0  0  0  0  0  0  0
  140.2000   76.0930  220.7050 N   0  0  0  0  0  0  0  0  0  0  0  0
  140.0210   74.8690  221.4500 C   0  0  0  0  0  0  0  0  0  0  0  0
  140.9010   74.4460  222.2300 O   0  0  0  0  0  0  0  0  0  0  0  0
  138.7260   74.1650  221.2100 C   0  0  0  0  0  0  0  0  0  0  0  0
  137.7370   74.7520  222.0800 N   0  0  0  0  0  0  0  0  0  0  0  0
  137.2380   76.0500  222.0330 C   0  0  0  0  0  0  0  0  0  0  0  0
  137.6390   76.8660  221.1760 O   0  0  0  0  0  0  0  0  0  0  0  0
  136.2150   76.4620  223.0280 C   0  0  0  0  0  0  0  0  0  0  0  0
  135.6680   77.7240  222.9980 C   0  0  0  0  0  0  0  0  0  0  0  0
  134.7170   78.1620  223.9110 C   0  0  0  0  0  0  0  0  0  0  0  0
  134.3400   77.2320  224.8760 C   0  0  0  0  0  0  0  0  0  0  0  0
  133.3970   77.5480  225.8390 C   0  0  0  0  0  0  0  0  0  0  0  0
  133.0080   76.6160  226.8110 C   0  0  0  0  0  0  0  0  0  0  0  0
  131.8060   77.0360  228.0300 Cl  0  0  0  0  0  0  0  0  0  0  0  0
  133.5830   75.3630  226.7980 C   0  0  0  0  0  0  0  0  0  0  0  0
  134.5420   75.0150  225.8360 C   0  0  0  0  0  0  0  0  0  0  0  0
  134.8920   75.9760  224.8960 C   0  0  0  0  0  0  0  0  0  0  0  0
  135.8260   75.5700  223.9870 N   0  0  0  0  0  0  0  0  0  0  0  0
  141.4060   77.8940  221.9230 C   0  0  1  0  0  0  0  0  0  0  0  0
  141.8330   79.2730  221.4190 C   0  0  0  0  0  0  0  0  0  0  0  0
  142.2360   80.0760  222.6260 C   0  0  0  0  0  0  0  0  0  0  0  0
  141.5410   79.5510  223.8340 C   0  0  0  0  0  0  0  0  0  0  0  0
  140.2060   79.1000  223.6100 N   0  0  0  0  0  0  0  0  0  0  0  0
  139.3600   80.2150  223.2570 C   0  0  0  0  0  0  0  0  0  0  0  0
  138.4120   80.4760  224.4250 C   0  0  0  0  0  0  0  0  0  0  0  0
  137.3540   81.3470  223.7850 C   0  0  0  0  0  0  0  0  0  0  0  0
  137.1830   80.7640  222.4200 C   0  0  0  0  0  0  0  0  0  0  0  0
  138.3900   79.8980  222.1430 C   0  0  0  0  0  0  0  0  0  0  0  0
  140.1500   77.9700  222.7470 C   0  0  0  0  0  0  0  0  0  0  0  0
  141.8796   78.7432  219.7627 H   0  0  0  0  0  0  0  0  0  0  0  0
  142.3926   77.2463  218.9126 H   0  0  0  0  0  0  0  0  0  0  0  0
  140.6631   77.7313  218.9126 H   0  0  0  0  0  0  0  0  0  0  0  0
  142.1450   76.1499  220.9825 H   0  0  0  0  0  0  0  0  0  0  0  0
  139.4310   76.4310  220.0470 H   0  0  0  0  0  0  0  0  0  0  0  0
  138.4217   74.2890  220.1602 H   0  0  0  0  0  0  0  0  0  0  0  0
  138.8294   73.0895  221.4165 H   0  0  0  0  0  0  0  0  0  0  0  0
  137.3580   74.1020  222.8370 H   0  0  0  0  0  0  0  0  0  0  0  0
  135.9997   78.4198  222.2132 H   0  0  0  0  0  0  0  0  0  0  0  0
  134.2906   79.1753  223.8740 H   0  0  0  0  0  0  0  0  0  0  0  0
  132.9440   78.5504  225.8414 H   0  0  0  0  0  0  0  0  0  0  0  0
  133.2842   74.6234  227.5555 H   0  0  0  0  0  0  0  0  0  0  0  0
  135.0013   74.0155  225.8261 H   0  0  0  0  0  0  0  0  0  0  0  0
  142.1696   77.5135  222.6174 H   0  0  0  0  0  0  0  0  0  0  0  0
  142.6836   79.1762  220.7282 H   0  0  0  0  0  0  0  0  0  0  0  0
  141.0122   79.7645  220.8762 H   0  0  0  0  0  0  0  0  0  0  0  0
  143.3241   80.0005  222.7686 H   0  0  0  0  0  0  0  0  0  0  0  0
  141.9553   81.1285  222.4732 H   0  0  0  0  0  0  0  0  0  0  0  0
  142.1263   78.7056  224.2247 H   0  0  0  0  0  0  0  0  0  0  0  0
  141.4684   80.3926  224.5386 H   0  0  0  0  0  0  0  0  0  0  0  0
  140.0424   81.0329  222.9826 H   0  0  0  0  0  0  0  0  0  0  0  0
  137.9806   79.5387  224.8064 H   0  0  0  0  0  0  0  0  0  0  0  0
  138.8992   80.9388  225.2959 H   0  0  0  0  0  0  0  0  0  0  0  0
  136.4124   81.2986  224.3516 H   0  0  0  0  0  0  0  0  0  0  0  0
  137.6389   82.4092  223.7591 H   0  0  0  0  0  0  0  0  0  0  0  0
  136.2674   80.1554  222.3833 H   0  0  0  0  0  0  0  0  0  0  0  0
  137.0955   81.5603  221.6662 H   0  0  0  0  0  0  0  0  0  0  0  0
  138.1146   78.8332  222.1610 H   0  0  0  0  0  0  0  0  0  0  0  0
  138.8212   80.0941  221.1502 H   0  0  0  0  0  0  0  0  0  0  0  0
  140.0530   77.0549  223.3497 H   0  0  0  0  0  0  0  0  0  0  0  0
  139.2825   78.0674  222.0777 H   0  0  0  0  0  0  0  0  0  0  0  0
  1  2  1  0
  2  3  1  0
  3  4  1  0
  4  5  2  0
  4  6  1  0
  6  7  1  0
  7  8  1  0
  8  9  2  0
  8 10  1  0
 10 11  2  0
 11 12  1  0
 12 13  2  0
 13 14  1  0
 14 15  2  0
 15 16  1  0
 15 17  1  0
 17 18  2  0
 18 19  1  0
 19 20  2  0
  2 21  1  0
 21 22  1  0
 22 23  1  0
 23 24  1  0
 24 25  1  0
 25 26  1  0
 26 27  1  0
 27 28  1  0
 28 29  1  0
 29 30  1  0
 25 31  1  0
 20 10  1  0
 31 21  1  0
 19 13  1  0
 30 26  1  0
  1 32  1  0
  1 33  1  0
  1 34  1  0
  2 35  1  1
  3 36  1  0
  6 37  1  0
  6 38  1  0
  7 39  1  0
 11 40  1  0
 12 41  1  0
 14 42  1  0
 17 43  1  0
 18 44  1  0
 21 45  1  1
 22 46  1  0
 22 47  1  0
 23 48  1  0
 23 49  1  0
 24 50  1  0
 24 51  1  0
 26 52  1  0
 27 53  1  0
 27 54  1  0
 28 55  1  0
 28 56  1  0
 29 57  1  0
 29 58  1  0
 30 59  1  0
 30 60  1  0
 31 61  1  0
 31 62  1  0
M  END
>  <smiles>  (27) 
C[C@H](NC(=O)CNC(=O)c1ccc2cc(Cl)ccc2n1)[C@H]1CCCN(C2CCCC2)C1

>  <score_type>  (27) 
oracle

>  <origin>  (27) 
autodockgpu

>  <m_score__min__energy>  (27) 
-9.0800000000000001

>  <m_primary>  (27) 
energy

>  <rmsd>  (27) 
6.2361586500437065

>  <m_score__min__rmsd>  (27) 
6.2361586500437065

>  <meeko>  (27) 
{"free_energy": -7.0, "intermolecular_energy": -8.79, "internal_energy": -3.58, "cluster_size": 12, "cluster_id": 5, "rank_in_cluster": 7}

>  <energy>  (27) 
-7.85

>  <cluster_rmsd>  (27) 
1.87

>  <cluster>  (27) 
1

$$$$

     RDKit          3D

 62 65  0  0  0  0  0  0  0  0999 V2000
  141.0430   78.8230  219.3460 C   0  0  0  0  0  0  0  0  0  0  0  0
  141.3320   77.7470  220.4170 C   0  0  2  0  0  0  0  0  0  0  0  0
  140.3720   76.7030  220.3770 N   0  0  0  0  0  0  0  0  0  0  0  0
  140.2790   75.6680  221.3800 C   0  0  0  0  0  0  0  0  0  0  0  0
  141.0590   75.6360  222.3570 O   0  0  0  0  0  0  0  0  0  0  0  0
  139.2000   74.6610  221.1530 C   0  0  0  0  0  0  0  0  0  0  0  0
  139.3770   73.6010  222.1130 N   0  0  0  0  0  0  0  0  0  0  0  0
  139.0620   72.2550  221.9490 C   0  0  0  0  0  0  0  0  0  0  0  0
  138.5650   71.8330  220.8840 O   0  0  0  0  0  0  0  0  0  0  0  0
  139.3240   71.3150  223.0680 C   0  0  0  0  0  0  0  0  0  0  0  0
  138.9290   69.9990  222.9930 C   0  0  0  0  0  0  0  0  0  0  0  0
  139.1400   69.0830  224.0170 C   0  0  0  0  0  0  0  0  0  0  0  0
  139.7890   69.5810  225.1430 C   0  0  0  0  0  0  0  0  0  0  0  0
  140.0600   68.7650  226.2280 C   0  0  0  0  0  0  0  0  0  0  0  0
  140.7170   69.2570  227.3640 C   0  0  0  0  0  0  0  0  0  0  0  0
  141.0550   68.2030  228.7360 Cl  0  0  0  0  0  0  0  0  0  0  0  0
  141.0960   70.5830  227.3900 C   0  0  0  0  0  0  0  0  0  0  0  0
  140.8330   71.4340  226.3070 C   0  0  0  0  0  0  0  0  0  0  0  0
  140.1790   70.8950  225.2070 C   0  0  0  0  0  0  0  0  0  0  0  0
  139.9590   71.7760  224.1870 N   0  0  0  0  0  0  0  0  0  0  0  0
  141.4730   78.4840  221.7180 C   0  0  1  0  0  0  0  0  0  0  0  0
  141.9990   79.9010  221.4890 C   0  0  0  0  0  0  0  0  0  0  0  0
  142.4850   80.4090  222.8190 C   0  0  0  0  0  0  0  0  0  0  0  0
  141.7700   79.7020  223.9180 C   0  0  0  0  0  0  0  0  0  0  0  0
  140.4000   79.4080  223.6500 N   0  0  0  0  0  0  0  0  0  0  0  0
  139.6390   80.6300  223.5570 C   0  0  0  0  0  0  0  0  0  0  0  0
  138.4160   80.4970  224.4620 C   0  0  0  0  0  0  0  0  0  0  0  0
  137.5320   81.6190  223.9660 C   0  0  0  0  0  0  0  0  0  0  0  0
  137.7340   81.6130  222.4860 C   0  0  0  0  0  0  0  0  0  0  0  0
  138.9970   80.8320  222.2040 C   0  0  0  0  0  0  0  0  0  0  0  0
  140.2400   78.4840  222.5800 C   0  0  0  0  0  0  0  0  0  0  0  0
  140.7880   79.7724  219.8395 H   0  0  0  0  0  0  0  0  0  0  0  0
  141.9351   78.9642  218.7181 H   0  0  0  0  0  0  0  0  0  0  0  0
  140.2002   78.4983  218.7181 H   0  0  0  0  0  0  0  0  0  0  0  0
  142.2687   77.1980  220.2405 H   0  0  0  0  0  0  0  0  0  0  0  0
  139.6920   76.7070  219.5550 H   0  0  0  0  0  0  0  0  0  0  0  0
  138.2149   75.1305  221.2915 H   0  0  0  0  0  0  0  0  0  0  0  0
  139.2544   74.2643  220.1285 H   0  0  0  0  0  0  0  0  0  0  0  0
  139.7970   73.9010  223.0470 H   0  0  0  0  0  0  0  0  0  0  0  0
  138.4221   69.6555  222.0792 H   0  0  0  0  0  0  0  0  0  0  0  0
  138.8157   68.0345  223.9424 H   0  0  0  0  0  0  0  0  0  0  0  0
  139.7534   67.7090  226.1979 H   0  0  0  0  0  0  0  0  0  0  0  0
  141.6136   70.9798  228.2758 H   0  0  0  0  0  0  0  0  0  0  0  0
  141.1343   72.4917  226.3281 H   0  0  0  0  0  0  0  0  0  0  0  0
  142.2159   77.9149  222.2961 H   0  0  0  0  0  0  0  0  0  0  0  0
  142.8272   79.8844  220.7652 H   0  0  0  0  0  0  0  0  0  0  0  0
  141.2104   80.5522  221.0840 H   0  0  0  0  0  0  0  0  0  0  0  0
  143.5658   80.2248  222.9080 H   0  0  0  0  0  0  0  0  0  0  0  0
  142.2872   81.4887  222.8910 H   0  0  0  0  0  0  0  0  0  0  0  0
  142.2920   78.7531  224.1107 H   0  0  0  0  0  0  0  0  0  0  0  0
  141.7766   80.3847  224.7805 H   0  0  0  0  0  0  0  0  0  0  0  0
  140.3445   81.4389  223.7978 H   0  0  0  0  0  0  0  0  0  0  0  0
  137.9292   79.5189  224.3344 H   0  0  0  0  0  0  0  0  0  0  0  0
  138.6503   80.5592  225.5350 H   0  0  0  0  0  0  0  0  0  0  0  0
  136.4785   81.4267  224.2174 H   0  0  0  0  0  0  0  0  0  0  0  0
  137.7822   82.5878  224.4229 H   0  0  0  0  0  0  0  0  0  0  0  0
  136.8768   81.1325  221.9917 H   0  0  0  0  0  0  0  0  0  0  0  0
  137.8194   82.6403  222.1020 H   0  0  0  0  0  0  0  0  0  0  0  0
  138.7579   79.8635  221.7405 H   0  0  0  0  0  0  0  0  0  0  0  0
  139.6624   81.3589  221.5043 H   0  0  0  0  0  0  0  0  0  0  0  0
  140.0805   77.4755  222.9892 H   0  0  0  0  0  0  0  0  0  0  0  0
  139.3719   78.7789  221.9722 H   0  0  0  0  0  0  0  0  0  0  0  0
  1  2  1  0
  2  3  1  0
  3  4  1  0
  4  5  2  0
  4  6  1  0
  6  7  1  0
  7  8  1  0
  8  9  2  0
  8 10  1  0
 10 11  2  0
 11 12  1  0
 12 13  2  0
 13 14  1  0
 14 15  2  0
 15 16  1  0
 15 17  1  0
 17 18  2  0
 18 19  1  0
 19 20  2  0
  2 21  1  0
 21 22  1  0
 22 23  1  0
 23 24  1  0
 24 25  1  0
 25 26  1  0
 26 27  1  0
 27 28  1  0
 28 29  1  0
 29 30  1  0
 25 31  1  0
 20 10  1  0
 31 21  1  0
 19 13  1  0
 30 26  1  0
  1 32  1  0
  1 33  1  0
  1 34  1  0
  2 35  1  6
  3 36  1  0
  6 37  1  0
  6 38  1  0
  7 39  1  0
 11 40  1  0
 12 41  1  0
 14 42  1  0
 17 43  1  0
 18 44  1  0
 21 45  1  1
 22 46  1  0
 22 47  1  0
 23 48  1  0
 23 49  1  0
 24 50  1  0
 24 51  1  0
 26 52  1  0
 27 53  1  0
 27 54  1  0
 28 55  1  0
 28 56  1  0
 29 57  1  0
 29 58  1  0
 30 59  1  0
 30 60  1  0
 31 61  1  0
 31 62  1  0
M  END
>  <smiles>  (28) 
C[C@H](NC(=O)CNC(=O)c1ccc2cc(Cl)ccc2n1)[C@H]1CCCN(C2CCCC2)C1

>  <score_type>  (28) 
oracle

>  <origin>  (28) 
autodockgpu

>  <m_score__min__energy>  (28) 
-9.0800000000000001

>  <m_primary>  (28) 
energy

>  <rmsd>  (28) 
4.049492858674892

>  <m_score__min__rmsd>  (28) 
4.049492858674892

>  <meeko>  (28) 
{"free_energy": -8.99, "intermolecular_energy": -10.77, "internal_energy": -2.23, "cluster_size": 28, "cluster_id": 1, "rank_in_cluster": 3}

>  <energy>  (28) 
-7.78

>  <cluster_rmsd>  (28) 
1.76

>  <cluster>  (28) 
1

$$$$

     RDKit          3D

 62 65  0  0  0  0  0  0  0  0999 V2000
  141.4860   77.8590  219.4840 C   0  0  0  0  0  0  0  0  0  0  0  0
  141.3240   77.0300  220.7770 C   0  0  2  0  0  0  0  0  0  0  0  0
  140.1810   76.1910  220.7170 N   0  0  0  0  0  0  0  0  0  0  0  0
  140.1150   74.8890  221.3400 C   0  0  0  0  0  0  0  0  0  0  0  0
  141.0840   74.4220  221.9760 O   0  0  0  0  0  0  0  0  0  0  0  0
  138.8230   74.1650  221.1570 C   0  0  0  0  0  0  0  0  0  0  0  0
  137.8440   74.7860  222.0130 N   0  0  0  0  0  0  0  0  0  0  0  0
  137.2080   76.0090  221.8160 C   0  0  0  0  0  0  0  0  0  0  0  0
  137.4550   76.7120  220.8140 O   0  0  0  0  0  0  0  0  0  0  0  0
  136.2220   76.4760  222.8240 C   0  0  0  0  0  0  0  0  0  0  0  0
  135.6490   77.7230  222.7270 C   0  0  0  0  0  0  0  0  0  0  0  0
  134.7310   78.2110  223.6500 C   0  0  0  0  0  0  0  0  0  0  0  0
  134.4160   77.3480  224.6950 C   0  0  0  0  0  0  0  0  0  0  0  0
  133.5100   77.7190  225.6760 C   0  0  0  0  0  0  0  0  0  0  0  0
  133.1840   76.8540  226.7300 C   0  0  0  0  0  0  0  0  0  0  0  0
  132.0290   77.3420  227.9690 Cl  0  0  0  0  0  0  0  0  0  0  0  0
  133.7830   75.6130  226.7820 C   0  0  0  0  0  0  0  0  0  0  0  0
  134.7050   75.2110  225.8040 C   0  0  0  0  0  0  0  0  0  0  0  0
  134.9930   76.1070  224.7820 C   0  0  0  0  0  0  0  0  0  0  0  0
  135.8940   75.6500  223.8630 N   0  0  0  0  0  0  0  0  0  0  0  0
  141.3780   78.0140  221.9110 C   0  0  1  0  0  0  0  0  0  0  0  0
  141.7750   79.4030  221.4100 C   0  0  0  0  0  0  0  0  0  0  0  0
  142.1940   80.2010  222.6140 C   0  0  0  0  0  0  0  0  0  0  0  0
  141.5320   79.6570  223.8320 C   0  0  0  0  0  0  0  0  0  0  0  0
  140.1990   79.1900  223.6330 N   0  0  0  0  0  0  0  0  0  0  0  0
  139.3300   80.2950  223.3070 C   0  0  0  0  0  0  0  0  0  0  0  0
  138.3600   80.4920  224.4710 C   0  0  0  0  0  0  0  0  0  0  0  0
  137.2900   81.3590  223.8470 C   0  0  0  0  0  0  0  0  0  0  0  0
  137.1530   80.8230  222.4590 C   0  0  0  0  0  0  0  0  0  0  0  0
  138.3830   79.9960  222.1690 C   0  0  0  0  0  0  0  0  0  0  0  0
  140.1390   78.0660  222.7620 C   0  0  0  0  0  0  0  0  0  0  0  0
  141.6910   78.9079  219.7442 H   0  0  0  0  0  0  0  0  0  0  0  0
  142.3227   77.4575  218.8934 H   0  0  0  0  0  0  0  0  0  0  0  0
  140.5597   77.8020  218.8934 H   0  0  0  0  0  0  0  0  0  0  0  0
  142.1324   76.2996  220.9286 H   0  0  0  0  0  0  0  0  0  0  0  0
  139.3380   76.5650  220.1800 H   0  0  0  0  0  0  0  0  0  0  0  0
  138.5004   74.2349  220.1077 H   0  0  0  0  0  0  0  0  0  0  0  0
  138.9389   73.1019  221.4145 H   0  0  0  0  0  0  0  0  0  0  0  0
  137.5910   74.2330  222.8900 H   0  0  0  0  0  0  0  0  0  0  0  0
  135.9306   78.3644  221.8789 H   0  0  0  0  0  0  0  0  0  0  0  0
  134.2838   79.2120  223.5602 H   0  0  0  0  0  0  0  0  0  0  0  0
  133.0376   78.7112  225.6266 H   0  0  0  0  0  0  0  0  0  0  0  0
  133.5336   74.9265  227.6045 H   0  0  0  0  0  0  0  0  0  0  0  0
  135.1831   74.2212  225.8449 H   0  0  0  0  0  0  0  0  0  0  0  0
  142.1614   77.6380  222.5854 H   0  0  0  0  0  0  0  0  0  0  0  0
  142.6111   79.3237  220.6996 H   0  0  0  0  0  0  0  0  0  0  0  0
  140.9355   79.8878  220.8902 H   0  0  0  0  0  0  0  0  0  0  0  0
  143.2858   80.1383  222.7324 H   0  0  0  0  0  0  0  0  0  0  0  0
  141.8971   81.2512  222.4763 H   0  0  0  0  0  0  0  0  0  0  0  0
  142.1368   78.8164  224.2031 H   0  0  0  0  0  0  0  0  0  0  0  0
  141.4633   80.4919  224.5448 H   0  0  0  0  0  0  0  0  0  0  0  0
  139.9961   81.1379  223.0705 H   0  0  0  0  0  0  0  0  0  0  0  0
  137.9467   79.5318  224.8134 H   0  0  0  0  0  0  0  0  0  0  0  0
  138.8242   80.9353  225.3643 H   0  0  0  0  0  0  0  0  0  0  0  0
  136.3419   81.2664  224.3971 H   0  0  0  0  0  0  0  0  0  0  0  0
  137.5486   82.4280  223.8640 H   0  0  0  0  0  0  0  0  0  0  0  0
  136.2525   80.1955  222.3858 H   0  0  0  0  0  0  0  0  0  0  0  0
  137.0583   81.6446  221.7337 H   0  0  0  0  0  0  0  0  0  0  0  0
  138.1325   78.9252  222.1452 H   0  0  0  0  0  0  0  0  0  0  0  0
  138.8229   80.2375  221.1901 H   0  0  0  0  0  0  0  0  0  0  0  0
  140.0671   77.1449  223.3590 H   0  0  0  0  0  0  0  0  0  0  0  0
  139.2559   78.1567  222.1125 H   0  0  0  0  0  0  0  0  0  0  0  0
  1  2  1  0
  2  3  1  0
  3  4  1  0
  4  5  2  0
  4  6  1  0
  6  7  1  0
  7  8  1  0
  8  9  2  0
  8 10  1  0
 10 11  2  0
 11 12  1  0
 12 13  2  0
 13 14  1  0
 14 15  2  0
 15 16  1  0
 15 17  1  0
 17 18  2  0
 18 19  1  0
 19 20  2  0
  2 21  1  0
 21 22  1  0
 22 23  1  0
 23 24  1  0
 24 25  1  0
 25 26  1  0
 26 27  1  0
 27 28  1  0
 28 29  1  0
 29 30  1  0
 25 31  1  0
 20 10  1  0
 31 21  1  0
 19 13  1  0
 30 26  1  0
  1 32  1  0
  1 33  1  0
  1 34  1  0
  2 35  1  1
  3 36  1  0
  6 37  1  0
  6 38  1  0
  7 39  1  0
 11 40  1  0
 12 41  1  0
 14 42  1  0
 17 43  1  0
 18 44  1  0
 21 45  1  1
 22 46  1  0
 22 47  1  0
 23 48  1  0
 23 49  1  0
 24 50  1  0
 24 51  1  0
 26 52  1  0
 27 53  1  0
 27 54  1  0
 28 55  1  0
 28 56  1  0
 29 57  1  0
 29 58  1  0
 30 59  1  0
 30 60  1  0
 31 61  1  0
 31 62  1  0
M  END
>  <smiles>  (29) 
C[C@H](NC(=O)CNC(=O)c1ccc2cc(Cl)ccc2n1)[C@H]1CCCN(C2CCCC2)C1

>  <score_type>  (29) 
oracle

>  <origin>  (29) 
autodockgpu

>  <m_score__min__energy>  (29) 
-9.0800000000000001

>  <m_primary>  (29) 
energy

>  <rmsd>  (29) 
6.2535478433870395

>  <m_score__min__rmsd>  (29) 
6.2535478433870395

>  <meeko>  (29) 
{"free_energy": -7.03, "intermolecular_energy": -8.82, "internal_energy": -3.6, "cluster_size": 12, "cluster_id": 5, "rank_in_cluster": 1}

>  <energy>  (29) 
-7.89

>  <cluster_rmsd>  (29) 
0.0

>  <cluster>  (29) 
2

$$$$

     RDKit          3D

 62 65  0  0  0  0  0  0  0  0999 V2000
  142.8030   75.5140  217.5960 C   0  0  0  0  0  0  0  0  0  0  0  0
  142.4520   74.1930  218.3170 C   0  0  2  0  0  0  0  0  0  0  0  0
  141.3030   74.3380  219.1370 N   0  0  0  0  0  0  0  0  0  0  0  0
  141.2110   75.2930  220.2170 C   0  0  0  0  0  0  0  0  0  0  0  0
  142.1610   76.0570  220.4930 O   0  0  0  0  0  0  0  0  0  0  0  0
  139.9160   75.2860  220.9600 C   0  0  0  0  0  0  0  0  0  0  0  0
  139.9500   74.1880  221.8940 N   0  0  0  0  0  0  0  0  0  0  0  0
  140.0150   72.8300  221.5960 C   0  0  0  0  0  0  0  0  0  0  0  0
  140.0480   72.4290  220.4140 O   0  0  0  0  0  0  0  0  0  0  0  0
  140.0420   71.8510  222.7120 C   0  0  0  0  0  0  0  0  0  0  0  0
  139.5810   70.5660  222.5360 C   0  0  0  0  0  0  0  0  0  0  0  0
  139.5740   69.6160  223.5500 C   0  0  0  0  0  0  0  0  0  0  0  0
  140.0700   70.0460  224.7770 C   0  0  0  0  0  0  0  0  0  0  0  0
  140.1190   69.1890  225.8650 C   0  0  0  0  0  0  0  0  0  0  0  0
  140.6220   69.6130  227.1030 C   0  0  0  0  0  0  0  0  0  0  0  0
  140.6760   68.5090  228.4760 Cl  0  0  0  0  0  0  0  0  0  0  0  0
  141.0740   70.9090  227.2290 C   0  0  0  0  0  0  0  0  0  0  0  0
  141.0360   71.7990  226.1450 C   0  0  0  0  0  0  0  0  0  0  0  0
  140.5270   71.3290  224.9420 C   0  0  0  0  0  0  0  0  0  0  0  0
  140.5230   72.2450  223.9290 N   0  0  0  0  0  0  0  0  0  0  0  0
  143.7130   73.7440  218.9970 C   0  0  1  0  0  0  0  0  0  0  0  0
  143.4150   73.1870  220.3890 C   0  0  0  0  0  0  0  0  0  0  0  0
  144.7210   73.1450  221.1350 C   0  0  0  0  0  0  0  0  0  0  0  0
  145.8490   73.0480  220.1670 C   0  0  0  0  0  0  0  0  0  0  0  0
  145.5840   72.2480  219.0160 N   0  0  0  0  0  0  0  0  0  0  0  0
  145.4190   70.8670  219.4000 C   0  0  0  0  0  0  0  0  0  0  0  0
  146.2820   70.0120  218.4740 C   0  0  0  0  0  0  0  0  0  0  0  0
  145.7140   68.6290  218.6990 C   0  0  0  0  0  0  0  0  0  0  0  0
  144.2430   68.8580  218.8310 C   0  0  0  0  0  0  0  0  0  0  0  0
  144.0370   70.3280  219.1110 C   0  0  0  0  0  0  0  0  0  0  0  0
  144.5620   72.7980  218.1930 C   0  0  0  0  0  0  0  0  0  0  0  0
  143.0105   76.2951  218.3422 H   0  0  0  0  0  0  0  0  0  0  0  0
  143.6922   75.3630  216.9663 H   0  0  0  0  0  0  0  0  0  0  0  0
  141.9561   75.8243  216.9663 H   0  0  0  0  0  0  0  0  0  0  0  0
  142.1389   73.3925  217.6306 H   0  0  0  0  0  0  0  0  0  0  0  0
  140.4760   73.6990  218.9230 H   0  0  0  0  0  0  0  0  0  0  0  0
  139.7905   76.2348  221.5022 H   0  0  0  0  0  0  0  0  0  0  0  0
  139.0732   75.1713  220.2624 H   0  0  0  0  0  0  0  0  0  0  0  0
  139.9220   74.4680  222.9240 H   0  0  0  0  0  0  0  0  0  0  0  0
  139.1999   70.2774  221.5453 H   0  0  0  0  0  0  0  0  0  0  0  0
  139.2015   68.5929  223.3934 H   0  0  0  0  0  0  0  0  0  0  0  0
  139.7563   68.1564  225.7551 H   0  0  0  0  0  0  0  0  0  0  0  0
  141.4713   71.2514  228.1959 H   0  0  0  0  0  0  0  0  0  0  0  0
  141.3970   72.8333  226.2449 H   0  0  0  0  0  0  0  0  0  0  0  0
  144.3274   74.6509  219.0974 H   0  0  0  0  0  0  0  0  0  0  0  0
  142.7017   73.8405  220.9126 H   0  0  0  0  0  0  0  0  0  0  0  0
  142.9682   72.1840  220.3230 H   0  0  0  0  0  0  0  0  0  0  0  0
  144.8302   74.0617  221.7331 H   0  0  0  0  0  0  0  0  0  0  0  0
  144.7336   72.2676  221.7983 H   0  0  0  0  0  0  0  0  0  0  0  0
  146.0965   74.0645  219.8273 H   0  0  0  0  0  0  0  0  0  0  0  0
  146.6742   72.5556  220.7023 H   0  0  0  0  0  0  0  0  0  0  0  0
  145.6563   70.8259  220.4733 H   0  0  0  0  0  0  0  0  0  0  0  0
  146.1713   70.3233  217.4248 H   0  0  0  0  0  0  0  0  0  0  0  0
  147.3600   70.0866  218.6798 H   0  0  0  0  0  0  0  0  0  0  0  0
  145.9322   67.9730  217.8434 H   0  0  0  0  0  0  0  0  0  0  0  0
  146.1456   68.1329  219.5809 H   0  0  0  0  0  0  0  0  0  0  0  0
  143.7338   68.5784  217.8969 H   0  0  0  0  0  0  0  0  0  0  0  0
  143.8265   68.2460  219.6446 H   0  0  0  0  0  0  0  0  0  0  0  0
  143.6008   70.8312  218.2355 H   0  0  0  0  0  0  0  0  0  0  0  0
  143.3437   70.4966  219.9482 H   0  0  0  0  0  0  0  0  0  0  0  0
  145.0217   73.3425  217.3550 H   0  0  0  0  0  0  0  0  0  0  0  0
  143.9312   71.9844  217.8055 H   0  0  0  0  0  0  0  0  0  0  0  0
  1  2  1  0
  2  3  1  0
  3  4  1  0
  4  5  2  0
  4  6  1  0
  6  7  1  0
  7  8  1  0
  8  9  2  0
  8 10  1  0
 10 11  2  0
 11 12  1  0
 12 13  2  0
 13 14  1  0
 14 15  2  0
 15 16  1  0
 15 17  1  0
 17 18  2  0
 18 19  1  0
 19 20  2  0
  2 21  1  0
 21 22  1  0
 22 23  1  0
 23 24  1  0
 24 25  1  0
 25 26  1  0
 26 27  1  0
 27 28  1  0
 28 29  1  0
 29 30  1  0
 25 31  1  0
 20 10  1  0
 31 21  1  0
 19 13  1  0
 30 26  1  0
  1 32  1  0
  1 33  1  0
  1 34  1  0
  2 35  1  6
  3 36  1  0
  6 37  1  0
  6 38  1  0
  7 39  1  0
 11 40  1  0
 12 41  1  0
 14 42  1  0
 17 43  1  0
 18 44  1  0
 21 45  1  1
 22 46  1  0
 22 47  1  0
 23 48  1  0
 23 49  1  0
 24 50  1  0
 24 51  1  0
 26 52  1  0
 27 53  1  0
 27 54  1  0
 28 55  1  0
 28 56  1  0
 29 57  1  0
 29 58  1  0
 30 59  1  0
 30 60  1  0
 31 61  1  0
 31 62  1  0
M  END
>  <smiles>  (30) 
C[C@H](NC(=O)CNC(=O)c1ccc2cc(Cl)ccc2n1)[C@H]1CCCN(C2CCCC2)C1

>  <score_type>  (30) 
oracle

>  <origin>  (30) 
autodockgpu

>  <m_score__min__energy>  (30) 
-9.0800000000000001

>  <m_primary>  (30) 
energy

>  <rmsd>  (30) 
6.222503864303484

>  <m_score__min__rmsd>  (30) 
6.222503864303484

>  <meeko>  (30) 
{"free_energy": -7.87, "intermolecular_energy": -9.66, "internal_energy": -2.73, "cluster_size": 3, "cluster_id": 2, "rank_in_cluster": 2}

>  <energy>  (30) 
-7.87

>  <cluster_rmsd>  (30) 
0.65

>  <cluster>  (30) 
2

$$$$

     RDKit          3D

 62 65  0  0  0  0  0  0  0  0999 V2000
  141.6360   77.1350  220.1410 C   0  0  0  0  0  0  0  0  0  0  0  0
  141.0720   76.6600  221.4990 C   0  0  2  0  0  0  0  0  0  0  0  0
  139.8650   75.9310  221.3340 N   0  0  0  0  0  0  0  0  0  0  0  0
  139.7420   74.5200  221.6190 C   0  0  0  0  0  0  0  0  0  0  0  0
  140.7150   73.8520  222.0320 O   0  0  0  0  0  0  0  0  0  0  0  0
  138.3880   73.9410  221.3780 C   0  0  0  0  0  0  0  0  0  0  0  0
  137.4580   74.6190  222.2460 N   0  0  0  0  0  0  0  0  0  0  0  0
  136.8970   75.8790  222.0600 C   0  0  0  0  0  0  0  0  0  0  0  0
  137.1780   76.5710  221.0590 O   0  0  0  0  0  0  0  0  0  0  0  0
  135.9520   76.4020  223.0800 C   0  0  0  0  0  0  0  0  0  0  0  0
  135.4930   77.6980  223.0190 C   0  0  0  0  0  0  0  0  0  0  0  0
  134.6180   78.2380  223.9540 C   0  0  0  0  0  0  0  0  0  0  0  0
  134.2230   77.3770  224.9730 C   0  0  0  0  0  0  0  0  0  0  0  0
  133.3490   77.7970  225.9620 C   0  0  0  0  0  0  0  0  0  0  0  0
  132.9420   76.9340  226.9900 C   0  0  0  0  0  0  0  0  0  0  0  0
  131.8300   77.4870  228.2400 Cl  0  0  0  0  0  0  0  0  0  0  0  0
  133.4290   75.6440  227.0050 C   0  0  0  0  0  0  0  0  0  0  0  0
  134.3160   75.1910  226.0180 C   0  0  0  0  0  0  0  0  0  0  0  0
  134.6870   76.0870  225.0230 C   0  0  0  0  0  0  0  0  0  0  0  0
  135.5480   75.5790  224.0930 N   0  0  0  0  0  0  0  0  0  0  0  0
  141.0080   77.8810  222.3710 C   0  0  1  0  0  0  0  0  0  0  0  0
  141.4530   79.1250  221.6020 C   0  0  0  0  0  0  0  0  0  0  0  0
  141.7440   80.1910  222.6230 C   0  0  0  0  0  0  0  0  0  0  0  0
  140.9610   79.9270  223.8620 C   0  0  0  0  0  0  0  0  0  0  0  0
  139.6550   79.3940  223.6440 N   0  0  0  0  0  0  0  0  0  0  0  0
  138.8240   80.3720  222.9850 C   0  0  0  0  0  0  0  0  0  0  0  0
  137.7590   80.8330  223.9770 C   0  0  0  0  0  0  0  0  0  0  0  0
  136.7510   81.5030  223.0710 C   0  0  0  0  0  0  0  0  0  0  0  0
  136.7310   80.6410  221.8510 C   0  0  0  0  0  0  0  0  0  0  0  0
  137.9780   79.7880  221.8780 C   0  0  0  0  0  0  0  0  0  0  0  0
  139.6870   78.0980  223.0570 C   0  0  0  0  0  0  0  0  0  0  0  0
  142.4669   77.8348  220.3137 H   0  0  0  0  0  0  0  0  0  0  0  0
  141.9998   76.2672  219.5713 H   0  0  0  0  0  0  0  0  0  0  0  0
  140.8427   77.6411  219.5713 H   0  0  0  0  0  0  0  0  0  0  0  0
  141.7137   75.9221  222.0028 H   0  0  0  0  0  0  0  0  0  0  0  0
  139.0180   76.4770  220.9840 H   0  0  0  0  0  0  0  0  0  0  0  0
  138.0979   74.0921  220.3278 H   0  0  0  0  0  0  0  0  0  0  0  0
  138.3896   72.8607  221.5854 H   0  0  0  0  0  0  0  0  0  0  0  0
  137.1800   74.0780  223.1240 H   0  0  0  0  0  0  0  0  0  0  0  0
  135.8348   78.3366  222.1911 H   0  0  0  0  0  0  0  0  0  0  0  0
  134.2615   79.2768  223.8925 H   0  0  0  0  0  0  0  0  0  0  0  0
  132.9664   78.8281  225.9408 H   0  0  0  0  0  0  0  0  0  0  0  0
  133.1160   74.9579  227.8058 H   0  0  0  0  0  0  0  0  0  0  0  0
  134.7046   74.1620  226.0310 H   0  0  0  0  0  0  0  0  0  0  0  0
  141.7181   77.6919  223.1896 H   0  0  0  0  0  0  0  0  0  0  0  0
  142.3583   78.9043  221.0174 H   0  0  0  0  0  0  0  0  0  0  0  0
  140.6716   79.4545  220.9015 H   0  0  0  0  0  0  0  0  0  0  0  0
  142.8179   80.1857  222.8611 H   0  0  0  0  0  0  0  0  0  0  0  0
  141.4606   81.1726  222.2154 H   0  0  0  0  0  0  0  0  0  0  0  0
  141.5249   79.2098  224.4765 H   0  0  0  0  0  0  0  0  0  0  0  0
  140.8192   80.9018  224.3516 H   0  0  0  0  0  0  0  0  0  0  0  0
  139.5125   81.1423  222.6074 H   0  0  0  0  0  0  0  0  0  0  0  0
  137.3127   79.9798  224.5088 H   0  0  0  0  0  0  0  0  0  0  0  0
  138.1471   81.4898  224.7695 H   0  0  0  0  0  0  0  0  0  0  0  0
  135.7587   81.5328  223.5448 H   0  0  0  0  0  0  0  0  0  0  0  0
  137.0127   82.5476  222.8466 H   0  0  0  0  0  0  0  0  0  0  0  0
  135.8371   80.0000  221.8585 H   0  0  0  0  0  0  0  0  0  0  0  0
  136.7029   81.2580  220.9407 H   0  0  0  0  0  0  0  0  0  0  0  0
  137.7253   78.7398  222.0958 H   0  0  0  0  0  0  0  0  0  0  0  0
  138.5023   79.7899  220.9110 H   0  0  0  0  0  0  0  0  0  0  0  0
  139.5540   77.3385  223.8416 H   0  0  0  0  0  0  0  0  0  0  0  0
  138.8764   78.0141  222.3182 H   0  0  0  0  0  0  0  0  0  0  0  0
  1  2  1  0
  2  3  1  0
  3  4  1  0
  4  5  2  0
  4  6  1  0
  6  7  1  0
  7  8  1  0
  8  9  2  0
  8 10  1  0
 10 11  2  0
 11 12  1  0
 12 13  2  0
 13 14  1  0
 14 15  2  0
 15 16  1  0
 15 17  1  0
 17 18  2  0
 18 19  1  0
 19 20  2  0
  2 21  1  0
 21 22  1  0
 22 23  1  0
 23 24  1  0
 24 25  1  0
 25 26  1  0
 26 27  1  0
 27 28  1  0
 28 29  1  0
 29 30  1  0
 25 31  1  0
 20 10  1  0
 31 21  1  0
 19 13  1  0
 30 26  1  0
  1 32  1  0
  1 33  1  0
  1 34  1  0
  2 35  1  1
  3 36  1  0
  6 37  1  0
  6 38  1  0
  7 39  1  0
 11 40  1  0
 12 41  1  0
 14 42  1  0
 17 43  1  0
 18 44  1  0
 21 45  1  1
 22 46  1  0
 22 47  1  0
 23 48  1  0
 23 49  1  0
 24 50  1  0
 24 51  1  0
 26 52  1  0
 27 53  1  0
 27 54  1  0
 28 55  1  0
 28 56  1  0
 29 57  1  0
 29 58  1  0
 30 59  1  0
 30 60  1  0
 31 61  1  0
 31 62  1  0
M  END
>  <smiles>  (31) 
C[C@H](NC(=O)CNC(=O)c1ccc2cc(Cl)ccc2n1)[C@H]1CCCN(C2CCCC2)C1

>  <score_type>  (31) 
oracle

>  <origin>  (31) 
autodockgpu

>  <m_score__min__energy>  (31) 
-9.0800000000000001

>  <m_primary>  (31) 
energy

>  <rmsd>  (31) 
6.341526630534346

>  <m_score__min__rmsd>  (31) 
6.341526630534346

>  <meeko>  (31) 
{"free_energy": -6.74, "intermolecular_energy": -8.53, "internal_energy": -3.57, "cluster_size": 12, "cluster_id": 5, "rank_in_cluster": 12}

>  <energy>  (31) 
-7.81

>  <cluster_rmsd>  (31) 
0.68

>  <cluster>  (31) 
2

$$$$

     RDKit          3D

 62 65  0  0  0  0  0  0  0  0999 V2000
  140.7530   78.2490  219.2620 C   0  0  0  0  0  0  0  0  0  0  0  0
  140.8090   77.4860  220.6050 C   0  0  2  0  0  0  0  0  0  0  0  0
  139.8700   76.4230  220.6380 N   0  0  0  0  0  0  0  0  0  0  0  0
  140.0250   75.2490  221.4650 C   0  0  0  0  0  0  0  0  0  0  0  0
  141.0190   75.1030  222.2090 O   0  0  0  0  0  0  0  0  0  0  0  0
  138.9250   74.2450  221.3530 C   0  0  0  0  0  0  0  0  0  0  0  0
  139.1540   73.2270  222.3470 N   0  0  0  0  0  0  0  0  0  0  0  0
  138.6290   71.9380  222.3690 C   0  0  0  0  0  0  0  0  0  0  0  0
  137.8620   71.5370  221.4680 O   0  0  0  0  0  0  0  0  0  0  0  0
  138.9910   71.0340  223.4900 C   0  0  0  0  0  0  0  0  0  0  0  0
  138.6230   69.7090  223.4760 C   0  0  0  0  0  0  0  0  0  0  0  0
  138.9270   68.8250  224.5050 C   0  0  0  0  0  0  0  0  0  0  0  0
  139.6400   69.3670  225.5690 C   0  0  0  0  0  0  0  0  0  0  0  0
  140.0070   68.5860  226.6530 C   0  0  0  0  0  0  0  0  0  0  0  0
  140.7300   69.1230  227.7270 C   0  0  0  0  0  0  0  0  0  0  0  0
  141.1870   68.1140  229.0970 Cl  0  0  0  0  0  0  0  0  0  0  0  0
  141.0780   70.4570  227.6930 C   0  0  0  0  0  0  0  0  0  0  0  0
  140.7190   71.2730  226.6100 C   0  0  0  0  0  0  0  0  0  0  0  0
  140.0030   70.6910  225.5730 C   0  0  0  0  0  0  0  0  0  0  0  0
  139.6910   71.5390  224.5500 N   0  0  0  0  0  0  0  0  0  0  0  0
  140.6860   78.5280  221.6790 C   0  0  1  0  0  0  0  0  0  0  0  0
  142.0610   79.0530  222.0920 C   0  0  0  0  0  0  0  0  0  0  0  0
  141.8850   79.7610  223.4070 C   0  0  0  0  0  0  0  0  0  0  0  0
  140.4800   80.2370  223.5360 C   0  0  0  0  0  0  0  0  0  0  0  0
  139.8860   80.6930  222.3210 N   0  0  0  0  0  0  0  0  0  0  0  0
  140.5520   81.8890  221.8640 C   0  0  0  0  0  0  0  0  0  0  0  0
  139.4880   82.9590  221.6260 C   0  0  0  0  0  0  0  0  0  0  0  0
  140.2380   83.9700  220.7870 C   0  0  0  0  0  0  0  0  0  0  0  0
  141.0900   83.1330  219.8880 C   0  0  0  0  0  0  0  0  0  0  0  0
  141.1540   81.7470  220.4850 C   0  0  0  0  0  0  0  0  0  0  0  0
  139.7370   79.6510  221.3640 C   0  0  0  0  0  0  0  0  0  0  0  0
  140.6738   79.3287  219.4567 H   0  0  0  0  0  0  0  0  0  0  0  0
  141.6684   78.0464  218.6867 H   0  0  0  0  0  0  0  0  0  0  0  0
  139.8770   77.9149  218.6867 H   0  0  0  0  0  0  0  0  0  0  0  0
  141.7579   76.9527  220.7636 H   0  0  0  0  0  0  0  0  0  0  0  0
  139.0100   76.5210  220.0130 H   0  0  0  0  0  0  0  0  0  0  0  0
  137.9548   74.7314  221.5324 H   0  0  0  0  0  0  0  0  0  0  0  0
  138.9104   73.8022  220.3462 H   0  0  0  0  0  0  0  0  0  0  0  0
  139.8020   73.5110  223.1460 H   0  0  0  0  0  0  0  0  0  0  0  0
  138.0613   69.3306  222.6092 H   0  0  0  0  0  0  0  0  0  0  0  0
  138.6240   67.7679  224.4794 H   0  0  0  0  0  0  0  0  0  0  0  0
  139.7252   67.5229  226.6711 H   0  0  0  0  0  0  0  0  0  0  0  0
  141.6470   70.8886  228.5296 H   0  0  0  0  0  0  0  0  0  0  0  0
  140.9953   72.3374  226.5834 H   0  0  0  0  0  0  0  0  0  0  0  0
  140.2282   78.0100  222.5346 H   0  0  0  0  0  0  0  0  0  0  0  0
  142.7664   78.2165  222.2049 H   0  0  0  0  0  0  0  0  0  0  0  0
  142.4655   79.7354  221.3300 H   0  0  0  0  0  0  0  0  0  0  0  0
  142.1130   79.0670  224.2294 H   0  0  0  0  0  0  0  0  0  0  0  0
  142.5673   80.6227  223.4512 H   0  0  0  0  0  0  0  0  0  0  0  0
  139.8719   79.4060  223.9228 H   0  0  0  0  0  0  0  0  0  0  0  0
  140.5093   81.1058  224.2101 H   0  0  0  0  0  0  0  0  0  0  0  0
  141.3176   82.1130  222.6214 H   0  0  0  0  0  0  0  0  0  0  0  0
  138.6248   82.5495  221.0809 H   0  0  0  0  0  0  0  0  0  0  0  0
  139.0662   83.3776  222.5517 H   0  0  0  0  0  0  0  0  0  0  0  0
  139.5403   84.5869  220.2016 H   0  0  0  0  0  0  0  0  0  0  0  0
  140.8270   84.6718  221.3958 H   0  0  0  0  0  0  0  0  0  0  0  0
  140.6452   83.0889  218.8829 H   0  0  0  0  0  0  0  0  0  0  0  0
  142.0983   83.5634  219.7983 H   0  0  0  0  0  0  0  0  0  0  0  0
  140.5710   81.0375  219.8794 H   0  0  0  0  0  0  0  0  0  0  0  0
  142.1825   81.3586  220.5203 H   0  0  0  0  0  0  0  0  0  0  0  0
  138.7039   79.2744  221.3925 H   0  0  0  0  0  0  0  0  0  0  0  0
  139.9614   80.0447  220.3617 H   0  0  0  0  0  0  0  0  0  0  0  0
  1  2  1  0
  2  3  1  0
  3  4  1  0
  4  5  2  0
  4  6  1  0
  6  7  1  0
  7  8  1  0
  8  9  2  0
  8 10  1  0
 10 11  2  0
 11 12  1  0
 12 13  2  0
 13 14  1  0
 14 15  2  0
 15 16  1  0
 15 17  1  0
 17 18  2  0
 18 19  1  0
 19 20  2  0
  2 21  1  0
 21 22  1  0
 22 23  1  0
 23 24  1  0
 24 25  1  0
 25 26  1  0
 26 27  1  0
 27 28  1  0
 28 29  1  0
 29 30  1  0
 25 31  1  0
 20 10  1  0
 31 21  1  0
 19 13  1  0
 30 26  1  0
  1 32  1  0
  1 33  1  0
  1 34  1  0
  2 35  1  1
  3 36  1  0
  6 37  1  0
  6 38  1  0
  7 39  1  0
 11 40  1  0
 12 41  1  0
 14 42  1  0
 17 43  1  0
 18 44  1  0
 21 45  1  1
 22 46  1  0
 22 47  1  0
 23 48  1  0
 23 49  1  0
 24 50  1  0
 24 51  1  0
 26 52  1  0
 27 53  1  0
 27 54  1  0
 28 55  1  0
 28 56  1  0
 29 57  1  0
 29 58  1  0
 30 59  1  0
 30 60  1  0
 31 61  1  0
 31 62  1  0
M  END
>  <smiles>  (32) 
C[C@H](NC(=O)CNC(=O)c1ccc2cc(Cl)ccc2n1)[C@H]1CCCN(C2CCCC2)C1

>  <score_type>  (32) 
oracle

>  <origin>  (32) 
autodockgpu

>  <m_score__min__energy>  (32) 
-9.0800000000000001

>  <m_primary>  (32) 
energy

>  <rmsd>  (32) 
4.109537259086029

>  <m_score__min__rmsd>  (32) 
4.109537259086029

>  <meeko>  (32) 
{"free_energy": -8.34, "intermolecular_energy": -10.13, "internal_energy": -2.33, "cluster_size": 28, "cluster_id": 1, "rank_in_cluster": 21}

>  <energy>  (32) 
-7.8

>  <cluster_rmsd>  (32) 
0.0

>  <cluster>  (32) 
3

$$$$

     RDKit          3D

 62 65  0  0  0  0  0  0  0  0999 V2000
  137.9480   76.4340  223.0790 C   0  0  0  0  0  0  0  0  0  0  0  0
  137.9200   76.4000  221.5340 C   0  0  2  0  0  0  0  0  0  0  0  0
  138.3230   75.1340  221.0350 N   0  0  0  0  0  0  0  0  0  0  0  0
  137.3970   74.0730  220.7140 C   0  0  0  0  0  0  0  0  0  0  0  0
  136.1640   74.2160  220.8660 O   0  0  0  0  0  0  0  0  0  0  0  0
  138.0240   72.8180  220.2040 C   0  0  0  0  0  0  0  0  0  0  0  0
  138.4050   72.0200  221.3430 N   0  0  0  0  0  0  0  0  0  0  0  0
  139.3180   72.3550  222.3380 C   0  0  0  0  0  0  0  0  0  0  0  0
  139.9240   73.4480  222.3190 O   0  0  0  0  0  0  0  0  0  0  0  0
  139.5720   71.3870  223.4350 C   0  0  0  0  0  0  0  0  0  0  0  0
  139.2660   70.0540  223.2870 C   0  0  0  0  0  0  0  0  0  0  0  0
  139.4740   69.1110  224.2860 C   0  0  0  0  0  0  0  0  0  0  0  0
  140.0210   69.6010  225.4680 C   0  0  0  0  0  0  0  0  0  0  0  0
  140.2790   68.7580  226.5370 C   0  0  0  0  0  0  0  0  0  0  0  0
  140.8350   69.2420  227.7290 C   0  0  0  0  0  0  0  0  0  0  0  0
  141.1560   68.1550  229.0780 Cl  0  0  0  0  0  0  0  0  0  0  0  0
  141.1270   70.5860  227.8280 C   0  0  0  0  0  0  0  0  0  0  0  0
  140.8750   71.4640  226.7630 C   0  0  0  0  0  0  0  0  0  0  0  0
  140.3230   70.9320  225.6050 C   0  0  0  0  0  0  0  0  0  0  0  0
  140.1080   71.8400  224.6080 N   0  0  0  0  0  0  0  0  0  0  0  0
  138.7170   77.5880  221.0790 C   0  0  1  0  0  0  0  0  0  0  0  0
  138.0130   78.8930  221.4520 C   0  0  0  0  0  0  0  0  0  0  0  0
  138.6440   79.9830  220.6290 C   0  0  0  0  0  0  0  0  0  0  0  0
  140.0300   79.5900  220.2530 C   0  0  0  0  0  0  0  0  0  0  0  0
  140.7390   78.8600  221.2530 N   0  0  0  0  0  0  0  0  0  0  0  0
  140.9840   79.7020  222.4000 C   0  0  0  0  0  0  0  0  0  0  0  0
  141.9750   80.7880  221.9860 C   0  0  0  0  0  0  0  0  0  0  0  0
  142.4450   81.3140  223.3240 C   0  0  0  0  0  0  0  0  0  0  0  0
  142.5390   80.0930  224.1790 C   0  0  0  0  0  0  0  0  0  0  0  0
  141.7430   79.0010  223.5030 C   0  0  0  0  0  0  0  0  0  0  0  0
  140.1550   77.5900  221.5180 C   0  0  0  0  0  0  0  0  0  0  0  0
  137.2956   75.6419  223.4751 H   0  0  0  0  0  0  0  0  0  0  0  0
  138.9774   76.2712  223.4307 H   0  0  0  0  0  0  0  0  0  0  0  0
  137.5909   77.4132  223.4307 H   0  0  0  0  0  0  0  0  0  0  0  0
  136.9075   76.4956  221.1148 H   0  0  0  0  0  0  0  0  0  0  0  0
  139.3700   74.9830  220.8950 H   0  0  0  0  0  0  0  0  0  0  0  0
  137.3030   72.2649  219.5841 H   0  0  0  0  0  0  0  0  0  0  0  0
  138.9045   73.0519  219.5875 H   0  0  0  0  0  0  0  0  0  0  0  0
  137.9220   71.0710  221.4140 H   0  0  0  0  0  0  0  0  0  0  0  0
  138.8359   69.7185  222.3318 H   0  0  0  0  0  0  0  0  0  0  0  0
  139.2231   68.0485  224.1516 H   0  0  0  0  0  0  0  0  0  0  0  0
  140.0427   67.6874  226.4483 H   0  0  0  0  0  0  0  0  0  0  0  0
  141.5652   70.9767  228.7583 H   0  0  0  0  0  0  0  0  0  0  0  0
  141.1066   72.5364  226.8425 H   0  0  0  0  0  0  0  0  0  0  0  0
  138.7626   77.5051  219.9831 H   0  0  0  0  0  0  0  0  0  0  0  0
  136.9391   78.8214  221.2247 H   0  0  0  0  0  0  0  0  0  0  0  0
  138.1169   79.1021  222.5269 H   0  0  0  0  0  0  0  0  0  0  0  0
  138.0495   80.1435  219.7175 H   0  0  0  0  0  0  0  0  0  0  0  0
  138.6759   80.9116  221.2177 H   0  0  0  0  0  0  0  0  0  0  0  0
  139.9750   78.9660  219.3488 H   0  0  0  0  0  0  0  0  0  0  0  0
  140.5863   80.5268  220.1019 H   0  0  0  0  0  0  0  0  0  0  0  0
  139.9938   80.0410  222.7386 H   0  0  0  0  0  0  0  0  0  0  0  0
  142.8100   80.3669  221.4067 H   0  0  0  0  0  0  0  0  0  0  0  0
  141.5393   81.5602  221.3349 H   0  0  0  0  0  0  0  0  0  0  0  0
  143.4264   81.8018  223.2296 H   0  0  0  0  0  0  0  0  0  0  0  0
  141.7675   82.0729  223.7424 H   0  0  0  0  0  0  0  0  0  0  0  0
  143.5902   79.7845  224.2785 H   0  0  0  0  0  0  0  0  0  0  0  0
  142.1429   80.2940  225.1853 H   0  0  0  0  0  0  0  0  0  0  0  0
  142.4130   78.2348  223.0858 H   0  0  0  0  0  0  0  0  0  0  0  0
  141.0721   78.4822  224.2035 H   0  0  0  0  0  0  0  0  0  0  0  0
  140.7057   76.8130  220.9676 H   0  0  0  0  0  0  0  0  0  0  0  0
  140.2049   77.3859  222.5978 H   0  0  0  0  0  0  0  0  0  0  0  0
  1  2  1  0
  2  3  1  0
  3  4  1  0
  4  5  2  0
  4  6  1  0
  6  7  1  0
  7  8  1  0
  8  9  2  0
  8 10  1  0
 10 11  2  0
 11 12  1  0
 12 13  2  0
 13 14  1  0
 14 15  2  0
 15 16  1  0
 15 17  1  0
 17 18  2  0
 18 19  1  0
 19 20  2  0
  2 21  1  0
 21 22  1  0
 22 23  1  0
 23 24  1  0
 24 25  1  0
 25 26  1  0
 26 27  1  0
 27 28  1  0
 28 29  1  0
 29 30  1  0
 25 31  1  0
 20 10  1  0
 31 21  1  0
 19 13  1  0
 30 26  1  0
  1 32  1  0
  1 33  1  0
  1 34  1  0
  2 35  1  1
  3 36  1  0
  6 37  1  0
  6 38  1  0
  7 39  1  0
 11 40  1  0
 12 41  1  0
 14 42  1  0
 17 43  1  0
 18 44  1  0
 21 45  1  6
 22 46  1  0
 22 47  1  0
 23 48  1  0
 23 49  1  0
 24 50  1  0
 24 51  1  0
 26 52  1  0
 27 53  1  0
 27 54  1  0
 28 55  1  0
 28 56  1  0
 29 57  1  0
 29 58  1  0
 30 59  1  0
 30 60  1  0
 31 61  1  0
 31 62  1  0
M  END
>  <smiles>  (33) 
C[C@H](NC(=O)CNC(=O)c1ccc2cc(Cl)ccc2n1)[C@H]1CCCN(C2CCCC2)C1

>  <score_type>  (33) 
oracle

>  <origin>  (33) 
autodockgpu

>  <m_score__min__energy>  (33) 
-9.0800000000000001

>  <m_primary>  (33) 
energy

>  <rmsd>  (33) 
4.468374233883425

>  <m_score__min__rmsd>  (33) 
4.468374233883425

>  <meeko>  (33) 
{"free_energy": -7.78, "intermolecular_energy": -9.57, "internal_energy": -2.1, "cluster_size": 28, "cluster_id": 1, "rank_in_cluster": 28}

>  <energy>  (33) 
-7.73

>  <cluster_rmsd>  (33) 
0.32

>  <cluster>  (33) 
3

$$$$

     RDKit          3D

 62 65  0  0  0  0  0  0  0  0999 V2000
  141.4570   75.4930  217.7280 C   0  0  0  0  0  0  0  0  0  0  0  0
  141.1580   75.8060  219.2110 C   0  0  2  0  0  0  0  0  0  0  0  0
  140.0180   75.0980  219.6730 N   0  0  0  0  0  0  0  0  0  0  0  0
  139.7720   74.8060  221.0660 C   0  0  0  0  0  0  0  0  0  0  0  0
  140.5700   75.1680  221.9580 O   0  0  0  0  0  0  0  0  0  0  0  0
  138.5150   74.0490  221.3420 C   0  0  0  0  0  0  0  0  0  0  0  0
  138.8090   73.0590  222.3480 N   0  0  0  0  0  0  0  0  0  0  0  0
  138.3260   71.7550  222.4120 C   0  0  0  0  0  0  0  0  0  0  0  0
  137.5440   71.3120  221.5440 O   0  0  0  0  0  0  0  0  0  0  0  0
  138.7530   70.8860  223.5380 C   0  0  0  0  0  0  0  0  0  0  0  0
  138.3850   69.5620  223.5870 C   0  0  0  0  0  0  0  0  0  0  0  0
  138.7480   68.7100  224.6240 C   0  0  0  0  0  0  0  0  0  0  0  0
  139.5220   69.2850  225.6280 C   0  0  0  0  0  0  0  0  0  0  0  0
  139.9500   68.5380  226.7130 C   0  0  0  0  0  0  0  0  0  0  0  0
  140.7340   69.1070  227.7260 C   0  0  0  0  0  0  0  0  0  0  0  0
  141.2690   68.1410  229.0990 Cl  0  0  0  0  0  0  0  0  0  0  0  0
  141.0780   70.4390  227.6300 C   0  0  0  0  0  0  0  0  0  0  0  0
  140.6580   71.2210  226.5440 C   0  0  0  0  0  0  0  0  0  0  0  0
  139.8830   70.6070  225.5690 C   0  0  0  0  0  0  0  0  0  0  0  0
  139.5120   71.4240  224.5390 N   0  0  0  0  0  0  0  0  0  0  0  0
  141.1100   77.3040  219.3170 C   0  0  1  0  0  0  0  0  0  0  0  0
  139.7110   77.7790  219.7100 C   0  0  0  0  0  0  0  0  0  0  0  0
  139.6440   79.2490  219.4010 C   0  0  0  0  0  0  0  0  0  0  0  0
  141.0140   79.8320  219.4310 C   0  0  0  0  0  0  0  0  0  0  0  0
  141.8780   79.2830  220.4260 N   0  0  0  0  0  0  0  0  0  0  0  0
  141.3960   79.6240  221.7420 C   0  0  0  0  0  0  0  0  0  0  0  0
  142.3980   80.5850  222.3780 C   0  0  0  0  0  0  0  0  0  0  0  0
  142.0080   80.5290  223.8380 C   0  0  0  0  0  0  0  0  0  0  0  0
  141.6580   79.0940  224.0640 C   0  0  0  0  0  0  0  0  0  0  0  0
  141.4310   78.4640  222.7100 C   0  0  0  0  0  0  0  0  0  0  0  0
  142.1670   77.9090  220.1980 C   0  0  0  0  0  0  0  0  0  0  0  0
  142.2156   74.6988  217.6666 H   0  0  0  0  0  0  0  0  0  0  0  0
  140.5347   75.1583  217.2307 H   0  0  0  0  0  0  0  0  0  0  0  0
  141.8336   76.3990  217.2307 H   0  0  0  0  0  0  0  0  0  0  0  0
  141.9389   75.4463  219.8972 H   0  0  0  0  0  0  0  0  0  0  0  0
  139.3190   74.7780  218.9330 H   0  0  0  0  0  0  0  0  0  0  0  0
  137.7375   74.7355  221.7084 H   0  0  0  0  0  0  0  0  0  0  0  0
  138.1472   73.5669  220.4242 H   0  0  0  0  0  0  0  0  0  0  0  0
  139.4720   73.3800  223.1200 H   0  0  0  0  0  0  0  0  0  0  0  0
  137.7741   69.1576  222.7665 H   0  0  0  0  0  0  0  0  0  0  0  0
  138.4442   67.6531  224.6493 H   0  0  0  0  0  0  0  0  0  0  0  0
  139.6689   67.4767  226.7811 H   0  0  0  0  0  0  0  0  0  0  0  0
  141.6928   70.8964  228.4192 H   0  0  0  0  0  0  0  0  0  0  0  0
  140.9329   72.2833  226.4674 H   0  0  0  0  0  0  0  0  0  0  0  0
  141.3449   77.6745  218.3083 H   0  0  0  0  0  0  0  0  0  0  0  0
  138.9506   77.2358  219.1298 H   0  0  0  0  0  0  0  0  0  0  0  0
  139.5179   77.5925  220.7767 H   0  0  0  0  0  0  0  0  0  0  0  0
  139.2074   79.3929  218.4017 H   0  0  0  0  0  0  0  0  0  0  0  0
  139.0183   79.7510  220.1537 H   0  0  0  0  0  0  0  0  0  0  0  0
  141.4774   79.6671  218.4471 H   0  0  0  0  0  0  0  0  0  0  0  0
  140.8916   80.8962  219.6811 H   0  0  0  0  0  0  0  0  0  0  0  0
  140.3734   80.0021  221.5961 H   0  0  0  0  0  0  0  0  0  0  0  0
  143.4319   80.2410  222.2275 H   0  0  0  0  0  0  0  0  0  0  0  0
  142.3712   81.5985  221.9514 H   0  0  0  0  0  0  0  0  0  0  0  0
  142.8488   80.8320  224.4792 H   0  0  0  0  0  0  0  0  0  0  0  0
  141.1793   81.2102  224.0812 H   0  0  0  0  0  0  0  0  0  0  0  0
  142.4829   78.5833  224.5825 H   0  0  0  0  0  0  0  0  0  0  0  0
  140.7558   79.0085  224.6875 H   0  0  0  0  0  0  0  0  0  0  0  0
  142.2526   77.7764  222.4605 H   0  0  0  0  0  0  0  0  0  0  0  0
  140.5050   77.8711  222.6793 H   0  0  0  0  0  0  0  0  0  0  0  0
  143.1470   77.8189  219.7066 H   0  0  0  0  0  0  0  0  0  0  0  0
  142.1841   77.3775  221.1609 H   0  0  0  0  0  0  0  0  0  0  0  0
  1  2  1  0
  2  3  1  0
  3  4  1  0
  4  5  2  0
  4  6  1  0
  6  7  1  0
  7  8  1  0
  8  9  2  0
  8 10  1  0
 10 11  2  0
 11 12  1  0
 12 13  2  0
 13 14  1  0
 14 15  2  0
 15 16  1  0
 15 17  1  0
 17 18  2  0
 18 19  1  0
 19 20  2  0
  2 21  1  0
 21 22  1  0
 22 23  1  0
 23 24  1  0
 24 25  1  0
 25 26  1  0
 26 27  1  0
 27 28  1  0
 28 29  1  0
 29 30  1  0
 25 31  1  0
 20 10  1  0
 31 21  1  0
 19 13  1  0
 30 26  1  0
  1 32  1  0
  1 33  1  0
  1 34  1  0
  2 35  1  1
  3 36  1  0
  6 37  1  0
  6 38  1  0
  7 39  1  0
 11 40  1  0
 12 41  1  0
 14 42  1  0
 17 43  1  0
 18 44  1  0
 21 45  1  6
 22 46  1  0
 22 47  1  0
 23 48  1  0
 23 49  1  0
 24 50  1  0
 24 51  1  0
 26 52  1  0
 27 53  1  0
 27 54  1  0
 28 55  1  0
 28 56  1  0
 29 57  1  0
 29 58  1  0
 30 59  1  0
 30 60  1  0
 31 61  1  0
 31 62  1  0
M  END
>  <smiles>  (34) 
C[C@H](NC(=O)CNC(=O)c1ccc2cc(Cl)ccc2n1)[C@H]1CCCN(C2CCCC2)C1

>  <score_type>  (34) 
oracle

>  <origin>  (34) 
autodockgpu

>  <m_score__min__energy>  (34) 
-9.0800000000000001

>  <m_primary>  (34) 
energy

>  <rmsd>  (34) 
4.735196176253185

>  <m_score__min__rmsd>  (34) 
4.735196176253185

>  <meeko>  (34) 
{"free_energy": -8.32, "intermolecular_energy": -10.11, "internal_energy": -2.25, "cluster_size": 28, "cluster_id": 1, "rank_in_cluster": 22}

>  <energy>  (34) 
-7.38

>  <cluster_rmsd>  (34) 
0.71

>  <cluster>  (34) 
3

$$$$

     RDKit          3D

 62 65  0  0  0  0  0  0  0  0999 V2000
  141.5980   77.2800  219.8570 C   0  0  0  0  0  0  0  0  0  0  0  0
  141.1770   76.6680  221.2120 C   0  0  2  0  0  0  0  0  0  0  0  0
  139.9710   75.9300  221.0960 N   0  0  0  0  0  0  0  0  0  0  0  0
  139.8010   74.5940  221.6200 C   0  0  0  0  0  0  0  0  0  0  0  0
  140.7300   74.0040  222.2130 O   0  0  0  0  0  0  0  0  0  0  0  0
  138.4550   73.9910  221.3920 C   0  0  0  0  0  0  0  0  0  0  0  0
  137.5160   74.6690  222.2500 N   0  0  0  0  0  0  0  0  0  0  0  0
  136.9660   75.9340  222.0630 C   0  0  0  0  0  0  0  0  0  0  0  0
  137.2650   76.6280  221.0690 O   0  0  0  0  0  0  0  0  0  0  0  0
  136.0090   76.4570  223.0710 C   0  0  0  0  0  0  0  0  0  0  0  0
  135.5340   77.7450  222.9920 C   0  0  0  0  0  0  0  0  0  0  0  0
  134.6470   78.2860  223.9160 C   0  0  0  0  0  0  0  0  0  0  0  0
  134.2590   77.4320  224.9440 C   0  0  0  0  0  0  0  0  0  0  0  0
  133.3750   77.8530  225.9240 C   0  0  0  0  0  0  0  0  0  0  0  0
  132.9740   76.9980  226.9600 C   0  0  0  0  0  0  0  0  0  0  0  0
  131.8490   77.5520  228.1990 Cl  0  0  0  0  0  0  0  0  0  0  0  0
  133.4770   75.7150  226.9940 C   0  0  0  0  0  0  0  0  0  0  0  0
  134.3750   75.2610  226.0170 C   0  0  0  0  0  0  0  0  0  0  0  0
  134.7390   76.1490  225.0130 C   0  0  0  0  0  0  0  0  0  0  0  0
  135.6110   75.6410  224.0930 N   0  0  0  0  0  0  0  0  0  0  0  0
  141.1820   77.8010  222.1980 C   0  0  1  0  0  0  0  0  0  0  0  0
  141.6080   79.1070  221.5270 C   0  0  0  0  0  0  0  0  0  0  0  0
  141.9720   80.0660  222.6260 C   0  0  0  0  0  0  0  0  0  0  0  0
  141.2520   79.6960  223.8760 C   0  0  0  0  0  0  0  0  0  0  0  0
  139.9270   79.2020  223.6810 N   0  0  0  0  0  0  0  0  0  0  0  0
  139.0800   80.2500  223.1640 C   0  0  0  0  0  0  0  0  0  0  0  0
  138.0570   80.6050  224.2420 C   0  0  0  0  0  0  0  0  0  0  0  0
  137.0210   81.3740  223.4530 C   0  0  0  0  0  0  0  0  0  0  0  0
  136.9460   80.6480  222.1490 C   0  0  0  0  0  0  0  0  0  0  0  0
  138.1860   79.7920  222.0350 C   0  0  0  0  0  0  0  0  0  0  0  0
  139.9040   77.9680  222.9740 C   0  0  0  0  0  0  0  0  0  0  0  0
  142.2133   78.1745  220.0340 H   0  0  0  0  0  0  0  0  0  0  0  0
  142.1802   76.5416  219.2862 H   0  0  0  0  0  0  0  0  0  0  0  0
  140.7002   77.5596  219.2862 H   0  0  0  0  0  0  0  0  0  0  0  0
  141.8754   75.9017  221.5795 H   0  0  0  0  0  0  0  0  0  0  0  0
  139.1600   76.4090  220.5950 H   0  0  0  0  0  0  0  0  0  0  0  0
  138.1608   74.1199  220.3399 H   0  0  0  0  0  0  0  0  0  0  0  0
  138.4735   72.9147  221.6182 H   0  0  0  0  0  0  0  0  0  0  0  0
  137.2230   74.1260  223.1210 H   0  0  0  0  0  0  0  0  0  0  0  0
  135.8719   78.3776  222.1579 H   0  0  0  0  0  0  0  0  0  0  0  0
  134.2770   79.3191  223.8396 H   0  0  0  0  0  0  0  0  0  0  0  0
  132.9797   78.8789  225.8885 H   0  0  0  0  0  0  0  0  0  0  0  0
  133.1686   75.0351  227.8019 H   0  0  0  0  0  0  0  0  0  0  0  0
  134.7770   74.2375  226.0449 H   0  0  0  0  0  0  0  0  0  0  0  0
  141.9315   77.5257  222.9546 H   0  0  0  0  0  0  0  0  0  0  0  0
  142.4767   78.9314  220.8755 H   0  0  0  0  0  0  0  0  0  0  0  0
  140.7965   79.5121  220.9046 H   0  0  0  0  0  0  0  0  0  0  0  0
  143.0568   80.0240  222.8031 H   0  0  0  0  0  0  0  0  0  0  0  0
  141.6847   81.0854  222.3290 H   0  0  0  0  0  0  0  0  0  0  0  0
  141.8353   78.9171  224.3889 H   0  0  0  0  0  0  0  0  0  0  0  0
  141.1537   80.6219  224.4618 H   0  0  0  0  0  0  0  0  0  0  0  0
  139.7599   81.0536  222.8447 H   0  0  0  0  0  0  0  0  0  0  0  0
  137.6241   79.7010  224.6951 H   0  0  0  0  0  0  0  0  0  0  0  0
  138.4803   81.1697  225.0857 H   0  0  0  0  0  0  0  0  0  0  0  0
  136.0480   81.3579  223.9658 H   0  0  0  0  0  0  0  0  0  0  0  0
  137.2837   82.4353  223.3317 H   0  0  0  0  0  0  0  0  0  0  0  0
  136.0478   80.0136  222.1233 H   0  0  0  0  0  0  0  0  0  0  0  0
  136.8873   81.3592  221.3119 H   0  0  0  0  0  0  0  0  0  0  0  0
  137.9332   78.7275  222.1490 H   0  0  0  0  0  0  0  0  0  0  0  0
  138.6721   79.8960  221.0537 H   0  0  0  0  0  0  0  0  0  0  0  0
  139.8004   77.1391  223.6896 H   0  0  0  0  0  0  0  0  0  0  0  0
  139.0530   77.9647  222.2770 H   0  0  0  0  0  0  0  0  0  0  0  0
  1  2  1  0
  2  3  1  0
  3  4  1  0
  4  5  2  0
  4  6  1  0
  6  7  1  0
  7  8  1  0
  8  9  2  0
  8 10  1  0
 10 11  2  0
 11 12  1  0
 12 13  2  0
 13 14  1  0
 14 15  2  0
 15 16  1  0
 15 17  1  0
 17 18  2  0
 18 19  1  0
 19 20  2  0
  2 21  1  0
 21 22  1  0
 22 23  1  0
 23 24  1  0
 24 25  1  0
 25 26  1  0
 26 27  1  0
 27 28  1  0
 28 29  1  0
 29 30  1  0
 25 31  1  0
 20 10  1  0
 31 21  1  0
 19 13  1  0
 30 26  1  0
  1 32  1  0
  1 33  1  0
  1 34  1  0
  2 35  1  1
  3 36  1  0
  6 37  1  0
  6 38  1  0
  7 39  1  0
 11 40  1  0
 12 41  1  0
 14 42  1  0
 17 43  1  0
 18 44  1  0
 21 45  1  1
 22 46  1  0
 22 47  1  0
 23 48  1  0
 23 49  1  0
 24 50  1  0
 24 51  1  0
 26 52  1  0
 27 53  1  0
 27 54  1  0
 28 55  1  0
 28 56  1  0
 29 57  1  0
 29 58  1  0
 30 59  1  0
 30 60  1  0
 31 61  1  0
 31 62  1  0
M  END
>  <smiles>  (35) 
C[C@H](NC(=O)CNC(=O)c1ccc2cc(Cl)ccc2n1)[C@H]1CCCN(C2CCCC2)C1

>  <score_type>  (35) 
oracle

>  <origin>  (35) 
autodockgpu

>  <m_score__min__energy>  (35) 
-9.0800000000000001

>  <m_primary>  (35) 
energy

>  <rmsd>  (35) 
6.376876767788379

>  <m_score__min__rmsd>  (35) 
6.376876767788379

>  <meeko>  (35) 
{"free_energy": -6.83, "intermolecular_energy": -8.62, "internal_energy": -3.6, "cluster_size": 12, "cluster_id": 5, "rank_in_cluster": 11}

>  <energy>  (35) 
-7.75

>  <cluster_rmsd>  (35) 
0.0

>  <cluster>  (35) 
4

$$$$

     RDKit          3D

 62 65  0  0  0  0  0  0  0  0999 V2000
  141.2890   74.8960  220.8280 C   0  0  0  0  0  0  0  0  0  0  0  0
  140.3180   75.3140  221.9550 C   0  0  2  0  0  0  0  0  0  0  0  0
  139.2370   74.4040  222.0730 N   0  0  0  0  0  0  0  0  0  0  0  0
  138.1990   74.2660  221.0770 C   0  0  0  0  0  0  0  0  0  0  0  0
  138.1990   74.9600  220.0370 O   0  0  0  0  0  0  0  0  0  0  0  0
  137.1500   73.2520  221.3920 C   0  0  0  0  0  0  0  0  0  0  0  0
  137.6860   72.3560  222.3850 N   0  0  0  0  0  0  0  0  0  0  0  0
  138.1530   71.0600  222.1860 C   0  0  0  0  0  0  0  0  0  0  0  0
  138.1390   70.5350  221.0520 O   0  0  0  0  0  0  0  0  0  0  0  0
  138.6700   70.2960  223.3490 C   0  0  0  0  0  0  0  0  0  0  0  0
  138.4990   68.9340  223.4330 C   0  0  0  0  0  0  0  0  0  0  0  0
  138.9540   68.1750  224.5050 C   0  0  0  0  0  0  0  0  0  0  0  0
  139.6070   68.8860  225.5080 C   0  0  0  0  0  0  0  0  0  0  0  0
  140.1100   68.2410  226.6260 C   0  0  0  0  0  0  0  0  0  0  0  0
  140.7740   68.9490  227.6380 C   0  0  0  0  0  0  0  0  0  0  0  0
  141.4070   68.1120  229.0530 Cl  0  0  0  0  0  0  0  0  0  0  0  0
  140.9220   70.3140  227.5070 C   0  0  0  0  0  0  0  0  0  0  0  0
  140.4220   70.9940  226.3870 C   0  0  0  0  0  0  0  0  0  0  0  0
  139.7730   70.2450  225.4140 C   0  0  0  0  0  0  0  0  0  0  0  0
  139.3150   70.9680  224.3500 N   0  0  0  0  0  0  0  0  0  0  0  0
  139.9650   76.7490  221.6860 C   0  0  1  0  0  0  0  0  0  0  0  0
  138.9810   77.2740  222.7310 C   0  0  0  0  0  0  0  0  0  0  0  0
  138.3830   78.5370  222.1750 C   0  0  0  0  0  0  0  0  0  0  0  0
  139.3220   79.1480  221.1940 C   0  0  0  0  0  0  0  0  0  0  0  0
  140.7030   79.0220  221.5280 N   0  0  0  0  0  0  0  0  0  0  0  0
  140.9970   79.7860  222.7160 C   0  0  0  0  0  0  0  0  0  0  0  0
  141.5690   81.1340  222.2830 C   0  0  0  0  0  0  0  0  0  0  0  0
  142.1970   81.6380  223.5630 C   0  0  0  0  0  0  0  0  0  0  0  0
  142.7830   80.4130  224.1850 C   0  0  0  0  0  0  0  0  0  0  0  0
  142.1400   79.2160  223.5240 C   0  0  0  0  0  0  0  0  0  0  0  0
  141.1440   77.6690  221.5240 C   0  0  0  0  0  0  0  0  0  0  0  0
  142.2142   74.4977  221.2701 H   0  0  0  0  0  0  0  0  0  0  0  0
  140.8169   74.1214  220.2058 H   0  0  0  0  0  0  0  0  0  0  0  0
  141.5272   75.7713  220.2058 H   0  0  0  0  0  0  0  0  0  0  0  0
  140.7665   75.2617  222.9581 H   0  0  0  0  0  0  0  0  0  0  0  0
  139.2120   73.7970  222.9510 H   0  0  0  0  0  0  0  0  0  0  0  0
  136.2525   73.7521  221.7850 H   0  0  0  0  0  0  0  0  0  0  0  0
  136.8690   72.6962  220.4853 H   0  0  0  0  0  0  0  0  0  0  0  0
  137.7220   72.7470  223.3780 H   0  0  0  0  0  0  0  0  0  0  0  0
  137.9769   68.4204  222.6122 H   0  0  0  0  0  0  0  0  0  0  0  0
  138.8079   67.0860  224.5572 H   0  0  0  0  0  0  0  0  0  0  0  0
  139.9861   67.1522  226.7218 H   0  0  0  0  0  0  0  0  0  0  0  0
  141.4414   70.8793  228.2949 H   0  0  0  0  0  0  0  0  0  0  0  0
  140.5397   72.0827  226.2828 H   0  0  0  0  0  0  0  0  0  0  0  0
  139.4758   76.7493  220.7008 H   0  0  0  0  0  0  0  0  0  0  0  0
  138.1912   76.5304  222.9137 H   0  0  0  0  0  0  0  0  0  0  0  0
  139.4893   77.4676  223.6871 H   0  0  0  0  0  0  0  0  0  0  0  0
  137.4326   78.3016  221.6736 H   0  0  0  0  0  0  0  0  0  0  0  0
  138.2020   79.2463  222.9961 H   0  0  0  0  0  0  0  0  0  0  0  0
  139.1604   78.6647  220.2192 H   0  0  0  0  0  0  0  0  0  0  0  0
  139.1029   80.2259  221.1863 H   0  0  0  0  0  0  0  0  0  0  0  0
  140.0612   79.8102  223.2937 H   0  0  0  0  0  0  0  0  0  0  0  0
  142.3216   81.0122  221.4901 H   0  0  0  0  0  0  0  0  0  0  0  0
  140.8185   81.8176  221.8594 H   0  0  0  0  0  0  0  0  0  0  0  0
  142.9799   82.3803  223.3485 H   0  0  0  0  0  0  0  0  0  0  0  0
  141.4727   82.1413  224.2203 H   0  0  0  0  0  0  0  0  0  0  0  0
  143.8707   80.3927  224.0222 H   0  0  0  0  0  0  0  0  0  0  0  0
  142.5980   80.4027  225.2693 H   0  0  0  0  0  0  0  0  0  0  0  0
  142.8592   78.7029  222.8687 H   0  0  0  0  0  0  0  0  0  0  0  0
  141.7978   78.4715  224.2579 H   0  0  0  0  0  0  0  0  0  0  0  0
  141.6484   77.4520  220.5709 H   0  0  0  0  0  0  0  0  0  0  0  0
  141.8444   77.5125  222.3577 H   0  0  0  0  0  0  0  0  0  0  0  0
  1  2  1  0
  2  3  1  0
  3  4  1  0
  4  5  2  0
  4  6  1  0
  6  7  1  0
  7  8  1  0
  8  9  2  0
  8 10  1  0
 10 11  2  0
 11 12  1  0
 12 13  2  0
 13 14  1  0
 14 15  2  0
 15 16  1  0
 15 17  1  0
 17 18  2  0
 18 19  1  0
 19 20  2  0
  2 21  1  0
 21 22  1  0
 22 23  1  0
 23 24  1  0
 24 25  1  0
 25 26  1  0
 26 27  1  0
 27 28  1  0
 28 29  1  0
 29 30  1  0
 25 31  1  0
 20 10  1  0
 31 21  1  0
 19 13  1  0
 30 26  1  0
  1 32  1  0
  1 33  1  0
  1 34  1  0
  2 35  1  1
  3 36  1  0
  6 37  1  0
  6 38  1  0
  7 39  1  0
 11 40  1  0
 12 41  1  0
 14 42  1  0
 17 43  1  0
 18 44  1  0
 21 45  1  6
 22 46  1  0
 22 47  1  0
 23 48  1  0
 23 49  1  0
 24 50  1  0
 24 51  1  0
 26 52  1  0
 27 53  1  0
 27 54  1  0
 28 55  1  0
 28 56  1  0
 29 57  1  0
 29 58  1  0
 30 59  1  0
 30 60  1  0
 31 61  1  0
 31 62  1  0
M  END
>  <smiles>  (36) 
C[C@H](NC(=O)CNC(=O)c1ccc2cc(Cl)ccc2n1)[C@H]1CCCN(C2CCCC2)C1

>  <score_type>  (36) 
oracle

>  <origin>  (36) 
autodockgpu

>  <m_score__min__energy>  (36) 
-9.0800000000000001

>  <m_primary>  (36) 
energy

>  <rmsd>  (36) 
4.639739046741497

>  <m_score__min__rmsd>  (36) 
4.639739046741497

>  <meeko>  (36) 
{"free_energy": -8.9, "intermolecular_energy": -10.69, "internal_energy": -1.88, "cluster_size": 28, "cluster_id": 1, "rank_in_cluster": 7}

>  <energy>  (36) 
-6.96

>  <cluster_rmsd>  (36) 
1.28

>  <cluster>  (36) 
4

$$$$

     RDKit          3D

 62 65  0  0  0  0  0  0  0  0999 V2000
  138.2010   77.8680  222.9890 C   0  0  0  0  0  0  0  0  0  0  0  0
  138.2360   77.5760  221.4720 C   0  0  2  0  0  0  0  0  0  0  0  0
  137.9040   76.2250  221.1950 N   0  0  0  0  0  0  0  0  0  0  0  0
  138.6100   75.0990  221.7620 C   0  0  0  0  0  0  0  0  0  0  0  0
  139.5740   75.2600  222.5410 O   0  0  0  0  0  0  0  0  0  0  0  0
  138.1040   73.7580  221.3420 C   0  0  0  0  0  0  0  0  0  0  0  0
  138.4960   72.8040  222.3490 N   0  0  0  0  0  0  0  0  0  0  0  0
  138.0950   71.4750  222.4510 C   0  0  0  0  0  0  0  0  0  0  0  0
  137.3070   70.9720  221.6230 O   0  0  0  0  0  0  0  0  0  0  0  0
  138.6180   70.6520  223.5710 C   0  0  0  0  0  0  0  0  0  0  0  0
  138.3710   69.3000  223.6300 C   0  0  0  0  0  0  0  0  0  0  0  0
  138.8270   68.4880  224.6620 C   0  0  0  0  0  0  0  0  0  0  0  0
  139.5640   69.1330  225.6500 C   0  0  0  0  0  0  0  0  0  0  0  0
  140.0770   68.4310  226.7290 C   0  0  0  0  0  0  0  0  0  0  0  0
  140.8240   69.0720  227.7260 C   0  0  0  0  0  0  0  0  0  0  0  0
  141.4690   68.1630  229.0910 Cl  0  0  0  0  0  0  0  0  0  0  0  0
  141.0470   70.4290  227.6210 C   0  0  0  0  0  0  0  0  0  0  0  0
  140.5390   71.1660  226.5420 C   0  0  0  0  0  0  0  0  0  0  0  0
  139.8050   70.4820  225.5820 C   0  0  0  0  0  0  0  0  0  0  0  0
  139.3440   71.2590  224.5570 N   0  0  0  0  0  0  0  0  0  0  0  0
  139.5750   78.0540  220.9890 C   0  0  1  0  0  0  0  0  0  0  0  0
  140.5630   78.1740  222.1490 C   0  0  0  0  0  0  0  0  0  0  0  0
  141.7090   79.0190  221.6650 C   0  0  0  0  0  0  0  0  0  0  0  0
  141.8140   78.9210  220.1820 C   0  0  0  0  0  0  0  0  0  0  0  0
  141.5120   77.6350  219.6430 N   0  0  0  0  0  0  0  0  0  0  0  0
  142.5070   76.6770  220.0620 C   0  0  0  0  0  0  0  0  0  0  0  0
  143.1710   76.1080  218.8100 C   0  0  0  0  0  0  0  0  0  0  0  0
  143.8570   74.8720  219.3500 C   0  0  0  0  0  0  0  0  0  0  0  0
  142.8890   74.3300  220.3510 C   0  0  0  0  0  0  0  0  0  0  0  0
  141.9140   75.4340  220.6840 C   0  0  0  0  0  0  0  0  0  0  0  0
  140.1550   77.2620  219.8490 C   0  0  0  0  0  0  0  0  0  0  0  0
  138.3138   76.9264  223.5463 H   0  0  0  0  0  0  0  0  0  0  0  0
  139.0239   78.5496  223.2503 H   0  0  0  0  0  0  0  0  0  0  0  0
  137.2404   78.3359  223.2503 H   0  0  0  0  0  0  0  0  0  0  0  0
  137.4634   78.1175  220.9065 H   0  0  0  0  0  0  0  0  0  0  0  0
  137.0840   76.0570  220.5330 H   0  0  0  0  0  0  0  0  0  0  0  0
  137.0076   73.7819  221.2558 H   0  0  0  0  0  0  0  0  0  0  0  0
  138.5227   73.4783  220.3640 H   0  0  0  0  0  0  0  0  0  0  0  0
  139.1700   73.1760  223.0890 H   0  0  0  0  0  0  0  0  0  0  0  0
  137.7844   68.8393  222.8216 H   0  0  0  0  0  0  0  0  0  0  0  0
  138.6191   67.4083  224.6952 H   0  0  0  0  0  0  0  0  0  0  0  0
  139.8941   67.3489  226.8043 H   0  0  0  0  0  0  0  0  0  0  0  0
  141.6336   70.9419  228.3974 H   0  0  0  0  0  0  0  0  0  0  0  0
  140.7157   72.2485  226.4588 H   0  0  0  0  0  0  0  0  0  0  0  0
  139.3921   79.0536  220.5679 H   0  0  0  0  0  0  0  0  0  0  0  0
  140.0770   78.6545  223.0109 H   0  0  0  0  0  0  0  0  0  0  0  0
  140.9146   77.1821  222.4694 H   0  0  0  0  0  0  0  0  0  0  0  0
  141.5367   80.0671  221.9509 H   0  0  0  0  0  0  0  0  0  0  0  0
  142.6438   78.6606  222.1208 H   0  0  0  0  0  0  0  0  0  0  0  0
  141.1169   79.6488  219.7411 H   0  0  0  0  0  0  0  0  0  0  0  0
  142.8666   79.1209  219.9329 H   0  0  0  0  0  0  0  0  0  0  0  0
  143.1597   77.2131  220.7667 H   0  0  0  0  0  0  0  0  0  0  0  0
  142.4245   75.8484  218.0449 H   0  0  0  0  0  0  0  0  0  0  0  0
  143.8541   76.8119  218.3121 H   0  0  0  0  0  0  0  0  0  0  0  0
  144.0382   74.1428  218.5466 H   0  0  0  0  0  0  0  0  0  0  0  0
  144.8415   75.0916  219.7887 H   0  0  0  0  0  0  0  0  0  0  0  0
  142.3513   73.4698  219.9258 H   0  0  0  0  0  0  0  0  0  0  0  0
  143.4158   73.9926  221.2558 H   0  0  0  0  0  0  0  0  0  0  0  0
  140.9248   75.2198  220.2531 H   0  0  0  0  0  0  0  0  0  0  0  0
  141.7669   75.5434  221.7686 H   0  0  0  0  0  0  0  0  0  0  0  0
  139.5783   77.4632  218.9342 H   0  0  0  0  0  0  0  0  0  0  0  0
  140.1062   76.1899  220.0903 H   0  0  0  0  0  0  0  0  0  0  0  0
  1  2  1  0
  2  3  1  0
  3  4  1  0
  4  5  2  0
  4  6  1  0
  6  7  1  0
  7  8  1  0
  8  9  2  0
  8 10  1  0
 10 11  2  0
 11 12  1  0
 12 13  2  0
 13 14  1  0
 14 15  2  0
 15 16  1  0
 15 17  1  0
 17 18  2  0
 18 19  1  0
 19 20  2  0
  2 21  1  0
 21 22  1  0
 22 23  1  0
 23 24  1  0
 24 25  1  0
 25 26  1  0
 26 27  1  0
 27 28  1  0
 28 29  1  0
 29 30  1  0
 25 31  1  0
 20 10  1  0
 31 21  1  0
 19 13  1  0
 30 26  1  0
  1 32  1  0
  1 33  1  0
  1 34  1  0
  2 35  1  6
  3 36  1  0
  6 37  1  0
  6 38  1  0
  7 39  1  0
 11 40  1  0
 12 41  1  0
 14 42  1  0
 17 43  1  0
 18 44  1  0
 21 45  1  6
 22 46  1  0
 22 47  1  0
 23 48  1  0
 23 49  1  0
 24 50  1  0
 24 51  1  0
 26 52  1  0
 27 53  1  0
 27 54  1  0
 28 55  1  0
 28 56  1  0
 29 57  1  0
 29 58  1  0
 30 59  1  0
 30 60  1  0
 31 61  1  0
 31 62  1  0
M  END
>  <smiles>  (37) 
C[C@H](NC(=O)CNC(=O)c1ccc2cc(Cl)ccc2n1)[C@H]1CCCN(C2CCCC2)C1

>  <score_type>  (37) 
oracle

>  <origin>  (37) 
autodockgpu

>  <m_score__min__energy>  (37) 
-9.0800000000000001

>  <m_primary>  (37) 
energy

>  <rmsd>  (37) 
4.444619339170164

>  <m_score__min__rmsd>  (37) 
4.444619339170164

>  <meeko>  (37) 
{"free_energy": -7.85, "intermolecular_energy": -9.64, "internal_energy": -2.67, "cluster_size": 28, "cluster_id": 1, "rank_in_cluster": 27}

>  <energy>  (37) 
-7.03

>  <cluster_rmsd>  (37) 
0.0

>  <cluster>  (37) 
5

$$$$

     RDKit          3D

 62 65  0  0  0  0  0  0  0  0999 V2000
  141.6800   77.6750  219.5390 C   0  0  0  0  0  0  0  0  0  0  0  0
  141.3920   76.9150  220.8530 C   0  0  2  0  0  0  0  0  0  0  0  0
  140.2240   76.1170  220.7460 N   0  0  0  0  0  0  0  0  0  0  0  0
  140.1020   74.8010  221.3290 C   0  0  0  0  0  0  0  0  0  0  0  0
  141.0430   74.2830  221.9700 O   0  0  0  0  0  0  0  0  0  0  0  0
  138.7900   74.1250  221.1010 C   0  0  0  0  0  0  0  0  0  0  0  0
  137.8160   74.7540  221.9570 N   0  0  0  0  0  0  0  0  0  0  0  0
  137.2150   75.9960  221.7790 C   0  0  0  0  0  0  0  0  0  0  0  0
  137.4950   76.7150  220.7960 O   0  0  0  0  0  0  0  0  0  0  0  0
  136.2270   76.4670  222.7830 C   0  0  0  0  0  0  0  0  0  0  0  0
  135.6510   77.7120  222.6790 C   0  0  0  0  0  0  0  0  0  0  0  0
  134.7320   78.2040  223.5980 C   0  0  0  0  0  0  0  0  0  0  0  0
  134.4190   77.3470  224.6480 C   0  0  0  0  0  0  0  0  0  0  0  0
  133.5120   77.7210  225.6260 C   0  0  0  0  0  0  0  0  0  0  0  0
  133.1870   76.8620  226.6860 C   0  0  0  0  0  0  0  0  0  0  0  0
  132.0310   77.3550  227.9210 Cl  0  0  0  0  0  0  0  0  0  0  0  0
  133.7890   75.6230  226.7450 C   0  0  0  0  0  0  0  0  0  0  0  0
  134.7130   75.2170  225.7700 C   0  0  0  0  0  0  0  0  0  0  0  0
  134.9990   76.1070  224.7430 C   0  0  0  0  0  0  0  0  0  0  0  0
  135.9010   75.6470  223.8270 N   0  0  0  0  0  0  0  0  0  0  0  0
  141.4050   77.9490  221.9420 C   0  0  1  0  0  0  0  0  0  0  0  0
  141.8010   79.3180  221.3900 C   0  0  0  0  0  0  0  0  0  0  0  0
  142.1780   80.1740  222.5680 C   0  0  0  0  0  0  0  0  0  0  0  0
  141.4880   79.6770  223.7910 C   0  0  0  0  0  0  0  0  0  0  0  0
  140.1660   79.1860  223.5770 N   0  0  0  0  0  0  0  0  0  0  0  0
  139.2950   80.2660  223.1790 C   0  0  0  0  0  0  0  0  0  0  0  0
  138.3560   80.5690  224.3450 C   0  0  0  0  0  0  0  0  0  0  0  0
  137.2740   81.3870  223.6750 C   0  0  0  0  0  0  0  0  0  0  0  0
  137.1000   80.7340  222.3420 C   0  0  0  0  0  0  0  0  0  0  0  0
  138.3180   79.8760  222.0940 C   0  0  0  0  0  0  0  0  0  0  0  0
  140.1420   78.0240  222.7560 C   0  0  0  0  0  0  0  0  0  0  0  0
  142.0609   78.6801  219.7727 H   0  0  0  0  0  0  0  0  0  0  0  0
  142.4319   77.1247  218.9544 H   0  0  0  0  0  0  0  0  0  0  0  0
  140.7522   77.7612  218.9544 H   0  0  0  0  0  0  0  0  0  0  0  0
  142.1567   76.1629  221.0973 H   0  0  0  0  0  0  0  0  0  0  0  0
  139.4040   76.5340  220.2050 H   0  0  0  0  0  0  0  0  0  0  0  0
  138.4900   74.2354  220.0485 H   0  0  0  0  0  0  0  0  0  0  0  0
  138.8659   73.0516  221.3291 H   0  0  0  0  0  0  0  0  0  0  0  0
  137.5370   74.1880  222.8180 H   0  0  0  0  0  0  0  0  0  0  0  0
  135.9315   78.3489  221.8271 H   0  0  0  0  0  0  0  0  0  0  0  0
  134.2826   79.2034  223.5017 H   0  0  0  0  0  0  0  0  0  0  0  0
  133.0371   78.7116  225.5701 H   0  0  0  0  0  0  0  0  0  0  0  0
  133.5405   74.9405  227.5711 H   0  0  0  0  0  0  0  0  0  0  0  0
  135.1938   74.2288  225.8175 H   0  0  0  0  0  0  0  0  0  0  0  0
  142.1738   77.6135  222.6536 H   0  0  0  0  0  0  0  0  0  0  0  0
  142.6573   79.2168  220.7070 H   0  0  0  0  0  0  0  0  0  0  0  0
  140.9713   79.7692  220.8260 H   0  0  0  0  0  0  0  0  0  0  0  0
  143.2667   80.1295  222.7188 H   0  0  0  0  0  0  0  0  0  0  0  0
  141.8740   81.2134  222.3752 H   0  0  0  0  0  0  0  0  0  0  0  0
  142.0910   78.8610  224.2158 H   0  0  0  0  0  0  0  0  0  0  0  0
  141.3908   80.5421  224.4635 H   0  0  0  0  0  0  0  0  0  0  0  0
  139.9587   81.0812  222.8550 H   0  0  0  0  0  0  0  0  0  0  0  0
  137.9470   79.6447  224.7790 H   0  0  0  0  0  0  0  0  0  0  0  0
  138.8448   81.0843  225.1850 H   0  0  0  0  0  0  0  0  0  0  0  0
  136.3396   81.3485  224.2542 H   0  0  0  0  0  0  0  0  0  0  0  0
  137.5376   82.4518  223.5936 H   0  0  0  0  0  0  0  0  0  0  0  0
  136.1948   80.1091  222.3453 H   0  0  0  0  0  0  0  0  0  0  0  0
  136.9919   81.4909  221.5511 H   0  0  0  0  0  0  0  0  0  0  0  0
  138.0617   78.8089  222.1692 H   0  0  0  0  0  0  0  0  0  0  0  0
  138.7342   80.0284  221.0873 H   0  0  0  0  0  0  0  0  0  0  0  0
  140.0634   77.1295  223.3914 H   0  0  0  0  0  0  0  0  0  0  0  0
  139.2763   78.0752  222.0793 H   0  0  0  0  0  0  0  0  0  0  0  0
  1  2  1  0
  2  3  1  0
  3  4  1  0
  4  5  2  0
  4  6  1  0
  6  7  1  0
  7  8  1  0
  8  9  2  0
  8 10  1  0
 10 11  2  0
 11 12  1  0
 12 13  2  0
 13 14  1  0
 14 15  2  0
 15 16  1  0
 15 17  1  0
 17 18  2  0
 18 19  1  0
 19 20  2  0
  2 21  1  0
 21 22  1  0
 22 23  1  0
 23 24  1  0
 24 25  1  0
 25 26  1  0
 26 27  1  0
 27 28  1  0
 28 29  1  0
 29 30  1  0
 25 31  1  0
 20 10  1  0
 31 21  1  0
 19 13  1  0
 30 26  1  0
  1 32  1  0
  1 33  1  0
  1 34  1  0
  2 35  1  1
  3 36  1  0
  6 37  1  0
  6 38  1  0
  7 39  1  0
 11 40  1  0
 12 41  1  0
 14 42  1  0
 17 43  1  0
 18 44  1  0
 21 45  1  1
 22 46  1  0
 22 47  1  0
 23 48  1  0
 23 49  1  0
 24 50  1  0
 24 51  1  0
 26 52  1  0
 27 53  1  0
 27 54  1  0
 28 55  1  0
 28 56  1  0
 29 57  1  0
 29 58  1  0
 30 59  1  0
 30 60  1  0
 31 61  1  0
 31 62  1  0
M  END
>  <smiles>  (38) 
C[C@H](NC(=O)CNC(=O)c1ccc2cc(Cl)ccc2n1)[C@H]1CCCN(C2CCCC2)C1

>  <score_type>  (38) 
oracle

>  <origin>  (38) 
autodockgpu

>  <m_score__min__energy>  (38) 
-9.0800000000000001

>  <m_primary>  (38) 
energy

>  <rmsd>  (38) 
6.257225024230467

>  <m_score__min__rmsd>  (38) 
6.257225024230467

>  <meeko>  (38) 
{"free_energy": -7.0, "intermolecular_energy": -8.79, "internal_energy": -3.6, "cluster_size": 12, "cluster_id": 5, "rank_in_cluster": 8}

>  <energy>  (38) 
-7.03

>  <cluster_rmsd>  (38) 
0.25

>  <cluster>  (38) 
5

$$$$

     RDKit          3D

 62 65  0  0  0  0  0  0  0  0999 V2000
  134.7790   76.9560  222.4370 C   0  0  0  0  0  0  0  0  0  0  0  0
  135.6440   76.1620  223.4410 C   0  0  2  0  0  0  0  0  0  0  0  0
  136.4480   75.1950  222.7840 N   0  0  0  0  0  0  0  0  0  0  0  0
  135.9260   74.2320  221.8420 C   0  0  0  0  0  0  0  0  0  0  0  0
  134.7100   74.1970  221.5540 O   0  0  0  0  0  0  0  0  0  0  0  0
  136.9380   73.3010  221.2620 C   0  0  0  0  0  0  0  0  0  0  0  0
  137.6820   72.7220  222.3530 N   0  0  0  0  0  0  0  0  0  0  0  0
  138.3750   71.5150  222.3530 C   0  0  0  0  0  0  0  0  0  0  0  0
  138.4050   70.7870  221.3390 O   0  0  0  0  0  0  0  0  0  0  0  0
  139.0830   71.0940  223.5880 C   0  0  0  0  0  0  0  0  0  0  0  0
  140.0900   71.8650  224.1230 C   0  0  0  0  0  0  0  0  0  0  0  0
  140.7910   71.5100  225.2700 C   0  0  0  0  0  0  0  0  0  0  0  0
  140.4070   70.3080  225.8580 C   0  0  0  0  0  0  0  0  0  0  0  0
  141.0280   69.8490  227.0080 C   0  0  0  0  0  0  0  0  0  0  0  0
  140.6450   68.6420  227.6110 C   0  0  0  0  0  0  0  0  0  0  0  0
  141.4460   68.0730  229.0730 Cl  0  0  0  0  0  0  0  0  0  0  0  0
  139.6290   67.9070  227.0380 C   0  0  0  0  0  0  0  0  0  0  0  0
  138.9830   68.3460  225.8720 C   0  0  0  0  0  0  0  0  0  0  0  0
  139.4020   69.5480  225.3170 C   0  0  0  0  0  0  0  0  0  0  0  0
  138.7290   69.9180  224.1880 N   0  0  0  0  0  0  0  0  0  0  0  0
  134.6970   75.6500  224.4900 C   0  0  1  0  0  0  0  0  0  0  0  0
  133.3710   75.2190  223.8640 C   0  0  0  0  0  0  0  0  0  0  0  0
  132.3720   75.1130  224.9830 C   0  0  0  0  0  0  0  0  0  0  0  0
  133.0800   74.8500  226.2670 C   0  0  0  0  0  0  0  0  0  0  0  0
  134.2210   73.9990  226.1580 N   0  0  0  0  0  0  0  0  0  0  0  0
  133.8120   72.6680  225.7810 C   0  0  0  0  0  0  0  0  0  0  0  0
  133.8920   71.7800  227.0220 C   0  0  0  0  0  0  0  0  0  0  0  0
  133.8490   70.3930  226.4210 C   0  0  0  0  0  0  0  0  0  0  0  0
  134.6640   70.5130  225.1740 C   0  0  0  0  0  0  0  0  0  0  0  0
  134.7880   71.9840  224.8530 C   0  0  0  0  0  0  0  0  0  0  0  0
  135.2620   74.5800  225.3830 C   0  0  0  0  0  0  0  0  0  0  0  0
  134.0772   77.6002  222.9869 H   0  0  0  0  0  0  0  0  0  0  0  0
  135.4293   77.5782  221.8046 H   0  0  0  0  0  0  0  0  0  0  0  0
  134.2146   76.2549  221.8046 H   0  0  0  0  0  0  0  0  0  0  0  0
  136.4016   76.7797  223.9455 H   0  0  0  0  0  0  0  0  0  0  0  0
  137.4910   75.2030  223.0100 H   0  0  0  0  0  0  0  0  0  0  0  0
  136.4328   72.5079  220.6913 H   0  0  0  0  0  0  0  0  0  0  0  0
  137.6124   73.8423  220.5821 H   0  0  0  0  0  0  0  0  0  0  0  0
  137.6910   73.2980  223.2510 H   0  0  0  0  0  0  0  0  0  0  0  0
  140.3526   72.8068  223.6191 H   0  0  0  0  0  0  0  0  0  0  0  0
  141.5945   72.1364  225.6847 H   0  0  0  0  0  0  0  0  0  0  0  0
  141.8376   70.4429  227.4572 H   0  0  0  0  0  0  0  0  0  0  0  0
  139.3192   66.9595  227.5031 H   0  0  0  0  0  0  0  0  0  0  0  0
  138.1735   67.7588  225.4139 H   0  0  0  0  0  0  0  0  0  0  0  0
  134.5166   76.5028  225.1610 H   0  0  0  0  0  0  0  0  0  0  0  0
  133.0384   75.9678  223.1300 H   0  0  0  0  0  0  0  0  0  0  0  0
  133.4777   74.2578  223.3399 H   0  0  0  0  0  0  0  0  0  0  0  0
  131.8104   76.0555  225.0619 H   0  0  0  0  0  0  0  0  0  0  0  0
  131.6784   74.2852  224.7740 H   0  0  0  0  0  0  0  0  0  0  0  0
  133.4107   75.8147  226.6792 H   0  0  0  0  0  0  0  0  0  0  0  0
  132.3625   74.3245  226.9143 H   0  0  0  0  0  0  0  0  0  0  0  0
  132.8207   72.7803  225.3176 H   0  0  0  0  0  0  0  0  0  0  0  0
  134.8290   71.9476  227.5734 H   0  0  0  0  0  0  0  0  0  0  0  0
  133.0941   71.9701  227.7550 H   0  0  0  0  0  0  0  0  0  0  0  0
  134.2910   69.6557  227.1074 H   0  0  0  0  0  0  0  0  0  0  0  0
  132.8229   70.0488  226.2243 H   0  0  0  0  0  0  0  0  0  0  0  0
  135.6616   70.0780  225.3339 H   0  0  0  0  0  0  0  0  0  0  0  0
  134.1839   69.9742  224.3438 H   0  0  0  0  0  0  0  0  0  0  0  0
  135.8129   72.3362  225.0414 H   0  0  0  0  0  0  0  0  0  0  0  0
  134.5724   72.1967  223.7955 H   0  0  0  0  0  0  0  0  0  0  0  0
  136.0127   75.0232  226.0539 H   0  0  0  0  0  0  0  0  0  0  0  0
  135.7313   73.8012  224.7639 H   0  0  0  0  0  0  0  0  0  0  0  0
  1  2  1  0
  2  3  1  0
  3  4  1  0
  4  5  2  0
  4  6  1  0
  6  7  1  0
  7  8  1  0
  8  9  2  0
  8 10  1  0
 10 11  2  0
 11 12  1  0
 12 13  2  0
 13 14  1  0
 14 15  2  0
 15 16  1  0
 15 17  1  0
 17 18  2  0
 18 19  1  0
 19 20  2  0
  2 21  1  0
 21 22  1  0
 22 23  1  0
 23 24  1  0
 24 25  1  0
 25 26  1  0
 26 27  1  0
 27 28  1  0
 28 29  1  0
 29 30  1  0
 25 31  1  0
 20 10  1  0
 31 21  1  0
 19 13  1  0
 30 26  1  0
  1 32  1  0
  1 33  1  0
  1 34  1  0
  2 35  1  1
  3 36  1  0
  6 37  1  0
  6 38  1  0
  7 39  1  0
 11 40  1  0
 12 41  1  0
 14 42  1  0
 17 43  1  0
 18 44  1  0
 21 45  1  1
 22 46  1  0
 22 47  1  0
 23 48  1  0
 23 49  1  0
 24 50  1  0
 24 51  1  0
 26 52  1  0
 27 53  1  0
 27 54  1  0
 28 55  1  0
 28 56  1  0
 29 57  1  0
 29 58  1  0
 30 59  1  0
 30 60  1  0
 31 61  1  0
 31 62  1  0
M  END
>  <smiles>  (39) 
C[C@H](NC(=O)CNC(=O)c1ccc2cc(Cl)ccc2n1)[C@H]1CCCN(C2CCCC2)C1

>  <score_type>  (39) 
oracle

>  <origin>  (39) 
autodockgpu

>  <m_score__min__energy>  (39) 
-9.0800000000000001

>  <m_primary>  (39) 
energy

>  <rmsd>  (39) 
6.430989603966066

>  <m_score__min__rmsd>  (39) 
6.430989603966066

>  <meeko>  (39) 
{"free_energy": -7.75, "intermolecular_energy": -9.54, "internal_energy": -2.1, "cluster_size": 2, "cluster_id": 4, "rank_in_cluster": 1}

>  <energy>  (39) 
-7.03

>  <cluster_rmsd>  (39) 
0.23

>  <cluster>  (39) 
5

$$$$

     RDKit          3D

 62 65  0  0  0  0  0  0  0  0999 V2000
  140.8530   78.7790  219.4540 C   0  0  0  0  0  0  0  0  0  0  0  0
  141.2240   77.6580  220.4510 C   0  0  2  0  0  0  0  0  0  0  0  0
  140.2980   76.5850  220.3920 N   0  0  0  0  0  0  0  0  0  0  0  0
  140.2620   75.5110  221.3590 C   0  0  0  0  0  0  0  0  0  0  0  0
  141.0640   75.4700  222.3160 O   0  0  0  0  0  0  0  0  0  0  0  0
  139.2130   74.4770  221.1170 C   0  0  0  0  0  0  0  0  0  0  0  0
  139.3860   73.4350  222.0980 N   0  0  0  0  0  0  0  0  0  0  0  0
  139.0640   72.0880  221.9620 C   0  0  0  0  0  0  0  0  0  0  0  0
  138.5620   71.6470  220.9070 O   0  0  0  0  0  0  0  0  0  0  0  0
  139.3240   71.1690  223.0990 C   0  0  0  0  0  0  0  0  0  0  0  0
  138.9280   69.8520  223.0490 C   0  0  0  0  0  0  0  0  0  0  0  0
  139.1370   68.9550  224.0900 C   0  0  0  0  0  0  0  0  0  0  0  0
  139.7830   69.4750  225.2070 C   0  0  0  0  0  0  0  0  0  0  0  0
  140.0520   68.6790  226.3080 C   0  0  0  0  0  0  0  0  0  0  0  0
  140.7080   69.1930  227.4360 C   0  0  0  0  0  0  0  0  0  0  0  0
  141.0420   68.1650  228.8280 Cl  0  0  0  0  0  0  0  0  0  0  0  0
  141.0870   70.5190  227.4380 C   0  0  0  0  0  0  0  0  0  0  0  0
  140.8260   71.3500  226.3380 C   0  0  0  0  0  0  0  0  0  0  0  0
  140.1740   70.7900  225.2470 C   0  0  0  0  0  0  0  0  0  0  0  0
  139.9560   71.6520  224.2110 N   0  0  0  0  0  0  0  0  0  0  0  0
  141.3950   78.3290  221.7840 C   0  0  1  0  0  0  0  0  0  0  0  0
  142.0300   79.7100  221.6230 C   0  0  0  0  0  0  0  0  0  0  0  0
  142.5280   80.1250  222.9800 C   0  0  0  0  0  0  0  0  0  0  0  0
  141.7420   79.4300  224.0380 C   0  0  0  0  0  0  0  0  0  0  0  0
  140.3590   79.2510  223.7370 N   0  0  0  0  0  0  0  0  0  0  0  0
  139.6940   80.5300  223.6840 C   0  0  0  0  0  0  0  0  0  0  0  0
  138.4080   80.4280  224.5010 C   0  0  0  0  0  0  0  0  0  0  0  0
  137.6380   81.6430  224.0330 C   0  0  0  0  0  0  0  0  0  0  0  0
  137.9370   81.7190  222.5710 C   0  0  0  0  0  0  0  0  0  0  0  0
  139.1570   80.8670  222.3120 C   0  0  0  0  0  0  0  0  0  0  0  0
  140.1510   78.3870  222.6260 C   0  0  0  0  0  0  0  0  0  0  0  0
  140.5548   79.6802  220.0099 H   0  0  0  0  0  0  0  0  0  0  0  0
  141.7227   79.0096  218.8212 H   0  0  0  0  0  0  0  0  0  0  0  0
  140.0174   78.4452  218.8212 H   0  0  0  0  0  0  0  0  0  0  0  0
  142.1703   77.1530  220.2072 H   0  0  0  0  0  0  0  0  0  0  0  0
  139.6000   76.5950  219.5850 H   0  0  0  0  0  0  0  0  0  0  0  0
  138.2142   74.9261  221.2204 H   0  0  0  0  0  0  0  0  0  0  0  0
  139.3055   74.0667  220.1006 H   0  0  0  0  0  0  0  0  0  0  0  0
  139.8100   73.7510  223.0250 H   0  0  0  0  0  0  0  0  0  0  0  0
  138.4216   69.4918  222.1414 H   0  0  0  0  0  0  0  0  0  0  0  0
  138.8135   67.9051  224.0344 H   0  0  0  0  0  0  0  0  0  0  0  0
  139.7451   67.6227  226.2975 H   0  0  0  0  0  0  0  0  0  0  0  0
  141.6029   70.9323  228.3172 H   0  0  0  0  0  0  0  0  0  0  0  0
  141.1272   72.4080  226.3396 H   0  0  0  0  0  0  0  0  0  0  0  0
  142.0820   77.6819  222.3491 H   0  0  0  0  0  0  0  0  0  0  0  0
  142.8678   79.6601  220.9120 H   0  0  0  0  0  0  0  0  0  0  0  0
  141.3001   80.4351  221.2337 H   0  0  0  0  0  0  0  0  0  0  0  0
  143.5902   79.8561  223.0776 H   0  0  0  0  0  0  0  0  0  0  0  0
  142.4101   81.2127  223.0941 H   0  0  0  0  0  0  0  0  0  0  0  0
  142.1882   78.4375  224.1991 H   0  0  0  0  0  0  0  0  0  0  0  0
  141.7837   80.0750  224.9281 H   0  0  0  0  0  0  0  0  0  0  0  0
  140.4370   81.2669  224.0230 H   0  0  0  0  0  0  0  0  0  0  0  0
  137.8640   79.4991  224.2749 H   0  0  0  0  0  0  0  0  0  0  0  0
  138.5751   80.4016  225.5879 H   0  0  0  0  0  0  0  0  0  0  0  0
  136.5594   81.5127  224.2053 H   0  0  0  0  0  0  0  0  0  0  0  0
  137.9233   82.5586  224.5718 H   0  0  0  0  0  0  0  0  0  0  0  0
  137.0827   81.3373  221.9926 H   0  0  0  0  0  0  0  0  0  0  0  0
  138.1199   82.7601  222.2667 H   0  0  0  0  0  0  0  0  0  0  0  0
  138.8813   79.9512  221.7686 H   0  0  0  0  0  0  0  0  0  0  0  0
  139.9018   81.3876  221.6921 H   0  0  0  0  0  0  0  0  0  0  0  0
  139.9089   77.3773  222.9893 H   0  0  0  0  0  0  0  0  0  0  0  0
  139.3193   78.7723  222.0179 H   0  0  0  0  0  0  0  0  0  0  0  0
  1  2  1  0
  2  3  1  0
  3  4  1  0
  4  5  2  0
  4  6  1  0
  6  7  1  0
  7  8  1  0
  8  9  2  0
  8 10  1  0
 10 11  2  0
 11 12  1  0
 12 13  2  0
 13 14  1  0
 14 15  2  0
 15 16  1  0
 15 17  1  0
 17 18  2  0
 18 19  1  0
 19 20  2  0
  2 21  1  0
 21 22  1  0
 22 23  1  0
 23 24  1  0
 24 25  1  0
 25 26  1  0
 26 27  1  0
 27 28  1  0
 28 29  1  0
 29 30  1  0
 25 31  1  0
 20 10  1  0
 31 21  1  0
 19 13  1  0
 30 26  1  0
  1 32  1  0
  1 33  1  0
  1 34  1  0
  2 35  1  6
  3 36  1  0
  6 37  1  0
  6 38  1  0
  7 39  1  0
 11 40  1  0
 12 41  1  0
 14 42  1  0
 17 43  1  0
 18 44  1  0
 21 45  1  1
 22 46  1  0
 22 47  1  0
 23 48  1  0
 23 49  1  0
 24 50  1  0
 24 51  1  0
 26 52  1  0
 27 53  1  0
 27 54  1  0
 28 55  1  0
 28 56  1  0
 29 57  1  0
 29 58  1  0
 30 59  1  0
 30 60  1  0
 31 61  1  0
 31 62  1  0
M  END
>  <smiles>  (40) 
C[C@H](NC(=O)CNC(=O)c1ccc2cc(Cl)ccc2n1)[C@H]1CCCN(C2CCCC2)C1

>  <score_type>  (40) 
oracle

>  <origin>  (40) 
autodockgpu

>  <m_score__min__energy>  (40) 
-9.0800000000000001

>  <m_primary>  (40) 
energy

>  <rmsd>  (40) 
4.114963362965299

>  <m_score__min__rmsd>  (40) 
4.114963362965299

>  <meeko>  (40) 
{"free_energy": -8.94, "intermolecular_energy": -10.73, "internal_energy": -2.27, "cluster_size": 28, "cluster_id": 1, "rank_in_cluster": 5}

>  <energy>  (40) 
-7.02

>  <cluster_rmsd>  (40) 
0.13

>  <cluster>  (40) 
5

$$$$

     RDKit          3D

 62 65  0  0  0  0  0  0  0  0999 V2000
  141.8350   78.3950  223.9100 C   0  0  0  0  0  0  0  0  0  0  0  0
  140.6110   78.3190  222.9700 C   0  0  2  0  0  0  0  0  0  0  0  0
  140.5860   77.0980  222.2470 N   0  0  0  0  0  0  0  0  0  0  0  0
  139.3930   76.3020  222.0700 C   0  0  0  0  0  0  0  0  0  0  0  0
  138.2970   76.6530  222.5580 O   0  0  0  0  0  0  0  0  0  0  0  0
  139.5790   75.0500  221.2780 C   0  0  0  0  0  0  0  0  0  0  0  0
  139.6530   73.9480  222.2050 N   0  0  0  0  0  0  0  0  0  0  0  0
  139.7230   72.5930  221.8970 C   0  0  0  0  0  0  0  0  0  0  0  0
  139.7230   72.1980  220.7120 O   0  0  0  0  0  0  0  0  0  0  0  0
  139.7930   71.6080  223.0070 C   0  0  0  0  0  0  0  0  0  0  0  0
  139.3400   70.3200  222.8380 C   0  0  0  0  0  0  0  0  0  0  0  0
  139.3730   69.3640  223.8470 C   0  0  0  0  0  0  0  0  0  0  0  0
  139.9040   69.7930  225.0600 C   0  0  0  0  0  0  0  0  0  0  0  0
  139.9950   68.9310  226.1410 C   0  0  0  0  0  0  0  0  0  0  0  0
  140.5320   69.3530  227.3650 C   0  0  0  0  0  0  0  0  0  0  0  0
  140.6400   68.2430  228.7300 Cl  0  0  0  0  0  0  0  0  0  0  0  0
  140.9750   70.6530  227.4840 C   0  0  0  0  0  0  0  0  0  0  0  0
  140.8940   71.5490  226.4070 C   0  0  0  0  0  0  0  0  0  0  0  0
  140.3530   71.0790  225.2170 C   0  0  0  0  0  0  0  0  0  0  0  0
  140.3080   72.0000  224.2100 N   0  0  0  0  0  0  0  0  0  0  0  0
  140.6320   79.5820  222.1590 C   0  0  1  0  0  0  0  0  0  0  0  0
  141.9960   80.2660  222.2480 C   0  0  0  0  0  0  0  0  0  0  0  0
  141.8130   81.6780  221.7650 C   0  0  0  0  0  0  0  0  0  0  0  0
  140.6450   81.7450  220.8420 C   0  0  0  0  0  0  0  0  0  0  0  0
  140.4810   80.6070  219.9980 N   0  0  0  0  0  0  0  0  0  0  0  0
  141.5780   80.5200  219.0640 C   0  0  0  0  0  0  0  0  0  0  0  0
  141.0190   80.7370  217.6590 C   0  0  0  0  0  0  0  0  0  0  0  0
  142.1440   80.2240  216.7890 C   0  0  0  0  0  0  0  0  0  0  0  0
  142.6600   79.0330  217.5290 C   0  0  0  0  0  0  0  0  0  0  0  0
  142.1560   79.1290  218.9500 C   0  0  0  0  0  0  0  0  0  0  0  0
  140.1850   79.4240  220.7310 C   0  0  0  0  0  0  0  0  0  0  0  0
  141.4958   78.3739  224.9562 H   0  0  0  0  0  0  0  0  0  0  0  0
  142.4960   77.5362  223.7215 H   0  0  0  0  0  0  0  0  0  0  0  0
  142.3847   79.3290  223.7215 H   0  0  0  0  0  0  0  0  0  0  0  0
  139.6517   78.2822  223.5070 H   0  0  0  0  0  0  0  0  0  0  0  0
  141.5070   76.7740  221.8190 H   0  0  0  0  0  0  0  0  0  0  0  0
  138.7274   74.9087  220.5962 H   0  0  0  0  0  0  0  0  0  0  0  0
  140.4986   75.1088  220.6773 H   0  0  0  0  0  0  0  0  0  0  0  0
  139.6540   74.2230  223.2360 H   0  0  0  0  0  0  0  0  0  0  0  0
  138.9321   70.0328  221.8576 H   0  0  0  0  0  0  0  0  0  0  0  0
  139.0046   68.3385  223.6969 H   0  0  0  0  0  0  0  0  0  0  0  0
  139.6389   67.8955  226.0366 H   0  0  0  0  0  0  0  0  0  0  0  0
  141.3994   70.9939  228.4398 H   0  0  0  0  0  0  0  0  0  0  0  0
  141.2464   72.5867  226.5017 H   0  0  0  0  0  0  0  0  0  0  0  0
  139.8730   80.2334  222.6167 H   0  0  0  0  0  0  0  0  0  0  0  0
  142.3512   80.2661  223.2891 H   0  0  0  0  0  0  0  0  0  0  0  0
  142.7412   79.7359  221.6367 H   0  0  0  0  0  0  0  0  0  0  0  0
  141.6370   82.3393  222.6262 H   0  0  0  0  0  0  0  0  0  0  0  0
  142.7188   82.0009  221.2308 H   0  0  0  0  0  0  0  0  0  0  0  0
  139.7347   81.8536  221.4500 H   0  0  0  0  0  0  0  0  0  0  0  0
  140.8274   82.6004  220.1749 H   0  0  0  0  0  0  0  0  0  0  0  0
  142.3276   81.2445  219.4150 H   0  0  0  0  0  0  0  0  0  0  0  0
  140.0969   80.1581  217.5021 H   0  0  0  0  0  0  0  0  0  0  0  0
  140.7377   81.7798  217.4503 H   0  0  0  0  0  0  0  0  0  0  0  0
  141.7695   79.9350  215.7959 H   0  0  0  0  0  0  0  0  0  0  0  0
  142.9215   80.9818  216.6124 H   0  0  0  0  0  0  0  0  0  0  0  0
  142.2889   78.1096  217.0603 H   0  0  0  0  0  0  0  0  0  0  0  0
  143.7596   79.0100  217.5082 H   0  0  0  0  0  0  0  0  0  0  0  0
  141.3811   78.3713  219.1378 H   0  0  0  0  0  0  0  0  0  0  0  0
  142.9542   78.9506  219.6855 H   0  0  0  0  0  0  0  0  0  0  0  0
  139.1006   79.2411  220.7062 H   0  0  0  0  0  0  0  0  0  0  0  0
  140.7155   78.5740  220.2770 H   0  0  0  0  0  0  0  0  0  0  0  0
  1  2  1  0
  2  3  1  0
  3  4  1  0
  4  5  2  0
  4  6  1  0
  6  7  1  0
  7  8  1  0
  8  9  2  0
  8 10  1  0
 10 11  2  0
 11 12  1  0
 12 13  2  0
 13 14  1  0
 14 15  2  0
 15 16  1  0
 15 17  1  0
 17 18  2  0
 18 19  1  0
 19 20  2  0
  2 21  1  0
 21 22  1  0
 22 23  1  0
 23 24  1  0
 24 25  1  0
 25 26  1  0
 26 27  1  0
 27 28  1  0
 28 29  1  0
 29 30  1  0
 25 31  1  0
 20 10  1  0
 31 21  1  0
 19 13  1  0
 30 26  1  0
  1 32  1  0
  1 33  1  0
  1 34  1  0
  2 35  1  1
  3 36  1  0
  6 37  1  0
  6 38  1  0
  7 39  1  0
 11 40  1  0
 12 41  1  0
 14 42  1  0
 17 43  1  0
 18 44  1  0
 21 45  1  1
 22 46  1  0
 22 47  1  0
 23 48  1  0
 23 49  1  0
 24 50  1  0
 24 51  1  0
 26 52  1  0
 27 53  1  0
 27 54  1  0
 28 55  1  0
 28 56  1  0
 29 57  1  0
 29 58  1  0
 30 59  1  0
 30 60  1  0
 31 61  1  0
 31 62  1  0
M  END
>  <smiles>  (41) 
C[C@H](NC(=O)CNC(=O)c1ccc2cc(Cl)ccc2n1)[C@H]1CCCN(C2CCCC2)C1

>  <score_type>  (41) 
oracle

>  <origin>  (41) 
autodockgpu

>  <m_score__min__energy>  (41) 
-9.0800000000000001

>  <m_primary>  (41) 
energy

>  <rmsd>  (41) 
3.286496408075948

>  <m_score__min__rmsd>  (41) 
3.286496408075948

>  <meeko>  (41) 
{"free_energy": -8.58, "intermolecular_energy": -10.37, "internal_energy": -1.77, "cluster_size": 28, "cluster_id": 1, "rank_in_cluster": 11}

>  <energy>  (41) 
-7.02

>  <cluster_rmsd>  (41) 
0.1

>  <cluster>  (41) 
5

$$$$

     RDKit          3D

 62 65  0  0  0  0  0  0  0  0999 V2000
  141.4690   78.2410  219.4020 C   0  0  0  0  0  0  0  0  0  0  0  0
  141.3920   77.3320  220.6490 C   0  0  2  0  0  0  0  0  0  0  0  0
  140.2820   76.4510  220.5820 N   0  0  0  0  0  0  0  0  0  0  0  0
  140.2160   75.1970  221.2980 C   0  0  0  0  0  0  0  0  0  0  0  0
  141.1550   74.8140  222.0280 O   0  0  0  0  0  0  0  0  0  0  0  0
  138.9610   74.4150  221.0910 C   0  0  0  0  0  0  0  0  0  0  0  0
  137.9510   74.9630  221.9610 N   0  0  0  0  0  0  0  0  0  0  0  0
  137.3380   76.2090  221.8600 C   0  0  0  0  0  0  0  0  0  0  0  0
  137.6380   77.0050  220.9460 O   0  0  0  0  0  0  0  0  0  0  0  0
  136.3130   76.5880  222.8660 C   0  0  0  0  0  0  0  0  0  0  0  0
  135.7550   77.8450  222.8670 C   0  0  0  0  0  0  0  0  0  0  0  0
  134.8010   78.2530  223.7920 C   0  0  0  0  0  0  0  0  0  0  0  0
  134.4340   77.2960  224.7340 C   0  0  0  0  0  0  0  0  0  0  0  0
  133.4890   77.5810  225.7060 C   0  0  0  0  0  0  0  0  0  0  0  0
  133.1090   76.6220  226.6560 C   0  0  0  0  0  0  0  0  0  0  0  0
  131.9060   77.0010  227.8860 Cl  0  0  0  0  0  0  0  0  0  0  0  0
  133.6950   75.3750  226.6120 C   0  0  0  0  0  0  0  0  0  0  0  0
  134.6560   75.0580  225.6400 C   0  0  0  0  0  0  0  0  0  0  0  0
  134.9960   76.0450  224.7230 C   0  0  0  0  0  0  0  0  0  0  0  0
  135.9330   75.6690  223.8040 N   0  0  0  0  0  0  0  0  0  0  0  0
  141.4510   78.2510  221.8350 C   0  0  1  0  0  0  0  0  0  0  0  0
  141.8450   79.6660  221.4110 C   0  0  0  0  0  0  0  0  0  0  0  0
  142.2700   80.3950  222.6560 C   0  0  0  0  0  0  0  0  0  0  0  0
  141.6150   79.7830  223.8450 C   0  0  0  0  0  0  0  0  0  0  0  0
  140.2810   79.3270  223.6270 N   0  0  0  0  0  0  0  0  0  0  0  0
  139.4100   80.4490  223.3690 C   0  0  0  0  0  0  0  0  0  0  0  0
  138.3580   80.4940  224.4750 C   0  0  0  0  0  0  0  0  0  0  0  0
  137.3120   81.4100  223.8800 C   0  0  0  0  0  0  0  0  0  0  0  0
  137.2840   81.0350  222.4340 C   0  0  0  0  0  0  0  0  0  0  0  0
  138.5520   80.2670  222.1390 C   0  0  0  0  0  0  0  0  0  0  0  0
  140.2170   78.2540  222.6940 C   0  0  0  0  0  0  0  0  0  0  0  0
  141.5579   79.2908  219.7184 H   0  0  0  0  0  0  0  0  0  0  0  0
  142.3469   77.9639  218.7999 H   0  0  0  0  0  0  0  0  0  0  0  0
  140.5570   78.1155  218.7999 H   0  0  0  0  0  0  0  0  0  0  0  0
  142.2339   76.6284  220.7273 H   0  0  0  0  0  0  0  0  0  0  0  0
  139.4640   76.7530  219.9660 H   0  0  0  0  0  0  0  0  0  0  0  0
  138.6371   74.4980  220.0430 H   0  0  0  0  0  0  0  0  0  0  0  0
  139.1289   73.3521  221.3194 H   0  0  0  0  0  0  0  0  0  0  0  0
  137.6530   74.3290  222.7660 H   0  0  0  0  0  0  0  0  0  0  0  0
  136.0793   78.5622  222.0986 H   0  0  0  0  0  0  0  0  0  0  0  0
  134.3657   79.2632  223.7804 H   0  0  0  0  0  0  0  0  0  0  0  0
  133.0276   78.5792  225.7332 H   0  0  0  0  0  0  0  0  0  0  0  0
  133.4041   74.6150  227.3521 H   0  0  0  0  0  0  0  0  0  0  0  0
  135.1238   74.0630  225.6052 H   0  0  0  0  0  0  0  0  0  0  0  0
  142.2383   77.8386  222.4832 H   0  0  0  0  0  0  0  0  0  0  0  0
  142.6774   79.6274  220.6929 H   0  0  0  0  0  0  0  0  0  0  0  0
  141.0028   80.1789  220.9236 H   0  0  0  0  0  0  0  0  0  0  0  0
  143.3625   80.3265  222.7648 H   0  0  0  0  0  0  0  0  0  0  0  0
  141.9716   81.4510  222.5793 H   0  0  0  0  0  0  0  0  0  0  0  0
  142.2221   78.9233  224.1650 H   0  0  0  0  0  0  0  0  0  0  0  0
  141.5499   80.5764  224.6042 H   0  0  0  0  0  0  0  0  0  0  0  0
  140.0693   81.3249  223.2794 H   0  0  0  0  0  0  0  0  0  0  0  0
  137.9458   79.4939  224.6750 H   0  0  0  0  0  0  0  0  0  0  0  0
  138.7487   80.8386  225.4438 H   0  0  0  0  0  0  0  0  0  0  0  0
  136.3310   81.2390  224.3474 H   0  0  0  0  0  0  0  0  0  0  0  0
  137.5421   82.4741  224.0372 H   0  0  0  0  0  0  0  0  0  0  0  0
  136.4065   80.4051  222.2263 H   0  0  0  0  0  0  0  0  0  0  0  0
  137.2192   81.9331  221.8021 H   0  0  0  0  0  0  0  0  0  0  0  0
  138.3305   79.2020  221.9754 H   0  0  0  0  0  0  0  0  0  0  0  0
  139.0521   80.6266  221.2276 H   0  0  0  0  0  0  0  0  0  0  0  0
  140.1487   77.3005  223.2383 H   0  0  0  0  0  0  0  0  0  0  0  0
  139.3304   78.3808  222.0553 H   0  0  0  0  0  0  0  0  0  0  0  0
  1  2  1  0
  2  3  1  0
  3  4  1  0
  4  5  2  0
  4  6  1  0
  6  7  1  0
  7  8  1  0
  8  9  2  0
  8 10  1  0
 10 11  2  0
 11 12  1  0
 12 13  2  0
 13 14  1  0
 14 15  2  0
 15 16  1  0
 15 17  1  0
 17 18  2  0
 18 19  1  0
 19 20  2  0
  2 21  1  0
 21 22  1  0
 22 23  1  0
 23 24  1  0
 24 25  1  0
 25 26  1  0
 26 27  1  0
 27 28  1  0
 28 29  1  0
 29 30  1  0
 25 31  1  0
 20 10  1  0
 31 21  1  0
 19 13  1  0
 30 26  1  0
  1 32  1  0
  1 33  1  0
  1 34  1  0
  2 35  1  1
  3 36  1  0
  6 37  1  0
  6 38  1  0
  7 39  1  0
 11 40  1  0
 12 41  1  0
 14 42  1  0
 17 43  1  0
 18 44  1  0
 21 45  1  1
 22 46  1  0
 22 47  1  0
 23 48  1  0
 23 49  1  0
 24 50  1  0
 24 51  1  0
 26 52  1  0
 27 53  1  0
 27 54  1  0
 28 55  1  0
 28 56  1  0
 29 57  1  0
 29 58  1  0
 30 59  1  0
 30 60  1  0
 31 61  1  0
 31 62  1  0
M  END
>  <smiles>  (42) 
C[C@H](NC(=O)CNC(=O)c1ccc2cc(Cl)ccc2n1)[C@H]1CCCN(C2CCCC2)C1

>  <score_type>  (42) 
oracle

>  <origin>  (42) 
autodockgpu

>  <m_score__min__energy>  (42) 
-9.0800000000000001

>  <m_primary>  (42) 
energy

>  <rmsd>  (42) 
6.156139780010074

>  <m_score__min__rmsd>  (42) 
6.156139780010074

>  <meeko>  (42) 
{"free_energy": -7.03, "intermolecular_energy": -8.82, "internal_energy": -3.57, "cluster_size": 12, "cluster_id": 5, "rank_in_cluster": 2}

>  <energy>  (42) 
-7.01

>  <cluster_rmsd>  (42) 
0.22

>  <cluster>  (42) 
5

$$$$

     RDKit          3D

 62 65  0  0  0  0  0  0  0  0999 V2000
  141.5300   78.7970  219.2890 C   0  0  0  0  0  0  0  0  0  0  0  0
  141.6580   77.7950  220.4580 C   0  0  2  0  0  0  0  0  0  0  0  0
  140.7140   76.7420  220.3470 N   0  0  0  0  0  0  0  0  0  0  0  0
  140.6300   75.6450  221.2830 C   0  0  0  0  0  0  0  0  0  0  0  0
  141.4050   75.5630  222.2600 O   0  0  0  0  0  0  0  0  0  0  0  0
  139.5680   74.6390  220.9860 C   0  0  0  0  0  0  0  0  0  0  0  0
  139.6650   73.5910  221.9710 N   0  0  0  0  0  0  0  0  0  0  0  0
  139.0250   72.3550  221.9510 C   0  0  0  0  0  0  0  0  0  0  0  0
  138.2610   72.0370  221.0160 O   0  0  0  0  0  0  0  0  0  0  0  0
  139.2600   71.4070  223.0700 C   0  0  0  0  0  0  0  0  0  0  0  0
  138.7910   70.1160  223.0130 C   0  0  0  0  0  0  0  0  0  0  0  0
  138.9740   69.1940  224.0370 C   0  0  0  0  0  0  0  0  0  0  0  0
  139.6740   69.6620  225.1450 C   0  0  0  0  0  0  0  0  0  0  0  0
  139.9250   68.8370  226.2290 C   0  0  0  0  0  0  0  0  0  0  0  0
  140.6350   69.2980  227.3470 C   0  0  0  0  0  0  0  0  0  0  0  0
  140.9440   68.2340  228.7170 Cl  0  0  0  0  0  0  0  0  0  0  0  0
  141.0870   70.6000  227.3560 C   0  0  0  0  0  0  0  0  0  0  0  0
  140.8470   71.4600  226.2730 C   0  0  0  0  0  0  0  0  0  0  0  0
  140.1390   70.9520  225.1920 C   0  0  0  0  0  0  0  0  0  0  0  0
  139.9450   71.8390  224.1720 N   0  0  0  0  0  0  0  0  0  0  0  0
  141.6060   78.6170  221.7150 C   0  0  1  0  0  0  0  0  0  0  0  0
  141.8820   80.0900  221.4160 C   0  0  0  0  0  0  0  0  0  0  0  0
  142.2090   80.7510  222.7270 C   0  0  0  0  0  0  0  0  0  0  0  0
  141.5830   79.9890  223.8430 C   0  0  0  0  0  0  0  0  0  0  0  0
  140.3000   79.4370  223.5480 N   0  0  0  0  0  0  0  0  0  0  0  0
  139.3390   80.4960  223.3520 C   0  0  0  0  0  0  0  0  0  0  0  0
  138.4360   80.5480  224.5820 C   0  0  0  0  0  0  0  0  0  0  0  0
  137.2710   81.3730  224.0850 C   0  0  0  0  0  0  0  0  0  0  0  0
  137.0800   80.9170  222.6750 C   0  0  0  0  0  0  0  0  0  0  0  0
  138.3420   80.2010  222.2550 C   0  0  0  0  0  0  0  0  0  0  0  0
  140.3560   78.4420  222.5320 C   0  0  0  0  0  0  0  0  0  0  0  0
  141.4002   79.8132  219.6896 H   0  0  0  0  0  0  0  0  0  0  0  0
  142.4402   78.7594  218.6725 H   0  0  0  0  0  0  0  0  0  0  0  0
  140.6584   78.5318  218.6725 H   0  0  0  0  0  0  0  0  0  0  0  0
  142.6100   77.2439  220.4561 H   0  0  0  0  0  0  0  0  0  0  0  0
  140.0380   76.7880  219.5220 H   0  0  0  0  0  0  0  0  0  0  0  0
  138.5772   75.1136  221.0411 H   0  0  0  0  0  0  0  0  0  0  0  0
  139.7003   74.2283  219.9741 H   0  0  0  0  0  0  0  0  0  0  0  0
  140.3040   73.8050  222.7990 H   0  0  0  0  0  0  0  0  0  0  0  0
  138.2443   69.7971  222.1133 H   0  0  0  0  0  0  0  0  0  0  0  0
  138.5915   68.1645  223.9757 H   0  0  0  0  0  0  0  0  0  0  0  0
  139.5601   67.7994  226.2125 H   0  0  0  0  0  0  0  0  0  0  0  0
  141.6458   70.9718  228.2275 H   0  0  0  0  0  0  0  0  0  0  0  0
  141.2070   72.4994  226.2804 H   0  0  0  0  0  0  0  0  0  0  0  0
  142.4111   78.2243  222.3535 H   0  0  0  0  0  0  0  0  0  0  0  0
  142.7321   80.1822  220.7240 H   0  0  0  0  0  0  0  0  0  0  0  0
  141.0094   80.5649  220.9437 H   0  0  0  0  0  0  0  0  0  0  0  0
  143.3002   80.7706  222.8645 H   0  0  0  0  0  0  0  0  0  0  0  0
  141.8186   81.7794  222.7239 H   0  0  0  0  0  0  0  0  0  0  0  0
  142.2569   79.1625  224.1127 H   0  0  0  0  0  0  0  0  0  0  0  0
  141.4287   80.7091  224.6601 H   0  0  0  0  0  0  0  0  0  0  0  0
  139.9293   81.3984  223.1346 H   0  0  0  0  0  0  0  0  0  0  0  0
  138.1124   79.5406  224.8826 H   0  0  0  0  0  0  0  0  0  0  0  0
  138.9262   80.9663  225.4735 H   0  0  0  0  0  0  0  0  0  0  0  0
  136.3697   81.1776  224.6845 H   0  0  0  0  0  0  0  0  0  0  0  0
  137.4566   82.4547  224.1585 H   0  0  0  0  0  0  0  0  0  0  0  0
  136.2216   80.2318  222.6148 H   0  0  0  0  0  0  0  0  0  0  0  0
  136.8821   81.7737  222.0140 H   0  0  0  0  0  0  0  0  0  0  0  0
  138.1643   79.1185  222.1742 H   0  0  0  0  0  0  0  0  0  0  0  0
  138.6993   80.5346  221.2696 H   0  0  0  0  0  0  0  0  0  0  0  0
  140.3605   77.4452  222.9971 H   0  0  0  0  0  0  0  0  0  0  0  0
  139.4777   78.5420  221.8774 H   0  0  0  0  0  0  0  0  0  0  0  0
  1  2  1  0
  2  3  1  0
  3  4  1  0
  4  5  2  0
  4  6  1  0
  6  7  1  0
  7  8  1  0
  8  9  2  0
  8 10  1  0
 10 11  2  0
 11 12  1  0
 12 13  2  0
 13 14  1  0
 14 15  2  0
 15 16  1  0
 15 17  1  0
 17 18  2  0
 18 19  1  0
 19 20  2  0
  2 21  1  0
 21 22  1  0
 22 23  1  0
 23 24  1  0
 24 25  1  0
 25 26  1  0
 26 27  1  0
 27 28  1  0
 28 29  1  0
 29 30  1  0
 25 31  1  0
 20 10  1  0
 31 21  1  0
 19 13  1  0
 30 26  1  0
  1 32  1  0
  1 33  1  0
  1 34  1  0
  2 35  1  6
  3 36  1  0
  6 37  1  0
  6 38  1  0
  7 39  1  0
 11 40  1  0
 12 41  1  0
 14 42  1  0
 17 43  1  0
 18 44  1  0
 21 45  1  1
 22 46  1  0
 22 47  1  0
 23 48  1  0
 23 49  1  0
 24 50  1  0
 24 51  1  0
 26 52  1  0
 27 53  1  0
 27 54  1  0
 28 55  1  0
 28 56  1  0
 29 57  1  0
 29 58  1  0
 30 59  1  0
 30 60  1  0
 31 61  1  0
 31 62  1  0
M  END
>  <smiles>  (43) 
C[C@H](NC(=O)CNC(=O)c1ccc2cc(Cl)ccc2n1)[C@H]1CCCN(C2CCCC2)C1

>  <score_type>  (43) 
oracle

>  <origin>  (43) 
autodockgpu

>  <m_score__min__energy>  (43) 
-9.0800000000000001

>  <m_primary>  (43) 
energy

>  <rmsd>  (43) 
3.952923035391592

>  <m_score__min__rmsd>  (43) 
3.952923035391592

>  <meeko>  (43) 
{"free_energy": -8.53, "intermolecular_energy": -10.32, "internal_energy": -2.35, "cluster_size": 28, "cluster_id": 1, "rank_in_cluster": 16}

>  <energy>  (43) 
-7.0

>  <cluster_rmsd>  (43) 
0.21

>  <cluster>  (43) 
5

$$$$

     RDKit          3D

 62 65  0  0  0  0  0  0  0  0999 V2000
  137.7000   77.7390  222.5570 C   0  0  0  0  0  0  0  0  0  0  0  0
  137.9760   77.2340  221.1230 C   0  0  2  0  0  0  0  0  0  0  0  0
  137.5750   75.8820  220.9630 N   0  0  0  0  0  0  0  0  0  0  0  0
  138.2300   74.7740  221.6190 C   0  0  0  0  0  0  0  0  0  0  0  0
  139.2080   74.9520  222.3770 O   0  0  0  0  0  0  0  0  0  0  0  0
  137.6550   73.4300  221.3170 C   0  0  0  0  0  0  0  0  0  0  0  0
  138.1210   72.5130  222.3270 N   0  0  0  0  0  0  0  0  0  0  0  0
  138.1440   71.1230  222.2570 C   0  0  0  0  0  0  0  0  0  0  0  0
  137.7310   70.5200  221.2440 O   0  0  0  0  0  0  0  0  0  0  0  0
  138.6680   70.3550  223.4150 C   0  0  0  0  0  0  0  0  0  0  0  0
  138.5020   68.9910  223.4910 C   0  0  0  0  0  0  0  0  0  0  0  0
  138.9630   68.2280  224.5580 C   0  0  0  0  0  0  0  0  0  0  0  0
  139.6160   68.9360  225.5620 C   0  0  0  0  0  0  0  0  0  0  0  0
  140.1250   68.2870  226.6750 C   0  0  0  0  0  0  0  0  0  0  0  0
  140.7890   68.9910  227.6890 C   0  0  0  0  0  0  0  0  0  0  0  0
  141.4300   68.1490  229.0980 Cl  0  0  0  0  0  0  0  0  0  0  0  0
  140.9330   70.3570  227.5650 C   0  0  0  0  0  0  0  0  0  0  0  0
  140.4270   71.0420  226.4500 C   0  0  0  0  0  0  0  0  0  0  0  0
  139.7770   70.2960  225.4750 C   0  0  0  0  0  0  0  0  0  0  0  0
  139.3140   71.0230  224.4170 N   0  0  0  0  0  0  0  0  0  0  0  0
  139.4180   77.5460  220.8440 C   0  0  1  0  0  0  0  0  0  0  0  0
  139.5450   78.7610  219.9240 C   0  0  0  0  0  0  0  0  0  0  0  0
  140.9480   78.7550  219.3810 C   0  0  0  0  0  0  0  0  0  0  0  0
  141.8480   78.0320  220.3220 C   0  0  0  0  0  0  0  0  0  0  0  0
  141.5490   78.2230  221.7040 N   0  0  0  0  0  0  0  0  0  0  0  0
  141.7900   79.5960  222.0780 C   0  0  0  0  0  0  0  0  0  0  0  0
  142.9220   79.6140  223.1030 C   0  0  0  0  0  0  0  0  0  0  0  0
  142.7900   80.9990  223.6960 C   0  0  0  0  0  0  0  0  0  0  0  0
  141.3150   81.2200  223.7730 C   0  0  0  0  0  0  0  0  0  0  0  0
  140.6560   80.2070  222.8670 C   0  0  0  0  0  0  0  0  0  0  0  0
  140.2830   77.6860  222.0660 C   0  0  0  0  0  0  0  0  0  0  0  0
  138.0961   77.0143  223.2836 H   0  0  0  0  0  0  0  0  0  0  0  0
  138.1918   78.7119  222.7042 H   0  0  0  0  0  0  0  0  0  0  0  0
  136.6156   77.8504  222.7042 H   0  0  0  0  0  0  0  0  0  0  0  0
  137.3697   77.7417  220.3584 H   0  0  0  0  0  0  0  0  0  0  0  0
  136.7420   75.7010  220.3220 H   0  0  0  0  0  0  0  0  0  0  0  0
  136.5563   73.4804  221.3359 H   0  0  0  0  0  0  0  0  0  0  0  0
  137.9701   73.0934  220.3183 H   0  0  0  0  0  0  0  0  0  0  0  0
  138.4850   72.9700  223.2200 H   0  0  0  0  0  0  0  0  0  0  0  0
  137.9798   68.4801  222.6686 H   0  0  0  0  0  0  0  0  0  0  0  0
  138.8210   67.1382  224.6052 H   0  0  0  0  0  0  0  0  0  0  0  0
  140.0057   67.1972  226.7648 H   0  0  0  0  0  0  0  0  0  0  0  0
  141.4537   70.9193  228.3541 H   0  0  0  0  0  0  0  0  0  0  0  0
  140.5410   72.1316  226.3513 H   0  0  0  0  0  0  0  0  0  0  0  0
  139.8121   76.6591  220.3262 H   0  0  0  0  0  0  0  0  0  0  0  0
  138.8203   78.6884  219.0997 H   0  0  0  0  0  0  0  0  0  0  0  0
  139.3395   79.6923  220.4721 H   0  0  0  0  0  0  0  0  0  0  0  0
  140.9595   78.2503  218.4037 H   0  0  0  0  0  0  0  0  0  0  0  0
  141.2983   79.7914  219.2661 H   0  0  0  0  0  0  0  0  0  0  0  0
  141.7789   76.9563  220.1027 H   0  0  0  0  0  0  0  0  0  0  0  0
  142.8556   78.4442  220.1640 H   0  0  0  0  0  0  0  0  0  0  0  0
  141.9679   80.1354  221.1360 H   0  0  0  0  0  0  0  0  0  0  0  0
  142.7801   78.8367  223.8683 H   0  0  0  0  0  0  0  0  0  0  0  0
  143.9131   79.4097  222.6717 H   0  0  0  0  0  0  0  0  0  0  0  0
  143.2444   81.0407  224.6969 H   0  0  0  0  0  0  0  0  0  0  0  0
  143.3024   81.7665  223.0973 H   0  0  0  0  0  0  0  0  0  0  0  0
  140.9679   81.0806  224.8074 H   0  0  0  0  0  0  0  0  0  0  0  0
  141.0598   82.2433  223.4602 H   0  0  0  0  0  0  0  0  0  0  0  0
  140.1377   79.4380  223.4586 H   0  0  0  0  0  0  0  0  0  0  0  0
  139.8978   80.6656  222.2152 H   0  0  0  0  0  0  0  0  0  0  0  0
  140.4246   76.6977  222.5278 H   0  0  0  0  0  0  0  0  0  0  0  0
  139.7932   78.3637  222.7807 H   0  0  0  0  0  0  0  0  0  0  0  0
  1  2  1  0
  2  3  1  0
  3  4  1  0
  4  5  2  0
  4  6  1  0
  6  7  1  0
  7  8  1  0
  8  9  2  0
  8 10  1  0
 10 11  2  0
 11 12  1  0
 12 13  2  0
 13 14  1  0
 14 15  2  0
 15 16  1  0
 15 17  1  0
 17 18  2  0
 18 19  1  0
 19 20  2  0
  2 21  1  0
 21 22  1  0
 22 23  1  0
 23 24  1  0
 24 25  1  0
 25 26  1  0
 26 27  1  0
 27 28  1  0
 28 29  1  0
 29 30  1  0
 25 31  1  0
 20 10  1  0
 31 21  1  0
 19 13  1  0
 30 26  1  0
  1 32  1  0
  1 33  1  0
  1 34  1  0
  2 35  1  6
  3 36  1  0
  6 37  1  0
  6 38  1  0
  7 39  1  0
 11 40  1  0
 12 41  1  0
 14 42  1  0
 17 43  1  0
 18 44  1  0
 21 45  1  6
 22 46  1  0
 22 47  1  0
 23 48  1  0
 23 49  1  0
 24 50  1  0
 24 51  1  0
 26 52  1  0
 27 53  1  0
 27 54  1  0
 28 55  1  0
 28 56  1  0
 29 57  1  0
 29 58  1  0
 30 59  1  0
 30 60  1  0
 31 61  1  0
 31 62  1  0
M  END
>  <smiles>  (44) 
C[C@H](NC(=O)CNC(=O)c1ccc2cc(Cl)ccc2n1)[C@H]1CCCN(C2CCCC2)C1

>  <score_type>  (44) 
oracle

>  <origin>  (44) 
autodockgpu

>  <m_score__min__energy>  (44) 
-9.0800000000000001

>  <m_primary>  (44) 
energy

>  <rmsd>  (44) 
4.783270115382688

>  <m_score__min__rmsd>  (44) 
4.783270115382688

>  <meeko>  (44) 
{"free_energy": -8.5, "intermolecular_energy": -10.29, "internal_energy": -2.31, "cluster_size": 28, "cluster_id": 1, "rank_in_cluster": 19}

>  <energy>  (44) 
-7.0

>  <cluster_rmsd>  (44) 
0.1

>  <cluster>  (44) 
5

$$$$

     RDKit          3D

 62 65  0  0  0  0  0  0  0  0999 V2000
  141.4010   78.0730  219.4620 C   0  0  0  0  0  0  0  0  0  0  0  0
  141.3200   77.1780  220.7190 C   0  0  2  0  0  0  0  0  0  0  0  0
  140.2070   76.3000  220.6600 N   0  0  0  0  0  0  0  0  0  0  0  0
  140.1070   75.0870  221.4380 C   0  0  0  0  0  0  0  0  0  0  0  0
  141.0190   74.7380  222.2190 O   0  0  0  0  0  0  0  0  0  0  0  0
  138.8550   74.3010  221.2290 C   0  0  0  0  0  0  0  0  0  0  0  0
  137.8400   74.8520  222.0920 N   0  0  0  0  0  0  0  0  0  0  0  0
  137.2610   76.1150  222.0120 C   0  0  0  0  0  0  0  0  0  0  0  0
  137.6010   76.9270  221.1260 O   0  0  0  0  0  0  0  0  0  0  0  0
  136.2230   76.4940  223.0040 C   0  0  0  0  0  0  0  0  0  0  0  0
  135.6670   77.7520  223.0010 C   0  0  0  0  0  0  0  0  0  0  0  0
  134.7020   78.1590  223.9140 C   0  0  0  0  0  0  0  0  0  0  0  0
  134.3220   77.2020  224.8500 C   0  0  0  0  0  0  0  0  0  0  0  0
  133.3650   77.4860  225.8100 C   0  0  0  0  0  0  0  0  0  0  0  0
  132.9720   76.5260  226.7540 C   0  0  0  0  0  0  0  0  0  0  0  0
  131.7530   76.9050  227.9680 Cl  0  0  0  0  0  0  0  0  0  0  0  0
  133.5570   75.2780  226.7150 C   0  0  0  0  0  0  0  0  0  0  0  0
  134.5300   74.9620  225.7550 C   0  0  0  0  0  0  0  0  0  0  0  0
  134.8820   75.9500  224.8440 C   0  0  0  0  0  0  0  0  0  0  0  0
  135.8300   75.5740  223.9360 N   0  0  0  0  0  0  0  0  0  0  0  0
  141.3820   78.1090  221.8950 C   0  0  1  0  0  0  0  0  0  0  0  0
  141.7960   79.5140  221.4590 C   0  0  0  0  0  0  0  0  0  0  0  0
  142.2200   80.2520  222.6990 C   0  0  0  0  0  0  0  0  0  0  0  0
  141.5500   79.6600  223.8900 C   0  0  0  0  0  0  0  0  0  0  0  0
  140.2120   79.2180  223.6670 N   0  0  0  0  0  0  0  0  0  0  0  0
  139.3560   80.3470  223.3910 C   0  0  0  0  0  0  0  0  0  0  0  0
  138.3370   80.4550  224.5230 C   0  0  0  0  0  0  0  0  0  0  0  0
  137.2930   81.3700  223.9230 C   0  0  0  0  0  0  0  0  0  0  0  0
  137.2160   80.9410  222.4930 C   0  0  0  0  0  0  0  0  0  0  0  0
  138.4590   80.1370  222.1930 C   0  0  0  0  0  0  0  0  0  0  0  0
  140.1420   78.1360  222.7460 C   0  0  0  0  0  0  0  0  0  0  0  0
  141.4963   79.1256  219.7669 H   0  0  0  0  0  0  0  0  0  0  0  0
  142.2767   77.7843  218.8621 H   0  0  0  0  0  0  0  0  0  0  0  0
  140.4877   77.9462  218.8621 H   0  0  0  0  0  0  0  0  0  0  0  0
  142.1594   76.4725  220.8061 H   0  0  0  0  0  0  0  0  0  0  0  0
  139.4130   76.5730  220.0010 H   0  0  0  0  0  0  0  0  0  0  0  0
  138.5357   74.3778  220.1792 H   0  0  0  0  0  0  0  0  0  0  0  0
  139.0239   73.2396  221.4631 H   0  0  0  0  0  0  0  0  0  0  0  0
  137.5080   74.2040  222.8730 H   0  0  0  0  0  0  0  0  0  0  0  0
  136.0026   78.4707  222.2389 H   0  0  0  0  0  0  0  0  0  0  0  0
  134.2677   79.1695  223.8980 H   0  0  0  0  0  0  0  0  0  0  0  0
  132.9039   78.4844  225.8326 H   0  0  0  0  0  0  0  0  0  0  0  0
  133.2555   74.5167  227.4496 H   0  0  0  0  0  0  0  0  0  0  0  0
  134.9978   73.9669  225.7247 H   0  0  0  0  0  0  0  0  0  0  0  0
  142.1600   77.6942  222.5528 H   0  0  0  0  0  0  0  0  0  0  0  0
  142.6335   79.4575  220.7480 H   0  0  0  0  0  0  0  0  0  0  0  0
  140.9636   80.0313  220.9595 H   0  0  0  0  0  0  0  0  0  0  0  0
  143.3109   80.1730  222.8164 H   0  0  0  0  0  0  0  0  0  0  0  0
  141.9335   81.3102  222.6087 H   0  0  0  0  0  0  0  0  0  0  0  0
  142.1445   78.7964  224.2228 H   0  0  0  0  0  0  0  0  0  0  0  0
  141.4897   80.4615  224.6410 H   0  0  0  0  0  0  0  0  0  0  0  0
  140.0298   81.2049  223.2499 H   0  0  0  0  0  0  0  0  0  0  0  0
  137.9108   79.4719  224.7718 H   0  0  0  0  0  0  0  0  0  0  0  0
  138.7618   80.8271  225.4670 H   0  0  0  0  0  0  0  0  0  0  0  0
  136.3226   81.2377  224.4238 H   0  0  0  0  0  0  0  0  0  0  0  0
  137.5488   82.4342  224.0329 H   0  0  0  0  0  0  0  0  0  0  0  0
  136.3208   80.3219  222.3343 H   0  0  0  0  0  0  0  0  0  0  0  0
  137.1505   81.8155  221.8290 H   0  0  0  0  0  0  0  0  0  0  0  0
  138.2120   79.0714  222.0764 H   0  0  0  0  0  0  0  0  0  0  0  0
  138.9398   80.4521  221.2552 H   0  0  0  0  0  0  0  0  0  0  0  0
  140.0591   77.1895  223.3004 H   0  0  0  0  0  0  0  0  0  0  0  0
  139.2613   78.2660  222.0999 H   0  0  0  0  0  0  0  0  0  0  0  0
  1  2  1  0
  2  3  1  0
  3  4  1  0
  4  5  2  0
  4  6  1  0
  6  7  1  0
  7  8  1  0
  8  9  2  0
  8 10  1  0
 10 11  2  0
 11 12  1  0
 12 13  2  0
 13 14  1  0
 14 15  2  0
 15 16  1  0
 15 17  1  0
 17 18  2  0
 18 19  1  0
 19 20  2  0
  2 21  1  0
 21 22  1  0
 22 23  1  0
 23 24  1  0
 24 25  1  0
 25 26  1  0
 26 27  1  0
 27 28  1  0
 28 29  1  0
 29 30  1  0
 25 31  1  0
 20 10  1  0
 31 21  1  0
 19 13  1  0
 30 26  1  0
  1 32  1  0
  1 33  1  0
  1 34  1  0
  2 35  1  1
  3 36  1  0
  6 37  1  0
  6 38  1  0
  7 39  1  0
 11 40  1  0
 12 41  1  0
 14 42  1  0
 17 43  1  0
 18 44  1  0
 21 45  1  1
 22 46  1  0
 22 47  1  0
 23 48  1  0
 23 49  1  0
 24 50  1  0
 24 51  1  0
 26 52  1  0
 27 53  1  0
 27 54  1  0
 28 55  1  0
 28 56  1  0
 29 57  1  0
 29 58  1  0
 30 59  1  0
 30 60  1  0
 31 61  1  0
 31 62  1  0
M  END
>  <smiles>  (45) 
C[C@H](NC(=O)CNC(=O)c1ccc2cc(Cl)ccc2n1)[C@H]1CCCN(C2CCCC2)C1

>  <score_type>  (45) 
oracle

>  <origin>  (45) 
autodockgpu

>  <m_score__min__energy>  (45) 
-9.0800000000000001

>  <m_primary>  (45) 
energy

>  <rmsd>  (45) 
6.183253408859752

>  <m_score__min__rmsd>  (45) 
6.183253408859752

>  <meeko>  (45) 
{"free_energy": -7.03, "intermolecular_energy": -8.82, "internal_energy": -3.56, "cluster_size": 12, "cluster_id": 5, "rank_in_cluster": 3}

>  <energy>  (45) 
-6.99

>  <cluster_rmsd>  (45) 
0.19

>  <cluster>  (45) 
5

$$$$

     RDKit          3D

 62 65  0  0  0  0  0  0  0  0999 V2000
  138.0520   77.8540  222.9460 C   0  0  0  0  0  0  0  0  0  0  0  0
  138.1770   77.5710  221.4320 C   0  0  2  0  0  0  0  0  0  0  0  0
  137.8780   76.2170  221.1310 N   0  0  0  0  0  0  0  0  0  0  0  0
  138.5990   75.0980  221.6950 C   0  0  0  0  0  0  0  0  0  0  0  0
  139.5460   75.2690  222.4920 O   0  0  0  0  0  0  0  0  0  0  0  0
  138.1290   73.7530  221.2480 C   0  0  0  0  0  0  0  0  0  0  0  0
  138.5200   72.7940  222.2510 N   0  0  0  0  0  0  0  0  0  0  0  0
  138.3220   71.4170  222.2220 C   0  0  0  0  0  0  0  0  0  0  0  0
  137.7480   70.8660  221.2590 O   0  0  0  0  0  0  0  0  0  0  0  0
  138.8030   70.5980  223.3630 C   0  0  0  0  0  0  0  0  0  0  0  0
  138.5550   69.2460  223.4180 C   0  0  0  0  0  0  0  0  0  0  0  0
  138.9730   68.4380  224.4680 C   0  0  0  0  0  0  0  0  0  0  0  0
  139.6730   69.0870  225.4810 C   0  0  0  0  0  0  0  0  0  0  0  0
  140.1470   68.3890  226.5800 C   0  0  0  0  0  0  0  0  0  0  0  0
  140.8570   69.0340  227.6020 C   0  0  0  0  0  0  0  0  0  0  0  0
  141.4510   68.1300  228.9930 Cl  0  0  0  0  0  0  0  0  0  0  0  0
  141.0820   70.3900  227.5010 C   0  0  0  0  0  0  0  0  0  0  0  0
  140.6140   71.1240  226.4010 C   0  0  0  0  0  0  0  0  0  0  0  0
  139.9160   70.4360  225.4170 C   0  0  0  0  0  0  0  0  0  0  0  0
  139.4930   71.2080  224.3730 N   0  0  0  0  0  0  0  0  0  0  0  0
  139.5360   78.0670  221.0280 C   0  0  1  0  0  0  0  0  0  0  0  0
  140.4920   78.0720  222.2200 C   0  0  0  0  0  0  0  0  0  0  0  0
  141.6630   78.9370  221.8410 C   0  0  0  0  0  0  0  0  0  0  0  0
  141.8070   78.9660  220.3590 C   0  0  0  0  0  0  0  0  0  0  0  0
  141.5040   77.7350  219.7030 N   0  0  0  0  0  0  0  0  0  0  0  0
  142.4740   76.7300  220.0640 C   0  0  0  0  0  0  0  0  0  0  0  0
  143.1020   76.1960  218.7780 C   0  0  0  0  0  0  0  0  0  0  0  0
  143.7560   74.9180  219.2520 C   0  0  0  0  0  0  0  0  0  0  0  0
  142.7860   74.3610  220.2430 C   0  0  0  0  0  0  0  0  0  0  0  0
  141.8510   75.4790  220.6400 C   0  0  0  0  0  0  0  0  0  0  0  0
  140.1360   77.3680  219.8400 C   0  0  0  0  0  0  0  0  0  0  0  0
  138.4329   76.9917  223.5129 H   0  0  0  0  0  0  0  0  0  0  0  0
  138.6386   78.7488  223.2014 H   0  0  0  0  0  0  0  0  0  0  0  0
  136.9955   78.0230  223.2014 H   0  0  0  0  0  0  0  0  0  0  0  0
  137.4317   78.1069  220.8259 H   0  0  0  0  0  0  0  0  0  0  0  0
  137.0730   76.0410  220.4540 H   0  0  0  0  0  0  0  0  0  0  0  0
  137.0343   73.7560  221.1397 H   0  0  0  0  0  0  0  0  0  0  0  0
  138.5729   73.4945  220.2753 H   0  0  0  0  0  0  0  0  0  0  0  0
  139.0150   73.2050  223.1030 H   0  0  0  0  0  0  0  0  0  0  0  0
  137.9986   68.7821  222.5903 H   0  0  0  0  0  0  0  0  0  0  0  0
  138.7648   67.3583  224.4969 H   0  0  0  0  0  0  0  0  0  0  0  0
  139.9624   67.3070  226.6519 H   0  0  0  0  0  0  0  0  0  0  0  0
  141.6386   70.9059  228.2973 H   0  0  0  0  0  0  0  0  0  0  0  0
  140.7935   72.2063  226.3206 H   0  0  0  0  0  0  0  0  0  0  0  0
  139.3792   79.1019  220.6898 H   0  0  0  0  0  0  0  0  0  0  0  0
  139.9884   78.4851  223.1064 H   0  0  0  0  0  0  0  0  0  0  0  0
  140.8208   77.0510  222.4638 H   0  0  0  0  0  0  0  0  0  0  0  0
  141.4978   79.9592  222.2124 H   0  0  0  0  0  0  0  0  0  0  0  0
  142.5798   78.5251  222.2880 H   0  0  0  0  0  0  0  0  0  0  0  0
  141.1310   79.7391  219.9648 H   0  0  0  0  0  0  0  0  0  0  0  0
  142.8682   79.1718  220.1554 H   0  0  0  0  0  0  0  0  0  0  0  0
  143.1530   77.2146  220.7810 H   0  0  0  0  0  0  0  0  0  0  0  0
  142.3368   75.9935  218.0141 H   0  0  0  0  0  0  0  0  0  0  0  0
  143.7999   76.8998  218.3008 H   0  0  0  0  0  0  0  0  0  0  0  0
  143.9033   74.2203  218.4145 H   0  0  0  0  0  0  0  0  0  0  0  0
  144.7528   75.0881  219.6851 H   0  0  0  0  0  0  0  0  0  0  0  0
  142.2155   73.5377  219.7883 H   0  0  0  0  0  0  0  0  0  0  0  0
  143.3146   73.9667  221.1234 H   0  0  0  0  0  0  0  0  0  0  0  0
  140.8494   75.3149  220.2159 H   0  0  0  0  0  0  0  0  0  0  0  0
  141.7232   75.5444  221.7306 H   0  0  0  0  0  0  0  0  0  0  0  0
  139.5879   77.6573  218.9312 H   0  0  0  0  0  0  0  0  0  0  0  0
  140.0655   76.2800  219.9859 H   0  0  0  0  0  0  0  0  0  0  0  0
  1  2  1  0
  2  3  1  0
  3  4  1  0
  4  5  2  0
  4  6  1  0
  6  7  1  0
  7  8  1  0
  8  9  2  0
  8 10  1  0
 10 11  2  0
 11 12  1  0
 12 13  2  0
 13 14  1  0
 14 15  2  0
 15 16  1  0
 15 17  1  0
 17 18  2  0
 18 19  1  0
 19 20  2  0
  2 21  1  0
 21 22  1  0
 22 23  1  0
 23 24  1  0
 24 25  1  0
 25 26  1  0
 26 27  1  0
 27 28  1  0
 28 29  1  0
 29 30  1  0
 25 31  1  0
 20 10  1  0
 31 21  1  0
 19 13  1  0
 30 26  1  0
  1 32  1  0
  1 33  1  0
  1 34  1  0
  2 35  1  6
  3 36  1  0
  6 37  1  0
  6 38  1  0
  7 39  1  0
 11 40  1  0
 12 41  1  0
 14 42  1  0
 17 43  1  0
 18 44  1  0
 21 45  1  6
 22 46  1  0
 22 47  1  0
 23 48  1  0
 23 49  1  0
 24 50  1  0
 24 51  1  0
 26 52  1  0
 27 53  1  0
 27 54  1  0
 28 55  1  0
 28 56  1  0
 29 57  1  0
 29 58  1  0
 30 59  1  0
 30 60  1  0
 31 61  1  0
 31 62  1  0
M  END
>  <smiles>  (46) 
C[C@H](NC(=O)CNC(=O)c1ccc2cc(Cl)ccc2n1)[C@H]1CCCN(C2CCCC2)C1

>  <score_type>  (46) 
oracle

>  <origin>  (46) 
autodockgpu

>  <m_score__min__energy>  (46) 
-9.0800000000000001

>  <m_primary>  (46) 
energy

>  <rmsd>  (46) 
4.448563595794709

>  <m_score__min__rmsd>  (46) 
4.448563595794709

>  <meeko>  (46) 
{"free_energy": -7.87, "intermolecular_energy": -9.66, "internal_energy": -2.66, "cluster_size": 28, "cluster_id": 1, "rank_in_cluster": 26}

>  <energy>  (46) 
-6.98

>  <cluster_rmsd>  (46) 
0.21

>  <cluster>  (46) 
5

$$$$

     RDKit          3D

 62 65  0  0  0  0  0  0  0  0999 V2000
  141.3580   76.0230  220.9400 C   0  0  0  0  0  0  0  0  0  0  0  0
  140.5600   76.1010  222.2610 C   0  0  2  0  0  0  0  0  0  0  0  0
  139.4450   75.2230  222.2460 N   0  0  0  0  0  0  0  0  0  0  0  0
  138.5800   75.0540  221.1020 C   0  0  0  0  0  0  0  0  0  0  0  0
  138.7700   75.6890  220.0420 O   0  0  0  0  0  0  0  0  0  0  0  0
  137.4620   74.0830  221.2910 C   0  0  0  0  0  0  0  0  0  0  0  0
  137.8980   73.0880  222.2390 N   0  0  0  0  0  0  0  0  0  0  0  0
  138.5410   71.8850  221.9610 C   0  0  0  0  0  0  0  0  0  0  0  0
  138.8070   71.5500  220.7870 O   0  0  0  0  0  0  0  0  0  0  0  0
  138.9100   70.9910  223.0880 C   0  0  0  0  0  0  0  0  0  0  0  0
  138.6030   69.6510  223.0570 C   0  0  0  0  0  0  0  0  0  0  0  0
  138.9160   68.7750  224.0900 C   0  0  0  0  0  0  0  0  0  0  0  0
  139.5730   69.3430  225.1780 C   0  0  0  0  0  0  0  0  0  0  0  0
  139.9420   68.5720  226.2680 C   0  0  0  0  0  0  0  0  0  0  0  0
  140.6090   69.1340  227.3650 C   0  0  0  0  0  0  0  0  0  0  0  0
  141.0710   68.1380  228.7440 Cl  0  0  0  0  0  0  0  0  0  0  0  0
  140.8980   70.4820  227.3480 C   0  0  0  0  0  0  0  0  0  0  0  0
  140.5350   71.2890  226.2590 C   0  0  0  0  0  0  0  0  0  0  0  0
  139.8760   70.6810  225.1980 C   0  0  0  0  0  0  0  0  0  0  0  0
  139.5560   71.5210  224.1700 N   0  0  0  0  0  0  0  0  0  0  0  0
  140.2680   77.5570  222.4840 C   0  0  1  0  0  0  0  0  0  0  0  0
  141.4340   78.2460  223.1930 C   0  0  0  0  0  0  0  0  0  0  0  0
  140.9130   79.5510  223.7280 C   0  0  0  0  0  0  0  0  0  0  0  0
  139.7470   79.9970  222.9170 C   0  0  0  0  0  0  0  0  0  0  0  0
  139.8400   79.7090  221.5230 N   0  0  0  0  0  0  0  0  0  0  0  0
  140.9090   80.4760  220.9300 C   0  0  0  0  0  0  0  0  0  0  0  0
  140.2830   81.6020  220.1090 C   0  0  0  0  0  0  0  0  0  0  0  0
  141.4420   82.0450  219.2440 C   0  0  0  0  0  0  0  0  0  0  0  0
  142.1420   80.7710  218.8960 C   0  0  0  0  0  0  0  0  0  0  0  0
  141.6730   79.7160  219.8700 C   0  0  0  0  0  0  0  0  0  0  0  0
  139.8450   78.3120  221.2540 C   0  0  0  0  0  0  0  0  0  0  0  0
  142.4297   75.9183  221.1647 H   0  0  0  0  0  0  0  0  0  0  0  0
  141.0188   75.1537  220.3575 H   0  0  0  0  0  0  0  0  0  0  0  0
  141.1935   76.9415  220.3575 H   0  0  0  0  0  0  0  0  0  0  0  0
  141.1235   75.7358  223.1323 H   0  0  0  0  0  0  0  0  0  0  0  0
  139.2590   74.6670  223.1380 H   0  0  0  0  0  0  0  0  0  0  0  0
  136.5744   74.6050  221.6779 H   0  0  0  0  0  0  0  0  0  0  0  0
  137.1968   73.6112  220.3334 H   0  0  0  0  0  0  0  0  0  0  0  0
  137.6960   73.3170  223.2620 H   0  0  0  0  0  0  0  0  0  0  0  0
  138.0847   69.2530  222.1721 H   0  0  0  0  0  0  0  0  0  0  0  0
  138.6618   67.7055  224.0504 H   0  0  0  0  0  0  0  0  0  0  0  0
  139.7069   67.4974  226.2727 H   0  0  0  0  0  0  0  0  0  0  0  0
  141.4225   70.9329  228.2034 H   0  0  0  0  0  0  0  0  0  0  0  0
  140.7641   72.3648  226.2459 H   0  0  0  0  0  0  0  0  0  0  0  0
  139.3854   77.5790  223.1402 H   0  0  0  0  0  0  0  0  0  0  0  0
  141.7986   77.6176  224.0189 H   0  0  0  0  0  0  0  0  0  0  0  0
  142.2722   78.4120  222.5002 H   0  0  0  0  0  0  0  0  0  0  0  0
  140.6011   79.4186  224.7745 H   0  0  0  0  0  0  0  0  0  0  0  0
  141.7070   80.3102  223.6720 H   0  0  0  0  0  0  0  0  0  0  0  0
  138.8476   79.4999  223.3094 H   0  0  0  0  0  0  0  0  0  0  0  0
  139.7116   81.0930  223.0041 H   0  0  0  0  0  0  0  0  0  0  0  0
  141.5596   80.7757  221.7648 H   0  0  0  0  0  0  0  0  0  0  0  0
  139.4465   81.2328  219.4974 H   0  0  0  0  0  0  0  0  0  0  0  0
  139.8528   82.4091  220.7201 H   0  0  0  0  0  0  0  0  0  0  0  0
  141.0814   82.5531  218.3375 H   0  0  0  0  0  0  0  0  0  0  0  0
  142.1002   82.7637  219.7542 H   0  0  0  0  0  0  0  0  0  0  0  0
  141.8894   80.4722  217.8679 H   0  0  0  0  0  0  0  0  0  0  0  0
  143.2329   80.8984  218.9576 H   0  0  0  0  0  0  0  0  0  0  0  0
  141.0180   78.9892  219.3673 H   0  0  0  0  0  0  0  0  0  0  0  0
  142.5107   79.1432  220.2945 H   0  0  0  0  0  0  0  0  0  0  0  0
  138.8341   77.9933  220.9597 H   0  0  0  0  0  0  0  0  0  0  0  0
  140.5525   78.1021  220.4382 H   0  0  0  0  0  0  0  0  0  0  0  0
  1  2  1  0
  2  3  1  0
  3  4  1  0
  4  5  2  0
  4  6  1  0
  6  7  1  0
  7  8  1  0
  8  9  2  0
  8 10  1  0
 10 11  2  0
 11 12  1  0
 12 13  2  0
 13 14  1  0
 14 15  2  0
 15 16  1  0
 15 17  1  0
 17 18  2  0
 18 19  1  0
 19 20  2  0
  2 21  1  0
 21 22  1  0
 22 23  1  0
 23 24  1  0
 24 25  1  0
 25 26  1  0
 26 27  1  0
 27 28  1  0
 28 29  1  0
 29 30  1  0
 25 31  1  0
 20 10  1  0
 31 21  1  0
 19 13  1  0
 30 26  1  0
  1 32  1  0
  1 33  1  0
  1 34  1  0
  2 35  1  1
  3 36  1  0
  6 37  1  0
  6 38  1  0
  7 39  1  0
 11 40  1  0
 12 41  1  0
 14 42  1  0
 17 43  1  0
 18 44  1  0
 21 45  1  1
 22 46  1  0
 22 47  1  0
 23 48  1  0
 23 49  1  0
 24 50  1  0
 24 51  1  0
 26 52  1  0
 27 53  1  0
 27 54  1  0
 28 55  1  0
 28 56  1  0
 29 57  1  0
 29 58  1  0
 30 59  1  0
 30 60  1  0
 31 61  1  0
 31 62  1  0
M  END
>  <smiles>  (47) 
C[C@H](NC(=O)CNC(=O)c1ccc2cc(Cl)ccc2n1)[C@H]1CCCN(C2CCCC2)C1

>  <score_type>  (47) 
oracle

>  <origin>  (47) 
autodockgpu

>  <m_score__min__energy>  (47) 
-9.0800000000000001

>  <m_primary>  (47) 
energy

>  <rmsd>  (47) 
4.231798937905545

>  <m_score__min__rmsd>  (47) 
4.231798937905545

>  <meeko>  (47) 
{"free_energy": -8.61, "intermolecular_energy": -10.4, "internal_energy": -1.69, "cluster_size": 28, "cluster_id": 1, "rank_in_cluster": 10}

>  <energy>  (47) 
-6.83

>  <cluster_rmsd>  (47) 
0.4

>  <cluster>  (47) 
5

$$$$

     RDKit          3D

 62 65  0  0  0  0  0  0  0  0999 V2000
  135.7950   77.5610  222.2870 C   0  0  0  0  0  0  0  0  0  0  0  0
  136.8250   78.1020  221.2710 C   0  0  2  0  0  0  0  0  0  0  0  0
  137.7650   77.1050  220.9030 N   0  0  0  0  0  0  0  0  0  0  0  0
  138.4820   76.2950  221.8600 C   0  0  0  0  0  0  0  0  0  0  0  0
  138.3110   76.4360  223.0900 O   0  0  0  0  0  0  0  0  0  0  0  0
  139.4270   75.3030  221.2670 C   0  0  0  0  0  0  0  0  0  0  0  0
  139.5340   74.1940  222.1830 N   0  0  0  0  0  0  0  0  0  0  0  0
  139.8930   72.8840  221.8800 C   0  0  0  0  0  0  0  0  0  0  0  0
  140.1650   72.5420  220.7100 O   0  0  0  0  0  0  0  0  0  0  0  0
  139.9450   71.8830  222.9750 C   0  0  0  0  0  0  0  0  0  0  0  0
  139.4710   70.6050  222.7880 C   0  0  0  0  0  0  0  0  0  0  0  0
  139.4870   69.6350  223.7830 C   0  0  0  0  0  0  0  0  0  0  0  0
  140.0210   70.0380  225.0040 C   0  0  0  0  0  0  0  0  0  0  0  0
  140.0960   69.1600  226.0730 C   0  0  0  0  0  0  0  0  0  0  0  0
  140.6370   69.5560  227.3040 C   0  0  0  0  0  0  0  0  0  0  0  0
  140.7240   68.4250  228.6530 Cl  0  0  0  0  0  0  0  0  0  0  0  0
  141.1010   70.8470  227.4410 C   0  0  0  0  0  0  0  0  0  0  0  0
  141.0370   71.7580  226.3770 C   0  0  0  0  0  0  0  0  0  0  0  0
  140.4910   71.3140  225.1800 C   0  0  0  0  0  0  0  0  0  0  0  0
  140.4640   72.2500  224.1850 N   0  0  0  0  0  0  0  0  0  0  0  0
  137.3790   79.3620  221.8720 C   0  0  1  0  0  0  0  0  0  0  0  0
  137.2600   79.3380  223.3960 C   0  0  0  0  0  0  0  0  0  0  0  0
  137.4490   80.7510  223.8740 C   0  0  0  0  0  0  0  0  0  0  0  0
  138.2550   81.5130  222.8800 C   0  0  0  0  0  0  0  0  0  0  0  0
  139.2870   80.7620  222.2420 N   0  0  0  0  0  0  0  0  0  0  0  0
  140.2970   80.3920  223.2040 C   0  0  0  0  0  0  0  0  0  0  0  0
  141.5650   81.1810  222.8850 C   0  0  0  0  0  0  0  0  0  0  0  0
  142.6150   80.4220  223.6640 C   0  0  0  0  0  0  0  0  0  0  0  0
  142.2160   78.9900  223.5090 C   0  0  0  0  0  0  0  0  0  0  0  0
  140.7770   78.9680  223.0470 C   0  0  0  0  0  0  0  0  0  0  0  0
  138.7740   79.7110  221.4330 C   0  0  0  0  0  0  0  0  0  0  0  0
  136.1544   77.7498  223.3093 H   0  0  0  0  0  0  0  0  0  0  0  0
  134.8309   78.0691  222.1376 H   0  0  0  0  0  0  0  0  0  0  0  0
  135.6662   76.4788  222.1376 H   0  0  0  0  0  0  0  0  0  0  0  0
  136.3812   78.3625  220.2988 H   0  0  0  0  0  0  0  0  0  0  0  0
  137.9300   76.9630  219.8580 H   0  0  0  0  0  0  0  0  0  0  0  0
  139.0420   74.9523  220.2981 H   0  0  0  0  0  0  0  0  0  0  0  0
  140.4130   75.7622  221.1027 H   0  0  0  0  0  0  0  0  0  0  0  0
  139.3110   74.4240  223.2010 H   0  0  0  0  0  0  0  0  0  0  0  0
  139.0595   70.3382  221.8034 H   0  0  0  0  0  0  0  0  0  0  0  0
  139.1036   68.6174  223.6171 H   0  0  0  0  0  0  0  0  0  0  0  0
  139.7237   68.1319  225.9534 H   0  0  0  0  0  0  0  0  0  0  0  0
  141.5290   71.1681  228.4021 H   0  0  0  0  0  0  0  0  0  0  0  0
  141.4064   72.7883  226.4867 H   0  0  0  0  0  0  0  0  0  0  0  0
  136.7517   80.1736  221.4747 H   0  0  0  0  0  0  0  0  0  0  0  0
  136.2668   78.9689  223.6916 H   0  0  0  0  0  0  0  0  0  0  0  0
  138.0137   78.6699  223.8381 H   0  0  0  0  0  0  0  0  0  0  0  0
  136.4666   81.2312  223.9935 H   0  0  0  0  0  0  0  0  0  0  0  0
  137.9753   80.7418  224.8399 H   0  0  0  0  0  0  0  0  0  0  0  0
  137.5734   81.8870  222.1018 H   0  0  0  0  0  0  0  0  0  0  0  0
  138.7579   82.3152  223.4400 H   0  0  0  0  0  0  0  0  0  0  0  0
  139.8449   80.5629  224.1921 H   0  0  0  0  0  0  0  0  0  0  0  0
  141.7818   81.1693  221.8066 H   0  0  0  0  0  0  0  0  0  0  0  0
  141.5015   82.2467  223.1502 H   0  0  0  0  0  0  0  0  0  0  0  0
  143.6162   80.5966  223.2432 H   0  0  0  0  0  0  0  0  0  0  0  0
  142.6690   80.7347  224.7172 H   0  0  0  0  0  0  0  0  0  0  0  0
  142.8579   78.4997  222.7623 H   0  0  0  0  0  0  0  0  0  0  0  0
  142.3258   78.4514  224.4618 H   0  0  0  0  0  0  0  0  0  0  0  0
  140.7128   78.6516  221.9954 H   0  0  0  0  0  0  0  0  0  0  0  0
  140.1668   78.2590  223.6258 H   0  0  0  0  0  0  0  0  0  0  0  0
  138.7553   80.0355  220.3821 H   0  0  0  0  0  0  0  0  0  0  0  0
  139.4187   78.8259  221.5373 H   0  0  0  0  0  0  0  0  0  0  0  0
  1  2  1  0
  2  3  1  0
  3  4  1  0
  4  5  2  0
  4  6  1  0
  6  7  1  0
  7  8  1  0
  8  9  2  0
  8 10  1  0
 10 11  2  0
 11 12  1  0
 12 13  2  0
 13 14  1  0
 14 15  2  0
 15 16  1  0
 15 17  1  0
 17 18  2  0
 18 19  1  0
 19 20  2  0
  2 21  1  0
 21 22  1  0
 22 23  1  0
 23 24  1  0
 24 25  1  0
 25 26  1  0
 26 27  1  0
 27 28  1  0
 28 29  1  0
 29 30  1  0
 25 31  1  0
 20 10  1  0
 31 21  1  0
 19 13  1  0
 30 26  1  0
  1 32  1  0
  1 33  1  0
  1 34  1  0
  2 35  1  6
  3 36  1  0
  6 37  1  0
  6 38  1  0
  7 39  1  0
 11 40  1  0
 12 41  1  0
 14 42  1  0
 17 43  1  0
 18 44  1  0
 21 45  1  6
 22 46  1  0
 22 47  1  0
 23 48  1  0
 23 49  1  0
 24 50  1  0
 24 51  1  0
 26 52  1  0
 27 53  1  0
 27 54  1  0
 28 55  1  0
 28 56  1  0
 29 57  1  0
 29 58  1  0
 30 59  1  0
 30 60  1  0
 31 61  1  0
 31 62  1  0
M  END
>  <smiles>  (48) 
C[C@H](NC(=O)CNC(=O)c1ccc2cc(Cl)ccc2n1)[C@H]1CCCN(C2CCCC2)C1

>  <score_type>  (48) 
oracle

>  <origin>  (48) 
autodockgpu

>  <m_score__min__energy>  (48) 
-9.0800000000000001

>  <m_primary>  (48) 
energy

>  <rmsd>  (48) 
4.386249273125709

>  <m_score__min__rmsd>  (48) 
4.386249273125709

>  <meeko>  (48) 
{"free_energy": -8.53, "intermolecular_energy": -10.32, "internal_energy": -2.33, "cluster_size": 28, "cluster_id": 1, "rank_in_cluster": 15}

>  <energy>  (48) 
-6.74

>  <cluster_rmsd>  (48) 
0.56

>  <cluster>  (48) 
5

$$$$

     RDKit          3D

 62 65  0  0  0  0  0  0  0  0999 V2000
  135.7830   77.6020  222.4000 C   0  0  0  0  0  0  0  0  0  0  0  0
  136.7590   78.1170  221.3190 C   0  0  2  0  0  0  0  0  0  0  0  0
  137.6820   77.1120  220.9300 N   0  0  0  0  0  0  0  0  0  0  0  0
  138.3950   76.2790  221.8700 C   0  0  0  0  0  0  0  0  0  0  0  0
  138.2370   76.4060  223.1040 O   0  0  0  0  0  0  0  0  0  0  0  0
  139.3210   75.2810  221.2570 C   0  0  0  0  0  0  0  0  0  0  0  0
  139.4520   74.1780  222.1750 N   0  0  0  0  0  0  0  0  0  0  0  0
  139.7550   72.8550  221.8640 C   0  0  0  0  0  0  0  0  0  0  0  0
  139.9470   72.4960  220.6830 O   0  0  0  0  0  0  0  0  0  0  0  0
  139.8440   71.8620  222.9640 C   0  0  0  0  0  0  0  0  0  0  0  0
  139.4340   70.5620  222.7780 C   0  0  0  0  0  0  0  0  0  0  0  0
  139.4870   69.5970  223.7770 C   0  0  0  0  0  0  0  0  0  0  0  0
  139.9900   70.0300  225.0010 C   0  0  0  0  0  0  0  0  0  0  0  0
  140.0960   69.1610  226.0740 C   0  0  0  0  0  0  0  0  0  0  0  0
  140.6060   69.5870  227.3090 C   0  0  0  0  0  0  0  0  0  0  0  0
  140.7340   68.4670  228.6630 Cl  0  0  0  0  0  0  0  0  0  0  0  0
  141.0060   70.8990  227.4450 C   0  0  0  0  0  0  0  0  0  0  0  0
  140.9090   71.8030  226.3760 C   0  0  0  0  0  0  0  0  0  0  0  0
  140.3960   71.3280  225.1760 C   0  0  0  0  0  0  0  0  0  0  0  0
  140.3330   72.2580  224.1780 N   0  0  0  0  0  0  0  0  0  0  0  0
  137.3410   79.3920  221.8590 C   0  0  1  0  0  0  0  0  0  0  0  0
  137.2300   79.4400  223.3830 C   0  0  0  0  0  0  0  0  0  0  0  0
  137.4490   80.8710  223.7940 C   0  0  0  0  0  0  0  0  0  0  0  0
  138.2620   81.5710  222.7620 C   0  0  0  0  0  0  0  0  0  0  0  0
  139.2760   80.7730  222.1530 N   0  0  0  0  0  0  0  0  0  0  0  0
  140.2850   80.4280  223.1260 C   0  0  0  0  0  0  0  0  0  0  0  0
  141.5610   81.1910  222.7720 C   0  0  0  0  0  0  0  0  0  0  0  0
  142.6060   80.4500  223.5760 C   0  0  0  0  0  0  0  0  0  0  0  0
  142.1900   79.0180  223.4770 C   0  0  0  0  0  0  0  0  0  0  0  0
  140.7490   78.9940  223.0220 C   0  0  0  0  0  0  0  0  0  0  0  0
  138.7390   79.6950  221.3960 C   0  0  0  0  0  0  0  0  0  0  0  0
  136.1932   77.8184  223.3974 H   0  0  0  0  0  0  0  0  0  0  0  0
  134.8113   78.1048  222.2861 H   0  0  0  0  0  0  0  0  0  0  0  0
  135.6496   76.5161  222.2861 H   0  0  0  0  0  0  0  0  0  0  0  0
  136.2652   78.3514  220.3644 H   0  0  0  0  0  0  0  0  0  0  0  0
  137.8360   76.9800  219.8820 H   0  0  0  0  0  0  0  0  0  0  0  0
  138.9081   74.9253  220.3015 H   0  0  0  0  0  0  0  0  0  0  0  0
  140.3029   75.7373  221.0628 H   0  0  0  0  0  0  0  0  0  0  0  0
  139.2960   74.4220  223.2020 H   0  0  0  0  0  0  0  0  0  0  0  0
  139.0453   70.2721  221.7906 H   0  0  0  0  0  0  0  0  0  0  0  0
  139.1542   68.5616  223.6118 H   0  0  0  0  0  0  0  0  0  0  0  0
  139.7738   68.1160  225.9553 H   0  0  0  0  0  0  0  0  0  0  0  0
  141.4085   71.2437  228.4089 H   0  0  0  0  0  0  0  0  0  0  0  0
  141.2278   72.8502  226.4846 H   0  0  0  0  0  0  0  0  0  0  0  0
  136.7272   80.1969  221.4285 H   0  0  0  0  0  0  0  0  0  0  0  0
  136.2316   79.1042  223.7000 H   0  0  0  0  0  0  0  0  0  0  0  0
  137.9728   78.7782  223.8522 H   0  0  0  0  0  0  0  0  0  0  0  0
  136.4765   81.3747  223.8969 H   0  0  0  0  0  0  0  0  0  0  0  0
  137.9819   80.8961  224.7560 H   0  0  0  0  0  0  0  0  0  0  0  0
  137.5822   81.9216  221.9714 H   0  0  0  0  0  0  0  0  0  0  0  0
  138.7833   82.3882  223.2820 H   0  0  0  0  0  0  0  0  0  0  0  0
  139.8383   80.6407  224.1085 H   0  0  0  0  0  0  0  0  0  0  0  0
  141.7732   81.1359  221.6941 H   0  0  0  0  0  0  0  0  0  0  0  0
  141.5103   82.2667  222.9963 H   0  0  0  0  0  0  0  0  0  0  0  0
  143.6075   80.5969  223.1453 H   0  0  0  0  0  0  0  0  0  0  0  0
  142.6679   80.8019  224.6163 H   0  0  0  0  0  0  0  0  0  0  0  0
  142.8232   78.4926  222.7469 H   0  0  0  0  0  0  0  0  0  0  0  0
  142.2977   78.5151  224.4494 H   0  0  0  0  0  0  0  0  0  0  0  0
  140.6768   78.6381  221.9837 H   0  0  0  0  0  0  0  0  0  0  0  0
  140.1338   78.3144  223.6301 H   0  0  0  0  0  0  0  0  0  0  0  0
  138.7190   79.9711  220.3314 H   0  0  0  0  0  0  0  0  0  0  0  0
  139.3686   78.8041  221.5369 H   0  0  0  0  0  0  0  0  0  0  0  0
  1  2  1  0
  2  3  1  0
  3  4  1  0
  4  5  2  0
  4  6  1  0
  6  7  1  0
  7  8  1  0
  8  9  2  0
  8 10  1  0
 10 11  2  0
 11 12  1  0
 12 13  2  0
 13 14  1  0
 14 15  2  0
 15 16  1  0
 15 17  1  0
 17 18  2  0
 18 19  1  0
 19 20  2  0
  2 21  1  0
 21 22  1  0
 22 23  1  0
 23 24  1  0
 24 25  1  0
 25 26  1  0
 26 27  1  0
 27 28  1  0
 28 29  1  0
 29 30  1  0
 25 31  1  0
 20 10  1  0
 31 21  1  0
 19 13  1  0
 30 26  1  0
  1 32  1  0
  1 33  1  0
  1 34  1  0
  2 35  1  6
  3 36  1  0
  6 37  1  0
  6 38  1  0
  7 39  1  0
 11 40  1  0
 12 41  1  0
 14 42  1  0
 17 43  1  0
 18 44  1  0
 21 45  1  6
 22 46  1  0
 22 47  1  0
 23 48  1  0
 23 49  1  0
 24 50  1  0
 24 51  1  0
 26 52  1  0
 27 53  1  0
 27 54  1  0
 28 55  1  0
 28 56  1  0
 29 57  1  0
 29 58  1  0
 30 59  1  0
 30 60  1  0
 31 61  1  0
 31 62  1  0
M  END
>  <smiles>  (49) 
C[C@H](NC(=O)CNC(=O)c1ccc2cc(Cl)ccc2n1)[C@H]1CCCN(C2CCCC2)C1

>  <score_type>  (49) 
oracle

>  <origin>  (49) 
autodockgpu

>  <m_score__min__energy>  (49) 
-9.0800000000000001

>  <m_primary>  (49) 
energy

>  <rmsd>  (49) 
4.3885902058435615

>  <m_score__min__rmsd>  (49) 
4.3885902058435615

>  <meeko>  (49) 
{"free_energy": -8.54, "intermolecular_energy": -10.33, "internal_energy": -2.34, "cluster_size": 28, "cluster_id": 1, "rank_in_cluster": 14}

>  <energy>  (49) 
-6.91

>  <cluster_rmsd>  (49) 
0.0

>  <cluster>  (49) 
6

$$$$

     RDKit          3D

 62 65  0  0  0  0  0  0  0  0999 V2000
  134.6550   69.9630  224.4910 C   0  0  0  0  0  0  0  0  0  0  0  0
  135.8220   70.9750  224.5040 C   0  0  2  0  0  0  0  0  0  0  0  0
  135.5060   72.1410  223.7600 N   0  0  0  0  0  0  0  0  0  0  0  0
  134.8900   73.3130  224.3390 C   0  0  0  0  0  0  0  0  0  0  0  0
  134.5940   73.3600  225.5520 O   0  0  0  0  0  0  0  0  0  0  0  0
  134.6390   74.4330  223.3850 C   0  0  0  0  0  0  0  0  0  0  0  0
  135.8800   75.1430  223.2010 N   0  0  0  0  0  0  0  0  0  0  0  0
  136.9660   74.7530  222.4230 C   0  0  0  0  0  0  0  0  0  0  0  0
  136.9500   73.6800  221.7820 O   0  0  0  0  0  0  0  0  0  0  0  0
  138.1610   75.6320  222.3650 C   0  0  0  0  0  0  0  0  0  0  0  0
  139.3520   75.1750  221.8500 C   0  0  0  0  0  0  0  0  0  0  0  0
  140.5010   75.9540  221.7840 C   0  0  0  0  0  0  0  0  0  0  0  0
  140.3750   77.2490  222.2760 C   0  0  0  0  0  0  0  0  0  0  0  0
  141.4490   78.1250  222.2610 C   0  0  0  0  0  0  0  0  0  0  0  0
  141.3290   79.4330  222.7500 C   0  0  0  0  0  0  0  0  0  0  0  0
  142.7060   80.5320  222.7220 Cl  0  0  0  0  0  0  0  0  0  0  0  0
  140.1140   79.8460  223.2530 C   0  0  0  0  0  0  0  0  0  0  0  0
  139.0090   78.9820  223.2830 C   0  0  0  0  0  0  0  0  0  0  0  0
  139.1820   77.6960  222.7870 C   0  0  0  0  0  0  0  0  0  0  0  0
  138.0670   76.9100  222.8420 N   0  0  0  0  0  0  0  0  0  0  0  0
  137.0390   70.2090  224.0720 C   0  0  1  0  0  0  0  0  0  0  0  0
  138.2280   71.1470  223.8580 C   0  0  0  0  0  0  0  0  0  0  0  0
  139.2500   70.3860  223.0600 C   0  0  0  0  0  0  0  0  0  0  0  0
  139.0730   68.9240  223.2810 C   0  0  0  0  0  0  0  0  0  0  0  0
  138.6920   68.5590  224.6060 N   0  0  0  0  0  0  0  0  0  0  0  0
  139.7600   68.8590  225.5290 C   0  0  0  0  0  0  0  0  0  0  0  0
  140.2470   67.5420  226.1320 C   0  0  0  0  0  0  0  0  0  0  0  0
  141.0340   68.0160  227.3330 C   0  0  0  0  0  0  0  0  0  0  0  0
  140.2370   69.1680  227.8560 C   0  0  0  0  0  0  0  0  0  0  0  0
  139.2950   69.6040  226.7590 C   0  0  0  0  0  0  0  0  0  0  0  0
  137.4030   69.0490  224.9570 C   0  0  0  0  0  0  0  0  0  0  0  0
  134.3714   69.7171  225.5250 H   0  0  0  0  0  0  0  0  0  0  0  0
  133.7929   70.4042  223.9694 H   0  0  0  0  0  0  0  0  0  0  0  0
  134.9697   69.0471  223.9694 H   0  0  0  0  0  0  0  0  0  0  0  0
  136.0258   71.3924  225.5011 H   0  0  0  0  0  0  0  0  0  0  0  0
  135.7490   72.1290  222.7210 H   0  0  0  0  0  0  0  0  0  0  0  0
  134.2908   74.0326  222.4214 H   0  0  0  0  0  0  0  0  0  0  0  0
  133.8657   75.1080  223.7805 H   0  0  0  0  0  0  0  0  0  0  0  0
  135.9550   76.0690  223.7270 H   0  0  0  0  0  0  0  0  0  0  0  0
  139.3971   74.1429  221.4721 H   0  0  0  0  0  0  0  0  0  0  0  0
  141.4462   75.5723  221.3706 H   0  0  0  0  0  0  0  0  0  0  0  0
  142.4148   77.7869  221.8573 H   0  0  0  0  0  0  0  0  0  0  0  0
  140.0088   80.8712  223.6377 H   0  0  0  0  0  0  0  0  0  0  0  0
  138.0396   79.3114  223.6852 H   0  0  0  0  0  0  0  0  0  0  0  0
  136.7662   69.7493  223.1106 H   0  0  0  0  0  0  0  0  0  0  0  0
  137.9079   72.0428  223.3056 H   0  0  0  0  0  0  0  0  0  0  0  0
  138.6468   71.4759  224.8205 H   0  0  0  0  0  0  0  0  0  0  0  0
  139.1217   70.6123  221.9912 H   0  0  0  0  0  0  0  0  0  0  0  0
  140.2588   70.6834  223.3823 H   0  0  0  0  0  0  0  0  0  0  0  0
  138.2950   68.5658  222.5908 H   0  0  0  0  0  0  0  0  0  0  0  0
  140.0565   68.4640  223.1049 H   0  0  0  0  0  0  0  0  0  0  0  0
  140.4958   69.4411  224.9549 H   0  0  0  0  0  0  0  0  0  0  0  0
  139.4028   66.9047  226.4339 H   0  0  0  0  0  0  0  0  0  0  0  0
  140.8325   66.9252  225.4343 H   0  0  0  0  0  0  0  0  0  0  0  0
  141.1124   67.2199  228.0881 H   0  0  0  0  0  0  0  0  0  0  0  0
  142.0668   68.2965  227.0786 H   0  0  0  0  0  0  0  0  0  0  0  0
  139.6636   68.8566  228.7416 H   0  0  0  0  0  0  0  0  0  0  0  0
  140.8994   69.9958  228.1494 H   0  0  0  0  0  0  0  0  0  0  0  0
  138.2587   69.3317  227.0078 H   0  0  0  0  0  0  0  0  0  0  0  0
  139.3063   70.6941  226.6121 H   0  0  0  0  0  0  0  0  0  0  0  0
  136.6609   68.2469  224.8309 H   0  0  0  0  0  0  0  0  0  0  0  0
  137.4149   69.3824  226.0052 H   0  0  0  0  0  0  0  0  0  0  0  0
  1  2  1  0
  2  3  1  0
  3  4  1  0
  4  5  2  0
  4  6  1  0
  6  7  1  0
  7  8  1  0
  8  9  2  0
  8 10  1  0
 10 11  2  0
 11 12  1  0
 12 13  2  0
 13 14  1  0
 14 15  2  0
 15 16  1  0
 15 17  1  0
 17 18  2  0
 18 19  1  0
 19 20  2  0
  2 21  1  0
 21 22  1  0
 22 23  1  0
 23 24  1  0
 24 25  1  0
 25 26  1  0
 26 27  1  0
 27 28  1  0
 28 29  1  0
 29 30  1  0
 25 31  1  0
 20 10  1  0
 31 21  1  0
 19 13  1  0
 30 26  1  0
  1 32  1  0
  1 33  1  0
  1 34  1  0
  2 35  1  1
  3 36  1  0
  6 37  1  0
  6 38  1  0
  7 39  1  0
 11 40  1  0
 12 41  1  0
 14 42  1  0
 17 43  1  0
 18 44  1  0
 21 45  1  6
 22 46  1  0
 22 47  1  0
 23 48  1  0
 23 49  1  0
 24 50  1  0
 24 51  1  0
 26 52  1  0
 27 53  1  0
 27 54  1  0
 28 55  1  0
 28 56  1  0
 29 57  1  0
 29 58  1  0
 30 59  1  0
 30 60  1  0
 31 61  1  0
 31 62  1  0
M  END
>  <smiles>  (50) 
C[C@H](NC(=O)CNC(=O)c1ccc2cc(Cl)ccc2n1)[C@H]1CCCN(C2CCCC2)C1

>  <score_type>  (50) 
oracle

>  <origin>  (50) 
autodockgpu

>  <m_score__min__energy>  (50) 
-9.0800000000000001

>  <m_primary>  (50) 
energy

>  <rmsd>  (50) 
9.760423033083457

>  <m_score__min__rmsd>  (50) 
9.760423033083457

>  <meeko>  (50) 
{"free_energy": -7.73, "intermolecular_energy": -9.52, "internal_energy": -2.72, "cluster_size": 3, "cluster_id": 3, "rank_in_cluster": 2}

>  <energy>  (50) 
-6.91

>  <cluster_rmsd>  (50) 
0.0

>  <cluster>  (50) 
7

$$$$
