
     RDKit          3D

 63 66  0  0  0  0  0  0  0  0999 V2000
  143.6450   76.0100  219.4250 C   0  0  0  0  0  0  0  0  0  0  0  0
  142.7100   77.0860  218.9530 C   0  0  0  0  0  0  0  0  0  0  0  0
  141.3580   76.9630  219.5390 C   0  0  0  0  0  0  0  0  0  0  0  0
  140.3910   76.8900  218.7300 O   0  0  0  0  0  0  0  0  0  0  0  0
  141.1400   76.9260  220.9520 N   0  0  0  0  0  0  0  0  0  0  0  0
  141.4000   78.1020  221.7090 C   0  0  0  0  0  0  0  0  0  0  0  0
  141.4120   78.0230  223.0920 C   0  0  0  0  0  0  0  0  0  0  0  0
  141.6660   79.1640  223.8230 C   0  0  0  0  0  0  0  0  0  0  0  0
  141.8990   80.3510  223.1620 C   0  0  0  0  0  0  0  0  0  0  0  0
  141.8910   80.4480  221.7760 C   0  0  0  0  0  0  0  0  0  0  0  0
  141.6350   79.2930  221.0370 C   0  0  0  0  0  0  0  0  0  0  0  0
  140.6660   75.6870  221.5440 C   0  0  0  0  0  0  0  0  0  0  0  0
  139.1990   75.4970  221.2910 C   0  0  0  0  0  0  0  0  0  0  0  0
  138.9300   74.0870  220.8620 C   0  0  0  0  0  0  0  0  0  0  0  0
  139.6100   73.0780  221.6410 N   0  0  0  0  0  0  0  0  0  0  0  0
  138.9370   71.8880  222.0330 C   0  0  0  0  0  0  0  0  0  0  0  0
  137.7380   71.7510  221.6810 O   0  0  0  0  0  0  0  0  0  0  0  0
  139.6630   70.8530  222.8380 C   0  0  0  0  0  0  0  0  0  0  0  0
  138.6690   70.2970  223.8270 C   0  0  2  0  0  0  0  0  0  0  0  0
  137.6160   71.1870  224.1970 N   0  0  0  0  0  0  0  0  0  0  0  0
  139.2670   69.5110  224.9170 C   0  0  0  0  0  0  0  0  0  0  0  0
  139.2050   68.1140  224.9730 C   0  0  0  0  0  0  0  0  0  0  0  0
  139.7580   67.3920  226.0060 C   0  0  0  0  0  0  0  0  0  0  0  0
  140.4090   68.0100  227.0520 C   0  0  0  0  0  0  0  0  0  0  0  0
  140.4830   69.3850  227.0180 C   0  0  0  0  0  0  0  0  0  0  0  0
  141.1440   69.9940  228.0730 C   0  0  0  0  0  0  0  0  0  0  0  0
  141.2700   71.3670  228.1210 C   0  0  0  0  0  0  0  0  0  0  0  0
  140.7210   72.0950  227.0920 C   0  0  0  0  0  0  0  0  0  0  0  0
  140.0650   71.4810  226.0490 C   0  0  0  0  0  0  0  0  0  0  0  0
  139.9270   70.1090  225.9800 C   0  0  0  0  0  0  0  0  0  0  0  0
  140.9920   73.3350  221.9950 C   0  0  0  0  0  0  0  0  0  0  0  0
  141.4170   74.4930  221.0860 C   0  0  0  0  0  0  0  0  0  0  0  0
  143.6595   75.9933  220.5248 H   0  0  0  0  0  0  0  0  0  0  0  0
  143.3023   75.0351  219.0480 H   0  0  0  0  0  0  0  0  0  0  0  0
  144.6582   76.2133  219.0480 H   0  0  0  0  0  0  0  0  0  0  0  0
  143.1280   78.0639  219.2341 H   0  0  0  0  0  0  0  0  0  0  0  0
  142.6103   76.9852  217.8622 H   0  0  0  0  0  0  0  0  0  0  0  0
  141.2219   77.0654  223.5987 H   0  0  0  0  0  0  0  0  0  0  0  0
  141.6826   79.1275  224.9223 H   0  0  0  0  0  0  0  0  0  0  0  0
  142.0989   81.2560  223.7545 H   0  0  0  0  0  0  0  0  0  0  0  0
  142.0813   81.4088  221.2754 H   0  0  0  0  0  0  0  0  0  0  0  0
  141.6196   79.3259  219.9376 H   0  0  0  0  0  0  0  0  0  0  0  0
  140.8430   75.7833  222.6254 H   0  0  0  0  0  0  0  0  0  0  0  0
  138.6399   75.7096  222.2141 H   0  0  0  0  0  0  0  0  0  0  0  0
  138.8788   76.1837  220.4936 H   0  0  0  0  0  0  0  0  0  0  0  0
  137.8476   73.9065  220.9379 H   0  0  0  0  0  0  0  0  0  0  0  0
  139.3132   73.9966  219.8349 H   0  0  0  0  0  0  0  0  0  0  0  0
  140.0323   70.0520  222.1808 H   0  0  0  0  0  0  0  0  0  0  0  0
  140.5313   71.2898  223.3530 H   0  0  0  0  0  0  0  0  0  0  0  0
  138.1226   69.5343  223.2528 H   0  0  0  0  0  0  0  0  0  0  0  0
  137.8350   72.1250  223.8440 H   0  0  0  0  0  0  0  0  0  0  0  0
  136.7150   70.7760  223.9410 H   0  0  0  0  0  0  0  0  0  0  0  0
  138.6957   67.5732  224.1617 H   0  0  0  0  0  0  0  0  0  0  0  0
  139.6785   66.2949  225.9966 H   0  0  0  0  0  0  0  0  0  0  0  0
  140.8497   67.4310  227.8770 H   0  0  0  0  0  0  0  0  0  0  0  0
  141.5713   69.3781  228.8780 H   0  0  0  0  0  0  0  0  0  0  0  0
  141.7915   71.8620  228.9535 H   0  0  0  0  0  0  0  0  0  0  0  0
  140.8078   73.1915  227.1023 H   0  0  0  0  0  0  0  0  0  0  0  0
  139.6384   72.1016  225.2472 H   0  0  0  0  0  0  0  0  0  0  0  0
  141.0744   73.6224  223.0536 H   0  0  0  0  0  0  0  0  0  0  0  0
  141.6277   72.4471  221.8629 H   0  0  0  0  0  0  0  0  0  0  0  0
  142.4994   74.6680  221.1748 H   0  0  0  0  0  0  0  0  0  0  0  0
  141.2020   74.2692  220.0307 H   0  0  0  0  0  0  0  0  0  0  0  0
  1  2  1  0
  2  3  1  0
  3  4  2  0
  3  5  1  0
  5  6  1  0
  6  7  2  0
  7  8  1  0
  8  9  2  0
  9 10  1  0
 10 11  2  0
  5 12  1  0
 12 13  1  0
 13 14  1  0
 14 15  1  0
 15 16  1  0
 16 17  2  0
 16 18  1  0
 18 19  1  0
 19 20  1  0
 19 21  1  0
 21 22  2  0
 22 23  1  0
 23 24  2  0
 24 25  1  0
 25 26  2  0
 26 27  1  0
 27 28  2  0
 28 29  1  0
 29 30  2  0
 15 31  1  0
 31 32  1  0
 11  6  1  0
 32 12  1  0
 30 21  1  0
 30 25  1  0
  1 33  1  0
  1 34  1  0
  1 35  1  0
  2 36  1  0
  2 37  1  0
  7 38  1  0
  8 39  1  0
  9 40  1  0
 10 41  1  0
 11 42  1  0
 12 43  1  0
 13 44  1  0
 13 45  1  0
 14 46  1  0
 14 47  1  0
 18 48  1  0
 18 49  1  0
 19 50  1  6
 20 51  1  0
 20 52  1  0
 22 53  1  0
 23 54  1  0
 24 55  1  0
 26 56  1  0
 27 57  1  0
 28 58  1  0
 29 59  1  0
 31 60  1  0
 31 61  1  0
 32 62  1  0
 32 63  1  0
M  END
>  <smiles>  (1) 
CCC(=O)N(c1ccccc1)C1CCN(C(=O)CC(N)c2cccc3ccccc23)CC1

>  <score_type>  (1) 
oracle

>  <origin>  (1) 
autodockgpu

>  <m_score__min__energy>  (1) 
-9.4000000000000004

>  <m_primary>  (1) 
energy

>  <rmsd>  (1) 
9.370159012271648

>  <m_score__min__rmsd>  (1) 
9.370159012271648

>  <meeko>  (1) 
{"free_energy": -9.24, "intermolecular_energy": -11.62, "internal_energy": -1.98, "cluster_size": 22, "cluster_id": 1, "rank_in_cluster": 3}

>  <energy>  (1) 
-9.4

>  <cluster_rmsd>  (1) 
0.0

>  <cluster>  (1) 
1

$$$$

     RDKit          3D

 63 66  0  0  0  0  0  0  0  0999 V2000
  141.7620   82.0940  218.5920 C   0  0  0  0  0  0  0  0  0  0  0  0
  141.8330   80.6370  218.9510 C   0  0  0  0  0  0  0  0  0  0  0  0
  140.7300   80.2170  219.8420 C   0  0  0  0  0  0  0  0  0  0  0  0
  139.5610   80.5510  219.4980 O   0  0  0  0  0  0  0  0  0  0  0  0
  140.9600   79.4670  221.0380 N   0  0  0  0  0  0  0  0  0  0  0  0
  141.5950   80.1150  222.1340 C   0  0  0  0  0  0  0  0  0  0  0  0
  142.9410   79.8850  222.3630 C   0  0  0  0  0  0  0  0  0  0  0  0
  143.5530   80.5160  223.4250 C   0  0  0  0  0  0  0  0  0  0  0  0
  142.8140   81.3570  224.2290 C   0  0  0  0  0  0  0  0  0  0  0  0
  141.4630   81.5990  224.0130 C   0  0  0  0  0  0  0  0  0  0  0  0
  140.8430   80.9600  222.9380 C   0  0  0  0  0  0  0  0  0  0  0  0
  140.5340   78.0790  221.0730 C   0  0  0  0  0  0  0  0  0  0  0  0
  141.0750   77.3190  219.8970 C   0  0  0  0  0  0  0  0  0  0  0  0
  141.6190   75.9970  220.3440 C   0  0  0  0  0  0  0  0  0  0  0  0
  140.7750   75.2800  221.2710 N   0  0  0  0  0  0  0  0  0  0  0  0
  140.5820   73.8770  221.1400 C   0  0  0  0  0  0  0  0  0  0  0  0
  141.1650   73.2920  220.1930 O   0  0  0  0  0  0  0  0  0  0  0  0
  139.7040   73.1520  222.1160 C   0  0  0  0  0  0  0  0  0  0  0  0
  140.5490   72.0640  222.7330 C   0  0  2  0  0  0  0  0  0  0  0  0
  141.5410   71.5040  221.8750 N   0  0  0  0  0  0  0  0  0  0  0  0
  139.8010   71.1120  223.5680 C   0  0  0  0  0  0  0  0  0  0  0  0
  138.7730   70.3030  223.0690 C   0  0  0  0  0  0  0  0  0  0  0  0
  138.0730   69.4260  223.8650 C   0  0  0  0  0  0  0  0  0  0  0  0
  138.3460   69.2940  225.2090 C   0  0  0  0  0  0  0  0  0  0  0  0
  139.3550   70.0790  225.7220 C   0  0  0  0  0  0  0  0  0  0  0  0
  139.6240   69.9340  227.0750 C   0  0  0  0  0  0  0  0  0  0  0  0
  140.6190   70.6770  227.6750 C   0  0  0  0  0  0  0  0  0  0  0  0
  141.3230   71.5550  226.8860 C   0  0  0  0  0  0  0  0  0  0  0  0
  141.0490   71.6940  225.5440 C   0  0  0  0  0  0  0  0  0  0  0  0
  140.0580   70.9610  224.9220 C   0  0  0  0  0  0  0  0  0  0  0  0
  140.1480   76.0490  222.3280 C   0  0  0  0  0  0  0  0  0  0  0  0
  140.8980   77.3860  222.3320 C   0  0  0  0  0  0  0  0  0  0  0  0
  141.7326   82.6972  219.5114 H   0  0  0  0  0  0  0  0  0  0  0  0
  142.6478   82.3696  218.0008 H   0  0  0  0  0  0  0  0  0  0  0  0
  140.8536   82.2821  218.0008 H   0  0  0  0  0  0  0  0  0  0  0  0
  141.7844   80.0434  218.0262 H   0  0  0  0  0  0  0  0  0  0  0  0
  142.7778   80.4720  219.4895 H   0  0  0  0  0  0  0  0  0  0  0  0
  143.5124   79.2102  221.7086 H   0  0  0  0  0  0  0  0  0  0  0  0
  144.6211   80.3499  223.6288 H   0  0  0  0  0  0  0  0  0  0  0  0
  143.3126   81.8553  225.0734 H   0  0  0  0  0  0  0  0  0  0  0  0
  140.8977   82.2754  224.6709 H   0  0  0  0  0  0  0  0  0  0  0  0
  139.7751   81.1236  222.7313 H   0  0  0  0  0  0  0  0  0  0  0  0
  139.4354   78.1010  221.0220 H   0  0  0  0  0  0  0  0  0  0  0  0
  140.2675   77.1526  219.1688 H   0  0  0  0  0  0  0  0  0  0  0  0
  141.8837   77.9025  219.4327 H   0  0  0  0  0  0  0  0  0  0  0  0
  141.7630   75.3670  219.4539 H   0  0  0  0  0  0  0  0  0  0  0  0
  142.5562   76.2111  220.8785 H   0  0  0  0  0  0  0  0  0  0  0  0
  139.3495   73.8441  222.8940 H   0  0  0  0  0  0  0  0  0  0  0  0
  138.8194   72.7308  221.6159 H   0  0  0  0  0  0  0  0  0  0  0  0
  141.1695   72.5953  223.4697 H   0  0  0  0  0  0  0  0  0  0  0  0
  141.0890   71.1770  221.0130 H   0  0  0  0  0  0  0  0  0  0  0  0
  142.3260   72.1540  221.7880 H   0  0  0  0  0  0  0  0  0  0  0  0
  138.5157   70.3711  222.0017 H   0  0  0  0  0  0  0  0  0  0  0  0
  137.2754   68.8149  223.4172 H   0  0  0  0  0  0  0  0  0  0  0  0
  137.7836   68.5934  225.8437 H   0  0  0  0  0  0  0  0  0  0  0  0
  139.0390   69.2207  227.6742 H   0  0  0  0  0  0  0  0  0  0  0  0
  140.8413   70.5707  228.7470 H   0  0  0  0  0  0  0  0  0  0  0  0
  142.1233   72.1602  227.3369 H   0  0  0  0  0  0  0  0  0  0  0  0
  141.6365   72.4097  224.9502 H   0  0  0  0  0  0  0  0  0  0  0  0
  139.0801   76.2037  222.1144 H   0  0  0  0  0  0  0  0  0  0  0  0
  140.1999   75.5391  223.3013 H   0  0  0  0  0  0  0  0  0  0  0  0
  140.5931   77.9897  223.1995 H   0  0  0  0  0  0  0  0  0  0  0  0
  141.9849   77.2312  222.3999 H   0  0  0  0  0  0  0  0  0  0  0  0
  1  2  1  0
  2  3  1  0
  3  4  2  0
  3  5  1  0
  5  6  1  0
  6  7  2  0
  7  8  1  0
  8  9  2  0
  9 10  1  0
 10 11  2  0
  5 12  1  0
 12 13  1  0
 13 14  1  0
 14 15  1  0
 15 16  1  0
 16 17  2  0
 16 18  1  0
 18 19  1  0
 19 20  1  0
 19 21  1  0
 21 22  2  0
 22 23  1  0
 23 24  2  0
 24 25  1  0
 25 26  2  0
 26 27  1  0
 27 28  2  0
 28 29  1  0
 29 30  2  0
 15 31  1  0
 31 32  1  0
 11  6  1  0
 32 12  1  0
 30 21  1  0
 30 25  1  0
  1 33  1  0
  1 34  1  0
  1 35  1  0
  2 36  1  0
  2 37  1  0
  7 38  1  0
  8 39  1  0
  9 40  1  0
 10 41  1  0
 11 42  1  0
 12 43  1  0
 13 44  1  0
 13 45  1  0
 14 46  1  0
 14 47  1  0
 18 48  1  0
 18 49  1  0
 19 50  1  1
 20 51  1  0
 20 52  1  0
 22 53  1  0
 23 54  1  0
 24 55  1  0
 26 56  1  0
 27 57  1  0
 28 58  1  0
 29 59  1  0
 31 60  1  0
 31 61  1  0
 32 62  1  0
 32 63  1  0
M  END
>  <smiles>  (2) 
CCC(=O)N(c1ccccc1)C1CCN(C(=O)CC(N)c2cccc3ccccc23)CC1

>  <score_type>  (2) 
oracle

>  <origin>  (2) 
autodockgpu

>  <m_score__min__energy>  (2) 
-9.4000000000000004

>  <m_primary>  (2) 
energy

>  <rmsd>  (2) 
7.679318560059721

>  <m_score__min__rmsd>  (2) 
7.679318560059721

>  <meeko>  (2) 
{"free_energy": -7.82, "intermolecular_energy": -10.21, "internal_energy": -2.19, "cluster_size": 5, "cluster_id": 7, "rank_in_cluster": 5}

>  <energy>  (2) 
-9.32

>  <cluster_rmsd>  (2) 
0.23

>  <cluster>  (2) 
1

$$$$

     RDKit          3D

 63 66  0  0  0  0  0  0  0  0999 V2000
  138.7960   67.5650  222.6540 C   0  0  0  0  0  0  0  0  0  0  0  0
  137.7650   68.6540  222.5740 C   0  0  0  0  0  0  0  0  0  0  0  0
  137.6860   69.4520  223.8160 C   0  0  0  0  0  0  0  0  0  0  0  0
  136.5900   69.4200  224.4450 O   0  0  0  0  0  0  0  0  0  0  0  0
  138.7870   70.2280  224.2960 N   0  0  0  0  0  0  0  0  0  0  0  0
  139.4450   69.8090  225.4860 C   0  0  0  0  0  0  0  0  0  0  0  0
  139.3510   68.4830  225.8760 C   0  0  0  0  0  0  0  0  0  0  0  0
  139.9910   68.0800  227.0280 C   0  0  0  0  0  0  0  0  0  0  0  0
  140.7040   69.0030  227.7630 C   0  0  0  0  0  0  0  0  0  0  0  0
  140.8090   70.3360  227.3870 C   0  0  0  0  0  0  0  0  0  0  0  0
  140.1620   70.7440  226.2200 C   0  0  0  0  0  0  0  0  0  0  0  0
  139.1790   71.4080  223.5450 C   0  0  0  0  0  0  0  0  0  0  0  0
  140.3880   71.1310  222.6990 C   0  0  0  0  0  0  0  0  0  0  0  0
  140.1930   71.6930  221.3240 C   0  0  0  0  0  0  0  0  0  0  0  0
  139.6460   73.0290  221.2890 N   0  0  0  0  0  0  0  0  0  0  0  0
  140.1560   73.9990  220.3840 C   0  0  0  0  0  0  0  0  0  0  0  0
  141.0960   73.6530  219.6240 O   0  0  0  0  0  0  0  0  0  0  0  0
  139.5700   75.3790  220.3620 C   0  0  0  0  0  0  0  0  0  0  0  0
  140.4540   76.2380  221.2320 C   0  0  2  0  0  0  0  0  0  0  0  0
  141.4650   75.5370  221.9540 N   0  0  0  0  0  0  0  0  0  0  0  0
  139.7420   77.2920  221.9720 C   0  0  0  0  0  0  0  0  0  0  0  0
  138.3650   77.2510  222.2220 C   0  0  0  0  0  0  0  0  0  0  0  0
  137.7100   78.2500  222.9040 C   0  0  0  0  0  0  0  0  0  0  0  0
  138.3770   79.3570  223.3820 C   0  0  0  0  0  0  0  0  0  0  0  0
  139.7330   79.4180  223.1490 C   0  0  0  0  0  0  0  0  0  0  0  0
  140.3950   80.5340  223.6390 C   0  0  0  0  0  0  0  0  0  0  0  0
  141.7550   80.6790  223.4550 C   0  0  0  0  0  0  0  0  0  0  0  0
  142.4160   79.6840  222.7760 C   0  0  0  0  0  0  0  0  0  0  0  0
  141.7510   78.5810  222.2910 C   0  0  0  0  0  0  0  0  0  0  0  0
  140.3920   78.4140  222.4630 C   0  0  0  0  0  0  0  0  0  0  0  0
  138.5630   73.3250  222.2070 C   0  0  0  0  0  0  0  0  0  0  0  0
  138.0880   71.9550  222.7030 C   0  0  0  0  0  0  0  0  0  0  0  0
  139.0097   67.3392  223.7092 H   0  0  0  0  0  0  0  0  0  0  0  0
  138.4145   66.6616  222.1557 H   0  0  0  0  0  0  0  0  0  0  0  0
  139.7189   67.8965  222.1557 H   0  0  0  0  0  0  0  0  0  0  0  0
  138.0233   69.3236  221.7404 H   0  0  0  0  0  0  0  0  0  0  0  0
  136.7860   68.1764  222.4211 H   0  0  0  0  0  0  0  0  0  0  0  0
  138.7748   67.7634  225.2758 H   0  0  0  0  0  0  0  0  0  0  0  0
  139.9335   67.0322  227.3578 H   0  0  0  0  0  0  0  0  0  0  0  0
  141.2089   68.6712  228.6822 H   0  0  0  0  0  0  0  0  0  0  0  0
  141.3863   71.0503  227.9925 H   0  0  0  0  0  0  0  0  0  0  0  0
  140.2192   71.7907  225.8867 H   0  0  0  0  0  0  0  0  0  0  0  0
  139.4237   72.1746  224.2950 H   0  0  0  0  0  0  0  0  0  0  0  0
  141.2703   71.5977  223.1612 H   0  0  0  0  0  0  0  0  0  0  0  0
  140.5354   70.0433  222.6262 H   0  0  0  0  0  0  0  0  0  0  0  0
  141.1702   71.7097  220.8192 H   0  0  0  0  0  0  0  0  0  0  0  0
  139.4584   71.0439  220.8249 H   0  0  0  0  0  0  0  0  0  0  0  0
  139.5561   75.7688  219.3335 H   0  0  0  0  0  0  0  0  0  0  0  0
  138.5339   75.3754  220.7314 H   0  0  0  0  0  0  0  0  0  0  0  0
  141.0554   76.8120  220.5117 H   0  0  0  0  0  0  0  0  0  0  0  0
  141.8940   74.8410  221.3340 H   0  0  0  0  0  0  0  0  0  0  0  0
  142.0810   76.2080  222.4210 H   0  0  0  0  0  0  0  0  0  0  0  0
  137.7860   76.3887  221.8599 H   0  0  0  0  0  0  0  0  0  0  0  0
  136.6264   78.1630  223.0721 H   0  0  0  0  0  0  0  0  0  0  0  0
  137.8504   80.1556  223.9250 H   0  0  0  0  0  0  0  0  0  0  0  0
  139.8316   81.3096  224.1785 H   0  0  0  0  0  0  0  0  0  0  0  0
  142.2909   81.5599  223.8383 H   0  0  0  0  0  0  0  0  0  0  0  0
  143.5009   79.7710  222.6165 H   0  0  0  0  0  0  0  0  0  0  0  0
  142.3194   77.8099  221.7504 H   0  0  0  0  0  0  0  0  0  0  0  0
  138.9227   73.9381  223.0465 H   0  0  0  0  0  0  0  0  0  0  0  0
  137.7552   73.8969  221.7270 H   0  0  0  0  0  0  0  0  0  0  0  0
  137.1685   72.0642  223.2969 H   0  0  0  0  0  0  0  0  0  0  0  0
  137.8625   71.2844  221.8607 H   0  0  0  0  0  0  0  0  0  0  0  0
  1  2  1  0
  2  3  1  0
  3  4  2  0
  3  5  1  0
  5  6  1  0
  6  7  2  0
  7  8  1  0
  8  9  2  0
  9 10  1  0
 10 11  2  0
  5 12  1  0
 12 13  1  0
 13 14  1  0
 14 15  1  0
 15 16  1  0
 16 17  2  0
 16 18  1  0
 18 19  1  0
 19 20  1  0
 19 21  1  0
 21 22  2  0
 22 23  1  0
 23 24  2  0
 24 25  1  0
 25 26  2  0
 26 27  1  0
 27 28  2  0
 28 29  1  0
 29 30  2  0
 15 31  1  0
 31 32  1  0
 11  6  1  0
 32 12  1  0
 30 21  1  0
 30 25  1  0
  1 33  1  0
  1 34  1  0
  1 35  1  0
  2 36  1  0
  2 37  1  0
  7 38  1  0
  8 39  1  0
  9 40  1  0
 10 41  1  0
 11 42  1  0
 12 43  1  0
 13 44  1  0
 13 45  1  0
 14 46  1  0
 14 47  1  0
 18 48  1  0
 18 49  1  0
 19 50  1  6
 20 51  1  0
 20 52  1  0
 22 53  1  0
 23 54  1  0
 24 55  1  0
 26 56  1  0
 27 57  1  0
 28 58  1  0
 29 59  1  0
 31 60  1  0
 31 61  1  0
 32 62  1  0
 32 63  1  0
M  END
>  <smiles>  (3) 
CCC(=O)N(c1ccccc1)C1CCN(C(=O)CC(N)c2cccc3ccccc23)CC1

>  <score_type>  (3) 
oracle

>  <origin>  (3) 
autodockgpu

>  <m_score__min__energy>  (3) 
-9.4000000000000004

>  <m_primary>  (3) 
energy

>  <rmsd>  (3) 
5.716215201703991

>  <m_score__min__rmsd>  (3) 
5.716215201703991

>  <meeko>  (3) 
{"free_energy": -8.05, "intermolecular_energy": -10.43, "internal_energy": -2.03, "cluster_size": 7, "cluster_id": 2, "rank_in_cluster": 6}

>  <energy>  (3) 
-9.24

>  <cluster_rmsd>  (3) 
0.32

>  <cluster>  (3) 
1

$$$$

     RDKit          3D

 63 66  0  0  0  0  0  0  0  0999 V2000
  143.0970   76.7420  218.9350 C   0  0  0  0  0  0  0  0  0  0  0  0
  142.2330   77.9180  219.2910 C   0  0  0  0  0  0  0  0  0  0  0  0
  140.9810   77.5180  219.9700 C   0  0  0  0  0  0  0  0  0  0  0  0
  139.9660   77.3450  219.2370 O   0  0  0  0  0  0  0  0  0  0  0  0
  140.9070   77.3310  221.3860 N   0  0  0  0  0  0  0  0  0  0  0  0
  141.1120   78.4580  222.2300 C   0  0  0  0  0  0  0  0  0  0  0  0
  142.3640   79.0490  222.2710 C   0  0  0  0  0  0  0  0  0  0  0  0
  142.5590   80.1420  223.0890 C   0  0  0  0  0  0  0  0  0  0  0  0
  141.5070   80.6170  223.8430 C   0  0  0  0  0  0  0  0  0  0  0  0
  140.2450   80.0360  223.8140 C   0  0  0  0  0  0  0  0  0  0  0  0
  140.0480   78.9310  222.9860 C   0  0  0  0  0  0  0  0  0  0  0  0
  140.6280   75.9990  221.8920 C   0  0  0  0  0  0  0  0  0  0  0  0
  139.1920   75.8720  222.3130 C   0  0  0  0  0  0  0  0  0  0  0  0
  138.6190   74.5850  221.8060 C   0  0  0  0  0  0  0  0  0  0  0  0
  139.4720   73.4320  221.9850 N   0  0  0  0  0  0  0  0  0  0  0  0
  138.9320   72.1900  222.4170 C   0  0  0  0  0  0  0  0  0  0  0  0
  137.6950   72.1350  222.6390 O   0  0  0  0  0  0  0  0  0  0  0  0
  139.8340   71.0060  222.5930 C   0  0  0  0  0  0  0  0  0  0  0  0
  139.3660   70.2850  223.8330 C   0  0  2  0  0  0  0  0  0  0  0  0
  137.9540   70.1070  223.9370 N   0  0  0  0  0  0  0  0  0  0  0  0
  140.0630   70.6800  225.0670 C   0  0  0  0  0  0  0  0  0  0  0  0
  140.7090   71.9130  225.2160 C   0  0  0  0  0  0  0  0  0  0  0  0
  141.3690   72.2650  226.3720 C   0  0  0  0  0  0  0  0  0  0  0  0
  141.4300   71.4150  227.4560 C   0  0  0  0  0  0  0  0  0  0  0  0
  140.8000   70.1970  227.3310 C   0  0  0  0  0  0  0  0  0  0  0  0
  140.8640   69.3530  228.4300 C   0  0  0  0  0  0  0  0  0  0  0  0
  140.2590   68.1140  228.3980 C   0  0  0  0  0  0  0  0  0  0  0  0
  139.5980   67.7560  227.2480 C   0  0  0  0  0  0  0  0  0  0  0  0
  139.5400   68.6000  226.1610 C   0  0  0  0  0  0  0  0  0  0  0  0
  140.1380   69.8440  226.1700 C   0  0  0  0  0  0  0  0  0  0  0  0
  140.8830   73.6030  221.7030 C   0  0  0  0  0  0  0  0  0  0  0  0
  140.9690   74.9230  220.9300 C   0  0  0  0  0  0  0  0  0  0  0  0
  143.4534   76.2568  219.8556 H   0  0  0  0  0  0  0  0  0  0  0  0
  142.5113   76.0222  218.3443 H   0  0  0  0  0  0  0  0  0  0  0  0
  143.9589   77.0857  218.3443 H   0  0  0  0  0  0  0  0  0  0  0  0
  142.8000   78.5823  219.9598 H   0  0  0  0  0  0  0  0  0  0  0  0
  141.9573   78.4250  218.3546 H   0  0  0  0  0  0  0  0  0  0  0  0
  143.1893   78.6530  221.6610 H   0  0  0  0  0  0  0  0  0  0  0  0
  143.5437   80.6298  223.1394 H   0  0  0  0  0  0  0  0  0  0  0  0
  141.6730   81.4892  224.4924 H   0  0  0  0  0  0  0  0  0  0  0  0
  139.4241   80.4365  224.4270 H   0  0  0  0  0  0  0  0  0  0  0  0
  139.0643   78.4416  222.9328 H   0  0  0  0  0  0  0  0  0  0  0  0
  141.2805   75.8679  222.7678 H   0  0  0  0  0  0  0  0  0  0  0  0
  139.1320   75.8893  223.4112 H   0  0  0  0  0  0  0  0  0  0  0  0
  138.6183   76.7115  221.8935 H   0  0  0  0  0  0  0  0  0  0  0  0
  137.6741   74.3979  222.3371 H   0  0  0  0  0  0  0  0  0  0  0  0
  138.4883   74.7093  220.7209 H   0  0  0  0  0  0  0  0  0  0  0  0
  139.7630   70.3420  221.7189 H   0  0  0  0  0  0  0  0  0  0  0  0
  140.8839   71.3194  222.6900 H   0  0  0  0  0  0  0  0  0  0  0  0
  139.7082   69.2503  223.6836 H   0  0  0  0  0  0  0  0  0  0  0  0
  137.5610   70.8830  224.4810 H   0  0  0  0  0  0  0  0  0  0  0  0
  137.5630   69.9240  223.0100 H   0  0  0  0  0  0  0  0  0  0  0  0
  140.6886   72.6266  224.3791 H   0  0  0  0  0  0  0  0  0  0  0  0
  141.8594   73.2478  226.4322 H   0  0  0  0  0  0  0  0  0  0  0  0
  141.9580   71.6971  228.3788 H   0  0  0  0  0  0  0  0  0  0  0  0
  141.4016   69.6745  229.3342 H   0  0  0  0  0  0  0  0  0  0  0  0
  140.3041   67.4361  229.2631 H   0  0  0  0  0  0  0  0  0  0  0  0
  139.1046   66.7744  227.1942 H   0  0  0  0  0  0  0  0  0  0  0  0
  139.0013   68.2731  225.2594 H   0  0  0  0  0  0  0  0  0  0  0  0
  141.4607   73.6624  222.6372 H   0  0  0  0  0  0  0  0  0  0  0  0
  141.2982   72.7592  221.1324 H   0  0  0  0  0  0  0  0  0  0  0  0
  141.9875   75.0698  220.5414 H   0  0  0  0  0  0  0  0  0  0  0  0
  140.2818   74.9258  220.0710 H   0  0  0  0  0  0  0  0  0  0  0  0
  1  2  1  0
  2  3  1  0
  3  4  2  0
  3  5  1  0
  5  6  1  0
  6  7  2  0
  7  8  1  0
  8  9  2  0
  9 10  1  0
 10 11  2  0
  5 12  1  0
 12 13  1  0
 13 14  1  0
 14 15  1  0
 15 16  1  0
 16 17  2  0
 16 18  1  0
 18 19  1  0
 19 20  1  0
 19 21  1  0
 21 22  2  0
 22 23  1  0
 23 24  2  0
 24 25  1  0
 25 26  2  0
 26 27  1  0
 27 28  2  0
 28 29  1  0
 29 30  2  0
 15 31  1  0
 31 32  1  0
 11  6  1  0
 32 12  1  0
 30 21  1  0
 30 25  1  0
  1 33  1  0
  1 34  1  0
  1 35  1  0
  2 36  1  0
  2 37  1  0
  7 38  1  0
  8 39  1  0
  9 40  1  0
 10 41  1  0
 11 42  1  0
 12 43  1  0
 13 44  1  0
 13 45  1  0
 14 46  1  0
 14 47  1  0
 18 48  1  0
 18 49  1  0
 19 50  1  6
 20 51  1  0
 20 52  1  0
 22 53  1  0
 23 54  1  0
 24 55  1  0
 26 56  1  0
 27 57  1  0
 28 58  1  0
 29 59  1  0
 31 60  1  0
 31 61  1  0
 32 62  1  0
 32 63  1  0
M  END
>  <smiles>  (4) 
CCC(=O)N(c1ccccc1)C1CCN(C(=O)CC(N)c2cccc3ccccc23)CC1

>  <score_type>  (4) 
oracle

>  <origin>  (4) 
autodockgpu

>  <m_score__min__energy>  (4) 
-9.4000000000000004

>  <m_primary>  (4) 
energy

>  <rmsd>  (4) 
8.106227937220883

>  <m_score__min__rmsd>  (4) 
8.106227937220883

>  <meeko>  (4) 
{"free_energy": -8.83, "intermolecular_energy": -11.22, "internal_energy": -2.35, "cluster_size": 22, "cluster_id": 1, "rank_in_cluster": 12}

>  <energy>  (4) 
-9.21

>  <cluster_rmsd>  (4) 
0.72

>  <cluster>  (4) 
1

$$$$

     RDKit          3D

 63 66  0  0  0  0  0  0  0  0999 V2000
  146.3470   73.0730  221.9600 C   0  0  0  0  0  0  0  0  0  0  0  0
  146.1540   74.1300  220.9110 C   0  0  0  0  0  0  0  0  0  0  0  0
  145.2750   73.6830  219.8090 C   0  0  0  0  0  0  0  0  0  0  0  0
  145.7720   72.8690  218.9790 O   0  0  0  0  0  0  0  0  0  0  0  0
  143.9260   74.1390  219.6770 N   0  0  0  0  0  0  0  0  0  0  0  0
  143.6580   75.2140  218.7840 C   0  0  0  0  0  0  0  0  0  0  0  0
  143.6970   74.9820  217.4190 C   0  0  0  0  0  0  0  0  0  0  0  0
  143.4360   76.0260  216.5580 C   0  0  0  0  0  0  0  0  0  0  0  0
  143.1440   77.2700  217.0740 C   0  0  0  0  0  0  0  0  0  0  0  0
  143.1000   77.5200  218.4400 C   0  0  0  0  0  0  0  0  0  0  0  0
  143.3640   76.4640  219.3110 C   0  0  0  0  0  0  0  0  0  0  0  0
  142.8960   73.4810  220.4620 C   0  0  0  0  0  0  0  0  0  0  0  0
  141.8010   74.4420  220.8260 C   0  0  0  0  0  0  0  0  0  0  0  0
  140.4640   73.8060  220.6010 C   0  0  0  0  0  0  0  0  0  0  0  0
  140.3510   72.4490  221.0860 N   0  0  0  0  0  0  0  0  0  0  0  0
  139.1790   72.0160  221.7650 C   0  0  0  0  0  0  0  0  0  0  0  0
  138.2550   72.8530  221.9290 O   0  0  0  0  0  0  0  0  0  0  0  0
  139.0820   70.6030  222.2560 C   0  0  0  0  0  0  0  0  0  0  0  0
  138.5020   70.6680  223.6470 C   0  0  2  0  0  0  0  0  0  0  0  0
  137.3600   71.5120  223.7930 N   0  0  0  0  0  0  0  0  0  0  0  0
  139.5030   70.7410  224.7230 C   0  0  0  0  0  0  0  0  0  0  0  0
  140.2670   71.8860  224.9770 C   0  0  0  0  0  0  0  0  0  0  0  0
  141.2100   71.9360  225.9780 C   0  0  0  0  0  0  0  0  0  0  0  0
  141.4570   70.8530  226.7930 C   0  0  0  0  0  0  0  0  0  0  0  0
  140.7160   69.7150  226.5610 C   0  0  0  0  0  0  0  0  0  0  0  0
  140.9700   68.6330  227.3910 C   0  0  0  0  0  0  0  0  0  0  0  0
  140.2740   67.4520  227.2350 C   0  0  0  0  0  0  0  0  0  0  0  0
  139.3300   67.3950  226.2380 C   0  0  0  0  0  0  0  0  0  0  0  0
  139.0840   68.4740  225.4180 C   0  0  0  0  0  0  0  0  0  0  0  0
  139.7690   69.6650  225.5550 C   0  0  0  0  0  0  0  0  0  0  0  0
  141.4740   71.5650  220.8450 C   0  0  0  0  0  0  0  0  0  0  0  0
  142.3210   72.2890  219.7940 C   0  0  0  0  0  0  0  0  0  0  0  0
  146.2640   73.5276  222.9582 H   0  0  0  0  0  0  0  0  0  0  0  0
  145.5757   72.2972  221.8451 H   0  0  0  0  0  0  0  0  0  0  0  0
  147.3427   72.6199  221.8451 H   0  0  0  0  0  0  0  0  0  0  0  0
  145.7049   75.0166  221.3825 H   0  0  0  0  0  0  0  0  0  0  0  0
  147.1405   74.3559  220.4799 H   0  0  0  0  0  0  0  0  0  0  0  0
  143.9324   73.9809  217.0286 H   0  0  0  0  0  0  0  0  0  0  0  0
  143.4605   75.8679  215.4697 H   0  0  0  0  0  0  0  0  0  0  0  0
  142.9379   78.0965  216.3780 H   0  0  0  0  0  0  0  0  0  0  0  0
  142.8634   78.5234  218.8236 H   0  0  0  0  0  0  0  0  0  0  0  0
  143.3397   76.6191  220.3997 H   0  0  0  0  0  0  0  0  0  0  0  0
  143.3945   73.1280  221.3768 H   0  0  0  0  0  0  0  0  0  0  0  0
  141.8981   74.7201  221.8858 H   0  0  0  0  0  0  0  0  0  0  0  0
  141.8842   75.3392  220.1951 H   0  0  0  0  0  0  0  0  0  0  0  0
  139.7041   74.4164  221.1109 H   0  0  0  0  0  0  0  0  0  0  0  0
  140.3219   73.7591  219.5112 H   0  0  0  0  0  0  0  0  0  0  0  0
  138.4240   70.0169  221.5976 H   0  0  0  0  0  0  0  0  0  0  0  0
  140.0685   70.1163  222.2603 H   0  0  0  0  0  0  0  0  0  0  0  0
  138.0605   69.6714  223.7947 H   0  0  0  0  0  0  0  0  0  0  0  0
  137.6720   72.4430  224.0900 H   0  0  0  0  0  0  0  0  0  0  0  0
  136.7770   71.4450  222.9550 H   0  0  0  0  0  0  0  0  0  0  0  0
  140.1078   72.7783  224.3538 H   0  0  0  0  0  0  0  0  0  0  0  0
  141.7808   72.8637  226.1312 H   0  0  0  0  0  0  0  0  0  0  0  0
  142.2114   70.8950  227.5924 H   0  0  0  0  0  0  0  0  0  0  0  0
  141.7322   68.7172  228.1797 H   0  0  0  0  0  0  0  0  0  0  0  0
  140.4679   66.5866  227.8857 H   0  0  0  0  0  0  0  0  0  0  0  0
  138.7580   66.4669  226.0915 H   0  0  0  0  0  0  0  0  0  0  0  0
  138.3201   68.3843  224.6316 H   0  0  0  0  0  0  0  0  0  0  0  0
  142.0510   71.4104  221.7687 H   0  0  0  0  0  0  0  0  0  0  0  0
  141.1538   70.5685  220.5067 H   0  0  0  0  0  0  0  0  0  0  0  0
  143.1253   71.6301  219.4350 H   0  0  0  0  0  0  0  0  0  0  0  0
  141.7130   72.5765  218.9236 H   0  0  0  0  0  0  0  0  0  0  0  0
  1  2  1  0
  2  3  1  0
  3  4  2  0
  3  5  1  0
  5  6  1  0
  6  7  2  0
  7  8  1  0
  8  9  2  0
  9 10  1  0
 10 11  2  0
  5 12  1  0
 12 13  1  0
 13 14  1  0
 14 15  1  0
 15 16  1  0
 16 17  2  0
 16 18  1  0
 18 19  1  0
 19 20  1  0
 19 21  1  0
 21 22  2  0
 22 23  1  0
 23 24  2  0
 24 25  1  0
 25 26  2  0
 26 27  1  0
 27 28  2  0
 28 29  1  0
 29 30  2  0
 15 31  1  0
 31 32  1  0
 11  6  1  0
 32 12  1  0
 30 21  1  0
 30 25  1  0
  1 33  1  0
  1 34  1  0
  1 35  1  0
  2 36  1  0
  2 37  1  0
  7 38  1  0
  8 39  1  0
  9 40  1  0
 10 41  1  0
 11 42  1  0
 12 43  1  0
 13 44  1  0
 13 45  1  0
 14 46  1  0
 14 47  1  0
 18 48  1  0
 18 49  1  0
 19 50  1  1
 20 51  1  0
 20 52  1  0
 22 53  1  0
 23 54  1  0
 24 55  1  0
 26 56  1  0
 27 57  1  0
 28 58  1  0
 29 59  1  0
 31 60  1  0
 31 61  1  0
 32 62  1  0
 32 63  1  0
M  END
>  <smiles>  (5) 
CCC(=O)N(c1ccccc1)C1CCN(C(=O)CC(N)c2cccc3ccccc23)CC1

>  <score_type>  (5) 
oracle

>  <origin>  (5) 
autodockgpu

>  <m_score__min__energy>  (5) 
-9.4000000000000004

>  <m_primary>  (5) 
energy

>  <rmsd>  (5) 
8.308234898264791

>  <m_score__min__rmsd>  (5) 
8.308234898264791

>  <meeko>  (5) 
{"free_energy": -8.55, "intermolecular_energy": -10.93, "internal_energy": -2.3, "cluster_size": 1, "cluster_id": 3, "rank_in_cluster": 1}

>  <energy>  (5) 
-9.21

>  <cluster_rmsd>  (5) 
0.72

>  <cluster>  (5) 
1

$$$$

     RDKit          3D

 63 66  0  0  0  0  0  0  0  0999 V2000
  143.3370   75.9980  219.4640 C   0  0  0  0  0  0  0  0  0  0  0  0
  142.5580   77.2450  219.7700 C   0  0  0  0  0  0  0  0  0  0  0  0
  141.1440   76.9640  220.0990 C   0  0  0  0  0  0  0  0  0  0  0  0
  140.3440   76.8540  219.1270 O   0  0  0  0  0  0  0  0  0  0  0  0
  140.6880   76.8210  221.4470 N   0  0  0  0  0  0  0  0  0  0  0  0
  140.6250   77.9810  222.2680 C   0  0  0  0  0  0  0  0  0  0  0  0
  139.4120   78.6330  222.4210 C   0  0  0  0  0  0  0  0  0  0  0  0
  139.3550   79.7560  223.2190 C   0  0  0  0  0  0  0  0  0  0  0  0
  140.5010   80.2010  223.8420 C   0  0  0  0  0  0  0  0  0  0  0  0
  141.7250   79.5590  223.7000 C   0  0  0  0  0  0  0  0  0  0  0  0
  141.7830   78.4230  222.8930 C   0  0  0  0  0  0  0  0  0  0  0  0
  140.3120   75.4970  221.9110 C   0  0  0  0  0  0  0  0  0  0  0  0
  138.8300   75.2870  221.7990 C   0  0  0  0  0  0  0  0  0  0  0  0
  138.5450   73.9390  221.2120 C   0  0  0  0  0  0  0  0  0  0  0  0
  139.3330   72.8610  221.7630 N   0  0  0  0  0  0  0  0  0  0  0  0
  138.7370   71.6040  222.0590 C   0  0  0  0  0  0  0  0  0  0  0  0
  137.5080   71.4700  221.8270 O   0  0  0  0  0  0  0  0  0  0  0  0
  139.5740   70.4980  222.6270 C   0  0  0  0  0  0  0  0  0  0  0  0
  138.9980   70.1720  223.9830 C   0  0  2  0  0  0  0  0  0  0  0  0
  137.5920   70.3730  224.1120 N   0  0  0  0  0  0  0  0  0  0  0  0
  139.8230   70.6170  225.1180 C   0  0  0  0  0  0  0  0  0  0  0  0
  140.4620   71.8620  225.1540 C   0  0  0  0  0  0  0  0  0  0  0  0
  141.2420   72.2600  226.2160 C   0  0  0  0  0  0  0  0  0  0  0  0
  141.4380   71.4480  227.3120 C   0  0  0  0  0  0  0  0  0  0  0  0
  140.8170   70.2190  227.2990 C   0  0  0  0  0  0  0  0  0  0  0  0
  141.0180   69.4130  228.4100 C   0  0  0  0  0  0  0  0  0  0  0  0
  140.4320   68.1660  228.4860 C   0  0  0  0  0  0  0  0  0  0  0  0
  139.6520   67.7630  227.4290 C   0  0  0  0  0  0  0  0  0  0  0  0
  139.4590   68.5680  226.3290 C   0  0  0  0  0  0  0  0  0  0  0  0
  140.0340   69.8190  226.2320 C   0  0  0  0  0  0  0  0  0  0  0  0
  140.7400   73.1200  221.9930 C   0  0  0  0  0  0  0  0  0  0  0  0
  141.0320   74.4050  221.2110 C   0  0  0  0  0  0  0  0  0  0  0  0
  143.6392   75.5143  220.4046 H   0  0  0  0  0  0  0  0  0  0  0  0
  142.7095   75.3073  218.8816 H   0  0  0  0  0  0  0  0  0  0  0  0
  144.2329   76.2590  218.8816 H   0  0  0  0  0  0  0  0  0  0  0  0
  143.0256   77.7514  220.6273 H   0  0  0  0  0  0  0  0  0  0  0  0
  142.5721   77.8768  218.8696 H   0  0  0  0  0  0  0  0  0  0  0  0
  138.5094   78.2609  221.9142 H   0  0  0  0  0  0  0  0  0  0  0  0
  138.4041   80.2915  223.3570 H   0  0  0  0  0  0  0  0  0  0  0  0
  140.4445   81.0984  224.4756 H   0  0  0  0  0  0  0  0  0  0  0  0
  142.6236   79.9363  224.2100 H   0  0  0  0  0  0  0  0  0  0  0  0
  142.7324   77.8852  222.7538 H   0  0  0  0  0  0  0  0  0  0  0  0
  140.6091   75.4535  222.9692 H   0  0  0  0  0  0  0  0  0  0  0  0
  138.3766   75.3517  222.7991 H   0  0  0  0  0  0  0  0  0  0  0  0
  138.4046   76.0622  221.1448 H   0  0  0  0  0  0  0  0  0  0  0  0
  137.4830   73.7088  221.3826 H   0  0  0  0  0  0  0  0  0  0  0  0
  138.8087   74.0027  220.1460 H   0  0  0  0  0  0  0  0  0  0  0  0
  139.5290   69.6144  221.9734 H   0  0  0  0  0  0  0  0  0  0  0  0
  140.6286   70.8005  222.7070 H   0  0  0  0  0  0  0  0  0  0  0  0
  139.0706   69.0761  224.0448 H   0  0  0  0  0  0  0  0  0  0  0  0
  137.2690   69.9200  224.9750 H   0  0  0  0  0  0  0  0  0  0  0  0
  137.3730   71.3630  223.9790 H   0  0  0  0  0  0  0  0  0  0  0  0
  140.3362   72.5471  224.3027 H   0  0  0  0  0  0  0  0  0  0  0  0
  141.7204   73.2501  226.1892 H   0  0  0  0  0  0  0  0  0  0  0  0
  142.0626   71.7673  228.1593 H   0  0  0  0  0  0  0  0  0  0  0  0
  141.6494   69.7707  229.2367 H   0  0  0  0  0  0  0  0  0  0  0  0
  140.5839   67.5177  229.3615 H   0  0  0  0  0  0  0  0  0  0  0  0
  139.1707   66.7744  227.4625 H   0  0  0  0  0  0  0  0  0  0  0  0
  138.8288   68.2040  225.5042 H   0  0  0  0  0  0  0  0  0  0  0  0
  140.9375   73.2652  223.0653 H   0  0  0  0  0  0  0  0  0  0  0  0
  141.3756   72.2825  221.6696 H   0  0  0  0  0  0  0  0  0  0  0  0
  142.1132   74.6072  221.2024 H   0  0  0  0  0  0  0  0  0  0  0  0
  140.7024   74.3177  220.1652 H   0  0  0  0  0  0  0  0  0  0  0  0
  1  2  1  0
  2  3  1  0
  3  4  2  0
  3  5  1  0
  5  6  1  0
  6  7  2  0
  7  8  1  0
  8  9  2  0
  9 10  1  0
 10 11  2  0
  5 12  1  0
 12 13  1  0
 13 14  1  0
 14 15  1  0
 15 16  1  0
 16 17  2  0
 16 18  1  0
 18 19  1  0
 19 20  1  0
 19 21  1  0
 21 22  2  0
 22 23  1  0
 23 24  2  0
 24 25  1  0
 25 26  2  0
 26 27  1  0
 27 28  2  0
 28 29  1  0
 29 30  2  0
 15 31  1  0
 31 32  1  0
 11  6  1  0
 32 12  1  0
 30 21  1  0
 30 25  1  0
  1 33  1  0
  1 34  1  0
  1 35  1  0
  2 36  1  0
  2 37  1  0
  7 38  1  0
  8 39  1  0
  9 40  1  0
 10 41  1  0
 11 42  1  0
 12 43  1  0
 13 44  1  0
 13 45  1  0
 14 46  1  0
 14 47  1  0
 18 48  1  0
 18 49  1  0
 19 50  1  6
 20 51  1  0
 20 52  1  0
 22 53  1  0
 23 54  1  0
 24 55  1  0
 26 56  1  0
 27 57  1  0
 28 58  1  0
 29 59  1  0
 31 60  1  0
 31 61  1  0
 32 62  1  0
 32 63  1  0
M  END
>  <smiles>  (6) 
CCC(=O)N(c1ccccc1)C1CCN(C(=O)CC(N)c2cccc3ccccc23)CC1

>  <score_type>  (6) 
oracle

>  <origin>  (6) 
autodockgpu

>  <m_score__min__energy>  (6) 
-9.4000000000000004

>  <m_primary>  (6) 
energy

>  <rmsd>  (6) 
8.19994319524577

>  <m_score__min__rmsd>  (6) 
8.19994319524577

>  <meeko>  (6) 
{"free_energy": -8.22, "intermolecular_energy": -10.6, "internal_energy": -2.11, "cluster_size": 22, "cluster_id": 1, "rank_in_cluster": 21}

>  <energy>  (6) 
-9.16

>  <cluster_rmsd>  (6) 
0.37

>  <cluster>  (6) 
1

$$$$

     RDKit          3D

 63 66  0  0  0  0  0  0  0  0999 V2000
  142.1880   80.4840  218.7750 C   0  0  0  0  0  0  0  0  0  0  0  0
  140.9820   79.6370  218.4880 C   0  0  0  0  0  0  0  0  0  0  0  0
  140.0880   79.5060  219.6590 C   0  0  0  0  0  0  0  0  0  0  0  0
  138.9360   80.0150  219.5560 O   0  0  0  0  0  0  0  0  0  0  0  0
  140.4930   78.8380  220.8570 N   0  0  0  0  0  0  0  0  0  0  0  0
  141.1200   79.6010  221.8800 C   0  0  0  0  0  0  0  0  0  0  0  0
  140.3650   80.5150  222.5970 C   0  0  0  0  0  0  0  0  0  0  0  0
  140.9770   81.2520  223.5890 C   0  0  0  0  0  0  0  0  0  0  0  0
  142.3180   81.0620  223.8420 C   0  0  0  0  0  0  0  0  0  0  0  0
  143.0900   80.1500  223.1340 C   0  0  0  0  0  0  0  0  0  0  0  0
  142.4710   79.4040  222.1300 C   0  0  0  0  0  0  0  0  0  0  0  0
  140.2440   77.4110  220.9670 C   0  0  0  0  0  0  0  0  0  0  0  0
  141.2620   76.6250  220.1920 C   0  0  0  0  0  0  0  0  0  0  0  0
  141.7500   75.4690  221.0080 C   0  0  0  0  0  0  0  0  0  0  0  0
  140.7130   74.7290  221.6890 N   0  0  0  0  0  0  0  0  0  0  0  0
  140.7410   73.3080  221.7300 C   0  0  0  0  0  0  0  0  0  0  0  0
  141.6940   72.7250  221.1520 O   0  0  0  0  0  0  0  0  0  0  0  0
  139.6560   72.5610  222.4450 C   0  0  0  0  0  0  0  0  0  0  0  0
  140.1220   71.1310  222.5670 C   0  0  2  0  0  0  0  0  0  0  0  0
  140.1420   70.3910  221.3470 N   0  0  0  0  0  0  0  0  0  0  0  0
  139.6070   70.4210  223.7480 C   0  0  0  0  0  0  0  0  0  0  0  0
  138.6270   69.4250  223.6700 C   0  0  0  0  0  0  0  0  0  0  0  0
  138.1440   68.7770  224.7850 C   0  0  0  0  0  0  0  0  0  0  0  0
  138.6040   69.0760  226.0500 C   0  0  0  0  0  0  0  0  0  0  0  0
  139.5700   70.0520  226.1490 C   0  0  0  0  0  0  0  0  0  0  0  0
  140.0280   70.3400  227.4260 C   0  0  0  0  0  0  0  0  0  0  0  0
  140.9980   71.3020  227.6220 C   0  0  0  0  0  0  0  0  0  0  0  0
  141.4850   71.9520  226.5130 C   0  0  0  0  0  0  0  0  0  0  0  0
  141.0240   71.6610  225.2490 C   0  0  0  0  0  0  0  0  0  0  0  0
  140.0540   70.7030  225.0290 C   0  0  0  0  0  0  0  0  0  0  0  0
  139.6590   75.4970  222.3230 C   0  0  0  0  0  0  0  0  0  0  0  0
  140.1980   76.9310  222.3700 C   0  0  0  0  0  0  0  0  0  0  0  0
  142.3203   80.5769  219.8630 H   0  0  0  0  0  0  0  0  0  0  0  0
  143.0798   80.0128  218.3361 H   0  0  0  0  0  0  0  0  0  0  0  0
  142.0474   81.4828  218.3361 H   0  0  0  0  0  0  0  0  0  0  0  0
  140.4173   80.0959  217.6631 H   0  0  0  0  0  0  0  0  0  0  0  0
  141.3370   78.6296  218.2252 H   0  0  0  0  0  0  0  0  0  0  0  0
  139.2954   80.6505  222.3787 H   0  0  0  0  0  0  0  0  0  0  0  0
  140.4001   81.9845  224.1727 H   0  0  0  0  0  0  0  0  0  0  0  0
  142.7956   81.6556  224.6354 H   0  0  0  0  0  0  0  0  0  0  0  0
  144.1589   80.0194  223.3582 H   0  0  0  0  0  0  0  0  0  0  0  0
  143.0455   78.6705  221.5452 H   0  0  0  0  0  0  0  0  0  0  0  0
  139.2458   77.2460  220.5353 H   0  0  0  0  0  0  0  0  0  0  0  0
  140.8029   76.2485  219.2660 H   0  0  0  0  0  0  0  0  0  0  0  0
  142.1127   77.2787  219.9493 H   0  0  0  0  0  0  0  0  0  0  0  0
  142.2809   74.7768  220.3379 H   0  0  0  0  0  0  0  0  0  0  0  0
  142.3945   75.8930  221.7921 H   0  0  0  0  0  0  0  0  0  0  0  0
  139.4928   72.9930  223.4434 H   0  0  0  0  0  0  0  0  0  0  0  0
  138.7052   72.6218  221.8952 H   0  0  0  0  0  0  0  0  0  0  0  0
  141.1958   71.2201  222.7884 H   0  0  0  0  0  0  0  0  0  0  0  0
  140.8140   70.8280  220.7050 H   0  0  0  0  0  0  0  0  0  0  0  0
  140.2530   69.3950  221.5530 H   0  0  0  0  0  0  0  0  0  0  0  0
  138.2281   69.1498  222.6825 H   0  0  0  0  0  0  0  0  0  0  0  0
  137.3727   68.0022  224.6635 H   0  0  0  0  0  0  0  0  0  0  0  0
  138.2167   68.5581  226.9398 H   0  0  0  0  0  0  0  0  0  0  0  0
  139.6150   69.7975  228.2892 H   0  0  0  0  0  0  0  0  0  0  0  0
  141.3683   71.5402  228.6300 H   0  0  0  0  0  0  0  0  0  0  0  0
  142.2605   72.7220  226.6384 H   0  0  0  0  0  0  0  0  0  0  0  0
  141.4402   72.2072  224.3896 H   0  0  0  0  0  0  0  0  0  0  0  0
  138.7338   75.4495  221.7300 H   0  0  0  0  0  0  0  0  0  0  0  0
  139.4080   75.1134  223.3229 H   0  0  0  0  0  0  0  0  0  0  0  0
  139.5300   77.5685  222.9678 H   0  0  0  0  0  0  0  0  0  0  0  0
  141.1944   76.9660  222.8348 H   0  0  0  0  0  0  0  0  0  0  0  0
  1  2  1  0
  2  3  1  0
  3  4  2  0
  3  5  1  0
  5  6  1  0
  6  7  2  0
  7  8  1  0
  8  9  2  0
  9 10  1  0
 10 11  2  0
  5 12  1  0
 12 13  1  0
 13 14  1  0
 14 15  1  0
 15 16  1  0
 16 17  2  0
 16 18  1  0
 18 19  1  0
 19 20  1  0
 19 21  1  0
 21 22  2  0
 22 23  1  0
 23 24  2  0
 24 25  1  0
 25 26  2  0
 26 27  1  0
 27 28  2  0
 28 29  1  0
 29 30  2  0
 15 31  1  0
 31 32  1  0
 11  6  1  0
 32 12  1  0
 30 21  1  0
 30 25  1  0
  1 33  1  0
  1 34  1  0
  1 35  1  0
  2 36  1  0
  2 37  1  0
  7 38  1  0
  8 39  1  0
  9 40  1  0
 10 41  1  0
 11 42  1  0
 12 43  1  0
 13 44  1  0
 13 45  1  0
 14 46  1  0
 14 47  1  0
 18 48  1  0
 18 49  1  0
 19 50  1  1
 20 51  1  0
 20 52  1  0
 22 53  1  0
 23 54  1  0
 24 55  1  0
 26 56  1  0
 27 57  1  0
 28 58  1  0
 29 59  1  0
 31 60  1  0
 31 61  1  0
 32 62  1  0
 32 63  1  0
M  END
>  <smiles>  (7) 
CCC(=O)N(c1ccccc1)C1CCN(C(=O)CC(N)c2cccc3ccccc23)CC1

>  <score_type>  (7) 
oracle

>  <origin>  (7) 
autodockgpu

>  <m_score__min__energy>  (7) 
-9.4000000000000004

>  <m_primary>  (7) 
energy

>  <rmsd>  (7) 
8.21881040596043

>  <m_score__min__rmsd>  (7) 
8.21881040596043

>  <meeko>  (7) 
{"free_energy": -8.01, "intermolecular_energy": -10.4, "internal_energy": -2.11, "cluster_size": 5, "cluster_id": 7, "rank_in_cluster": 3}

>  <energy>  (7) 
-9.04

>  <cluster_rmsd>  (7) 
0.81

>  <cluster>  (7) 
1

$$$$

     RDKit          3D

 63 66  0  0  0  0  0  0  0  0999 V2000
  143.0290   76.6860  219.5080 C   0  0  0  0  0  0  0  0  0  0  0  0
  142.2030   77.9090  219.2330 C   0  0  0  0  0  0  0  0  0  0  0  0
  140.8730   77.8540  219.8790 C   0  0  0  0  0  0  0  0  0  0  0  0
  139.8680   77.9990  219.1270 O   0  0  0  0  0  0  0  0  0  0  0  0
  140.7160   77.6440  221.2850 N   0  0  0  0  0  0  0  0  0  0  0  0
  140.9790   78.7300  222.1660 C   0  0  0  0  0  0  0  0  0  0  0  0
  139.9130   79.4220  222.7170 C   0  0  0  0  0  0  0  0  0  0  0  0
  140.1720   80.4730  223.5710 C   0  0  0  0  0  0  0  0  0  0  0  0
  141.4780   80.8080  223.8540 C   0  0  0  0  0  0  0  0  0  0  0  0
  142.5590   80.1240  223.3100 C   0  0  0  0  0  0  0  0  0  0  0  0
  142.2970   79.0610  222.4460 C   0  0  0  0  0  0  0  0  0  0  0  0
  140.2980   76.3310  221.7440 C   0  0  0  0  0  0  0  0  0  0  0  0
  138.9700   76.4020  222.4400 C   0  0  0  0  0  0  0  0  0  0  0  0
  138.0840   75.2880  221.9740 C   0  0  0  0  0  0  0  0  0  0  0  0
  138.7280   73.9970  221.8940 N   0  0  0  0  0  0  0  0  0  0  0  0
  138.0610   72.8240  222.3400 C   0  0  0  0  0  0  0  0  0  0  0  0
  136.9000   72.9530  222.8060 O   0  0  0  0  0  0  0  0  0  0  0  0
  138.7470   71.4940  222.2450 C   0  0  0  0  0  0  0  0  0  0  0  0
  139.8450   71.4990  223.2800 C   0  0  2  0  0  0  0  0  0  0  0  0
  141.1660   71.6570  222.7640 N   0  0  0  0  0  0  0  0  0  0  0  0
  139.6810   70.5000  224.3470 C   0  0  0  0  0  0  0  0  0  0  0  0
  139.0570   69.2630  224.1440 C   0  0  0  0  0  0  0  0  0  0  0  0
  138.8980   68.3430  225.1560 C   0  0  0  0  0  0  0  0  0  0  0  0
  139.3480   68.5900  226.4350 C   0  0  0  0  0  0  0  0  0  0  0  0
  139.9660   69.8010  226.6570 C   0  0  0  0  0  0  0  0  0  0  0  0
  140.4180   70.0360  227.9470 C   0  0  0  0  0  0  0  0  0  0  0  0
  141.0520   71.2200  228.2620 C   0  0  0  0  0  0  0  0  0  0  0  0
  141.2150   72.1430  227.2560 C   0  0  0  0  0  0  0  0  0  0  0  0
  140.7620   71.9020  225.9790 C   0  0  0  0  0  0  0  0  0  0  0  0
  140.1250   70.7250  225.6410 C   0  0  0  0  0  0  0  0  0  0  0  0
  140.0680   73.9590  221.3410 C   0  0  0  0  0  0  0  0  0  0  0  0
  140.2460   75.3200  220.6600 C   0  0  0  0  0  0  0  0  0  0  0  0
  143.1244   76.5447  220.5947 H   0  0  0  0  0  0  0  0  0  0  0  0
  142.5396   75.8059  219.0654 H   0  0  0  0  0  0  0  0  0  0  0  0
  144.0282   76.8113  219.0654 H   0  0  0  0  0  0  0  0  0  0  0  0
  142.7420   78.7904  219.6106 H   0  0  0  0  0  0  0  0  0  0  0  0
  142.0435   77.9660  218.1461 H   0  0  0  0  0  0  0  0  0  0  0  0
  138.8777   79.1379  222.4773 H   0  0  0  0  0  0  0  0  0  0  0  0
  139.3435   81.0388  224.0222 H   0  0  0  0  0  0  0  0  0  0  0  0
  141.6727   81.6486  224.5363 H   0  0  0  0  0  0  0  0  0  0  0  0
  143.5919   80.4130  223.5541 H   0  0  0  0  0  0  0  0  0  0  0  0
  143.1232   78.4933  221.9931 H   0  0  0  0  0  0  0  0  0  0  0  0
  141.0694   76.0018  222.4558 H   0  0  0  0  0  0  0  0  0  0  0  0
  139.1233   76.3149  223.5258 H   0  0  0  0  0  0  0  0  0  0  0  0
  138.4917   77.3644  222.2053 H   0  0  0  0  0  0  0  0  0  0  0  0
  137.2392   75.2066  222.6738 H   0  0  0  0  0  0  0  0  0  0  0  0
  137.7749   75.5448  220.9500 H   0  0  0  0  0  0  0  0  0  0  0  0
  138.0332   70.6833  222.4531 H   0  0  0  0  0  0  0  0  0  0  0  0
  139.1540   71.3293  221.2364 H   0  0  0  0  0  0  0  0  0  0  0  0
  139.7012   72.4492  223.8152 H   0  0  0  0  0  0  0  0  0  0  0  0
  141.8310   71.2300  223.4190 H   0  0  0  0  0  0  0  0  0  0  0  0
  141.1920   71.3520  221.7880 H   0  0  0  0  0  0  0  0  0  0  0  0
  138.6804   69.0174  223.1401 H   0  0  0  0  0  0  0  0  0  0  0  0
  138.3993   67.3870  224.9382 H   0  0  0  0  0  0  0  0  0  0  0  0
  139.2196   67.8536  227.2420 H   0  0  0  0  0  0  0  0  0  0  0  0
  140.2698   69.2725  228.7249 H   0  0  0  0  0  0  0  0  0  0  0  0
  141.4142   71.4186  229.2815 H   0  0  0  0  0  0  0  0  0  0  0  0
  141.7189   73.0955  227.4768 H   0  0  0  0  0  0  0  0  0  0  0  0
  140.9119   72.6695  225.2054 H   0  0  0  0  0  0  0  0  0  0  0  0
  140.8132   73.8239  222.1387 H   0  0  0  0  0  0  0  0  0  0  0  0
  140.2059   73.1219  220.6408 H   0  0  0  0  0  0  0  0  0  0  0  0
  141.1811   75.3356  220.0810 H   0  0  0  0  0  0  0  0  0  0  0  0
  139.4203   75.5267  219.9632 H   0  0  0  0  0  0  0  0  0  0  0  0
  1  2  1  0
  2  3  1  0
  3  4  2  0
  3  5  1  0
  5  6  1  0
  6  7  2  0
  7  8  1  0
  8  9  2  0
  9 10  1  0
 10 11  2  0
  5 12  1  0
 12 13  1  0
 13 14  1  0
 14 15  1  0
 15 16  1  0
 16 17  2  0
 16 18  1  0
 18 19  1  0
 19 20  1  0
 19 21  1  0
 21 22  2  0
 22 23  1  0
 23 24  2  0
 24 25  1  0
 25 26  2  0
 26 27  1  0
 27 28  2  0
 28 29  1  0
 29 30  2  0
 15 31  1  0
 31 32  1  0
 11  6  1  0
 32 12  1  0
 30 21  1  0
 30 25  1  0
  1 33  1  0
  1 34  1  0
  1 35  1  0
  2 36  1  0
  2 37  1  0
  7 38  1  0
  8 39  1  0
  9 40  1  0
 10 41  1  0
 11 42  1  0
 12 43  1  0
 13 44  1  0
 13 45  1  0
 14 46  1  0
 14 47  1  0
 18 48  1  0
 18 49  1  0
 19 50  1  1
 20 51  1  0
 20 52  1  0
 22 53  1  0
 23 54  1  0
 24 55  1  0
 26 56  1  0
 27 57  1  0
 28 58  1  0
 29 59  1  0
 31 60  1  0
 31 61  1  0
 32 62  1  0
 32 63  1  0
M  END
>  <smiles>  (8) 
CCC(=O)N(c1ccccc1)C1CCN(C(=O)CC(N)c2cccc3ccccc23)CC1

>  <score_type>  (8) 
oracle

>  <origin>  (8) 
autodockgpu

>  <m_score__min__energy>  (8) 
-9.4000000000000004

>  <m_primary>  (8) 
energy

>  <rmsd>  (8) 
8.667837086845674

>  <m_score__min__rmsd>  (8) 
8.667837086845674

>  <meeko>  (8) 
{"free_energy": -8.57, "intermolecular_energy": -10.96, "internal_energy": -1.43, "cluster_size": 22, "cluster_id": 1, "rank_in_cluster": 16}

>  <energy>  (8) 
-8.98

>  <cluster_rmsd>  (8) 
1.46

>  <cluster>  (8) 
1

$$$$

     RDKit          3D

 63 66  0  0  0  0  0  0  0  0999 V2000
  141.4570   77.4740  220.8140 C   0  0  0  0  0  0  0  0  0  0  0  0
  142.3120   77.1710  219.6170 C   0  0  0  0  0  0  0  0  0  0  0  0
  142.1240   75.7920  219.1190 C   0  0  0  0  0  0  0  0  0  0  0  0
  141.6510   75.6660  217.9540 O   0  0  0  0  0  0  0  0  0  0  0  0
  142.4570   74.6440  219.9050 N   0  0  0  0  0  0  0  0  0  0  0  0
  143.7760   74.1190  219.8130 C   0  0  0  0  0  0  0  0  0  0  0  0
  144.6820   74.3910  220.8250 C   0  0  0  0  0  0  0  0  0  0  0  0
  145.9580   73.8790  220.7320 C   0  0  0  0  0  0  0  0  0  0  0  0
  146.3010   73.1110  219.6400 C   0  0  0  0  0  0  0  0  0  0  0  0
  145.4050   72.8280  218.6170 C   0  0  0  0  0  0  0  0  0  0  0  0
  144.1130   73.3460  218.7100 C   0  0  0  0  0  0  0  0  0  0  0  0
  141.4310   74.0720  220.7590 C   0  0  0  0  0  0  0  0  0  0  0  0
  140.1200   73.9740  220.0330 C   0  0  0  0  0  0  0  0  0  0  0  0
  139.4940   72.6360  220.2800 C   0  0  0  0  0  0  0  0  0  0  0  0
  139.5300   72.1970  221.6560 N   0  0  0  0  0  0  0  0  0  0  0  0
  138.3990   71.5720  222.2490 C   0  0  0  0  0  0  0  0  0  0  0  0
  137.3740   71.4220  221.5370 O   0  0  0  0  0  0  0  0  0  0  0  0
  138.4600   71.1210  223.6780 C   0  0  0  0  0  0  0  0  0  0  0  0
  139.3930   69.9370  223.7190 C   0  0  2  0  0  0  0  0  0  0  0  0
  139.1960   68.9710  222.6870 N   0  0  0  0  0  0  0  0  0  0  0  0
  139.6420   69.4040  225.0670 C   0  0  0  0  0  0  0  0  0  0  0  0
  139.3190   68.0940  225.4410 C   0  0  0  0  0  0  0  0  0  0  0  0
  139.5450   67.6120  226.7100 C   0  0  0  0  0  0  0  0  0  0  0  0
  140.1080   68.3990  227.6920 C   0  0  0  0  0  0  0  0  0  0  0  0
  140.4350   69.6920  227.3460 C   0  0  0  0  0  0  0  0  0  0  0  0
  141.0040   70.4720  228.3410 C   0  0  0  0  0  0  0  0  0  0  0  0
  141.3680   71.7780  228.0850 C   0  0  0  0  0  0  0  0  0  0  0  0
  141.1450   72.2660  226.8190 C   0  0  0  0  0  0  0  0  0  0  0  0
  140.5780   71.4840  225.8370 C   0  0  0  0  0  0  0  0  0  0  0  0
  140.2070   70.1750  226.0710 C   0  0  0  0  0  0  0  0  0  0  0  0
  140.7610   72.4190  222.3900 C   0  0  0  0  0  0  0  0  0  0  0  0
  141.8010   72.7480  221.3140 C   0  0  0  0  0  0  0  0  0  0  0  0
  142.0273   77.2719  221.7326 H   0  0  0  0  0  0  0  0  0  0  0  0
  141.1587   78.5326  220.7930 H   0  0  0  0  0  0  0  0  0  0  0  0
  140.5587   76.8395  220.7930 H   0  0  0  0  0  0  0  0  0  0  0  0
  142.0534   77.8747  218.8120 H   0  0  0  0  0  0  0  0  0  0  0  0
  143.3633   77.2742  219.9236 H   0  0  0  0  0  0  0  0  0  0  0  0
  144.3877   75.0055  221.6886 H   0  0  0  0  0  0  0  0  0  0  0  0
  146.6961   74.0814  221.5221 H   0  0  0  0  0  0  0  0  0  0  0  0
  147.3222   72.7072  219.5763 H   0  0  0  0  0  0  0  0  0  0  0  0
  145.7060   72.2121  217.7568 H   0  0  0  0  0  0  0  0  0  0  0  0
  143.3727   73.1451  217.9216 H   0  0  0  0  0  0  0  0  0  0  0  0
  141.3295   74.7613  221.6102 H   0  0  0  0  0  0  0  0  0  0  0  0
  139.4445   74.7639  220.3934 H   0  0  0  0  0  0  0  0  0  0  0  0
  140.2959   74.0957  218.9540 H   0  0  0  0  0  0  0  0  0  0  0  0
  138.4416   72.6866  219.9640 H   0  0  0  0  0  0  0  0  0  0  0  0
  140.0839   71.9064  219.7058 H   0  0  0  0  0  0  0  0  0  0  0  0
  138.8464   71.9304  224.3149 H   0  0  0  0  0  0  0  0  0  0  0  0
  137.4610   70.8507  224.0507 H   0  0  0  0  0  0  0  0  0  0  0  0
  140.3702   70.3596  223.4424 H   0  0  0  0  0  0  0  0  0  0  0  0
  139.0760   68.0460  223.1160 H   0  0  0  0  0  0  0  0  0  0  0  0
  138.4710   69.2990  222.0440 H   0  0  0  0  0  0  0  0  0  0  0  0
  138.8680   67.4255  224.6929 H   0  0  0  0  0  0  0  0  0  0  0  0
  139.2698   66.5736  226.9466 H   0  0  0  0  0  0  0  0  0  0  0  0
  140.2880   68.0122  228.7059 H   0  0  0  0  0  0  0  0  0  0  0  0
  141.1665   70.0464  229.3422 H   0  0  0  0  0  0  0  0  0  0  0  0
  141.8206   72.4066  228.8661 H   0  0  0  0  0  0  0  0  0  0  0  0
  141.4256   73.3036  226.5853 H   0  0  0  0  0  0  0  0  0  0  0  0
  140.4162   71.9148  224.8379 H   0  0  0  0  0  0  0  0  0  0  0  0
  140.6487   73.2594  223.0908 H   0  0  0  0  0  0  0  0  0  0  0  0
  141.0488   71.5459  222.9941 H   0  0  0  0  0  0  0  0  0  0  0  0
  142.8065   72.7900  221.7581 H   0  0  0  0  0  0  0  0  0  0  0  0
  141.8163   71.9784  220.5282 H   0  0  0  0  0  0  0  0  0  0  0  0
  1  2  1  0
  2  3  1  0
  3  4  2  0
  3  5  1  0
  5  6  1  0
  6  7  2  0
  7  8  1  0
  8  9  2  0
  9 10  1  0
 10 11  2  0
  5 12  1  0
 12 13  1  0
 13 14  1  0
 14 15  1  0
 15 16  1  0
 16 17  2  0
 16 18  1  0
 18 19  1  0
 19 20  1  0
 19 21  1  0
 21 22  2  0
 22 23  1  0
 23 24  2  0
 24 25  1  0
 25 26  2  0
 26 27  1  0
 27 28  2  0
 28 29  1  0
 29 30  2  0
 15 31  1  0
 31 32  1  0
 11  6  1  0
 32 12  1  0
 30 21  1  0
 30 25  1  0
  1 33  1  0
  1 34  1  0
  1 35  1  0
  2 36  1  0
  2 37  1  0
  7 38  1  0
  8 39  1  0
  9 40  1  0
 10 41  1  0
 11 42  1  0
 12 43  1  0
 13 44  1  0
 13 45  1  0
 14 46  1  0
 14 47  1  0
 18 48  1  0
 18 49  1  0
 19 50  1  6
 20 51  1  0
 20 52  1  0
 22 53  1  0
 23 54  1  0
 24 55  1  0
 26 56  1  0
 27 57  1  0
 28 58  1  0
 29 59  1  0
 31 60  1  0
 31 61  1  0
 32 62  1  0
 32 63  1  0
M  END
>  <smiles>  (9) 
CCC(=O)N(c1ccccc1)C1CCN(C(=O)CC(N)c2cccc3ccccc23)CC1

>  <score_type>  (9) 
oracle

>  <origin>  (9) 
autodockgpu

>  <m_score__min__energy>  (9) 
-9.4000000000000004

>  <m_primary>  (9) 
energy

>  <rmsd>  (9) 
9.418107788486582

>  <m_score__min__rmsd>  (9) 
9.418107788486582

>  <meeko>  (9) 
{"free_energy": -8.23, "intermolecular_energy": -10.61, "internal_energy": -1.8, "cluster_size": 1, "cluster_id": 6, "rank_in_cluster": 1}

>  <energy>  (9) 
-8.94

>  <cluster_rmsd>  (9) 
0.74

>  <cluster>  (9) 
1

$$$$

     RDKit          3D

 63 66  0  0  0  0  0  0  0  0999 V2000
  142.9630   77.9330  217.9970 C   0  0  0  0  0  0  0  0  0  0  0  0
  142.7450   77.0650  219.2030 C   0  0  0  0  0  0  0  0  0  0  0  0
  141.4170   77.2720  219.8200 C   0  0  0  0  0  0  0  0  0  0  0  0
  140.4590   77.5270  219.0370 O   0  0  0  0  0  0  0  0  0  0  0  0
  141.2120   77.1900  221.2330 N   0  0  0  0  0  0  0  0  0  0  0  0
  141.5310   78.3220  222.0320 C   0  0  0  0  0  0  0  0  0  0  0  0
  141.8690   79.5120  221.4090 C   0  0  0  0  0  0  0  0  0  0  0  0
  142.1770   80.6080  222.1860 C   0  0  0  0  0  0  0  0  0  0  0  0
  142.1410   80.4940  223.5600 C   0  0  0  0  0  0  0  0  0  0  0  0
  141.8030   79.3090  224.2010 C   0  0  0  0  0  0  0  0  0  0  0  0
  141.4910   78.2000  223.4140 C   0  0  0  0  0  0  0  0  0  0  0  0
  140.6880   75.9510  221.7820 C   0  0  0  0  0  0  0  0  0  0  0  0
  139.2180   76.0650  222.0630 C   0  0  0  0  0  0  0  0  0  0  0  0
  138.5040   74.8420  221.5740 C   0  0  0  0  0  0  0  0  0  0  0  0
  139.1520   73.5930  221.9020 N   0  0  0  0  0  0  0  0  0  0  0  0
  138.3920   72.4760  222.3470 C   0  0  0  0  0  0  0  0  0  0  0  0
  137.1460   72.6180  222.4450 O   0  0  0  0  0  0  0  0  0  0  0  0
  139.0840   71.1890  222.6790 C   0  0  0  0  0  0  0  0  0  0  0  0
  138.2360   70.4970  223.7170 C   0  0  2  0  0  0  0  0  0  0  0  0
  137.2360   71.3110  224.3280 N   0  0  0  0  0  0  0  0  0  0  0  0
  138.9830   69.6020  224.6160 C   0  0  0  0  0  0  0  0  0  0  0  0
  138.9320   68.2070  224.5180 C   0  0  0  0  0  0  0  0  0  0  0  0
  139.6250   67.3820  225.3740 C   0  0  0  0  0  0  0  0  0  0  0  0
  140.4150   67.8880  226.3830 C   0  0  0  0  0  0  0  0  0  0  0  0
  140.4810   69.2590  226.4980 C   0  0  0  0  0  0  0  0  0  0  0  0
  141.2830   69.7560  227.5140 C   0  0  0  0  0  0  0  0  0  0  0  0
  141.4120   71.1170  227.7020 C   0  0  0  0  0  0  0  0  0  0  0  0
  140.7230   71.9470  226.8500 C   0  0  0  0  0  0  0  0  0  0  0  0
  139.9280   71.4450  225.8450 C   0  0  0  0  0  0  0  0  0  0  0  0
  139.7840   70.0870  225.6380 C   0  0  0  0  0  0  0  0  0  0  0  0
  140.5930   73.5360  221.7550 C   0  0  0  0  0  0  0  0  0  0  0  0
  140.9480   74.7720  220.9210 C   0  0  0  0  0  0  0  0  0  0  0  0
  143.2191   78.9527  218.3206 H   0  0  0  0  0  0  0  0  0  0  0  0
  143.7859   77.5223  217.3935 H   0  0  0  0  0  0  0  0  0  0  0  0
  142.0437   77.9598  217.3935 H   0  0  0  0  0  0  0  0  0  0  0  0
  142.8319   76.0114  218.8991 H   0  0  0  0  0  0  0  0  0  0  0  0
  143.5055   77.3358  219.9503 H   0  0  0  0  0  0  0  0  0  0  0  0
  141.8913   79.5813  220.3114 H   0  0  0  0  0  0  0  0  0  0  0  0
  142.4488   81.5641  221.7149 H   0  0  0  0  0  0  0  0  0  0  0  0
  142.3892   81.3744  224.1710 H   0  0  0  0  0  0  0  0  0  0  0  0
  141.7819   79.2466  225.2990 H   0  0  0  0  0  0  0  0  0  0  0  0
  141.2173   77.2429  223.8820 H   0  0  0  0  0  0  0  0  0  0  0  0
  141.2302   75.7876  222.7250 H   0  0  0  0  0  0  0  0  0  0  0  0
  139.0617   76.1685  223.1469 H   0  0  0  0  0  0  0  0  0  0  0  0
  138.8191   76.9475  221.5414 H   0  0  0  0  0  0  0  0  0  0  0  0
  137.4974   74.8326  222.0175 H   0  0  0  0  0  0  0  0  0  0  0  0
  138.4925   74.9071  220.4760 H   0  0  0  0  0  0  0  0  0  0  0  0
  139.1697   70.5615  221.7796 H   0  0  0  0  0  0  0  0  0  0  0  0
  140.1009   71.3721  223.0564 H   0  0  0  0  0  0  0  0  0  0  0  0
  137.6220   69.7956  223.1330 H   0  0  0  0  0  0  0  0  0  0  0  0
  137.6330   72.2380  224.5170 H   0  0  0  0  0  0  0  0  0  0  0  0
  136.3730   71.2610  223.7810 H   0  0  0  0  0  0  0  0  0  0  0  0
  138.3155   67.7534  223.7280 H   0  0  0  0  0  0  0  0  0  0  0  0
  139.5463   66.2919  225.2496 H   0  0  0  0  0  0  0  0  0  0  0  0
  140.9682   67.2267  227.0661 H   0  0  0  0  0  0  0  0  0  0  0  0
  141.8204   69.0602  228.1751 H   0  0  0  0  0  0  0  0  0  0  0  0
  142.0440   71.5234  228.5054 H   0  0  0  0  0  0  0  0  0  0  0  0
  140.8090   73.0366  226.9742 H   0  0  0  0  0  0  0  0  0  0  0  0
  139.3919   72.1454  225.1877 H   0  0  0  0  0  0  0  0  0  0  0  0
  141.0851   73.5768  222.7379 H   0  0  0  0  0  0  0  0  0  0  0  0
  140.9262   72.6024  221.2782 H   0  0  0  0  0  0  0  0  0  0  0  0
  142.0080   74.7414  220.6288 H   0  0  0  0  0  0  0  0  0  0  0  0
  140.3502   74.8140  219.9986 H   0  0  0  0  0  0  0  0  0  0  0  0
  1  2  1  0
  2  3  1  0
  3  4  2  0
  3  5  1  0
  5  6  1  0
  6  7  2  0
  7  8  1  0
  8  9  2  0
  9 10  1  0
 10 11  2  0
  5 12  1  0
 12 13  1  0
 13 14  1  0
 14 15  1  0
 15 16  1  0
 16 17  2  0
 16 18  1  0
 18 19  1  0
 19 20  1  0
 19 21  1  0
 21 22  2  0
 22 23  1  0
 23 24  2  0
 24 25  1  0
 25 26  2  0
 26 27  1  0
 27 28  2  0
 28 29  1  0
 29 30  2  0
 15 31  1  0
 31 32  1  0
 11  6  1  0
 32 12  1  0
 30 21  1  0
 30 25  1  0
  1 33  1  0
  1 34  1  0
  1 35  1  0
  2 36  1  0
  2 37  1  0
  7 38  1  0
  8 39  1  0
  9 40  1  0
 10 41  1  0
 11 42  1  0
 12 43  1  0
 13 44  1  0
 13 45  1  0
 14 46  1  0
 14 47  1  0
 18 48  1  0
 18 49  1  0
 19 50  1  6
 20 51  1  0
 20 52  1  0
 22 53  1  0
 23 54  1  0
 24 55  1  0
 26 56  1  0
 27 57  1  0
 28 58  1  0
 29 59  1  0
 31 60  1  0
 31 61  1  0
 32 62  1  0
 32 63  1  0
M  END
>  <smiles>  (10) 
CCC(=O)N(c1ccccc1)C1CCN(C(=O)CC(N)c2cccc3ccccc23)CC1

>  <score_type>  (10) 
oracle

>  <origin>  (10) 
autodockgpu

>  <m_score__min__energy>  (10) 
-9.4000000000000004

>  <m_primary>  (10) 
energy

>  <rmsd>  (10) 
9.318646626077424

>  <m_score__min__rmsd>  (10) 
9.318646626077424

>  <meeko>  (10) 
{"free_energy": -8.82, "intermolecular_energy": -11.21, "internal_energy": -2.07, "cluster_size": 22, "cluster_id": 1, "rank_in_cluster": 13}

>  <energy>  (10) 
-8.9

>  <cluster_rmsd>  (10) 
0.35

>  <cluster>  (10) 
1

$$$$

     RDKit          3D

 63 66  0  0  0  0  0  0  0  0999 V2000
  142.2040   79.9120  218.6440 C   0  0  0  0  0  0  0  0  0  0  0  0
  140.8940   80.5380  219.0260 C   0  0  0  0  0  0  0  0  0  0  0  0
  140.0330   79.6250  219.8080 C   0  0  0  0  0  0  0  0  0  0  0  0
  138.8360   79.5020  219.4250 O   0  0  0  0  0  0  0  0  0  0  0  0
  140.5190   78.9060  220.9460 N   0  0  0  0  0  0  0  0  0  0  0  0
  141.2170   79.6260  221.9550 C   0  0  0  0  0  0  0  0  0  0  0  0
  140.5170   80.5140  222.7560 C   0  0  0  0  0  0  0  0  0  0  0  0
  141.1960   81.2080  223.7330 C   0  0  0  0  0  0  0  0  0  0  0  0
  142.5510   81.0040  223.8900 C   0  0  0  0  0  0  0  0  0  0  0  0
  143.2680   80.1170  223.0970 C   0  0  0  0  0  0  0  0  0  0  0  0
  142.5800   79.4140  222.1070 C   0  0  0  0  0  0  0  0  0  0  0  0
  140.2760   77.4760  221.0130 C   0  0  0  0  0  0  0  0  0  0  0  0
  141.3300   76.7150  220.2630 C   0  0  0  0  0  0  0  0  0  0  0  0
  141.7920   75.5420  221.0720 C   0  0  0  0  0  0  0  0  0  0  0  0
  140.7320   74.7810  221.6910 N   0  0  0  0  0  0  0  0  0  0  0  0
  140.7690   73.3590  221.7000 C   0  0  0  0  0  0  0  0  0  0  0  0
  141.7490   72.7960  221.1490 O   0  0  0  0  0  0  0  0  0  0  0  0
  139.6600   72.5890  222.3510 C   0  0  0  0  0  0  0  0  0  0  0  0
  140.1530   71.1720  222.5110 C   0  0  2  0  0  0  0  0  0  0  0  0
  140.2420   70.4180  221.3020 N   0  0  0  0  0  0  0  0  0  0  0  0
  139.6030   70.4640  223.6770 C   0  0  0  0  0  0  0  0  0  0  0  0
  138.5880   69.5050  223.5780 C   0  0  0  0  0  0  0  0  0  0  0  0
  138.0730   68.8590  224.6800 C   0  0  0  0  0  0  0  0  0  0  0  0
  138.5330   69.1230  225.9520 C   0  0  0  0  0  0  0  0  0  0  0  0
  139.5330   70.0630  226.0730 C   0  0  0  0  0  0  0  0  0  0  0  0
  139.9900   70.3160  227.3570 C   0  0  0  0  0  0  0  0  0  0  0  0
  140.9920   71.2390  227.5750 C   0  0  0  0  0  0  0  0  0  0  0  0
  141.5110   71.8870  226.4790 C   0  0  0  0  0  0  0  0  0  0  0  0
  141.0500   71.6300  225.2080 C   0  0  0  0  0  0  0  0  0  0  0  0
  140.0490   70.7110  224.9660 C   0  0  0  0  0  0  0  0  0  0  0  0
  139.6480   75.5270  222.2980 C   0  0  0  0  0  0  0  0  0  0  0  0
  140.1740   76.9630  222.4010 C   0  0  0  0  0  0  0  0  0  0  0  0
  142.7620   79.6453  219.5537 H   0  0  0  0  0  0  0  0  0  0  0  0
  142.0176   79.0056  218.0492 H   0  0  0  0  0  0  0  0  0  0  0  0
  142.7921   80.6264  218.0492 H   0  0  0  0  0  0  0  0  0  0  0  0
  141.0953   81.4354  219.6295 H   0  0  0  0  0  0  0  0  0  0  0  0
  140.3597   80.7849  218.0967 H   0  0  0  0  0  0  0  0  0  0  0  0
  139.4363   80.6623  222.6139 H   0  0  0  0  0  0  0  0  0  0  0  0
  140.6626   81.9182  224.3819 H   0  0  0  0  0  0  0  0  0  0  0  0
  143.0837   81.5645  224.6723 H   0  0  0  0  0  0  0  0  0  0  0  0
  144.3484   79.9727  223.2453 H   0  0  0  0  0  0  0  0  0  0  0  0
  143.1102   78.7025  221.4569 H   0  0  0  0  0  0  0  0  0  0  0  0
  139.2977   77.3148  220.5367 H   0  0  0  0  0  0  0  0  0  0  0  0
  140.9122   76.3578  219.3102 H   0  0  0  0  0  0  0  0  0  0  0  0
  142.1855   77.3792  220.0710 H   0  0  0  0  0  0  0  0  0  0  0  0
  142.3550   74.8688  220.4088 H   0  0  0  0  0  0  0  0  0  0  0  0
  142.4010   75.9505  221.8919 H   0  0  0  0  0  0  0  0  0  0  0  0
  139.4242   73.0218  223.3344 H   0  0  0  0  0  0  0  0  0  0  0  0
  138.7440   72.6233  221.7430 H   0  0  0  0  0  0  0  0  0  0  0  0
  141.2139   71.2889  222.7772 H   0  0  0  0  0  0  0  0  0  0  0  0
  140.9630   70.8360  220.7030 H   0  0  0  0  0  0  0  0  0  0  0  0
  140.3210   69.4230  221.5250 H   0  0  0  0  0  0  0  0  0  0  0  0
  138.1871   69.2584  222.5838 H   0  0  0  0  0  0  0  0  0  0  0  0
  137.2753   68.1144  224.5415 H   0  0  0  0  0  0  0  0  0  0  0  0
  138.1203   68.6065  226.8311 H   0  0  0  0  0  0  0  0  0  0  0  0
  139.5503   69.7766  228.2089 H   0  0  0  0  0  0  0  0  0  0  0  0
  141.3624   71.4489  228.5893 H   0  0  0  0  0  0  0  0  0  0  0  0
  142.3123   72.6271  226.6212 H   0  0  0  0  0  0  0  0  0  0  0  0
  141.4924   72.1731  224.3598 H   0  0  0  0  0  0  0  0  0  0  0  0
  138.7485   75.4877  221.6661 H   0  0  0  0  0  0  0  0  0  0  0  0
  139.3588   75.1184  223.2775 H   0  0  0  0  0  0  0  0  0  0  0  0
  139.4765   77.5820  222.9844 H   0  0  0  0  0  0  0  0  0  0  0  0
  141.1495   76.9933  222.9085 H   0  0  0  0  0  0  0  0  0  0  0  0
  1  2  1  0
  2  3  1  0
  3  4  2  0
  3  5  1  0
  5  6  1  0
  6  7  2  0
  7  8  1  0
  8  9  2  0
  9 10  1  0
 10 11  2  0
  5 12  1  0
 12 13  1  0
 13 14  1  0
 14 15  1  0
 15 16  1  0
 16 17  2  0
 16 18  1  0
 18 19  1  0
 19 20  1  0
 19 21  1  0
 21 22  2  0
 22 23  1  0
 23 24  2  0
 24 25  1  0
 25 26  2  0
 26 27  1  0
 27 28  2  0
 28 29  1  0
 29 30  2  0
 15 31  1  0
 31 32  1  0
 11  6  1  0
 32 12  1  0
 30 21  1  0
 30 25  1  0
  1 33  1  0
  1 34  1  0
  1 35  1  0
  2 36  1  0
  2 37  1  0
  7 38  1  0
  8 39  1  0
  9 40  1  0
 10 41  1  0
 11 42  1  0
 12 43  1  0
 13 44  1  0
 13 45  1  0
 14 46  1  0
 14 47  1  0
 18 48  1  0
 18 49  1  0
 19 50  1  1
 20 51  1  0
 20 52  1  0
 22 53  1  0
 23 54  1  0
 24 55  1  0
 26 56  1  0
 27 57  1  0
 28 58  1  0
 29 59  1  0
 31 60  1  0
 31 61  1  0
 32 62  1  0
 32 63  1  0
M  END
>  <smiles>  (11) 
CCC(=O)N(c1ccccc1)C1CCN(C(=O)CC(N)c2cccc3ccccc23)CC1

>  <score_type>  (11) 
oracle

>  <origin>  (11) 
autodockgpu

>  <m_score__min__energy>  (11) 
-9.4000000000000004

>  <m_primary>  (11) 
energy

>  <rmsd>  (11) 
8.180088689807805

>  <m_score__min__rmsd>  (11) 
8.180088689807805

>  <meeko>  (11) 
{"free_energy": -8.0, "intermolecular_energy": -10.39, "internal_energy": -2.15, "cluster_size": 5, "cluster_id": 7, "rank_in_cluster": 4}

>  <energy>  (11) 
-8.89

>  <cluster_rmsd>  (11) 
1.47

>  <cluster>  (11) 
1

$$$$

     RDKit          3D

 63 66  0  0  0  0  0  0  0  0999 V2000
  142.5750   80.6680  223.4520 C   0  0  0  0  0  0  0  0  0  0  0  0
  141.5810   79.9760  222.5650 C   0  0  0  0  0  0  0  0  0  0  0  0
  141.5510   78.5130  222.7790 C   0  0  0  0  0  0  0  0  0  0  0  0
  141.8020   78.1030  223.9480 O   0  0  0  0  0  0  0  0  0  0  0  0
  141.2520   77.5930  221.7250 N   0  0  0  0  0  0  0  0  0  0  0  0
  141.5030   77.9950  220.3840 C   0  0  0  0  0  0  0  0  0  0  0  0
  140.6520   78.9080  219.7840 C   0  0  0  0  0  0  0  0  0  0  0  0
  140.9000   79.2960  218.4840 C   0  0  0  0  0  0  0  0  0  0  0  0
  141.9830   78.7680  217.8160 C   0  0  0  0  0  0  0  0  0  0  0  0
  142.8470   77.8510  218.4030 C   0  0  0  0  0  0  0  0  0  0  0  0
  142.5970   77.4590  219.7180 C   0  0  0  0  0  0  0  0  0  0  0  0
  140.7040   76.2950  222.0770 C   0  0  0  0  0  0  0  0  0  0  0  0
  139.2420   76.3970  222.4010 C   0  0  0  0  0  0  0  0  0  0  0  0
  138.4890   75.2870  221.7350 C   0  0  0  0  0  0  0  0  0  0  0  0
  139.1080   73.9860  221.8450 N   0  0  0  0  0  0  0  0  0  0  0  0
  138.3260   72.8300  222.1190 C   0  0  0  0  0  0  0  0  0  0  0  0
  137.0860   72.9840  222.2630 O   0  0  0  0  0  0  0  0  0  0  0  0
  138.9890   71.4900  222.2250 C   0  0  0  0  0  0  0  0  0  0  0  0
  138.5010   70.8670  223.5100 C   0  0  2  0  0  0  0  0  0  0  0  0
  137.1670   71.2080  223.8840 N   0  0  0  0  0  0  0  0  0  0  0  0
  139.4950   70.8500  224.5950 C   0  0  0  0  0  0  0  0  0  0  0  0
  140.3720   71.9130  224.8410 C   0  0  0  0  0  0  0  0  0  0  0  0
  141.3060   71.8790  225.8520 C   0  0  0  0  0  0  0  0  0  0  0  0
  141.4310   70.7870  226.6840 C   0  0  0  0  0  0  0  0  0  0  0  0
  140.5770   69.7300  226.4600 C   0  0  0  0  0  0  0  0  0  0  0  0
  140.7080   68.6400  227.3070 C   0  0  0  0  0  0  0  0  0  0  0  0
  139.8930   67.5360  227.1600 C   0  0  0  0  0  0  0  0  0  0  0  0
  138.9580   67.5640  226.1530 C   0  0  0  0  0  0  0  0  0  0  0  0
  138.8350   68.6500  225.3160 C   0  0  0  0  0  0  0  0  0  0  0  0
  139.6390   69.7650  225.4450 C   0  0  0  0  0  0  0  0  0  0  0  0
  140.5450   73.9190  221.6630 C   0  0  0  0  0  0  0  0  0  0  0  0
  140.9200   75.2650  221.0330 C   0  0  0  0  0  0  0  0  0  0  0  0
  142.3149   80.4869  224.5053 H   0  0  0  0  0  0  0  0  0  0  0  0
  143.5824   80.2750  223.2503 H   0  0  0  0  0  0  0  0  0  0  0  0
  142.5561   81.7492  223.2503 H   0  0  0  0  0  0  0  0  0  0  0  0
  140.5803   80.3831  222.7722 H   0  0  0  0  0  0  0  0  0  0  0  0
  141.8832   80.1545  221.5225 H   0  0  0  0  0  0  0  0  0  0  0  0
  139.7924   79.3170  220.3352 H   0  0  0  0  0  0  0  0  0  0  0  0
  140.2392   80.0203  217.9852 H   0  0  0  0  0  0  0  0  0  0  0  0
  142.1710   79.0839  216.7793 H   0  0  0  0  0  0  0  0  0  0  0  0
  143.7044   77.4456  217.8458 H   0  0  0  0  0  0  0  0  0  0  0  0
  143.2567   76.7360  220.2200 H   0  0  0  0  0  0  0  0  0  0  0  0
  141.2557   75.9685  222.9709 H   0  0  0  0  0  0  0  0  0  0  0  0
  139.1050   76.3274  223.4902 H   0  0  0  0  0  0  0  0  0  0  0  0
  138.8588   77.3616  222.0366 H   0  0  0  0  0  0  0  0  0  0  0  0
  137.4891   75.2302  222.1899 H   0  0  0  0  0  0  0  0  0  0  0  0
  138.4635   75.5290  220.6623 H   0  0  0  0  0  0  0  0  0  0  0  0
  138.7098   70.8597  221.3678 H   0  0  0  0  0  0  0  0  0  0  0  0
  140.0846   71.5886  222.2234 H   0  0  0  0  0  0  0  0  0  0  0  0
  138.3946   69.8003  223.2635 H   0  0  0  0  0  0  0  0  0  0  0  0
  137.1670   72.1500  224.2890 H   0  0  0  0  0  0  0  0  0  0  0  0
  136.5340   71.0210  223.1020 H   0  0  0  0  0  0  0  0  0  0  0  0
  140.3128   72.8076  224.2037 H   0  0  0  0  0  0  0  0  0  0  0  0
  141.9687   72.7445  225.9995 H   0  0  0  0  0  0  0  0  0  0  0  0
  142.1789   70.7610  227.4902 H   0  0  0  0  0  0  0  0  0  0  0  0
  141.4676   68.6554  228.1025 H   0  0  0  0  0  0  0  0  0  0  0  0
  139.9883   66.6649  227.8249 H   0  0  0  0  0  0  0  0  0  0  0  0
  138.2929   66.6991  226.0127 H   0  0  0  0  0  0  0  0  0  0  0  0
  138.0744   68.6288  224.5216 H   0  0  0  0  0  0  0  0  0  0  0  0
  141.0529   73.7882  222.6299 H   0  0  0  0  0  0  0  0  0  0  0  0
  140.8460   73.0672  221.0354 H   0  0  0  0  0  0  0  0  0  0  0  0
  141.9745   75.2570  220.7199 H   0  0  0  0  0  0  0  0  0  0  0  0
  140.3098   75.4697  220.1410 H   0  0  0  0  0  0  0  0  0  0  0  0
  1  2  1  0
  2  3  1  0
  3  4  2  0
  3  5  1  0
  5  6  1  0
  6  7  2  0
  7  8  1  0
  8  9  2  0
  9 10  1  0
 10 11  2  0
  5 12  1  0
 12 13  1  0
 13 14  1  0
 14 15  1  0
 15 16  1  0
 16 17  2  0
 16 18  1  0
 18 19  1  0
 19 20  1  0
 19 21  1  0
 21 22  2  0
 22 23  1  0
 23 24  2  0
 24 25  1  0
 25 26  2  0
 26 27  1  0
 27 28  2  0
 28 29  1  0
 29 30  2  0
 15 31  1  0
 31 32  1  0
 11  6  1  0
 32 12  1  0
 30 21  1  0
 30 25  1  0
  1 33  1  0
  1 34  1  0
  1 35  1  0
  2 36  1  0
  2 37  1  0
  7 38  1  0
  8 39  1  0
  9 40  1  0
 10 41  1  0
 11 42  1  0
 12 43  1  0
 13 44  1  0
 13 45  1  0
 14 46  1  0
 14 47  1  0
 18 48  1  0
 18 49  1  0
 19 50  1  6
 20 51  1  0
 20 52  1  0
 22 53  1  0
 23 54  1  0
 24 55  1  0
 26 56  1  0
 27 57  1  0
 28 58  1  0
 29 59  1  0
 31 60  1  0
 31 61  1  0
 32 62  1  0
 32 63  1  0
M  END
>  <smiles>  (12) 
CCC(=O)N(c1ccccc1)C1CCN(C(=O)CC(N)c2cccc3ccccc23)CC1

>  <score_type>  (12) 
oracle

>  <origin>  (12) 
autodockgpu

>  <m_score__min__energy>  (12) 
-9.4000000000000004

>  <m_primary>  (12) 
energy

>  <rmsd>  (12) 
8.003899175110986

>  <m_score__min__rmsd>  (12) 
8.003899175110986

>  <meeko>  (12) 
{"free_energy": -8.14, "intermolecular_energy": -10.53, "internal_energy": -2.33, "cluster_size": 3, "cluster_id": 4, "rank_in_cluster": 2}

>  <energy>  (12) 
-8.83

>  <cluster_rmsd>  (12) 
0.95

>  <cluster>  (12) 
1

$$$$

     RDKit          3D

 63 66  0  0  0  0  0  0  0  0999 V2000
  138.8280   67.3230  222.7830 C   0  0  0  0  0  0  0  0  0  0  0  0
  138.8320   68.7890  222.4590 C   0  0  0  0  0  0  0  0  0  0  0  0
  138.4090   69.6250  223.6030 C   0  0  0  0  0  0  0  0  0  0  0  0
  137.2240   69.4710  224.0140 O   0  0  0  0  0  0  0  0  0  0  0  0
  139.2880   70.5660  224.2260 N   0  0  0  0  0  0  0  0  0  0  0  0
  139.8150   70.2540  225.5100 C   0  0  0  0  0  0  0  0  0  0  0  0
  140.3300   71.2740  226.2930 C   0  0  0  0  0  0  0  0  0  0  0  0
  140.8380   70.9680  227.5370 C   0  0  0  0  0  0  0  0  0  0  0  0
  140.8220   69.6600  227.9710 C   0  0  0  0  0  0  0  0  0  0  0  0
  140.3100   68.6240  227.1990 C   0  0  0  0  0  0  0  0  0  0  0  0
  139.7950   68.9340  225.9400 C   0  0  0  0  0  0  0  0  0  0  0  0
  139.5980   71.7950  223.5170 C   0  0  0  0  0  0  0  0  0  0  0  0
  141.0100   71.7810  223.0060 C   0  0  0  0  0  0  0  0  0  0  0  0
  141.0500   72.2720  221.5920 C   0  0  0  0  0  0  0  0  0  0  0  0
  140.2600   73.4560  221.3410 N   0  0  0  0  0  0  0  0  0  0  0  0
  140.7640   74.5050  220.5240 C   0  0  0  0  0  0  0  0  0  0  0  0
  141.9150   74.3650  220.0370 O   0  0  0  0  0  0  0  0  0  0  0  0
  139.9260   75.7220  220.2740 C   0  0  0  0  0  0  0  0  0  0  0  0
  140.7700   76.9140  220.6540 C   0  0  2  0  0  0  0  0  0  0  0  0
  142.1690   76.6580  220.7680 N   0  0  0  0  0  0  0  0  0  0  0  0
  140.1800   77.7710  221.6940 C   0  0  0  0  0  0  0  0  0  0  0  0
  138.8680   77.6170  222.1550 C   0  0  0  0  0  0  0  0  0  0  0  0
  138.3240   78.4340  223.1210 C   0  0  0  0  0  0  0  0  0  0  0  0
  139.0490   79.4580  223.6910 C   0  0  0  0  0  0  0  0  0  0  0  0
  140.3440   79.6280  223.2530 C   0  0  0  0  0  0  0  0  0  0  0  0
  141.0640   80.6580  223.8390 C   0  0  0  0  0  0  0  0  0  0  0  0
  142.3700   80.9010  223.4650 C   0  0  0  0  0  0  0  0  0  0  0  0
  142.9190   80.0880  222.5020 C   0  0  0  0  0  0  0  0  0  0  0  0
  142.1960   79.0680  221.9250 C   0  0  0  0  0  0  0  0  0  0  0  0
  140.8890   78.8070  222.2840 C   0  0  0  0  0  0  0  0  0  0  0  0
  138.9460   73.5170  221.9510 C   0  0  0  0  0  0  0  0  0  0  0  0
  138.6610   72.0810  222.4040 C   0  0  0  0  0  0  0  0  0  0  0  0
  138.8276   67.1888  223.8748 H   0  0  0  0  0  0  0  0  0  0  0  0
  137.9286   66.8555  222.3558 H   0  0  0  0  0  0  0  0  0  0  0  0
  139.7249   66.8506  222.3558 H   0  0  0  0  0  0  0  0  0  0  0  0
  139.8509   69.0823  222.1659 H   0  0  0  0  0  0  0  0  0  0  0  0
  138.1125   68.9520  221.6430 H   0  0  0  0  0  0  0  0  0  0  0  0
  140.3334   72.3116  225.9277 H   0  0  0  0  0  0  0  0  0  0  0  0
  141.2524   71.7604  228.1776 H   0  0  0  0  0  0  0  0  0  0  0  0
  141.2298   69.4273  228.9658 H   0  0  0  0  0  0  0  0  0  0  0  0
  140.3108   67.5885  227.5703 H   0  0  0  0  0  0  0  0  0  0  0  0
  139.3791   68.1441  225.2973 H   0  0  0  0  0  0  0  0  0  0  0  0
  139.4822   72.6042  224.2530 H   0  0  0  0  0  0  0  0  0  0  0  0
  141.6314   72.4345  223.6359 H   0  0  0  0  0  0  0  0  0  0  0  0
  141.3954   70.7513  223.0408 H   0  0  0  0  0  0  0  0  0  0  0  0
  142.0960   72.4977  221.3372 H   0  0  0  0  0  0  0  0  0  0  0  0
  140.6165   71.4725  220.9732 H   0  0  0  0  0  0  0  0  0  0  0  0
  139.6465   75.7784  219.2116 H   0  0  0  0  0  0  0  0  0  0  0  0
  138.9970   75.6908  220.8621 H   0  0  0  0  0  0  0  0  0  0  0  0
  140.7364   77.5580  219.7629 H   0  0  0  0  0  0  0  0  0  0  0  0
  142.3210   75.9720  221.5150 H   0  0  0  0  0  0  0  0  0  0  0  0
  142.5560   76.4540  219.8430 H   0  0  0  0  0  0  0  0  0  0  0  0
  138.2481   76.8137  221.7302 H   0  0  0  0  0  0  0  0  0  0  0  0
  137.2865   78.2652  223.4452 H   0  0  0  0  0  0  0  0  0  0  0  0
  138.6130   80.1107  224.4616 H   0  0  0  0  0  0  0  0  0  0  0  0
  140.5906   81.2862  224.6079 H   0  0  0  0  0  0  0  0  0  0  0  0
  142.9509   81.7161  223.9212 H   0  0  0  0  0  0  0  0  0  0  0  0
  143.9590   80.2560  222.1853 H   0  0  0  0  0  0  0  0  0  0  0  0
  142.6737   78.4433  221.1559 H   0  0  0  0  0  0  0  0  0  0  0  0
  138.9492   74.2020  222.8117 H   0  0  0  0  0  0  0  0  0  0  0  0
  138.1813   73.8939  221.2559 H   0  0  0  0  0  0  0  0  0  0  0  0
  137.6209   71.9916  222.7508 H   0  0  0  0  0  0  0  0  0  0  0  0
  138.7980   71.3691  221.5767 H   0  0  0  0  0  0  0  0  0  0  0  0
  1  2  1  0
  2  3  1  0
  3  4  2  0
  3  5  1  0
  5  6  1  0
  6  7  2  0
  7  8  1  0
  8  9  2  0
  9 10  1  0
 10 11  2  0
  5 12  1  0
 12 13  1  0
 13 14  1  0
 14 15  1  0
 15 16  1  0
 16 17  2  0
 16 18  1  0
 18 19  1  0
 19 20  1  0
 19 21  1  0
 21 22  2  0
 22 23  1  0
 23 24  2  0
 24 25  1  0
 25 26  2  0
 26 27  1  0
 27 28  2  0
 28 29  1  0
 29 30  2  0
 15 31  1  0
 31 32  1  0
 11  6  1  0
 32 12  1  0
 30 21  1  0
 30 25  1  0
  1 33  1  0
  1 34  1  0
  1 35  1  0
  2 36  1  0
  2 37  1  0
  7 38  1  0
  8 39  1  0
  9 40  1  0
 10 41  1  0
 11 42  1  0
 12 43  1  0
 13 44  1  0
 13 45  1  0
 14 46  1  0
 14 47  1  0
 18 48  1  0
 18 49  1  0
 19 50  1  6
 20 51  1  0
 20 52  1  0
 22 53  1  0
 23 54  1  0
 24 55  1  0
 26 56  1  0
 27 57  1  0
 28 58  1  0
 29 59  1  0
 31 60  1  0
 31 61  1  0
 32 62  1  0
 32 63  1  0
M  END
>  <smiles>  (13) 
CCC(=O)N(c1ccccc1)C1CCN(C(=O)CC(N)c2cccc3ccccc23)CC1

>  <score_type>  (13) 
oracle

>  <origin>  (13) 
autodockgpu

>  <m_score__min__energy>  (13) 
-9.4000000000000004

>  <m_primary>  (13) 
energy

>  <rmsd>  (13) 
5.427896898938583

>  <m_score__min__rmsd>  (13) 
5.427896898938583

>  <meeko>  (13) 
{"free_energy": -8.17, "intermolecular_energy": -10.56, "internal_energy": -2.09, "cluster_size": 7, "cluster_id": 2, "rank_in_cluster": 5}

>  <energy>  (13) 
-8.82

>  <cluster_rmsd>  (13) 
0.63

>  <cluster>  (13) 
1

$$$$

     RDKit          3D

 63 66  0  0  0  0  0  0  0  0999 V2000
  142.2240   80.8220  222.7670 C   0  0  0  0  0  0  0  0  0  0  0  0
  142.5730   79.3850  222.5060 C   0  0  0  0  0  0  0  0  0  0  0  0
  141.5650   78.6970  221.6710 C   0  0  0  0  0  0  0  0  0  0  0  0
  141.8390   78.5570  220.4460 O   0  0  0  0  0  0  0  0  0  0  0  0
  140.3340   78.2070  222.2110 N   0  0  0  0  0  0  0  0  0  0  0  0
  139.3180   79.1460  222.5450 C   0  0  0  0  0  0  0  0  0  0  0  0
  138.4250   79.5470  221.5650 C   0  0  0  0  0  0  0  0  0  0  0  0
  137.4410   80.4560  221.8930 C   0  0  0  0  0  0  0  0  0  0  0  0
  137.3710   80.9410  223.1810 C   0  0  0  0  0  0  0  0  0  0  0  0
  138.2590   80.5490  224.1750 C   0  0  0  0  0  0  0  0  0  0  0  0
  139.2540   79.6290  223.8440 C   0  0  0  0  0  0  0  0  0  0  0  0
  140.1840   76.7740  222.3940 C   0  0  0  0  0  0  0  0  0  0  0  0
  138.7600   76.4180  222.7090 C   0  0  0  0  0  0  0  0  0  0  0  0
  138.3360   75.2290  221.9020 C   0  0  0  0  0  0  0  0  0  0  0  0
  139.3000   74.1540  221.8590 N   0  0  0  0  0  0  0  0  0  0  0  0
  138.8820   72.8000  221.9770 C   0  0  0  0  0  0  0  0  0  0  0  0
  137.6540   72.5770  222.1240 O   0  0  0  0  0  0  0  0  0  0  0  0
  139.8990   71.6990  221.9260 C   0  0  0  0  0  0  0  0  0  0  0  0
  139.4240   70.6270  222.8750 C   0  0  2  0  0  0  0  0  0  0  0  0
  138.0380   70.3040  222.7840 N   0  0  0  0  0  0  0  0  0  0  0  0
  139.9800   70.7260  224.2340 C   0  0  0  0  0  0  0  0  0  0  0  0
  140.6140   71.8770  224.7160 C   0  0  0  0  0  0  0  0  0  0  0  0
  141.1410   71.9520  225.9850 C   0  0  0  0  0  0  0  0  0  0  0  0
  141.0720   70.8880  226.8590 C   0  0  0  0  0  0  0  0  0  0  0  0
  140.4510   69.7460  226.4070 C   0  0  0  0  0  0  0  0  0  0  0  0
  140.3840   68.6850  227.2970 C   0  0  0  0  0  0  0  0  0  0  0  0
  139.7760   67.5010  226.9320 C   0  0  0  0  0  0  0  0  0  0  0  0
  139.2470   67.4200  225.6660 C   0  0  0  0  0  0  0  0  0  0  0  0
  139.3200   68.4780  224.7880 C   0  0  0  0  0  0  0  0  0  0  0  0
  139.9220   69.6710  225.1310 C   0  0  0  0  0  0  0  0  0  0  0  0
  140.6920   74.5190  221.6870 C   0  0  0  0  0  0  0  0  0  0  0  0
  140.6570   75.9830  221.2330 C   0  0  0  0  0  0  0  0  0  0  0  0
  142.1813   80.9977  223.8520 H   0  0  0  0  0  0  0  0  0  0  0  0
  142.9903   81.4724  222.3201 H   0  0  0  0  0  0  0  0  0  0  0  0
  141.2447   81.0485  222.3201 H   0  0  0  0  0  0  0  0  0  0  0  0
  143.5436   79.3465  221.9898 H   0  0  0  0  0  0  0  0  0  0  0  0
  142.6088   78.8695  223.4770 H   0  0  0  0  0  0  0  0  0  0  0  0
  138.4994   79.1474  220.5429 H   0  0  0  0  0  0  0  0  0  0  0  0
  136.7189   80.7907  221.1337 H   0  0  0  0  0  0  0  0  0  0  0  0
  136.5824   81.6658  223.4315 H   0  0  0  0  0  0  0  0  0  0  0  0
  138.1797   80.9530  225.1950 H   0  0  0  0  0  0  0  0  0  0  0  0
  139.9769   79.2916  224.6014 H   0  0  0  0  0  0  0  0  0  0  0  0
  140.8261   76.5106  223.2474 H   0  0  0  0  0  0  0  0  0  0  0  0
  138.6725   76.1810  223.7796 H   0  0  0  0  0  0  0  0  0  0  0  0
  138.1121   77.2715  222.4604 H   0  0  0  0  0  0  0  0  0  0  0  0
  137.4038   74.8363  222.3342 H   0  0  0  0  0  0  0  0  0  0  0  0
  138.2179   75.5821  220.8669 H   0  0  0  0  0  0  0  0  0  0  0  0
  139.9714   71.2966  220.9048 H   0  0  0  0  0  0  0  0  0  0  0  0
  140.8957   72.0670  222.2111 H   0  0  0  0  0  0  0  0  0  0  0  0
  139.8896   69.7075  222.4906 H   0  0  0  0  0  0  0  0  0  0  0  0
  137.5240   70.8410  223.4920 H   0  0  0  0  0  0  0  0  0  0  0  0
  137.7320   70.3780  221.8110 H   0  0  0  0  0  0  0  0  0  0  0  0
  140.6939   72.7536  224.0564 H   0  0  0  0  0  0  0  0  0  0  0  0
  141.6289   72.8829  226.3097 H   0  0  0  0  0  0  0  0  0  0  0  0
  141.4946   70.9491  227.8727 H   0  0  0  0  0  0  0  0  0  0  0  0
  140.8189   68.7877  228.3021 H   0  0  0  0  0  0  0  0  0  0  0  0
  139.7169   66.6524  227.6294 H   0  0  0  0  0  0  0  0  0  0  0  0
  138.7545   66.4895  225.3473 H   0  0  0  0  0  0  0  0  0  0  0  0
  138.8855   68.3688  223.7834 H   0  0  0  0  0  0  0  0  0  0  0  0
  141.2391   74.4201  222.6361 H   0  0  0  0  0  0  0  0  0  0  0  0
  141.2059   73.8705  220.9621 H   0  0  0  0  0  0  0  0  0  0  0  0
  141.6631   76.3120  220.9339 H   0  0  0  0  0  0  0  0  0  0  0  0
  139.9929   76.1142  220.3659 H   0  0  0  0  0  0  0  0  0  0  0  0
  1  2  1  0
  2  3  1  0
  3  4  2  0
  3  5  1  0
  5  6  1  0
  6  7  2  0
  7  8  1  0
  8  9  2  0
  9 10  1  0
 10 11  2  0
  5 12  1  0
 12 13  1  0
 13 14  1  0
 14 15  1  0
 15 16  1  0
 16 17  2  0
 16 18  1  0
 18 19  1  0
 19 20  1  0
 19 21  1  0
 21 22  2  0
 22 23  1  0
 23 24  2  0
 24 25  1  0
 25 26  2  0
 26 27  1  0
 27 28  2  0
 28 29  1  0
 29 30  2  0
 15 31  1  0
 31 32  1  0
 11  6  1  0
 32 12  1  0
 30 21  1  0
 30 25  1  0
  1 33  1  0
  1 34  1  0
  1 35  1  0
  2 36  1  0
  2 37  1  0
  7 38  1  0
  8 39  1  0
  9 40  1  0
 10 41  1  0
 11 42  1  0
 12 43  1  0
 13 44  1  0
 13 45  1  0
 14 46  1  0
 14 47  1  0
 18 48  1  0
 18 49  1  0
 19 50  1  6
 20 51  1  0
 20 52  1  0
 22 53  1  0
 23 54  1  0
 24 55  1  0
 26 56  1  0
 27 57  1  0
 28 58  1  0
 29 59  1  0
 31 60  1  0
 31 61  1  0
 32 62  1  0
 32 63  1  0
M  END
>  <smiles>  (14) 
CCC(=O)N(c1ccccc1)C1CCN(C(=O)CC(N)c2cccc3ccccc23)CC1

>  <score_type>  (14) 
oracle

>  <origin>  (14) 
autodockgpu

>  <m_score__min__energy>  (14) 
-9.4000000000000004

>  <m_primary>  (14) 
energy

>  <rmsd>  (14) 
7.941755402239701

>  <m_score__min__rmsd>  (14) 
7.941755402239701

>  <meeko>  (14) 
{"free_energy": -7.73, "intermolecular_energy": -10.12, "internal_energy": -2.37, "cluster_size": 1, "cluster_id": 9, "rank_in_cluster": 1}

>  <energy>  (14) 
-8.72

>  <cluster_rmsd>  (14) 
0.87

>  <cluster>  (14) 
1

$$$$

     RDKit          3D

 63 66  0  0  0  0  0  0  0  0999 V2000
  136.1060   70.0360  224.5610 C   0  0  0  0  0  0  0  0  0  0  0  0
  136.5280   69.3310  223.3040 C   0  0  0  0  0  0  0  0  0  0  0  0
  137.9850   69.4150  223.0660 C   0  0  0  0  0  0  0  0  0  0  0  0
  138.4360   68.7890  222.0660 O   0  0  0  0  0  0  0  0  0  0  0  0
  138.8540   70.1670  223.9180 N   0  0  0  0  0  0  0  0  0  0  0  0
  139.3250   69.5580  225.1140 C   0  0  0  0  0  0  0  0  0  0  0  0
  139.2500   68.1810  225.2430 C   0  0  0  0  0  0  0  0  0  0  0  0
  139.7080   67.5940  226.4030 C   0  0  0  0  0  0  0  0  0  0  0  0
  140.2280   68.3880  227.4020 C   0  0  0  0  0  0  0  0  0  0  0  0
  140.3120   69.7700  227.2890 C   0  0  0  0  0  0  0  0  0  0  0  0
  139.8480   70.3640  226.1150 C   0  0  0  0  0  0  0  0  0  0  0  0
  139.2120   71.5170  223.5190 C   0  0  0  0  0  0  0  0  0  0  0  0
  140.7020   71.6750  223.4280 C   0  0  0  0  0  0  0  0  0  0  0  0
  141.0670   72.4070  222.1730 C   0  0  0  0  0  0  0  0  0  0  0  0
  140.2530   73.5680  221.8940 N   0  0  0  0  0  0  0  0  0  0  0  0
  140.8450   74.7720  221.4200 C   0  0  0  0  0  0  0  0  0  0  0  0
  142.0920   74.7870  221.2600 O   0  0  0  0  0  0  0  0  0  0  0  0
  139.9820   75.9640  221.1330 C   0  0  0  0  0  0  0  0  0  0  0  0
  140.9080   77.0780  220.7140 C   0  0  2  0  0  0  0  0  0  0  0  0
  142.0140   76.6790  219.9060 N   0  0  0  0  0  0  0  0  0  0  0  0
  141.1980   78.0600  221.7720 C   0  0  0  0  0  0  0  0  0  0  0  0
  141.3880   77.7020  223.1120 C   0  0  0  0  0  0  0  0  0  0  0  0
  141.6460   78.6330  224.0930 C   0  0  0  0  0  0  0  0  0  0  0  0
  141.7320   79.9780  223.8080 C   0  0  0  0  0  0  0  0  0  0  0  0
  141.5490   80.3520  222.4950 C   0  0  0  0  0  0  0  0  0  0  0  0
  141.6430   81.7080  222.2210 C   0  0  0  0  0  0  0  0  0  0  0  0
  141.4780   82.1750  220.9330 C   0  0  0  0  0  0  0  0  0  0  0  0
  141.2210   81.2520  219.9480 C   0  0  0  0  0  0  0  0  0  0  0  0
  141.1280   79.9080  220.2290 C   0  0  0  0  0  0  0  0  0  0  0  0
  141.2900   79.4180  221.5100 C   0  0  0  0  0  0  0  0  0  0  0  0
  138.8260   73.4450  222.1130 C   0  0  0  0  0  0  0  0  0  0  0  0
  138.5810   71.9380  222.2440 C   0  0  0  0  0  0  0  0  0  0  0  0
  136.4488   69.4633  225.4353 H   0  0  0  0  0  0  0  0  0  0  0  0
  136.5507   71.0418  224.5842 H   0  0  0  0  0  0  0  0  0  0  0  0
  135.0094   70.1193  224.5842 H   0  0  0  0  0  0  0  0  0  0  0  0
  136.2445   68.2711  223.3825 H   0  0  0  0  0  0  0  0  0  0  0  0
  136.0238   69.8247  222.4601 H   0  0  0  0  0  0  0  0  0  0  0  0
  138.8317   67.5658  224.4328 H   0  0  0  0  0  0  0  0  0  0  0  0
  139.6589   66.5025  226.5300 H   0  0  0  0  0  0  0  0  0  0  0  0
  140.5903   67.9094  228.3238 H   0  0  0  0  0  0  0  0  0  0  0  0
  140.7327   70.3791  228.1026 H   0  0  0  0  0  0  0  0  0  0  0  0
  139.8961   71.4552  225.9849 H   0  0  0  0  0  0  0  0  0  0  0  0
  138.8202   72.1769  224.3071 H   0  0  0  0  0  0  0  0  0  0  0  0
  141.0613   72.2437  224.2983 H   0  0  0  0  0  0  0  0  0  0  0  0
  141.1691   70.6792  223.4124 H   0  0  0  0  0  0  0  0  0  0  0  0
  142.1135   72.7347  222.2592 H   0  0  0  0  0  0  0  0  0  0  0  0
  140.9013   71.7040  221.3433 H   0  0  0  0  0  0  0  0  0  0  0  0
  139.2748   75.7338  220.3226 H   0  0  0  0  0  0  0  0  0  0  0  0
  139.3943   76.2495  222.0179 H   0  0  0  0  0  0  0  0  0  0  0  0
  140.3119   77.6630  219.9982 H   0  0  0  0  0  0  0  0  0  0  0  0
  142.8600   76.6590  220.4870 H   0  0  0  0  0  0  0  0  0  0  0  0
  141.7700   75.8330  219.3850 H   0  0  0  0  0  0  0  0  0  0  0  0
  141.3291   76.6396  223.3909 H   0  0  0  0  0  0  0  0  0  0  0  0
  141.7869   78.2944  225.1301 H   0  0  0  0  0  0  0  0  0  0  0  0
  141.9376   80.7200  224.5936 H   0  0  0  0  0  0  0  0  0  0  0  0
  141.8506   82.4166  223.0363 H   0  0  0  0  0  0  0  0  0  0  0  0
  141.5497   83.2483  220.7029 H   0  0  0  0  0  0  0  0  0  0  0  0
  141.0866   81.5951  218.9116 H   0  0  0  0  0  0  0  0  0  0  0  0
  140.9187   79.2041  219.4101 H   0  0  0  0  0  0  0  0  0  0  0  0
  138.5284   73.9679  223.0339 H   0  0  0  0  0  0  0  0  0  0  0  0
  138.2396   73.8926  221.2970 H   0  0  0  0  0  0  0  0  0  0  0  0
  137.5012   71.7293  222.2675 H   0  0  0  0  0  0  0  0  0  0  0  0
  139.0066   71.3905  221.3901 H   0  0  0  0  0  0  0  0  0  0  0  0
  1  2  1  0
  2  3  1  0
  3  4  2  0
  3  5  1  0
  5  6  1  0
  6  7  2  0
  7  8  1  0
  8  9  2  0
  9 10  1  0
 10 11  2  0
  5 12  1  0
 12 13  1  0
 13 14  1  0
 14 15  1  0
 15 16  1  0
 16 17  2  0
 16 18  1  0
 18 19  1  0
 19 20  1  0
 19 21  1  0
 21 22  2  0
 22 23  1  0
 23 24  2  0
 24 25  1  0
 25 26  2  0
 26 27  1  0
 27 28  2  0
 28 29  1  0
 29 30  2  0
 15 31  1  0
 31 32  1  0
 11  6  1  0
 32 12  1  0
 30 21  1  0
 30 25  1  0
  1 33  1  0
  1 34  1  0
  1 35  1  0
  2 36  1  0
  2 37  1  0
  7 38  1  0
  8 39  1  0
  9 40  1  0
 10 41  1  0
 11 42  1  0
 12 43  1  0
 13 44  1  0
 13 45  1  0
 14 46  1  0
 14 47  1  0
 18 48  1  0
 18 49  1  0
 19 50  1  6
 20 51  1  0
 20 52  1  0
 22 53  1  0
 23 54  1  0
 24 55  1  0
 26 56  1  0
 27 57  1  0
 28 58  1  0
 29 59  1  0
 31 60  1  0
 31 61  1  0
 32 62  1  0
 32 63  1  0
M  END
>  <smiles>  (15) 
CCC(=O)N(c1ccccc1)C1CCN(C(=O)CC(N)c2cccc3ccccc23)CC1

>  <score_type>  (15) 
oracle

>  <origin>  (15) 
autodockgpu

>  <m_score__min__energy>  (15) 
-9.4000000000000004

>  <m_primary>  (15) 
energy

>  <rmsd>  (15) 
5.769514441002611

>  <m_score__min__rmsd>  (15) 
5.769514441002611

>  <meeko>  (15) 
{"free_energy": -7.97, "intermolecular_energy": -10.36, "internal_energy": -2.16, "cluster_size": 7, "cluster_id": 2, "rank_in_cluster": 7}

>  <energy>  (15) 
-8.64

>  <cluster_rmsd>  (15) 
0.77

>  <cluster>  (15) 
1

$$$$

     RDKit          3D

 63 66  0  0  0  0  0  0  0  0999 V2000
  136.5370   71.3290  223.8480 C   0  0  0  0  0  0  0  0  0  0  0  0
  137.2530   70.0170  223.7110 C   0  0  0  0  0  0  0  0  0  0  0  0
  138.6570   70.1780  223.2760 C   0  0  0  0  0  0  0  0  0  0  0  0
  139.0460   69.4460  222.3210 O   0  0  0  0  0  0  0  0  0  0  0  0
  139.5450   71.1130  223.8940 N   0  0  0  0  0  0  0  0  0  0  0  0
  139.9530   70.8750  225.2360 C   0  0  0  0  0  0  0  0  0  0  0  0
  140.6440   71.8650  225.9160 C   0  0  0  0  0  0  0  0  0  0  0  0
  141.0370   71.6310  227.2160 C   0  0  0  0  0  0  0  0  0  0  0  0
  140.7340   70.4230  227.8060 C   0  0  0  0  0  0  0  0  0  0  0  0
  140.0420   69.4190  227.1400 C   0  0  0  0  0  0  0  0  0  0  0  0
  139.6450   69.6560  225.8240 C   0  0  0  0  0  0  0  0  0  0  0  0
  139.9840   72.2620  223.1210 C   0  0  0  0  0  0  0  0  0  0  0  0
  141.2260   71.9420  222.3400 C   0  0  0  0  0  0  0  0  0  0  0  0
  141.0990   72.4580  220.9390 C   0  0  0  0  0  0  0  0  0  0  0  0
  140.5700   73.7990  220.8350 N   0  0  0  0  0  0  0  0  0  0  0  0
  141.1320   74.7320  219.9210 C   0  0  0  0  0  0  0  0  0  0  0  0
  142.1010   74.3490  219.2160 O   0  0  0  0  0  0  0  0  0  0  0  0
  140.5660   76.1170  219.8270 C   0  0  0  0  0  0  0  0  0  0  0  0
  141.7050   77.0690  220.0930 C   0  0  2  0  0  0  0  0  0  0  0  0
  143.0060   76.4830  220.0750 N   0  0  0  0  0  0  0  0  0  0  0  0
  141.4470   78.0430  221.1660 C   0  0  0  0  0  0  0  0  0  0  0  0
  141.1760   77.6670  222.4870 C   0  0  0  0  0  0  0  0  0  0  0  0
  140.9230   78.5880  223.4780 C   0  0  0  0  0  0  0  0  0  0  0  0
  140.9240   79.9430  223.2230 C   0  0  0  0  0  0  0  0  0  0  0  0
  141.1900   80.3350  221.9290 C   0  0  0  0  0  0  0  0  0  0  0  0
  141.1930   81.7000  221.6860 C   0  0  0  0  0  0  0  0  0  0  0  0
  141.4530   82.1860  220.4210 C   0  0  0  0  0  0  0  0  0  0  0  0
  141.7070   81.2720  219.4270 C   0  0  0  0  0  0  0  0  0  0  0  0
  141.7010   79.9180  219.6770 C   0  0  0  0  0  0  0  0  0  0  0  0
  141.4440   79.4090  220.9340 C   0  0  0  0  0  0  0  0  0  0  0  0
  139.4530   74.1390  221.6940 C   0  0  0  0  0  0  0  0  0  0  0  0
  138.9380   72.7920  222.2140 C   0  0  0  0  0  0  0  0  0  0  0  0
  136.4074   71.5664  224.9142 H   0  0  0  0  0  0  0  0  0  0  0  0
  137.1278   72.1213  223.3651 H   0  0  0  0  0  0  0  0  0  0  0  0
  135.5510   71.2608  223.3651 H   0  0  0  0  0  0  0  0  0  0  0  0
  137.2424   69.5065  224.6853 H   0  0  0  0  0  0  0  0  0  0  0  0
  136.7306   69.4313  222.9403 H   0  0  0  0  0  0  0  0  0  0  0  0
  140.8752   72.8223  225.4260 H   0  0  0  0  0  0  0  0  0  0  0  0
  141.5871   72.4008  227.7771 H   0  0  0  0  0  0  0  0  0  0  0  0
  141.0522   70.2469  228.8441 H   0  0  0  0  0  0  0  0  0  0  0  0
  139.8137   68.4643  227.6364 H   0  0  0  0  0  0  0  0  0  0  0  0
  139.0956   68.8877  225.2602 H   0  0  0  0  0  0  0  0  0  0  0  0
  140.2048   73.0520  223.8539 H   0  0  0  0  0  0  0  0  0  0  0  0
  142.0929   72.4147  222.8249 H   0  0  0  0  0  0  0  0  0  0  0  0
  141.3628   70.8509  222.3114 H   0  0  0  0  0  0  0  0  0  0  0  0
  142.0976   72.4469  220.4779 H   0  0  0  0  0  0  0  0  0  0  0  0
  140.3798   71.7999  220.4295 H   0  0  0  0  0  0  0  0  0  0  0  0
  140.1534   76.2906  218.8222 H   0  0  0  0  0  0  0  0  0  0  0  0
  139.7514   76.2618  220.5519 H   0  0  0  0  0  0  0  0  0  0  0  0
  141.7363   77.7020  219.1939 H   0  0  0  0  0  0  0  0  0  0  0  0
  143.7050   77.2200  220.2230 H   0  0  0  0  0  0  0  0  0  0  0  0
  143.0250   75.6720  220.6980 H   0  0  0  0  0  0  0  0  0  0  0  0
  141.1648   76.5970  222.7421 H   0  0  0  0  0  0  0  0  0  0  0  0
  140.7149   78.2343  224.4986 H   0  0  0  0  0  0  0  0  0  0  0  0
  140.7217   80.6776  224.0164 H   0  0  0  0  0  0  0  0  0  0  0  0
  140.9865   82.4011  222.5081 H   0  0  0  0  0  0  0  0  0  0  0  0
  141.4568   83.2667  220.2157 H   0  0  0  0  0  0  0  0  0  0  0  0
  141.9199   81.6299  218.4089 H   0  0  0  0  0  0  0  0  0  0  0  0
  141.9070   79.2216  218.8508 H   0  0  0  0  0  0  0  0  0  0  0  0
  139.7844   74.7756  222.5276 H   0  0  0  0  0  0  0  0  0  0  0  0
  138.6747   74.7043  221.1605 H   0  0  0  0  0  0  0  0  0  0  0  0
  137.9949   72.9321  222.7626 H   0  0  0  0  0  0  0  0  0  0  0  0
  138.7402   72.0957  221.3858 H   0  0  0  0  0  0  0  0  0  0  0  0
  1  2  1  0
  2  3  1  0
  3  4  2  0
  3  5  1  0
  5  6  1  0
  6  7  2  0
  7  8  1  0
  8  9  2  0
  9 10  1  0
 10 11  2  0
  5 12  1  0
 12 13  1  0
 13 14  1  0
 14 15  1  0
 15 16  1  0
 16 17  2  0
 16 18  1  0
 18 19  1  0
 19 20  1  0
 19 21  1  0
 21 22  2  0
 22 23  1  0
 23 24  2  0
 24 25  1  0
 25 26  2  0
 26 27  1  0
 27 28  2  0
 28 29  1  0
 29 30  2  0
 15 31  1  0
 31 32  1  0
 11  6  1  0
 32 12  1  0
 30 21  1  0
 30 25  1  0
  1 33  1  0
  1 34  1  0
  1 35  1  0
  2 36  1  0
  2 37  1  0
  7 38  1  0
  8 39  1  0
  9 40  1  0
 10 41  1  0
 11 42  1  0
 12 43  1  0
 13 44  1  0
 13 45  1  0
 14 46  1  0
 14 47  1  0
 18 48  1  0
 18 49  1  0
 19 50  1  6
 20 51  1  0
 20 52  1  0
 22 53  1  0
 23 54  1  0
 24 55  1  0
 26 56  1  0
 27 57  1  0
 28 58  1  0
 29 59  1  0
 31 60  1  0
 31 61  1  0
 32 62  1  0
 32 63  1  0
M  END
>  <smiles>  (16) 
CCC(=O)N(c1ccccc1)C1CCN(C(=O)CC(N)c2cccc3ccccc23)CC1

>  <score_type>  (16) 
oracle

>  <origin>  (16) 
autodockgpu

>  <m_score__min__energy>  (16) 
-9.4000000000000004

>  <m_primary>  (16) 
energy

>  <rmsd>  (16) 
5.1557710385518325

>  <m_score__min__rmsd>  (16) 
5.1557710385518325

>  <meeko>  (16) 
{"free_energy": -8.1, "intermolecular_energy": -10.48, "internal_energy": -1.87, "cluster_size": 4, "cluster_id": 8, "rank_in_cluster": 1}

>  <energy>  (16) 
-8.57

>  <cluster_rmsd>  (16) 
1.64

>  <cluster>  (16) 
1

$$$$

     RDKit          3D

 63 66  0  0  0  0  0  0  0  0999 V2000
  140.8750   75.9410  217.9360 C   0  0  0  0  0  0  0  0  0  0  0  0
  141.3750   77.1840  218.6140 C   0  0  0  0  0  0  0  0  0  0  0  0
  142.1280   76.8910  219.8530 C   0  0  0  0  0  0  0  0  0  0  0  0
  143.3460   76.5820  219.7190 O   0  0  0  0  0  0  0  0  0  0  0  0
  141.5220   76.9510  221.1470 N   0  0  0  0  0  0  0  0  0  0  0  0
  141.4820   78.2040  221.8190 C   0  0  0  0  0  0  0  0  0  0  0  0
  141.4680   79.3700  221.0710 C   0  0  0  0  0  0  0  0  0  0  0  0
  141.4280   80.5820  221.7260 C   0  0  0  0  0  0  0  0  0  0  0  0
  141.4030   80.6040  223.1040 C   0  0  0  0  0  0  0  0  0  0  0  0
  141.4150   79.4450  223.8700 C   0  0  0  0  0  0  0  0  0  0  0  0
  141.4560   78.2180  223.2070 C   0  0  0  0  0  0  0  0  0  0  0  0
  140.9780   75.7280  221.7110 C   0  0  0  0  0  0  0  0  0  0  0  0
  139.4790   75.7180  221.6320 C   0  0  0  0  0  0  0  0  0  0  0  0
  138.9980   74.3850  221.1480 C   0  0  0  0  0  0  0  0  0  0  0  0
  139.6420   73.2490  221.7670 N   0  0  0  0  0  0  0  0  0  0  0  0
  138.8850   72.1110  222.1610 C   0  0  0  0  0  0  0  0  0  0  0  0
  137.6450   72.1330  221.9550 O   0  0  0  0  0  0  0  0  0  0  0  0
  139.5740   70.9430  222.7990 C   0  0  0  0  0  0  0  0  0  0  0  0
  138.6160   70.3800  223.8200 C   0  0  2  0  0  0  0  0  0  0  0  0
  137.5980   71.2780  224.2600 N   0  0  0  0  0  0  0  0  0  0  0  0
  139.2510   69.5580  224.8630 C   0  0  0  0  0  0  0  0  0  0  0  0
  139.2240   68.1590  224.8510 C   0  0  0  0  0  0  0  0  0  0  0  0
  139.8110   67.4020  225.8400 C   0  0  0  0  0  0  0  0  0  0  0  0
  140.4620   67.9850  226.9050 C   0  0  0  0  0  0  0  0  0  0  0  0
  140.5020   69.3620  226.9360 C   0  0  0  0  0  0  0  0  0  0  0  0
  141.1650   69.9370  228.0100 C   0  0  0  0  0  0  0  0  0  0  0  0
  141.2580   71.3090  228.1230 C   0  0  0  0  0  0  0  0  0  0  0  0
  140.6760   72.0700  227.1380 C   0  0  0  0  0  0  0  0  0  0  0  0
  140.0180   71.4910  226.0760 C   0  0  0  0  0  0  0  0  0  0  0  0
  139.9130   70.1210  225.9430 C   0  0  0  0  0  0  0  0  0  0  0  0
  141.0760   73.3260  221.9610 C   0  0  0  0  0  0  0  0  0  0  0  0
  141.5250   74.5000  221.0840 C   0  0  0  0  0  0  0  0  0  0  0  0
  140.5782   75.2030  218.6958 H   0  0  0  0  0  0  0  0  0  0  0  0
  140.0070   76.1899  217.3078 H   0  0  0  0  0  0  0  0  0  0  0  0
  141.6735   75.5195  217.3078 H   0  0  0  0  0  0  0  0  0  0  0  0
  142.0356   77.7231  217.9191 H   0  0  0  0  0  0  0  0  0  0  0  0
  140.4987   77.7884  218.8911 H   0  0  0  0  0  0  0  0  0  0  0  0
  141.4885   79.3292  219.9719 H   0  0  0  0  0  0  0  0  0  0  0  0
  141.4161   81.5221  221.1550 H   0  0  0  0  0  0  0  0  0  0  0  0
  141.3724   81.5766  223.6169 H   0  0  0  0  0  0  0  0  0  0  0  0
  141.3928   79.4933  224.9687 H   0  0  0  0  0  0  0  0  0  0  0  0
  141.4675   77.2763  223.7753 H   0  0  0  0  0  0  0  0  0  0  0  0
  141.2898   75.7189  222.7658 H   0  0  0  0  0  0  0  0  0  0  0  0
  139.0608   75.9152  222.6301 H   0  0  0  0  0  0  0  0  0  0  0  0
  139.1504   76.4966  220.9279 H   0  0  0  0  0  0  0  0  0  0  0  0
  137.9183   74.3174  221.3474 H   0  0  0  0  0  0  0  0  0  0  0  0
  139.2445   74.3361  220.0771 H   0  0  0  0  0  0  0  0  0  0  0  0
  139.8106   70.1819  222.0409 H   0  0  0  0  0  0  0  0  0  0  0  0
  140.5194   71.2500  223.2702 H   0  0  0  0  0  0  0  0  0  0  0  0
  138.0291   69.6416  223.2540 H   0  0  0  0  0  0  0  0  0  0  0  0
  137.9530   72.2390  224.1960 H   0  0  0  0  0  0  0  0  0  0  0  0
  136.7200   71.0580  223.7840 H   0  0  0  0  0  0  0  0  0  0  0  0
  138.7155   67.6456  224.0216 H   0  0  0  0  0  0  0  0  0  0  0  0
  139.7589   66.3050  225.7783 H   0  0  0  0  0  0  0  0  0  0  0  0
  140.9289   67.3785  227.6951 H   0  0  0  0  0  0  0  0  0  0  0  0
  141.6203   69.2942  228.7778 H   0  0  0  0  0  0  0  0  0  0  0  0
  141.7793   71.7768  228.9712 H   0  0  0  0  0  0  0  0  0  0  0  0
  140.7371   73.1666  227.1992 H   0  0  0  0  0  0  0  0  0  0  0  0
  139.5631   72.1385  225.3119 H   0  0  0  0  0  0  0  0  0  0  0  0
  141.3147   73.5176  223.0175 H   0  0  0  0  0  0  0  0  0  0  0  0
  141.5833   72.3878  221.6919 H   0  0  0  0  0  0  0  0  0  0  0  0
  142.6233   74.5488  221.0477 H   0  0  0  0  0  0  0  0  0  0  0  0
  141.1635   74.3859  220.0514 H   0  0  0  0  0  0  0  0  0  0  0  0
  1  2  1  0
  2  3  1  0
  3  4  2  0
  3  5  1  0
  5  6  1  0
  6  7  2  0
  7  8  1  0
  8  9  2  0
  9 10  1  0
 10 11  2  0
  5 12  1  0
 12 13  1  0
 13 14  1  0
 14 15  1  0
 15 16  1  0
 16 17  2  0
 16 18  1  0
 18 19  1  0
 19 20  1  0
 19 21  1  0
 21 22  2  0
 22 23  1  0
 23 24  2  0
 24 25  1  0
 25 26  2  0
 26 27  1  0
 27 28  2  0
 28 29  1  0
 29 30  2  0
 15 31  1  0
 31 32  1  0
 11  6  1  0
 32 12  1  0
 30 21  1  0
 30 25  1  0
  1 33  1  0
  1 34  1  0
  1 35  1  0
  2 36  1  0
  2 37  1  0
  7 38  1  0
  8 39  1  0
  9 40  1  0
 10 41  1  0
 11 42  1  0
 12 43  1  0
 13 44  1  0
 13 45  1  0
 14 46  1  0
 14 47  1  0
 18 48  1  0
 18 49  1  0
 19 50  1  6
 20 51  1  0
 20 52  1  0
 22 53  1  0
 23 54  1  0
 24 55  1  0
 26 56  1  0
 27 57  1  0
 28 58  1  0
 29 59  1  0
 31 60  1  0
 31 61  1  0
 32 62  1  0
 32 63  1  0
M  END
>  <smiles>  (17) 
CCC(=O)N(c1ccccc1)C1CCN(C(=O)CC(N)c2cccc3ccccc23)CC1

>  <score_type>  (17) 
oracle

>  <origin>  (17) 
autodockgpu

>  <m_score__min__energy>  (17) 
-9.4000000000000004

>  <m_primary>  (17) 
energy

>  <rmsd>  (17) 
9.35667309738871

>  <m_score__min__rmsd>  (17) 
9.35667309738871

>  <meeko>  (17) 
{"free_energy": -8.94, "intermolecular_energy": -11.32, "internal_energy": -2.21, "cluster_size": 22, "cluster_id": 1, "rank_in_cluster": 9}

>  <energy>  (17) 
-8.54

>  <cluster_rmsd>  (17) 
0.96

>  <cluster>  (17) 
1

$$$$

     RDKit          3D

 63 66  0  0  0  0  0  0  0  0999 V2000
  139.0580   84.0570  221.4050 C   0  0  0  0  0  0  0  0  0  0  0  0
  137.6570   83.5360  221.5430 C   0  0  0  0  0  0  0  0  0  0  0  0
  137.2810   83.2800  222.9510 C   0  0  0  0  0  0  0  0  0  0  0  0
  136.8460   84.2640  223.6130 O   0  0  0  0  0  0  0  0  0  0  0  0
  137.3990   81.9860  223.5480 N   0  0  0  0  0  0  0  0  0  0  0  0
  136.7160   81.7380  224.7710 C   0  0  0  0  0  0  0  0  0  0  0  0
  135.4970   81.0810  224.7390 C   0  0  0  0  0  0  0  0  0  0  0  0
  134.8380   80.8410  225.9260 C   0  0  0  0  0  0  0  0  0  0  0  0
  135.4050   81.2600  227.1100 C   0  0  0  0  0  0  0  0  0  0  0  0
  136.6270   81.9200  227.1600 C   0  0  0  0  0  0  0  0  0  0  0  0
  137.2940   82.1620  225.9590 C   0  0  0  0  0  0  0  0  0  0  0  0
  138.2140   80.9880  222.8760 C   0  0  0  0  0  0  0  0  0  0  0  0
  138.7400   79.9760  223.8520 C   0  0  0  0  0  0  0  0  0  0  0  0
  138.5790   78.5940  223.2970 C   0  0  0  0  0  0  0  0  0  0  0  0
  138.9650   78.4500  221.9120 N   0  0  0  0  0  0  0  0  0  0  0  0
  139.7030   77.3150  221.4790 C   0  0  0  0  0  0  0  0  0  0  0  0
  140.0070   76.4510  222.3400 O   0  0  0  0  0  0  0  0  0  0  0  0
  140.0900   77.1840  220.0360 C   0  0  0  0  0  0  0  0  0  0  0  0
  141.4700   77.7800  219.9030 C   0  0  2  0  0  0  0  0  0  0  0  0
  142.5260   77.0020  220.4640 N   0  0  0  0  0  0  0  0  0  0  0  0
  141.5330   79.2300  220.1450 C   0  0  0  0  0  0  0  0  0  0  0  0
  141.3570   80.1810  219.1320 C   0  0  0  0  0  0  0  0  0  0  0  0
  141.4320   81.5340  219.3700 C   0  0  0  0  0  0  0  0  0  0  0  0
  141.6870   82.0330  220.6290 C   0  0  0  0  0  0  0  0  0  0  0  0
  141.8620   81.1160  221.6420 C   0  0  0  0  0  0  0  0  0  0  0  0
  142.1140   81.6310  222.9050 C   0  0  0  0  0  0  0  0  0  0  0  0
  142.2990   80.7870  223.9800 C   0  0  0  0  0  0  0  0  0  0  0  0
  142.2250   79.4340  223.7500 C   0  0  0  0  0  0  0  0  0  0  0  0
  141.9770   78.9320  222.4930 C   0  0  0  0  0  0  0  0  0  0  0  0
  141.7870   79.7560  221.4020 C   0  0  0  0  0  0  0  0  0  0  0  0
  138.5650   79.5040  221.0010 C   0  0  0  0  0  0  0  0  0  0  0  0
  137.5060   80.3020  221.7690 C   0  0  0  0  0  0  0  0  0  0  0  0
  139.4896   84.2175  222.4040 H   0  0  0  0  0  0  0  0  0  0  0  0
  139.6686   83.3258  220.8549 H   0  0  0  0  0  0  0  0  0  0  0  0
  139.0425   85.0095  220.8549 H   0  0  0  0  0  0  0  0  0  0  0  0
  136.9623   84.2778  221.1222 H   0  0  0  0  0  0  0  0  0  0  0  0
  137.6032   82.5783  221.0045 H   0  0  0  0  0  0  0  0  0  0  0  0
  135.0619   80.7561  223.7824 H   0  0  0  0  0  0  0  0  0  0  0  0
  133.8691   80.3202  225.9279 H   0  0  0  0  0  0  0  0  0  0  0  0
  134.8701   81.0647  228.0512 H   0  0  0  0  0  0  0  0  0  0  0  0
  137.0563   82.2426  228.1200 H   0  0  0  0  0  0  0  0  0  0  0  0
  138.2637   82.6812  225.9538 H   0  0  0  0  0  0  0  0  0  0  0  0
  139.0550   81.5383  222.4289 H   0  0  0  0  0  0  0  0  0  0  0  0
  139.8063   80.1710  224.0392 H   0  0  0  0  0  0  0  0  0  0  0  0
  138.1746   80.0547  224.7923 H   0  0  0  0  0  0  0  0  0  0  0  0
  139.1963   77.9097  223.8975 H   0  0  0  0  0  0  0  0  0  0  0  0
  137.5045   78.3634  223.3453 H   0  0  0  0  0  0  0  0  0  0  0  0
  140.1045   76.1242  219.7418 H   0  0  0  0  0  0  0  0  0  0  0  0
  139.3705   77.7011  219.3842 H   0  0  0  0  0  0  0  0  0  0  0  0
  141.6888   77.7048  218.8276 H   0  0  0  0  0  0  0  0  0  0  0  0
  143.3780   77.5740  220.4970 H   0  0  0  0  0  0  0  0  0  0  0  0
  142.2070   76.5670  221.3330 H   0  0  0  0  0  0  0  0  0  0  0  0
  141.1513   79.8335  218.1088 H   0  0  0  0  0  0  0  0  0  0  0  0
  141.2848   82.2346  218.5349 H   0  0  0  0  0  0  0  0  0  0  0  0
  141.7481   83.1151  220.8167 H   0  0  0  0  0  0  0  0  0  0  0  0
  142.1667   82.7201  223.0502 H   0  0  0  0  0  0  0  0  0  0  0  0
  142.4988   81.1830  224.9866 H   0  0  0  0  0  0  0  0  0  0  0  0
  142.3672   78.7371  224.5891 H   0  0  0  0  0  0  0  0  0  0  0  0
  141.9287   77.8419  222.3535 H   0  0  0  0  0  0  0  0  0  0  0  0
  139.4234   80.1432  220.7467 H   0  0  0  0  0  0  0  0  0  0  0  0
  138.1787   79.1076  220.0504 H   0  0  0  0  0  0  0  0  0  0  0  0
  137.0323   81.0407  221.1058 H   0  0  0  0  0  0  0  0  0  0  0  0
  136.7133   79.6430  222.1528 H   0  0  0  0  0  0  0  0  0  0  0  0
  1  2  1  0
  2  3  1  0
  3  4  2  0
  3  5  1  0
  5  6  1  0
  6  7  2  0
  7  8  1  0
  8  9  2  0
  9 10  1  0
 10 11  2  0
  5 12  1  0
 12 13  1  0
 13 14  1  0
 14 15  1  0
 15 16  1  0
 16 17  2  0
 16 18  1  0
 18 19  1  0
 19 20  1  0
 19 21  1  0
 21 22  2  0
 22 23  1  0
 23 24  2  0
 24 25  1  0
 25 26  2  0
 26 27  1  0
 27 28  2  0
 28 29  1  0
 29 30  2  0
 15 31  1  0
 31 32  1  0
 11  6  1  0
 32 12  1  0
 30 21  1  0
 30 25  1  0
  1 33  1  0
  1 34  1  0
  1 35  1  0
  2 36  1  0
  2 37  1  0
  7 38  1  0
  8 39  1  0
  9 40  1  0
 10 41  1  0
 11 42  1  0
 12 43  1  0
 13 44  1  0
 13 45  1  0
 14 46  1  0
 14 47  1  0
 18 48  1  0
 18 49  1  0
 19 50  1  6
 20 51  1  0
 20 52  1  0
 22 53  1  0
 23 54  1  0
 24 55  1  0
 26 56  1  0
 27 57  1  0
 28 58  1  0
 29 59  1  0
 31 60  1  0
 31 61  1  0
 32 62  1  0
 32 63  1  0
M  END
>  <smiles>  (18) 
CCC(=O)N(c1ccccc1)C1CCN(C(=O)CC(N)c2cccc3ccccc23)CC1

>  <score_type>  (18) 
oracle

>  <origin>  (18) 
autodockgpu

>  <m_score__min__energy>  (18) 
-9.4000000000000004

>  <m_primary>  (18) 
energy

>  <rmsd>  (18) 
5.160559020100722

>  <m_score__min__rmsd>  (18) 
5.160559020100722

>  <meeko>  (18) 
{"free_energy": -6.9, "intermolecular_energy": -9.29, "internal_energy": -3.21, "cluster_size": 2, "cluster_id": 10, "rank_in_cluster": 2}

>  <energy>  (18) 
-8.52

>  <cluster_rmsd>  (18) 
0.8

>  <cluster>  (18) 
1

$$$$

     RDKit          3D

 63 66  0  0  0  0  0  0  0  0999 V2000
  136.9510   68.1680  222.2070 C   0  0  0  0  0  0  0  0  0  0  0  0
  138.1130   68.1910  223.1570 C   0  0  0  0  0  0  0  0  0  0  0  0
  137.9180   69.1450  224.2700 C   0  0  0  0  0  0  0  0  0  0  0  0
  136.7530   69.2250  224.7540 O   0  0  0  0  0  0  0  0  0  0  0  0
  138.9860   69.9440  224.7860 N   0  0  0  0  0  0  0  0  0  0  0  0
  139.6570   69.5030  225.9610 C   0  0  0  0  0  0  0  0  0  0  0  0
  139.9540   70.4240  226.9520 C   0  0  0  0  0  0  0  0  0  0  0  0
  140.6020   69.9930  228.0890 C   0  0  0  0  0  0  0  0  0  0  0  0
  140.9390   68.6620  228.2120 C   0  0  0  0  0  0  0  0  0  0  0  0
  140.6480   67.7250  227.2280 C   0  0  0  0  0  0  0  0  0  0  0  0
  139.9910   68.1610  226.0770 C   0  0  0  0  0  0  0  0  0  0  0  0
  139.3320   71.1680  224.0840 C   0  0  0  0  0  0  0  0  0  0  0  0
  140.8120   71.2570  223.8530 C   0  0  0  0  0  0  0  0  0  0  0  0
  141.0880   71.6970  222.4480 C   0  0  0  0  0  0  0  0  0  0  0  0
  140.2730   72.7990  221.9900 N   0  0  0  0  0  0  0  0  0  0  0  0
  140.8440   73.8560  221.2300 C   0  0  0  0  0  0  0  0  0  0  0  0
  142.0740   73.7980  220.9780 O   0  0  0  0  0  0  0  0  0  0  0  0
  139.9790   74.9880  220.7610 C   0  0  0  0  0  0  0  0  0  0  0  0
  140.1360   76.0990  221.7700 C   0  0  2  0  0  0  0  0  0  0  0  0
  139.0540   76.2430  222.6900 N   0  0  0  0  0  0  0  0  0  0  0  0
  140.6910   77.3460  221.2210 C   0  0  0  0  0  0  0  0  0  0  0  0
  140.6980   77.6400  219.8530 C   0  0  0  0  0  0  0  0  0  0  0  0
  141.2330   78.8050  219.3520 C   0  0  0  0  0  0  0  0  0  0  0  0
  141.7970   79.7550  220.1770 C   0  0  0  0  0  0  0  0  0  0  0  0
  141.8000   79.4860  221.5280 C   0  0  0  0  0  0  0  0  0  0  0  0
  142.3650   80.4510  222.3480 C   0  0  0  0  0  0  0  0  0  0  0  0
  142.4090   80.2700  223.7150 C   0  0  0  0  0  0  0  0  0  0  0  0
  141.8760   79.1100  224.2220 C   0  0  0  0  0  0  0  0  0  0  0  0
  141.3180   78.1560  223.4010 C   0  0  0  0  0  0  0  0  0  0  0  0
  141.2620   78.3160  222.0300 C   0  0  0  0  0  0  0  0  0  0  0  0
  138.8660   72.7690  222.3350 C   0  0  0  0  0  0  0  0  0  0  0  0
  138.6090   71.3320  222.8000 C   0  0  0  0  0  0  0  0  0  0  0  0
  136.0110   68.1494  222.7779 H   0  0  0  0  0  0  0  0  0  0  0  0
  136.9775   69.0668  221.5735 H   0  0  0  0  0  0  0  0  0  0  0  0
  137.0130   67.2709  221.5735 H   0  0  0  0  0  0  0  0  0  0  0  0
  138.2455   67.1827  223.5762 H   0  0  0  0  0  0  0  0  0  0  0  0
  138.9994   68.5147  222.5918 H   0  0  0  0  0  0  0  0  0  0  0  0
  139.6771   71.4819  226.8333 H   0  0  0  0  0  0  0  0  0  0  0  0
  140.8481   70.7044  228.8911 H   0  0  0  0  0  0  0  0  0  0  0  0
  141.4577   68.3292  229.1232 H   0  0  0  0  0  0  0  0  0  0  0  0
  140.9279   66.6686  227.3531 H   0  0  0  0  0  0  0  0  0  0  0  0
  139.7416   67.4520  225.2738 H   0  0  0  0  0  0  0  0  0  0  0  0
  139.0133   71.9909  224.7407 H   0  0  0  0  0  0  0  0  0  0  0  0
  141.2466   71.9847  224.5542 H   0  0  0  0  0  0  0  0  0  0  0  0
  141.2620   70.2664  224.0151 H   0  0  0  0  0  0  0  0  0  0  0  0
  142.1431   72.0017  222.3852 H   0  0  0  0  0  0  0  0  0  0  0  0
  140.8459   70.8411  221.8008 H   0  0  0  0  0  0  0  0  0  0  0  0
  140.3060   75.3288  219.7676 H   0  0  0  0  0  0  0  0  0  0  0  0
  138.9279   74.6748  220.6769 H   0  0  0  0  0  0  0  0  0  0  0  0
  140.9418   75.7462  222.4305 H   0  0  0  0  0  0  0  0  0  0  0  0
  138.2770   76.7180  222.2170 H   0  0  0  0  0  0  0  0  0  0  0  0
  138.8650   75.3440  223.1390 H   0  0  0  0  0  0  0  0  0  0  0  0
  140.2600   76.9137  219.1525 H   0  0  0  0  0  0  0  0  0  0  0  0
  141.2101   78.9826  218.2667 H   0  0  0  0  0  0  0  0  0  0  0  0
  142.2249   80.6851  219.7748 H   0  0  0  0  0  0  0  0  0  0  0  0
  142.7813   81.3678  221.9052 H   0  0  0  0  0  0  0  0  0  0  0  0
  142.8552   81.0279  224.3756 H   0  0  0  0  0  0  0  0  0  0  0  0
  141.8954   78.9394  225.3085 H   0  0  0  0  0  0  0  0  0  0  0  0
  140.9050   77.2404  223.8495 H   0  0  0  0  0  0  0  0  0  0  0  0
  138.6498   73.4827  223.1436 H   0  0  0  0  0  0  0  0  0  0  0  0
  138.2241   73.0530  221.4880 H   0  0  0  0  0  0  0  0  0  0  0  0
  137.5314   71.1675  222.9472 H   0  0  0  0  0  0  0  0  0  0  0  0
  138.9572   70.6042  222.0523 H   0  0  0  0  0  0  0  0  0  0  0  0
  1  2  1  0
  2  3  1  0
  3  4  2  0
  3  5  1  0
  5  6  1  0
  6  7  2  0
  7  8  1  0
  8  9  2  0
  9 10  1  0
 10 11  2  0
  5 12  1  0
 12 13  1  0
 13 14  1  0
 14 15  1  0
 15 16  1  0
 16 17  2  0
 16 18  1  0
 18 19  1  0
 19 20  1  0
 19 21  1  0
 21 22  2  0
 22 23  1  0
 23 24  2  0
 24 25  1  0
 25 26  2  0
 26 27  1  0
 27 28  2  0
 28 29  1  0
 29 30  2  0
 15 31  1  0
 31 32  1  0
 11  6  1  0
 32 12  1  0
 30 21  1  0
 30 25  1  0
  1 33  1  0
  1 34  1  0
  1 35  1  0
  2 36  1  0
  2 37  1  0
  7 38  1  0
  8 39  1  0
  9 40  1  0
 10 41  1  0
 11 42  1  0
 12 43  1  0
 13 44  1  0
 13 45  1  0
 14 46  1  0
 14 47  1  0
 18 48  1  0
 18 49  1  0
 19 50  1  1
 20 51  1  0
 20 52  1  0
 22 53  1  0
 23 54  1  0
 24 55  1  0
 26 56  1  0
 27 57  1  0
 28 58  1  0
 29 59  1  0
 31 60  1  0
 31 61  1  0
 32 62  1  0
 32 63  1  0
M  END
>  <smiles>  (19) 
CCC(=O)N(c1ccccc1)C1CCN(C(=O)CC(N)c2cccc3ccccc23)CC1

>  <score_type>  (19) 
oracle

>  <origin>  (19) 
autodockgpu

>  <m_score__min__energy>  (19) 
-9.4000000000000004

>  <m_primary>  (19) 
energy

>  <rmsd>  (19) 
6.2941298541652255

>  <m_score__min__rmsd>  (19) 
6.2941298541652255

>  <meeko>  (19) 
{"free_energy": -8.65, "intermolecular_energy": -11.04, "internal_energy": -1.41, "cluster_size": 7, "cluster_id": 2, "rank_in_cluster": 2}

>  <energy>  (19) 
-8.3

>  <cluster_rmsd>  (19) 
1.93

>  <cluster>  (19) 
1

$$$$

     RDKit          3D

 63 66  0  0  0  0  0  0  0  0999 V2000
  142.9380   77.4720  217.8100 C   0  0  0  0  0  0  0  0  0  0  0  0
  142.7640   76.7840  219.1330 C   0  0  0  0  0  0  0  0  0  0  0  0
  141.4280   77.0130  219.7230 C   0  0  0  0  0  0  0  0  0  0  0  0
  140.4830   77.2490  218.9170 O   0  0  0  0  0  0  0  0  0  0  0  0
  141.1990   76.9720  221.1340 N   0  0  0  0  0  0  0  0  0  0  0  0
  141.4450   78.1490  221.8950 C   0  0  0  0  0  0  0  0  0  0  0  0
  142.1450   79.1930  221.3130 C   0  0  0  0  0  0  0  0  0  0  0  0
  142.3800   80.3320  222.0530 C   0  0  0  0  0  0  0  0  0  0  0  0
  141.9150   80.4040  223.3490 C   0  0  0  0  0  0  0  0  0  0  0  0
  141.2100   79.3670  223.9470 C   0  0  0  0  0  0  0  0  0  0  0  0
  140.9720   78.2140  223.1980 C   0  0  0  0  0  0  0  0  0  0  0  0
  140.7290   75.7290  221.7200 C   0  0  0  0  0  0  0  0  0  0  0  0
  139.2310   75.6460  221.6750 C   0  0  0  0  0  0  0  0  0  0  0  0
  138.8050   74.2860  221.2140 C   0  0  0  0  0  0  0  0  0  0  0  0
  139.5170   73.1890  221.8280 N   0  0  0  0  0  0  0  0  0  0  0  0
  138.8270   72.0190  222.2480 C   0  0  0  0  0  0  0  0  0  0  0  0
  137.5830   71.9790  222.0690 O   0  0  0  0  0  0  0  0  0  0  0  0
  139.5860   70.8920  222.8810 C   0  0  0  0  0  0  0  0  0  0  0  0
  138.6450   70.2290  223.8560 C   0  0  2  0  0  0  0  0  0  0  0  0
  137.5170   71.0130  224.2420 N   0  0  0  0  0  0  0  0  0  0  0  0
  139.3110   69.4780  224.9310 C   0  0  0  0  0  0  0  0  0  0  0  0
  139.3090   68.0790  224.9980 C   0  0  0  0  0  0  0  0  0  0  0  0
  139.9250   67.3890  226.0170 C   0  0  0  0  0  0  0  0  0  0  0  0
  140.5850   68.0420  227.0360 C   0  0  0  0  0  0  0  0  0  0  0  0
  140.6010   69.4180  226.9890 C   0  0  0  0  0  0  0  0  0  0  0  0
  141.2720   70.0630  228.0180 C   0  0  0  0  0  0  0  0  0  0  0  0
  141.3430   71.4410  228.0520 C   0  0  0  0  0  0  0  0  0  0  0  0
  140.7300   72.1370  227.0370 C   0  0  0  0  0  0  0  0  0  0  0  0
  140.0650   71.4880  226.0210 C   0  0  0  0  0  0  0  0  0  0  0  0
  139.9810   70.1110  225.9660 C   0  0  0  0  0  0  0  0  0  0  0  0
  140.9500   73.3380  221.9890 C   0  0  0  0  0  0  0  0  0  0  0  0
  141.3210   74.5240  221.0930 C   0  0  0  0  0  0  0  0  0  0  0  0
  143.2046   78.5260  217.9771 H   0  0  0  0  0  0  0  0  0  0  0  0
  143.7392   76.9768  217.2418 H   0  0  0  0  0  0  0  0  0  0  0  0
  141.9977   77.4172  217.2418 H   0  0  0  0  0  0  0  0  0  0  0  0
  142.9044   75.7026  218.9886 H   0  0  0  0  0  0  0  0  0  0  0  0
  143.5095   77.2017  219.8257 H   0  0  0  0  0  0  0  0  0  0  0  0
  142.5074   79.1145  220.2774 H   0  0  0  0  0  0  0  0  0  0  0  0
  142.9332   81.1753  221.6138 H   0  0  0  0  0  0  0  0  0  0  0  0
  142.1095   81.3167  223.9313 H   0  0  0  0  0  0  0  0  0  0  0  0
  140.8493   79.4525  224.9827 H   0  0  0  0  0  0  0  0  0  0  0  0
  140.4179   77.3695  223.6337 H   0  0  0  0  0  0  0  0  0  0  0  0
  141.0651   75.7445  222.7673 H   0  0  0  0  0  0  0  0  0  0  0  0
  138.8258   75.8329  222.6804 H   0  0  0  0  0  0  0  0  0  0  0  0
  138.8493   76.4008  220.9717 H   0  0  0  0  0  0  0  0  0  0  0  0
  137.7346   74.1680  221.4385 H   0  0  0  0  0  0  0  0  0  0  0  0
  139.0298   74.2385  220.1383 H   0  0  0  0  0  0  0  0  0  0  0  0
  139.9056   70.1719  222.1133 H   0  0  0  0  0  0  0  0  0  0  0  0
  140.4888   71.2600  223.3905 H   0  0  0  0  0  0  0  0  0  0  0  0
  138.1688   69.4328  223.2649 H   0  0  0  0  0  0  0  0  0  0  0  0
  137.7940   72.0010  224.2740 H   0  0  0  0  0  0  0  0  0  0  0  0
  136.7100   70.7590  223.6670 H   0  0  0  0  0  0  0  0  0  0  0  0
  138.7965   67.5112  224.2075 H   0  0  0  0  0  0  0  0  0  0  0  0
  139.8899   66.2896  226.0184 H   0  0  0  0  0  0  0  0  0  0  0  0
  141.0766   67.4888  227.8498 H   0  0  0  0  0  0  0  0  0  0  0  0
  141.7509   69.4718  228.8125 H   0  0  0  0  0  0  0  0  0  0  0  0
  141.8715   71.9640  228.8627 H   0  0  0  0  0  0  0  0  0  0  0  0
  140.7718   73.2362  227.0367 H   0  0  0  0  0  0  0  0  0  0  0  0
  139.5866   72.0841  225.2299 H   0  0  0  0  0  0  0  0  0  0  0  0
  141.2024   73.5507  223.0383 H   0  0  0  0  0  0  0  0  0  0  0  0
  141.4967   72.4233  221.7161 H   0  0  0  0  0  0  0  0  0  0  0  0
  142.4145   74.6262  221.0319 H   0  0  0  0  0  0  0  0  0  0  0  0
  140.9425   74.3823  220.0700 H   0  0  0  0  0  0  0  0  0  0  0  0
  1  2  1  0
  2  3  1  0
  3  4  2  0
  3  5  1  0
  5  6  1  0
  6  7  2  0
  7  8  1  0
  8  9  2  0
  9 10  1  0
 10 11  2  0
  5 12  1  0
 12 13  1  0
 13 14  1  0
 14 15  1  0
 15 16  1  0
 16 17  2  0
 16 18  1  0
 18 19  1  0
 19 20  1  0
 19 21  1  0
 21 22  2  0
 22 23  1  0
 23 24  2  0
 24 25  1  0
 25 26  2  0
 26 27  1  0
 27 28  2  0
 28 29  1  0
 29 30  2  0
 15 31  1  0
 31 32  1  0
 11  6  1  0
 32 12  1  0
 30 21  1  0
 30 25  1  0
  1 33  1  0
  1 34  1  0
  1 35  1  0
  2 36  1  0
  2 37  1  0
  7 38  1  0
  8 39  1  0
  9 40  1  0
 10 41  1  0
 11 42  1  0
 12 43  1  0
 13 44  1  0
 13 45  1  0
 14 46  1  0
 14 47  1  0
 18 48  1  0
 18 49  1  0
 19 50  1  6
 20 51  1  0
 20 52  1  0
 22 53  1  0
 23 54  1  0
 24 55  1  0
 26 56  1  0
 27 57  1  0
 28 58  1  0
 29 59  1  0
 31 60  1  0
 31 61  1  0
 32 62  1  0
 32 63  1  0
M  END
>  <smiles>  (20) 
CCC(=O)N(c1ccccc1)C1CCN(C(=O)CC(N)c2cccc3ccccc23)CC1

>  <score_type>  (20) 
oracle

>  <origin>  (20) 
autodockgpu

>  <m_score__min__energy>  (20) 
-9.4000000000000004

>  <m_primary>  (20) 
energy

>  <rmsd>  (20) 
9.421763049034356

>  <m_score__min__rmsd>  (20) 
9.421763049034356

>  <meeko>  (20) 
{"free_energy": -9.16, "intermolecular_energy": -11.55, "internal_energy": -2.22, "cluster_size": 22, "cluster_id": 1, "rank_in_cluster": 6}

>  <energy>  (20) 
-8.23

>  <cluster_rmsd>  (20) 
1.16

>  <cluster>  (20) 
1

$$$$

     RDKit          3D

 63 66  0  0  0  0  0  0  0  0999 V2000
  140.0860   79.7780  223.7030 C   0  0  0  0  0  0  0  0  0  0  0  0
  139.8440   78.6830  222.7040 C   0  0  0  0  0  0  0  0  0  0  0  0
  141.1000   78.1300  222.1520 C   0  0  0  0  0  0  0  0  0  0  0  0
  142.1690   78.7320  222.4550 O   0  0  0  0  0  0  0  0  0  0  0  0
  141.1190   76.9710  221.3140 N   0  0  0  0  0  0  0  0  0  0  0  0
  141.5990   77.1050  219.9820 C   0  0  0  0  0  0  0  0  0  0  0  0
  140.7880   77.7050  219.0320 C   0  0  0  0  0  0  0  0  0  0  0  0
  141.2570   77.8340  217.7420 C   0  0  0  0  0  0  0  0  0  0  0  0
  142.5150   77.3650  217.4300 C   0  0  0  0  0  0  0  0  0  0  0  0
  143.3410   76.7610  218.3700 C   0  0  0  0  0  0  0  0  0  0  0  0
  142.8660   76.6300  219.6750 C   0  0  0  0  0  0  0  0  0  0  0  0
  140.6460   75.7140  221.8670 C   0  0  0  0  0  0  0  0  0  0  0  0
  139.1470   75.6350  221.8200 C   0  0  0  0  0  0  0  0  0  0  0  0
  138.7180   74.2900  221.3220 C   0  0  0  0  0  0  0  0  0  0  0  0
  139.4270   73.1750  221.9060 N   0  0  0  0  0  0  0  0  0  0  0  0
  138.7330   71.9960  222.2940 C   0  0  0  0  0  0  0  0  0  0  0  0
  137.4890   71.9630  222.1150 O   0  0  0  0  0  0  0  0  0  0  0  0
  139.4900   70.8500  222.8950 C   0  0  0  0  0  0  0  0  0  0  0  0
  138.5650   70.1940  223.8900 C   0  0  2  0  0  0  0  0  0  0  0  0
  137.4350   70.9750  224.2770 N   0  0  0  0  0  0  0  0  0  0  0  0
  139.2480   69.4640  224.9690 C   0  0  0  0  0  0  0  0  0  0  0  0
  139.2380   68.0680  225.0700 C   0  0  0  0  0  0  0  0  0  0  0  0
  139.8710   67.3980  226.0920 C   0  0  0  0  0  0  0  0  0  0  0  0
  140.5560   68.0700  227.0810 C   0  0  0  0  0  0  0  0  0  0  0  0
  140.5800   69.4450  227.0010 C   0  0  0  0  0  0  0  0  0  0  0  0
  141.2770   70.1100  227.9990 C   0  0  0  0  0  0  0  0  0  0  0  0
  141.3570   71.4870  227.9990 C   0  0  0  0  0  0  0  0  0  0  0  0
  140.7280   72.1630  226.9800 C   0  0  0  0  0  0  0  0  0  0  0  0
  140.0380   71.4950  225.9940 C   0  0  0  0  0  0  0  0  0  0  0  0
  139.9440   70.1170  225.9740 C   0  0  0  0  0  0  0  0  0  0  0  0
  140.8610   73.3150  222.0700 C   0  0  0  0  0  0  0  0  0  0  0  0
  141.2350   74.5240  221.2060 C   0  0  0  0  0  0  0  0  0  0  0  0
  139.9962   79.3717  224.7213 H   0  0  0  0  0  0  0  0  0  0  0  0
  141.0965   80.1883  223.5597 H   0  0  0  0  0  0  0  0  0  0  0  0
  139.3425   80.5760  223.5597 H   0  0  0  0  0  0  0  0  0  0  0  0
  139.2887   77.8719  223.1977 H   0  0  0  0  0  0  0  0  0  0  0  0
  139.2736   79.1142  221.8681 H   0  0  0  0  0  0  0  0  0  0  0  0
  139.7870   78.0721  219.3025 H   0  0  0  0  0  0  0  0  0  0  0  0
  140.6332   78.3067  216.9691 H   0  0  0  0  0  0  0  0  0  0  0  0
  142.8789   77.4730  216.3976 H   0  0  0  0  0  0  0  0  0  0  0  0
  144.3412   76.3965  218.0929 H   0  0  0  0  0  0  0  0  0  0  0  0
  143.4871   76.1568  220.4498 H   0  0  0  0  0  0  0  0  0  0  0  0
  140.9822   75.7011  222.9143 H   0  0  0  0  0  0  0  0  0  0  0  0
  138.7424   75.7949  222.8303 H   0  0  0  0  0  0  0  0  0  0  0  0
  138.7669   76.4096  221.1377 H   0  0  0  0  0  0  0  0  0  0  0  0
  137.6473   74.1686  221.5428 H   0  0  0  0  0  0  0  0  0  0  0  0
  138.9431   74.2714  220.2454 H   0  0  0  0  0  0  0  0  0  0  0  0
  139.7754   70.1320  222.1121 H   0  0  0  0  0  0  0  0  0  0  0  0
  140.4131   71.1974  223.3821 H   0  0  0  0  0  0  0  0  0  0  0  0
  138.0895   69.3854  223.3154 H   0  0  0  0  0  0  0  0  0  0  0  0
  137.7100   71.9630  224.3130 H   0  0  0  0  0  0  0  0  0  0  0  0
  136.6300   70.7220  223.6990 H   0  0  0  0  0  0  0  0  0  0  0  0
  138.7047   67.4851  224.3046 H   0  0  0  0  0  0  0  0  0  0  0  0
  139.8291   66.2992  226.1201 H   0  0  0  0  0  0  0  0  0  0  0  0
  141.0608   67.5327  227.8974 H   0  0  0  0  0  0  0  0  0  0  0  0
  141.7698   69.5347  228.7966 H   0  0  0  0  0  0  0  0  0  0  0  0
  141.9047   72.0255  228.7864 H   0  0  0  0  0  0  0  0  0  0  0  0
  140.7774   73.2615  226.9523 H   0  0  0  0  0  0  0  0  0  0  0  0
  139.5471   72.0753  225.1988 H   0  0  0  0  0  0  0  0  0  0  0  0
  141.1148   73.4984  223.1245 H   0  0  0  0  0  0  0  0  0  0  0  0
  141.4047   72.4064  221.7721 H   0  0  0  0  0  0  0  0  0  0  0  0
  142.3288   74.6248  221.1470 H   0  0  0  0  0  0  0  0  0  0  0  0
  140.8558   74.4113  220.1796 H   0  0  0  0  0  0  0  0  0  0  0  0
  1  2  1  0
  2  3  1  0
  3  4  2  0
  3  5  1  0
  5  6  1  0
  6  7  2  0
  7  8  1  0
  8  9  2  0
  9 10  1  0
 10 11  2  0
  5 12  1  0
 12 13  1  0
 13 14  1  0
 14 15  1  0
 15 16  1  0
 16 17  2  0
 16 18  1  0
 18 19  1  0
 19 20  1  0
 19 21  1  0
 21 22  2  0
 22 23  1  0
 23 24  2  0
 24 25  1  0
 25 26  2  0
 26 27  1  0
 27 28  2  0
 28 29  1  0
 29 30  2  0
 15 31  1  0
 31 32  1  0
 11  6  1  0
 32 12  1  0
 30 21  1  0
 30 25  1  0
  1 33  1  0
  1 34  1  0
  1 35  1  0
  2 36  1  0
  2 37  1  0
  7 38  1  0
  8 39  1  0
  9 40  1  0
 10 41  1  0
 11 42  1  0
 12 43  1  0
 13 44  1  0
 13 45  1  0
 14 46  1  0
 14 47  1  0
 18 48  1  0
 18 49  1  0
 19 50  1  6
 20 51  1  0
 20 52  1  0
 22 53  1  0
 23 54  1  0
 24 55  1  0
 26 56  1  0
 27 57  1  0
 28 58  1  0
 29 59  1  0
 31 60  1  0
 31 61  1  0
 32 62  1  0
 32 63  1  0
M  END
>  <smiles>  (21) 
CCC(=O)N(c1ccccc1)C1CCN(C(=O)CC(N)c2cccc3ccccc23)CC1

>  <score_type>  (21) 
oracle

>  <origin>  (21) 
autodockgpu

>  <m_score__min__energy>  (21) 
-9.4000000000000004

>  <m_primary>  (21) 
energy

>  <rmsd>  (21) 
9.463656493547372

>  <m_score__min__rmsd>  (21) 
9.463656493547372

>  <meeko>  (21) 
{"free_energy": -8.3, "intermolecular_energy": -10.68, "internal_energy": -2.16, "cluster_size": 22, "cluster_id": 1, "rank_in_cluster": 19}

>  <energy>  (21) 
-8.22

>  <cluster_rmsd>  (21) 
0.98

>  <cluster>  (21) 
1

$$$$

     RDKit          3D

 63 66  0  0  0  0  0  0  0  0999 V2000
  138.9350   84.1730  221.5730 C   0  0  0  0  0  0  0  0  0  0  0  0
  137.5650   83.5620  221.6400 C   0  0  0  0  0  0  0  0  0  0  0  0
  137.1320   83.2870  223.0270 C   0  0  0  0  0  0  0  0  0  0  0  0
  136.6120   84.2470  223.6620 O   0  0  0  0  0  0  0  0  0  0  0  0
  137.2870   82.0010  223.6340 N   0  0  0  0  0  0  0  0  0  0  0  0
  136.6300   81.7510  224.8710 C   0  0  0  0  0  0  0  0  0  0  0  0
  137.2200   82.1860  226.0460 C   0  0  0  0  0  0  0  0  0  0  0  0
  136.5790   81.9430  227.2420 C   0  0  0  0  0  0  0  0  0  0  0  0
  135.3730   81.2760  227.2400 C   0  0  0  0  0  0  0  0  0  0  0  0
  134.7670   80.8340  226.0700 C   0  0  0  0  0  0  0  0  0  0  0  0
  135.4150   81.0800  224.8590 C   0  0  0  0  0  0  0  0  0  0  0  0
  138.1110   81.0140  222.9570 C   0  0  0  0  0  0  0  0  0  0  0  0
  138.6970   80.0390  223.9360 C   0  0  0  0  0  0  0  0  0  0  0  0
  138.5600   78.6420  223.4140 C   0  0  0  0  0  0  0  0  0  0  0  0
  138.9090   78.4810  222.0210 N   0  0  0  0  0  0  0  0  0  0  0  0
  139.6670   77.3590  221.5870 C   0  0  0  0  0  0  0  0  0  0  0  0
  140.0220   76.5220  222.4560 O   0  0  0  0  0  0  0  0  0  0  0  0
  140.0150   77.2100  220.1370 C   0  0  0  0  0  0  0  0  0  0  0  0
  141.3750   77.8360  219.9510 C   0  0  2  0  0  0  0  0  0  0  0  0
  142.4700   77.0720  220.4540 N   0  0  0  0  0  0  0  0  0  0  0  0
  141.4200   79.2840  220.2100 C   0  0  0  0  0  0  0  0  0  0  0  0
  141.1940   80.2430  219.2160 C   0  0  0  0  0  0  0  0  0  0  0  0
  141.2520   81.5950  219.4700 C   0  0  0  0  0  0  0  0  0  0  0  0
  141.5390   82.0820  220.7270 C   0  0  0  0  0  0  0  0  0  0  0  0
  141.7630   81.1550  221.7210 C   0  0  0  0  0  0  0  0  0  0  0  0
  142.0460   81.6580  222.9820 C   0  0  0  0  0  0  0  0  0  0  0  0
  142.2810   80.8040  224.0400 C   0  0  0  0  0  0  0  0  0  0  0  0
  142.2240   79.4530  223.7940 C   0  0  0  0  0  0  0  0  0  0  0  0
  141.9440   78.9630  222.5380 C   0  0  0  0  0  0  0  0  0  0  0  0
  141.7050   79.7980  221.4650 C   0  0  0  0  0  0  0  0  0  0  0  0
  138.4500   79.5030  221.1020 C   0  0  0  0  0  0  0  0  0  0  0  0
  137.3910   80.2850  221.8860 C   0  0  0  0  0  0  0  0  0  0  0  0
  139.3118   84.3410  222.5927 H   0  0  0  0  0  0  0  0  0  0  0  0
  139.6142   83.4925  221.0386 H   0  0  0  0  0  0  0  0  0  0  0  0
  138.8826   85.1330  221.0386 H   0  0  0  0  0  0  0  0  0  0  0  0
  136.8470   84.2554  221.1778 H   0  0  0  0  0  0  0  0  0  0  0  0
  137.6024   82.6010  221.1060 H   0  0  0  0  0  0  0  0  0  0  0  0
  138.1835   82.7163  226.0253 H   0  0  0  0  0  0  0  0  0  0  0  0
  137.0261   82.2785  228.1894 H   0  0  0  0  0  0  0  0  0  0  0  0
  134.8713   81.0864  228.2004 H   0  0  0  0  0  0  0  0  0  0  0  0
  133.8031   80.3048  226.0979 H   0  0  0  0  0  0  0  0  0  0  0  0
  134.9699   80.7474  223.9096 H   0  0  0  0  0  0  0  0  0  0  0  0
  138.9211   81.5793  222.4731 H   0  0  0  0  0  0  0  0  0  0  0  0
  139.7623   80.2689  224.0854 H   0  0  0  0  0  0  0  0  0  0  0  0
  138.1593   80.1209  224.8921 H   0  0  0  0  0  0  0  0  0  0  0  0
  139.2146   77.9882  224.0090 H   0  0  0  0  0  0  0  0  0  0  0  0
  137.4947   78.3814  223.4995 H   0  0  0  0  0  0  0  0  0  0  0  0
  140.0469   76.1453  219.8623 H   0  0  0  0  0  0  0  0  0  0  0  0
  139.2642   77.6976  219.4978 H   0  0  0  0  0  0  0  0  0  0  0  0
  141.5472   77.7802  218.8660 H   0  0  0  0  0  0  0  0  0  0  0  0
  143.3110   77.6610  220.4570 H   0  0  0  0  0  0  0  0  0  0  0  0
  142.1980   76.6190  221.3300 H   0  0  0  0  0  0  0  0  0  0  0  0
  140.9618   79.9045  218.1955 H   0  0  0  0  0  0  0  0  0  0  0  0
  141.0647   82.3037  218.6498 H   0  0  0  0  0  0  0  0  0  0  0  0
  141.5870   83.1625  220.9275 H   0  0  0  0  0  0  0  0  0  0  0  0
  142.0834   82.7460  223.1400 H   0  0  0  0  0  0  0  0  0  0  0  0
  142.5060   81.1908  225.0449 H   0  0  0  0  0  0  0  0  0  0  0  0
  142.4060   78.7478  224.6184 H   0  0  0  0  0  0  0  0  0  0  0  0
  141.9098   77.8742  222.3851 H   0  0  0  0  0  0  0  0  0  0  0  0
  139.2805   80.1620  220.8086 H   0  0  0  0  0  0  0  0  0  0  0  0
  138.0474   79.0754  220.1719 H   0  0  0  0  0  0  0  0  0  0  0  0
  136.8757   80.9957  221.2232 H   0  0  0  0  0  0  0  0  0  0  0  0
  136.6302   79.6111  222.3066 H   0  0  0  0  0  0  0  0  0  0  0  0
  1  2  1  0
  2  3  1  0
  3  4  2  0
  3  5  1  0
  5  6  1  0
  6  7  2  0
  7  8  1  0
  8  9  2  0
  9 10  1  0
 10 11  2  0
  5 12  1  0
 12 13  1  0
 13 14  1  0
 14 15  1  0
 15 16  1  0
 16 17  2  0
 16 18  1  0
 18 19  1  0
 19 20  1  0
 19 21  1  0
 21 22  2  0
 22 23  1  0
 23 24  2  0
 24 25  1  0
 25 26  2  0
 26 27  1  0
 27 28  2  0
 28 29  1  0
 29 30  2  0
 15 31  1  0
 31 32  1  0
 11  6  1  0
 32 12  1  0
 30 21  1  0
 30 25  1  0
  1 33  1  0
  1 34  1  0
  1 35  1  0
  2 36  1  0
  2 37  1  0
  7 38  1  0
  8 39  1  0
  9 40  1  0
 10 41  1  0
 11 42  1  0
 12 43  1  0
 13 44  1  0
 13 45  1  0
 14 46  1  0
 14 47  1  0
 18 48  1  0
 18 49  1  0
 19 50  1  6
 20 51  1  0
 20 52  1  0
 22 53  1  0
 23 54  1  0
 24 55  1  0
 26 56  1  0
 27 57  1  0
 28 58  1  0
 29 59  1  0
 31 60  1  0
 31 61  1  0
 32 62  1  0
 32 63  1  0
M  END
>  <smiles>  (22) 
CCC(=O)N(c1ccccc1)C1CCN(C(=O)CC(N)c2cccc3ccccc23)CC1

>  <score_type>  (22) 
oracle

>  <origin>  (22) 
autodockgpu

>  <m_score__min__energy>  (22) 
-9.4000000000000004

>  <m_primary>  (22) 
energy

>  <rmsd>  (22) 
5.186238286119031

>  <m_score__min__rmsd>  (22) 
5.186238286119031

>  <meeko>  (22) 
{"free_energy": -6.95, "intermolecular_energy": -9.34, "internal_energy": -3.17, "cluster_size": 2, "cluster_id": 10, "rank_in_cluster": 1}

>  <energy>  (22) 
-8.06

>  <cluster_rmsd>  (22) 
1.38

>  <cluster>  (22) 
1

$$$$

     RDKit          3D

 63 66  0  0  0  0  0  0  0  0999 V2000
  146.2780   73.0440  221.7480 C   0  0  0  0  0  0  0  0  0  0  0  0
  146.2500   73.8980  220.5140 C   0  0  0  0  0  0  0  0  0  0  0  0
  145.6480   73.2030  219.3550 C   0  0  0  0  0  0  0  0  0  0  0  0
  145.9520   71.9860  219.2010 O   0  0  0  0  0  0  0  0  0  0  0  0
  144.7640   73.8630  218.4450 N   0  0  0  0  0  0  0  0  0  0  0  0
  145.1930   74.0570  217.1030 C   0  0  0  0  0  0  0  0  0  0  0  0
  144.4500   74.8790  216.2710 C   0  0  0  0  0  0  0  0  0  0  0  0
  144.8700   75.0660  214.9710 C   0  0  0  0  0  0  0  0  0  0  0  0
  146.0130   74.4330  214.5330 C   0  0  0  0  0  0  0  0  0  0  0  0
  146.7700   73.6060  215.3540 C   0  0  0  0  0  0  0  0  0  0  0  0
  146.3460   73.4170  216.6690 C   0  0  0  0  0  0  0  0  0  0  0  0
  143.4700   74.3030  218.9380 C   0  0  0  0  0  0  0  0  0  0  0  0
  142.7840   73.2080  219.7030 C   0  0  0  0  0  0  0  0  0  0  0  0
  142.2010   73.7540  220.9700 C   0  0  0  0  0  0  0  0  0  0  0  0
  141.4970   75.0070  220.8210 N   0  0  0  0  0  0  0  0  0  0  0  0
  140.2630   75.2300  221.4910 C   0  0  0  0  0  0  0  0  0  0  0  0
  139.8100   74.3020  222.2080 O   0  0  0  0  0  0  0  0  0  0  0  0
  139.5510   76.5390  221.3250 C   0  0  0  0  0  0  0  0  0  0  0  0
  139.0200   76.9190  222.6850 C   0  0  2  0  0  0  0  0  0  0  0  0
  137.8640   76.1990  223.1100 N   0  0  0  0  0  0  0  0  0  0  0  0
  139.0200   78.3650  222.9560 C   0  0  0  0  0  0  0  0  0  0  0  0
  137.8460   79.1190  223.0710 C   0  0  0  0  0  0  0  0  0  0  0  0
  137.8600   80.4740  223.3130 C   0  0  0  0  0  0  0  0  0  0  0  0
  139.0410   81.1690  223.4560 C   0  0  0  0  0  0  0  0  0  0  0  0
  140.2090   80.4470  223.3490 C   0  0  0  0  0  0  0  0  0  0  0  0
  141.3910   81.1570  223.5000 C   0  0  0  0  0  0  0  0  0  0  0  0
  142.6100   80.5170  223.4110 C   0  0  0  0  0  0  0  0  0  0  0  0
  142.6030   79.1630  223.1710 C   0  0  0  0  0  0  0  0  0  0  0  0
  141.4250   78.4660  223.0210 C   0  0  0  0  0  0  0  0  0  0  0  0
  140.1940   79.0860  223.1060 C   0  0  0  0  0  0  0  0  0  0  0  0
  142.1060   76.0100  219.9700 C   0  0  0  0  0  0  0  0  0  0  0  0
  143.5470   75.5290  219.7700 C   0  0  0  0  0  0  0  0  0  0  0  0
  146.2569   73.6876  222.6398 H   0  0  0  0  0  0  0  0  0  0  0  0
  145.4011   72.3799  221.7543 H   0  0  0  0  0  0  0  0  0  0  0  0
  147.1965   72.4387  221.7543 H   0  0  0  0  0  0  0  0  0  0  0  0
  145.6628   74.8038  220.7256 H   0  0  0  0  0  0  0  0  0  0  0  0
  147.2906   74.1410  220.2532 H   0  0  0  0  0  0  0  0  0  0  0  0
  143.5402   75.3741  216.6414 H   0  0  0  0  0  0  0  0  0  0  0  0
  144.2983   75.7140  214.2903 H   0  0  0  0  0  0  0  0  0  0  0  0
  146.3386   74.5883  213.4938 H   0  0  0  0  0  0  0  0  0  0  0  0
  147.6787   73.1140  214.9770 H   0  0  0  0  0  0  0  0  0  0  0  0
  146.9165   72.7706  217.3521 H   0  0  0  0  0  0  0  0  0  0  0  0
  142.8773   74.5540  218.0460 H   0  0  0  0  0  0  0  0  0  0  0  0
  141.9792   72.7819  219.0860 H   0  0  0  0  0  0  0  0  0  0  0  0
  143.5180   72.4272  219.9511 H   0  0  0  0  0  0  0  0  0  0  0  0
  141.4961   73.0107  221.3708 H   0  0  0  0  0  0  0  0  0  0  0  0
  143.0494   73.9528  221.6414 H   0  0  0  0  0  0  0  0  0  0  0  0
  140.2497   77.3074  220.9626 H   0  0  0  0  0  0  0  0  0  0  0  0
  138.7359   76.4559  220.5910 H   0  0  0  0  0  0  0  0  0  0  0  0
  139.7825   76.5425  223.3827 H   0  0  0  0  0  0  0  0  0  0  0  0
  137.0610   76.4970  222.5450 H   0  0  0  0  0  0  0  0  0  0  0  0
  138.0790   75.1990  223.1490 H   0  0  0  0  0  0  0  0  0  0  0  0
  136.8768   78.6099  222.9640 H   0  0  0  0  0  0  0  0  0  0  0  0
  136.9056   81.0148  223.3942 H   0  0  0  0  0  0  0  0  0  0  0  0
  139.0506   82.2522  223.6471 H   0  0  0  0  0  0  0  0  0  0  0  0
  141.3562   82.2395  223.6923 H   0  0  0  0  0  0  0  0  0  0  0  0
  143.5537   81.0700  223.5278 H   0  0  0  0  0  0  0  0  0  0  0  0
  143.5595   78.6249  223.0972 H   0  0  0  0  0  0  0  0  0  0  0  0
  141.4657   77.3839  222.8278 H   0  0  0  0  0  0  0  0  0  0  0  0
  141.5803   76.0713  219.0057 H   0  0  0  0  0  0  0  0  0  0  0  0
  142.0611   77.0152  220.4145 H   0  0  0  0  0  0  0  0  0  0  0  0
  144.1374   76.3012  219.2552 H   0  0  0  0  0  0  0  0  0  0  0  0
  144.0360   75.3255  220.7341 H   0  0  0  0  0  0  0  0  0  0  0  0
  1  2  1  0
  2  3  1  0
  3  4  2  0
  3  5  1  0
  5  6  1  0
  6  7  2  0
  7  8  1  0
  8  9  2  0
  9 10  1  0
 10 11  2  0
  5 12  1  0
 12 13  1  0
 13 14  1  0
 14 15  1  0
 15 16  1  0
 16 17  2  0
 16 18  1  0
 18 19  1  0
 19 20  1  0
 19 21  1  0
 21 22  2  0
 22 23  1  0
 23 24  2  0
 24 25  1  0
 25 26  2  0
 26 27  1  0
 27 28  2  0
 28 29  1  0
 29 30  2  0
 15 31  1  0
 31 32  1  0
 11  6  1  0
 32 12  1  0
 30 21  1  0
 30 25  1  0
  1 33  1  0
  1 34  1  0
  1 35  1  0
  2 36  1  0
  2 37  1  0
  7 38  1  0
  8 39  1  0
  9 40  1  0
 10 41  1  0
 11 42  1  0
 12 43  1  0
 13 44  1  0
 13 45  1  0
 14 46  1  0
 14 47  1  0
 18 48  1  0
 18 49  1  0
 19 50  1  1
 20 51  1  0
 20 52  1  0
 22 53  1  0
 23 54  1  0
 24 55  1  0
 26 56  1  0
 27 57  1  0
 28 58  1  0
 29 59  1  0
 31 60  1  0
 31 61  1  0
 32 62  1  0
 32 63  1  0
M  END
>  <smiles>  (23) 
CCC(=O)N(c1ccccc1)C1CCN(C(=O)CC(N)c2cccc3ccccc23)CC1

>  <score_type>  (23) 
oracle

>  <origin>  (23) 
autodockgpu

>  <m_score__min__energy>  (23) 
-9.4000000000000004

>  <m_primary>  (23) 
energy

>  <rmsd>  (23) 
4.021051284196167

>  <m_score__min__rmsd>  (23) 
4.021051284196167

>  <meeko>  (23) 
{"free_energy": -8.25, "intermolecular_energy": -10.64, "internal_energy": -2.12, "cluster_size": 4, "cluster_id": 5, "rank_in_cluster": 4}

>  <energy>  (23) 
-8.8

>  <cluster_rmsd>  (23) 
0.0

>  <cluster>  (23) 
2

$$$$

     RDKit          3D

 63 66  0  0  0  0  0  0  0  0999 V2000
  135.5670   70.7660  224.2930 C   0  0  0  0  0  0  0  0  0  0  0  0
  136.2500   69.6220  224.9850 C   0  0  0  0  0  0  0  0  0  0  0  0
  137.5620   69.2960  224.3850 C   0  0  0  0  0  0  0  0  0  0  0  0
  137.5690   68.4240  223.4710 O   0  0  0  0  0  0  0  0  0  0  0  0
  138.7730   69.9290  224.8070 N   0  0  0  0  0  0  0  0  0  0  0  0
  139.5060   69.3450  225.8770 C   0  0  0  0  0  0  0  0  0  0  0  0
  139.9010   68.0200  225.7780 C   0  0  0  0  0  0  0  0  0  0  0  0
  140.6130   67.4580  226.8160 C   0  0  0  0  0  0  0  0  0  0  0  0
  140.9140   68.2230  227.9220 C   0  0  0  0  0  0  0  0  0  0  0  0
  140.5270   69.5520  228.0370 C   0  0  0  0  0  0  0  0  0  0  0  0
  139.8060   70.1220  226.9870 C   0  0  0  0  0  0  0  0  0  0  0  0
  139.1920   71.1400  224.1240 C   0  0  0  0  0  0  0  0  0  0  0  0
  140.6870   71.2010  224.0050 C   0  0  0  0  0  0  0  0  0  0  0  0
  141.0760   71.6230  222.6210 C   0  0  0  0  0  0  0  0  0  0  0  0
  140.3180   72.7330  222.0920 N   0  0  0  0  0  0  0  0  0  0  0  0
  140.9630   73.7740  221.3690 C   0  0  0  0  0  0  0  0  0  0  0  0
  142.2080   73.6920  221.2120 O   0  0  0  0  0  0  0  0  0  0  0  0
  140.1560   74.9150  220.8260 C   0  0  0  0  0  0  0  0  0  0  0  0
  140.2850   76.0460  221.8160 C   0  0  2  0  0  0  0  0  0  0  0  0
  139.2010   76.1760  222.7350 N   0  0  0  0  0  0  0  0  0  0  0  0
  140.8070   77.2980  221.2470 C   0  0  0  0  0  0  0  0  0  0  0  0
  140.8230   77.5610  219.8720 C   0  0  0  0  0  0  0  0  0  0  0  0
  141.3270   78.7320  219.3520 C   0  0  0  0  0  0  0  0  0  0  0  0
  141.8470   79.7180  220.1630 C   0  0  0  0  0  0  0  0  0  0  0  0
  141.8390   79.4800  221.5200 C   0  0  0  0  0  0  0  0  0  0  0  0
  142.3610   80.4820  222.3250 C   0  0  0  0  0  0  0  0  0  0  0  0
  142.3920   80.3330  223.6960 C   0  0  0  0  0  0  0  0  0  0  0  0
  141.8900   79.1670  224.2230 C   0  0  0  0  0  0  0  0  0  0  0  0
  141.3750   78.1770  223.4150 C   0  0  0  0  0  0  0  0  0  0  0  0
  141.3340   78.3040  222.0410 C   0  0  0  0  0  0  0  0  0  0  0  0
  138.8880   72.7310  222.3300 C   0  0  0  0  0  0  0  0  0  0  0  0
  138.5720   71.3030  222.7870 C   0  0  0  0  0  0  0  0  0  0  0  0
  135.1552   71.4558  225.0444 H   0  0  0  0  0  0  0  0  0  0  0  0
  136.2939   71.3006  223.6638 H   0  0  0  0  0  0  0  0  0  0  0  0
  134.7516   70.3798  223.6638 H   0  0  0  0  0  0  0  0  0  0  0  0
  136.4022   69.8894  226.0411 H   0  0  0  0  0  0  0  0  0  0  0  0
  135.6061   68.7364  224.8795 H   0  0  0  0  0  0  0  0  0  0  0  0
  139.6505   67.4269  224.8861 H   0  0  0  0  0  0  0  0  0  0  0  0
  140.9379   66.4085  226.7619 H   0  0  0  0  0  0  0  0  0  0  0  0
  141.4820   67.7639  228.7446 H   0  0  0  0  0  0  0  0  0  0  0  0
  140.7819   70.1393  228.9315 H   0  0  0  0  0  0  0  0  0  0  0  0
  139.4803   71.1714  227.0384 H   0  0  0  0  0  0  0  0  0  0  0  0
  138.8387   71.9745  224.7475 H   0  0  0  0  0  0  0  0  0  0  0  0
  141.0805   71.9276  224.7311 H   0  0  0  0  0  0  0  0  0  0  0  0
  141.1056   70.2044  224.2088 H   0  0  0  0  0  0  0  0  0  0  0  0
  142.1379   71.9097  222.6362 H   0  0  0  0  0  0  0  0  0  0  0  0
  140.8682   70.7648  221.9650 H   0  0  0  0  0  0  0  0  0  0  0  0
  140.5471   75.2231  219.8451 H   0  0  0  0  0  0  0  0  0  0  0  0
  139.1034   74.6261  220.6898 H   0  0  0  0  0  0  0  0  0  0  0  0
  141.1011   75.7255  222.4803 H   0  0  0  0  0  0  0  0  0  0  0  0
  138.4430   76.6990  222.2820 H   0  0  0  0  0  0  0  0  0  0  0  0
  138.9810   75.2610  223.1370 H   0  0  0  0  0  0  0  0  0  0  0  0
  140.4185   76.8052  219.1826 H   0  0  0  0  0  0  0  0  0  0  0  0
  141.3144   78.8845  218.2627 H   0  0  0  0  0  0  0  0  0  0  0  0
  142.2501   80.6525  219.7456 H   0  0  0  0  0  0  0  0  0  0  0  0
  142.7530   81.4020  221.8667 H   0  0  0  0  0  0  0  0  0  0  0  0
  142.8041   81.1199  224.3449 H   0  0  0  0  0  0  0  0  0  0  0  0
  141.8996   79.0212  225.3133 H   0  0  0  0  0  0  0  0  0  0  0  0
  140.9851   77.2586  223.8782 H   0  0  0  0  0  0  0  0  0  0  0  0
  138.6241   73.4565  223.1136 H   0  0  0  0  0  0  0  0  0  0  0  0
  138.3166   73.0177  221.4348 H   0  0  0  0  0  0  0  0  0  0  0  0
  137.4837   71.1575  222.8529 H   0  0  0  0  0  0  0  0  0  0  0  0
  138.9641   70.5622  222.0746 H   0  0  0  0  0  0  0  0  0  0  0  0
  1  2  1  0
  2  3  1  0
  3  4  2  0
  3  5  1  0
  5  6  1  0
  6  7  2  0
  7  8  1  0
  8  9  2  0
  9 10  1  0
 10 11  2  0
  5 12  1  0
 12 13  1  0
 13 14  1  0
 14 15  1  0
 15 16  1  0
 16 17  2  0
 16 18  1  0
 18 19  1  0
 19 20  1  0
 19 21  1  0
 21 22  2  0
 22 23  1  0
 23 24  2  0
 24 25  1  0
 25 26  2  0
 26 27  1  0
 27 28  2  0
 28 29  1  0
 29 30  2  0
 15 31  1  0
 31 32  1  0
 11  6  1  0
 32 12  1  0
 30 21  1  0
 30 25  1  0
  1 33  1  0
  1 34  1  0
  1 35  1  0
  2 36  1  0
  2 37  1  0
  7 38  1  0
  8 39  1  0
  9 40  1  0
 10 41  1  0
 11 42  1  0
 12 43  1  0
 13 44  1  0
 13 45  1  0
 14 46  1  0
 14 47  1  0
 18 48  1  0
 18 49  1  0
 19 50  1  1
 20 51  1  0
 20 52  1  0
 22 53  1  0
 23 54  1  0
 24 55  1  0
 26 56  1  0
 27 57  1  0
 28 58  1  0
 29 59  1  0
 31 60  1  0
 31 61  1  0
 32 62  1  0
 32 63  1  0
M  END
>  <smiles>  (24) 
CCC(=O)N(c1ccccc1)C1CCN(C(=O)CC(N)c2cccc3ccccc23)CC1

>  <score_type>  (24) 
oracle

>  <origin>  (24) 
autodockgpu

>  <m_score__min__energy>  (24) 
-9.4000000000000004

>  <m_primary>  (24) 
energy

>  <rmsd>  (24) 
6.378072818298723

>  <m_score__min__rmsd>  (24) 
6.378072818298723

>  <meeko>  (24) 
{"free_energy": -8.8, "intermolecular_energy": -11.19, "internal_energy": -1.45, "cluster_size": 7, "cluster_id": 2, "rank_in_cluster": 1}

>  <energy>  (24) 
-8.65

>  <cluster_rmsd>  (24) 
0.64

>  <cluster>  (24) 
2

$$$$

     RDKit          3D

 63 66  0  0  0  0  0  0  0  0999 V2000
  138.8210   67.4220  223.0720 C   0  0  0  0  0  0  0  0  0  0  0  0
  137.9950   68.6560  222.8510 C   0  0  0  0  0  0  0  0  0  0  0  0
  137.8570   69.4740  224.0750 C   0  0  0  0  0  0  0  0  0  0  0  0
  136.7500   69.4130  224.6800 O   0  0  0  0  0  0  0  0  0  0  0  0
  138.9190   70.2990  224.5640 N   0  0  0  0  0  0  0  0  0  0  0  0
  139.5750   69.9180  225.7680 C   0  0  0  0  0  0  0  0  0  0  0  0
  139.6450   68.5740  226.0990 C   0  0  0  0  0  0  0  0  0  0  0  0
  140.2830   68.2080  227.2650 C   0  0  0  0  0  0  0  0  0  0  0  0
  140.8330   69.1840  228.0700 C   0  0  0  0  0  0  0  0  0  0  0  0
  140.7720   70.5350  227.7520 C   0  0  0  0  0  0  0  0  0  0  0  0
  140.1270   70.9050  226.5720 C   0  0  0  0  0  0  0  0  0  0  0  0
  139.2720   71.4880  223.8080 C   0  0  0  0  0  0  0  0  0  0  0  0
  140.7380   71.5040  223.4840 C   0  0  0  0  0  0  0  0  0  0  0  0
  140.9440   71.8940  222.0530 C   0  0  0  0  0  0  0  0  0  0  0  0
  140.1510   73.0190  221.6130 N   0  0  0  0  0  0  0  0  0  0  0  0
  140.7180   74.0300  220.7890 C   0  0  0  0  0  0  0  0  0  0  0  0
  141.9270   73.9100  220.4650 O   0  0  0  0  0  0  0  0  0  0  0  0
  139.8750   75.1860  220.3420 C   0  0  0  0  0  0  0  0  0  0  0  0
  140.6480   76.4390  220.6730 C   0  0  2  0  0  0  0  0  0  0  0  0
  142.0550   76.2610  220.8340 N   0  0  0  0  0  0  0  0  0  0  0  0
  139.9900   77.3210  221.6500 C   0  0  0  0  0  0  0  0  0  0  0  0
  138.6860   77.1070  222.1130 C   0  0  0  0  0  0  0  0  0  0  0  0
  138.0770   77.9470  223.0160 C   0  0  0  0  0  0  0  0  0  0  0  0
  138.7230   79.0560  223.5200 C   0  0  0  0  0  0  0  0  0  0  0  0
  140.0080   79.2860  223.0790 C   0  0  0  0  0  0  0  0  0  0  0  0
  140.6480   80.4020  223.5960 C   0  0  0  0  0  0  0  0  0  0  0  0
  141.9380   80.7090  223.2140 C   0  0  0  0  0  0  0  0  0  0  0  0
  142.5520   79.8730  222.3130 C   0  0  0  0  0  0  0  0  0  0  0  0
  141.9080   78.7680  221.8030 C   0  0  0  0  0  0  0  0  0  0  0  0
  140.6180   78.4410  222.1710 C   0  0  0  0  0  0  0  0  0  0  0  0
  138.7670   73.0620  222.0450 C   0  0  0  0  0  0  0  0  0  0  0  0
  138.4790   71.6500  222.5660 C   0  0  0  0  0  0  0  0  0  0  0  0
  138.9378   67.2475  224.1518 H   0  0  0  0  0  0  0  0  0  0  0  0
  138.3188   66.5576  222.6131 H   0  0  0  0  0  0  0  0  0  0  0  0
  139.8116   67.5568  222.6131 H   0  0  0  0  0  0  0  0  0  0  0  0
  138.4747   69.2662  222.0716 H   0  0  0  0  0  0  0  0  0  0  0  0
  136.9873   68.3332  222.5503 H   0  0  0  0  0  0  0  0  0  0  0  0
  139.1991   67.8123  225.4425 H   0  0  0  0  0  0  0  0  0  0  0  0
  140.3528   67.1480  227.5507 H   0  0  0  0  0  0  0  0  0  0  0  0
  141.3389   68.8811  228.9986 H   0  0  0  0  0  0  0  0  0  0  0  0
  141.2200   71.2919  228.4125 H   0  0  0  0  0  0  0  0  0  0  0  0
  140.0569   71.9640  226.2829 H   0  0  0  0  0  0  0  0  0  0  0  0
  139.0297   72.3410  224.4589 H   0  0  0  0  0  0  0  0  0  0  0  0
  141.2469   72.2294  224.1358 H   0  0  0  0  0  0  0  0  0  0  0  0
  141.1539   70.4988  223.6469 H   0  0  0  0  0  0  0  0  0  0  0  0
  142.0054   72.1489  221.9168 H   0  0  0  0  0  0  0  0  0  0  0  0
  140.6242   71.0331  221.4475 H   0  0  0  0  0  0  0  0  0  0  0  0
  139.6943   75.1270  219.2585 H   0  0  0  0  0  0  0  0  0  0  0  0
  138.8964   75.1801  220.8444 H   0  0  0  0  0  0  0  0  0  0  0  0
  140.6042   77.0303  219.7465 H   0  0  0  0  0  0  0  0  0  0  0  0
  142.2240   75.6940  221.6730 H   0  0  0  0  0  0  0  0  0  0  0  0
  142.4630   75.9460  219.9510 H   0  0  0  0  0  0  0  0  0  0  0  0
  138.1281   76.2351  221.7409 H   0  0  0  0  0  0  0  0  0  0  0  0
  137.0499   77.7288  223.3440 H   0  0  0  0  0  0  0  0  0  0  0  0
  138.2344   79.7270  224.2418 H   0  0  0  0  0  0  0  0  0  0  0  0
  140.1236   81.0475  224.3160 H   0  0  0  0  0  0  0  0  0  0  0  0
  142.4563   81.5917  223.6166 H   0  0  0  0  0  0  0  0  0  0  0  0
  143.5812   80.0914  221.9919 H   0  0  0  0  0  0  0  0  0  0  0  0
  142.4364   78.1273  221.0817 H   0  0  0  0  0  0  0  0  0  0  0  0
  138.6330   73.8055  222.8445 H   0  0  0  0  0  0  0  0  0  0  0  0
  138.0857   73.3530  221.2319 H   0  0  0  0  0  0  0  0  0  0  0  0
  137.4065   71.5366  222.7827 H   0  0  0  0  0  0  0  0  0  0  0  0
  138.7497   70.8885  221.8198 H   0  0  0  0  0  0  0  0  0  0  0  0
  1  2  1  0
  2  3  1  0
  3  4  2  0
  3  5  1  0
  5  6  1  0
  6  7  2  0
  7  8  1  0
  8  9  2  0
  9 10  1  0
 10 11  2  0
  5 12  1  0
 12 13  1  0
 13 14  1  0
 14 15  1  0
 15 16  1  0
 16 17  2  0
 16 18  1  0
 18 19  1  0
 19 20  1  0
 19 21  1  0
 21 22  2  0
 22 23  1  0
 23 24  2  0
 24 25  1  0
 25 26  2  0
 26 27  1  0
 27 28  2  0
 28 29  1  0
 29 30  2  0
 15 31  1  0
 31 32  1  0
 11  6  1  0
 32 12  1  0
 30 21  1  0
 30 25  1  0
  1 33  1  0
  1 34  1  0
  1 35  1  0
  2 36  1  0
  2 37  1  0
  7 38  1  0
  8 39  1  0
  9 40  1  0
 10 41  1  0
 11 42  1  0
 12 43  1  0
 13 44  1  0
 13 45  1  0
 14 46  1  0
 14 47  1  0
 18 48  1  0
 18 49  1  0
 19 50  1  6
 20 51  1  0
 20 52  1  0
 22 53  1  0
 23 54  1  0
 24 55  1  0
 26 56  1  0
 27 57  1  0
 28 58  1  0
 29 59  1  0
 31 60  1  0
 31 61  1  0
 32 62  1  0
 32 63  1  0
M  END
>  <smiles>  (25) 
CCC(=O)N(c1ccccc1)C1CCN(C(=O)CC(N)c2cccc3ccccc23)CC1

>  <score_type>  (25) 
oracle

>  <origin>  (25) 
autodockgpu

>  <m_score__min__energy>  (25) 
-9.4000000000000004

>  <m_primary>  (25) 
energy

>  <rmsd>  (25) 
5.8796358155632005

>  <m_score__min__rmsd>  (25) 
5.8796358155632005

>  <meeko>  (25) 
{"free_energy": -8.2, "intermolecular_energy": -10.58, "internal_energy": -2.02, "cluster_size": 7, "cluster_id": 2, "rank_in_cluster": 4}

>  <energy>  (25) 
-8.36

>  <cluster_rmsd>  (25) 
1.76

>  <cluster>  (25) 
2

$$$$

     RDKit          3D

 63 66  0  0  0  0  0  0  0  0999 V2000
  142.2060   78.2500  217.8110 C   0  0  0  0  0  0  0  0  0  0  0  0
  141.4280   77.2890  218.6630 C   0  0  0  0  0  0  0  0  0  0  0  0
  142.1680   76.8760  219.8750 C   0  0  0  0  0  0  0  0  0  0  0  0
  143.3480   76.4570  219.7060 O   0  0  0  0  0  0  0  0  0  0  0  0
  141.5900   76.9430  221.1820 N   0  0  0  0  0  0  0  0  0  0  0  0
  141.5820   78.1960  221.8560 C   0  0  0  0  0  0  0  0  0  0  0  0
  141.7080   79.3600  221.1160 C   0  0  0  0  0  0  0  0  0  0  0  0
  141.6980   80.5720  221.7730 C   0  0  0  0  0  0  0  0  0  0  0  0
  141.5640   80.5960  223.1440 C   0  0  0  0  0  0  0  0  0  0  0  0
  141.4350   79.4390  223.9020 C   0  0  0  0  0  0  0  0  0  0  0  0
  141.4450   78.2120  223.2370 C   0  0  0  0  0  0  0  0  0  0  0  0
  141.0420   75.7270  221.7560 C   0  0  0  0  0  0  0  0  0  0  0  0
  139.5410   75.7620  221.7600 C   0  0  0  0  0  0  0  0  0  0  0  0
  138.9950   74.4510  221.2830 C   0  0  0  0  0  0  0  0  0  0  0  0
  139.6380   73.2870  221.8490 N   0  0  0  0  0  0  0  0  0  0  0  0
  138.8700   72.1660  222.2660 C   0  0  0  0  0  0  0  0  0  0  0  0
  137.6220   72.2270  222.1280 O   0  0  0  0  0  0  0  0  0  0  0  0
  139.5580   70.9670  222.8480 C   0  0  0  0  0  0  0  0  0  0  0  0
  138.5980   70.3550  223.8380 C   0  0  2  0  0  0  0  0  0  0  0  0
  137.5320   71.2060  224.2590 N   0  0  0  0  0  0  0  0  0  0  0  0
  139.2390   69.5500  224.8900 C   0  0  0  0  0  0  0  0  0  0  0  0
  139.1880   68.1510  224.9160 C   0  0  0  0  0  0  0  0  0  0  0  0
  139.7810   67.4110  225.9130 C   0  0  0  0  0  0  0  0  0  0  0  0
  140.4630   68.0100  226.9500 C   0  0  0  0  0  0  0  0  0  0  0  0
  140.5260   69.3860  226.9430 C   0  0  0  0  0  0  0  0  0  0  0  0
  141.2200   69.9770  227.9890 C   0  0  0  0  0  0  0  0  0  0  0  0
  141.3380   71.3500  228.0630 C   0  0  0  0  0  0  0  0  0  0  0  0
  140.7500   72.0960  227.0700 C   0  0  0  0  0  0  0  0  0  0  0  0
  140.0620   71.5010  226.0360 C   0  0  0  0  0  0  0  0  0  0  0  0
  139.9310   70.1300  225.9420 C   0  0  0  0  0  0  0  0  0  0  0  0
  141.0820   73.3190  221.9640 C   0  0  0  0  0  0  0  0  0  0  0  0
  141.5170   74.4950  221.0820 C   0  0  0  0  0  0  0  0  0  0  0  0
  142.7662   78.9420  218.4569 H   0  0  0  0  0  0  0  0  0  0  0  0
  142.9089   77.6909  217.1760 H   0  0  0  0  0  0  0  0  0  0  0  0
  141.5128   78.8211  217.1760 H   0  0  0  0  0  0  0  0  0  0  0  0
  140.4889   77.7719  218.9710 H   0  0  0  0  0  0  0  0  0  0  0  0
  141.2420   76.3864  218.0624 H   0  0  0  0  0  0  0  0  0  0  0  0
  141.8143   79.3181  220.0219 H   0  0  0  0  0  0  0  0  0  0  0  0
  141.7961   81.5107  221.2081 H   0  0  0  0  0  0  0  0  0  0  0  0
  141.5590   81.5685  223.6581 H   0  0  0  0  0  0  0  0  0  0  0  0
  141.3280   79.4885  224.9957 H   0  0  0  0  0  0  0  0  0  0  0  0
  141.3458   77.2716  223.7990 H   0  0  0  0  0  0  0  0  0  0  0  0
  141.4110   75.6907  222.7916 H   0  0  0  0  0  0  0  0  0  0  0  0
  139.1841   75.9545  222.7825 H   0  0  0  0  0  0  0  0  0  0  0  0
  139.1974   76.5617  221.0873 H   0  0  0  0  0  0  0  0  0  0  0  0
  137.9262   74.4110  221.5402 H   0  0  0  0  0  0  0  0  0  0  0  0
  139.1812   74.4127  220.1996 H   0  0  0  0  0  0  0  0  0  0  0  0
  139.7961   70.2439  222.0540 H   0  0  0  0  0  0  0  0  0  0  0  0
  140.5024   71.2504  223.3357 H   0  0  0  0  0  0  0  0  0  0  0  0
  138.0573   69.5988  223.2500 H   0  0  0  0  0  0  0  0  0  0  0  0
  137.8770   72.1720  224.3030 H   0  0  0  0  0  0  0  0  0  0  0  0
  136.7010   71.0190  223.6930 H   0  0  0  0  0  0  0  0  0  0  0  0
  138.6548   67.6247  224.1106 H   0  0  0  0  0  0  0  0  0  0  0  0
  139.7089   66.3138  225.8815 H   0  0  0  0  0  0  0  0  0  0  0  0
  140.9353   67.4165  227.7467 H   0  0  0  0  0  0  0  0  0  0  0  0
  141.6794   69.3468  228.7647 H   0  0  0  0  0  0  0  0  0  0  0  0
  141.8838   71.8306  228.8883 H   0  0  0  0  0  0  0  0  0  0  0  0
  140.8306   73.1926  227.1017 H   0  0  0  0  0  0  0  0  0  0  0  0
  139.6040   72.1360  225.2633 H   0  0  0  0  0  0  0  0  0  0  0  0
  141.3843   73.4850  223.0085 H   0  0  0  0  0  0  0  0  0  0  0  0
  141.5453   72.3713  221.6521 H   0  0  0  0  0  0  0  0  0  0  0  0
  142.6127   74.5129  220.9862 H   0  0  0  0  0  0  0  0  0  0  0  0
  141.0961   74.4089  220.0694 H   0  0  0  0  0  0  0  0  0  0  0  0
  1  2  1  0
  2  3  1  0
  3  4  2  0
  3  5  1  0
  5  6  1  0
  6  7  2  0
  7  8  1  0
  8  9  2  0
  9 10  1  0
 10 11  2  0
  5 12  1  0
 12 13  1  0
 13 14  1  0
 14 15  1  0
 15 16  1  0
 16 17  2  0
 16 18  1  0
 18 19  1  0
 19 20  1  0
 19 21  1  0
 21 22  2  0
 22 23  1  0
 23 24  2  0
 24 25  1  0
 25 26  2  0
 26 27  1  0
 27 28  2  0
 28 29  1  0
 29 30  2  0
 15 31  1  0
 31 32  1  0
 11  6  1  0
 32 12  1  0
 30 21  1  0
 30 25  1  0
  1 33  1  0
  1 34  1  0
  1 35  1  0
  2 36  1  0
  2 37  1  0
  7 38  1  0
  8 39  1  0
  9 40  1  0
 10 41  1  0
 11 42  1  0
 12 43  1  0
 13 44  1  0
 13 45  1  0
 14 46  1  0
 14 47  1  0
 18 48  1  0
 18 49  1  0
 19 50  1  6
 20 51  1  0
 20 52  1  0
 22 53  1  0
 23 54  1  0
 24 55  1  0
 26 56  1  0
 27 57  1  0
 28 58  1  0
 29 59  1  0
 31 60  1  0
 31 61  1  0
 32 62  1  0
 32 63  1  0
M  END
>  <smiles>  (26) 
CCC(=O)N(c1ccccc1)C1CCN(C(=O)CC(N)c2cccc3ccccc23)CC1

>  <score_type>  (26) 
oracle

>  <origin>  (26) 
autodockgpu

>  <m_score__min__energy>  (26) 
-9.4000000000000004

>  <m_primary>  (26) 
energy

>  <rmsd>  (26) 
9.376337108218195

>  <m_score__min__rmsd>  (26) 
9.376337108218195

>  <meeko>  (26) 
{"free_energy": -9.21, "intermolecular_energy": -11.6, "internal_energy": -2.19, "cluster_size": 22, "cluster_id": 1, "rank_in_cluster": 4}

>  <energy>  (26) 
-8.2

>  <cluster_rmsd>  (26) 
1.73

>  <cluster>  (26) 
2

$$$$

     RDKit          3D

 63 66  0  0  0  0  0  0  0  0999 V2000
  145.9500   73.0650  221.6150 C   0  0  0  0  0  0  0  0  0  0  0  0
  146.3480   73.7240  220.3270 C   0  0  0  0  0  0  0  0  0  0  0  0
  145.6900   73.1170  219.1500 C   0  0  0  0  0  0  0  0  0  0  0  0
  145.9220   71.8940  218.9350 O   0  0  0  0  0  0  0  0  0  0  0  0
  144.8270   73.8650  218.2880 N   0  0  0  0  0  0  0  0  0  0  0  0
  145.2650   74.1400  216.9630 C   0  0  0  0  0  0  0  0  0  0  0  0
  146.5340   73.7410  216.5770 C   0  0  0  0  0  0  0  0  0  0  0  0
  146.9550   74.0080  215.2920 C   0  0  0  0  0  0  0  0  0  0  0  0
  146.1060   74.6630  214.4260 C   0  0  0  0  0  0  0  0  0  0  0  0
  144.8300   75.0700  214.7960 C   0  0  0  0  0  0  0  0  0  0  0  0
  144.4040   74.8000  216.0970 C   0  0  0  0  0  0  0  0  0  0  0  0
  143.5460   74.3080  218.8110 C   0  0  0  0  0  0  0  0  0  0  0  0
  142.8730   73.2130  219.5860 C   0  0  0  0  0  0  0  0  0  0  0  0
  142.3190   73.7550  220.8670 C   0  0  0  0  0  0  0  0  0  0  0  0
  141.6160   75.0110  220.7380 N   0  0  0  0  0  0  0  0  0  0  0  0
  140.3980   75.2370  221.4350 C   0  0  0  0  0  0  0  0  0  0  0  0
  139.9570   74.3070  222.1580 O   0  0  0  0  0  0  0  0  0  0  0  0
  139.6870   76.5490  221.2890 C   0  0  0  0  0  0  0  0  0  0  0  0
  139.1160   76.8850  222.6440 C   0  0  2  0  0  0  0  0  0  0  0  0
  137.9670   76.1300  223.0250 N   0  0  0  0  0  0  0  0  0  0  0  0
  139.0760   78.3240  222.9490 C   0  0  0  0  0  0  0  0  0  0  0  0
  137.8820   79.0400  223.0940 C   0  0  0  0  0  0  0  0  0  0  0  0
  137.8590   80.3890  223.3660 C   0  0  0  0  0  0  0  0  0  0  0  0
  139.0210   81.1160  223.5120 C   0  0  0  0  0  0  0  0  0  0  0  0
  140.2080   80.4310  223.3750 C   0  0  0  0  0  0  0  0  0  0  0  0
  141.3700   81.1730  223.5290 C   0  0  0  0  0  0  0  0  0  0  0  0
  142.6060   80.5700  223.4120 C   0  0  0  0  0  0  0  0  0  0  0  0
  142.6360   79.2230  223.1410 C   0  0  0  0  0  0  0  0  0  0  0  0
  141.4780   78.4950  222.9880 C   0  0  0  0  0  0  0  0  0  0  0  0
  140.2300   79.0760  223.1010 C   0  0  0  0  0  0  0  0  0  0  0  0
  142.2100   76.0160  219.8780 C   0  0  0  0  0  0  0  0  0  0  0  0
  143.6450   75.5300  219.6450 C   0  0  0  0  0  0  0  0  0  0  0  0
  146.3130   73.6660  222.4618 H   0  0  0  0  0  0  0  0  0  0  0  0
  144.8538   72.9873  221.6637 H   0  0  0  0  0  0  0  0  0  0  0  0
  146.3914   72.0586  221.6637 H   0  0  0  0  0  0  0  0  0  0  0  0
  146.0717   74.7876  220.3755 H   0  0  0  0  0  0  0  0  0  0  0  0
  147.4334   73.5916  220.2068 H   0  0  0  0  0  0  0  0  0  0  0  0
  147.1952   73.2194  217.2846 H   0  0  0  0  0  0  0  0  0  0  0  0
  147.9583   73.7015  214.9610 H   0  0  0  0  0  0  0  0  0  0  0  0
  146.4518   74.8715  213.4028 H   0  0  0  0  0  0  0  0  0  0  0  0
  144.1738   75.5907  214.0830 H   0  0  0  0  0  0  0  0  0  0  0  0
  143.4015   75.1054  216.4312 H   0  0  0  0  0  0  0  0  0  0  0  0
  142.9352   74.5650  217.9330 H   0  0  0  0  0  0  0  0  0  0  0  0
  142.0538   72.7921  218.9845 H   0  0  0  0  0  0  0  0  0  0  0  0
  143.6098   72.4291  219.8155 H   0  0  0  0  0  0  0  0  0  0  0  0
  141.6203   73.0122  221.2795 H   0  0  0  0  0  0  0  0  0  0  0  0
  143.1819   73.9480  221.5213 H   0  0  0  0  0  0  0  0  0  0  0  0
  140.3935   77.3298  220.9710 H   0  0  0  0  0  0  0  0  0  0  0  0
  138.8938   76.4871  220.5294 H   0  0  0  0  0  0  0  0  0  0  0  0
  139.8715   76.5090  223.3496 H   0  0  0  0  0  0  0  0  0  0  0  0
  137.1880   76.3740  222.4020 H   0  0  0  0  0  0  0  0  0  0  0  0
  138.2200   75.1420  223.1120 H   0  0  0  0  0  0  0  0  0  0  0  0
  136.9270   78.5048  222.9866 H   0  0  0  0  0  0  0  0  0  0  0  0
  136.8900   80.8993  223.4694 H   0  0  0  0  0  0  0  0  0  0  0  0
  139.0012   82.1944  223.7281 H   0  0  0  0  0  0  0  0  0  0  0  0
  141.3059   82.2495  223.7459 H   0  0  0  0  0  0  0  0  0  0  0  0
  143.5346   81.1474  223.5315 H   0  0  0  0  0  0  0  0  0  0  0  0
  143.6071   78.7154  223.0442 H   0  0  0  0  0  0  0  0  0  0  0  0
  141.5484   77.4192  222.7694 H   0  0  0  0  0  0  0  0  0  0  0  0
  141.6638   76.0834  218.9256 H   0  0  0  0  0  0  0  0  0  0  0  0
  142.1783   77.0196  220.3273 H   0  0  0  0  0  0  0  0  0  0  0  0
  144.2271   76.3019  219.1203 H   0  0  0  0  0  0  0  0  0  0  0  0
  144.1536   75.3210  220.5977 H   0  0  0  0  0  0  0  0  0  0  0  0
  1  2  1  0
  2  3  1  0
  3  4  2  0
  3  5  1  0
  5  6  1  0
  6  7  2  0
  7  8  1  0
  8  9  2  0
  9 10  1  0
 10 11  2  0
  5 12  1  0
 12 13  1  0
 13 14  1  0
 14 15  1  0
 15 16  1  0
 16 17  2  0
 16 18  1  0
 18 19  1  0
 19 20  1  0
 19 21  1  0
 21 22  2  0
 22 23  1  0
 23 24  2  0
 24 25  1  0
 25 26  2  0
 26 27  1  0
 27 28  2  0
 28 29  1  0
 29 30  2  0
 15 31  1  0
 31 32  1  0
 11  6  1  0
 32 12  1  0
 30 21  1  0
 30 25  1  0
  1 33  1  0
  1 34  1  0
  1 35  1  0
  2 36  1  0
  2 37  1  0
  7 38  1  0
  8 39  1  0
  9 40  1  0
 10 41  1  0
 11 42  1  0
 12 43  1  0
 13 44  1  0
 13 45  1  0
 14 46  1  0
 14 47  1  0
 18 48  1  0
 18 49  1  0
 19 50  1  1
 20 51  1  0
 20 52  1  0
 22 53  1  0
 23 54  1  0
 24 55  1  0
 26 56  1  0
 27 57  1  0
 28 58  1  0
 29 59  1  0
 31 60  1  0
 31 61  1  0
 32 62  1  0
 32 63  1  0
M  END
>  <smiles>  (27) 
CCC(=O)N(c1ccccc1)C1CCN(C(=O)CC(N)c2cccc3ccccc23)CC1

>  <score_type>  (27) 
oracle

>  <origin>  (27) 
autodockgpu

>  <m_score__min__energy>  (27) 
-9.4000000000000004

>  <m_primary>  (27) 
energy

>  <rmsd>  (27) 
4.045660233447223

>  <m_score__min__rmsd>  (27) 
4.045660233447223

>  <meeko>  (27) 
{"free_energy": -8.32, "intermolecular_energy": -10.7, "internal_energy": -2.14, "cluster_size": 4, "cluster_id": 5, "rank_in_cluster": 1}

>  <energy>  (27) 
-8.17

>  <cluster_rmsd>  (27) 
1.83

>  <cluster>  (27) 
2

$$$$

     RDKit          3D

 63 66  0  0  0  0  0  0  0  0999 V2000
  142.3180   80.7390  223.5140 C   0  0  0  0  0  0  0  0  0  0  0  0
  142.5750   79.4200  222.8440 C   0  0  0  0  0  0  0  0  0  0  0  0
  141.3470   78.6100  222.6930 C   0  0  0  0  0  0  0  0  0  0  0  0
  140.4200   78.8200  223.5250 O   0  0  0  0  0  0  0  0  0  0  0  0
  141.2010   77.6330  221.6590 N   0  0  0  0  0  0  0  0  0  0  0  0
  141.5360   78.0000  220.3260 C   0  0  0  0  0  0  0  0  0  0  0  0
  142.5820   77.3500  219.6910 C   0  0  0  0  0  0  0  0  0  0  0  0
  142.9040   77.7080  218.3990 C   0  0  0  0  0  0  0  0  0  0  0  0
  142.1790   78.7000  217.7730 C   0  0  0  0  0  0  0  0  0  0  0  0
  141.1270   79.3610  218.3940 C   0  0  0  0  0  0  0  0  0  0  0  0
  140.8020   78.9990  219.7020 C   0  0  0  0  0  0  0  0  0  0  0  0
  140.7140   76.3130  222.0210 C   0  0  0  0  0  0  0  0  0  0  0  0
  139.2150   76.2910  222.0870 C   0  0  0  0  0  0  0  0  0  0  0  0
  138.6880   75.0690  221.4000 C   0  0  0  0  0  0  0  0  0  0  0  0
  139.3880   73.8460  221.7190 N   0  0  0  0  0  0  0  0  0  0  0  0
  138.6730   72.6400  221.9530 C   0  0  0  0  0  0  0  0  0  0  0  0
  137.4190   72.6790  221.8750 O   0  0  0  0  0  0  0  0  0  0  0  0
  139.4210   71.3820  222.2800 C   0  0  0  0  0  0  0  0  0  0  0  0
  138.7940   70.8180  223.5310 C   0  0  2  0  0  0  0  0  0  0  0  0
  137.4460   71.2200  223.7710 N   0  0  0  0  0  0  0  0  0  0  0  0
  139.6840   70.8000  224.7030 C   0  0  0  0  0  0  0  0  0  0  0  0
  140.4840   71.8880  225.0700 C   0  0  0  0  0  0  0  0  0  0  0  0
  141.3210   71.8530  226.1620 C   0  0  0  0  0  0  0  0  0  0  0  0
  141.4190   70.7340  226.9610 C   0  0  0  0  0  0  0  0  0  0  0  0
  140.6400   69.6510  226.6190 C   0  0  0  0  0  0  0  0  0  0  0  0
  140.7440   68.5340  227.4330 C   0  0  0  0  0  0  0  0  0  0  0  0
  139.9980   67.4030  227.1700 C   0  0  0  0  0  0  0  0  0  0  0  0
  139.1590   67.4320  226.0820 C   0  0  0  0  0  0  0  0  0  0  0  0
  139.0630   68.5450  225.2770 C   0  0  0  0  0  0  0  0  0  0  0  0
  139.7990   69.6870  225.5220 C   0  0  0  0  0  0  0  0  0  0  0  0
  140.8350   73.9110  221.7850 C   0  0  0  0  0  0  0  0  0  0  0  0
  141.1960   75.2420  221.1160 C   0  0  0  0  0  0  0  0  0  0  0  0
  142.3437   80.6069  224.6057 H   0  0  0  0  0  0  0  0  0  0  0  0
  143.0926   81.4600  223.2136 H   0  0  0  0  0  0  0  0  0  0  0  0
  141.3294   81.1164  223.2136 H   0  0  0  0  0  0  0  0  0  0  0  0
  142.9978   79.6082  221.8461 H   0  0  0  0  0  0  0  0  0  0  0  0
  143.2716   78.8536  223.4796 H   0  0  0  0  0  0  0  0  0  0  0  0
  143.1465   76.5609  220.2094 H   0  0  0  0  0  0  0  0  0  0  0  0
  143.7305   77.2076  217.8732 H   0  0  0  0  0  0  0  0  0  0  0  0
  142.4439   78.9785  216.7423 H   0  0  0  0  0  0  0  0  0  0  0  0
  140.5656   80.1481  217.8693 H   0  0  0  0  0  0  0  0  0  0  0  0
  139.9764   79.4980  220.2305 H   0  0  0  0  0  0  0  0  0  0  0  0
  141.1281   76.1032  223.0183 H   0  0  0  0  0  0  0  0  0  0  0  0
  138.8972   76.2820  223.1401 H   0  0  0  0  0  0  0  0  0  0  0  0
  138.8191   77.1858  221.5844 H   0  0  0  0  0  0  0  0  0  0  0  0
  137.6330   74.9440  221.6853 H   0  0  0  0  0  0  0  0  0  0  0  0
  138.8289   75.2346  220.3217 H   0  0  0  0  0  0  0  0  0  0  0  0
  139.3316   70.6619  221.4533 H   0  0  0  0  0  0  0  0  0  0  0  0
  140.4914   71.5858  222.4310 H   0  0  0  0  0  0  0  0  0  0  0  0
  138.6682   69.7486  223.3060 H   0  0  0  0  0  0  0  0  0  0  0  0
  137.4340   72.2180  224.0090 H   0  0  0  0  0  0  0  0  0  0  0  0
  136.8520   70.9030  223.0000 H   0  0  0  0  0  0  0  0  0  0  0  0
  140.4423   72.8048  224.4635 H   0  0  0  0  0  0  0  0  0  0  0  0
  141.9263   72.7393  226.4030 H   0  0  0  0  0  0  0  0  0  0  0  0
  142.0894   70.7073  227.8327 H   0  0  0  0  0  0  0  0  0  0  0  0
  141.4266   68.5490  228.2955 H   0  0  0  0  0  0  0  0  0  0  0  0
  140.0723   66.5103  227.8084 H   0  0  0  0  0  0  0  0  0  0  0  0
  138.5503   66.5459  225.8489 H   0  0  0  0  0  0  0  0  0  0  0  0
  138.3807   68.5236  224.4144 H   0  0  0  0  0  0  0  0  0  0  0  0
  141.1766   73.8972  222.8305 H   0  0  0  0  0  0  0  0  0  0  0  0
  141.3130   73.0532  221.2894 H   0  0  0  0  0  0  0  0  0  0  0  0
  142.2854   75.3178  220.9841 H   0  0  0  0  0  0  0  0  0  0  0  0
  140.7346   75.3248  220.1209 H   0  0  0  0  0  0  0  0  0  0  0  0
  1  2  1  0
  2  3  1  0
  3  4  2  0
  3  5  1  0
  5  6  1  0
  6  7  2  0
  7  8  1  0
  8  9  2  0
  9 10  1  0
 10 11  2  0
  5 12  1  0
 12 13  1  0
 13 14  1  0
 14 15  1  0
 15 16  1  0
 16 17  2  0
 16 18  1  0
 18 19  1  0
 19 20  1  0
 19 21  1  0
 21 22  2  0
 22 23  1  0
 23 24  2  0
 24 25  1  0
 25 26  2  0
 26 27  1  0
 27 28  2  0
 28 29  1  0
 29 30  2  0
 15 31  1  0
 31 32  1  0
 11  6  1  0
 32 12  1  0
 30 21  1  0
 30 25  1  0
  1 33  1  0
  1 34  1  0
  1 35  1  0
  2 36  1  0
  2 37  1  0
  7 38  1  0
  8 39  1  0
  9 40  1  0
 10 41  1  0
 11 42  1  0
 12 43  1  0
 13 44  1  0
 13 45  1  0
 14 46  1  0
 14 47  1  0
 18 48  1  0
 18 49  1  0
 19 50  1  6
 20 51  1  0
 20 52  1  0
 22 53  1  0
 23 54  1  0
 24 55  1  0
 26 56  1  0
 27 57  1  0
 28 58  1  0
 29 59  1  0
 31 60  1  0
 31 61  1  0
 32 62  1  0
 32 63  1  0
M  END
>  <smiles>  (28) 
CCC(=O)N(c1ccccc1)C1CCN(C(=O)CC(N)c2cccc3ccccc23)CC1

>  <score_type>  (28) 
oracle

>  <origin>  (28) 
autodockgpu

>  <m_score__min__energy>  (28) 
-9.4000000000000004

>  <m_primary>  (28) 
energy

>  <rmsd>  (28) 
8.005763062651658

>  <m_score__min__rmsd>  (28) 
8.005763062651658

>  <meeko>  (28) 
{"free_energy": -8.54, "intermolecular_energy": -10.93, "internal_energy": -2.19, "cluster_size": 3, "cluster_id": 4, "rank_in_cluster": 1}

>  <energy>  (28) 
-8.05

>  <cluster_rmsd>  (28) 
1.74

>  <cluster>  (28) 
2

$$$$

     RDKit          3D

 63 66  0  0  0  0  0  0  0  0999 V2000
  143.3270   76.3780  219.5900 C   0  0  0  0  0  0  0  0  0  0  0  0
  142.4430   77.4550  219.0310 C   0  0  0  0  0  0  0  0  0  0  0  0
  141.1500   77.5560  219.7420 C   0  0  0  0  0  0  0  0  0  0  0  0
  140.1300   77.8020  219.0390 O   0  0  0  0  0  0  0  0  0  0  0  0
  141.0440   77.3840  221.1580 N   0  0  0  0  0  0  0  0  0  0  0  0
  141.4390   78.4580  222.0030 C   0  0  0  0  0  0  0  0  0  0  0  0
  141.7630   79.6790  221.4340 C   0  0  0  0  0  0  0  0  0  0  0  0
  142.1440   80.7180  222.2560 C   0  0  0  0  0  0  0  0  0  0  0  0
  142.1950   80.5170  223.6180 C   0  0  0  0  0  0  0  0  0  0  0  0
  141.8740   79.3000  224.2060 C   0  0  0  0  0  0  0  0  0  0  0  0
  141.4870   78.2490  223.3740 C   0  0  0  0  0  0  0  0  0  0  0  0
  140.5380   76.1200  221.6630 C   0  0  0  0  0  0  0  0  0  0  0  0
  139.1890   76.2940  222.2980 C   0  0  0  0  0  0  0  0  0  0  0  0
  138.2650   75.2040  221.8500 C   0  0  0  0  0  0  0  0  0  0  0  0
  138.8420   73.8800  221.8620 N   0  0  0  0  0  0  0  0  0  0  0  0
  138.0960   72.7660  222.3370 C   0  0  0  0  0  0  0  0  0  0  0  0
  136.9260   72.9780  222.7460 O   0  0  0  0  0  0  0  0  0  0  0  0
  138.7140   71.4010  222.3360 C   0  0  0  0  0  0  0  0  0  0  0  0
  139.8200   71.4250  223.3620 C   0  0  2  0  0  0  0  0  0  0  0  0
  141.1370   71.5710  222.8340 N   0  0  0  0  0  0  0  0  0  0  0  0
  139.6620   70.4490  224.4520 C   0  0  0  0  0  0  0  0  0  0  0  0
  139.0280   69.2130  224.2820 C   0  0  0  0  0  0  0  0  0  0  0  0
  138.8750   68.3140  225.3130 C   0  0  0  0  0  0  0  0  0  0  0  0
  139.3430   68.5840  226.5810 C   0  0  0  0  0  0  0  0  0  0  0  0
  139.9710   69.7950  226.7710 C   0  0  0  0  0  0  0  0  0  0  0  0
  140.4410   70.0530  228.0500 C   0  0  0  0  0  0  0  0  0  0  0  0
  141.0880   71.2390  228.3330 C   0  0  0  0  0  0  0  0  0  0  0  0
  141.2440   72.1400  227.3080 C   0  0  0  0  0  0  0  0  0  0  0  0
  140.7730   71.8770  226.0410 C   0  0  0  0  0  0  0  0  0  0  0  0
  140.1240   70.6970  225.7350 C   0  0  0  0  0  0  0  0  0  0  0  0
  140.1990   73.7450  221.3690 C   0  0  0  0  0  0  0  0  0  0  0  0
  140.4760   75.0580  220.6300 C   0  0  0  0  0  0  0  0  0  0  0  0
  143.2979   76.4134  220.6890 H   0  0  0  0  0  0  0  0  0  0  0  0
  142.9712   75.3959  219.2453 H   0  0  0  0  0  0  0  0  0  0  0  0
  144.3596   76.5355  219.2453 H   0  0  0  0  0  0  0  0  0  0  0  0
  142.9667   78.4188  219.1137 H   0  0  0  0  0  0  0  0  0  0  0  0
  142.2277   77.1987  217.9832 H   0  0  0  0  0  0  0  0  0  0  0  0
  141.7170   79.8171  220.3437 H   0  0  0  0  0  0  0  0  0  0  0  0
  142.4046   81.6976  221.8288 H   0  0  0  0  0  0  0  0  0  0  0  0
  142.5017   81.3523  224.2647 H   0  0  0  0  0  0  0  0  0  0  0  0
  141.9235   79.1687  225.2970 H   0  0  0  0  0  0  0  0  0  0  0  0
  141.2238   77.2690  223.7986 H   0  0  0  0  0  0  0  0  0  0  0  0
  141.2618   75.7897  222.4226 H   0  0  0  0  0  0  0  0  0  0  0  0
  139.2942   76.2549  223.3923 H   0  0  0  0  0  0  0  0  0  0  0  0
  138.7718   77.2662  221.9966 H   0  0  0  0  0  0  0  0  0  0  0  0
  137.3894   75.2021  222.5158 H   0  0  0  0  0  0  0  0  0  0  0  0
  138.0119   75.4228  220.8021 H   0  0  0  0  0  0  0  0  0  0  0  0
  137.9626   70.6445  222.6062 H   0  0  0  0  0  0  0  0  0  0  0  0
  139.1038   71.1439  221.3400 H   0  0  0  0  0  0  0  0  0  0  0  0
  139.6818   72.3866  223.8780 H   0  0  0  0  0  0  0  0  0  0  0  0
  141.1610   71.1760  221.8870 H   0  0  0  0  0  0  0  0  0  0  0  0
  141.4510   72.5360  222.9600 H   0  0  0  0  0  0  0  0  0  0  0  0
  138.6375   68.9503  223.2878 H   0  0  0  0  0  0  0  0  0  0  0  0
  138.3672   67.3574  225.1204 H   0  0  0  0  0  0  0  0  0  0  0  0
  139.2205   67.8647  227.4041 H   0  0  0  0  0  0  0  0  0  0  0  0
  140.2971   69.3067  228.8452 H   0  0  0  0  0  0  0  0  0  0  0  0
  141.4653   71.4549  229.3435 H   0  0  0  0  0  0  0  0  0  0  0  0
  141.7568   73.0933  227.5037 H   0  0  0  0  0  0  0  0  0  0  0  0
  140.9178   72.6280  225.2504 H   0  0  0  0  0  0  0  0  0  0  0  0
  140.9036   73.6132  222.2033 H   0  0  0  0  0  0  0  0  0  0  0  0
  140.3200   72.8669  220.7176 H   0  0  0  0  0  0  0  0  0  0  0  0
  141.4331   74.9959  220.0915 H   0  0  0  0  0  0  0  0  0  0  0  0
  139.6907   75.2700  219.8895 H   0  0  0  0  0  0  0  0  0  0  0  0
  1  2  1  0
  2  3  1  0
  3  4  2  0
  3  5  1  0
  5  6  1  0
  6  7  2  0
  7  8  1  0
  8  9  2  0
  9 10  1  0
 10 11  2  0
  5 12  1  0
 12 13  1  0
 13 14  1  0
 14 15  1  0
 15 16  1  0
 16 17  2  0
 16 18  1  0
 18 19  1  0
 19 20  1  0
 19 21  1  0
 21 22  2  0
 22 23  1  0
 23 24  2  0
 24 25  1  0
 25 26  2  0
 26 27  1  0
 27 28  2  0
 28 29  1  0
 29 30  2  0
 15 31  1  0
 31 32  1  0
 11  6  1  0
 32 12  1  0
 30 21  1  0
 30 25  1  0
  1 33  1  0
  1 34  1  0
  1 35  1  0
  2 36  1  0
  2 37  1  0
  7 38  1  0
  8 39  1  0
  9 40  1  0
 10 41  1  0
 11 42  1  0
 12 43  1  0
 13 44  1  0
 13 45  1  0
 14 46  1  0
 14 47  1  0
 18 48  1  0
 18 49  1  0
 19 50  1  1
 20 51  1  0
 20 52  1  0
 22 53  1  0
 23 54  1  0
 24 55  1  0
 26 56  1  0
 27 57  1  0
 28 58  1  0
 29 59  1  0
 31 60  1  0
 31 61  1  0
 32 62  1  0
 32 63  1  0
M  END
>  <smiles>  (29) 
CCC(=O)N(c1ccccc1)C1CCN(C(=O)CC(N)c2cccc3ccccc23)CC1

>  <score_type>  (29) 
oracle

>  <origin>  (29) 
autodockgpu

>  <m_score__min__energy>  (29) 
-9.4000000000000004

>  <m_primary>  (29) 
energy

>  <rmsd>  (29) 
8.699082023779173

>  <m_score__min__rmsd>  (29) 
8.699082023779173

>  <meeko>  (29) 
{"free_energy": -8.98, "intermolecular_energy": -11.37, "internal_energy": -1.31, "cluster_size": 22, "cluster_id": 1, "rank_in_cluster": 8}

>  <energy>  (29) 
-7.97

>  <cluster_rmsd>  (29) 
1.66

>  <cluster>  (29) 
2

$$$$

     RDKit          3D

 63 66  0  0  0  0  0  0  0  0999 V2000
  138.5530   67.8660  222.6610 C   0  0  0  0  0  0  0  0  0  0  0  0
  138.8450   69.2520  222.1620 C   0  0  0  0  0  0  0  0  0  0  0  0
  138.4850   70.2970  223.1440 C   0  0  0  0  0  0  0  0  0  0  0  0
  137.2530   70.4750  223.3610 O   0  0  0  0  0  0  0  0  0  0  0  0
  139.4720   71.0760  223.8260 N   0  0  0  0  0  0  0  0  0  0  0  0
  139.8970   70.6540  225.1160 C   0  0  0  0  0  0  0  0  0  0  0  0
  140.6660   71.5120  225.8860 C   0  0  0  0  0  0  0  0  0  0  0  0
  141.0740   71.1000  227.1360 C   0  0  0  0  0  0  0  0  0  0  0  0
  140.7100   69.8500  227.5890 C   0  0  0  0  0  0  0  0  0  0  0  0
  139.9390   68.9770  226.8300 C   0  0  0  0  0  0  0  0  0  0  0  0
  139.5250   69.3940  225.5650 C   0  0  0  0  0  0  0  0  0  0  0  0
  139.9910   72.2620  223.1660 C   0  0  0  0  0  0  0  0  0  0  0  0
  141.2000   71.9320  222.3400 C   0  0  0  0  0  0  0  0  0  0  0  0
  141.1030   72.5950  221.0000 C   0  0  0  0  0  0  0  0  0  0  0  0
  140.6750   73.9750  221.0380 N   0  0  0  0  0  0  0  0  0  0  0  0
  141.2990   74.9510  220.2140 C   0  0  0  0  0  0  0  0  0  0  0  0
  142.2320   74.5710  219.4610 O   0  0  0  0  0  0  0  0  0  0  0  0
  140.8370   76.3760  220.2670 C   0  0  0  0  0  0  0  0  0  0  0  0
  141.9620   77.2170  219.7150 C   0  0  2  0  0  0  0  0  0  0  0  0
  143.2710   76.6810  219.9020 N   0  0  0  0  0  0  0  0  0  0  0  0
  141.8130   78.6620  219.9480 C   0  0  0  0  0  0  0  0  0  0  0  0
  141.7380   79.5980  218.9090 C   0  0  0  0  0  0  0  0  0  0  0  0
  141.6120   80.9490  219.1420 C   0  0  0  0  0  0  0  0  0  0  0  0
  141.5520   81.4590  220.4200 C   0  0  0  0  0  0  0  0  0  0  0  0
  141.6230   80.5560  221.4580 C   0  0  0  0  0  0  0  0  0  0  0  0
  141.5570   81.0820  222.7400 C   0  0  0  0  0  0  0  0  0  0  0  0
  141.6170   80.2520  223.8410 C   0  0  0  0  0  0  0  0  0  0  0  0
  141.7420   78.9020  223.6160 C   0  0  0  0  0  0  0  0  0  0  0  0
  141.8080   78.3890  222.3400 C   0  0  0  0  0  0  0  0  0  0  0  0
  141.7500   79.2000  221.2240 C   0  0  0  0  0  0  0  0  0  0  0  0
  139.5920   74.3070  221.9420 C   0  0  0  0  0  0  0  0  0  0  0  0
  138.9820   72.9560  222.3310 C   0  0  0  0  0  0  0  0  0  0  0  0
  138.5527   67.8648  223.7610 H   0  0  0  0  0  0  0  0  0  0  0  0
  137.5673   67.5442  222.2937 H   0  0  0  0  0  0  0  0  0  0  0  0
  139.3250   67.1738  222.2937 H   0  0  0  0  0  0  0  0  0  0  0  0
  139.9205   69.3288  221.9440 H   0  0  0  0  0  0  0  0  0  0  0  0
  138.2359   69.4172  221.2611 H   0  0  0  0  0  0  0  0  0  0  0  0
  140.9460   72.5054  225.5057 H   0  0  0  0  0  0  0  0  0  0  0  0
  141.6847   71.7627  227.7668 H   0  0  0  0  0  0  0  0  0  0  0  0
  141.0419   69.5314  228.5882 H   0  0  0  0  0  0  0  0  0  0  0  0
  139.6630   67.9848  227.2164 H   0  0  0  0  0  0  0  0  0  0  0  0
  138.9128   68.7343  224.9325 H   0  0  0  0  0  0  0  0  0  0  0  0
  140.2748   72.9554  223.9714 H   0  0  0  0  0  0  0  0  0  0  0  0
  142.1029   72.2879  222.8578 H   0  0  0  0  0  0  0  0  0  0  0  0
  141.2546   70.8423  222.2000 H   0  0  0  0  0  0  0  0  0  0  0  0
  142.0951   72.5570  220.5264 H   0  0  0  0  0  0  0  0  0  0  0  0
  140.3332   72.0466  220.4373 H   0  0  0  0  0  0  0  0  0  0  0  0
  139.9321   76.5042  219.6549 H   0  0  0  0  0  0  0  0  0  0  0  0
  140.5887   76.6736  221.2964 H   0  0  0  0  0  0  0  0  0  0  0  0
  141.8443   77.1350  218.6244 H   0  0  0  0  0  0  0  0  0  0  0  0
  143.2740   76.0980  220.7460 H   0  0  0  0  0  0  0  0  0  0  0  0
  143.5970   76.2610  219.0270 H   0  0  0  0  0  0  0  0  0  0  0  0
  141.7813   79.2409  217.8695 H   0  0  0  0  0  0  0  0  0  0  0  0
  141.5579   81.6382  218.2863 H   0  0  0  0  0  0  0  0  0  0  0  0
  141.4519   82.5389  220.6036 H   0  0  0  0  0  0  0  0  0  0  0  0
  141.4561   82.1684  222.8800 H   0  0  0  0  0  0  0  0  0  0  0  0
  141.5666   80.6567  224.8626 H   0  0  0  0  0  0  0  0  0  0  0  0
  141.7904   78.2160  224.4745 H   0  0  0  0  0  0  0  0  0  0  0  0
  141.9098   77.3020  222.2058 H   0  0  0  0  0  0  0  0  0  0  0  0
  139.9750   74.8300  222.8307 H   0  0  0  0  0  0  0  0  0  0  0  0
  138.8544   74.9788  221.4788 H   0  0  0  0  0  0  0  0  0  0  0  0
  138.0552   73.1085  222.9035 H   0  0  0  0  0  0  0  0  0  0  0  0
  138.7283   72.3633  221.4397 H   0  0  0  0  0  0  0  0  0  0  0  0
  1  2  1  0
  2  3  1  0
  3  4  2  0
  3  5  1  0
  5  6  1  0
  6  7  2  0
  7  8  1  0
  8  9  2  0
  9 10  1  0
 10 11  2  0
  5 12  1  0
 12 13  1  0
 13 14  1  0
 14 15  1  0
 15 16  1  0
 16 17  2  0
 16 18  1  0
 18 19  1  0
 19 20  1  0
 19 21  1  0
 21 22  2  0
 22 23  1  0
 23 24  2  0
 24 25  1  0
 25 26  2  0
 26 27  1  0
 27 28  2  0
 28 29  1  0
 29 30  2  0
 15 31  1  0
 31 32  1  0
 11  6  1  0
 32 12  1  0
 30 21  1  0
 30 25  1  0
  1 33  1  0
  1 34  1  0
  1 35  1  0
  2 36  1  0
  2 37  1  0
  7 38  1  0
  8 39  1  0
  9 40  1  0
 10 41  1  0
 11 42  1  0
 12 43  1  0
 13 44  1  0
 13 45  1  0
 14 46  1  0
 14 47  1  0
 18 48  1  0
 18 49  1  0
 19 50  1  6
 20 51  1  0
 20 52  1  0
 22 53  1  0
 23 54  1  0
 24 55  1  0
 26 56  1  0
 27 57  1  0
 28 58  1  0
 29 59  1  0
 31 60  1  0
 31 61  1  0
 32 62  1  0
 32 63  1  0
M  END
>  <smiles>  (30) 
CCC(=O)N(c1ccccc1)C1CCN(C(=O)CC(N)c2cccc3ccccc23)CC1

>  <score_type>  (30) 
oracle

>  <origin>  (30) 
autodockgpu

>  <m_score__min__energy>  (30) 
-9.4000000000000004

>  <m_primary>  (30) 
energy

>  <rmsd>  (30) 
5.021971510246693

>  <m_score__min__rmsd>  (30) 
5.021971510246693

>  <meeko>  (30) 
{"free_energy": -7.88, "intermolecular_energy": -10.26, "internal_energy": -2.12, "cluster_size": 4, "cluster_id": 8, "rank_in_cluster": 4}

>  <energy>  (30) 
-8.55

>  <cluster_rmsd>  (30) 
0.0

>  <cluster>  (30) 
3

$$$$

     RDKit          3D

 63 66  0  0  0  0  0  0  0  0999 V2000
  143.3840   76.4400  219.3260 C   0  0  0  0  0  0  0  0  0  0  0  0
  142.4150   77.5330  218.9760 C   0  0  0  0  0  0  0  0  0  0  0  0
  141.1770   77.4750  219.7820 C   0  0  0  0  0  0  0  0  0  0  0  0
  140.0840   77.5840  219.1570 O   0  0  0  0  0  0  0  0  0  0  0  0
  141.1980   77.3020  221.2020 N   0  0  0  0  0  0  0  0  0  0  0  0
  141.5010   78.4270  222.0180 C   0  0  0  0  0  0  0  0  0  0  0  0
  141.5090   78.2770  223.3950 C   0  0  0  0  0  0  0  0  0  0  0  0
  141.8050   79.3700  224.1820 C   0  0  0  0  0  0  0  0  0  0  0  0
  142.0840   80.5790  223.5830 C   0  0  0  0  0  0  0  0  0  0  0  0
  142.0810   80.7470  222.2040 C   0  0  0  0  0  0  0  0  0  0  0  0
  141.7820   79.6410  221.4070 C   0  0  0  0  0  0  0  0  0  0  0  0
  140.9100   75.9830  221.7400 C   0  0  0  0  0  0  0  0  0  0  0  0
  139.5050   75.9100  222.2630 C   0  0  0  0  0  0  0  0  0  0  0  0
  138.8540   74.6390  221.8110 C   0  0  0  0  0  0  0  0  0  0  0  0
  139.6770   73.4590  221.9410 N   0  0  0  0  0  0  0  0  0  0  0  0
  139.1270   72.2400  222.4230 C   0  0  0  0  0  0  0  0  0  0  0  0
  137.9090   72.2290  222.7320 O   0  0  0  0  0  0  0  0  0  0  0  0
  139.9990   71.0270  222.5470 C   0  0  0  0  0  0  0  0  0  0  0  0
  139.4920   70.2480  223.7350 C   0  0  2  0  0  0  0  0  0  0  0  0
  138.0810   70.0410  223.7700 N   0  0  0  0  0  0  0  0  0  0  0  0
  140.1270   70.6050  225.0130 C   0  0  0  0  0  0  0  0  0  0  0  0
  140.6180   71.8860  225.2890 C   0  0  0  0  0  0  0  0  0  0  0  0
  141.2220   72.2030  226.4850 C   0  0  0  0  0  0  0  0  0  0  0  0
  141.3770   71.2680  227.4850 C   0  0  0  0  0  0  0  0  0  0  0  0
  140.9000   70.0000  227.2360 C   0  0  0  0  0  0  0  0  0  0  0  0
  141.0580   69.0700  228.2530 C   0  0  0  0  0  0  0  0  0  0  0  0
  140.6070   67.7760  228.0940 C   0  0  0  0  0  0  0  0  0  0  0  0
  140.0020   67.4530  226.9020 C   0  0  0  0  0  0  0  0  0  0  0  0
  139.8510   68.3820  225.8980 C   0  0  0  0  0  0  0  0  0  0  0  0
  140.2940   69.6830  226.0350 C   0  0  0  0  0  0  0  0  0  0  0  0
  141.0700   73.5790  221.5580 C   0  0  0  0  0  0  0  0  0  0  0  0
  141.1450   74.8890  220.7680 C   0  0  0  0  0  0  0  0  0  0  0  0
  143.4602   76.3540  220.4200 H   0  0  0  0  0  0  0  0  0  0  0  0
  143.0287   75.4870  218.9072 H   0  0  0  0  0  0  0  0  0  0  0  0
  144.3728   76.6786  218.9072 H   0  0  0  0  0  0  0  0  0  0  0  0
  142.9022   78.5041  219.1480 H   0  0  0  0  0  0  0  0  0  0  0  0
  142.1321   77.4021  217.9211 H   0  0  0  0  0  0  0  0  0  0  0  0
  141.2831   77.3027  223.8529 H   0  0  0  0  0  0  0  0  0  0  0  0
  141.8182   79.2775  225.2780 H   0  0  0  0  0  0  0  0  0  0  0  0
  142.3180   81.4441  224.2209 H   0  0  0  0  0  0  0  0  0  0  0  0
  142.3079   81.7243  221.7529 H   0  0  0  0  0  0  0  0  0  0  0  0
  141.7692   79.7302  220.3107 H   0  0  0  0  0  0  0  0  0  0  0  0
  141.6184   75.8353  222.5685 H   0  0  0  0  0  0  0  0  0  0  0  0
  139.5239   75.9383  223.3625 H   0  0  0  0  0  0  0  0  0  0  0  0
  138.9317   76.7657  221.8769 H   0  0  0  0  0  0  0  0  0  0  0  0
  137.9433   74.4890  222.4095 H   0  0  0  0  0  0  0  0  0  0  0  0
  138.6514   74.7592  220.7365 H   0  0  0  0  0  0  0  0  0  0  0  0
  139.9297   70.4156  221.6352 H   0  0  0  0  0  0  0  0  0  0  0  0
  141.0536   71.3099  222.6803 H   0  0  0  0  0  0  0  0  0  0  0  0
  139.8602   69.2265  223.5591 H   0  0  0  0  0  0  0  0  0  0  0  0
  137.6580   70.7360  224.3960 H   0  0  0  0  0  0  0  0  0  0  0  0
  137.7210   69.9750  222.8140 H   0  0  0  0  0  0  0  0  0  0  0  0
  140.5177   72.6684  224.5223 H   0  0  0  0  0  0  0  0  0  0  0  0
  141.5896   73.2272  226.6460 H   0  0  0  0  0  0  0  0  0  0  0  0
  141.8602   71.5228  228.4398 H   0  0  0  0  0  0  0  0  0  0  0  0
  141.5464   69.3664  229.1930 H   0  0  0  0  0  0  0  0  0  0  0  0
  140.7271   67.0290  228.8924 H   0  0  0  0  0  0  0  0  0  0  0  0
  139.6305   66.4292  226.7476 H   0  0  0  0  0  0  0  0  0  0  0  0
  139.3635   68.0797  224.9594 H   0  0  0  0  0  0  0  0  0  0  0  0
  141.7144   73.6255  222.4483 H   0  0  0  0  0  0  0  0  0  0  0  0
  141.4150   72.7171  220.9680 H   0  0  0  0  0  0  0  0  0  0  0  0
  142.1376   74.9978  220.3066 H   0  0  0  0  0  0  0  0  0  0  0  0
  140.3987   74.9086  219.9602 H   0  0  0  0  0  0  0  0  0  0  0  0
  1  2  1  0
  2  3  1  0
  3  4  2  0
  3  5  1  0
  5  6  1  0
  6  7  2  0
  7  8  1  0
  8  9  2  0
  9 10  1  0
 10 11  2  0
  5 12  1  0
 12 13  1  0
 13 14  1  0
 14 15  1  0
 15 16  1  0
 16 17  2  0
 16 18  1  0
 18 19  1  0
 19 20  1  0
 19 21  1  0
 21 22  2  0
 22 23  1  0
 23 24  2  0
 24 25  1  0
 25 26  2  0
 26 27  1  0
 27 28  2  0
 28 29  1  0
 29 30  2  0
 15 31  1  0
 31 32  1  0
 11  6  1  0
 32 12  1  0
 30 21  1  0
 30 25  1  0
  1 33  1  0
  1 34  1  0
  1 35  1  0
  2 36  1  0
  2 37  1  0
  7 38  1  0
  8 39  1  0
  9 40  1  0
 10 41  1  0
 11 42  1  0
 12 43  1  0
 13 44  1  0
 13 45  1  0
 14 46  1  0
 14 47  1  0
 18 48  1  0
 18 49  1  0
 19 50  1  6
 20 51  1  0
 20 52  1  0
 22 53  1  0
 23 54  1  0
 24 55  1  0
 26 56  1  0
 27 57  1  0
 28 58  1  0
 29 59  1  0
 31 60  1  0
 31 61  1  0
 32 62  1  0
 32 63  1  0
M  END
>  <smiles>  (31) 
CCC(=O)N(c1ccccc1)C1CCN(C(=O)CC(N)c2cccc3ccccc23)CC1

>  <score_type>  (31) 
oracle

>  <origin>  (31) 
autodockgpu

>  <m_score__min__energy>  (31) 
-9.4000000000000004

>  <m_primary>  (31) 
energy

>  <rmsd>  (31) 
8.100864118561969

>  <m_score__min__rmsd>  (31) 
8.100864118561969

>  <meeko>  (31) 
{"free_energy": -9.04, "intermolecular_energy": -11.43, "internal_energy": -2.28, "cluster_size": 22, "cluster_id": 1, "rank_in_cluster": 7}

>  <energy>  (31) 
-8.54

>  <cluster_rmsd>  (31) 
0.0

>  <cluster>  (31) 
4

$$$$

     RDKit          3D

 63 66  0  0  0  0  0  0  0  0999 V2000
  143.5330   76.2200  219.5320 C   0  0  0  0  0  0  0  0  0  0  0  0
  142.4840   77.0970  218.9130 C   0  0  0  0  0  0  0  0  0  0  0  0
  141.1860   77.0140  219.6170 C   0  0  0  0  0  0  0  0  0  0  0  0
  140.1480   76.9810  218.8970 O   0  0  0  0  0  0  0  0  0  0  0  0
  141.0930   76.9700  221.0440 N   0  0  0  0  0  0  0  0  0  0  0  0
  141.4450   78.1330  221.7830 C   0  0  0  0  0  0  0  0  0  0  0  0
  141.7960   79.2850  221.0970 C   0  0  0  0  0  0  0  0  0  0  0  0
  142.1350   80.4110  221.8170 C   0  0  0  0  0  0  0  0  0  0  0  0
  142.1170   80.3640  223.1940 C   0  0  0  0  0  0  0  0  0  0  0  0
  141.7670   79.2180  223.8970 C   0  0  0  0  0  0  0  0  0  0  0  0
  141.4240   78.0780  223.1690 C   0  0  0  0  0  0  0  0  0  0  0  0
  140.6460   75.7360  221.6680 C   0  0  0  0  0  0  0  0  0  0  0  0
  139.1600   75.5710  221.5300 C   0  0  0  0  0  0  0  0  0  0  0  0
  138.8350   74.1680  221.1190 C   0  0  0  0  0  0  0  0  0  0  0  0
  139.5570   73.1450  221.8400 N   0  0  0  0  0  0  0  0  0  0  0  0
  138.8970   71.9640  222.2800 C   0  0  0  0  0  0  0  0  0  0  0  0
  137.6720   71.8490  222.0220 O   0  0  0  0  0  0  0  0  0  0  0  0
  139.6660   70.9140  223.0230 C   0  0  0  0  0  0  0  0  0  0  0  0
  138.6860   70.2280  223.9410 C   0  0  2  0  0  0  0  0  0  0  0  0
  137.5150   70.9810  224.2540 N   0  0  0  0  0  0  0  0  0  0  0  0
  139.3050   69.4980  225.0590 C   0  0  0  0  0  0  0  0  0  0  0  0
  139.2580   68.1040  225.1790 C   0  0  0  0  0  0  0  0  0  0  0  0
  139.8310   67.4350  226.2360 C   0  0  0  0  0  0  0  0  0  0  0  0
  140.4890   68.1070  227.2450 C   0  0  0  0  0  0  0  0  0  0  0  0
  140.5490   69.4790  227.1460 C   0  0  0  0  0  0  0  0  0  0  0  0
  141.2170   70.1430  228.1640 C   0  0  0  0  0  0  0  0  0  0  0  0
  141.3300   71.5180  228.1480 C   0  0  0  0  0  0  0  0  0  0  0  0
  140.7620   72.1920  227.0940 C   0  0  0  0  0  0  0  0  0  0  0  0
  140.0980   71.5250  226.0880 C   0  0  0  0  0  0  0  0  0  0  0  0
  139.9730   70.1500  226.0840 C   0  0  0  0  0  0  0  0  0  0  0  0
  140.9660   73.3770  222.0850 C   0  0  0  0  0  0  0  0  0  0  0  0
  141.3380   74.5320  221.1490 C   0  0  0  0  0  0  0  0  0  0  0  0
  143.4611   76.2801  220.6280 H   0  0  0  0  0  0  0  0  0  0  0  0
  143.3773   75.1795  219.2108 H   0  0  0  0  0  0  0  0  0  0  0  0
  144.5294   76.5576  219.2108 H   0  0  0  0  0  0  0  0  0  0  0  0
  142.8344   78.1393  218.9416 H   0  0  0  0  0  0  0  0  0  0  0  0
  142.3262   76.7504  217.8810 H   0  0  0  0  0  0  0  0  0  0  0  0
  141.8040   79.3007  219.9971 H   0  0  0  0  0  0  0  0  0  0  0  0
  142.4172   81.3383  221.2969 H   0  0  0  0  0  0  0  0  0  0  0  0
  142.3901   81.2681  223.7580 H   0  0  0  0  0  0  0  0  0  0  0  0
  141.7604   79.2095  224.9970 H   0  0  0  0  0  0  0  0  0  0  0  0
  141.1411   77.1495  223.6865 H   0  0  0  0  0  0  0  0  0  0  0  0
  140.9090   75.8250  222.7324 H   0  0  0  0  0  0  0  0  0  0  0  0
  138.6784   75.7885  222.4948 H   0  0  0  0  0  0  0  0  0  0  0  0
  138.7898   76.2664  220.7623 H   0  0  0  0  0  0  0  0  0  0  0  0
  137.7589   74.0048  221.2784 H   0  0  0  0  0  0  0  0  0  0  0  0
  139.1352   74.0757  220.0648 H   0  0  0  0  0  0  0  0  0  0  0  0
  140.0961   70.1883  222.3171 H   0  0  0  0  0  0  0  0  0  0  0  0
  140.4959   71.3591  223.5914 H   0  0  0  0  0  0  0  0  0  0  0  0
  138.2699   69.4176  223.3245 H   0  0  0  0  0  0  0  0  0  0  0  0
  137.7560   71.9780  224.2720 H   0  0  0  0  0  0  0  0  0  0  0  0
  136.7450   70.6840  223.6480 H   0  0  0  0  0  0  0  0  0  0  0  0
  138.7441   67.5222  224.3996 H   0  0  0  0  0  0  0  0  0  0  0  0
  139.7627   66.3379  226.2774 H   0  0  0  0  0  0  0  0  0  0  0  0
  140.9451   67.5711  228.0904 H   0  0  0  0  0  0  0  0  0  0  0  0
  141.6603   69.5688  228.9909 H   0  0  0  0  0  0  0  0  0  0  0  0
  141.8562   72.0556  228.9506 H   0  0  0  0  0  0  0  0  0  0  0  0
  140.8391   73.2885  227.0525 H   0  0  0  0  0  0  0  0  0  0  0  0
  139.6549   72.1043  225.2646 H   0  0  0  0  0  0  0  0  0  0  0  0
  141.1362   73.6581  223.1348 H   0  0  0  0  0  0  0  0  0  0  0  0
  141.5741   72.4791  221.9005 H   0  0  0  0  0  0  0  0  0  0  0  0
  142.4268   74.6885  221.1531 H   0  0  0  0  0  0  0  0  0  0  0  0
  141.0370   74.3165  220.1132 H   0  0  0  0  0  0  0  0  0  0  0  0
  1  2  1  0
  2  3  1  0
  3  4  2  0
  3  5  1  0
  5  6  1  0
  6  7  2  0
  7  8  1  0
  8  9  2  0
  9 10  1  0
 10 11  2  0
  5 12  1  0
 12 13  1  0
 13 14  1  0
 14 15  1  0
 15 16  1  0
 16 17  2  0
 16 18  1  0
 18 19  1  0
 19 20  1  0
 19 21  1  0
 21 22  2  0
 22 23  1  0
 23 24  2  0
 24 25  1  0
 25 26  2  0
 26 27  1  0
 27 28  2  0
 28 29  1  0
 29 30  2  0
 15 31  1  0
 31 32  1  0
 11  6  1  0
 32 12  1  0
 30 21  1  0
 30 25  1  0
  1 33  1  0
  1 34  1  0
  1 35  1  0
  2 36  1  0
  2 37  1  0
  7 38  1  0
  8 39  1  0
  9 40  1  0
 10 41  1  0
 11 42  1  0
 12 43  1  0
 13 44  1  0
 13 45  1  0
 14 46  1  0
 14 47  1  0
 18 48  1  0
 18 49  1  0
 19 50  1  6
 20 51  1  0
 20 52  1  0
 22 53  1  0
 23 54  1  0
 24 55  1  0
 26 56  1  0
 27 57  1  0
 28 58  1  0
 29 59  1  0
 31 60  1  0
 31 61  1  0
 32 62  1  0
 32 63  1  0
M  END
>  <smiles>  (32) 
CCC(=O)N(c1ccccc1)C1CCN(C(=O)CC(N)c2cccc3ccccc23)CC1

>  <score_type>  (32) 
oracle

>  <origin>  (32) 
autodockgpu

>  <m_score__min__energy>  (32) 
-9.4000000000000004

>  <m_primary>  (32) 
energy

>  <rmsd>  (32) 
9.415838195283266

>  <m_score__min__rmsd>  (32) 
9.415838195283266

>  <meeko>  (32) 
{"free_energy": -9.32, "intermolecular_energy": -11.71, "internal_energy": -2.21, "cluster_size": 22, "cluster_id": 1, "rank_in_cluster": 2}

>  <energy>  (32) 
-8.14

>  <cluster_rmsd>  (32) 
0.44

>  <cluster>  (32) 
4

$$$$

     RDKit          3D

 63 66  0  0  0  0  0  0  0  0999 V2000
  141.8820   78.3470  217.7540 C   0  0  0  0  0  0  0  0  0  0  0  0
  141.1630   77.3970  218.6690 C   0  0  0  0  0  0  0  0  0  0  0  0
  141.9970   76.9690  219.8120 C   0  0  0  0  0  0  0  0  0  0  0  0
  143.1650   76.5670  219.5470 O   0  0  0  0  0  0  0  0  0  0  0  0
  141.5190   77.0030  221.1600 N   0  0  0  0  0  0  0  0  0  0  0  0
  141.5920   78.2310  221.8740 C   0  0  0  0  0  0  0  0  0  0  0  0
  141.8280   79.4040  221.1750 C   0  0  0  0  0  0  0  0  0  0  0  0
  141.8970   80.5920  221.8710 C   0  0  0  0  0  0  0  0  0  0  0  0
  141.7290   80.5850  223.2390 C   0  0  0  0  0  0  0  0  0  0  0  0
  141.4900   79.4190  223.9550 C   0  0  0  0  0  0  0  0  0  0  0  0
  141.4200   78.2160  223.2510 C   0  0  0  0  0  0  0  0  0  0  0  0
  140.9840   75.7800  221.7330 C   0  0  0  0  0  0  0  0  0  0  0  0
  139.4840   75.7730  221.6840 C   0  0  0  0  0  0  0  0  0  0  0  0
  138.9910   74.4420  221.2070 C   0  0  0  0  0  0  0  0  0  0  0  0
  139.6440   73.3040  221.8130 N   0  0  0  0  0  0  0  0  0  0  0  0
  138.8940   72.1670  222.2200 C   0  0  0  0  0  0  0  0  0  0  0  0
  137.6500   72.1920  222.0370 O   0  0  0  0  0  0  0  0  0  0  0  0
  139.5930   70.9960  222.8420 C   0  0  0  0  0  0  0  0  0  0  0  0
  138.6170   70.3740  223.8100 C   0  0  2  0  0  0  0  0  0  0  0  0
  137.5350   71.2140  224.2080 N   0  0  0  0  0  0  0  0  0  0  0  0
  139.2410   69.5720  224.8740 C   0  0  0  0  0  0  0  0  0  0  0  0
  139.1770   68.1740  224.9120 C   0  0  0  0  0  0  0  0  0  0  0  0
  139.7550   67.4370  225.9210 C   0  0  0  0  0  0  0  0  0  0  0  0
  140.4340   68.0390  226.9580 C   0  0  0  0  0  0  0  0  0  0  0  0
  140.5100   69.4140  226.9400 C   0  0  0  0  0  0  0  0  0  0  0  0
  141.1990   70.0080  227.9870 C   0  0  0  0  0  0  0  0  0  0  0  0
  141.3300   71.3800  228.0500 C   0  0  0  0  0  0  0  0  0  0  0  0
  140.7560   72.1230  227.0460 C   0  0  0  0  0  0  0  0  0  0  0  0
  140.0720   71.5250  226.0110 C   0  0  0  0  0  0  0  0  0  0  0  0
  139.9290   70.1540  225.9270 C   0  0  0  0  0  0  0  0  0  0  0  0
  141.0830   73.3780  221.9780 C   0  0  0  0  0  0  0  0  0  0  0  0
  141.5160   74.5520  221.0940 C   0  0  0  0  0  0  0  0  0  0  0  0
  142.4387   79.0826  218.3532 H   0  0  0  0  0  0  0  0  0  0  0  0
  142.5830   77.7850  217.1194 H   0  0  0  0  0  0  0  0  0  0  0  0
  141.1507   78.8691  217.1194 H   0  0  0  0  0  0  0  0  0  0  0  0
  140.2622   77.8951  219.0570 H   0  0  0  0  0  0  0  0  0  0  0  0
  140.9103   76.4992  218.0858 H   0  0  0  0  0  0  0  0  0  0  0  0
  141.9581   79.3875  220.0829 H   0  0  0  0  0  0  0  0  0  0  0  0
  142.0844   81.5367  221.3395 H   0  0  0  0  0  0  0  0  0  0  0  0
  141.7864   81.5386  223.7842 H   0  0  0  0  0  0  0  0  0  0  0  0
  141.3595   79.4431  225.0470 H   0  0  0  0  0  0  0  0  0  0  0  0
  141.2313   77.2700  223.7797 H   0  0  0  0  0  0  0  0  0  0  0  0
  141.3169   75.7688  222.7814 H   0  0  0  0  0  0  0  0  0  0  0  0
  139.0862   75.9689  222.6907 H   0  0  0  0  0  0  0  0  0  0  0  0
  139.1428   76.5538  220.9883 H   0  0  0  0  0  0  0  0  0  0  0  0
  137.9150   74.3765  221.4261 H   0  0  0  0  0  0  0  0  0  0  0  0
  139.2172   74.3939  220.1316 H   0  0  0  0  0  0  0  0  0  0  0  0
  139.8754   70.2677  222.0675 H   0  0  0  0  0  0  0  0  0  0  0  0
  140.5136   71.3110  223.3552 H   0  0  0  0  0  0  0  0  0  0  0  0
  138.0963   69.6140  223.2090 H   0  0  0  0  0  0  0  0  0  0  0  0
  137.8640   72.1850  224.2440 H   0  0  0  0  0  0  0  0  0  0  0  0
  136.7120   71.0070  223.6370 H   0  0  0  0  0  0  0  0  0  0  0  0
  138.6458   67.6454  224.1067 H   0  0  0  0  0  0  0  0  0  0  0  0
  139.6728   66.3403  225.8988 H   0  0  0  0  0  0  0  0  0  0  0  0
  140.8944   67.4482  227.7636 H   0  0  0  0  0  0  0  0  0  0  0  0
  141.6444   69.3805  228.7730 H   0  0  0  0  0  0  0  0  0  0  0  0
  141.8748   71.8625  228.8749 H   0  0  0  0  0  0  0  0  0  0  0  0
  140.8449   73.2191  227.0698 H   0  0  0  0  0  0  0  0  0  0  0  0
  139.6269   72.1575  225.2288 H   0  0  0  0  0  0  0  0  0  0  0  0
  141.3436   73.5676  223.0297 H   0  0  0  0  0  0  0  0  0  0  0  0
  141.5829   72.4392  221.6973 H   0  0  0  0  0  0  0  0  0  0  0  0
  142.6135   74.5990  221.0357 H   0  0  0  0  0  0  0  0  0  0  0  0
  141.1335   74.4398  220.0688 H   0  0  0  0  0  0  0  0  0  0  0  0
  1  2  1  0
  2  3  1  0
  3  4  2  0
  3  5  1  0
  5  6  1  0
  6  7  2  0
  7  8  1  0
  8  9  2  0
  9 10  1  0
 10 11  2  0
  5 12  1  0
 12 13  1  0
 13 14  1  0
 14 15  1  0
 15 16  1  0
 16 17  2  0
 16 18  1  0
 18 19  1  0
 19 20  1  0
 19 21  1  0
 21 22  2  0
 22 23  1  0
 23 24  2  0
 24 25  1  0
 25 26  2  0
 26 27  1  0
 27 28  2  0
 28 29  1  0
 29 30  2  0
 15 31  1  0
 31 32  1  0
 11  6  1  0
 32 12  1  0
 30 21  1  0
 30 25  1  0
  1 33  1  0
  1 34  1  0
  1 35  1  0
  2 36  1  0
  2 37  1  0
  7 38  1  0
  8 39  1  0
  9 40  1  0
 10 41  1  0
 11 42  1  0
 12 43  1  0
 13 44  1  0
 13 45  1  0
 14 46  1  0
 14 47  1  0
 18 48  1  0
 18 49  1  0
 19 50  1  6
 20 51  1  0
 20 52  1  0
 22 53  1  0
 23 54  1  0
 24 55  1  0
 26 56  1  0
 27 57  1  0
 28 58  1  0
 29 59  1  0
 31 60  1  0
 31 61  1  0
 32 62  1  0
 32 63  1  0
M  END
>  <smiles>  (33) 
CCC(=O)N(c1ccccc1)C1CCN(C(=O)CC(N)c2cccc3ccccc23)CC1

>  <score_type>  (33) 
oracle

>  <origin>  (33) 
autodockgpu

>  <m_score__min__energy>  (33) 
-9.4000000000000004

>  <m_primary>  (33) 
energy

>  <rmsd>  (33) 
9.346934717400114

>  <m_score__min__rmsd>  (33) 
9.346934717400114

>  <meeko>  (33) 
{"free_energy": -9.21, "intermolecular_energy": -11.59, "internal_energy": -2.21, "cluster_size": 22, "cluster_id": 1, "rank_in_cluster": 5}

>  <energy>  (33) 
-7.91

>  <cluster_rmsd>  (33) 
0.69

>  <cluster>  (33) 
4

$$$$

     RDKit          3D

 63 66  0  0  0  0  0  0  0  0999 V2000
  146.2360   73.0450  221.7140 C   0  0  0  0  0  0  0  0  0  0  0  0
  146.2800   73.8650  220.4570 C   0  0  0  0  0  0  0  0  0  0  0  0
  145.6540   73.1760  219.3070 C   0  0  0  0  0  0  0  0  0  0  0  0
  145.9330   71.9540  219.1540 O   0  0  0  0  0  0  0  0  0  0  0  0
  144.7710   73.8480  218.4050 N   0  0  0  0  0  0  0  0  0  0  0  0
  145.1960   74.0480  217.0620 C   0  0  0  0  0  0  0  0  0  0  0  0
  144.4590   74.8840  216.2390 C   0  0  0  0  0  0  0  0  0  0  0  0
  144.8750   75.0760  214.9390 C   0  0  0  0  0  0  0  0  0  0  0  0
  146.0100   74.4340  214.4920 C   0  0  0  0  0  0  0  0  0  0  0  0
  146.7610   73.5930  215.3030 C   0  0  0  0  0  0  0  0  0  0  0  0
  146.3400   73.3990  216.6190 C   0  0  0  0  0  0  0  0  0  0  0  0
  143.4820   74.2960  218.9060 C   0  0  0  0  0  0  0  0  0  0  0  0
  142.7940   73.2030  219.6710 C   0  0  0  0  0  0  0  0  0  0  0  0
  142.2200   73.7500  220.9430 C   0  0  0  0  0  0  0  0  0  0  0  0
  141.5230   75.0070  220.8000 N   0  0  0  0  0  0  0  0  0  0  0  0
  140.2940   75.2370  221.4770 C   0  0  0  0  0  0  0  0  0  0  0  0
  139.8390   74.3100  222.1940 O   0  0  0  0  0  0  0  0  0  0  0  0
  139.5900   76.5510  221.3170 C   0  0  0  0  0  0  0  0  0  0  0  0
  139.0500   76.9210  222.6760 C   0  0  2  0  0  0  0  0  0  0  0  0
  137.8930   76.1960  223.0900 N   0  0  0  0  0  0  0  0  0  0  0  0
  139.0450   78.3650  222.9570 C   0  0  0  0  0  0  0  0  0  0  0  0
  137.8680   79.1120  223.0860 C   0  0  0  0  0  0  0  0  0  0  0  0
  137.8780   80.4660  223.3360 C   0  0  0  0  0  0  0  0  0  0  0  0
  139.0570   81.1660  223.4740 C   0  0  0  0  0  0  0  0  0  0  0  0
  140.2280   80.4510  223.3520 C   0  0  0  0  0  0  0  0  0  0  0  0
  141.4070   81.1660  223.4980 C   0  0  0  0  0  0  0  0  0  0  0  0
  142.6280   80.5310  223.3950 C   0  0  0  0  0  0  0  0  0  0  0  0
  142.6260   79.1800  223.1460 C   0  0  0  0  0  0  0  0  0  0  0  0
  141.4500   78.4780  223.0020 C   0  0  0  0  0  0  0  0  0  0  0  0
  140.2170   79.0910  223.1010 C   0  0  0  0  0  0  0  0  0  0  0  0
  142.1340   76.0090  219.9480 C   0  0  0  0  0  0  0  0  0  0  0  0
  143.5700   75.5190  219.7390 C   0  0  0  0  0  0  0  0  0  0  0  0
  146.2718   73.7117  222.5882 H   0  0  0  0  0  0  0  0  0  0  0  0
  145.3051   72.4594  221.7374 H   0  0  0  0  0  0  0  0  0  0  0  0
  147.0988   72.3631  221.7374 H   0  0  0  0  0  0  0  0  0  0  0  0
  145.7467   74.8106  220.6342 H   0  0  0  0  0  0  0  0  0  0  0  0
  147.3375   74.0367  220.2076 H   0  0  0  0  0  0  0  0  0  0  0  0
  143.5564   75.3865  216.6169 H   0  0  0  0  0  0  0  0  0  0  0  0
  144.3072   75.7346  214.2653 H   0  0  0  0  0  0  0  0  0  0  0  0
  146.3334   74.5939  213.4529 H   0  0  0  0  0  0  0  0  0  0  0  0
  147.6626   73.0938  214.9185 H   0  0  0  0  0  0  0  0  0  0  0  0
  146.9062   72.7416  217.2952 H   0  0  0  0  0  0  0  0  0  0  0  0
  142.8862   74.5541  218.0181 H   0  0  0  0  0  0  0  0  0  0  0  0
  141.9838   72.7830  219.0569 H   0  0  0  0  0  0  0  0  0  0  0  0
  143.5245   72.4171  219.9133 H   0  0  0  0  0  0  0  0  0  0  0  0
  141.5126   73.0100  221.3456 H   0  0  0  0  0  0  0  0  0  0  0  0
  143.0727   73.9422  221.6108 H   0  0  0  0  0  0  0  0  0  0  0  0
  140.2955   77.3191  220.9673 H   0  0  0  0  0  0  0  0  0  0  0  0
  138.7806   76.4788  220.5756 H   0  0  0  0  0  0  0  0  0  0  0  0
  139.8098   76.5411  223.3749 H   0  0  0  0  0  0  0  0  0  0  0  0
  137.1010   76.4670  222.4960 H   0  0  0  0  0  0  0  0  0  0  0  0
  138.1200   75.2010  223.1620 H   0  0  0  0  0  0  0  0  0  0  0  0
  136.9004   78.5988  222.9840 H   0  0  0  0  0  0  0  0  0  0  0  0
  136.9218   81.0019  223.4278 H   0  0  0  0  0  0  0  0  0  0  0  0
  139.0627   82.2479  223.6728 H   0  0  0  0  0  0  0  0  0  0  0  0
  141.3689   82.2471  223.6973 H   0  0  0  0  0  0  0  0  0  0  0  0
  143.5701   81.0874  223.5084 H   0  0  0  0  0  0  0  0  0  0  0  0
  143.5846   78.6474  223.0598 H   0  0  0  0  0  0  0  0  0  0  0  0
  141.4944   77.3972  222.8023 H   0  0  0  0  0  0  0  0  0  0  0  0
  141.6035   76.0765  218.9868 H   0  0  0  0  0  0  0  0  0  0  0  0
  142.0981   77.0133  220.3953 H   0  0  0  0  0  0  0  0  0  0  0  0
  144.1624   76.2885  219.2224 H   0  0  0  0  0  0  0  0  0  0  0  0
  144.0623   75.3102  220.7003 H   0  0  0  0  0  0  0  0  0  0  0  0
  1  2  1  0
  2  3  1  0
  3  4  2  0
  3  5  1  0
  5  6  1  0
  6  7  2  0
  7  8  1  0
  8  9  2  0
  9 10  1  0
 10 11  2  0
  5 12  1  0
 12 13  1  0
 13 14  1  0
 14 15  1  0
 15 16  1  0
 16 17  2  0
 16 18  1  0
 18 19  1  0
 19 20  1  0
 19 21  1  0
 21 22  2  0
 22 23  1  0
 23 24  2  0
 24 25  1  0
 25 26  2  0
 26 27  1  0
 27 28  2  0
 28 29  1  0
 29 30  2  0
 15 31  1  0
 31 32  1  0
 11  6  1  0
 32 12  1  0
 30 21  1  0
 30 25  1  0
  1 33  1  0
  1 34  1  0
  1 35  1  0
  2 36  1  0
  2 37  1  0
  7 38  1  0
  8 39  1  0
  9 40  1  0
 10 41  1  0
 11 42  1  0
 12 43  1  0
 13 44  1  0
 13 45  1  0
 14 46  1  0
 14 47  1  0
 18 48  1  0
 18 49  1  0
 19 50  1  1
 20 51  1  0
 20 52  1  0
 22 53  1  0
 23 54  1  0
 24 55  1  0
 26 56  1  0
 27 57  1  0
 28 58  1  0
 29 59  1  0
 31 60  1  0
 31 61  1  0
 32 62  1  0
 32 63  1  0
M  END
>  <smiles>  (34) 
CCC(=O)N(c1ccccc1)C1CCN(C(=O)CC(N)c2cccc3ccccc23)CC1

>  <score_type>  (34) 
oracle

>  <origin>  (34) 
autodockgpu

>  <m_score__min__energy>  (34) 
-9.4000000000000004

>  <m_primary>  (34) 
energy

>  <rmsd>  (34) 
4.0216188299213735

>  <m_score__min__rmsd>  (34) 
4.0216188299213735

>  <meeko>  (34) 
{"free_energy": -8.27, "intermolecular_energy": -10.66, "internal_energy": -2.12, "cluster_size": 4, "cluster_id": 5, "rank_in_cluster": 2}

>  <energy>  (34) 
-8.32

>  <cluster_rmsd>  (34) 
0.0

>  <cluster>  (34) 
5

$$$$

     RDKit          3D

 63 66  0  0  0  0  0  0  0  0999 V2000
  143.3220   76.3150  219.3120 C   0  0  0  0  0  0  0  0  0  0  0  0
  142.5020   77.5710  219.3850 C   0  0  0  0  0  0  0  0  0  0  0  0
  141.1660   77.3430  219.9770 C   0  0  0  0  0  0  0  0  0  0  0  0
  140.1880   77.3020  219.1780 O   0  0  0  0  0  0  0  0  0  0  0  0
  140.9740   77.1750  221.3840 N   0  0  0  0  0  0  0  0  0  0  0  0
  141.0950   78.3150  222.2270 C   0  0  0  0  0  0  0  0  0  0  0  0
  140.0200   78.6830  223.0200 C   0  0  0  0  0  0  0  0  0  0  0  0
  140.1420   79.7870  223.8360 C   0  0  0  0  0  0  0  0  0  0  0  0
  141.3250   80.4960  223.8420 C   0  0  0  0  0  0  0  0  0  0  0  0
  142.4120   80.1400  223.0540 C   0  0  0  0  0  0  0  0  0  0  0  0
  142.2890   79.0220  222.2280 C   0  0  0  0  0  0  0  0  0  0  0  0
  140.6660   75.8460  221.8840 C   0  0  0  0  0  0  0  0  0  0  0  0
  139.1890   75.6760  222.0890 C   0  0  0  0  0  0  0  0  0  0  0  0
  138.7420   74.3550  221.5420 C   0  0  0  0  0  0  0  0  0  0  0  0
  139.5960   73.2410  221.8820 N   0  0  0  0  0  0  0  0  0  0  0  0
  139.0390   71.9900  222.2670 C   0  0  0  0  0  0  0  0  0  0  0  0
  137.7850   71.8940  222.3020 O   0  0  0  0  0  0  0  0  0  0  0  0
  139.9430   70.8460  222.6120 C   0  0  0  0  0  0  0  0  0  0  0  0
  139.3770   70.2070  223.8560 C   0  0  2  0  0  0  0  0  0  0  0  0
  137.9530   70.1350  223.9100 N   0  0  0  0  0  0  0  0  0  0  0  0
  140.0550   70.5960  225.1030 C   0  0  0  0  0  0  0  0  0  0  0  0
  140.5300   71.8910  225.3410 C   0  0  0  0  0  0  0  0  0  0  0  0
  141.1730   72.2380  226.5070 C   0  0  0  0  0  0  0  0  0  0  0  0
  141.3880   71.3210  227.5130 C   0  0  0  0  0  0  0  0  0  0  0  0
  140.9280   70.0400  227.3020 C   0  0  0  0  0  0  0  0  0  0  0  0
  141.1450   69.1290  228.3240 C   0  0  0  0  0  0  0  0  0  0  0  0
  140.7160   67.8230  228.2010 C   0  0  0  0  0  0  0  0  0  0  0  0
  140.0710   67.4700  227.0400 C   0  0  0  0  0  0  0  0  0  0  0  0
  139.8610   68.3810  226.0290 C   0  0  0  0  0  0  0  0  0  0  0  0
  140.2810   69.6930  226.1300 C   0  0  0  0  0  0  0  0  0  0  0  0
  141.0270   73.4570  221.8090 C   0  0  0  0  0  0  0  0  0  0  0  0
  141.1840   74.7600  221.0170 C   0  0  0  0  0  0  0  0  0  0  0  0
  143.5498   75.9661  220.3300 H   0  0  0  0  0  0  0  0  0  0  0  0
  142.7564   75.5384  218.7762 H   0  0  0  0  0  0  0  0  0  0  0  0
  144.2605   76.5204  218.7762 H   0  0  0  0  0  0  0  0  0  0  0  0
  143.0393   78.3075  220.0005 H   0  0  0  0  0  0  0  0  0  0  0  0
  142.3540   77.9331  218.3569 H   0  0  0  0  0  0  0  0  0  0  0  0
  139.0851   78.1038  222.9987 H   0  0  0  0  0  0  0  0  0  0  0  0
  139.3040   80.0996  224.4763 H   0  0  0  0  0  0  0  0  0  0  0  0
  141.4109   81.3767  224.4955 H   0  0  0  0  0  0  0  0  0  0  0  0
  143.3442   80.7233  223.0803 H   0  0  0  0  0  0  0  0  0  0  0  0
  143.1257   78.7061  221.5875 H   0  0  0  0  0  0  0  0  0  0  0  0
  141.1825   75.7616  222.8515 H   0  0  0  0  0  0  0  0  0  0  0  0
  138.9636   75.7194  223.1648 H   0  0  0  0  0  0  0  0  0  0  0  0
  138.6573   76.4822  221.5624 H   0  0  0  0  0  0  0  0  0  0  0  0
  137.7347   74.1460  221.9315 H   0  0  0  0  0  0  0  0  0  0  0  0
  138.7719   74.4463  220.4462 H   0  0  0  0  0  0  0  0  0  0  0  0
  139.9645   70.1178  221.7878 H   0  0  0  0  0  0  0  0  0  0  0  0
  140.9737   71.1921  222.7786 H   0  0  0  0  0  0  0  0  0  0  0  0
  139.6471   69.1455  223.7551 H   0  0  0  0  0  0  0  0  0  0  0  0
  137.5910   71.0140  224.2960 H   0  0  0  0  0  0  0  0  0  0  0  0
  137.5920   69.8240  223.0050 H   0  0  0  0  0  0  0  0  0  0  0  0
  140.3839   72.6594  224.5676 H   0  0  0  0  0  0  0  0  0  0  0  0
  141.5238   73.2721  226.6393 H   0  0  0  0  0  0  0  0  0  0  0  0
  141.9042   71.5998  228.4435 H   0  0  0  0  0  0  0  0  0  0  0  0
  141.6630   69.4494  229.2400 H   0  0  0  0  0  0  0  0  0  0  0  0
  140.8844   67.0904  229.0041 H   0  0  0  0  0  0  0  0  0  0  0  0
  139.7146   66.4368  226.9155 H   0  0  0  0  0  0  0  0  0  0  0  0
  139.3439   68.0545  225.1147 H   0  0  0  0  0  0  0  0  0  0  0  0
  141.4554   73.5616  222.8167 H   0  0  0  0  0  0  0  0  0  0  0  0
  141.5512   72.6151  221.3333 H   0  0  0  0  0  0  0  0  0  0  0  0
  142.2439   74.9355  220.7807 H   0  0  0  0  0  0  0  0  0  0  0  0
  140.6345   74.7151  220.0652 H   0  0  0  0  0  0  0  0  0  0  0  0
  1  2  1  0
  2  3  1  0
  3  4  2  0
  3  5  1  0
  5  6  1  0
  6  7  2  0
  7  8  1  0
  8  9  2  0
  9 10  1  0
 10 11  2  0
  5 12  1  0
 12 13  1  0
 13 14  1  0
 14 15  1  0
 15 16  1  0
 16 17  2  0
 16 18  1  0
 18 19  1  0
 19 20  1  0
 19 21  1  0
 21 22  2  0
 22 23  1  0
 23 24  2  0
 24 25  1  0
 25 26  2  0
 26 27  1  0
 27 28  2  0
 28 29  1  0
 29 30  2  0
 15 31  1  0
 31 32  1  0
 11  6  1  0
 32 12  1  0
 30 21  1  0
 30 25  1  0
  1 33  1  0
  1 34  1  0
  1 35  1  0
  2 36  1  0
  2 37  1  0
  7 38  1  0
  8 39  1  0
  9 40  1  0
 10 41  1  0
 11 42  1  0
 12 43  1  0
 13 44  1  0
 13 45  1  0
 14 46  1  0
 14 47  1  0
 18 48  1  0
 18 49  1  0
 19 50  1  6
 20 51  1  0
 20 52  1  0
 22 53  1  0
 23 54  1  0
 24 55  1  0
 26 56  1  0
 27 57  1  0
 28 58  1  0
 29 59  1  0
 31 60  1  0
 31 61  1  0
 32 62  1  0
 32 63  1  0
M  END
>  <smiles>  (35) 
CCC(=O)N(c1ccccc1)C1CCN(C(=O)CC(N)c2cccc3ccccc23)CC1

>  <score_type>  (35) 
oracle

>  <origin>  (35) 
autodockgpu

>  <m_score__min__energy>  (35) 
-9.4000000000000004

>  <m_primary>  (35) 
energy

>  <rmsd>  (35) 
8.138815999353774

>  <m_score__min__rmsd>  (35) 
8.138815999353774

>  <meeko>  (35) 
{"free_energy": -8.72, "intermolecular_energy": -11.11, "internal_energy": -2.35, "cluster_size": 22, "cluster_id": 1, "rank_in_cluster": 14}

>  <energy>  (35) 
-8.27

>  <cluster_rmsd>  (35) 
0.17

>  <cluster>  (35) 
5

$$$$

     RDKit          3D

 63 66  0  0  0  0  0  0  0  0999 V2000
  142.5740   80.2740  218.1730 C   0  0  0  0  0  0  0  0  0  0  0  0
  141.5860   80.7170  219.2130 C   0  0  0  0  0  0  0  0  0  0  0  0
  140.6930   79.6220  219.6510 C   0  0  0  0  0  0  0  0  0  0  0  0
  139.7700   79.2880  218.8560 O   0  0  0  0  0  0  0  0  0  0  0  0
  140.8540   78.9640  220.9110 N   0  0  0  0  0  0  0  0  0  0  0  0
  141.3300   79.7230  222.0160 C   0  0  0  0  0  0  0  0  0  0  0  0
  140.4400   80.5130  222.7240 C   0  0  0  0  0  0  0  0  0  0  0  0
  140.9040   81.2460  223.7950 C   0  0  0  0  0  0  0  0  0  0  0  0
  142.2380   81.1740  224.1350 C   0  0  0  0  0  0  0  0  0  0  0  0
  143.1450   80.3860  223.4370 C   0  0  0  0  0  0  0  0  0  0  0  0
  142.6750   79.6450  222.3530 C   0  0  0  0  0  0  0  0  0  0  0  0
  140.5250   77.5520  220.9980 C   0  0  0  0  0  0  0  0  0  0  0  0
  141.4170   76.7360  220.1080 C   0  0  0  0  0  0  0  0  0  0  0  0
  141.9010   75.5210  220.8390 C   0  0  0  0  0  0  0  0  0  0  0  0
  140.8820   74.8210  221.5870 N   0  0  0  0  0  0  0  0  0  0  0  0
  140.8220   73.4000  221.5790 C   0  0  0  0  0  0  0  0  0  0  0  0
  141.6810   72.7830  220.8980 O   0  0  0  0  0  0  0  0  0  0  0  0
  139.7590   72.6950  222.3650 C   0  0  0  0  0  0  0  0  0  0  0  0
  140.1620   71.2420  222.4320 C   0  0  2  0  0  0  0  0  0  0  0  0
  140.1750   70.5560  221.1810 N   0  0  0  0  0  0  0  0  0  0  0  0
  139.5940   70.5040  223.5710 C   0  0  0  0  0  0  0  0  0  0  0  0
  138.5770   69.5520  223.4310 C   0  0  0  0  0  0  0  0  0  0  0  0
  138.0450   68.8770  224.5060 C   0  0  0  0  0  0  0  0  0  0  0  0
  138.4880   69.1040  225.7920 C   0  0  0  0  0  0  0  0  0  0  0  0
  139.4890   70.0370  225.9530 C   0  0  0  0  0  0  0  0  0  0  0  0
  139.9290   70.2530  227.2500 C   0  0  0  0  0  0  0  0  0  0  0  0
  140.9300   71.1660  227.5070 C   0  0  0  0  0  0  0  0  0  0  0  0
  141.4670   71.8420  226.4370 C   0  0  0  0  0  0  0  0  0  0  0  0
  141.0230   71.6230  225.1530 C   0  0  0  0  0  0  0  0  0  0  0  0
  140.0220   70.7140  224.8720 C   0  0  0  0  0  0  0  0  0  0  0  0
  139.9410   75.6280  222.3390 C   0  0  0  0  0  0  0  0  0  0  0  0
  140.5730   77.0230  222.3820 C   0  0  0  0  0  0  0  0  0  0  0  0
  143.4708   79.8719  218.6670 H   0  0  0  0  0  0  0  0  0  0  0  0
  142.1201   79.4932  217.5450 H   0  0  0  0  0  0  0  0  0  0  0  0
  142.8550   81.1323  217.5450 H   0  0  0  0  0  0  0  0  0  0  0  0
  142.1386   81.0921  220.0870 H   0  0  0  0  0  0  0  0  0  0  0  0
  140.9577   81.5004  218.7640 H   0  0  0  0  0  0  0  0  0  0  0  0
  139.3792   80.5549  222.4361 H   0  0  0  0  0  0  0  0  0  0  0  0
  140.2169   81.8819  224.3725 H   0  0  0  0  0  0  0  0  0  0  0  0
  142.5982   81.7628  224.9915 H   0  0  0  0  0  0  0  0  0  0  0  0
  144.2042   80.3477  223.7312 H   0  0  0  0  0  0  0  0  0  0  0  0
  143.3595   79.0082  221.7735 H   0  0  0  0  0  0  0  0  0  0  0  0
  139.4835   77.4644  220.6551 H   0  0  0  0  0  0  0  0  0  0  0  0
  140.8539   76.4238  219.2161 H   0  0  0  0  0  0  0  0  0  0  0  0
  142.2828   77.3454  219.8095 H   0  0  0  0  0  0  0  0  0  0  0  0
  142.3248   74.8235  220.1015 H   0  0  0  0  0  0  0  0  0  0  0  0
  142.6390   75.8741  221.5743 H   0  0  0  0  0  0  0  0  0  0  0  0
  139.6936   73.1176  223.3785 H   0  0  0  0  0  0  0  0  0  0  0  0
  138.7733   72.8111  221.8908 H   0  0  0  0  0  0  0  0  0  0  0  0
  141.2339   71.2748  222.6767 H   0  0  0  0  0  0  0  0  0  0  0  0
  139.3110   70.7760  220.6730 H   0  0  0  0  0  0  0  0  0  0  0  0
  141.0660   70.7250  220.7070 H   0  0  0  0  0  0  0  0  0  0  0  0
  138.1889   69.3355  222.4248 H   0  0  0  0  0  0  0  0  0  0  0  0
  137.2475   68.1389  224.3353 H   0  0  0  0  0  0  0  0  0  0  0  0
  138.0615   68.5646  226.6505 H   0  0  0  0  0  0  0  0  0  0  0  0
  139.4760   69.6917  228.0805 H   0  0  0  0  0  0  0  0  0  0  0  0
  141.2862   71.3470  228.5319 H   0  0  0  0  0  0  0  0  0  0  0  0
  142.2693   72.5741  226.6111 H   0  0  0  0  0  0  0  0  0  0  0  0
  141.4785   72.1883  224.3266 H   0  0  0  0  0  0  0  0  0  0  0  0
  138.9652   75.6596  221.8321 H   0  0  0  0  0  0  0  0  0  0  0  0
  139.7565   75.2233  223.3451 H   0  0  0  0  0  0  0  0  0  0  0  0
  140.0033   77.6772  223.0584 H   0  0  0  0  0  0  0  0  0  0  0  0
  141.6071   76.9789  222.7544 H   0  0  0  0  0  0  0  0  0  0  0  0
  1  2  1  0
  2  3  1  0
  3  4  2  0
  3  5  1  0
  5  6  1  0
  6  7  2  0
  7  8  1  0
  8  9  2  0
  9 10  1  0
 10 11  2  0
  5 12  1  0
 12 13  1  0
 13 14  1  0
 14 15  1  0
 15 16  1  0
 16 17  2  0
 16 18  1  0
 18 19  1  0
 19 20  1  0
 19 21  1  0
 21 22  2  0
 22 23  1  0
 23 24  2  0
 24 25  1  0
 25 26  2  0
 26 27  1  0
 27 28  2  0
 28 29  1  0
 29 30  2  0
 15 31  1  0
 31 32  1  0
 11  6  1  0
 32 12  1  0
 30 21  1  0
 30 25  1  0
  1 33  1  0
  1 34  1  0
  1 35  1  0
  2 36  1  0
  2 37  1  0
  7 38  1  0
  8 39  1  0
  9 40  1  0
 10 41  1  0
 11 42  1  0
 12 43  1  0
 13 44  1  0
 13 45  1  0
 14 46  1  0
 14 47  1  0
 18 48  1  0
 18 49  1  0
 19 50  1  1
 20 51  1  0
 20 52  1  0
 22 53  1  0
 23 54  1  0
 24 55  1  0
 26 56  1  0
 27 57  1  0
 28 58  1  0
 29 59  1  0
 31 60  1  0
 31 61  1  0
 32 62  1  0
 32 63  1  0
M  END
>  <smiles>  (36) 
CCC(=O)N(c1ccccc1)C1CCN(C(=O)CC(N)c2cccc3ccccc23)CC1

>  <score_type>  (36) 
oracle

>  <origin>  (36) 
autodockgpu

>  <m_score__min__energy>  (36) 
-9.4000000000000004

>  <m_primary>  (36) 
energy

>  <rmsd>  (36) 
8.124393162305498

>  <m_score__min__rmsd>  (36) 
8.124393162305498

>  <meeko>  (36) 
{"free_energy": -8.12, "intermolecular_energy": -10.5, "internal_energy": -2.05, "cluster_size": 5, "cluster_id": 7, "rank_in_cluster": 2}

>  <energy>  (36) 
-8.27

>  <cluster_rmsd>  (36) 
0.21

>  <cluster>  (36) 
5

$$$$

     RDKit          3D

 63 66  0  0  0  0  0  0  0  0999 V2000
  143.4000   75.7510  219.6840 C   0  0  0  0  0  0  0  0  0  0  0  0
  142.5500   76.9880  219.7100 C   0  0  0  0  0  0  0  0  0  0  0  0
  141.1430   76.7030  220.0640 C   0  0  0  0  0  0  0  0  0  0  0  0
  140.3430   76.5060  219.1060 O   0  0  0  0  0  0  0  0  0  0  0  0
  140.6930   76.6500  221.4210 N   0  0  0  0  0  0  0  0  0  0  0  0
  140.6540   77.8590  222.1700 C   0  0  0  0  0  0  0  0  0  0  0  0
  139.4560   78.2580  222.7400 C   0  0  0  0  0  0  0  0  0  0  0  0
  139.4210   79.4290  223.4660 C   0  0  0  0  0  0  0  0  0  0  0  0
  140.5740   80.1710  223.6080 C   0  0  0  0  0  0  0  0  0  0  0  0
  141.7840   79.7850  223.0440 C   0  0  0  0  0  0  0  0  0  0  0  0
  141.8190   78.5990  222.3090 C   0  0  0  0  0  0  0  0  0  0  0  0
  140.3020   75.3620  221.9670 C   0  0  0  0  0  0  0  0  0  0  0  0
  138.8380   75.1090  221.7520 C   0  0  0  0  0  0  0  0  0  0  0  0
  138.6250   73.7090  221.2640 C   0  0  0  0  0  0  0  0  0  0  0  0
  139.3800   72.7010  221.9710 N   0  0  0  0  0  0  0  0  0  0  0  0
  138.7820   71.4610  222.3260 C   0  0  0  0  0  0  0  0  0  0  0  0
  137.5790   71.2790  222.0060 O   0  0  0  0  0  0  0  0  0  0  0  0
  139.5850   70.4280  223.0570 C   0  0  0  0  0  0  0  0  0  0  0  0
  138.7080   69.9010  224.1660 C   0  0  2  0  0  0  0  0  0  0  0  0
  137.6210   70.7490  224.5370 N   0  0  0  0  0  0  0  0  0  0  0  0
  139.4400   69.2650  225.2720 C   0  0  0  0  0  0  0  0  0  0  0  0
  139.5330   67.8760  225.4250 C   0  0  0  0  0  0  0  0  0  0  0  0
  140.2110   67.2940  226.4720 C   0  0  0  0  0  0  0  0  0  0  0  0
  140.8400   68.0510  227.4360 C   0  0  0  0  0  0  0  0  0  0  0  0
  140.7620   69.4200  227.3050 C   0  0  0  0  0  0  0  0  0  0  0  0
  141.4030   70.1710  228.2780 C   0  0  0  0  0  0  0  0  0  0  0  0
  141.3820   71.5500  228.2270 C   0  0  0  0  0  0  0  0  0  0  0  0
  140.7080   72.1390  227.1830 C   0  0  0  0  0  0  0  0  0  0  0  0
  140.0730   71.3850  226.2220 C   0  0  0  0  0  0  0  0  0  0  0  0
  140.0810   70.0050  226.2530 C   0  0  0  0  0  0  0  0  0  0  0  0
  140.7590   73.0110  222.2930 C   0  0  0  0  0  0  0  0  0  0  0  0
  141.0950   74.2310  221.4280 C   0  0  0  0  0  0  0  0  0  0  0  0
  143.6178   75.4340  220.7146 H   0  0  0  0  0  0  0  0  0  0  0  0
  142.8623   74.9476  219.1592 H   0  0  0  0  0  0  0  0  0  0  0  0
  144.3428   75.9649  219.1592 H   0  0  0  0  0  0  0  0  0  0  0  0
  142.9657   77.6857  220.4519 H   0  0  0  0  0  0  0  0  0  0  0  0
  142.5584   77.4197  218.6983 H   0  0  0  0  0  0  0  0  0  0  0  0
  138.5477   77.6502  222.6152 H   0  0  0  0  0  0  0  0  0  0  0  0
  138.4820   79.7682  223.9277 H   0  0  0  0  0  0  0  0  0  0  0  0
  140.5348   81.1038  224.1897 H   0  0  0  0  0  0  0  0  0  0  0  0
  142.6888   80.3970  223.1732 H   0  0  0  0  0  0  0  0  0  0  0  0
  142.7565   78.2562  221.8468 H   0  0  0  0  0  0  0  0  0  0  0  0
  140.5113   75.4165  223.0455 H   0  0  0  0  0  0  0  0  0  0  0  0
  138.3010   75.2491  222.7018 H   0  0  0  0  0  0  0  0  0  0  0  0
  138.4568   75.8150  220.9995 H   0  0  0  0  0  0  0  0  0  0  0  0
  137.5561   73.4700  221.3652 H   0  0  0  0  0  0  0  0  0  0  0  0
  138.9773   73.6866  220.2222 H   0  0  0  0  0  0  0  0  0  0  0  0
  139.8641   69.6119  222.3743 H   0  0  0  0  0  0  0  0  0  0  0  0
  140.5134   70.8602  223.4586 H   0  0  0  0  0  0  0  0  0  0  0  0
  138.1805   69.0523  223.7061 H   0  0  0  0  0  0  0  0  0  0  0  0
  137.0670   70.9630  223.7000 H   0  0  0  0  0  0  0  0  0  0  0  0
  137.1360   70.3500  225.3440 H   0  0  0  0  0  0  0  0  0  0  0  0
  139.0468   67.2269  224.6818 H   0  0  0  0  0  0  0  0  0  0  0  0
  140.2516   66.1969  226.5407 H   0  0  0  0  0  0  0  0  0  0  0  0
  141.3801   67.5834  228.2725 H   0  0  0  0  0  0  0  0  0  0  0  0
  141.9328   69.6636  229.0976 H   0  0  0  0  0  0  0  0  0  0  0  0
  141.8863   72.1562  228.9939 H   0  0  0  0  0  0  0  0  0  0  0  0
  140.6755   73.2364  227.1143 H   0  0  0  0  0  0  0  0  0  0  0  0
  139.5436   71.8974  225.4052 H   0  0  0  0  0  0  0  0  0  0  0  0
  140.8633   73.2521  223.3612 H   0  0  0  0  0  0  0  0  0  0  0  0
  141.4329   72.1638  222.0978 H   0  0  0  0  0  0  0  0  0  0  0  0
  142.1698   74.4567  221.4908 H   0  0  0  0  0  0  0  0  0  0  0  0
  140.8555   74.0463  220.3704 H   0  0  0  0  0  0  0  0  0  0  0  0
  1  2  1  0
  2  3  1  0
  3  4  2  0
  3  5  1  0
  5  6  1  0
  6  7  2  0
  7  8  1  0
  8  9  2  0
  9 10  1  0
 10 11  2  0
  5 12  1  0
 12 13  1  0
 13 14  1  0
 14 15  1  0
 15 16  1  0
 16 17  2  0
 16 18  1  0
 18 19  1  0
 19 20  1  0
 19 21  1  0
 21 22  2  0
 22 23  1  0
 23 24  2  0
 24 25  1  0
 25 26  2  0
 26 27  1  0
 27 28  2  0
 28 29  1  0
 29 30  2  0
 15 31  1  0
 31 32  1  0
 11  6  1  0
 32 12  1  0
 30 21  1  0
 30 25  1  0
  1 33  1  0
  1 34  1  0
  1 35  1  0
  2 36  1  0
  2 37  1  0
  7 38  1  0
  8 39  1  0
  9 40  1  0
 10 41  1  0
 11 42  1  0
 12 43  1  0
 13 44  1  0
 13 45  1  0
 14 46  1  0
 14 47  1  0
 18 48  1  0
 18 49  1  0
 19 50  1  6
 20 51  1  0
 20 52  1  0
 22 53  1  0
 23 54  1  0
 24 55  1  0
 26 56  1  0
 27 57  1  0
 28 58  1  0
 29 59  1  0
 31 60  1  0
 31 61  1  0
 32 62  1  0
 32 63  1  0
M  END
>  <smiles>  (37) 
CCC(=O)N(c1ccccc1)C1CCN(C(=O)CC(N)c2cccc3ccccc23)CC1

>  <score_type>  (37) 
oracle

>  <origin>  (37) 
autodockgpu

>  <m_score__min__energy>  (37) 
-9.4000000000000004

>  <m_primary>  (37) 
energy

>  <rmsd>  (37) 
9.701064758256646

>  <m_score__min__rmsd>  (37) 
9.701064758256646

>  <meeko>  (37) 
{"free_energy": -8.64, "intermolecular_energy": -11.03, "internal_energy": -1.95, "cluster_size": 22, "cluster_id": 1, "rank_in_cluster": 15}

>  <energy>  (37) 
-8.25

>  <cluster_rmsd>  (37) 
0.19

>  <cluster>  (37) 
5

$$$$

     RDKit          3D

 63 66  0  0  0  0  0  0  0  0999 V2000
  143.7070   75.8330  219.7210 C   0  0  0  0  0  0  0  0  0  0  0  0
  142.7890   76.8490  219.1060 C   0  0  0  0  0  0  0  0  0  0  0  0
  141.4280   76.8100  219.6840 C   0  0  0  0  0  0  0  0  0  0  0  0
  140.4650   76.7500  218.8690 O   0  0  0  0  0  0  0  0  0  0  0  0
  141.1980   76.8360  221.0960 N   0  0  0  0  0  0  0  0  0  0  0  0
  141.4370   78.0500  221.7990 C   0  0  0  0  0  0  0  0  0  0  0  0
  141.4290   78.0370  223.1840 C   0  0  0  0  0  0  0  0  0  0  0  0
  141.6620   79.2150  223.8620 C   0  0  0  0  0  0  0  0  0  0  0  0
  141.8960   80.3710  223.1490 C   0  0  0  0  0  0  0  0  0  0  0  0
  141.9090   80.4010  221.7600 C   0  0  0  0  0  0  0  0  0  0  0  0
  141.6730   79.2090  221.0730 C   0  0  0  0  0  0  0  0  0  0  0  0
  140.7330   75.6210  221.7410 C   0  0  0  0  0  0  0  0  0  0  0  0
  139.2340   75.5770  221.7900 C   0  0  0  0  0  0  0  0  0  0  0  0
  138.7460   74.2180  221.3900 C   0  0  0  0  0  0  0  0  0  0  0  0
  139.4660   73.1170  221.9870 N   0  0  0  0  0  0  0  0  0  0  0  0
  138.7730   71.9770  222.4790 C   0  0  0  0  0  0  0  0  0  0  0  0
  137.5200   71.9660  222.3770 O   0  0  0  0  0  0  0  0  0  0  0  0
  139.5410   70.8450  223.0920 C   0  0  0  0  0  0  0  0  0  0  0  0
  138.6300   70.2060  224.1110 C   0  0  2  0  0  0  0  0  0  0  0  0
  137.5200   71.0040  224.5210 N   0  0  0  0  0  0  0  0  0  0  0  0
  139.3300   69.4720  225.1770 C   0  0  0  0  0  0  0  0  0  0  0  0
  139.3490   68.0740  225.2530 C   0  0  0  0  0  0  0  0  0  0  0  0
  139.9960   67.3990  226.2640 C   0  0  0  0  0  0  0  0  0  0  0  0
  140.6660   68.0680  227.2650 C   0  0  0  0  0  0  0  0  0  0  0  0
  140.6620   69.4450  227.2090 C   0  0  0  0  0  0  0  0  0  0  0  0
  141.3440   70.1060  228.2190 C   0  0  0  0  0  0  0  0  0  0  0  0
  141.3960   71.4850  228.2430 C   0  0  0  0  0  0  0  0  0  0  0  0
  140.7520   72.1650  227.2370 C   0  0  0  0  0  0  0  0  0  0  0  0
  140.0760   71.5000  226.2380 C   0  0  0  0  0  0  0  0  0  0  0  0
  140.0110   70.1220  226.1940 C   0  0  0  0  0  0  0  0  0  0  0  0
  140.9100   73.2310  222.0560 C   0  0  0  0  0  0  0  0  0  0  0  0
  141.2550   74.3850  221.1090 C   0  0  0  0  0  0  0  0  0  0  0  0
  143.6464   75.9001  220.8173 H   0  0  0  0  0  0  0  0  0  0  0  0
  143.4073   74.8251  219.3982 H   0  0  0  0  0  0  0  0  0  0  0  0
  144.7401   76.0293  219.3982 H   0  0  0  0  0  0  0  0  0  0  0  0
  143.2125   77.8510  219.2694 H   0  0  0  0  0  0  0  0  0  0  0  0
  142.7027   76.6146  218.0347 H   0  0  0  0  0  0  0  0  0  0  0  0
  141.2400   77.1031  223.7337 H   0  0  0  0  0  0  0  0  0  0  0  0
  141.6611   79.2319  224.9619 H   0  0  0  0  0  0  0  0  0  0  0  0
  142.0794   81.3050  223.7004 H   0  0  0  0  0  0  0  0  0  0  0  0
  142.1000   81.3382  221.2167 H   0  0  0  0  0  0  0  0  0  0  0  0
  141.6741   79.1886  219.9732 H   0  0  0  0  0  0  0  0  0  0  0  0
  141.1327   75.6528  222.7653 H   0  0  0  0  0  0  0  0  0  0  0  0
  138.8967   75.7982  222.8134 H   0  0  0  0  0  0  0  0  0  0  0  0
  138.8286   76.3250  221.0927 H   0  0  0  0  0  0  0  0  0  0  0  0
  137.6888   74.1342  221.6819 H   0  0  0  0  0  0  0  0  0  0  0  0
  138.9034   74.1391  220.3042 H   0  0  0  0  0  0  0  0  0  0  0  0
  139.8187   70.1128  222.3195 H   0  0  0  0  0  0  0  0  0  0  0  0
  140.4693   71.2039  223.5605 H   0  0  0  0  0  0  0  0  0  0  0  0
  138.1286   69.4021  223.5521 H   0  0  0  0  0  0  0  0  0  0  0  0
  137.8060   71.9890  224.5320 H   0  0  0  0  0  0  0  0  0  0  0  0
  136.6950   70.7500  223.9710 H   0  0  0  0  0  0  0  0  0  0  0  0
  138.8282   67.4939  224.4770 H   0  0  0  0  0  0  0  0  0  0  0  0
  139.9775   66.2992  226.2727 H   0  0  0  0  0  0  0  0  0  0  0  0
  141.1810   67.5272  228.0727 H   0  0  0  0  0  0  0  0  0  0  0  0
  141.8475   69.5270  229.0072 H   0  0  0  0  0  0  0  0  0  0  0  0
  141.9338   72.0209  229.0390 H   0  0  0  0  0  0  0  0  0  0  0  0
  140.7770   73.2647  227.2295 H   0  0  0  0  0  0  0  0  0  0  0  0
  139.5735   72.0839  225.4528 H   0  0  0  0  0  0  0  0  0  0  0  0
  141.2323   73.4617  223.0821 H   0  0  0  0  0  0  0  0  0  0  0  0
  141.4152   72.2956  221.7734 H   0  0  0  0  0  0  0  0  0  0  0  0
  142.3449   74.4563  220.9786 H   0  0  0  0  0  0  0  0  0  0  0  0
  140.8107   74.2292  220.1148 H   0  0  0  0  0  0  0  0  0  0  0  0
  1  2  1  0
  2  3  1  0
  3  4  2  0
  3  5  1  0
  5  6  1  0
  6  7  2  0
  7  8  1  0
  8  9  2  0
  9 10  1  0
 10 11  2  0
  5 12  1  0
 12 13  1  0
 13 14  1  0
 14 15  1  0
 15 16  1  0
 16 17  2  0
 16 18  1  0
 18 19  1  0
 19 20  1  0
 19 21  1  0
 21 22  2  0
 22 23  1  0
 23 24  2  0
 24 25  1  0
 25 26  2  0
 26 27  1  0
 27 28  2  0
 28 29  1  0
 29 30  2  0
 15 31  1  0
 31 32  1  0
 11  6  1  0
 32 12  1  0
 30 21  1  0
 30 25  1  0
  1 33  1  0
  1 34  1  0
  1 35  1  0
  2 36  1  0
  2 37  1  0
  7 38  1  0
  8 39  1  0
  9 40  1  0
 10 41  1  0
 11 42  1  0
 12 43  1  0
 13 44  1  0
 13 45  1  0
 14 46  1  0
 14 47  1  0
 18 48  1  0
 18 49  1  0
 19 50  1  6
 20 51  1  0
 20 52  1  0
 22 53  1  0
 23 54  1  0
 24 55  1  0
 26 56  1  0
 27 57  1  0
 28 58  1  0
 29 59  1  0
 31 60  1  0
 31 61  1  0
 32 62  1  0
 32 63  1  0
M  END
>  <smiles>  (38) 
CCC(=O)N(c1ccccc1)C1CCN(C(=O)CC(N)c2cccc3ccccc23)CC1

>  <score_type>  (38) 
oracle

>  <origin>  (38) 
autodockgpu

>  <m_score__min__energy>  (38) 
-9.4000000000000004

>  <m_primary>  (38) 
energy

>  <rmsd>  (38) 
9.497695404096087

>  <m_score__min__rmsd>  (38) 
9.497695404096087

>  <meeko>  (38) 
{"free_energy": -9.4, "intermolecular_energy": -11.78, "internal_energy": -2.22, "cluster_size": 22, "cluster_id": 1, "rank_in_cluster": 1}

>  <energy>  (38) 
-8.23

>  <cluster_rmsd>  (38) 
0.0

>  <cluster>  (38) 
6

$$$$

     RDKit          3D

 63 66  0  0  0  0  0  0  0  0999 V2000
  143.6610   76.2300  219.6820 C   0  0  0  0  0  0  0  0  0  0  0  0
  142.6120   76.9370  218.8730 C   0  0  0  0  0  0  0  0  0  0  0  0
  141.2910   76.9440  219.5370 C   0  0  0  0  0  0  0  0  0  0  0  0
  140.2760   76.9850  218.7860 O   0  0  0  0  0  0  0  0  0  0  0  0
  141.1520   76.9040  220.9600 N   0  0  0  0  0  0  0  0  0  0  0  0
  141.4730   78.0720  221.7060 C   0  0  0  0  0  0  0  0  0  0  0  0
  141.8210   79.2290  221.0280 C   0  0  0  0  0  0  0  0  0  0  0  0
  142.1300   80.3590  221.7540 C   0  0  0  0  0  0  0  0  0  0  0  0
  142.0850   80.3110  223.1310 C   0  0  0  0  0  0  0  0  0  0  0  0
  141.7370   79.1600  223.8270 C   0  0  0  0  0  0  0  0  0  0  0  0
  141.4240   78.0160  223.0920 C   0  0  0  0  0  0  0  0  0  0  0  0
  140.6920   75.6700  221.5730 C   0  0  0  0  0  0  0  0  0  0  0  0
  139.2080   75.5070  221.4080 C   0  0  0  0  0  0  0  0  0  0  0  0
  138.8890   74.1050  220.9880 C   0  0  0  0  0  0  0  0  0  0  0  0
  139.5960   73.0790  221.7200 N   0  0  0  0  0  0  0  0  0  0  0  0
  138.9270   71.8990  222.1450 C   0  0  0  0  0  0  0  0  0  0  0  0
  137.7060   71.7850  221.8650 O   0  0  0  0  0  0  0  0  0  0  0  0
  139.6810   70.8460  222.9000 C   0  0  0  0  0  0  0  0  0  0  0  0
  138.7050   70.2270  223.8710 C   0  0  2  0  0  0  0  0  0  0  0  0
  137.5870   71.0440  224.2140 N   0  0  0  0  0  0  0  0  0  0  0  0
  139.3330   69.4880  224.9780 C   0  0  0  0  0  0  0  0  0  0  0  0
  139.3140   68.0910  225.0690 C   0  0  0  0  0  0  0  0  0  0  0  0
  139.8940   67.4130  226.1170 C   0  0  0  0  0  0  0  0  0  0  0  0
  140.5310   68.0770  227.1430 C   0  0  0  0  0  0  0  0  0  0  0  0
  140.5620   69.4530  227.0730 C   0  0  0  0  0  0  0  0  0  0  0  0
  141.2100   70.1090  228.1090 C   0  0  0  0  0  0  0  0  0  0  0  0
  141.2940   71.4860  228.1220 C   0  0  0  0  0  0  0  0  0  0  0  0
  140.7180   72.1700  227.0780 C   0  0  0  0  0  0  0  0  0  0  0  0
  140.0760   71.5100  226.0540 C   0  0  0  0  0  0  0  0  0  0  0  0
  139.9790   70.1330  226.0200 C   0  0  0  0  0  0  0  0  0  0  0  0
  141.0010   73.3100  221.9910 C   0  0  0  0  0  0  0  0  0  0  0  0
  141.3920   74.4660  221.0650 C   0  0  0  0  0  0  0  0  0  0  0  0
  143.4538   76.3696  220.7533 H   0  0  0  0  0  0  0  0  0  0  0  0
  143.6469   75.1564  219.4427 H   0  0  0  0  0  0  0  0  0  0  0  0
  144.6508   76.6460  219.4427 H   0  0  0  0  0  0  0  0  0  0  0  0
  142.9317   77.9774  218.7136 H   0  0  0  0  0  0  0  0  0  0  0  0
  142.5039   76.3956  217.9216 H   0  0  0  0  0  0  0  0  0  0  0  0
  141.8502   79.2455  219.9285 H   0  0  0  0  0  0  0  0  0  0  0  0
  142.4098   81.2902  221.2397 H   0  0  0  0  0  0  0  0  0  0  0  0
  142.3341   81.2186  223.7004 H   0  0  0  0  0  0  0  0  0  0  0  0
  141.7090   79.1508  224.9266 H   0  0  0  0  0  0  0  0  0  0  0  0
  141.1426   77.0836  223.6034 H   0  0  0  0  0  0  0  0  0  0  0  0
  140.9355   75.7570  222.6422 H   0  0  0  0  0  0  0  0  0  0  0  0
  138.7095   75.7229  222.3645 H   0  0  0  0  0  0  0  0  0  0  0  0
  138.8523   76.2046  220.6355 H   0  0  0  0  0  0  0  0  0  0  0  0
  137.8099   73.9430  221.1269 H   0  0  0  0  0  0  0  0  0  0  0  0
  139.2091   74.0147  219.9395 H   0  0  0  0  0  0  0  0  0  0  0  0
  140.0623   70.0819  222.2066 H   0  0  0  0  0  0  0  0  0  0  0  0
  140.5440   71.2784  223.4275 H   0  0  0  0  0  0  0  0  0  0  0  0
  138.2231   69.4271  223.2896 H   0  0  0  0  0  0  0  0  0  0  0  0
  137.1040   71.3250  223.3530 H   0  0  0  0  0  0  0  0  0  0  0  0
  137.0380   70.5830  224.9440 H   0  0  0  0  0  0  0  0  0  0  0  0
  138.8177   67.5146  224.2744 H   0  0  0  0  0  0  0  0  0  0  0  0
  139.8480   66.3141  226.1361 H   0  0  0  0  0  0  0  0  0  0  0  0
  140.9937   67.5333  227.9799 H   0  0  0  0  0  0  0  0  0  0  0  0
  141.6604   69.5270  228.9265 H   0  0  0  0  0  0  0  0  0  0  0  0
  141.8039   72.0177  228.9389 H   0  0  0  0  0  0  0  0  0  0  0  0
  140.7711   73.2686  227.0601 H   0  0  0  0  0  0  0  0  0  0  0  0
  139.6272   72.0970  225.2391 H   0  0  0  0  0  0  0  0  0  0  0  0
  141.1520   73.5889  223.0443 H   0  0  0  0  0  0  0  0  0  0  0  0
  141.6114   72.4119  221.8153 H   0  0  0  0  0  0  0  0  0  0  0  0
  142.4807   74.6209  221.0901 H   0  0  0  0  0  0  0  0  0  0  0  0
  141.1102   74.2529  220.0233 H   0  0  0  0  0  0  0  0  0  0  0  0
  1  2  1  0
  2  3  1  0
  3  4  2  0
  3  5  1  0
  5  6  1  0
  6  7  2  0
  7  8  1  0
  8  9  2  0
  9 10  1  0
 10 11  2  0
  5 12  1  0
 12 13  1  0
 13 14  1  0
 14 15  1  0
 15 16  1  0
 16 17  2  0
 16 18  1  0
 18 19  1  0
 19 20  1  0
 19 21  1  0
 21 22  2  0
 22 23  1  0
 23 24  2  0
 24 25  1  0
 25 26  2  0
 26 27  1  0
 27 28  2  0
 28 29  1  0
 29 30  2  0
 15 31  1  0
 31 32  1  0
 11  6  1  0
 32 12  1  0
 30 21  1  0
 30 25  1  0
  1 33  1  0
  1 34  1  0
  1 35  1  0
  2 36  1  0
  2 37  1  0
  7 38  1  0
  8 39  1  0
  9 40  1  0
 10 41  1  0
 11 42  1  0
 12 43  1  0
 13 44  1  0
 13 45  1  0
 14 46  1  0
 14 47  1  0
 18 48  1  0
 18 49  1  0
 19 50  1  6
 20 51  1  0
 20 52  1  0
 22 53  1  0
 23 54  1  0
 24 55  1  0
 26 56  1  0
 27 57  1  0
 28 58  1  0
 29 59  1  0
 31 60  1  0
 31 61  1  0
 32 62  1  0
 32 63  1  0
M  END
>  <smiles>  (39) 
CCC(=O)N(c1ccccc1)C1CCN(C(=O)CC(N)c2cccc3ccccc23)CC1

>  <score_type>  (39) 
oracle

>  <origin>  (39) 
autodockgpu

>  <m_score__min__energy>  (39) 
-9.4000000000000004

>  <m_primary>  (39) 
energy

>  <rmsd>  (39) 
9.404208475811828

>  <m_score__min__rmsd>  (39) 
9.404208475811828

>  <meeko>  (39) 
{"free_energy": -8.9, "intermolecular_energy": -11.28, "internal_energy": -1.87, "cluster_size": 22, "cluster_id": 1, "rank_in_cluster": 10}

>  <energy>  (39) 
-8.12

>  <cluster_rmsd>  (39) 
0.0

>  <cluster>  (39) 
7

$$$$

     RDKit          3D

 63 66  0  0  0  0  0  0  0  0999 V2000
  137.0810   70.6500  223.9520 C   0  0  0  0  0  0  0  0  0  0  0  0
  137.8090   69.5860  223.1840 C   0  0  0  0  0  0  0  0  0  0  0  0
  139.2100   69.9570  222.8870 C   0  0  0  0  0  0  0  0  0  0  0  0
  139.7630   69.3640  221.9180 O   0  0  0  0  0  0  0  0  0  0  0  0
  139.9170   70.9390  223.6500 N   0  0  0  0  0  0  0  0  0  0  0  0
  140.2640   70.6320  224.9950 C   0  0  0  0  0  0  0  0  0  0  0  0
  140.7310   71.6440  225.8170 C   0  0  0  0  0  0  0  0  0  0  0  0
  141.0650   71.3430  227.1200 C   0  0  0  0  0  0  0  0  0  0  0  0
  140.9260   70.0480  227.5710 C   0  0  0  0  0  0  0  0  0  0  0  0
  140.4590   69.0210  226.7610 C   0  0  0  0  0  0  0  0  0  0  0  0
  140.1210   69.3260  225.4420 C   0  0  0  0  0  0  0  0  0  0  0  0
  140.2440   72.2030  223.0120 C   0  0  0  0  0  0  0  0  0  0  0  0
  141.3750   72.0380  222.0390 C   0  0  0  0  0  0  0  0  0  0  0  0
  141.0640   72.7560  220.7620 C   0  0  0  0  0  0  0  0  0  0  0  0
  140.5170   74.0830  220.9330 N   0  0  0  0  0  0  0  0  0  0  0  0
  140.9490   75.1580  220.1090 C   0  0  0  0  0  0  0  0  0  0  0  0
  141.8200   74.9120  219.2360 O   0  0  0  0  0  0  0  0  0  0  0  0
  140.3660   76.5250  220.3010 C   0  0  0  0  0  0  0  0  0  0  0  0
  141.5280   77.4830  220.3930 C   0  0  2  0  0  0  0  0  0  0  0  0
  142.8050   76.9220  220.0900 N   0  0  0  0  0  0  0  0  0  0  0  0
  141.4780   78.3930  221.5480 C   0  0  0  0  0  0  0  0  0  0  0  0
  141.4440   77.9430  222.8730 C   0  0  0  0  0  0  0  0  0  0  0  0
  141.3840   78.8060  223.9440 C   0  0  0  0  0  0  0  0  0  0  0  0
  141.3520   80.1730  223.7690 C   0  0  0  0  0  0  0  0  0  0  0  0
  141.3860   80.6380  222.4730 C   0  0  0  0  0  0  0  0  0  0  0  0
  141.3580   82.0150  222.3110 C   0  0  0  0  0  0  0  0  0  0  0  0
  141.3920   82.5730  221.0490 C   0  0  0  0  0  0  0  0  0  0  0  0
  141.4530   81.7170  219.9750 C   0  0  0  0  0  0  0  0  0  0  0  0
  141.4780   80.3510  220.1460 C   0  0  0  0  0  0  0  0  0  0  0  0
  141.4460   79.7710  221.3980 C   0  0  0  0  0  0  0  0  0  0  0  0
  139.5190   74.2590  221.9700 C   0  0  0  0  0  0  0  0  0  0  0  0
  139.0850   72.8360  222.3380 C   0  0  0  0  0  0  0  0  0  0  0  0
  137.2028   70.4719  225.0306 H   0  0  0  0  0  0  0  0  0  0  0  0
  137.4945   71.6362  223.6942 H   0  0  0  0  0  0  0  0  0  0  0  0
  136.0120   70.6218  223.6942 H   0  0  0  0  0  0  0  0  0  0  0  0
  137.8080   68.6599  223.7776 H   0  0  0  0  0  0  0  0  0  0  0  0
  137.2888   69.4529  222.2240 H   0  0  0  0  0  0  0  0  0  0  0  0
  140.8337   72.6709  225.4364 H   0  0  0  0  0  0  0  0  0  0  0  0
  141.4388   72.1285  227.7932 H   0  0  0  0  0  0  0  0  0  0  0  0
  141.1953   69.8191  228.6127 H   0  0  0  0  0  0  0  0  0  0  0  0
  140.3584   67.9963  227.1482 H   0  0  0  0  0  0  0  0  0  0  0  0
  139.7467   68.5427  224.7664 H   0  0  0  0  0  0  0  0  0  0  0  0
  140.5535   72.8785  223.8231 H   0  0  0  0  0  0  0  0  0  0  0  0
  142.2946   72.4545  222.4760 H   0  0  0  0  0  0  0  0  0  0  0  0
  141.5134   70.9678  221.8259 H   0  0  0  0  0  0  0  0  0  0  0  0
  141.9944   72.8411  220.1814 H   0  0  0  0  0  0  0  0  0  0  0  0
  140.2891   72.1637  220.2533 H   0  0  0  0  0  0  0  0  0  0  0  0
  139.7252   76.7873  219.4463 H   0  0  0  0  0  0  0  0  0  0  0  0
  139.7460   76.5668  221.2086 H   0  0  0  0  0  0  0  0  0  0  0  0
  141.3775   78.1638  219.5422 H   0  0  0  0  0  0  0  0  0  0  0  0
  142.9630   76.1090  220.6970 H   0  0  0  0  0  0  0  0  0  0  0  0
  142.8890   76.7900  219.0790 H   0  0  0  0  0  0  0  0  0  0  0  0
  141.4660   76.8602  223.0656 H   0  0  0  0  0  0  0  0  0  0  0  0
  141.3610   78.3948  224.9640 H   0  0  0  0  0  0  0  0  0  0  0  0
  141.3016   80.8612  224.6256 H   0  0  0  0  0  0  0  0  0  0  0  0
  141.3083   82.6676  223.1951 H   0  0  0  0  0  0  0  0  0  0  0  0
  141.3710   83.6637  220.9077 H   0  0  0  0  0  0  0  0  0  0  0  0
  141.4825   82.1324  218.9569 H   0  0  0  0  0  0  0  0  0  0  0  0
  141.5249   79.7028  219.2585 H   0  0  0  0  0  0  0  0  0  0  0  0
  139.9521   74.7703  222.8424 H   0  0  0  0  0  0  0  0  0  0  0  0
  138.6741   74.8779  221.6337 H   0  0  0  0  0  0  0  0  0  0  0  0
  138.2204   72.8662  223.0174 H   0  0  0  0  0  0  0  0  0  0  0  0
  138.7856   72.2681  221.4448 H   0  0  0  0  0  0  0  0  0  0  0  0
  1  2  1  0
  2  3  1  0
  3  4  2  0
  3  5  1  0
  5  6  1  0
  6  7  2  0
  7  8  1  0
  8  9  2  0
  9 10  1  0
 10 11  2  0
  5 12  1  0
 12 13  1  0
 13 14  1  0
 14 15  1  0
 15 16  1  0
 16 17  2  0
 16 18  1  0
 18 19  1  0
 19 20  1  0
 19 21  1  0
 21 22  2  0
 22 23  1  0
 23 24  2  0
 24 25  1  0
 25 26  2  0
 26 27  1  0
 27 28  2  0
 28 29  1  0
 29 30  2  0
 15 31  1  0
 31 32  1  0
 11  6  1  0
 32 12  1  0
 30 21  1  0
 30 25  1  0
  1 33  1  0
  1 34  1  0
  1 35  1  0
  2 36  1  0
  2 37  1  0
  7 38  1  0
  8 39  1  0
  9 40  1  0
 10 41  1  0
 11 42  1  0
 12 43  1  0
 13 44  1  0
 13 45  1  0
 14 46  1  0
 14 47  1  0
 18 48  1  0
 18 49  1  0
 19 50  1  6
 20 51  1  0
 20 52  1  0
 22 53  1  0
 23 54  1  0
 24 55  1  0
 26 56  1  0
 27 57  1  0
 28 58  1  0
 29 59  1  0
 31 60  1  0
 31 61  1  0
 32 62  1  0
 32 63  1  0
M  END
>  <smiles>  (40) 
CCC(=O)N(c1ccccc1)C1CCN(C(=O)CC(N)c2cccc3ccccc23)CC1

>  <score_type>  (40) 
oracle

>  <origin>  (40) 
autodockgpu

>  <m_score__min__energy>  (40) 
-9.4000000000000004

>  <m_primary>  (40) 
energy

>  <rmsd>  (40) 
5.034389147575847

>  <m_score__min__rmsd>  (40) 
5.034389147575847

>  <meeko>  (40) 
{"free_energy": -7.89, "intermolecular_energy": -10.28, "internal_energy": -2.34, "cluster_size": 4, "cluster_id": 8, "rank_in_cluster": 2}

>  <energy>  (40) 
-8.12

>  <cluster_rmsd>  (40) 
0.35

>  <cluster>  (40) 
7

$$$$

     RDKit          3D

 63 66  0  0  0  0  0  0  0  0999 V2000
  142.9740   77.0860  217.8460 C   0  0  0  0  0  0  0  0  0  0  0  0
  142.8910   77.0490  219.3450 C   0  0  0  0  0  0  0  0  0  0  0  0
  141.5850   77.5210  219.8540 C   0  0  0  0  0  0  0  0  0  0  0  0
  140.8240   78.0940  219.0250 O   0  0  0  0  0  0  0  0  0  0  0  0
  141.1890   77.3430  221.2170 N   0  0  0  0  0  0  0  0  0  0  0  0
  141.3320   78.4380  222.1130 C   0  0  0  0  0  0  0  0  0  0  0  0
  140.2940   78.7400  222.9790 C   0  0  0  0  0  0  0  0  0  0  0  0
  140.4370   79.8010  223.8470 C   0  0  0  0  0  0  0  0  0  0  0  0
  141.6060   80.5320  223.8340 C   0  0  0  0  0  0  0  0  0  0  0  0
  142.6570   80.2430  222.9730 C   0  0  0  0  0  0  0  0  0  0  0  0
  142.5120   79.1690  222.0940 C   0  0  0  0  0  0  0  0  0  0  0  0
  140.6600   76.0510  221.6170 C   0  0  0  0  0  0  0  0  0  0  0  0
  139.1970   75.9450  221.2960 C   0  0  0  0  0  0  0  0  0  0  0  0
  138.9040   74.6160  220.6680 C   0  0  0  0  0  0  0  0  0  0  0  0
  139.5280   73.4890  221.3210 N   0  0  0  0  0  0  0  0  0  0  0  0
  138.8100   72.2780  221.5240 C   0  0  0  0  0  0  0  0  0  0  0  0
  137.6200   72.2300  221.1200 O   0  0  0  0  0  0  0  0  0  0  0  0
  139.4780   71.1200  222.2010 C   0  0  0  0  0  0  0  0  0  0  0  0
  138.7800   70.9300  223.5240 C   0  0  2  0  0  0  0  0  0  0  0  0
  137.6000   71.7110  223.7080 N   0  0  0  0  0  0  0  0  0  0  0  0
  139.6830   70.8360  224.6820 C   0  0  0  0  0  0  0  0  0  0  0  0
  140.4560   71.9120  225.1340 C   0  0  0  0  0  0  0  0  0  0  0  0
  141.3070   71.8070  226.2110 C   0  0  0  0  0  0  0  0  0  0  0  0
  141.4470   70.6270  226.9090 C   0  0  0  0  0  0  0  0  0  0  0  0
  140.6940   69.5560  226.4820 C   0  0  0  0  0  0  0  0  0  0  0  0
  140.8390   68.3750  227.1960 C   0  0  0  0  0  0  0  0  0  0  0  0
  140.1230   67.2500  226.8430 C   0  0  0  0  0  0  0  0  0  0  0  0
  139.2700   67.3480  225.7700 C   0  0  0  0  0  0  0  0  0  0  0  0
  139.1330   68.5240  225.0650 C   0  0  0  0  0  0  0  0  0  0  0  0
  139.8400   69.6610  225.4010 C   0  0  0  0  0  0  0  0  0  0  0  0
  140.9040   73.6500  221.7490 C   0  0  0  0  0  0  0  0  0  0  0  0
  141.3920   74.9070  221.0220 C   0  0  0  0  0  0  0  0  0  0  0  0
  143.9398   77.5165  217.5428 H   0  0  0  0  0  0  0  0  0  0  0  0
  142.8872   76.0640  217.4486 H   0  0  0  0  0  0  0  0  0  0  0  0
  142.1558   77.7046  217.4486 H   0  0  0  0  0  0  0  0  0  0  0  0
  143.0466   76.0132  219.6810 H   0  0  0  0  0  0  0  0  0  0  0  0
  143.6656   77.7238  219.7384 H   0  0  0  0  0  0  0  0  0  0  0  0
  139.3704   78.1426  222.9741 H   0  0  0  0  0  0  0  0  0  0  0  0
  139.6264   80.0621  224.5433 H   0  0  0  0  0  0  0  0  0  0  0  0
  141.7103   81.3759  224.5318 H   0  0  0  0  0  0  0  0  0  0  0  0
  143.5781   80.8441  222.9838 H   0  0  0  0  0  0  0  0  0  0  0  0
  143.3207   78.9055  221.3964 H   0  0  0  0  0  0  0  0  0  0  0  0
  140.8024   75.9929  222.7062 H   0  0  0  0  0  0  0  0  0  0  0  0
  138.6127   76.0467  222.2224 H   0  0  0  0  0  0  0  0  0  0  0  0
  138.9233   76.7447  220.5921 H   0  0  0  0  0  0  0  0  0  0  0  0
  137.8150   74.4618  220.6848 H   0  0  0  0  0  0  0  0  0  0  0  0
  139.3201   74.6548  219.6505 H   0  0  0  0  0  0  0  0  0  0  0  0
  139.3790   70.2131  221.5865 H   0  0  0  0  0  0  0  0  0  0  0  0
  140.5518   71.3111  222.3441 H   0  0  0  0  0  0  0  0  0  0  0  0
  138.3637   69.9138  223.4598 H   0  0  0  0  0  0  0  0  0  0  0  0
  137.3470   71.7010  224.7030 H   0  0  0  0  0  0  0  0  0  0  0  0
  137.7170   72.6190  223.2520 H   0  0  0  0  0  0  0  0  0  0  0  0
  140.3807   72.8761  224.6098 H   0  0  0  0  0  0  0  0  0  0  0  0
  141.8896   72.6866  226.5221 H   0  0  0  0  0  0  0  0  0  0  0  0
  142.1291   70.5444  227.7680 H   0  0  0  0  0  0  0  0  0  0  0  0
  141.5306   68.3356  228.0505 H   0  0  0  0  0  0  0  0  0  0  0  0
  140.2310   66.3080  227.4006 H   0  0  0  0  0  0  0  0  0  0  0  0
  138.6835   66.4680  225.4672 H   0  0  0  0  0  0  0  0  0  0  0  0
  138.4409   68.5577  224.2106 H   0  0  0  0  0  0  0  0  0  0  0  0
  140.9578   73.7867  222.8391 H   0  0  0  0  0  0  0  0  0  0  0  0
  141.5188   72.7684  221.5150 H   0  0  0  0  0  0  0  0  0  0  0  0
  142.4752   75.0328  221.1667 H   0  0  0  0  0  0  0  0  0  0  0  0
  141.2067   74.8368  219.9400 H   0  0  0  0  0  0  0  0  0  0  0  0
  1  2  1  0
  2  3  1  0
  3  4  2  0
  3  5  1  0
  5  6  1  0
  6  7  2  0
  7  8  1  0
  8  9  2  0
  9 10  1  0
 10 11  2  0
  5 12  1  0
 12 13  1  0
 13 14  1  0
 14 15  1  0
 15 16  1  0
 16 17  2  0
 16 18  1  0
 18 19  1  0
 19 20  1  0
 19 21  1  0
 21 22  2  0
 22 23  1  0
 23 24  2  0
 24 25  1  0
 25 26  2  0
 26 27  1  0
 27 28  2  0
 28 29  1  0
 29 30  2  0
 15 31  1  0
 31 32  1  0
 11  6  1  0
 32 12  1  0
 30 21  1  0
 30 25  1  0
  1 33  1  0
  1 34  1  0
  1 35  1  0
  2 36  1  0
  2 37  1  0
  7 38  1  0
  8 39  1  0
  9 40  1  0
 10 41  1  0
 11 42  1  0
 12 43  1  0
 13 44  1  0
 13 45  1  0
 14 46  1  0
 14 47  1  0
 18 48  1  0
 18 49  1  0
 19 50  1  6
 20 51  1  0
 20 52  1  0
 22 53  1  0
 23 54  1  0
 24 55  1  0
 26 56  1  0
 27 57  1  0
 28 58  1  0
 29 59  1  0
 31 60  1  0
 31 61  1  0
 32 62  1  0
 32 63  1  0
M  END
>  <smiles>  (41) 
CCC(=O)N(c1ccccc1)C1CCN(C(=O)CC(N)c2cccc3ccccc23)CC1

>  <score_type>  (41) 
oracle

>  <origin>  (41) 
autodockgpu

>  <m_score__min__energy>  (41) 
-9.4000000000000004

>  <m_primary>  (41) 
energy

>  <rmsd>  (41) 
7.952867637173895

>  <m_score__min__rmsd>  (41) 
7.952867637173895

>  <meeko>  (41) 
{"free_energy": -8.54, "intermolecular_energy": -10.92, "internal_energy": -1.86, "cluster_size": 22, "cluster_id": 1, "rank_in_cluster": 17}

>  <energy>  (41) 
-8.01

>  <cluster_rmsd>  (41) 
0.5

>  <cluster>  (41) 
7

$$$$

     RDKit          3D

 63 66  0  0  0  0  0  0  0  0999 V2000
  142.9170   77.1290  219.0630 C   0  0  0  0  0  0  0  0  0  0  0  0
  142.0420   78.3490  219.0750 C   0  0  0  0  0  0  0  0  0  0  0  0
  140.8370   78.1760  219.9150 C   0  0  0  0  0  0  0  0  0  0  0  0
  139.7190   78.3250  219.3450 O   0  0  0  0  0  0  0  0  0  0  0  0
  140.9180   77.8540  221.3060 N   0  0  0  0  0  0  0  0  0  0  0  0
  141.2650   78.8860  222.2220 C   0  0  0  0  0  0  0  0  0  0  0  0
  140.2590   79.5340  222.9200 C   0  0  0  0  0  0  0  0  0  0  0  0
  140.6000   80.5320  223.8070 C   0  0  0  0  0  0  0  0  0  0  0  0
  141.9280   80.8600  223.9780 C   0  0  0  0  0  0  0  0  0  0  0  0
  142.9490   80.2210  223.2870 C   0  0  0  0  0  0  0  0  0  0  0  0
  142.6040   79.2100  222.3890 C   0  0  0  0  0  0  0  0  0  0  0  0
  140.6420   76.4880  221.7150 C   0  0  0  0  0  0  0  0  0  0  0  0
  139.3330   76.3980  222.4450 C   0  0  0  0  0  0  0  0  0  0  0  0
  138.5470   75.2230  221.9490 C   0  0  0  0  0  0  0  0  0  0  0  0
  139.3110   74.0070  221.7950 N   0  0  0  0  0  0  0  0  0  0  0  0
  138.7740   72.7550  222.2030 C   0  0  0  0  0  0  0  0  0  0  0  0
  137.6190   72.7490  222.7020 O   0  0  0  0  0  0  0  0  0  0  0  0
  139.5830   71.5050  222.0320 C   0  0  0  0  0  0  0  0  0  0  0  0
  139.1350   70.5480  223.1090 C   0  0  2  0  0  0  0  0  0  0  0  0
  137.7240   70.3590  223.2080 N   0  0  0  0  0  0  0  0  0  0  0  0
  139.8630   70.6790  224.3810 C   0  0  0  0  0  0  0  0  0  0  0  0
  140.5920   71.8230  224.7280 C   0  0  0  0  0  0  0  0  0  0  0  0
  141.2790   71.9270  225.9160 C   0  0  0  0  0  0  0  0  0  0  0  0
  141.2870   70.9030  226.8380 C   0  0  0  0  0  0  0  0  0  0  0  0
  140.5740   69.7680  226.5180 C   0  0  0  0  0  0  0  0  0  0  0  0
  140.5860   68.7470  227.4560 C   0  0  0  0  0  0  0  0  0  0  0  0
  139.8970   67.5740  227.2230 C   0  0  0  0  0  0  0  0  0  0  0  0
  139.2080   67.4640  226.0390 C   0  0  0  0  0  0  0  0  0  0  0  0
  139.2030   68.4820  225.1130 C   0  0  0  0  0  0  0  0  0  0  0  0
  139.8850   69.6640  225.3240 C   0  0  0  0  0  0  0  0  0  0  0  0
  140.6320   74.1240  221.2100 C   0  0  0  0  0  0  0  0  0  0  0  0
  140.6590   75.5250  220.5880 C   0  0  0  0  0  0  0  0  0  0  0  0
  143.1355   76.8243  220.0971 H   0  0  0  0  0  0  0  0  0  0  0  0
  142.3984   76.3110  218.5415 H   0  0  0  0  0  0  0  0  0  0  0  0
  143.8581   77.3579  218.5415 H   0  0  0  0  0  0  0  0  0  0  0  0
  142.6246   79.1967  219.4649 H   0  0  0  0  0  0  0  0  0  0  0  0
  141.7060   78.5284  218.0430 H   0  0  0  0  0  0  0  0  0  0  0  0
  139.2054   79.2565  222.7687 H   0  0  0  0  0  0  0  0  0  0  0  0
  139.8199   81.0619  224.3733 H   0  0  0  0  0  0  0  0  0  0  0  0
  142.1887   81.6581  224.6887 H   0  0  0  0  0  0  0  0  0  0  0  0
  144.0005   80.5038  223.4431 H   0  0  0  0  0  0  0  0  0  0  0  0
  143.3819   78.6778  221.8219 H   0  0  0  0  0  0  0  0  0  0  0  0
  141.4606   76.2059  222.3935 H   0  0  0  0  0  0  0  0  0  0  0  0
  139.5242   76.2795  223.5218 H   0  0  0  0  0  0  0  0  0  0  0  0
  138.7570   77.3179  222.2663 H   0  0  0  0  0  0  0  0  0  0  0  0
  137.7338   75.0284  222.6638 H   0  0  0  0  0  0  0  0  0  0  0  0
  138.1861   75.4922  220.9454 H   0  0  0  0  0  0  0  0  0  0  0  0
  139.4020   71.0692  221.0384 H   0  0  0  0  0  0  0  0  0  0  0  0
  140.6595   71.7162  222.1131 H   0  0  0  0  0  0  0  0  0  0  0  0
  139.4632   69.5641  222.7426 H   0  0  0  0  0  0  0  0  0  0  0  0
  137.3690   70.9170  223.9920 H   0  0  0  0  0  0  0  0  0  0  0  0
  137.2960   70.4950  222.2890 H   0  0  0  0  0  0  0  0  0  0  0  0
  140.6165   72.6692  224.0257 H   0  0  0  0  0  0  0  0  0  0  0  0
  141.8354   72.8503  226.1349 H   0  0  0  0  0  0  0  0  0  0  0  0
  141.8376   70.9877  227.7865 H   0  0  0  0  0  0  0  0  0  0  0  0
  141.1488   68.8728  228.3927 H   0  0  0  0  0  0  0  0  0  0  0  0
  139.8993   66.7563  227.9588 H   0  0  0  0  0  0  0  0  0  0  0  0
  138.6478   66.5414  225.8267 H   0  0  0  0  0  0  0  0  0  0  0  0
  138.6394   68.3503  224.1776 H   0  0  0  0  0  0  0  0  0  0  0  0
  141.4086   74.0277  221.9831 H   0  0  0  0  0  0  0  0  0  0  0  0
  140.8306   73.3356  220.4691 H   0  0  0  0  0  0  0  0  0  0  0  0
  141.5723   75.6572  219.9893 H   0  0  0  0  0  0  0  0  0  0  0  0
  139.7986   75.6798  219.9204 H   0  0  0  0  0  0  0  0  0  0  0  0
  1  2  1  0
  2  3  1  0
  3  4  2  0
  3  5  1  0
  5  6  1  0
  6  7  2  0
  7  8  1  0
  8  9  2  0
  9 10  1  0
 10 11  2  0
  5 12  1  0
 12 13  1  0
 13 14  1  0
 14 15  1  0
 15 16  1  0
 16 17  2  0
 16 18  1  0
 18 19  1  0
 19 20  1  0
 19 21  1  0
 21 22  2  0
 22 23  1  0
 23 24  2  0
 24 25  1  0
 25 26  2  0
 26 27  1  0
 27 28  2  0
 28 29  1  0
 29 30  2  0
 15 31  1  0
 31 32  1  0
 11  6  1  0
 32 12  1  0
 30 21  1  0
 30 25  1  0
  1 33  1  0
  1 34  1  0
  1 35  1  0
  2 36  1  0
  2 37  1  0
  7 38  1  0
  8 39  1  0
  9 40  1  0
 10 41  1  0
 11 42  1  0
 12 43  1  0
 13 44  1  0
 13 45  1  0
 14 46  1  0
 14 47  1  0
 18 48  1  0
 18 49  1  0
 19 50  1  6
 20 51  1  0
 20 52  1  0
 22 53  1  0
 23 54  1  0
 24 55  1  0
 26 56  1  0
 27 57  1  0
 28 58  1  0
 29 59  1  0
 31 60  1  0
 31 61  1  0
 32 62  1  0
 32 63  1  0
M  END
>  <smiles>  (42) 
CCC(=O)N(c1ccccc1)C1CCN(C(=O)CC(N)c2cccc3ccccc23)CC1

>  <score_type>  (42) 
oracle

>  <origin>  (42) 
autodockgpu

>  <m_score__min__energy>  (42) 
-9.4000000000000004

>  <m_primary>  (42) 
energy

>  <rmsd>  (42) 
7.95955475277224

>  <m_score__min__rmsd>  (42) 
7.95955475277224

>  <meeko>  (42) 
{"free_energy": -8.23, "intermolecular_energy": -10.61, "internal_energy": -2.27, "cluster_size": 22, "cluster_id": 1, "rank_in_cluster": 20}

>  <energy>  (42) 
-8.0

>  <cluster_rmsd>  (42) 
0.52

>  <cluster>  (42) 
7

$$$$

     RDKit          3D

 63 66  0  0  0  0  0  0  0  0999 V2000
  142.2070   81.0360  223.5180 C   0  0  0  0  0  0  0  0  0  0  0  0
  142.2210   79.5370  223.4470 C   0  0  0  0  0  0  0  0  0  0  0  0
  140.9400   78.9780  222.9630 C   0  0  0  0  0  0  0  0  0  0  0  0
  139.8920   79.3600  223.5560 O   0  0  0  0  0  0  0  0  0  0  0  0
  140.8750   78.0510  221.8760 N   0  0  0  0  0  0  0  0  0  0  0  0
  141.0150   78.5480  220.5500 C   0  0  0  0  0  0  0  0  0  0  0  0
  142.1870   78.2950  219.8570 C   0  0  0  0  0  0  0  0  0  0  0  0
  142.3190   78.7780  218.5730 C   0  0  0  0  0  0  0  0  0  0  0  0
  141.2860   79.4970  218.0110 C   0  0  0  0  0  0  0  0  0  0  0  0
  140.1030   79.7590  218.6920 C   0  0  0  0  0  0  0  0  0  0  0  0
  139.9700   79.2710  219.9920 C   0  0  0  0  0  0  0  0  0  0  0  0
  140.6660   76.6460  222.1800 C   0  0  0  0  0  0  0  0  0  0  0  0
  139.2730   76.4060  222.6860 C   0  0  0  0  0  0  0  0  0  0  0  0
  138.6870   75.1960  222.0240 C   0  0  0  0  0  0  0  0  0  0  0  0
  139.5760   74.0590  221.9480 N   0  0  0  0  0  0  0  0  0  0  0  0
  139.0990   72.7470  222.2150 C   0  0  0  0  0  0  0  0  0  0  0  0
  137.8860   72.6150  222.5200 O   0  0  0  0  0  0  0  0  0  0  0  0
  140.0380   71.5810  222.1260 C   0  0  0  0  0  0  0  0  0  0  0  0
  139.5230   70.5370  223.0860 C   0  0  2  0  0  0  0  0  0  0  0  0
  138.1330   70.2350  222.9690 N   0  0  0  0  0  0  0  0  0  0  0  0
  140.0480   70.6570  224.4560 C   0  0  0  0  0  0  0  0  0  0  0  0
  140.6890   71.8080  224.9280 C   0  0  0  0  0  0  0  0  0  0  0  0
  141.1870   71.9020  226.2080 C   0  0  0  0  0  0  0  0  0  0  0  0
  141.0810   70.8590  227.1030 C   0  0  0  0  0  0  0  0  0  0  0  0
  140.4530   69.7160  226.6590 C   0  0  0  0  0  0  0  0  0  0  0  0
  140.3480   68.6750  227.5700 C   0  0  0  0  0  0  0  0  0  0  0  0
  139.7320   67.4930  227.2150 C   0  0  0  0  0  0  0  0  0  0  0  0
  139.2310   67.3930  225.9390 C   0  0  0  0  0  0  0  0  0  0  0  0
  139.3400   68.4310  225.0400 C   0  0  0  0  0  0  0  0  0  0  0  0
  139.9530   69.6220  225.3730 C   0  0  0  0  0  0  0  0  0  0  0  0
  140.9550   74.3210  221.5880 C   0  0  0  0  0  0  0  0  0  0  0  0
  140.9490   75.7490  221.0340 C   0  0  0  0  0  0  0  0  0  0  0  0
  142.2040   81.3532  224.5713 H   0  0  0  0  0  0  0  0  0  0  0  0
  143.1015   81.4352  223.0174 H   0  0  0  0  0  0  0  0  0  0  0  0
  141.3052   81.4184  223.0174 H   0  0  0  0  0  0  0  0  0  0  0  0
  143.0229   79.2243  222.7621 H   0  0  0  0  0  0  0  0  0  0  0  0
  142.3862   79.1570  224.4660 H   0  0  0  0  0  0  0  0  0  0  0  0
  142.9991   77.7181  220.3236 H   0  0  0  0  0  0  0  0  0  0  0  0
  143.2404   78.5914  218.0018 H   0  0  0  0  0  0  0  0  0  0  0  0
  141.4022   79.8776  216.9855 H   0  0  0  0  0  0  0  0  0  0  0  0
  139.2941   80.3352  218.2190 H   0  0  0  0  0  0  0  0  0  0  0  0
  139.0504   79.4565  220.5664 H   0  0  0  0  0  0  0  0  0  0  0  0
  141.3913   76.3986  222.9691 H   0  0  0  0  0  0  0  0  0  0  0  0
  139.3033   76.2469  223.7740 H   0  0  0  0  0  0  0  0  0  0  0  0
  138.6492   77.2817  222.4535 H   0  0  0  0  0  0  0  0  0  0  0  0
  137.7932   74.8948  222.5901 H   0  0  0  0  0  0  0  0  0  0  0  0
  138.4648   75.4865  220.9866 H   0  0  0  0  0  0  0  0  0  0  0  0
  140.0501   71.1811  221.1014 H   0  0  0  0  0  0  0  0  0  0  0  0
  141.0658   71.8798  222.3796 H   0  0  0  0  0  0  0  0  0  0  0  0
  139.9822   69.6021  222.7324 H   0  0  0  0  0  0  0  0  0  0  0  0
  137.6250   70.7130  223.7220 H   0  0  0  0  0  0  0  0  0  0  0  0
  137.8280   70.3950  222.0060 H   0  0  0  0  0  0  0  0  0  0  0  0
  140.7989   72.6687  224.2518 H   0  0  0  0  0  0  0  0  0  0  0  0
  141.6816   72.8322  226.5243 H   0  0  0  0  0  0  0  0  0  0  0  0
  141.4797   70.9358  228.1253 H   0  0  0  0  0  0  0  0  0  0  0  0
  140.7592   68.7931  228.5834 H   0  0  0  0  0  0  0  0  0  0  0  0
  139.6448   66.6598  227.9279 H   0  0  0  0  0  0  0  0  0  0  0  0
  138.7318   66.4632  225.6287 H   0  0  0  0  0  0  0  0  0  0  0  0
  138.9268   68.3072  224.0281 H   0  0  0  0  0  0  0  0  0  0  0  0
  141.6064   74.2507  222.4716 H   0  0  0  0  0  0  0  0  0  0  0  0
  141.3394   73.5935  220.8579 H   0  0  0  0  0  0  0  0  0  0  0  0
  141.9287   75.9904  220.5958 H   0  0  0  0  0  0  0  0  0  0  0  0
  140.1933   75.8648  220.2431 H   0  0  0  0  0  0  0  0  0  0  0  0
  1  2  1  0
  2  3  1  0
  3  4  2  0
  3  5  1  0
  5  6  1  0
  6  7  2  0
  7  8  1  0
  8  9  2  0
  9 10  1  0
 10 11  2  0
  5 12  1  0
 12 13  1  0
 13 14  1  0
 14 15  1  0
 15 16  1  0
 16 17  2  0
 16 18  1  0
 18 19  1  0
 19 20  1  0
 19 21  1  0
 21 22  2  0
 22 23  1  0
 23 24  2  0
 24 25  1  0
 25 26  2  0
 26 27  1  0
 27 28  2  0
 28 29  1  0
 29 30  2  0
 15 31  1  0
 31 32  1  0
 11  6  1  0
 32 12  1  0
 30 21  1  0
 30 25  1  0
  1 33  1  0
  1 34  1  0
  1 35  1  0
  2 36  1  0
  2 37  1  0
  7 38  1  0
  8 39  1  0
  9 40  1  0
 10 41  1  0
 11 42  1  0
 12 43  1  0
 13 44  1  0
 13 45  1  0
 14 46  1  0
 14 47  1  0
 18 48  1  0
 18 49  1  0
 19 50  1  6
 20 51  1  0
 20 52  1  0
 22 53  1  0
 23 54  1  0
 24 55  1  0
 26 56  1  0
 27 57  1  0
 28 58  1  0
 29 59  1  0
 31 60  1  0
 31 61  1  0
 32 62  1  0
 32 63  1  0
M  END
>  <smiles>  (43) 
CCC(=O)N(c1ccccc1)C1CCN(C(=O)CC(N)c2cccc3ccccc23)CC1

>  <score_type>  (43) 
oracle

>  <origin>  (43) 
autodockgpu

>  <m_score__min__energy>  (43) 
-9.4000000000000004

>  <m_primary>  (43) 
energy

>  <rmsd>  (43) 
8.005890138666462

>  <m_score__min__rmsd>  (43) 
8.005890138666462

>  <meeko>  (43) 
{"free_energy": -7.91, "intermolecular_energy": -10.3, "internal_energy": -2.22, "cluster_size": 3, "cluster_id": 4, "rank_in_cluster": 3}

>  <energy>  (43) 
-7.82

>  <cluster_rmsd>  (43) 
0.9

>  <cluster>  (43) 
7

$$$$

     RDKit          3D

 63 66  0  0  0  0  0  0  0  0999 V2000
  138.7590   67.0540  222.4410 C   0  0  0  0  0  0  0  0  0  0  0  0
  138.2070   68.4350  222.2350 C   0  0  0  0  0  0  0  0  0  0  0  0
  137.9150   69.1260  223.5100 C   0  0  0  0  0  0  0  0  0  0  0  0
  136.7630   68.9540  224.0010 O   0  0  0  0  0  0  0  0  0  0  0  0
  138.8800   69.9510  224.1680 N   0  0  0  0  0  0  0  0  0  0  0  0
  139.4570   69.4830  225.3820 C   0  0  0  0  0  0  0  0  0  0  0  0
  139.4010   68.1310  225.6770 C   0  0  0  0  0  0  0  0  0  0  0  0
  139.9620   67.6810  226.8530 C   0  0  0  0  0  0  0  0  0  0  0  0
  140.5620   68.5840  227.7040 C   0  0  0  0  0  0  0  0  0  0  0  0
  140.6280   69.9440  227.4240 C   0  0  0  0  0  0  0  0  0  0  0  0
  140.0600   70.3990  226.2330 C   0  0  0  0  0  0  0  0  0  0  0  0
  139.2230   71.2270  223.5650 C   0  0  0  0  0  0  0  0  0  0  0  0
  140.5270   71.1410  222.8270 C   0  0  0  0  0  0  0  0  0  0  0  0
  140.4080   71.8110  221.4930 C   0  0  0  0  0  0  0  0  0  0  0  0
  139.7370   73.0910  221.5170 N   0  0  0  0  0  0  0  0  0  0  0  0
  140.2320   74.1850  220.7560 C   0  0  0  0  0  0  0  0  0  0  0  0
  141.2680   73.9980  220.0690 O   0  0  0  0  0  0  0  0  0  0  0  0
  139.5180   75.5030  220.7930 C   0  0  0  0  0  0  0  0  0  0  0  0
  140.4040   76.4530  221.5600 C   0  0  2  0  0  0  0  0  0  0  0  0
  141.4460   75.8380  222.3160 N   0  0  0  0  0  0  0  0  0  0  0  0
  139.6880   77.5560  222.2200 C   0  0  0  0  0  0  0  0  0  0  0  0
  138.3000   77.5620  222.4020 C   0  0  0  0  0  0  0  0  0  0  0  0
  137.6400   78.6060  223.0100 C   0  0  0  0  0  0  0  0  0  0  0  0
  138.3160   79.7130  223.4770 C   0  0  0  0  0  0  0  0  0  0  0  0
  139.6830   79.7270  223.3100 C   0  0  0  0  0  0  0  0  0  0  0  0
  140.3520   80.8440  223.7880 C   0  0  0  0  0  0  0  0  0  0  0  0
  141.7230   80.9450  223.6670 C   0  0  0  0  0  0  0  0  0  0  0  0
  142.3880   79.9050  223.0620 C   0  0  0  0  0  0  0  0  0  0  0  0
  141.7150   78.8010  222.5890 C   0  0  0  0  0  0  0  0  0  0  0  0
  140.3450   78.6780  222.6990 C   0  0  0  0  0  0  0  0  0  0  0  0
  138.5500   73.2000  222.3420 C   0  0  0  0  0  0  0  0  0  0  0  0
  138.1670   71.7520  222.6660 C   0  0  0  0  0  0  0  0  0  0  0  0
  138.8410   66.8489  223.5186 H   0  0  0  0  0  0  0  0  0  0  0  0
  138.0862   66.3173  221.9777 H   0  0  0  0  0  0  0  0  0  0  0  0
  139.7542   66.9840  221.9777 H   0  0  0  0  0  0  0  0  0  0  0  0
  138.9430   69.0286  221.6729 H   0  0  0  0  0  0  0  0  0  0  0  0
  137.2599   68.3369  221.6842 H   0  0  0  0  0  0  0  0  0  0  0  0
  138.9166   67.4275  224.9839 H   0  0  0  0  0  0  0  0  0  0  0  0
  139.9311   66.6118  227.1097 H   0  0  0  0  0  0  0  0  0  0  0  0
  141.0055   68.2145  228.6403 H   0  0  0  0  0  0  0  0  0  0  0  0
  141.1142   70.6420  228.1214 H   0  0  0  0  0  0  0  0  0  0  0  0
  140.0897   71.4673  225.9727 H   0  0  0  0  0  0  0  0  0  0  0  0
  139.3200   71.9376  224.3990 H   0  0  0  0  0  0  0  0  0  0  0  0
  141.3117   71.6388  223.4155 H   0  0  0  0  0  0  0  0  0  0  0  0
  140.7867   70.0827  222.6767 H   0  0  0  0  0  0  0  0  0  0  0  0
  141.4219   71.9632  221.0945 H   0  0  0  0  0  0  0  0  0  0  0  0
  139.7915   71.1491  220.8671 H   0  0  0  0  0  0  0  0  0  0  0  0
  139.3570   75.8760  219.7708 H   0  0  0  0  0  0  0  0  0  0  0  0
  138.5324   75.4064  221.2718 H   0  0  0  0  0  0  0  0  0  0  0  0
  140.9765   76.9715  220.7768 H   0  0  0  0  0  0  0  0  0  0  0  0
  142.0480   75.3030  221.6790 H   0  0  0  0  0  0  0  0  0  0  0  0
  141.8880   76.5360  222.9210 H   0  0  0  0  0  0  0  0  0  0  0  0
  137.7153   76.7009  222.0461 H   0  0  0  0  0  0  0  0  0  0  0  0
  136.5473   78.5557  223.1259 H   0  0  0  0  0  0  0  0  0  0  0  0
  137.7874   80.5474  223.9612 H   0  0  0  0  0  0  0  0  0  0  0  0
  139.7853   81.6558  224.2673 H   0  0  0  0  0  0  0  0  0  0  0  0
  142.2644   81.8263  224.0414 H   0  0  0  0  0  0  0  0  0  0  0  0
  143.4814   79.9560  222.9535 H   0  0  0  0  0  0  0  0  0  0  0  0
  142.2865   77.9929  222.1091 H   0  0  0  0  0  0  0  0  0  0  0  0
  138.7683   73.7590  223.2638 H   0  0  0  0  0  0  0  0  0  0  0  0
  137.7384   73.7414  221.8339 H   0  0  0  0  0  0  0  0  0  0  0  0
  137.1896   71.7213  223.1697 H   0  0  0  0  0  0  0  0  0  0  0  0
  138.0881   71.1475  221.7504 H   0  0  0  0  0  0  0  0  0  0  0  0
  1  2  1  0
  2  3  1  0
  3  4  2  0
  3  5  1  0
  5  6  1  0
  6  7  2  0
  7  8  1  0
  8  9  2  0
  9 10  1  0
 10 11  2  0
  5 12  1  0
 12 13  1  0
 13 14  1  0
 14 15  1  0
 15 16  1  0
 16 17  2  0
 16 18  1  0
 18 19  1  0
 19 20  1  0
 19 21  1  0
 21 22  2  0
 22 23  1  0
 23 24  2  0
 24 25  1  0
 25 26  2  0
 26 27  1  0
 27 28  2  0
 28 29  1  0
 29 30  2  0
 15 31  1  0
 31 32  1  0
 11  6  1  0
 32 12  1  0
 30 21  1  0
 30 25  1  0
  1 33  1  0
  1 34  1  0
  1 35  1  0
  2 36  1  0
  2 37  1  0
  7 38  1  0
  8 39  1  0
  9 40  1  0
 10 41  1  0
 11 42  1  0
 12 43  1  0
 13 44  1  0
 13 45  1  0
 14 46  1  0
 14 47  1  0
 18 48  1  0
 18 49  1  0
 19 50  1  6
 20 51  1  0
 20 52  1  0
 22 53  1  0
 23 54  1  0
 24 55  1  0
 26 56  1  0
 27 57  1  0
 28 58  1  0
 29 59  1  0
 31 60  1  0
 31 61  1  0
 32 62  1  0
 32 63  1  0
M  END
>  <smiles>  (44) 
CCC(=O)N(c1ccccc1)C1CCN(C(=O)CC(N)c2cccc3ccccc23)CC1

>  <score_type>  (44) 
oracle

>  <origin>  (44) 
autodockgpu

>  <m_score__min__energy>  (44) 
-9.4000000000000004

>  <m_primary>  (44) 
energy

>  <rmsd>  (44) 
5.707172692281789

>  <m_score__min__rmsd>  (44) 
5.707172692281789

>  <meeko>  (44) 
{"free_energy": -8.36, "intermolecular_energy": -10.74, "internal_energy": -1.97, "cluster_size": 7, "cluster_id": 2, "rank_in_cluster": 3}

>  <energy>  (44) 
-8.1

>  <cluster_rmsd>  (44) 
0.0

>  <cluster>  (44) 
8

$$$$

     RDKit          3D

 63 66  0  0  0  0  0  0  0  0999 V2000
  140.9110   78.1970  219.2120 C   0  0  0  0  0  0  0  0  0  0  0  0
  139.4460   77.8730  219.2720 C   0  0  0  0  0  0  0  0  0  0  0  0
  138.9050   77.9380  220.6470 C   0  0  0  0  0  0  0  0  0  0  0  0
  137.7210   78.3590  220.7740 O   0  0  0  0  0  0  0  0  0  0  0  0
  139.6740   77.5440  221.7870 N   0  0  0  0  0  0  0  0  0  0  0  0
  140.4100   78.5410  222.4860 C   0  0  0  0  0  0  0  0  0  0  0  0
  139.7220   79.5440  223.1500 C   0  0  0  0  0  0  0  0  0  0  0  0
  140.4390   80.5070  223.8270 C   0  0  0  0  0  0  0  0  0  0  0  0
  141.8160   80.4500  223.8260 C   0  0  0  0  0  0  0  0  0  0  0  0
  142.5220   79.4520  223.1660 C   0  0  0  0  0  0  0  0  0  0  0  0
  141.7960   78.4760  222.4810 C   0  0  0  0  0  0  0  0  0  0  0  0
  139.6650   76.1440  222.1750 C   0  0  0  0  0  0  0  0  0  0  0  0
  138.2600   75.6340  222.3200 C   0  0  0  0  0  0  0  0  0  0  0  0
  138.1280   74.2960  221.6600 C   0  0  0  0  0  0  0  0  0  0  0  0
  139.2060   73.3750  221.9420 N   0  0  0  0  0  0  0  0  0  0  0  0
  138.9380   72.0050  222.2130 C   0  0  0  0  0  0  0  0  0  0  0  0
  137.7380   71.6310  222.2010 O   0  0  0  0  0  0  0  0  0  0  0  0
  140.0710   71.0670  222.4990 C   0  0  0  0  0  0  0  0  0  0  0  0
  139.6300   70.1920  223.6460 C   0  0  2  0  0  0  0  0  0  0  0  0
  138.2560   69.8080  223.6250 N   0  0  0  0  0  0  0  0  0  0  0  0
  140.1740   70.5840  224.9560 C   0  0  0  0  0  0  0  0  0  0  0  0
  140.5730   71.8920  225.2550 C   0  0  0  0  0  0  0  0  0  0  0  0
  141.0920   72.2420  226.4800 C   0  0  0  0  0  0  0  0  0  0  0  0
  141.2500   71.3170  227.4890 C   0  0  0  0  0  0  0  0  0  0  0  0
  140.8620   70.0230  227.2170 C   0  0  0  0  0  0  0  0  0  0  0  0
  141.0210   69.1030  228.2420 C   0  0  0  0  0  0  0  0  0  0  0  0
  140.6570   67.7840  228.0620 C   0  0  0  0  0  0  0  0  0  0  0  0
  140.1360   67.4280  226.8410 C   0  0  0  0  0  0  0  0  0  0  0  0
  139.9830   68.3480  225.8290 C   0  0  0  0  0  0  0  0  0  0  0  0
  140.3410   69.6720  225.9860 C   0  0  0  0  0  0  0  0  0  0  0  0
  140.5530   73.9100  221.9310 C   0  0  0  0  0  0  0  0  0  0  0  0
  140.4250   75.2740  221.2450 C   0  0  0  0  0  0  0  0  0  0  0  0
  141.3092   78.2851  220.2336 H   0  0  0  0  0  0  0  0  0  0  0  0
  141.4424   77.3947  218.6792 H   0  0  0  0  0  0  0  0  0  0  0  0
  141.0546   79.1486  218.6792 H   0  0  0  0  0  0  0  0  0  0  0  0
  138.9000   78.5926  218.6442 H   0  0  0  0  0  0  0  0  0  0  0  0
  139.3179   76.8415  218.9120 H   0  0  0  0  0  0  0  0  0  0  0  0
  138.6224   79.5712  223.1370 H   0  0  0  0  0  0  0  0  0  0  0  0
  139.9171   81.3134  224.3630 H   0  0  0  0  0  0  0  0  0  0  0  0
  142.3777   81.2246  224.3687 H   0  0  0  0  0  0  0  0  0  0  0  0
  143.6217   79.4314  223.1827 H   0  0  0  0  0  0  0  0  0  0  0  0
  142.3150   77.6675  221.9453 H   0  0  0  0  0  0  0  0  0  0  0  0
  140.1741   76.0983  223.1490 H   0  0  0  0  0  0  0  0  0  0  0  0
  138.0160   75.5385  223.3883 H   0  0  0  0  0  0  0  0  0  0  0  0
  137.5684   76.3422  221.8402 H   0  0  0  0  0  0  0  0  0  0  0  0
  137.1877   73.8374  221.9999 H   0  0  0  0  0  0  0  0  0  0  0  0
  138.1521   74.4803  220.5758 H   0  0  0  0  0  0  0  0  0  0  0  0
  140.2862   70.4512  221.6133 H   0  0  0  0  0  0  0  0  0  0  0  0
  140.9878   71.6194  222.7524 H   0  0  0  0  0  0  0  0  0  0  0  0
  140.1308   69.2315  223.4545 H   0  0  0  0  0  0  0  0  0  0  0  0
  137.6990   70.5400  224.0800 H   0  0  0  0  0  0  0  0  0  0  0  0
  137.9940   69.5250  222.6770 H   0  0  0  0  0  0  0  0  0  0  0  0
  140.4677   72.6680  224.4825 H   0  0  0  0  0  0  0  0  0  0  0  0
  141.3882   73.2862  226.6585 H   0  0  0  0  0  0  0  0  0  0  0  0
  141.6669   71.5987  228.4672 H   0  0  0  0  0  0  0  0  0  0  0  0
  141.4404   69.4268  229.2060 H   0  0  0  0  0  0  0  0  0  0  0  0
  140.7794   67.0442  228.8668 H   0  0  0  0  0  0  0  0  0  0  0  0
  139.8345   66.3842  226.6688 H   0  0  0  0  0  0  0  0  0  0  0  0
  139.5632   68.0188  224.8670 H   0  0  0  0  0  0  0  0  0  0  0  0
  140.9326   74.0260  222.9569 H   0  0  0  0  0  0  0  0  0  0  0  0
  141.2595   73.2471  221.4100 H   0  0  0  0  0  0  0  0  0  0  0  0
  141.4217   75.6992  221.0559 H   0  0  0  0  0  0  0  0  0  0  0  0
  139.9127   75.1850  220.2756 H   0  0  0  0  0  0  0  0  0  0  0  0
  1  2  1  0
  2  3  1  0
  3  4  2  0
  3  5  1  0
  5  6  1  0
  6  7  2  0
  7  8  1  0
  8  9  2  0
  9 10  1  0
 10 11  2  0
  5 12  1  0
 12 13  1  0
 13 14  1  0
 14 15  1  0
 15 16  1  0
 16 17  2  0
 16 18  1  0
 18 19  1  0
 19 20  1  0
 19 21  1  0
 21 22  2  0
 22 23  1  0
 23 24  2  0
 24 25  1  0
 25 26  2  0
 26 27  1  0
 27 28  2  0
 28 29  1  0
 29 30  2  0
 15 31  1  0
 31 32  1  0
 11  6  1  0
 32 12  1  0
 30 21  1  0
 30 25  1  0
  1 33  1  0
  1 34  1  0
  1 35  1  0
  2 36  1  0
  2 37  1  0
  7 38  1  0
  8 39  1  0
  9 40  1  0
 10 41  1  0
 11 42  1  0
 12 43  1  0
 13 44  1  0
 13 45  1  0
 14 46  1  0
 14 47  1  0
 18 48  1  0
 18 49  1  0
 19 50  1  6
 20 51  1  0
 20 52  1  0
 22 53  1  0
 23 54  1  0
 24 55  1  0
 26 56  1  0
 27 57  1  0
 28 58  1  0
 29 59  1  0
 31 60  1  0
 31 61  1  0
 32 62  1  0
 32 63  1  0
M  END
>  <smiles>  (45) 
CCC(=O)N(c1ccccc1)C1CCN(C(=O)CC(N)c2cccc3ccccc23)CC1

>  <score_type>  (45) 
oracle

>  <origin>  (45) 
autodockgpu

>  <m_score__min__energy>  (45) 
-9.4000000000000004

>  <m_primary>  (45) 
energy

>  <rmsd>  (45) 
8.128684722819633

>  <m_score__min__rmsd>  (45) 
8.128684722819633

>  <meeko>  (45) 
{"free_energy": -8.06, "intermolecular_energy": -10.44, "internal_energy": -2.46, "cluster_size": 22, "cluster_id": 1, "rank_in_cluster": 22}

>  <energy>  (45) 
-7.89

>  <cluster_rmsd>  (45) 
0.62

>  <cluster>  (45) 
8

$$$$

     RDKit          3D

 63 66  0  0  0  0  0  0  0  0999 V2000
  143.7090   75.3850  219.6470 C   0  0  0  0  0  0  0  0  0  0  0  0
  143.2790   76.8040  219.4080 C   0  0  0  0  0  0  0  0  0  0  0  0
  141.8540   77.0290  219.7350 C   0  0  0  0  0  0  0  0  0  0  0  0
  141.0740   77.2450  218.7650 O   0  0  0  0  0  0  0  0  0  0  0  0
  141.3680   77.0050  221.0800 N   0  0  0  0  0  0  0  0  0  0  0  0
  141.5370   78.1680  221.8830 C   0  0  0  0  0  0  0  0  0  0  0  0
  141.7580   79.3870  221.2630 C   0  0  0  0  0  0  0  0  0  0  0  0
  141.9200   80.5110  222.0440 C   0  0  0  0  0  0  0  0  0  0  0  0
  141.8570   80.3960  223.4160 C   0  0  0  0  0  0  0  0  0  0  0  0
  141.6350   79.1820  224.0540 C   0  0  0  0  0  0  0  0  0  0  0  0
  141.4720   78.0430  223.2630 C   0  0  0  0  0  0  0  0  0  0  0  0
  140.7270   75.7930  221.5600 C   0  0  0  0  0  0  0  0  0  0  0  0
  139.2690   76.0250  221.8290 C   0  0  0  0  0  0  0  0  0  0  0  0
  138.4570   74.8970  221.2700 C   0  0  0  0  0  0  0  0  0  0  0  0
  138.9850   73.5800  221.5440 N   0  0  0  0  0  0  0  0  0  0  0  0
  138.1220   72.5160  221.9220 C   0  0  0  0  0  0  0  0  0  0  0  0
  136.8930   72.7640  222.0130 O   0  0  0  0  0  0  0  0  0  0  0  0
  138.6910   71.1570  222.1980 C   0  0  0  0  0  0  0  0  0  0  0  0
  138.2880   70.7950  223.6060 C   0  0  2  0  0  0  0  0  0  0  0  0
  137.0640   71.3750  224.0560 N   0  0  0  0  0  0  0  0  0  0  0  0
  139.3960   70.7860  224.5740 C   0  0  0  0  0  0  0  0  0  0  0  0
  140.2310   71.8890  224.7870 C   0  0  0  0  0  0  0  0  0  0  0  0
  141.2720   71.8630  225.6870 C   0  0  0  0  0  0  0  0  0  0  0  0
  141.5530   70.7400  226.4340 C   0  0  0  0  0  0  0  0  0  0  0  0
  140.7430   69.6420  226.2410 C   0  0  0  0  0  0  0  0  0  0  0  0
  141.0320   68.5200  227.0030 C   0  0  0  0  0  0  0  0  0  0  0  0
  140.2720   67.3750  226.8790 C   0  0  0  0  0  0  0  0  0  0  0  0
  139.2300   67.3940  225.9830 C   0  0  0  0  0  0  0  0  0  0  0  0
  138.9500   68.5130  225.2310 C   0  0  0  0  0  0  0  0  0  0  0  0
  139.6970   69.6690  225.3370 C   0  0  0  0  0  0  0  0  0  0  0  0
  140.4180   73.4010  221.4110 C   0  0  0  0  0  0  0  0  0  0  0  0
  140.8950   74.6390  220.6450 C   0  0  0  0  0  0  0  0  0  0  0  0
  143.7661   75.1965  220.7292 H   0  0  0  0  0  0  0  0  0  0  0  0
  142.9784   74.6991  219.1934 H   0  0  0  0  0  0  0  0  0  0  0  0
  144.6975   75.2201  219.1934 H   0  0  0  0  0  0  0  0  0  0  0  0
  143.8932   77.4684  220.0335 H   0  0  0  0  0  0  0  0  0  0  0  0
  143.4129   77.0170  218.3372 H   0  0  0  0  0  0  0  0  0  0  0  0
  141.8034   79.4566  220.1661 H   0  0  0  0  0  0  0  0  0  0  0  0
  142.0979   81.4908  221.5767 H   0  0  0  0  0  0  0  0  0  0  0  0
  141.9875   81.2999  224.0292 H   0  0  0  0  0  0  0  0  0  0  0  0
  141.5889   79.1199  225.1513 H   0  0  0  0  0  0  0  0  0  0  0  0
  141.2948   77.0616  223.7271 H   0  0  0  0  0  0  0  0  0  0  0  0
  141.2371   75.5356  222.5000 H   0  0  0  0  0  0  0  0  0  0  0  0
  139.1049   76.0884  222.9148 H   0  0  0  0  0  0  0  0  0  0  0  0
  138.9591   76.9647  221.3484 H   0  0  0  0  0  0  0  0  0  0  0  0
  137.4459   74.9570  221.6991 H   0  0  0  0  0  0  0  0  0  0  0  0
  138.4705   75.0162  220.1766 H   0  0  0  0  0  0  0  0  0  0  0  0
  138.2830   70.4238  221.4867 H   0  0  0  0  0  0  0  0  0  0  0  0
  139.7855   71.1569  222.0877 H   0  0  0  0  0  0  0  0  0  0  0  0
  138.0177   69.7308  223.5397 H   0  0  0  0  0  0  0  0  0  0  0  0
  137.2140   72.3750  224.2290 H   0  0  0  0  0  0  0  0  0  0  0  0
  136.3050   71.1050  223.4250 H   0  0  0  0  0  0  0  0  0  0  0  0
  140.0486   72.8102  224.2142 H   0  0  0  0  0  0  0  0  0  0  0  0
  141.8949   72.7608  225.8129 H   0  0  0  0  0  0  0  0  0  0  0  0
  142.3862   70.7207  227.1520 H   0  0  0  0  0  0  0  0  0  0  0  0
  141.8732   68.5429  227.7114 H   0  0  0  0  0  0  0  0  0  0  0  0
  140.4925   66.4781  227.4765 H   0  0  0  0  0  0  0  0  0  0  0  0
  138.6062   66.4958  225.8640 H   0  0  0  0  0  0  0  0  0  0  0  0
  138.1066   68.4849  224.5254 H   0  0  0  0  0  0  0  0  0  0  0  0
  140.8959   73.3490  222.4004 H   0  0  0  0  0  0  0  0  0  0  0  0
  140.6742   72.4658  220.8916 H   0  0  0  0  0  0  0  0  0  0  0  0
  141.9528   74.5277  220.3645 H   0  0  0  0  0  0  0  0  0  0  0  0
  140.3183   74.7794  219.7189 H   0  0  0  0  0  0  0  0  0  0  0  0
  1  2  1  0
  2  3  1  0
  3  4  2  0
  3  5  1  0
  5  6  1  0
  6  7  2  0
  7  8  1  0
  8  9  2  0
  9 10  1  0
 10 11  2  0
  5 12  1  0
 12 13  1  0
 13 14  1  0
 14 15  1  0
 15 16  1  0
 16 17  2  0
 16 18  1  0
 18 19  1  0
 19 20  1  0
 19 21  1  0
 21 22  2  0
 22 23  1  0
 23 24  2  0
 24 25  1  0
 25 26  2  0
 26 27  1  0
 27 28  2  0
 28 29  1  0
 29 30  2  0
 15 31  1  0
 31 32  1  0
 11  6  1  0
 32 12  1  0
 30 21  1  0
 30 25  1  0
  1 33  1  0
  1 34  1  0
  1 35  1  0
  2 36  1  0
  2 37  1  0
  7 38  1  0
  8 39  1  0
  9 40  1  0
 10 41  1  0
 11 42  1  0
 12 43  1  0
 13 44  1  0
 13 45  1  0
 14 46  1  0
 14 47  1  0
 18 48  1  0
 18 49  1  0
 19 50  1  6
 20 51  1  0
 20 52  1  0
 22 53  1  0
 23 54  1  0
 24 55  1  0
 26 56  1  0
 27 57  1  0
 28 58  1  0
 29 59  1  0
 31 60  1  0
 31 61  1  0
 32 62  1  0
 32 63  1  0
M  END
>  <smiles>  (46) 
CCC(=O)N(c1ccccc1)C1CCN(C(=O)CC(N)c2cccc3ccccc23)CC1

>  <score_type>  (46) 
oracle

>  <origin>  (46) 
autodockgpu

>  <m_score__min__energy>  (46) 
-9.4000000000000004

>  <m_primary>  (46) 
energy

>  <rmsd>  (46) 
8.012794119121196

>  <m_score__min__rmsd>  (46) 
8.012794119121196

>  <meeko>  (46) 
{"free_energy": -8.52, "intermolecular_energy": -10.9, "internal_energy": -2.4, "cluster_size": 22, "cluster_id": 1, "rank_in_cluster": 18}

>  <energy>  (46) 
-7.88

>  <cluster_rmsd>  (46) 
0.62

>  <cluster>  (46) 
8

$$$$

     RDKit          3D

 63 66  0  0  0  0  0  0  0  0999 V2000
  142.2970   81.1100  218.2440 C   0  0  0  0  0  0  0  0  0  0  0  0
  142.2460   79.6820  218.7050 C   0  0  0  0  0  0  0  0  0  0  0  0
  140.9980   79.3630  219.4300 C   0  0  0  0  0  0  0  0  0  0  0  0
  139.9120   79.6210  218.8370 O   0  0  0  0  0  0  0  0  0  0  0  0
  141.0020   78.7880  220.7400 N   0  0  0  0  0  0  0  0  0  0  0  0
  141.3490   79.6180  221.8430 C   0  0  0  0  0  0  0  0  0  0  0  0
  142.6390   79.5660  222.3450 C   0  0  0  0  0  0  0  0  0  0  0  0
  142.9710   80.3720  223.4130 C   0  0  0  0  0  0  0  0  0  0  0  0
  142.0150   81.2060  223.9530 C   0  0  0  0  0  0  0  0  0  0  0  0
  140.7170   81.2710  223.4620 C   0  0  0  0  0  0  0  0  0  0  0  0
  140.3810   80.4550  222.3810 C   0  0  0  0  0  0  0  0  0  0  0  0
  140.6550   77.3850  220.8790 C   0  0  0  0  0  0  0  0  0  0  0  0
  141.5640   76.5210  220.0530 C   0  0  0  0  0  0  0  0  0  0  0  0
  142.0110   75.3350  220.8510 C   0  0  0  0  0  0  0  0  0  0  0  0
  140.9620   74.6790  221.5980 N   0  0  0  0  0  0  0  0  0  0  0  0
  140.8870   73.2600  221.6500 C   0  0  0  0  0  0  0  0  0  0  0  0
  141.7580   72.6050  221.0230 O   0  0  0  0  0  0  0  0  0  0  0  0
  139.7920   72.6000  222.4330 C   0  0  0  0  0  0  0  0  0  0  0  0
  140.1620   71.1420  222.5510 C   0  0  2  0  0  0  0  0  0  0  0  0
  140.1320   70.4050  221.3300 N   0  0  0  0  0  0  0  0  0  0  0  0
  139.6020   70.4650  223.7310 C   0  0  0  0  0  0  0  0  0  0  0  0
  138.5750   69.5170  223.6500 C   0  0  0  0  0  0  0  0  0  0  0  0
  138.0510   68.9010  224.7640 C   0  0  0  0  0  0  0  0  0  0  0  0
  138.5130   69.1850  226.0310 C   0  0  0  0  0  0  0  0  0  0  0  0
  139.5240   70.1140  226.1340 C   0  0  0  0  0  0  0  0  0  0  0  0
  139.9830   70.3880  227.4140 C   0  0  0  0  0  0  0  0  0  0  0  0
  140.9970   71.3030  227.6140 C   0  0  0  0  0  0  0  0  0  0  0  0
  141.5250   71.9220  226.5060 C   0  0  0  0  0  0  0  0  0  0  0  0
  141.0620   71.6450  225.2390 C   0  0  0  0  0  0  0  0  0  0  0  0
  140.0500   70.7330  225.0150 C   0  0  0  0  0  0  0  0  0  0  0  0
  140.0080   75.5280  222.2840 C   0  0  0  0  0  0  0  0  0  0  0  0
  140.6540   76.9170  222.2860 C   0  0  0  0  0  0  0  0  0  0  0  0
  142.3208   81.7770  219.1184 H   0  0  0  0  0  0  0  0  0  0  0  0
  143.2013   81.2676  217.6379 H   0  0  0  0  0  0  0  0  0  0  0  0
  141.4062   81.3317  217.6379 H   0  0  0  0  0  0  0  0  0  0  0  0
  142.3205   79.0251  217.8258 H   0  0  0  0  0  0  0  0  0  0  0  0
  143.0842   79.5261  219.4000 H   0  0  0  0  0  0  0  0  0  0  0  0
  143.3860   78.8929  221.8989 H   0  0  0  0  0  0  0  0  0  0  0  0
  143.9885   80.3500  223.8302 H   0  0  0  0  0  0  0  0  0  0  0  0
  142.2906   81.8444  224.8053 H   0  0  0  0  0  0  0  0  0  0  0  0
  139.9751   81.9466  223.9126 H   0  0  0  0  0  0  0  0  0  0  0  0
  139.3643   80.4747  221.9615 H   0  0  0  0  0  0  0  0  0  0  0  0
  139.6234   77.2929  220.5084 H   0  0  0  0  0  0  0  0  0  0  0  0
  141.0244   76.1756  219.1588 H   0  0  0  0  0  0  0  0  0  0  0  0
  142.4455   77.1075  219.7546 H   0  0  0  0  0  0  0  0  0  0  0  0
  142.4485   74.6011  220.1581 H   0  0  0  0  0  0  0  0  0  0  0  0
  142.7303   75.7129  221.5924 H   0  0  0  0  0  0  0  0  0  0  0  0
  139.7140   73.0534  223.4321 H   0  0  0  0  0  0  0  0  0  0  0  0
  138.8194   72.7224  221.9339 H   0  0  0  0  0  0  0  0  0  0  0  0
  141.2396   71.1595  222.7710 H   0  0  0  0  0  0  0  0  0  0  0  0
  139.2170   70.5390  220.8840 H   0  0  0  0  0  0  0  0  0  0  0  0
  140.9690   70.6180  220.7810 H   0  0  0  0  0  0  0  0  0  0  0  0
  138.1723   69.2549  222.6605 H   0  0  0  0  0  0  0  0  0  0  0  0
  137.2438   68.1641  224.6399 H   0  0  0  0  0  0  0  0  0  0  0  0
  138.0930   68.6917  226.9199 H   0  0  0  0  0  0  0  0  0  0  0  0
  139.5355   69.8721  228.2763 H   0  0  0  0  0  0  0  0  0  0  0  0
  141.3693   71.5288  228.6241 H   0  0  0  0  0  0  0  0  0  0  0  0
  142.3353   72.6548  226.6343 H   0  0  0  0  0  0  0  0  0  0  0  0
  141.5115   72.1655  224.3805 H   0  0  0  0  0  0  0  0  0  0  0  0
  139.0488   75.5472  221.7459 H   0  0  0  0  0  0  0  0  0  0  0  0
  139.7882   75.1699  223.3006 H   0  0  0  0  0  0  0  0  0  0  0  0
  140.0710   77.6060  222.9149 H   0  0  0  0  0  0  0  0  0  0  0  0
  141.6754   76.8792  222.6925 H   0  0  0  0  0  0  0  0  0  0  0  0
  1  2  1  0
  2  3  1  0
  3  4  2  0
  3  5  1  0
  5  6  1  0
  6  7  2  0
  7  8  1  0
  8  9  2  0
  9 10  1  0
 10 11  2  0
  5 12  1  0
 12 13  1  0
 13 14  1  0
 14 15  1  0
 15 16  1  0
 16 17  2  0
 16 18  1  0
 18 19  1  0
 19 20  1  0
 19 21  1  0
 21 22  2  0
 22 23  1  0
 23 24  2  0
 24 25  1  0
 25 26  2  0
 26 27  1  0
 27 28  2  0
 28 29  1  0
 29 30  2  0
 15 31  1  0
 31 32  1  0
 11  6  1  0
 32 12  1  0
 30 21  1  0
 30 25  1  0
  1 33  1  0
  1 34  1  0
  1 35  1  0
  2 36  1  0
  2 37  1  0
  7 38  1  0
  8 39  1  0
  9 40  1  0
 10 41  1  0
 11 42  1  0
 12 43  1  0
 13 44  1  0
 13 45  1  0
 14 46  1  0
 14 47  1  0
 18 48  1  0
 18 49  1  0
 19 50  1  1
 20 51  1  0
 20 52  1  0
 22 53  1  0
 23 54  1  0
 24 55  1  0
 26 56  1  0
 27 57  1  0
 28 58  1  0
 29 59  1  0
 31 60  1  0
 31 61  1  0
 32 62  1  0
 32 63  1  0
M  END
>  <smiles>  (47) 
CCC(=O)N(c1ccccc1)C1CCN(C(=O)CC(N)c2cccc3ccccc23)CC1

>  <score_type>  (47) 
oracle

>  <origin>  (47) 
autodockgpu

>  <m_score__min__energy>  (47) 
-9.4000000000000004

>  <m_primary>  (47) 
energy

>  <rmsd>  (47) 
8.165128517006963

>  <m_score__min__rmsd>  (47) 
8.165128517006963

>  <meeko>  (47) 
{"free_energy": -8.12, "intermolecular_energy": -10.51, "internal_energy": -2.03, "cluster_size": 5, "cluster_id": 7, "rank_in_cluster": 1}

>  <energy>  (47) 
-7.88

>  <cluster_rmsd>  (47) 
0.88

>  <cluster>  (47) 
8

$$$$

     RDKit          3D

 63 66  0  0  0  0  0  0  0  0999 V2000
  146.2260   73.0310  221.7660 C   0  0  0  0  0  0  0  0  0  0  0  0
  146.2630   73.8300  220.4960 C   0  0  0  0  0  0  0  0  0  0  0  0
  145.6520   73.1130  219.3550 C   0  0  0  0  0  0  0  0  0  0  0  0
  145.9370   71.8890  219.2330 O   0  0  0  0  0  0  0  0  0  0  0  0
  144.7770   73.7620  218.4280 N   0  0  0  0  0  0  0  0  0  0  0  0
  145.2010   73.8980  217.0770 C   0  0  0  0  0  0  0  0  0  0  0  0
  146.4410   73.4020  216.7070 C   0  0  0  0  0  0  0  0  0  0  0  0
  146.8480   73.5350  215.3970 C   0  0  0  0  0  0  0  0  0  0  0  0
  146.0150   74.1550  214.4900 C   0  0  0  0  0  0  0  0  0  0  0  0
  144.7690   74.6570  214.8440 C   0  0  0  0  0  0  0  0  0  0  0  0
  144.3570   74.5230  216.1700 C   0  0  0  0  0  0  0  0  0  0  0  0
  143.4980   74.2510  218.9130 C   0  0  0  0  0  0  0  0  0  0  0  0
  142.7430   73.1670  219.6260 C   0  0  0  0  0  0  0  0  0  0  0  0
  142.1630   73.6970  220.9020 C   0  0  0  0  0  0  0  0  0  0  0  0
  141.5260   74.9890  220.7840 N   0  0  0  0  0  0  0  0  0  0  0  0
  140.2920   75.2520  221.4390 C   0  0  0  0  0  0  0  0  0  0  0  0
  139.7790   74.3240  222.1150 O   0  0  0  0  0  0  0  0  0  0  0  0
  139.6510   76.6010  221.3070 C   0  0  0  0  0  0  0  0  0  0  0  0
  139.0790   76.9440  222.6600 C   0  0  2  0  0  0  0  0  0  0  0  0
  137.9310   76.1890  223.0450 N   0  0  0  0  0  0  0  0  0  0  0  0
  139.0380   78.3840  222.9570 C   0  0  0  0  0  0  0  0  0  0  0  0
  137.8420   79.1000  223.0940 C   0  0  0  0  0  0  0  0  0  0  0  0
  137.8180   80.4500  223.3590 C   0  0  0  0  0  0  0  0  0  0  0  0
  138.9780   81.1790  223.5050 C   0  0  0  0  0  0  0  0  0  0  0  0
  140.1670   80.4940  223.3750 C   0  0  0  0  0  0  0  0  0  0  0  0
  141.3270   81.2380  223.5290 C   0  0  0  0  0  0  0  0  0  0  0  0
  142.5640   80.6360  223.4190 C   0  0  0  0  0  0  0  0  0  0  0  0
  142.5960   79.2870  223.1560 C   0  0  0  0  0  0  0  0  0  0  0  0
  141.4390   78.5570  223.0030 C   0  0  0  0  0  0  0  0  0  0  0  0
  140.1910   79.1380  223.1090 C   0  0  0  0  0  0  0  0  0  0  0  0
  142.2010   75.9890  219.9800 C   0  0  0  0  0  0  0  0  0  0  0  0
  143.6200   75.4410  219.7890 C   0  0  0  0  0  0  0  0  0  0  0  0
  146.2576   73.7124  222.6290 H   0  0  0  0  0  0  0  0  0  0  0  0
  145.2995   72.4390  221.7999 H   0  0  0  0  0  0  0  0  0  0  0  0
  147.0938   72.3559  221.7999 H   0  0  0  0  0  0  0  0  0  0  0  0
  145.7152   74.7705  220.6553 H   0  0  0  0  0  0  0  0  0  0  0  0
  147.3189   74.0128  220.2479 H   0  0  0  0  0  0  0  0  0  0  0  0
  147.0898   72.9102  217.4468 H   0  0  0  0  0  0  0  0  0  0  0  0
  147.8280   73.1502  215.0782 H   0  0  0  0  0  0  0  0  0  0  0  0
  146.3496   74.2559  213.4470 H   0  0  0  0  0  0  0  0  0  0  0  0
  144.1248   75.1468  214.0990 H   0  0  0  0  0  0  0  0  0  0  0  0
  143.3777   74.9070  216.4918 H   0  0  0  0  0  0  0  0  0  0  0  0
  142.9370   74.5635  218.0199 H   0  0  0  0  0  0  0  0  0  0  0  0
  141.9300   72.8044  218.9798 H   0  0  0  0  0  0  0  0  0  0  0  0
  143.4321   72.3419  219.8592 H   0  0  0  0  0  0  0  0  0  0  0  0
  141.4138   72.9771  221.2630 H   0  0  0  0  0  0  0  0  0  0  0  0
  143.0062   73.8281  221.5962 H   0  0  0  0  0  0  0  0  0  0  0  0
  140.4009   77.3497  221.0117 H   0  0  0  0  0  0  0  0  0  0  0  0
  138.8660   76.5921  220.5365 H   0  0  0  0  0  0  0  0  0  0  0  0
  139.8342   76.5732  223.3686 H   0  0  0  0  0  0  0  0  0  0  0  0
  137.1640   76.3970  222.3960 H   0  0  0  0  0  0  0  0  0  0  0  0
  138.1950   75.2090  223.1780 H   0  0  0  0  0  0  0  0  0  0  0  0
  136.8876   78.5638  222.9858 H   0  0  0  0  0  0  0  0  0  0  0  0
  136.8483   80.9601  223.4567 H   0  0  0  0  0  0  0  0  0  0  0  0
  138.9562   82.2584  223.7157 H   0  0  0  0  0  0  0  0  0  0  0  0
  141.2608   82.3155  223.7403 H   0  0  0  0  0  0  0  0  0  0  0  0
  143.4916   81.2151  223.5376 H   0  0  0  0  0  0  0  0  0  0  0  0
  143.5678   78.7796  223.0658 H   0  0  0  0  0  0  0  0  0  0  0  0
  141.5108   77.4802  222.7903 H   0  0  0  0  0  0  0  0  0  0  0  0
  141.6981   76.1106  219.0093 H   0  0  0  0  0  0  0  0  0  0  0  0
  142.1980   76.9795  220.4585 H   0  0  0  0  0  0  0  0  0  0  0  0
  144.2592   76.1992  219.3130 H   0  0  0  0  0  0  0  0  0  0  0  0
  144.0782   75.1789  220.7541 H   0  0  0  0  0  0  0  0  0  0  0  0
  1  2  1  0
  2  3  1  0
  3  4  2  0
  3  5  1  0
  5  6  1  0
  6  7  2  0
  7  8  1  0
  8  9  2  0
  9 10  1  0
 10 11  2  0
  5 12  1  0
 12 13  1  0
 13 14  1  0
 14 15  1  0
 15 16  1  0
 16 17  2  0
 16 18  1  0
 18 19  1  0
 19 20  1  0
 19 21  1  0
 21 22  2  0
 22 23  1  0
 23 24  2  0
 24 25  1  0
 25 26  2  0
 26 27  1  0
 27 28  2  0
 28 29  1  0
 29 30  2  0
 15 31  1  0
 31 32  1  0
 11  6  1  0
 32 12  1  0
 30 21  1  0
 30 25  1  0
  1 33  1  0
  1 34  1  0
  1 35  1  0
  2 36  1  0
  2 37  1  0
  7 38  1  0
  8 39  1  0
  9 40  1  0
 10 41  1  0
 11 42  1  0
 12 43  1  0
 13 44  1  0
 13 45  1  0
 14 46  1  0
 14 47  1  0
 18 48  1  0
 18 49  1  0
 19 50  1  1
 20 51  1  0
 20 52  1  0
 22 53  1  0
 23 54  1  0
 24 55  1  0
 26 56  1  0
 27 57  1  0
 28 58  1  0
 29 59  1  0
 31 60  1  0
 31 61  1  0
 32 62  1  0
 32 63  1  0
M  END
>  <smiles>  (48) 
CCC(=O)N(c1ccccc1)C1CCN(C(=O)CC(N)c2cccc3ccccc23)CC1

>  <score_type>  (48) 
oracle

>  <origin>  (48) 
autodockgpu

>  <m_score__min__energy>  (48) 
-9.4000000000000004

>  <m_primary>  (48) 
energy

>  <rmsd>  (48) 
4.01214383734541

>  <m_score__min__rmsd>  (48) 
4.01214383734541

>  <meeko>  (48) 
{"free_energy": -8.27, "intermolecular_energy": -10.66, "internal_energy": -2.08, "cluster_size": 4, "cluster_id": 5, "rank_in_cluster": 3}

>  <energy>  (48) 
-7.73

>  <cluster_rmsd>  (48) 
0.0

>  <cluster>  (48) 
9

$$$$

     RDKit          3D

 63 66  0  0  0  0  0  0  0  0999 V2000
  143.3370   76.2960  219.7090 C   0  0  0  0  0  0  0  0  0  0  0  0
  142.4390   77.2500  218.9750 C   0  0  0  0  0  0  0  0  0  0  0  0
  141.1670   77.4970  219.6890 C   0  0  0  0  0  0  0  0  0  0  0  0
  140.1800   77.8550  218.9860 O   0  0  0  0  0  0  0  0  0  0  0  0
  141.0450   77.3400  221.1050 N   0  0  0  0  0  0  0  0  0  0  0  0
  141.4260   78.4250  221.9430 C   0  0  0  0  0  0  0  0  0  0  0  0
  141.4670   78.2340  223.3140 C   0  0  0  0  0  0  0  0  0  0  0  0
  141.8380   79.2870  224.1230 C   0  0  0  0  0  0  0  0  0  0  0  0
  142.1570   80.5000  223.5490 C   0  0  0  0  0  0  0  0  0  0  0  0
  142.1210   80.7080  222.1760 C   0  0  0  0  0  0  0  0  0  0  0  0
  141.7460   79.6420  221.3580 C   0  0  0  0  0  0  0  0  0  0  0  0
  140.5380   76.0790  221.6180 C   0  0  0  0  0  0  0  0  0  0  0  0
  139.2110   76.2660  222.2940 C   0  0  0  0  0  0  0  0  0  0  0  0
  138.2610   75.1900  221.8670 C   0  0  0  0  0  0  0  0  0  0  0  0
  138.8220   73.8590  221.8540 N   0  0  0  0  0  0  0  0  0  0  0  0
  138.0760   72.7520  222.3450 C   0  0  0  0  0  0  0  0  0  0  0  0
  136.9220   72.9750  222.7900 O   0  0  0  0  0  0  0  0  0  0  0  0
  138.6760   71.3780  222.3190 C   0  0  0  0  0  0  0  0  0  0  0  0
  139.7930   71.3740  223.3340 C   0  0  2  0  0  0  0  0  0  0  0  0
  141.1060   71.5150  222.7950 N   0  0  0  0  0  0  0  0  0  0  0  0
  139.6350   70.3810  224.4080 C   0  0  0  0  0  0  0  0  0  0  0  0
  139.0220   69.1380  224.2130 C   0  0  0  0  0  0  0  0  0  0  0  0
  138.8700   68.2240  225.2310 C   0  0  0  0  0  0  0  0  0  0  0  0
  139.3160   68.4840  226.5090 C   0  0  0  0  0  0  0  0  0  0  0  0
  139.9240   69.7010  226.7230 C   0  0  0  0  0  0  0  0  0  0  0  0
  140.3740   69.9480  228.0110 C   0  0  0  0  0  0  0  0  0  0  0  0
  140.9980   71.1400  228.3180 C   0  0  0  0  0  0  0  0  0  0  0  0
  141.1550   72.0570  227.3070 C   0  0  0  0  0  0  0  0  0  0  0  0
  140.7040   71.8040  226.0310 C   0  0  0  0  0  0  0  0  0  0  0  0
  140.0770   70.6190  225.7010 C   0  0  0  0  0  0  0  0  0  0  0  0
  140.1610   73.7100  221.3200 C   0  0  0  0  0  0  0  0  0  0  0  0
  140.4330   75.0240  220.5810 C   0  0  0  0  0  0  0  0  0  0  0  0
  143.2088   76.4322  220.7930 H   0  0  0  0  0  0  0  0  0  0  0  0
  143.0760   75.2629  219.4358 H   0  0  0  0  0  0  0  0  0  0  0  0
  144.3840   76.4941  219.4358 H   0  0  0  0  0  0  0  0  0  0  0  0
  142.9665   78.2076  218.8533 H   0  0  0  0  0  0  0  0  0  0  0  0
  142.1933   76.7961  218.0036 H   0  0  0  0  0  0  0  0  0  0  0  0
  141.2078   77.2581  223.7504 H   0  0  0  0  0  0  0  0  0  0  0  0
  141.8792   79.1611  225.2150 H   0  0  0  0  0  0  0  0  0  0  0  0
  142.4510   81.3341  224.2031 H   0  0  0  0  0  0  0  0  0  0  0  0
  142.3810   81.6863  221.7456 H   0  0  0  0  0  0  0  0  0  0  0  0
  141.7046   79.7643  220.2656 H   0  0  0  0  0  0  0  0  0  0  0  0
  141.2792   75.7350  222.3544 H   0  0  0  0  0  0  0  0  0  0  0  0
  139.3481   76.2189  223.3844 H   0  0  0  0  0  0  0  0  0  0  0  0
  138.7972   77.2452  222.0113 H   0  0  0  0  0  0  0  0  0  0  0  0
  137.4054   75.1943  222.5583 H   0  0  0  0  0  0  0  0  0  0  0  0
  137.9798   75.4185  220.8284 H   0  0  0  0  0  0  0  0  0  0  0  0
  137.9174   70.6278  222.5870 H   0  0  0  0  0  0  0  0  0  0  0  0
  139.0518   71.1290  221.3156 H   0  0  0  0  0  0  0  0  0  0  0  0
  139.6714   72.3284  223.8672 H   0  0  0  0  0  0  0  0  0  0  0  0
  141.7830   71.1380  223.4680 H   0  0  0  0  0  0  0  0  0  0  0  0
  141.1250   71.1500  221.8390 H   0  0  0  0  0  0  0  0  0  0  0  0
  138.6484   68.8823  223.2105 H   0  0  0  0  0  0  0  0  0  0  0  0
  138.3803   67.2620  225.0193 H   0  0  0  0  0  0  0  0  0  0  0  0
  139.1919   67.7526  227.3212 H   0  0  0  0  0  0  0  0  0  0  0  0
  140.2326   69.1883  228.7939 H   0  0  0  0  0  0  0  0  0  0  0  0
  141.3571   71.3487  229.3366 H   0  0  0  0  0  0  0  0  0  0  0  0
  141.6520   73.0145  227.5218 H   0  0  0  0  0  0  0  0  0  0  0  0
  140.8473   72.5677  225.2524 H   0  0  0  0  0  0  0  0  0  0  0  0
  140.8885   73.5638  222.1320 H   0  0  0  0  0  0  0  0  0  0  0  0
  140.2509   72.8347  220.6598 H   0  0  0  0  0  0  0  0  0  0  0  0
  141.3734   74.9534  220.0147 H   0  0  0  0  0  0  0  0  0  0  0  0
  139.6294   75.2502  219.8647 H   0  0  0  0  0  0  0  0  0  0  0  0
  1  2  1  0
  2  3  1  0
  3  4  2  0
  3  5  1  0
  5  6  1  0
  6  7  2  0
  7  8  1  0
  8  9  2  0
  9 10  1  0
 10 11  2  0
  5 12  1  0
 12 13  1  0
 13 14  1  0
 14 15  1  0
 15 16  1  0
 16 17  2  0
 16 18  1  0
 18 19  1  0
 19 20  1  0
 19 21  1  0
 21 22  2  0
 22 23  1  0
 23 24  2  0
 24 25  1  0
 25 26  2  0
 26 27  1  0
 27 28  2  0
 28 29  1  0
 29 30  2  0
 15 31  1  0
 31 32  1  0
 11  6  1  0
 32 12  1  0
 30 21  1  0
 30 25  1  0
  1 33  1  0
  1 34  1  0
  1 35  1  0
  2 36  1  0
  2 37  1  0
  7 38  1  0
  8 39  1  0
  9 40  1  0
 10 41  1  0
 11 42  1  0
 12 43  1  0
 13 44  1  0
 13 45  1  0
 14 46  1  0
 14 47  1  0
 18 48  1  0
 18 49  1  0
 19 50  1  1
 20 51  1  0
 20 52  1  0
 22 53  1  0
 23 54  1  0
 24 55  1  0
 26 56  1  0
 27 57  1  0
 28 58  1  0
 29 59  1  0
 31 60  1  0
 31 61  1  0
 32 62  1  0
 32 63  1  0
M  END
>  <smiles>  (49) 
CCC(=O)N(c1ccccc1)C1CCN(C(=O)CC(N)c2cccc3ccccc23)CC1

>  <score_type>  (49) 
oracle

>  <origin>  (49) 
autodockgpu

>  <m_score__min__energy>  (49) 
-9.4000000000000004

>  <m_primary>  (49) 
energy

>  <rmsd>  (49) 
8.734035547840547

>  <m_score__min__rmsd>  (49) 
8.734035547840547

>  <meeko>  (49) 
{"free_energy": -8.89, "intermolecular_energy": -11.28, "internal_energy": -1.35, "cluster_size": 22, "cluster_id": 1, "rank_in_cluster": 11}

>  <energy>  (49) 
-6.95

>  <cluster_rmsd>  (49) 
0.0

>  <cluster>  (49) 
10

$$$$

     RDKit          3D

 63 66  0  0  0  0  0  0  0  0999 V2000
  137.0620   70.6880  223.9060 C   0  0  0  0  0  0  0  0  0  0  0  0
  137.8750   69.5750  223.3100 C   0  0  0  0  0  0  0  0  0  0  0  0
  139.2350   70.0080  222.9260 C   0  0  0  0  0  0  0  0  0  0  0  0
  139.7400   69.4630  221.9040 O   0  0  0  0  0  0  0  0  0  0  0  0
  139.9580   70.9970  223.6640 N   0  0  0  0  0  0  0  0  0  0  0  0
  140.3240   70.7060  225.0080 C   0  0  0  0  0  0  0  0  0  0  0  0
  140.3010   69.3910  225.4430 C   0  0  0  0  0  0  0  0  0  0  0  0
  140.6580   69.1130  226.7450 C   0  0  0  0  0  0  0  0  0  0  0  0
  141.0280   70.1460  227.5790 C   0  0  0  0  0  0  0  0  0  0  0  0
  141.0580   71.4710  227.1600 C   0  0  0  0  0  0  0  0  0  0  0  0
  140.6970   71.7520  225.8420 C   0  0  0  0  0  0  0  0  0  0  0  0
  140.2810   72.2510  223.0050 C   0  0  0  0  0  0  0  0  0  0  0  0
  141.3940   72.0680  222.0150 C   0  0  0  0  0  0  0  0  0  0  0  0
  141.0650   72.7710  220.7350 C   0  0  0  0  0  0  0  0  0  0  0  0
  140.5280   74.1030  220.8980 N   0  0  0  0  0  0  0  0  0  0  0  0
  140.9510   75.1650  220.0530 C   0  0  0  0  0  0  0  0  0  0  0  0
  141.8060   74.9030  219.1680 O   0  0  0  0  0  0  0  0  0  0  0  0
  140.3790   76.5380  220.2370 C   0  0  0  0  0  0  0  0  0  0  0  0
  141.5490   77.4820  220.3590 C   0  0  2  0  0  0  0  0  0  0  0  0
  142.8240   76.9120  220.0690 N   0  0  0  0  0  0  0  0  0  0  0  0
  141.4890   78.3790  221.5240 C   0  0  0  0  0  0  0  0  0  0  0  0
  141.4420   77.9130  222.8440 C   0  0  0  0  0  0  0  0  0  0  0  0
  141.3740   78.7630  223.9240 C   0  0  0  0  0  0  0  0  0  0  0  0
  141.3470   80.1320  223.7660 C   0  0  0  0  0  0  0  0  0  0  0  0
  141.3940   80.6130  222.4760 C   0  0  0  0  0  0  0  0  0  0  0  0
  141.3710   81.9920  222.3300 C   0  0  0  0  0  0  0  0  0  0  0  0
  141.4180   82.5640  221.0750 C   0  0  0  0  0  0  0  0  0  0  0  0
  141.4870   81.7210  219.9920 C   0  0  0  0  0  0  0  0  0  0  0  0
  141.5080   80.3530  220.1460 C   0  0  0  0  0  0  0  0  0  0  0  0
  141.4620   79.7590  221.3910 C   0  0  0  0  0  0  0  0  0  0  0  0
  139.5480   74.2980  221.9490 C   0  0  0  0  0  0  0  0  0  0  0  0
  139.1140   72.8820  222.3430 C   0  0  0  0  0  0  0  0  0  0  0  0
  137.1063   70.6274  225.0034 H   0  0  0  0  0  0  0  0  0  0  0  0
  137.4673   71.6557  223.5756 H   0  0  0  0  0  0  0  0  0  0  0  0
  136.0168   70.5962  223.5756 H   0  0  0  0  0  0  0  0  0  0  0  0
  137.9587   68.7648  224.0493 H   0  0  0  0  0  0  0  0  0  0  0  0
  137.3617   69.2392  222.3969 H   0  0  0  0  0  0  0  0  0  0  0  0
  140.0026   68.5817  224.7604 H   0  0  0  0  0  0  0  0  0  0  0  0
  140.6477   68.0770  227.1147 H   0  0  0  0  0  0  0  0  0  0  0  0
  141.3105   69.9129  228.6162 H   0  0  0  0  0  0  0  0  0  0  0  0
  141.3578   72.2752  227.8481 H   0  0  0  0  0  0  0  0  0  0  0  0
  140.7077   72.7867  225.4689 H   0  0  0  0  0  0  0  0  0  0  0  0
  140.6082   72.9345  223.8024 H   0  0  0  0  0  0  0  0  0  0  0  0
  142.3230   72.4852  222.4308 H   0  0  0  0  0  0  0  0  0  0  0  0
  141.5232   70.9944  221.8131 H   0  0  0  0  0  0  0  0  0  0  0  0
  141.9857   72.8436  220.1375 H   0  0  0  0  0  0  0  0  0  0  0  0
  140.2783   72.1765  220.2475 H   0  0  0  0  0  0  0  0  0  0  0  0
  139.7608   76.8106  219.3690 H   0  0  0  0  0  0  0  0  0  0  0  0
  139.7389   76.5836  221.1304 H   0  0  0  0  0  0  0  0  0  0  0  0
  141.4202   78.1745  219.5141 H   0  0  0  0  0  0  0  0  0  0  0  0
  142.9690   76.0960  220.6750 H   0  0  0  0  0  0  0  0  0  0  0  0
  142.9190   76.7830  219.0590 H   0  0  0  0  0  0  0  0  0  0  0  0
  141.4601   76.8280  223.0239 H   0  0  0  0  0  0  0  0  0  0  0  0
  141.3403   78.3394  224.9386 H   0  0  0  0  0  0  0  0  0  0  0  0
  141.2905   80.8096  224.6307 H   0  0  0  0  0  0  0  0  0  0  0  0
  141.3149   82.6345  223.2211 H   0  0  0  0  0  0  0  0  0  0  0  0
  141.4008   83.6563  220.9461 H   0  0  0  0  0  0  0  0  0  0  0  0
  141.5263   82.1487  218.9793 H   0  0  0  0  0  0  0  0  0  0  0  0
  141.5630   79.7153  219.2514 H   0  0  0  0  0  0  0  0  0  0  0  0
  139.9978   74.8189  222.8071 H   0  0  0  0  0  0  0  0  0  0  0  0
  138.7005   74.9165  221.6186 H   0  0  0  0  0  0  0  0  0  0  0  0
  138.2615   72.9254  223.0368 H   0  0  0  0  0  0  0  0  0  0  0  0
  138.7969   72.3044  221.4622 H   0  0  0  0  0  0  0  0  0  0  0  0
  1  2  1  0
  2  3  1  0
  3  4  2  0
  3  5  1  0
  5  6  1  0
  6  7  2  0
  7  8  1  0
  8  9  2  0
  9 10  1  0
 10 11  2  0
  5 12  1  0
 12 13  1  0
 13 14  1  0
 14 15  1  0
 15 16  1  0
 16 17  2  0
 16 18  1  0
 18 19  1  0
 19 20  1  0
 19 21  1  0
 21 22  2  0
 22 23  1  0
 23 24  2  0
 24 25  1  0
 25 26  2  0
 26 27  1  0
 27 28  2  0
 28 29  1  0
 29 30  2  0
 15 31  1  0
 31 32  1  0
 11  6  1  0
 32 12  1  0
 30 21  1  0
 30 25  1  0
  1 33  1  0
  1 34  1  0
  1 35  1  0
  2 36  1  0
  2 37  1  0
  7 38  1  0
  8 39  1  0
  9 40  1  0
 10 41  1  0
 11 42  1  0
 12 43  1  0
 13 44  1  0
 13 45  1  0
 14 46  1  0
 14 47  1  0
 18 48  1  0
 18 49  1  0
 19 50  1  6
 20 51  1  0
 20 52  1  0
 22 53  1  0
 23 54  1  0
 24 55  1  0
 26 56  1  0
 27 57  1  0
 28 58  1  0
 29 59  1  0
 31 60  1  0
 31 61  1  0
 32 62  1  0
 32 63  1  0
M  END
>  <smiles>  (50) 
CCC(=O)N(c1ccccc1)C1CCN(C(=O)CC(N)c2cccc3ccccc23)CC1

>  <score_type>  (50) 
oracle

>  <origin>  (50) 
autodockgpu

>  <m_score__min__energy>  (50) 
-9.4000000000000004

>  <m_primary>  (50) 
energy

>  <rmsd>  (50) 
5.017314993538478

>  <m_score__min__rmsd>  (50) 
5.017314993538478

>  <meeko>  (50) 
{"free_energy": -7.88, "intermolecular_energy": -10.26, "internal_energy": -2.36, "cluster_size": 4, "cluster_id": 8, "rank_in_cluster": 3}

>  <energy>  (50) 
-6.9

>  <cluster_rmsd>  (50) 
0.14

>  <cluster>  (50) 
10

$$$$

     RDKit          3D

 63 66  0  0  0  0  0  0  0  0999 V2000
  142.6210   78.2260  218.0570 C   0  0  0  0  0  0  0  0  0  0  0  0
  141.3490   79.0380  218.2530 C   0  0  0  0  0  0  0  0  0  0  0  0
  140.3690   78.1220  218.8880 C   0  0  0  0  0  0  0  0  0  0  0  0
  139.2400   78.0090  218.3700 O   0  0  0  0  0  0  0  0  0  0  0  0
  140.7460   77.3910  220.0790 N   0  0  0  0  0  0  0  0  0  0  0  0
  140.8870   78.0920  221.3190 C   0  0  0  0  0  0  0  0  0  0  0  0
  142.0880   78.7420  221.5520 C   0  0  0  0  0  0  0  0  0  0  0  0
  142.2680   79.4280  222.7280 C   0  0  0  0  0  0  0  0  0  0  0  0
  141.2300   79.4500  223.6620 C   0  0  0  0  0  0  0  0  0  0  0  0
  140.0270   78.7960  223.4270 C   0  0  0  0  0  0  0  0  0  0  0  0
  139.8520   78.1120  222.2470 C   0  0  0  0  0  0  0  0  0  0  0  0
  140.9840   75.9640  220.0160 C   0  0  0  0  0  0  0  0  0  0  0  0
  139.7790   75.2480  220.5390 C   0  0  0  0  0  0  0  0  0  0  0  0
  140.1360   74.1960  221.6090 C   0  0  0  0  0  0  0  0  0  0  0  0
  141.1990   73.3450  221.1460 N   0  0  0  0  0  0  0  0  0  0  0  0
  141.1860   71.9130  221.2780 C   0  0  0  0  0  0  0  0  0  0  0  0
  142.1790   71.3070  220.8070 O   0  0  0  0  0  0  0  0  0  0  0  0
  140.1190   71.1490  221.9060 C   0  0  0  0  0  0  0  0  0  0  0  0
  139.6760   71.6230  223.2620 C   0  0  1  0  0  0  0  0  0  0  0  0
  138.3520   72.1970  223.0980 N   0  0  0  0  0  0  0  0  0  0  0  0
  139.6160   70.5390  224.2270 C   0  0  0  0  0  0  0  0  0  0  0  0
  139.0630   69.3090  223.9480 C   0  0  0  0  0  0  0  0  0  0  0  0
  138.9850   68.2740  224.8520 C   0  0  0  0  0  0  0  0  0  0  0  0
  139.4850   68.4550  226.1240 C   0  0  0  0  0  0  0  0  0  0  0  0
  140.0430   69.6700  226.4350 C   0  0  0  0  0  0  0  0  0  0  0  0
  140.5300   69.8380  227.7090 C   0  0  0  0  0  0  0  0  0  0  0  0
  141.0990   71.0180  228.1110 C   0  0  0  0  0  0  0  0  0  0  0  0
  141.1860   72.0740  227.2100 C   0  0  0  0  0  0  0  0  0  0  0  0
  140.6930   71.8810  225.9480 C   0  0  0  0  0  0  0  0  0  0  0  0
  140.1140   70.7050  225.5120 C   0  0  0  0  0  0  0  0  0  0  0  0
  142.3350   74.0180  220.5080 C   0  0  0  0  0  0  0  0  0  0  0  0
  142.1680   75.5010  220.8100 C   0  0  0  0  0  0  0  0  0  0  0  0
  143.0401   77.9585  219.0382 H   0  0  0  0  0  0  0  0  0  0  0  0
  142.3879   77.3092  217.4956 H   0  0  0  0  0  0  0  0  0  0  0  0
  143.3545   78.8233  217.4956 H   0  0  0  0  0  0  0  0  0  0  0  0
  141.5440   79.9009  218.9067 H   0  0  0  0  0  0  0  0  0  0  0  0
  140.9714   79.4300  217.2971 H   0  0  0  0  0  0  0  0  0  0  0  0
  142.8911   78.7089  220.8010 H   0  0  0  0  0  0  0  0  0  0  0  0
  143.2140   79.9514  222.9309 H   0  0  0  0  0  0  0  0  0  0  0  0
  141.3681   79.9979  224.6058 H   0  0  0  0  0  0  0  0  0  0  0  0
  139.2229   78.8250  224.1770 H   0  0  0  0  0  0  0  0  0  0  0  0
  138.9070   77.5883  222.0403 H   0  0  0  0  0  0  0  0  0  0  0  0
  141.1899   75.7374  218.9595 H   0  0  0  0  0  0  0  0  0  0  0  0
  139.0955   75.9861  220.9840 H   0  0  0  0  0  0  0  0  0  0  0  0
  139.3105   74.7209  219.6948 H   0  0  0  0  0  0  0  0  0  0  0  0
  140.4573   74.7089  222.5275 H   0  0  0  0  0  0  0  0  0  0  0  0
  139.2483   73.5781  221.8095 H   0  0  0  0  0  0  0  0  0  0  0  0
  139.2458   71.1791  221.2377 H   0  0  0  0  0  0  0  0  0  0  0  0
  140.5312   70.1416  222.0653 H   0  0  0  0  0  0  0  0  0  0  0  0
  140.3999   72.3559  223.6476 H   0  0  0  0  0  0  0  0  0  0  0  0
  138.3950   73.1680  222.7150 H   0  0  0  0  0  0  0  0  0  0  0  0
  137.7510   72.0870  223.9150 H   0  0  0  0  0  0  0  0  0  0  0  0
  138.6580   69.1432  222.9388 H   0  0  0  0  0  0  0  0  0  0  0  0
  138.5297   67.3151  224.5634 H   0  0  0  0  0  0  0  0  0  0  0  0
  139.4381   67.6476  226.8695 H   0  0  0  0  0  0  0  0  0  0  0  0
  140.4614   69.0047  228.4237 H   0  0  0  0  0  0  0  0  0  0  0  0
  141.4830   71.1289  229.1358 H   0  0  0  0  0  0  0  0  0  0  0  0
  141.6368   73.0338  227.5025 H   0  0  0  0  0  0  0  0  0  0  0  0
  140.7622   72.7159  225.2351 H   0  0  0  0  0  0  0  0  0  0  0  0
  143.2826   73.6472  220.9258 H   0  0  0  0  0  0  0  0  0  0  0  0
  142.3594   73.8277  219.4249 H   0  0  0  0  0  0  0  0  0  0  0  0
  141.9882   75.6525  221.8846 H   0  0  0  0  0  0  0  0  0  0  0  0
  143.0729   76.0666  220.5431 H   0  0  0  0  0  0  0  0  0  0  0  0
  1  2  1  0
  2  3  1  0
  3  4  2  0
  3  5  1  0
  5  6  1  0
  6  7  2  0
  7  8  1  0
  8  9  2  0
  9 10  1  0
 10 11  2  0
  5 12  1  0
 12 13  1  0
 13 14  1  0
 14 15  1  0
 15 16  1  0
 16 17  2  0
 16 18  1  0
 18 19  1  0
 19 20  1  0
 19 21  1  0
 21 22  2  0
 22 23  1  0
 23 24  2  0
 24 25  1  0
 25 26  2  0
 26 27  1  0
 27 28  2  0
 28 29  1  0
 29 30  2  0
 15 31  1  0
 31 32  1  0
 11  6  1  0
 32 12  1  0
 30 21  1  0
 30 25  1  0
  1 33  1  0
  1 34  1  0
  1 35  1  0
  2 36  1  0
  2 37  1  0
  7 38  1  0
  8 39  1  0
  9 40  1  0
 10 41  1  0
 11 42  1  0
 12 43  1  0
 13 44  1  0
 13 45  1  0
 14 46  1  0
 14 47  1  0
 18 48  1  0
 18 49  1  0
 19 50  1  1
 20 51  1  0
 20 52  1  0
 22 53  1  0
 23 54  1  0
 24 55  1  0
 26 56  1  0
 27 57  1  0
 28 58  1  0
 29 59  1  0
 31 60  1  0
 31 61  1  0
 32 62  1  0
 32 63  1  0
M  END
>  <smiles>  (51) 
CCC(=O)N(c1ccccc1)C1CCN(C(=O)CC(N)c2cccc3ccccc23)CC1

>  <score_type>  (51) 
oracle

>  <origin>  (51) 
autodockgpu

>  <m_score__min__energy>  (51) 
-9.3599999999999994

>  <m_primary>  (51) 
energy

>  <rmsd>  (51) 
8.48249652097818

>  <m_score__min__rmsd>  (51) 
8.48249652097818

>  <meeko>  (51) 
{"free_energy": -8.54, "intermolecular_energy": -10.93, "internal_energy": -1.49, "cluster_size": 39, "cluster_id": 2, "rank_in_cluster": 23}

>  <energy>  (51) 
-9.36

>  <cluster_rmsd>  (51) 
0.0

>  <cluster>  (51) 
1

$$$$

     RDKit          3D

 63 66  0  0  0  0  0  0  0  0999 V2000
  142.5880   78.9680  217.9840 C   0  0  0  0  0  0  0  0  0  0  0  0
  142.0480   77.5550  218.1510 C   0  0  0  0  0  0  0  0  0  0  0  0
  142.4510   77.1180  219.5110 C   0  0  0  0  0  0  0  0  0  0  0  0
  143.6170   76.7140  219.6840 O   0  0  0  0  0  0  0  0  0  0  0  0
  141.4860   77.1720  220.5890 N   0  0  0  0  0  0  0  0  0  0  0  0
  141.4640   78.3100  221.4570 C   0  0  0  0  0  0  0  0  0  0  0  0
  141.4190   78.0720  222.8200 C   0  0  0  0  0  0  0  0  0  0  0  0
  141.3960   79.1330  223.6910 C   0  0  0  0  0  0  0  0  0  0  0  0
  141.4190   80.4300  223.1750 C   0  0  0  0  0  0  0  0  0  0  0  0
  141.4630   80.6670  221.8070 C   0  0  0  0  0  0  0  0  0  0  0  0
  141.4860   79.6000  220.9400 C   0  0  0  0  0  0  0  0  0  0  0  0
  140.5550   76.0810  220.7910 C   0  0  0  0  0  0  0  0  0  0  0  0
  141.0230   75.2500  221.9440 C   0  0  0  0  0  0  0  0  0  0  0  0
  141.0780   73.7470  221.6050 C   0  0  0  0  0  0  0  0  0  0  0  0
  139.8430   73.3190  221.0050 N   0  0  0  0  0  0  0  0  0  0  0  0
  139.1510   72.1160  221.3820 C   0  0  0  0  0  0  0  0  0  0  0  0
  138.0740   71.8880  220.7800 O   0  0  0  0  0  0  0  0  0  0  0  0
  139.6140   71.1770  222.3920 C   0  0  0  0  0  0  0  0  0  0  0  0
  139.1390   71.4290  223.7970 C   0  0  1  0  0  0  0  0  0  0  0  0
  137.6930   71.5630  223.7360 N   0  0  0  0  0  0  0  0  0  0  0  0
  139.4850   70.3410  224.6940 C   0  0  0  0  0  0  0  0  0  0  0  0
  139.2020   69.0210  224.4260 C   0  0  0  0  0  0  0  0  0  0  0  0
  139.5100   67.9780  225.2690 C   0  0  0  0  0  0  0  0  0  0  0  0
  140.1420   68.2450  226.4640 C   0  0  0  0  0  0  0  0  0  0  0  0
  140.4380   69.5520  226.7630 C   0  0  0  0  0  0  0  0  0  0  0  0
  141.0620   69.8050  227.9620 C   0  0  0  0  0  0  0  0  0  0  0  0
  141.3910   71.0790  228.3470 C   0  0  0  0  0  0  0  0  0  0  0  0
  141.0870   72.1430  227.5060 C   0  0  0  0  0  0  0  0  0  0  0  0
  140.4660   71.8650  226.3190 C   0  0  0  0  0  0  0  0  0  0  0  0
  140.1210   70.5950  225.9020 C   0  0  0  0  0  0  0  0  0  0  0  0
  139.2940   74.1900  219.9600 C   0  0  0  0  0  0  0  0  0  0  0  0
  140.4040   75.1730  219.6090 C   0  0  0  0  0  0  0  0  0  0  0  0
  142.7587   79.4147  218.9746 H   0  0  0  0  0  0  0  0  0  0  0  0
  143.5368   78.9347  217.4283 H   0  0  0  0  0  0  0  0  0  0  0  0
  141.8588   79.5759  217.4283 H   0  0  0  0  0  0  0  0  0  0  0  0
  140.9519   77.5518  218.0582 H   0  0  0  0  0  0  0  0  0  0  0  0
  142.4440   76.8797  217.3783 H   0  0  0  0  0  0  0  0  0  0  0  0
  141.4018   77.0407  223.2023 H   0  0  0  0  0  0  0  0  0  0  0  0
  141.3600   78.9640  224.7773 H   0  0  0  0  0  0  0  0  0  0  0  0
  141.4019   81.2842  223.8679 H   0  0  0  0  0  0  0  0  0  0  0  0
  141.4793   81.6971  221.4215 H   0  0  0  0  0  0  0  0  0  0  0  0
  141.5213   79.7650  219.8530 H   0  0  0  0  0  0  0  0  0  0  0  0
  139.5759   76.5486  220.9719 H   0  0  0  0  0  0  0  0  0  0  0  0
  142.0306   75.5835  222.2331 H   0  0  0  0  0  0  0  0  0  0  0  0
  140.3024   75.3812  222.7647 H   0  0  0  0  0  0  0  0  0  0  0  0
  141.9040   73.5648  220.9018 H   0  0  0  0  0  0  0  0  0  0  0  0
  141.2372   73.1791  222.5335 H   0  0  0  0  0  0  0  0  0  0  0  0
  139.2752   70.1727  222.0977 H   0  0  0  0  0  0  0  0  0  0  0  0
  140.7074   71.2931  222.4244 H   0  0  0  0  0  0  0  0  0  0  0  0
  139.6233   72.3349  224.1904 H   0  0  0  0  0  0  0  0  0  0  0  0
  137.3330   71.4390  222.7630 H   0  0  0  0  0  0  0  0  0  0  0  0
  137.3350   72.3850  224.2220 H   0  0  0  0  0  0  0  0  0  0  0  0
  138.6975   68.7848  223.4775 H   0  0  0  0  0  0  0  0  0  0  0  0
  139.2550   66.9443  224.9925 H   0  0  0  0  0  0  0  0  0  0  0  0
  140.4022   67.4333  227.1593 H   0  0  0  0  0  0  0  0  0  0  0  0
  141.3032   68.9641  228.6289 H   0  0  0  0  0  0  0  0  0  0  0  0
  141.8901   71.2572  229.3109 H   0  0  0  0  0  0  0  0  0  0  0  0
  141.3380   73.1767  227.7861 H   0  0  0  0  0  0  0  0  0  0  0  0
  140.2261   72.7078  225.6540 H   0  0  0  0  0  0  0  0  0  0  0  0
  139.0141   73.5977  219.0764 H   0  0  0  0  0  0  0  0  0  0  0  0
  138.3877   74.7104  220.3033 H   0  0  0  0  0  0  0  0  0  0  0  0
  141.3442   74.6338  219.4211 H   0  0  0  0  0  0  0  0  0  0  0  0
  140.1605   75.7407  218.6988 H   0  0  0  0  0  0  0  0  0  0  0  0
  1  2  1  0
  2  3  1  0
  3  4  2  0
  3  5  1  0
  5  6  1  0
  6  7  2  0
  7  8  1  0
  8  9  2  0
  9 10  1  0
 10 11  2  0
  5 12  1  0
 12 13  1  0
 13 14  1  0
 14 15  1  0
 15 16  1  0
 16 17  2  0
 16 18  1  0
 18 19  1  0
 19 20  1  0
 19 21  1  0
 21 22  2  0
 22 23  1  0
 23 24  2  0
 24 25  1  0
 25 26  2  0
 26 27  1  0
 27 28  2  0
 28 29  1  0
 29 30  2  0
 15 31  1  0
 31 32  1  0
 11  6  1  0
 32 12  1  0
 30 21  1  0
 30 25  1  0
  1 33  1  0
  1 34  1  0
  1 35  1  0
  2 36  1  0
  2 37  1  0
  7 38  1  0
  8 39  1  0
  9 40  1  0
 10 41  1  0
 11 42  1  0
 12 43  1  0
 13 44  1  0
 13 45  1  0
 14 46  1  0
 14 47  1  0
 18 48  1  0
 18 49  1  0
 19 50  1  1
 20 51  1  0
 20 52  1  0
 22 53  1  0
 23 54  1  0
 24 55  1  0
 26 56  1  0
 27 57  1  0
 28 58  1  0
 29 59  1  0
 31 60  1  0
 31 61  1  0
 32 62  1  0
 32 63  1  0
M  END
>  <smiles>  (52) 
CCC(=O)N(c1ccccc1)C1CCN(C(=O)CC(N)c2cccc3ccccc23)CC1

>  <score_type>  (52) 
oracle

>  <origin>  (52) 
autodockgpu

>  <m_score__min__energy>  (52) 
-9.3599999999999994

>  <m_primary>  (52) 
energy

>  <rmsd>  (52) 
8.816767072507616

>  <m_score__min__rmsd>  (52) 
8.816767072507616

>  <meeko>  (52) 
{"free_energy": -8.88, "intermolecular_energy": -11.26, "internal_energy": -1.84, "cluster_size": 39, "cluster_id": 2, "rank_in_cluster": 1}

>  <energy>  (52) 
-8.88

>  <cluster_rmsd>  (52) 
0.0

>  <cluster>  (52) 
2

$$$$

     RDKit          3D

 63 66  0  0  0  0  0  0  0  0999 V2000
  143.5410   75.0560  218.6360 C   0  0  0  0  0  0  0  0  0  0  0  0
  143.6710   76.1210  219.7160 C   0  0  0  0  0  0  0  0  0  0  0  0
  142.5030   77.0220  219.5480 C   0  0  0  0  0  0  0  0  0  0  0  0
  142.4080   77.6800  218.4940 O   0  0  0  0  0  0  0  0  0  0  0  0
  141.5170   77.1100  220.6040 N   0  0  0  0  0  0  0  0  0  0  0  0
  141.4840   78.2710  221.4400 C   0  0  0  0  0  0  0  0  0  0  0  0
  141.1460   78.0900  222.7710 C   0  0  0  0  0  0  0  0  0  0  0  0
  141.1020   79.1760  223.6110 C   0  0  0  0  0  0  0  0  0  0  0  0
  141.4000   80.4390  223.0980 C   0  0  0  0  0  0  0  0  0  0  0  0
  141.7370   80.6190  221.7620 C   0  0  0  0  0  0  0  0  0  0  0  0
  141.7810   79.5280  220.9260 C   0  0  0  0  0  0  0  0  0  0  0  0
  140.5750   76.0310  220.8160 C   0  0  0  0  0  0  0  0  0  0  0  0
  141.0480   75.1900  221.9580 C   0  0  0  0  0  0  0  0  0  0  0  0
  141.0780   73.6870  221.6130 C   0  0  0  0  0  0  0  0  0  0  0  0
  139.8290   73.2780  221.0300 N   0  0  0  0  0  0  0  0  0  0  0  0
  139.1270   72.0830  221.4120 C   0  0  0  0  0  0  0  0  0  0  0  0
  138.0380   71.8710  220.8250 O   0  0  0  0  0  0  0  0  0  0  0  0
  139.5920   71.1330  222.4120 C   0  0  0  0  0  0  0  0  0  0  0  0
  139.1320   71.3800  223.8220 C   0  0  1  0  0  0  0  0  0  0  0  0
  137.6860   71.5180  223.7770 N   0  0  0  0  0  0  0  0  0  0  0  0
  139.4850   70.2870  224.7110 C   0  0  0  0  0  0  0  0  0  0  0  0
  139.1960   68.9680  224.4390 C   0  0  0  0  0  0  0  0  0  0  0  0
  139.5110   67.9210  225.2740 C   0  0  0  0  0  0  0  0  0  0  0  0
  140.1560   68.1820  226.4640 C   0  0  0  0  0  0  0  0  0  0  0  0
  140.4580   69.4870  226.7660 C   0  0  0  0  0  0  0  0  0  0  0  0
  141.0940   69.7320  227.9600 C   0  0  0  0  0  0  0  0  0  0  0  0
  141.4300   71.0030  228.3470 C   0  0  0  0  0  0  0  0  0  0  0  0
  141.1190   72.0720  227.5150 C   0  0  0  0  0  0  0  0  0  0  0  0
  140.4850   71.8010  226.3330 C   0  0  0  0  0  0  0  0  0  0  0  0
  140.1340   70.5330  225.9130 C   0  0  0  0  0  0  0  0  0  0  0  0
  139.2770   74.1600  219.9960 C   0  0  0  0  0  0  0  0  0  0  0  0
  140.3940   75.1300  219.6320 C   0  0  0  0  0  0  0  0  0  0  0  0
  143.4205   74.0692  219.1068 H   0  0  0  0  0  0  0  0  0  0  0  0
  142.6627   75.2735  218.0104 H   0  0  0  0  0  0  0  0  0  0  0  0
  144.4458   75.0558  218.0104 H   0  0  0  0  0  0  0  0  0  0  0  0
  143.6552   75.6573  220.7134 H   0  0  0  0  0  0  0  0  0  0  0  0
  144.6193   76.6711  219.6260 H   0  0  0  0  0  0  0  0  0  0  0  0
  140.9146   77.0845  223.1524 H   0  0  0  0  0  0  0  0  0  0  0  0
  140.8361   79.0520  224.6711 H   0  0  0  0  0  0  0  0  0  0  0  0
  141.3674   81.3120  223.7664 H   0  0  0  0  0  0  0  0  0  0  0  0
  141.9662   81.6237  221.3771 H   0  0  0  0  0  0  0  0  0  0  0  0
  142.0475   79.6483  219.8656 H   0  0  0  0  0  0  0  0  0  0  0  0
  139.6050   76.5107  221.0137 H   0  0  0  0  0  0  0  0  0  0  0  0
  142.0641   75.5089  222.2336 H   0  0  0  0  0  0  0  0  0  0  0  0
  140.3410   75.3277  222.7894 H   0  0  0  0  0  0  0  0  0  0  0  0
  141.8911   73.4963  220.8971 H   0  0  0  0  0  0  0  0  0  0  0  0
  141.2434   73.1136  222.5371 H   0  0  0  0  0  0  0  0  0  0  0  0
  139.2423   70.1334  222.1145 H   0  0  0  0  0  0  0  0  0  0  0  0
  140.6866   71.2395  222.4349 H   0  0  0  0  0  0  0  0  0  0  0  0
  139.6222   72.2833  224.2140 H   0  0  0  0  0  0  0  0  0  0  0  0
  137.3130   71.3800  222.8110 H   0  0  0  0  0  0  0  0  0  0  0  0
  137.3360   72.3480  224.2550 H   0  0  0  0  0  0  0  0  0  0  0  0
  138.6810   68.7373  223.4948 H   0  0  0  0  0  0  0  0  0  0  0  0
  139.2515   66.8889  224.9957 H   0  0  0  0  0  0  0  0  0  0  0  0
  140.4216   67.3668  227.1531 H   0  0  0  0  0  0  0  0  0  0  0  0
  141.3391   68.8874  228.6207 H   0  0  0  0  0  0  0  0  0  0  0  0
  141.9405   71.1753  229.3060 H   0  0  0  0  0  0  0  0  0  0  0  0
  141.3746   73.1038  227.7979 H   0  0  0  0  0  0  0  0  0  0  0  0
  140.2391   72.6475  225.6750 H   0  0  0  0  0  0  0  0  0  0  0  0
  138.9768   73.5745  219.1145 H   0  0  0  0  0  0  0  0  0  0  0  0
  138.3829   74.6911  220.3545 H   0  0  0  0  0  0  0  0  0  0  0  0
  141.3241   74.5795  219.4272 H   0  0  0  0  0  0  0  0  0  0  0  0
  140.1440   75.7049  218.7281 H   0  0  0  0  0  0  0  0  0  0  0  0
  1  2  1  0
  2  3  1  0
  3  4  2  0
  3  5  1  0
  5  6  1  0
  6  7  2  0
  7  8  1  0
  8  9  2  0
  9 10  1  0
 10 11  2  0
  5 12  1  0
 12 13  1  0
 13 14  1  0
 14 15  1  0
 15 16  1  0
 16 17  2  0
 16 18  1  0
 18 19  1  0
 19 20  1  0
 19 21  1  0
 21 22  2  0
 22 23  1  0
 23 24  2  0
 24 25  1  0
 25 26  2  0
 26 27  1  0
 27 28  2  0
 28 29  1  0
 29 30  2  0
 15 31  1  0
 31 32  1  0
 11  6  1  0
 32 12  1  0
 30 21  1  0
 30 25  1  0
  1 33  1  0
  1 34  1  0
  1 35  1  0
  2 36  1  0
  2 37  1  0
  7 38  1  0
  8 39  1  0
  9 40  1  0
 10 41  1  0
 11 42  1  0
 12 43  1  0
 13 44  1  0
 13 45  1  0
 14 46  1  0
 14 47  1  0
 18 48  1  0
 18 49  1  0
 19 50  1  1
 20 51  1  0
 20 52  1  0
 22 53  1  0
 23 54  1  0
 24 55  1  0
 26 56  1  0
 27 57  1  0
 28 58  1  0
 29 59  1  0
 31 60  1  0
 31 61  1  0
 32 62  1  0
 32 63  1  0
M  END
>  <smiles>  (53) 
CCC(=O)N(c1ccccc1)C1CCN(C(=O)CC(N)c2cccc3ccccc23)CC1

>  <score_type>  (53) 
oracle

>  <origin>  (53) 
autodockgpu

>  <m_score__min__energy>  (53) 
-9.3599999999999994

>  <m_primary>  (53) 
energy

>  <rmsd>  (53) 
8.85682967809381

>  <m_score__min__rmsd>  (53) 
8.85682967809381

>  <meeko>  (53) 
{"free_energy": -8.83, "intermolecular_energy": -11.21, "internal_energy": -1.92, "cluster_size": 39, "cluster_id": 2, "rank_in_cluster": 6}

>  <energy>  (53) 
-8.85

>  <cluster_rmsd>  (53) 
0.28

>  <cluster>  (53) 
2

$$$$

     RDKit          3D

 63 66  0  0  0  0  0  0  0  0999 V2000
  142.2330   80.1470  218.6110 C   0  0  0  0  0  0  0  0  0  0  0  0
  141.3390   78.9280  218.4420 C   0  0  0  0  0  0  0  0  0  0  0  0
  141.8410   77.9130  219.4020 C   0  0  0  0  0  0  0  0  0  0  0  0
  142.8810   77.2890  219.1160 O   0  0  0  0  0  0  0  0  0  0  0  0
  141.1150   77.6780  220.6310 N   0  0  0  0  0  0  0  0  0  0  0  0
  141.1940   78.6380  221.6900 C   0  0  0  0  0  0  0  0  0  0  0  0
  142.4450   79.1480  221.9970 C   0  0  0  0  0  0  0  0  0  0  0  0
  142.5690   80.0720  223.0050 C   0  0  0  0  0  0  0  0  0  0  0  0
  141.4250   80.4730  223.6980 C   0  0  0  0  0  0  0  0  0  0  0  0
  140.1720   79.9600  223.3890 C   0  0  0  0  0  0  0  0  0  0  0  0
  140.0530   79.0350  222.3770 C   0  0  0  0  0  0  0  0  0  0  0  0
  140.3180   76.4790  220.7920 C   0  0  0  0  0  0  0  0  0  0  0  0
  140.8390   75.7020  221.9590 C   0  0  0  0  0  0  0  0  0  0  0  0
  141.0920   74.2200  221.6160 C   0  0  0  0  0  0  0  0  0  0  0  0
  139.9440   73.6490  220.9650 N   0  0  0  0  0  0  0  0  0  0  0  0
  139.3910   72.3660  221.3090 C   0  0  0  0  0  0  0  0  0  0  0  0
  138.3740   72.0130  220.6640 O   0  0  0  0  0  0  0  0  0  0  0  0
  139.9260   71.4820  222.3330 C   0  0  0  0  0  0  0  0  0  0  0  0
  139.2120   71.4950  223.6570 C   0  0  1  0  0  0  0  0  0  0  0  0
  137.7990   71.6750  223.3730 N   0  0  0  0  0  0  0  0  0  0  0  0
  139.4030   70.2580  224.3930 C   0  0  0  0  0  0  0  0  0  0  0  0
  139.0380   69.0230  223.9030 C   0  0  0  0  0  0  0  0  0  0  0  0
  139.1990   67.8420  224.5900 C   0  0  0  0  0  0  0  0  0  0  0  0
  139.7570   67.8680  225.8500 C   0  0  0  0  0  0  0  0  0  0  0  0
  140.1310   69.0840  226.3680 C   0  0  0  0  0  0  0  0  0  0  0  0
  140.6800   69.0960  227.6290 C   0  0  0  0  0  0  0  0  0  0  0  0
  141.0780   70.2620  228.2280 C   0  0  0  0  0  0  0  0  0  0  0  0
  140.9230   71.4640  227.5470 C   0  0  0  0  0  0  0  0  0  0  0  0
  140.3740   71.4250  226.2940 C   0  0  0  0  0  0  0  0  0  0  0  0
  139.9630   70.2680  225.6630 C   0  0  0  0  0  0  0  0  0  0  0  0
  139.3330   74.4550  219.9030 C   0  0  0  0  0  0  0  0  0  0  0  0
  140.3260   75.5700  219.6000 C   0  0  0  0  0  0  0  0  0  0  0  0
  142.3804   80.3479  219.6824 H   0  0  0  0  0  0  0  0  0  0  0  0
  143.2068   79.9561  218.1364 H   0  0  0  0  0  0  0  0  0  0  0  0
  141.7583   81.0185  218.1364 H   0  0  0  0  0  0  0  0  0  0  0  0
  140.2944   79.1860  218.6707 H   0  0  0  0  0  0  0  0  0  0  0  0
  141.3644   78.5512  217.4089 H   0  0  0  0  0  0  0  0  0  0  0  0
  143.3318   78.8153  221.4377 H   0  0  0  0  0  0  0  0  0  0  0  0
  143.5536   80.4896  223.2625 H   0  0  0  0  0  0  0  0  0  0  0  0
  141.5184   81.2122  224.5072 H   0  0  0  0  0  0  0  0  0  0  0  0
  139.2836   80.2897  223.9476 H   0  0  0  0  0  0  0  0  0  0  0  0
  139.0699   78.6163  222.1159 H   0  0  0  0  0  0  0  0  0  0  0  0
  139.2824   76.8207  220.9364 H   0  0  0  0  0  0  0  0  0  0  0  0
  141.7857   76.1542  222.2896 H   0  0  0  0  0  0  0  0  0  0  0  0
  140.0763   75.7364  222.7509 H   0  0  0  0  0  0  0  0  0  0  0  0
  141.9613   74.1471  220.9459 H   0  0  0  0  0  0  0  0  0  0  0  0
  141.2831   73.6675  222.5478 H   0  0  0  0  0  0  0  0  0  0  0  0
  139.8905   70.4544  221.9420 H   0  0  0  0  0  0  0  0  0  0  0  0
  140.9412   71.8509  222.5410 H   0  0  0  0  0  0  0  0  0  0  0  0
  139.6152   72.3051  224.2825 H   0  0  0  0  0  0  0  0  0  0  0  0
  137.5220   71.2140  222.4770 H   0  0  0  0  0  0  0  0  0  0  0  0
  137.4770   72.6370  223.4740 H   0  0  0  0  0  0  0  0  0  0  0  0
  138.5897   68.9786  222.8995 H   0  0  0  0  0  0  0  0  0  0  0  0
  138.8862   66.8886  224.1392 H   0  0  0  0  0  0  0  0  0  0  0  0
  139.8989   66.9409  226.4247 H   0  0  0  0  0  0  0  0  0  0  0  0
  140.8025   68.1460  228.1698 H   0  0  0  0  0  0  0  0  0  0  0  0
  141.5156   70.2473  229.2371 H   0  0  0  0  0  0  0  0  0  0  0  0
  141.2321   72.4170  228.0012 H   0  0  0  0  0  0  0  0  0  0  0  0
  140.2524   72.3763  225.7553 H   0  0  0  0  0  0  0  0  0  0  0  0
  139.1626   73.8406  219.0066 H   0  0  0  0  0  0  0  0  0  0  0  0
  138.3570   74.8570  220.2125 H   0  0  0  0  0  0  0  0  0  0  0  0
  141.3320   75.1523  219.4468 H   0  0  0  0  0  0  0  0  0  0  0  0
  140.0499   76.1118  218.6834 H   0  0  0  0  0  0  0  0  0  0  0  0
  1  2  1  0
  2  3  1  0
  3  4  2  0
  3  5  1  0
  5  6  1  0
  6  7  2  0
  7  8  1  0
  8  9  2  0
  9 10  1  0
 10 11  2  0
  5 12  1  0
 12 13  1  0
 13 14  1  0
 14 15  1  0
 15 16  1  0
 16 17  2  0
 16 18  1  0
 18 19  1  0
 19 20  1  0
 19 21  1  0
 21 22  2  0
 22 23  1  0
 23 24  2  0
 24 25  1  0
 25 26  2  0
 26 27  1  0
 27 28  2  0
 28 29  1  0
 29 30  2  0
 15 31  1  0
 31 32  1  0
 11  6  1  0
 32 12  1  0
 30 21  1  0
 30 25  1  0
  1 33  1  0
  1 34  1  0
  1 35  1  0
  2 36  1  0
  2 37  1  0
  7 38  1  0
  8 39  1  0
  9 40  1  0
 10 41  1  0
 11 42  1  0
 12 43  1  0
 13 44  1  0
 13 45  1  0
 14 46  1  0
 14 47  1  0
 18 48  1  0
 18 49  1  0
 19 50  1  1
 20 51  1  0
 20 52  1  0
 22 53  1  0
 23 54  1  0
 24 55  1  0
 26 56  1  0
 27 57  1  0
 28 58  1  0
 29 59  1  0
 31 60  1  0
 31 61  1  0
 32 62  1  0
 32 63  1  0
M  END
>  <smiles>  (54) 
CCC(=O)N(c1ccccc1)C1CCN(C(=O)CC(N)c2cccc3ccccc23)CC1

>  <score_type>  (54) 
oracle

>  <origin>  (54) 
autodockgpu

>  <m_score__min__energy>  (54) 
-9.3599999999999994

>  <m_primary>  (54) 
energy

>  <rmsd>  (54) 
8.739159665605197

>  <m_score__min__rmsd>  (54) 
8.739159665605197

>  <meeko>  (54) 
{"free_energy": -8.58, "intermolecular_energy": -10.96, "internal_energy": -2.07, "cluster_size": 39, "cluster_id": 2, "rank_in_cluster": 22}

>  <energy>  (54) 
-8.85

>  <cluster_rmsd>  (54) 
0.63

>  <cluster>  (54) 
2

$$$$

     RDKit          3D

 63 66  0  0  0  0  0  0  0  0999 V2000
  142.1860   80.0830  218.7100 C   0  0  0  0  0  0  0  0  0  0  0  0
  141.4720   78.7760  218.3980 C   0  0  0  0  0  0  0  0  0  0  0  0
  141.8930   77.8160  219.4480 C   0  0  0  0  0  0  0  0  0  0  0  0
  142.9200   77.1360  219.2530 O   0  0  0  0  0  0  0  0  0  0  0  0
  141.1080   77.6950  220.6570 N   0  0  0  0  0  0  0  0  0  0  0  0
  141.1710   78.7300  221.6440 C   0  0  0  0  0  0  0  0  0  0  0  0
  142.4190   79.0560  222.1480 C   0  0  0  0  0  0  0  0  0  0  0  0
  142.5270   80.0440  223.0960 C   0  0  0  0  0  0  0  0  0  0  0  0
  141.3710   80.6950  223.5280 C   0  0  0  0  0  0  0  0  0  0  0  0
  140.1190   80.3660  223.0220 C   0  0  0  0  0  0  0  0  0  0  0  0
  140.0170   79.3760  222.0720 C   0  0  0  0  0  0  0  0  0  0  0  0
  140.2680   76.5340  220.8700 C   0  0  0  0  0  0  0  0  0  0  0  0
  140.8490   75.7110  221.9760 C   0  0  0  0  0  0  0  0  0  0  0  0
  140.9950   74.2250  221.5920 C   0  0  0  0  0  0  0  0  0  0  0  0
  139.7680   73.7230  221.0370 N   0  0  0  0  0  0  0  0  0  0  0  0
  139.1830   72.4630  221.4100 C   0  0  0  0  0  0  0  0  0  0  0  0
  138.0970   72.1720  220.8520 O   0  0  0  0  0  0  0  0  0  0  0  0
  139.7590   71.5350  222.3710 C   0  0  0  0  0  0  0  0  0  0  0  0
  139.1290   71.5200  223.7360 C   0  0  1  0  0  0  0  0  0  0  0  0
  137.7010   71.7070  223.5440 N   0  0  0  0  0  0  0  0  0  0  0  0
  139.3620   70.2670  224.4320 C   0  0  0  0  0  0  0  0  0  0  0  0
  139.0200   69.0390  223.9130 C   0  0  0  0  0  0  0  0  0  0  0  0
  139.2210   67.8420  224.5610 C   0  0  0  0  0  0  0  0  0  0  0  0
  139.8000   67.8460  225.8130 C   0  0  0  0  0  0  0  0  0  0  0  0
  140.1520   69.0550  226.3600 C   0  0  0  0  0  0  0  0  0  0  0  0
  140.7210   69.0440  227.6120 C   0  0  0  0  0  0  0  0  0  0  0  0
  141.1010   70.2020  228.2390 C   0  0  0  0  0  0  0  0  0  0  0  0
  140.9040   71.4200  227.5960 C   0  0  0  0  0  0  0  0  0  0  0  0
  140.3350   71.4030  226.3520 C   0  0  0  0  0  0  0  0  0  0  0  0
  139.9430   70.2550  225.6930 C   0  0  0  0  0  0  0  0  0  0  0  0
  139.1090   74.5770  220.0440 C   0  0  0  0  0  0  0  0  0  0  0  0
  140.1270   75.6470  219.6700 C   0  0  0  0  0  0  0  0  0  0  0  0
  142.2561   80.2113  219.8002 H   0  0  0  0  0  0  0  0  0  0  0  0
  143.1972   80.0607  218.2777 H   0  0  0  0  0  0  0  0  0  0  0  0
  141.6208   80.9218  218.2777 H   0  0  0  0  0  0  0  0  0  0  0  0
  140.3819   78.9201  218.4275 H   0  0  0  0  0  0  0  0  0  0  0  0
  141.7267   78.4091  217.3927 H   0  0  0  0  0  0  0  0  0  0  0  0
  143.3161   78.5282  221.7922 H   0  0  0  0  0  0  0  0  0  0  0  0
  143.5094   80.3177  223.5082 H   0  0  0  0  0  0  0  0  0  0  0  0
  141.4524   81.4872  224.2868 H   0  0  0  0  0  0  0  0  0  0  0  0
  139.2200   80.8911  223.3770 H   0  0  0  0  0  0  0  0  0  0  0  0
  139.0364   79.0997  221.6572 H   0  0  0  0  0  0  0  0  0  0  0  0
  139.2674   76.9238  221.1085 H   0  0  0  0  0  0  0  0  0  0  0  0
  141.8429   76.1096  222.2277 H   0  0  0  0  0  0  0  0  0  0  0  0
  140.1613   75.7689  222.8325 H   0  0  0  0  0  0  0  0  0  0  0  0
  141.7978   74.1213  220.8471 H   0  0  0  0  0  0  0  0  0  0  0  0
  141.2378   73.6473  222.4961 H   0  0  0  0  0  0  0  0  0  0  0  0
  139.6755   70.5217  221.9512 H   0  0  0  0  0  0  0  0  0  0  0  0
  140.7933   71.8755  222.5269 H   0  0  0  0  0  0  0  0  0  0  0  0
  139.5723   72.3160  224.3523 H   0  0  0  0  0  0  0  0  0  0  0  0
  137.3650   71.2540  222.6640 H   0  0  0  0  0  0  0  0  0  0  0  0
  137.3900   72.6690  223.6740 H   0  0  0  0  0  0  0  0  0  0  0  0
  138.5561   69.0128  222.9159 H   0  0  0  0  0  0  0  0  0  0  0  0
  138.9240   66.8948  224.0871 H   0  0  0  0  0  0  0  0  0  0  0  0
  139.9748   66.9066  226.3580 H   0  0  0  0  0  0  0  0  0  0  0  0
  140.8749   68.0820  228.1228 H   0  0  0  0  0  0  0  0  0  0  0  0
  141.5567   70.1688  229.2396 H   0  0  0  0  0  0  0  0  0  0  0  0
  141.1966   72.3670  228.0730 H   0  0  0  0  0  0  0  0  0  0  0  0
  140.1798   72.3663  225.8440 H   0  0  0  0  0  0  0  0  0  0  0  0
  138.8303   73.9880  219.1578 H   0  0  0  0  0  0  0  0  0  0  0  0
  138.1854   75.0212  220.4435 H   0  0  0  0  0  0  0  0  0  0  0  0
  141.0936   75.1832  219.4239 H   0  0  0  0  0  0  0  0  0  0  0  0
  139.8004   76.2177  218.7882 H   0  0  0  0  0  0  0  0  0  0  0  0
  1  2  1  0
  2  3  1  0
  3  4  2  0
  3  5  1  0
  5  6  1  0
  6  7  2  0
  7  8  1  0
  8  9  2  0
  9 10  1  0
 10 11  2  0
  5 12  1  0
 12 13  1  0
 13 14  1  0
 14 15  1  0
 15 16  1  0
 16 17  2  0
 16 18  1  0
 18 19  1  0
 19 20  1  0
 19 21  1  0
 21 22  2  0
 22 23  1  0
 23 24  2  0
 24 25  1  0
 25 26  2  0
 26 27  1  0
 27 28  2  0
 28 29  1  0
 29 30  2  0
 15 31  1  0
 31 32  1  0
 11  6  1  0
 32 12  1  0
 30 21  1  0
 30 25  1  0
  1 33  1  0
  1 34  1  0
  1 35  1  0
  2 36  1  0
  2 37  1  0
  7 38  1  0
  8 39  1  0
  9 40  1  0
 10 41  1  0
 11 42  1  0
 12 43  1  0
 13 44  1  0
 13 45  1  0
 14 46  1  0
 14 47  1  0
 18 48  1  0
 18 49  1  0
 19 50  1  1
 20 51  1  0
 20 52  1  0
 22 53  1  0
 23 54  1  0
 24 55  1  0
 26 56  1  0
 27 57  1  0
 28 58  1  0
 29 59  1  0
 31 60  1  0
 31 61  1  0
 32 62  1  0
 32 63  1  0
M  END
>  <smiles>  (55) 
CCC(=O)N(c1ccccc1)C1CCN(C(=O)CC(N)c2cccc3ccccc23)CC1

>  <score_type>  (55) 
oracle

>  <origin>  (55) 
autodockgpu

>  <m_score__min__energy>  (55) 
-9.3599999999999994

>  <m_primary>  (55) 
energy

>  <rmsd>  (55) 
8.731363982342899

>  <m_score__min__rmsd>  (55) 
8.731363982342899

>  <meeko>  (55) 
{"free_energy": -8.52, "intermolecular_energy": -10.9, "internal_energy": -2.08, "cluster_size": 39, "cluster_id": 2, "rank_in_cluster": 25}

>  <energy>  (55) 
-8.84

>  <cluster_rmsd>  (55) 
0.38

>  <cluster>  (55) 
2

$$$$

     RDKit          3D

 63 66  0  0  0  0  0  0  0  0999 V2000
  143.4820   74.9560  219.1680 C   0  0  0  0  0  0  0  0  0  0  0  0
  143.6970   76.3770  219.6680 C   0  0  0  0  0  0  0  0  0  0  0  0
  142.3990   77.0750  219.4950 C   0  0  0  0  0  0  0  0  0  0  0  0
  142.1420   77.5850  218.3870 O   0  0  0  0  0  0  0  0  0  0  0  0
  141.4760   77.1450  220.6070 N   0  0  0  0  0  0  0  0  0  0  0  0
  141.5060   78.2810  221.4770 C   0  0  0  0  0  0  0  0  0  0  0  0
  141.8230   79.5070  220.9150 C   0  0  0  0  0  0  0  0  0  0  0  0
  141.8640   80.6250  221.7120 C   0  0  0  0  0  0  0  0  0  0  0  0
  141.5830   80.4950  223.0730 C   0  0  0  0  0  0  0  0  0  0  0  0
  141.2660   79.2650  223.6350 C   0  0  0  0  0  0  0  0  0  0  0  0
  141.2250   78.1480  222.8320 C   0  0  0  0  0  0  0  0  0  0  0  0
  140.5320   76.0720  220.8420 C   0  0  0  0  0  0  0  0  0  0  0  0
  141.0390   75.2140  221.9580 C   0  0  0  0  0  0  0  0  0  0  0  0
  141.0430   73.7150  221.5960 C   0  0  0  0  0  0  0  0  0  0  0  0
  139.7700   73.3230  221.0540 N   0  0  0  0  0  0  0  0  0  0  0  0
  139.0720   72.1290  221.4500 C   0  0  0  0  0  0  0  0  0  0  0  0
  137.9600   71.9330  220.9000 O   0  0  0  0  0  0  0  0  0  0  0  0
  139.5640   71.1650  222.4220 C   0  0  0  0  0  0  0  0  0  0  0  0
  139.1120   71.3680  223.8410 C   0  0  1  0  0  0  0  0  0  0  0  0
  137.6660   71.5110  223.8080 N   0  0  0  0  0  0  0  0  0  0  0  0
  139.4670   70.2470  224.6930 C   0  0  0  0  0  0  0  0  0  0  0  0
  139.1750   68.9380  224.3810 C   0  0  0  0  0  0  0  0  0  0  0  0
  139.4920   67.8640  225.1800 C   0  0  0  0  0  0  0  0  0  0  0  0
  140.1410   68.0860  226.3760 C   0  0  0  0  0  0  0  0  0  0  0  0
  140.4450   69.3800  226.7190 C   0  0  0  0  0  0  0  0  0  0  0  0
  141.0860   69.5860  227.9170 C   0  0  0  0  0  0  0  0  0  0  0  0
  141.4240   70.8440  228.3440 C   0  0  0  0  0  0  0  0  0  0  0  0
  141.1120   71.9400  227.5470 C   0  0  0  0  0  0  0  0  0  0  0  0
  140.4740   71.7080  226.3590 C   0  0  0  0  0  0  0  0  0  0  0  0
  140.1200   70.4540  225.9010 C   0  0  0  0  0  0  0  0  0  0  0  0
  139.1890   74.2210  220.0510 C   0  0  0  0  0  0  0  0  0  0  0  0
  140.3010   75.1840  219.6570 C   0  0  0  0  0  0  0  0  0  0  0  0
  143.3792   74.2767  220.0270 H   0  0  0  0  0  0  0  0  0  0  0  0
  142.5676   74.9164  218.5578 H   0  0  0  0  0  0  0  0  0  0  0  0
  144.3437   74.6477  218.5578 H   0  0  0  0  0  0  0  0  0  0  0  0
  143.9875   76.3685  220.7289 H   0  0  0  0  0  0  0  0  0  0  0  0
  144.5015   76.8811  219.1124 H   0  0  0  0  0  0  0  0  0  0  0  0
  142.0401   79.5845  219.8394 H   0  0  0  0  0  0  0  0  0  0  0  0
  142.1143   81.6071  221.2845 H   0  0  0  0  0  0  0  0  0  0  0  0
  141.6133   81.3874  223.7154 H   0  0  0  0  0  0  0  0  0  0  0  0
  141.0500   79.1845  224.7106 H   0  0  0  0  0  0  0  0  0  0  0  0
  140.9736   77.1646  223.2560 H   0  0  0  0  0  0  0  0  0  0  0  0
  139.5744   76.5586  221.0790 H   0  0  0  0  0  0  0  0  0  0  0  0
  142.0672   75.5212  222.1999 H   0  0  0  0  0  0  0  0  0  0  0  0
  140.3640   75.3486  222.8160 H   0  0  0  0  0  0  0  0  0  0  0  0
  141.8280   73.5253  220.8492 H   0  0  0  0  0  0  0  0  0  0  0  0
  141.2363   73.1301  222.5073 H   0  0  0  0  0  0  0  0  0  0  0  0
  139.2314   70.1662  222.1029 H   0  0  0  0  0  0  0  0  0  0  0  0
  140.6564   71.2930  222.4385 H   0  0  0  0  0  0  0  0  0  0  0  0
  139.6065   72.2573  224.2590 H   0  0  0  0  0  0  0  0  0  0  0  0
  137.2780   71.3070  222.8590 H   0  0  0  0  0  0  0  0  0  0  0  0
  137.3270   72.3750  224.2300 H   0  0  0  0  0  0  0  0  0  0  0  0
  138.6551   68.7384  223.4324 H   0  0  0  0  0  0  0  0  0  0  0  0
  139.2312   66.8417  224.8688 H   0  0  0  0  0  0  0  0  0  0  0  0
  140.4080   67.2487  227.0376 H   0  0  0  0  0  0  0  0  0  0  0  0
  141.3339   68.7203  228.5487 H   0  0  0  0  0  0  0  0  0  0  0  0
  141.9366   70.9850  229.3070 H   0  0  0  0  0  0  0  0  0  0  0  0
  141.3701   72.9619  227.8619 H   0  0  0  0  0  0  0  0  0  0  0  0
  140.2274   72.5752  225.7288 H   0  0  0  0  0  0  0  0  0  0  0  0
  138.8510   73.6481  219.1749 H   0  0  0  0  0  0  0  0  0  0  0  0
  138.3136   74.7562  220.4476 H   0  0  0  0  0  0  0  0  0  0  0  0
  141.2181   74.6272  219.4144 H   0  0  0  0  0  0  0  0  0  0  0  0
  140.0246   75.7697  218.7679 H   0  0  0  0  0  0  0  0  0  0  0  0
  1  2  1  0
  2  3  1  0
  3  4  2  0
  3  5  1  0
  5  6  1  0
  6  7  2  0
  7  8  1  0
  8  9  2  0
  9 10  1  0
 10 11  2  0
  5 12  1  0
 12 13  1  0
 13 14  1  0
 14 15  1  0
 15 16  1  0
 16 17  2  0
 16 18  1  0
 18 19  1  0
 19 20  1  0
 19 21  1  0
 21 22  2  0
 22 23  1  0
 23 24  2  0
 24 25  1  0
 25 26  2  0
 26 27  1  0
 27 28  2  0
 28 29  1  0
 29 30  2  0
 15 31  1  0
 31 32  1  0
 11  6  1  0
 32 12  1  0
 30 21  1  0
 30 25  1  0
  1 33  1  0
  1 34  1  0
  1 35  1  0
  2 36  1  0
  2 37  1  0
  7 38  1  0
  8 39  1  0
  9 40  1  0
 10 41  1  0
 11 42  1  0
 12 43  1  0
 13 44  1  0
 13 45  1  0
 14 46  1  0
 14 47  1  0
 18 48  1  0
 18 49  1  0
 19 50  1  1
 20 51  1  0
 20 52  1  0
 22 53  1  0
 23 54  1  0
 24 55  1  0
 26 56  1  0
 27 57  1  0
 28 58  1  0
 29 59  1  0
 31 60  1  0
 31 61  1  0
 32 62  1  0
 32 63  1  0
M  END
>  <smiles>  (56) 
CCC(=O)N(c1ccccc1)C1CCN(C(=O)CC(N)c2cccc3ccccc23)CC1

>  <score_type>  (56) 
oracle

>  <origin>  (56) 
autodockgpu

>  <m_score__min__energy>  (56) 
-9.3599999999999994

>  <m_primary>  (56) 
energy

>  <rmsd>  (56) 
8.865033765534136

>  <m_score__min__rmsd>  (56) 
8.865033765534136

>  <meeko>  (56) 
{"free_energy": -8.85, "intermolecular_energy": -11.24, "internal_energy": -1.97, "cluster_size": 39, "cluster_id": 2, "rank_in_cluster": 3}

>  <energy>  (56) 
-8.83

>  <cluster_rmsd>  (56) 
0.67

>  <cluster>  (56) 
2

$$$$

     RDKit          3D

 63 66  0  0  0  0  0  0  0  0999 V2000
  142.9060   77.5220  218.5930 C   0  0  0  0  0  0  0  0  0  0  0  0
  142.1790   78.8490  218.7550 C   0  0  0  0  0  0  0  0  0  0  0  0
  140.7940   78.5120  219.1700 C   0  0  0  0  0  0  0  0  0  0  0  0
  139.8650   78.7230  218.3650 O   0  0  0  0  0  0  0  0  0  0  0  0
  140.5620   77.9530  220.4840 N   0  0  0  0  0  0  0  0  0  0  0  0
  140.8680   78.7330  221.6450 C   0  0  0  0  0  0  0  0  0  0  0  0
  142.2040   78.9630  221.9250 C   0  0  0  0  0  0  0  0  0  0  0  0
  142.5450   79.7070  223.0280 C   0  0  0  0  0  0  0  0  0  0  0  0
  141.5290   80.2130  223.8410 C   0  0  0  0  0  0  0  0  0  0  0  0
  140.1890   79.9800  223.5590 C   0  0  0  0  0  0  0  0  0  0  0  0
  139.8540   79.2350  222.4520 C   0  0  0  0  0  0  0  0  0  0  0  0
  140.0290   76.6130  220.6250 C   0  0  0  0  0  0  0  0  0  0  0  0
  140.4780   76.0470  221.9350 C   0  0  0  0  0  0  0  0  0  0  0  0
  141.1060   74.6470  221.7890 C   0  0  0  0  0  0  0  0  0  0  0  0
  140.2530   73.7880  221.0130 N   0  0  0  0  0  0  0  0  0  0  0  0
  139.9380   72.4350  221.3840 C   0  0  0  0  0  0  0  0  0  0  0  0
  139.1630   71.8180  220.6140 O   0  0  0  0  0  0  0  0  0  0  0  0
  140.4510   71.7600  222.5670 C   0  0  0  0  0  0  0  0  0  0  0  0
  139.5230   71.7030  223.7490 C   0  0  1  0  0  0  0  0  0  0  0  0
  138.1760   71.8930  223.2390 N   0  0  0  0  0  0  0  0  0  0  0  0
  139.6010   70.4290  224.4430 C   0  0  0  0  0  0  0  0  0  0  0  0
  139.1760   69.2410  223.8920 C   0  0  0  0  0  0  0  0  0  0  0  0
  139.2300   68.0270  224.5380 C   0  0  0  0  0  0  0  0  0  0  0  0
  139.7360   67.9710  225.8190 C   0  0  0  0  0  0  0  0  0  0  0  0
  140.1670   69.1380  226.3990 C   0  0  0  0  0  0  0  0  0  0  0  0
  140.6620   69.0680  227.6790 C   0  0  0  0  0  0  0  0  0  0  0  0
  141.1100   70.1820  228.3390 C   0  0  0  0  0  0  0  0  0  0  0  0
  141.0630   71.4160  227.6990 C   0  0  0  0  0  0  0  0  0  0  0  0
  140.5660   71.4600  226.4260 C   0  0  0  0  0  0  0  0  0  0  0  0
  140.1070   70.3560  225.7340 C   0  0  0  0  0  0  0  0  0  0  0  0
  139.6930   74.3680  219.7880 C   0  0  0  0  0  0  0  0  0  0  0  0
  140.4580   75.6630  219.5490 C   0  0  0  0  0  0  0  0  0  0  0  0
  143.1342   77.1054  219.5852 H   0  0  0  0  0  0  0  0  0  0  0  0
  142.2670   76.8191  218.0384 H   0  0  0  0  0  0  0  0  0  0  0  0
  143.8423   77.6822  218.0384 H   0  0  0  0  0  0  0  0  0  0  0  0
  142.6700   79.4616  219.5255 H   0  0  0  0  0  0  0  0  0  0  0  0
  142.1885   79.4290  217.8204 H   0  0  0  0  0  0  0  0  0  0  0  0
  142.9863   78.5531  221.2693 H   0  0  0  0  0  0  0  0  0  0  0  0
  143.6011   79.9010  223.2669 H   0  0  0  0  0  0  0  0  0  0  0  0
  141.7959   80.8101  224.7255 H   0  0  0  0  0  0  0  0  0  0  0  0
  139.4042   80.3868  224.2137 H   0  0  0  0  0  0  0  0  0  0  0  0
  138.7991   79.0395  222.2092 H   0  0  0  0  0  0  0  0  0  0  0  0
  138.9358   76.7135  220.5561 H   0  0  0  0  0  0  0  0  0  0  0  0
  141.2248   76.7245  222.3746 H   0  0  0  0  0  0  0  0  0  0  0  0
  139.5913   75.9501  222.5787 H   0  0  0  0  0  0  0  0  0  0  0  0
  142.0803   74.7385  221.2866 H   0  0  0  0  0  0  0  0  0  0  0  0
  141.2336   74.2095  222.7901 H   0  0  0  0  0  0  0  0  0  0  0  0
  140.6987   70.7264  222.2837 H   0  0  0  0  0  0  0  0  0  0  0  0
  141.3146   72.3561  222.8970 H   0  0  0  0  0  0  0  0  0  0  0  0
  139.8047   72.4812  224.4735 H   0  0  0  0  0  0  0  0  0  0  0  0
  138.0070   71.3350  222.3720 H   0  0  0  0  0  0  0  0  0  0  0  0
  137.8920   72.8710  223.1780 H   0  0  0  0  0  0  0  0  0  0  0  0
  138.7675   69.2636  222.8709 H   0  0  0  0  0  0  0  0  0  0  0  0
  138.8742   67.1137  224.0388 H   0  0  0  0  0  0  0  0  0  0  0  0
  139.7929   67.0162  226.3622 H   0  0  0  0  0  0  0  0  0  0  0  0
  140.6995   68.0929  228.1866 H   0  0  0  0  0  0  0  0  0  0  0  0
  141.5024   70.1013  229.3635 H   0  0  0  0  0  0  0  0  0  0  0  0
  141.4150   72.3289  228.2018 H   0  0  0  0  0  0  0  0  0  0  0  0
  140.5293   72.4364  225.9208 H   0  0  0  0  0  0  0  0  0  0  0  0
  139.8321   73.6800  218.9411 H   0  0  0  0  0  0  0  0  0  0  0  0
  138.6126   74.5504  219.8859 H   0  0  0  0  0  0  0  0  0  0  0  0
  141.5412   75.4819  219.6112 H   0  0  0  0  0  0  0  0  0  0  0  0
  140.2477   76.0715  218.5496 H   0  0  0  0  0  0  0  0  0  0  0  0
  1  2  1  0
  2  3  1  0
  3  4  2  0
  3  5  1  0
  5  6  1  0
  6  7  2  0
  7  8  1  0
  8  9  2  0
  9 10  1  0
 10 11  2  0
  5 12  1  0
 12 13  1  0
 13 14  1  0
 14 15  1  0
 15 16  1  0
 16 17  2  0
 16 18  1  0
 18 19  1  0
 19 20  1  0
 19 21  1  0
 21 22  2  0
 22 23  1  0
 23 24  2  0
 24 25  1  0
 25 26  2  0
 26 27  1  0
 27 28  2  0
 28 29  1  0
 29 30  2  0
 15 31  1  0
 31 32  1  0
 11  6  1  0
 32 12  1  0
 30 21  1  0
 30 25  1  0
  1 33  1  0
  1 34  1  0
  1 35  1  0
  2 36  1  0
  2 37  1  0
  7 38  1  0
  8 39  1  0
  9 40  1  0
 10 41  1  0
 11 42  1  0
 12 43  1  0
 13 44  1  0
 13 45  1  0
 14 46  1  0
 14 47  1  0
 18 48  1  0
 18 49  1  0
 19 50  1  1
 20 51  1  0
 20 52  1  0
 22 53  1  0
 23 54  1  0
 24 55  1  0
 26 56  1  0
 27 57  1  0
 28 58  1  0
 29 59  1  0
 31 60  1  0
 31 61  1  0
 32 62  1  0
 32 63  1  0
M  END
>  <smiles>  (57) 
CCC(=O)N(c1ccccc1)C1CCN(C(=O)CC(N)c2cccc3ccccc23)CC1

>  <score_type>  (57) 
oracle

>  <origin>  (57) 
autodockgpu

>  <m_score__min__energy>  (57) 
-9.3599999999999994

>  <m_primary>  (57) 
energy

>  <rmsd>  (57) 
8.618700036429388

>  <m_score__min__rmsd>  (57) 
8.618700036429388

>  <meeko>  (57) 
{"free_energy": -8.25, "intermolecular_energy": -10.64, "internal_energy": -2.03, "cluster_size": 39, "cluster_id": 2, "rank_in_cluster": 35}

>  <energy>  (57) 
-8.83

>  <cluster_rmsd>  (57) 
0.62

>  <cluster>  (57) 
2

$$$$

     RDKit          3D

 63 66  0  0  0  0  0  0  0  0999 V2000
  142.8460   78.5560  217.7550 C   0  0  0  0  0  0  0  0  0  0  0  0
  142.4450   77.1170  218.0470 C   0  0  0  0  0  0  0  0  0  0  0  0
  142.7340   76.8920  219.4850 C   0  0  0  0  0  0  0  0  0  0  0  0
  143.8600   76.4630  219.8040 O   0  0  0  0  0  0  0  0  0  0  0  0
  141.7110   77.1730  220.4690 N   0  0  0  0  0  0  0  0  0  0  0  0
  141.6950   78.4460  221.1240 C   0  0  0  0  0  0  0  0  0  0  0  0
  141.8120   78.4550  222.5040 C   0  0  0  0  0  0  0  0  0  0  0  0
  141.8020   79.6530  223.1750 C   0  0  0  0  0  0  0  0  0  0  0  0
  141.6740   80.8360  222.4430 C   0  0  0  0  0  0  0  0  0  0  0  0
  141.5570   80.8240  221.0590 C   0  0  0  0  0  0  0  0  0  0  0  0
  141.5680   79.6210  220.3920 C   0  0  0  0  0  0  0  0  0  0  0  0
  140.7130   76.1750  220.7910 C   0  0  0  0  0  0  0  0  0  0  0  0
  141.2320   75.3080  221.8950 C   0  0  0  0  0  0  0  0  0  0  0  0
  141.1100   73.8050  221.5740 C   0  0  0  0  0  0  0  0  0  0  0  0
  139.7800   73.4910  221.1250 N   0  0  0  0  0  0  0  0  0  0  0  0
  139.0290   72.3590  221.5950 C   0  0  0  0  0  0  0  0  0  0  0  0
  137.8730   72.2290  221.1230 O   0  0  0  0  0  0  0  0  0  0  0  0
  139.5170   71.3840  222.5600 C   0  0  0  0  0  0  0  0  0  0  0  0
  138.9420   71.4820  223.9460 C   0  0  1  0  0  0  0  0  0  0  0  0
  137.4970   71.5280  223.8020 N   0  0  0  0  0  0  0  0  0  0  0  0
  139.3090   70.3440  224.7700 C   0  0  0  0  0  0  0  0  0  0  0  0
  138.9750   69.0450  224.4580 C   0  0  0  0  0  0  0  0  0  0  0  0
  139.3030   67.9560  225.2320 C   0  0  0  0  0  0  0  0  0  0  0  0
  140.0080   68.1500  226.4000 C   0  0  0  0  0  0  0  0  0  0  0  0
  140.3560   69.4340  226.7420 C   0  0  0  0  0  0  0  0  0  0  0  0
  141.0520   69.6130  227.9140 C   0  0  0  0  0  0  0  0  0  0  0  0
  141.4370   70.8580  228.3380 C   0  0  0  0  0  0  0  0  0  0  0  0
  141.1140   71.9690  227.5660 C   0  0  0  0  0  0  0  0  0  0  0  0
  140.4200   71.7640  226.4050 C   0  0  0  0  0  0  0  0  0  0  0  0
  140.0190   70.5230  225.9500 C   0  0  0  0  0  0  0  0  0  0  0  0
  139.1970   74.4050  220.1370 C   0  0  0  0  0  0  0  0  0  0  0  0
  140.3450   75.2800  219.6470 C   0  0  0  0  0  0  0  0  0  0  0  0
  142.9960   79.0943  218.7025 H   0  0  0  0  0  0  0  0  0  0  0  0
  143.7811   78.5657  217.1758 H   0  0  0  0  0  0  0  0  0  0  0  0
  142.0507   79.0479  217.1758 H   0  0  0  0  0  0  0  0  0  0  0  0
  141.3735   76.9711  217.8457 H   0  0  0  0  0  0  0  0  0  0  0  0
  142.9972   76.4094  217.4110 H   0  0  0  0  0  0  0  0  0  0  0  0
  141.9121   77.5100  223.0581 H   0  0  0  0  0  0  0  0  0  0  0  0
  141.8933   79.6808  224.2709 H   0  0  0  0  0  0  0  0  0  0  0  0
  141.6657   81.7989  222.9748 H   0  0  0  0  0  0  0  0  0  0  0  0
  141.4566   81.7671  220.5019 H   0  0  0  0  0  0  0  0  0  0  0  0
  141.4777   79.5892  219.2962 H   0  0  0  0  0  0  0  0  0  0  0  0
  139.8083   76.7325  221.0751 H   0  0  0  0  0  0  0  0  0  0  0  0
  142.2924   75.5477  222.0627 H   0  0  0  0  0  0  0  0  0  0  0  0
  140.6249   75.5084  222.7902 H   0  0  0  0  0  0  0  0  0  0  0  0
  141.8296   73.5442  220.7839 H   0  0  0  0  0  0  0  0  0  0  0  0
  141.3223   73.2285  222.4864 H   0  0  0  0  0  0  0  0  0  0  0  0
  139.2871   70.3813  222.1706 H   0  0  0  0  0  0  0  0  0  0  0  0
  140.5921   71.5891  222.6703 H   0  0  0  0  0  0  0  0  0  0  0  0
  139.3369   72.3798  224.4441 H   0  0  0  0  0  0  0  0  0  0  0  0
  137.1890   71.1700  222.8700 H   0  0  0  0  0  0  0  0  0  0  0  0
  137.0840   72.4200  224.0740 H   0  0  0  0  0  0  0  0  0  0  0  0
  138.4101   68.8668  223.5311 H   0  0  0  0  0  0  0  0  0  0  0  0
  139.0062   66.9431  224.9224 H   0  0  0  0  0  0  0  0  0  0  0  0
  140.2845   67.2999  227.0409 H   0  0  0  0  0  0  0  0  0  0  0  0
  141.3061   68.7353  228.5265 H   0  0  0  0  0  0  0  0  0  0  0  0
  141.9952   70.9774  229.2783 H   0  0  0  0  0  0  0  0  0  0  0  0
  141.4076   72.9817  227.8794 H   0  0  0  0  0  0  0  0  0  0  0  0
  140.1651   72.6433  225.7951 H   0  0  0  0  0  0  0  0  0  0  0  0
  138.7643   73.8377  219.2998 H   0  0  0  0  0  0  0  0  0  0  0  0
  138.3879   75.0086  220.5740 H   0  0  0  0  0  0  0  0  0  0  0  0
  141.2041   74.6554  219.3610 H   0  0  0  0  0  0  0  0  0  0  0  0
  140.0517   75.8640  218.7622 H   0  0  0  0  0  0  0  0  0  0  0  0
  1  2  1  0
  2  3  1  0
  3  4  2  0
  3  5  1  0
  5  6  1  0
  6  7  2  0
  7  8  1  0
  8  9  2  0
  9 10  1  0
 10 11  2  0
  5 12  1  0
 12 13  1  0
 13 14  1  0
 14 15  1  0
 15 16  1  0
 16 17  2  0
 16 18  1  0
 18 19  1  0
 19 20  1  0
 19 21  1  0
 21 22  2  0
 22 23  1  0
 23 24  2  0
 24 25  1  0
 25 26  2  0
 26 27  1  0
 27 28  2  0
 28 29  1  0
 29 30  2  0
 15 31  1  0
 31 32  1  0
 11  6  1  0
 32 12  1  0
 30 21  1  0
 30 25  1  0
  1 33  1  0
  1 34  1  0
  1 35  1  0
  2 36  1  0
  2 37  1  0
  7 38  1  0
  8 39  1  0
  9 40  1  0
 10 41  1  0
 11 42  1  0
 12 43  1  0
 13 44  1  0
 13 45  1  0
 14 46  1  0
 14 47  1  0
 18 48  1  0
 18 49  1  0
 19 50  1  1
 20 51  1  0
 20 52  1  0
 22 53  1  0
 23 54  1  0
 24 55  1  0
 26 56  1  0
 27 57  1  0
 28 58  1  0
 29 59  1  0
 31 60  1  0
 31 61  1  0
 32 62  1  0
 32 63  1  0
M  END
>  <smiles>  (58) 
CCC(=O)N(c1ccccc1)C1CCN(C(=O)CC(N)c2cccc3ccccc23)CC1

>  <score_type>  (58) 
oracle

>  <origin>  (58) 
autodockgpu

>  <m_score__min__energy>  (58) 
-9.3599999999999994

>  <m_primary>  (58) 
energy

>  <rmsd>  (58) 
8.795107892680422

>  <m_score__min__rmsd>  (58) 
8.795107892680422

>  <meeko>  (58) 
{"free_energy": -8.45, "intermolecular_energy": -10.84, "internal_energy": -1.92, "cluster_size": 39, "cluster_id": 2, "rank_in_cluster": 28}

>  <energy>  (58) 
-8.76

>  <cluster_rmsd>  (58) 
0.45

>  <cluster>  (58) 
2

$$$$

     RDKit          3D

 63 66  0  0  0  0  0  0  0  0999 V2000
  146.3350   73.0200  221.6760 C   0  0  0  0  0  0  0  0  0  0  0  0
  145.6980   74.1410  220.8690 C   0  0  0  0  0  0  0  0  0  0  0  0
  145.1790   73.5130  219.6280 C   0  0  0  0  0  0  0  0  0  0  0  0
  145.9540   72.8130  218.9480 O   0  0  0  0  0  0  0  0  0  0  0  0
  143.8000   73.7300  219.2460 N   0  0  0  0  0  0  0  0  0  0  0  0
  143.3920   75.0220  218.7840 C   0  0  0  0  0  0  0  0  0  0  0  0
  143.0190   75.9520  219.7400 C   0  0  0  0  0  0  0  0  0  0  0  0
  142.6200   77.2050  219.3440 C   0  0  0  0  0  0  0  0  0  0  0  0
  142.6020   77.5080  217.9810 C   0  0  0  0  0  0  0  0  0  0  0  0
  142.9760   76.5730  217.0240 C   0  0  0  0  0  0  0  0  0  0  0  0
  143.3750   75.3200  217.4270 C   0  0  0  0  0  0  0  0  0  0  0  0
  142.8400   72.6490  219.3330 C   0  0  0  0  0  0  0  0  0  0  0  0
  141.6890   73.0900  220.1810 C   0  0  0  0  0  0  0  0  0  0  0  0
  141.3500   72.0740  221.2910 C   0  0  0  0  0  0  0  0  0  0  0  0
  141.2340   70.7490  220.7450 N   0  0  0  0  0  0  0  0  0  0  0  0
  140.1640   69.8450  221.0710 C   0  0  0  0  0  0  0  0  0  0  0  0
  140.1900   68.7290  220.4980 O   0  0  0  0  0  0  0  0  0  0  0  0
  139.0840   70.1420  222.0000 C   0  0  0  0  0  0  0  0  0  0  0  0
  139.4730   70.8780  223.2520 C   0  0  1  0  0  0  0  0  0  0  0  0
  138.4390   71.8700  223.4970 N   0  0  0  0  0  0  0  0  0  0  0  0
  139.5710   69.9910  224.3990 C   0  0  0  0  0  0  0  0  0  0  0  0
  139.1440   68.6830  224.3810 C   0  0  0  0  0  0  0  0  0  0  0  0
  139.2170   67.8310  225.4590 C   0  0  0  0  0  0  0  0  0  0  0  0
  139.7470   68.2940  226.6450 C   0  0  0  0  0  0  0  0  0  0  0  0
  140.1820   69.5950  226.6970 C   0  0  0  0  0  0  0  0  0  0  0  0
  140.7010   70.0450  227.8880 C   0  0  0  0  0  0  0  0  0  0  0  0
  141.1550   71.3300  228.0340 C   0  0  0  0  0  0  0  0  0  0  0  0
  141.0880   72.2030  226.9530 C   0  0  0  0  0  0  0  0  0  0  0  0
  140.5660   71.7310  225.7800 C   0  0  0  0  0  0  0  0  0  0  0  0
  140.1020   70.4430  225.5990 C   0  0  0  0  0  0  0  0  0  0  0  0
  142.2830   70.3420  219.8040 C   0  0  0  0  0  0  0  0  0  0  0  0
  143.3850   71.3860  219.9280 C   0  0  0  0  0  0  0  0  0  0  0  0
  146.2167   73.2282  222.7496 H   0  0  0  0  0  0  0  0  0  0  0  0
  145.8436   72.0668  221.4310 H   0  0  0  0  0  0  0  0  0  0  0  0
  147.4054   72.9543  221.4310 H   0  0  0  0  0  0  0  0  0  0  0  0
  144.8755   74.6002  221.4370 H   0  0  0  0  0  0  0  0  0  0  0  0
  146.4242   74.9357  220.6432 H   0  0  0  0  0  0  0  0  0  0  0  0
  143.0421   75.6892  220.8079 H   0  0  0  0  0  0  0  0  0  0  0  0
  142.3196   77.9574  220.0881 H   0  0  0  0  0  0  0  0  0  0  0  0
  142.2843   78.5102  217.6576 H   0  0  0  0  0  0  0  0  0  0  0  0
  142.9532   76.8321  215.9552 H   0  0  0  0  0  0  0  0  0  0  0  0
  143.6762   74.5649  216.6859 H   0  0  0  0  0  0  0  0  0  0  0  0
  142.5455   72.4217  218.2978 H   0  0  0  0  0  0  0  0  0  0  0  0
  141.9440   74.0521  220.6493 H   0  0  0  0  0  0  0  0  0  0  0  0
  140.8078   73.1788  219.5286 H   0  0  0  0  0  0  0  0  0  0  0  0
  142.1486   72.0848  222.0474 H   0  0  0  0  0  0  0  0  0  0  0  0
  140.3897   72.3549  221.7481 H   0  0  0  0  0  0  0  0  0  0  0  0
  138.3411   70.7539  221.4674 H   0  0  0  0  0  0  0  0  0  0  0  0
  138.7062   69.1652  222.3364 H   0  0  0  0  0  0  0  0  0  0  0  0
  140.4636   71.3362  223.1147 H   0  0  0  0  0  0  0  0  0  0  0  0
  138.7020   72.8060  223.1130 H   0  0  0  0  0  0  0  0  0  0  0  0
  138.1010   71.8840  224.4590 H   0  0  0  0  0  0  0  0  0  0  0  0
  138.7170   68.2936  223.4450 H   0  0  0  0  0  0  0  0  0  0  0  0
  138.8575   66.7947  225.3759 H   0  0  0  0  0  0  0  0  0  0  0  0
  139.8192   67.6386  227.5255 H   0  0  0  0  0  0  0  0  0  0  0  0
  140.7532   69.3569  228.7446 H   0  0  0  0  0  0  0  0  0  0  0  0
  141.5681   71.6675  228.9960 H   0  0  0  0  0  0  0  0  0  0  0  0
  141.4436   73.2404  227.0388 H   0  0  0  0  0  0  0  0  0  0  0  0
  140.5124   72.4220  224.9258 H   0  0  0  0  0  0  0  0  0  0  0  0
  142.6683   69.3461  220.0682 H   0  0  0  0  0  0  0  0  0  0  0  0
  141.8998   70.2805  218.7748 H   0  0  0  0  0  0  0  0  0  0  0  0
  143.6423   71.5439  220.9858 H   0  0  0  0  0  0  0  0  0  0  0  0
  144.3001   71.0635  219.4098 H   0  0  0  0  0  0  0  0  0  0  0  0
  1  2  1  0
  2  3  1  0
  3  4  2  0
  3  5  1  0
  5  6  1  0
  6  7  2  0
  7  8  1  0
  8  9  2  0
  9 10  1  0
 10 11  2  0
  5 12  1  0
 12 13  1  0
 13 14  1  0
 14 15  1  0
 15 16  1  0
 16 17  2  0
 16 18  1  0
 18 19  1  0
 19 20  1  0
 19 21  1  0
 21 22  2  0
 22 23  1  0
 23 24  2  0
 24 25  1  0
 25 26  2  0
 26 27  1  0
 27 28  2  0
 28 29  1  0
 29 30  2  0
 15 31  1  0
 31 32  1  0
 11  6  1  0
 32 12  1  0
 30 21  1  0
 30 25  1  0
  1 33  1  0
  1 34  1  0
  1 35  1  0
  2 36  1  0
  2 37  1  0
  7 38  1  0
  8 39  1  0
  9 40  1  0
 10 41  1  0
 11 42  1  0
 12 43  1  0
 13 44  1  0
 13 45  1  0
 14 46  1  0
 14 47  1  0
 18 48  1  0
 18 49  1  0
 19 50  1  6
 20 51  1  0
 20 52  1  0
 22 53  1  0
 23 54  1  0
 24 55  1  0
 26 56  1  0
 27 57  1  0
 28 58  1  0
 29 59  1  0
 31 60  1  0
 31 61  1  0
 32 62  1  0
 32 63  1  0
M  END
>  <smiles>  (59) 
CCC(=O)N(c1ccccc1)C1CCN(C(=O)CC(N)c2cccc3ccccc23)CC1

>  <score_type>  (59) 
oracle

>  <origin>  (59) 
autodockgpu

>  <m_score__min__energy>  (59) 
-9.3599999999999994

>  <m_primary>  (59) 
energy

>  <rmsd>  (59) 
9.541343233439187

>  <m_score__min__rmsd>  (59) 
9.541343233439187

>  <meeko>  (59) 
{"free_energy": -9.36, "intermolecular_energy": -11.74, "internal_energy": -1.45, "cluster_size": 1, "cluster_id": 1, "rank_in_cluster": 1}

>  <energy>  (59) 
-8.76

>  <cluster_rmsd>  (59) 
0.67

>  <cluster>  (59) 
2

$$$$

     RDKit          3D

 63 66  0  0  0  0  0  0  0  0999 V2000
  142.6380   80.1470  222.9000 C   0  0  0  0  0  0  0  0  0  0  0  0
  141.8090   78.9000  223.1670 C   0  0  0  0  0  0  0  0  0  0  0  0
  140.7160   78.9090  222.1630 C   0  0  0  0  0  0  0  0  0  0  0  0
  139.8650   79.8180  222.2210 O   0  0  0  0  0  0  0  0  0  0  0  0
  140.6680   77.8720  221.1550 N   0  0  0  0  0  0  0  0  0  0  0  0
  141.4670   78.0010  219.9740 C   0  0  0  0  0  0  0  0  0  0  0  0
  141.2420   79.1060  219.1690 C   0  0  0  0  0  0  0  0  0  0  0  0
  141.9860   79.2710  218.0260 C   0  0  0  0  0  0  0  0  0  0  0  0
  142.9520   78.3160  217.7050 C   0  0  0  0  0  0  0  0  0  0  0  0
  143.1750   77.2090  218.5140 C   0  0  0  0  0  0  0  0  0  0  0  0
  142.4290   77.0480  219.6580 C   0  0  0  0  0  0  0  0  0  0  0  0
  139.8160   76.7150  221.3360 C   0  0  0  0  0  0  0  0  0  0  0  0
  140.4900   75.7560  222.2650 C   0  0  0  0  0  0  0  0  0  0  0  0
  140.5360   74.3210  221.7030 C   0  0  0  0  0  0  0  0  0  0  0  0
  139.2340   73.9150  221.2460 N   0  0  0  0  0  0  0  0  0  0  0  0
  138.6500   72.6360  221.5440 C   0  0  0  0  0  0  0  0  0  0  0  0
  137.4970   72.4360  221.0900 O   0  0  0  0  0  0  0  0  0  0  0  0
  139.3000   71.5890  222.3190 C   0  0  0  0  0  0  0  0  0  0  0  0
  138.9080   71.5000  223.7680 C   0  0  1  0  0  0  0  0  0  0  0  0
  137.4720   71.7200  223.8320 N   0  0  0  0  0  0  0  0  0  0  0  0
  139.2220   70.2030  224.3400 C   0  0  0  0  0  0  0  0  0  0  0  0
  138.9190   69.0100  223.7220 C   0  0  0  0  0  0  0  0  0  0  0  0
  139.1980   67.7720  224.2530 C   0  0  0  0  0  0  0  0  0  0  0  0
  139.8180   67.6930  225.4820 C   0  0  0  0  0  0  0  0  0  0  0  0
  140.1330   68.8640  226.1260 C   0  0  0  0  0  0  0  0  0  0  0  0
  140.7450   68.7700  227.3540 C   0  0  0  0  0  0  0  0  0  0  0  0
  141.0910   69.8850  228.0720 C   0  0  0  0  0  0  0  0  0  0  0  0
  140.8170   71.1430  227.5480 C   0  0  0  0  0  0  0  0  0  0  0  0
  140.2070   71.2100  226.3250 C   0  0  0  0  0  0  0  0  0  0  0  0
  139.8460   70.1070  225.5760 C   0  0  0  0  0  0  0  0  0  0  0  0
  138.4960   74.8940  220.4410 C   0  0  0  0  0  0  0  0  0  0  0  0
  139.5030   75.9760  220.0700 C   0  0  0  0  0  0  0  0  0  0  0  0
  142.9386   80.5992  223.8566 H   0  0  0  0  0  0  0  0  0  0  0  0
  143.5354   79.8746  222.3251 H   0  0  0  0  0  0  0  0  0  0  0  0
  142.0395   80.8690  222.3251 H   0  0  0  0  0  0  0  0  0  0  0  0
  142.4277   77.9981  223.0497 H   0  0  0  0  0  0  0  0  0  0  0  0
  141.4120   78.8936  224.1929 H   0  0  0  0  0  0  0  0  0  0  0  0
  140.4743   79.8447  219.4428 H   0  0  0  0  0  0  0  0  0  0  0  0
  141.8230   80.1419  217.3741 H   0  0  0  0  0  0  0  0  0  0  0  0
  143.5503   78.4429  216.7907 H   0  0  0  0  0  0  0  0  0  0  0  0
  143.9412   76.4681  218.2421 H   0  0  0  0  0  0  0  0  0  0  0  0
  142.5908   76.1790  220.3128 H   0  0  0  0  0  0  0  0  0  0  0  0
  138.8655   77.0989  221.7350 H   0  0  0  0  0  0  0  0  0  0  0  0
  141.5203   76.0994  222.4395 H   0  0  0  0  0  0  0  0  0  0  0  0
  139.9080   75.7304  223.1981 H   0  0  0  0  0  0  0  0  0  0  0  0
  141.2424   74.2850  220.8606 H   0  0  0  0  0  0  0  0  0  0  0  0
  140.8611   73.6375  222.5012 H   0  0  0  0  0  0  0  0  0  0  0  0
  139.0627   70.6244  221.8466 H   0  0  0  0  0  0  0  0  0  0  0  0
  140.3708   71.8407  222.3170 H   0  0  0  0  0  0  0  0  0  0  0  0
  139.4687   72.2499  224.3453 H   0  0  0  0  0  0  0  0  0  0  0  0
  136.9980   71.4440  222.9430 H   0  0  0  0  0  0  0  0  0  0  0  0
  137.2120   72.6410  224.1860 H   0  0  0  0  0  0  0  0  0  0  0  0
  138.4223   69.0496  222.7413 H   0  0  0  0  0  0  0  0  0  0  0  0
  138.9300   66.8571  223.7043 H   0  0  0  0  0  0  0  0  0  0  0  0
  140.0538   66.7184  225.9342 H   0  0  0  0  0  0  0  0  0  0  0  0
  140.9622   67.7752  227.7703 H   0  0  0  0  0  0  0  0  0  0  0  0
  141.5802   69.7855  229.0522 H   0  0  0  0  0  0  0  0  0  0  0  0
  141.0825   72.0568  228.0997 H   0  0  0  0  0  0  0  0  0  0  0  0
  139.9902   72.2061  225.9118 H   0  0  0  0  0  0  0  0  0  0  0  0
  138.0943   74.4183  219.5341 H   0  0  0  0  0  0  0  0  0  0  0  0
  137.6423   75.3107  220.9956 H   0  0  0  0  0  0  0  0  0  0  0  0
  140.4164   75.5209  219.6594 H   0  0  0  0  0  0  0  0  0  0  0  0
  139.0972   76.6524  219.3034 H   0  0  0  0  0  0  0  0  0  0  0  0
  1  2  1  0
  2  3  1  0
  3  4  2  0
  3  5  1  0
  5  6  1  0
  6  7  2  0
  7  8  1  0
  8  9  2  0
  9 10  1  0
 10 11  2  0
  5 12  1  0
 12 13  1  0
 13 14  1  0
 14 15  1  0
 15 16  1  0
 16 17  2  0
 16 18  1  0
 18 19  1  0
 19 20  1  0
 19 21  1  0
 21 22  2  0
 22 23  1  0
 23 24  2  0
 24 25  1  0
 25 26  2  0
 26 27  1  0
 27 28  2  0
 28 29  1  0
 29 30  2  0
 15 31  1  0
 31 32  1  0
 11  6  1  0
 32 12  1  0
 30 21  1  0
 30 25  1  0
  1 33  1  0
  1 34  1  0
  1 35  1  0
  2 36  1  0
  2 37  1  0
  7 38  1  0
  8 39  1  0
  9 40  1  0
 10 41  1  0
 11 42  1  0
 12 43  1  0
 13 44  1  0
 13 45  1  0
 14 46  1  0
 14 47  1  0
 18 48  1  0
 18 49  1  0
 19 50  1  1
 20 51  1  0
 20 52  1  0
 22 53  1  0
 23 54  1  0
 24 55  1  0
 26 56  1  0
 27 57  1  0
 28 58  1  0
 29 59  1  0
 31 60  1  0
 31 61  1  0
 32 62  1  0
 32 63  1  0
M  END
>  <smiles>  (60) 
CCC(=O)N(c1ccccc1)C1CCN(C(=O)CC(N)c2cccc3ccccc23)CC1

>  <score_type>  (60) 
oracle

>  <origin>  (60) 
autodockgpu

>  <m_score__min__energy>  (60) 
-9.3599999999999994

>  <m_primary>  (60) 
energy

>  <rmsd>  (60) 
8.767313496567395

>  <m_score__min__rmsd>  (60) 
8.767313496567395

>  <meeko>  (60) 
{"free_energy": -7.72, "intermolecular_energy": -10.11, "internal_energy": -2.03, "cluster_size": 2, "cluster_id": 7, "rank_in_cluster": 1}

>  <energy>  (60) 
-8.76

>  <cluster_rmsd>  (60) 
0.64

>  <cluster>  (60) 
2

$$$$

     RDKit          3D

 63 66  0  0  0  0  0  0  0  0999 V2000
  142.1570   80.1050  218.6500 C   0  0  0  0  0  0  0  0  0  0  0  0
  141.3600   78.8300  218.4210 C   0  0  0  0  0  0  0  0  0  0  0  0
  141.8650   77.8450  219.4100 C   0  0  0  0  0  0  0  0  0  0  0  0
  142.9110   77.2220  219.1470 O   0  0  0  0  0  0  0  0  0  0  0  0
  141.1340   77.6360  220.6420 N   0  0  0  0  0  0  0  0  0  0  0  0
  141.2380   78.6020  221.6940 C   0  0  0  0  0  0  0  0  0  0  0  0
  140.0800   78.9270  222.3800 C   0  0  0  0  0  0  0  0  0  0  0  0
  140.1320   79.8480  223.3970 C   0  0  0  0  0  0  0  0  0  0  0  0
  141.3580   80.4350  223.7140 C   0  0  0  0  0  0  0  0  0  0  0  0
  142.5190   80.1080  223.0250 C   0  0  0  0  0  0  0  0  0  0  0  0
  142.4610   79.1840  222.0070 C   0  0  0  0  0  0  0  0  0  0  0  0
  140.3080   76.4590  220.8120 C   0  0  0  0  0  0  0  0  0  0  0  0
  140.8340   75.6580  221.9610 C   0  0  0  0  0  0  0  0  0  0  0  0
  141.0390   74.1730  221.6020 C   0  0  0  0  0  0  0  0  0  0  0  0
  139.8600   73.6380  220.9740 N   0  0  0  0  0  0  0  0  0  0  0  0
  139.2810   72.3690  221.3210 C   0  0  0  0  0  0  0  0  0  0  0  0
  138.2400   72.0490  220.6960 O   0  0  0  0  0  0  0  0  0  0  0  0
  139.8150   71.4620  222.3250 C   0  0  0  0  0  0  0  0  0  0  0  0
  139.1790   71.5340  223.6860 C   0  0  1  0  0  0  0  0  0  0  0  0
  137.7530   71.7200  223.4770 N   0  0  0  0  0  0  0  0  0  0  0  0
  139.3990   70.3240  224.4570 C   0  0  0  0  0  0  0  0  0  0  0  0
  139.0480   69.0690  224.0120 C   0  0  0  0  0  0  0  0  0  0  0  0
  139.2370   67.9130  224.7330 C   0  0  0  0  0  0  0  0  0  0  0  0
  139.8120   67.9880  225.9840 C   0  0  0  0  0  0  0  0  0  0  0  0
  140.1730   69.2240  226.4580 C   0  0  0  0  0  0  0  0  0  0  0  0
  140.7380   69.2850  227.7100 C   0  0  0  0  0  0  0  0  0  0  0  0
  141.1250   70.4760  228.2680 C   0  0  0  0  0  0  0  0  0  0  0  0
  140.9410   71.6530  227.5520 C   0  0  0  0  0  0  0  0  0  0  0  0
  140.3760   71.5660  226.3080 C   0  0  0  0  0  0  0  0  0  0  0  0
  139.9760   70.3830  225.7190 C   0  0  0  0  0  0  0  0  0  0  0  0
  139.2480   74.4700  219.9320 C   0  0  0  0  0  0  0  0  0  0  0  0
  140.2640   75.5590  219.6140 C   0  0  0  0  0  0  0  0  0  0  0  0
  142.2664   80.2800  219.7305 H   0  0  0  0  0  0  0  0  0  0  0  0
  143.1521   80.0025  218.1926 H   0  0  0  0  0  0  0  0  0  0  0  0
  141.6289   80.9546  218.1926 H   0  0  0  0  0  0  0  0  0  0  0  0
  140.2878   79.0162  218.5811 H   0  0  0  0  0  0  0  0  0  0  0  0
  141.4783   78.4619  217.3912 H   0  0  0  0  0  0  0  0  0  0  0  0
  139.1253   78.4508  222.1122 H   0  0  0  0  0  0  0  0  0  0  0  0
  139.2223   80.1188  223.9529 H   0  0  0  0  0  0  0  0  0  0  0  0
  141.4059   81.1734  224.5280 H   0  0  0  0  0  0  0  0  0  0  0  0
  143.4750   80.5829  223.2905 H   0  0  0  0  0  0  0  0  0  0  0  0
  143.3687   78.9100  221.4493 H   0  0  0  0  0  0  0  0  0  0  0  0
  139.2860   76.8286  220.9821 H   0  0  0  0  0  0  0  0  0  0  0  0
  141.7998   76.0818  222.2734 H   0  0  0  0  0  0  0  0  0  0  0  0
  140.0900   75.7062  222.7698 H   0  0  0  0  0  0  0  0  0  0  0  0
  141.8900   74.0819  220.9110 H   0  0  0  0  0  0  0  0  0  0  0  0
  141.2373   73.6084  222.5250 H   0  0  0  0  0  0  0  0  0  0  0  0
  139.6916   70.4352  221.9501 H   0  0  0  0  0  0  0  0  0  0  0  0
  140.8620   71.7661  222.4713 H   0  0  0  0  0  0  0  0  0  0  0  0
  139.6263   72.3623  224.2550 H   0  0  0  0  0  0  0  0  0  0  0  0
  137.4400   71.3240  222.5620 H   0  0  0  0  0  0  0  0  0  0  0  0
  137.4290   72.6690  223.6630 H   0  0  0  0  0  0  0  0  0  0  0  0
  138.5872   68.9857  223.0166 H   0  0  0  0  0  0  0  0  0  0  0  0
  138.9333   66.9411  224.3169 H   0  0  0  0  0  0  0  0  0  0  0  0
  139.9768   67.0819  226.5855 H   0  0  0  0  0  0  0  0  0  0  0  0
  140.8832   68.3545  228.2784 H   0  0  0  0  0  0  0  0  0  0  0  0
  141.5760   70.4998  229.2710 H   0  0  0  0  0  0  0  0  0  0  0  0
  141.2402   72.6246  227.9720 H   0  0  0  0  0  0  0  0  0  0  0  0
  140.2315   72.4979  225.7417 H   0  0  0  0  0  0  0  0  0  0  0  0
  139.0398   73.8679  219.0353 H   0  0  0  0  0  0  0  0  0  0  0  0
  138.2913   74.8970  220.2674 H   0  0  0  0  0  0  0  0  0  0  0  0
  141.2544   75.1149  219.4351 H   0  0  0  0  0  0  0  0  0  0  0  0
  139.9825   76.1149  218.7075 H   0  0  0  0  0  0  0  0  0  0  0  0
  1  2  1  0
  2  3  1  0
  3  4  2  0
  3  5  1  0
  5  6  1  0
  6  7  2  0
  7  8  1  0
  8  9  2  0
  9 10  1  0
 10 11  2  0
  5 12  1  0
 12 13  1  0
 13 14  1  0
 14 15  1  0
 15 16  1  0
 16 17  2  0
 16 18  1  0
 18 19  1  0
 19 20  1  0
 19 21  1  0
 21 22  2  0
 22 23  1  0
 23 24  2  0
 24 25  1  0
 25 26  2  0
 26 27  1  0
 27 28  2  0
 28 29  1  0
 29 30  2  0
 15 31  1  0
 31 32  1  0
 11  6  1  0
 32 12  1  0
 30 21  1  0
 30 25  1  0
  1 33  1  0
  1 34  1  0
  1 35  1  0
  2 36  1  0
  2 37  1  0
  7 38  1  0
  8 39  1  0
  9 40  1  0
 10 41  1  0
 11 42  1  0
 12 43  1  0
 13 44  1  0
 13 45  1  0
 14 46  1  0
 14 47  1  0
 18 48  1  0
 18 49  1  0
 19 50  1  1
 20 51  1  0
 20 52  1  0
 22 53  1  0
 23 54  1  0
 24 55  1  0
 26 56  1  0
 27 57  1  0
 28 58  1  0
 29 59  1  0
 31 60  1  0
 31 61  1  0
 32 62  1  0
 32 63  1  0
M  END
>  <smiles>  (61) 
CCC(=O)N(c1ccccc1)C1CCN(C(=O)CC(N)c2cccc3ccccc23)CC1

>  <score_type>  (61) 
oracle

>  <origin>  (61) 
autodockgpu

>  <m_score__min__energy>  (61) 
-9.3599999999999994

>  <m_primary>  (61) 
energy

>  <rmsd>  (61) 
8.720220507205187

>  <m_score__min__rmsd>  (61) 
8.720220507205187

>  <meeko>  (61) 
{"free_energy": -8.59, "intermolecular_energy": -10.98, "internal_energy": -2.06, "cluster_size": 39, "cluster_id": 2, "rank_in_cluster": 21}

>  <energy>  (61) 
-8.74

>  <cluster_rmsd>  (61) 
0.68

>  <cluster>  (61) 
2

$$$$

     RDKit          3D

 63 66  0  0  0  0  0  0  0  0999 V2000
  142.2100   79.9560  218.6450 C   0  0  0  0  0  0  0  0  0  0  0  0
  141.3420   78.7180  218.4750 C   0  0  0  0  0  0  0  0  0  0  0  0
  141.8450   77.7240  219.4560 C   0  0  0  0  0  0  0  0  0  0  0  0
  142.9400   77.1710  219.2340 O   0  0  0  0  0  0  0  0  0  0  0  0
  141.0580   77.4280  220.6340 N   0  0  0  0  0  0  0  0  0  0  0  0
  141.0280   78.3650  221.7150 C   0  0  0  0  0  0  0  0  0  0  0  0
  142.1950   79.0570  221.9930 C   0  0  0  0  0  0  0  0  0  0  0  0
  142.2130   79.9670  223.0210 C   0  0  0  0  0  0  0  0  0  0  0  0
  141.0480   80.1710  223.7620 C   0  0  0  0  0  0  0  0  0  0  0  0
  139.8780   79.4760  223.4830 C   0  0  0  0  0  0  0  0  0  0  0  0
  139.8660   78.5660  222.4510 C   0  0  0  0  0  0  0  0  0  0  0  0
  140.3090   76.1910  220.7200 C   0  0  0  0  0  0  0  0  0  0  0  0
  140.7140   75.4640  221.9640 C   0  0  0  0  0  0  0  0  0  0  0  0
  141.0860   73.9920  221.6950 C   0  0  0  0  0  0  0  0  0  0  0  0
  140.0630   73.3470  220.9160 N   0  0  0  0  0  0  0  0  0  0  0  0
  139.5370   72.0430  221.2180 C   0  0  0  0  0  0  0  0  0  0  0  0
  138.6330   71.6230  220.4560 O   0  0  0  0  0  0  0  0  0  0  0  0
  139.9790   71.2080  222.3240 C   0  0  0  0  0  0  0  0  0  0  0  0
  139.3520   71.4940  223.6600 C   0  0  1  0  0  0  0  0  0  0  0  0
  137.9290   71.6800  223.4280 N   0  0  0  0  0  0  0  0  0  0  0  0
  139.5480   70.4050  224.6010 C   0  0  0  0  0  0  0  0  0  0  0  0
  139.1490   69.1100  224.3520 C   0  0  0  0  0  0  0  0  0  0  0  0
  139.3150   68.0680  225.2340 C   0  0  0  0  0  0  0  0  0  0  0  0
  139.9150   68.3090  226.4520 C   0  0  0  0  0  0  0  0  0  0  0  0
  140.3230   69.5890  226.7320 C   0  0  0  0  0  0  0  0  0  0  0  0
  140.9130   69.8150  227.9530 C   0  0  0  0  0  0  0  0  0  0  0  0
  141.3470   71.0620  228.3220 C   0  0  0  0  0  0  0  0  0  0  0  0
  141.1870   72.1260  227.4410 C   0  0  0  0  0  0  0  0  0  0  0  0
  140.5970   71.8740  226.2320 C   0  0  0  0  0  0  0  0  0  0  0  0
  140.1500   70.6310  225.8310 C   0  0  0  0  0  0  0  0  0  0  0  0
  139.5550   74.1000  219.7640 C   0  0  0  0  0  0  0  0  0  0  0  0
  140.5200   75.2610  219.5630 C   0  0  0  0  0  0  0  0  0  0  0  0
  142.3527   80.1595  219.7166 H   0  0  0  0  0  0  0  0  0  0  0  0
  143.1878   79.7862  218.1707 H   0  0  0  0  0  0  0  0  0  0  0  0
  141.7171   80.8174  218.1707 H   0  0  0  0  0  0  0  0  0  0  0  0
  140.2888   78.9590  218.6817 H   0  0  0  0  0  0  0  0  0  0  0  0
  141.3934   78.3295  217.4472 H   0  0  0  0  0  0  0  0  0  0  0  0
  143.1007   78.8789  221.3947 H   0  0  0  0  0  0  0  0  0  0  0  0
  143.1305   80.5261  223.2567 H   0  0  0  0  0  0  0  0  0  0  0  0
  141.0565   80.8993  224.5863 H   0  0  0  0  0  0  0  0  0  0  0  0
  138.9712   79.6512  224.0805 H   0  0  0  0  0  0  0  0  0  0  0  0
  138.9501   78.0057  222.2118 H   0  0  0  0  0  0  0  0  0  0  0  0
  139.2475   76.4793  220.7198 H   0  0  0  0  0  0  0  0  0  0  0  0
  141.5850   75.9733  222.4021 H   0  0  0  0  0  0  0  0  0  0  0  0
  139.8536   75.4707  222.6493 H   0  0  0  0  0  0  0  0  0  0  0  0
  142.0377   73.9541  221.1447 H   0  0  0  0  0  0  0  0  0  0  0  0
  141.1828   73.4684  222.6575 H   0  0  0  0  0  0  0  0  0  0  0  0
  139.7567   70.1622  222.0654 H   0  0  0  0  0  0  0  0  0  0  0  0
  141.0504   71.4244  222.4479 H   0  0  0  0  0  0  0  0  0  0  0  0
  139.8211   72.3864  224.1001 H   0  0  0  0  0  0  0  0  0  0  0  0
  137.6850   71.5780  222.4170 H   0  0  0  0  0  0  0  0  0  0  0  0
  137.5430   72.5100  223.8780 H   0  0  0  0  0  0  0  0  0  0  0  0
  138.6671   68.8960  223.3866 H   0  0  0  0  0  0  0  0  0  0  0  0
  138.9737   67.0558  224.9714 H   0  0  0  0  0  0  0  0  0  0  0  0
  140.0626   67.4972  227.1795 H   0  0  0  0  0  0  0  0  0  0  0  0
  141.0400   68.9745  228.6512 H   0  0  0  0  0  0  0  0  0  0  0  0
  141.8167   71.2192  229.3042 H   0  0  0  0  0  0  0  0  0  0  0  0
  141.5241   73.1386  227.7075 H   0  0  0  0  0  0  0  0  0  0  0  0
  140.4709   72.7158  225.5353 H   0  0  0  0  0  0  0  0  0  0  0  0
  139.5340   73.4611  218.8689 H   0  0  0  0  0  0  0  0  0  0  0  0
  138.5280   74.4547  219.9356 H   0  0  0  0  0  0  0  0  0  0  0  0
  141.5576   74.8960  219.5525 H   0  0  0  0  0  0  0  0  0  0  0  0
  140.3389   75.7691  218.6044 H   0  0  0  0  0  0  0  0  0  0  0  0
  1  2  1  0
  2  3  1  0
  3  4  2  0
  3  5  1  0
  5  6  1  0
  6  7  2  0
  7  8  1  0
  8  9  2  0
  9 10  1  0
 10 11  2  0
  5 12  1  0
 12 13  1  0
 13 14  1  0
 14 15  1  0
 15 16  1  0
 16 17  2  0
 16 18  1  0
 18 19  1  0
 19 20  1  0
 19 21  1  0
 21 22  2  0
 22 23  1  0
 23 24  2  0
 24 25  1  0
 25 26  2  0
 26 27  1  0
 27 28  2  0
 28 29  1  0
 29 30  2  0
 15 31  1  0
 31 32  1  0
 11  6  1  0
 32 12  1  0
 30 21  1  0
 30 25  1  0
  1 33  1  0
  1 34  1  0
  1 35  1  0
  2 36  1  0
  2 37  1  0
  7 38  1  0
  8 39  1  0
  9 40  1  0
 10 41  1  0
 11 42  1  0
 12 43  1  0
 13 44  1  0
 13 45  1  0
 14 46  1  0
 14 47  1  0
 18 48  1  0
 18 49  1  0
 19 50  1  1
 20 51  1  0
 20 52  1  0
 22 53  1  0
 23 54  1  0
 24 55  1  0
 26 56  1  0
 27 57  1  0
 28 58  1  0
 29 59  1  0
 31 60  1  0
 31 61  1  0
 32 62  1  0
 32 63  1  0
M  END
>  <smiles>  (62) 
CCC(=O)N(c1ccccc1)C1CCN(C(=O)CC(N)c2cccc3ccccc23)CC1

>  <score_type>  (62) 
oracle

>  <origin>  (62) 
autodockgpu

>  <m_score__min__energy>  (62) 
-9.3599999999999994

>  <m_primary>  (62) 
energy

>  <rmsd>  (62) 
8.749714948595873

>  <m_score__min__rmsd>  (62) 
8.749714948595873

>  <meeko>  (62) 
{"free_energy": -8.74, "intermolecular_energy": -11.13, "internal_energy": -2.03, "cluster_size": 39, "cluster_id": 2, "rank_in_cluster": 10}

>  <energy>  (62) 
-8.73

>  <cluster_rmsd>  (62) 
0.7

>  <cluster>  (62) 
2

$$$$

     RDKit          3D

 63 66  0  0  0  0  0  0  0  0999 V2000
  142.5210   79.7230  218.2300 C   0  0  0  0  0  0  0  0  0  0  0  0
  142.2900   78.2650  218.5950 C   0  0  0  0  0  0  0  0  0  0  0  0
  140.8820   78.1720  219.0520 C   0  0  0  0  0  0  0  0  0  0  0  0
  139.9820   78.5790  218.2910 O   0  0  0  0  0  0  0  0  0  0  0  0
  140.5930   77.6170  220.3580 N   0  0  0  0  0  0  0  0  0  0  0  0
  140.8680   78.3930  221.5290 C   0  0  0  0  0  0  0  0  0  0  0  0
  139.7890   78.7710  222.3110 C   0  0  0  0  0  0  0  0  0  0  0  0
  140.0050   79.5170  223.4440 C   0  0  0  0  0  0  0  0  0  0  0  0
  141.3120   79.8750  223.7780 C   0  0  0  0  0  0  0  0  0  0  0  0
  142.3930   79.4950  222.9910 C   0  0  0  0  0  0  0  0  0  0  0  0
  142.1710   78.7480  221.8580 C   0  0  0  0  0  0  0  0  0  0  0  0
  140.0360   76.2860  220.4790 C   0  0  0  0  0  0  0  0  0  0  0  0
  140.4550   75.7020  221.7910 C   0  0  0  0  0  0  0  0  0  0  0  0
  141.0630   74.2930  221.6440 C   0  0  0  0  0  0  0  0  0  0  0  0
  140.2080   73.4540  220.8480 N   0  0  0  0  0  0  0  0  0  0  0  0
  139.8650   72.1040  221.2020 C   0  0  0  0  0  0  0  0  0  0  0  0
  139.0920   71.5060  220.4150 O   0  0  0  0  0  0  0  0  0  0  0  0
  140.3470   71.4110  222.3880 C   0  0  0  0  0  0  0  0  0  0  0  0
  139.5150   71.5700  223.6300 C   0  0  1  0  0  0  0  0  0  0  0  0
  138.1270   71.6320  223.2050 N   0  0  0  0  0  0  0  0  0  0  0  0
  139.6890   70.4590  224.5490 C   0  0  0  0  0  0  0  0  0  0  0  0
  139.3030   69.1700  224.2580 C   0  0  0  0  0  0  0  0  0  0  0  0
  139.4470   68.1070  225.1200 C   0  0  0  0  0  0  0  0  0  0  0  0
  140.0100   68.3200  226.3600 C   0  0  0  0  0  0  0  0  0  0  0  0
  140.4040   69.5950  226.6830 C   0  0  0  0  0  0  0  0  0  0  0  0
  140.9570   69.7940  227.9260 C   0  0  0  0  0  0  0  0  0  0  0  0
  141.3740   71.0330  228.3370 C   0  0  0  0  0  0  0  0  0  0  0  0
  141.2360   72.1170  227.4780 C   0  0  0  0  0  0  0  0  0  0  0  0
  140.6830   71.8920  226.2460 C   0  0  0  0  0  0  0  0  0  0  0  0
  140.2530   70.6580  225.8020 C   0  0  0  0  0  0  0  0  0  0  0  0
  139.6770   74.0530  219.6180 C   0  0  0  0  0  0  0  0  0  0  0  0
  140.4680   75.3370  219.4020 C   0  0  0  0  0  0  0  0  0  0  0  0
  142.6157   80.3204  219.1488 H   0  0  0  0  0  0  0  0  0  0  0  0
  143.4443   79.8111  217.6386 H   0  0  0  0  0  0  0  0  0  0  0  0
  141.6701   80.0922  217.6386 H   0  0  0  0  0  0  0  0  0  0  0  0
  142.4493   77.6220  217.7168 H   0  0  0  0  0  0  0  0  0  0  0  0
  142.9884   77.9315  219.3766 H   0  0  0  0  0  0  0  0  0  0  0  0
  138.7679   78.4763  222.0272 H   0  0  0  0  0  0  0  0  0  0  0  0
  139.1613   79.8273  224.0780 H   0  0  0  0  0  0  0  0  0  0  0  0
  141.4908   80.4715  224.6848 H   0  0  0  0  0  0  0  0  0  0  0  0
  143.4152   79.7888  223.2716 H   0  0  0  0  0  0  0  0  0  0  0  0
  143.0121   78.4360  221.2215 H   0  0  0  0  0  0  0  0  0  0  0  0
  138.9458   76.4052  220.3932 H   0  0  0  0  0  0  0  0  0  0  0  0
  141.2054   76.3639  222.2480 H   0  0  0  0  0  0  0  0  0  0  0  0
  139.5564   75.6139  222.4193 H   0  0  0  0  0  0  0  0  0  0  0  0
  142.0464   74.3724  221.1575 H   0  0  0  0  0  0  0  0  0  0  0  0
  141.1684   73.8458  222.6435 H   0  0  0  0  0  0  0  0  0  0  0  0
  140.3982   70.3377  222.1527 H   0  0  0  0  0  0  0  0  0  0  0  0
  141.3195   71.8682  222.6229 H   0  0  0  0  0  0  0  0  0  0  0  0
  139.8251   72.4803  224.1641 H   0  0  0  0  0  0  0  0  0  0  0  0
  137.4820   71.2450  223.9300 H   0  0  0  0  0  0  0  0  0  0  0  0
  137.9690   71.2800  222.2610 H   0  0  0  0  0  0  0  0  0  0  0  0
  138.8507   68.9775  223.2739 H   0  0  0  0  0  0  0  0  0  0  0  0
  139.1171   67.1004  224.8233 H   0  0  0  0  0  0  0  0  0  0  0  0
  140.1401   67.4911  227.0714 H   0  0  0  0  0  0  0  0  0  0  0  0
  141.0674   68.9375  228.6073 H   0  0  0  0  0  0  0  0  0  0  0  0
  141.8134   71.1683  229.3363 H   0  0  0  0  0  0  0  0  0  0  0  0
  141.5609   73.1240  227.7786 H   0  0  0  0  0  0  0  0  0  0  0  0
  140.5744   72.7500  225.5662 H   0  0  0  0  0  0  0  0  0  0  0  0
  139.8182   73.3693  218.7679 H   0  0  0  0  0  0  0  0  0  0  0  0
  138.5984   74.2527  219.6997 H   0  0  0  0  0  0  0  0  0  0  0  0
  141.5468   75.1372  219.4812 H   0  0  0  0  0  0  0  0  0  0  0  0
  140.2821   75.7567  218.4023 H   0  0  0  0  0  0  0  0  0  0  0  0
  1  2  1  0
  2  3  1  0
  3  4  2  0
  3  5  1  0
  5  6  1  0
  6  7  2  0
  7  8  1  0
  8  9  2  0
  9 10  1  0
 10 11  2  0
  5 12  1  0
 12 13  1  0
 13 14  1  0
 14 15  1  0
 15 16  1  0
 16 17  2  0
 16 18  1  0
 18 19  1  0
 19 20  1  0
 19 21  1  0
 21 22  2  0
 22 23  1  0
 23 24  2  0
 24 25  1  0
 25 26  2  0
 26 27  1  0
 27 28  2  0
 28 29  1  0
 29 30  2  0
 15 31  1  0
 31 32  1  0
 11  6  1  0
 32 12  1  0
 30 21  1  0
 30 25  1  0
  1 33  1  0
  1 34  1  0
  1 35  1  0
  2 36  1  0
  2 37  1  0
  7 38  1  0
  8 39  1  0
  9 40  1  0
 10 41  1  0
 11 42  1  0
 12 43  1  0
 13 44  1  0
 13 45  1  0
 14 46  1  0
 14 47  1  0
 18 48  1  0
 18 49  1  0
 19 50  1  1
 20 51  1  0
 20 52  1  0
 22 53  1  0
 23 54  1  0
 24 55  1  0
 26 56  1  0
 27 57  1  0
 28 58  1  0
 29 59  1  0
 31 60  1  0
 31 61  1  0
 32 62  1  0
 32 63  1  0
M  END
>  <smiles>  (63) 
CCC(=O)N(c1ccccc1)C1CCN(C(=O)CC(N)c2cccc3ccccc23)CC1

>  <score_type>  (63) 
oracle

>  <origin>  (63) 
autodockgpu

>  <m_score__min__energy>  (63) 
-9.3599999999999994

>  <m_primary>  (63) 
energy

>  <rmsd>  (63) 
8.672009125616837

>  <m_score__min__rmsd>  (63) 
8.672009125616837

>  <meeko>  (63) 
{"free_energy": -7.95, "intermolecular_energy": -10.34, "internal_energy": -1.98, "cluster_size": 39, "cluster_id": 2, "rank_in_cluster": 39}

>  <energy>  (63) 
-8.73

>  <cluster_rmsd>  (63) 
0.64

>  <cluster>  (63) 
2

$$$$

     RDKit          3D

 63 66  0  0  0  0  0  0  0  0999 V2000
  142.2160   80.0030  218.6200 C   0  0  0  0  0  0  0  0  0  0  0  0
  141.2790   78.8110  218.4980 C   0  0  0  0  0  0  0  0  0  0  0  0
  141.8040   77.7780  219.4250 C   0  0  0  0  0  0  0  0  0  0  0  0
  142.8890   77.2290  219.1500 O   0  0  0  0  0  0  0  0  0  0  0  0
  141.0490   77.4390  220.6130 N   0  0  0  0  0  0  0  0  0  0  0  0
  141.0210   78.3530  221.7140 C   0  0  0  0  0  0  0  0  0  0  0  0
  142.1970   79.0150  222.0240 C   0  0  0  0  0  0  0  0  0  0  0  0
  142.2170   79.9020  223.0720 C   0  0  0  0  0  0  0  0  0  0  0  0
  141.0450   80.1130  223.8010 C   0  0  0  0  0  0  0  0  0  0  0  0
  139.8660   79.4470  223.4890 C   0  0  0  0  0  0  0  0  0  0  0  0
  139.8520   78.5610  222.4370 C   0  0  0  0  0  0  0  0  0  0  0  0
  140.3310   76.1840  220.6880 C   0  0  0  0  0  0  0  0  0  0  0  0
  140.6960   75.4910  221.9630 C   0  0  0  0  0  0  0  0  0  0  0  0
  141.1190   74.0250  221.7390 C   0  0  0  0  0  0  0  0  0  0  0  0
  140.1510   73.3390  220.9270 N   0  0  0  0  0  0  0  0  0  0  0  0
  139.6470   72.0260  221.2290 C   0  0  0  0  0  0  0  0  0  0  0  0
  138.7900   71.5680  220.4350 O   0  0  0  0  0  0  0  0  0  0  0  0
  140.0600   71.2240  222.3700 C   0  0  0  0  0  0  0  0  0  0  0  0
  139.3140   71.4650  223.6530 C   0  0  1  0  0  0  0  0  0  0  0  0
  137.9070   71.5830  223.3080 N   0  0  0  0  0  0  0  0  0  0  0  0
  139.4890   70.3780  224.6000 C   0  0  0  0  0  0  0  0  0  0  0  0
  139.0810   69.0870  224.3520 C   0  0  0  0  0  0  0  0  0  0  0  0
  139.2260   68.0460  225.2410 C   0  0  0  0  0  0  0  0  0  0  0  0
  139.8130   68.2860  226.4650 C   0  0  0  0  0  0  0  0  0  0  0  0
  140.2300   69.5640  226.7450 C   0  0  0  0  0  0  0  0  0  0  0  0
  140.8070   69.7900  227.9720 C   0  0  0  0  0  0  0  0  0  0  0  0
  141.2490   71.0340  228.3410 C   0  0  0  0  0  0  0  0  0  0  0  0
  141.1100   72.0960  227.4530 C   0  0  0  0  0  0  0  0  0  0  0  0
  140.5320   71.8450  226.2390 C   0  0  0  0  0  0  0  0  0  0  0  0
  140.0770   70.6040  225.8370 C   0  0  0  0  0  0  0  0  0  0  0  0
  139.6770   74.0560  219.7380 C   0  0  0  0  0  0  0  0  0  0  0  0
  140.6190   75.2400  219.5600 C   0  0  0  0  0  0  0  0  0  0  0  0
  142.3905   80.2249  219.6832 H   0  0  0  0  0  0  0  0  0  0  0  0
  143.1737   79.7680  218.1325 H   0  0  0  0  0  0  0  0  0  0  0  0
  141.7615   80.8781  218.1325 H   0  0  0  0  0  0  0  0  0  0  0  0
  140.2568   79.0980  218.7857 H   0  0  0  0  0  0  0  0  0  0  0  0
  141.2357   78.4382  217.4640 H   0  0  0  0  0  0  0  0  0  0  0  0
  143.1080   78.8318  221.4354 H   0  0  0  0  0  0  0  0  0  0  0  0
  143.1415   80.4378  223.3331 H   0  0  0  0  0  0  0  0  0  0  0  0
  141.0552   80.8226  224.6414 H   0  0  0  0  0  0  0  0  0  0  0  0
  138.9538   79.6264  224.0770 H   0  0  0  0  0  0  0  0  0  0  0  0
  138.9290   78.0247  222.1716 H   0  0  0  0  0  0  0  0  0  0  0  0
  139.2633   76.4430  220.6334 H   0  0  0  0  0  0  0  0  0  0  0  0
  141.5317   76.0315  222.4314 H   0  0  0  0  0  0  0  0  0  0  0  0
  139.8047   75.4866  222.6077 H   0  0  0  0  0  0  0  0  0  0  0  0
  142.0957   74.0035  221.2334 H   0  0  0  0  0  0  0  0  0  0  0  0
  141.1852   73.5213  222.7146 H   0  0  0  0  0  0  0  0  0  0  0  0
  139.9318   70.1652  222.1005 H   0  0  0  0  0  0  0  0  0  0  0  0
  141.1009   71.5152  222.5744 H   0  0  0  0  0  0  0  0  0  0  0  0
  139.7004   72.3750  224.1353 H   0  0  0  0  0  0  0  0  0  0  0  0
  137.3020   71.0290  223.9540 H   0  0  0  0  0  0  0  0  0  0  0  0
  137.7130   71.4440  222.3170 H   0  0  0  0  0  0  0  0  0  0  0  0
  138.6090   68.8735  223.3816 H   0  0  0  0  0  0  0  0  0  0  0  0
  138.8781   67.0361  224.9782 H   0  0  0  0  0  0  0  0  0  0  0  0
  139.9438   67.4758  227.1974 H   0  0  0  0  0  0  0  0  0  0  0  0
  140.9168   68.9515  228.6755 H   0  0  0  0  0  0  0  0  0  0  0  0
  141.7084   71.1908  229.3281 H   0  0  0  0  0  0  0  0  0  0  0  0
  141.4543   73.1063  227.7190 H   0  0  0  0  0  0  0  0  0  0  0  0
  140.4224   72.6853  225.5376 H   0  0  0  0  0  0  0  0  0  0  0  0
  139.7156   73.4005  218.8555 H   0  0  0  0  0  0  0  0  0  0  0  0
  138.6336   74.3845  219.8542 H   0  0  0  0  0  0  0  0  0  0  0  0
  141.6653   74.9034  219.6035 H   0  0  0  0  0  0  0  0  0  0  0  0
  140.4680   75.7263  218.5849 H   0  0  0  0  0  0  0  0  0  0  0  0
  1  2  1  0
  2  3  1  0
  3  4  2  0
  3  5  1  0
  5  6  1  0
  6  7  2  0
  7  8  1  0
  8  9  2  0
  9 10  1  0
 10 11  2  0
  5 12  1  0
 12 13  1  0
 13 14  1  0
 14 15  1  0
 15 16  1  0
 16 17  2  0
 16 18  1  0
 18 19  1  0
 19 20  1  0
 19 21  1  0
 21 22  2  0
 22 23  1  0
 23 24  2  0
 24 25  1  0
 25 26  2  0
 26 27  1  0
 27 28  2  0
 28 29  1  0
 29 30  2  0
 15 31  1  0
 31 32  1  0
 11  6  1  0
 32 12  1  0
 30 21  1  0
 30 25  1  0
  1 33  1  0
  1 34  1  0
  1 35  1  0
  2 36  1  0
  2 37  1  0
  7 38  1  0
  8 39  1  0
  9 40  1  0
 10 41  1  0
 11 42  1  0
 12 43  1  0
 13 44  1  0
 13 45  1  0
 14 46  1  0
 14 47  1  0
 18 48  1  0
 18 49  1  0
 19 50  1  1
 20 51  1  0
 20 52  1  0
 22 53  1  0
 23 54  1  0
 24 55  1  0
 26 56  1  0
 27 57  1  0
 28 58  1  0
 29 59  1  0
 31 60  1  0
 31 61  1  0
 32 62  1  0
 32 63  1  0
M  END
>  <smiles>  (64) 
CCC(=O)N(c1ccccc1)C1CCN(C(=O)CC(N)c2cccc3ccccc23)CC1

>  <score_type>  (64) 
oracle

>  <origin>  (64) 
autodockgpu

>  <m_score__min__energy>  (64) 
-9.3599999999999994

>  <m_primary>  (64) 
energy

>  <rmsd>  (64) 
8.763755529284799

>  <m_score__min__rmsd>  (64) 
8.763755529284799

>  <meeko>  (64) 
{"free_energy": -8.13, "intermolecular_energy": -10.52, "internal_energy": -2.03, "cluster_size": 39, "cluster_id": 2, "rank_in_cluster": 37}

>  <energy>  (64) 
-8.71

>  <cluster_rmsd>  (64) 
0.69

>  <cluster>  (64) 
2

$$$$

     RDKit          3D

 63 66  0  0  0  0  0  0  0  0999 V2000
  142.5400   79.7020  218.2360 C   0  0  0  0  0  0  0  0  0  0  0  0
  141.3380   78.8150  218.5290 C   0  0  0  0  0  0  0  0  0  0  0  0
  141.8220   77.7560  219.4490 C   0  0  0  0  0  0  0  0  0  0  0  0
  142.8840   77.1660  219.1700 O   0  0  0  0  0  0  0  0  0  0  0  0
  141.0540   77.4400  220.6340 N   0  0  0  0  0  0  0  0  0  0  0  0
  141.0350   78.3640  221.7270 C   0  0  0  0  0  0  0  0  0  0  0  0
  142.2000   79.0640  221.9920 C   0  0  0  0  0  0  0  0  0  0  0  0
  142.2270   79.9620  223.0310 C   0  0  0  0  0  0  0  0  0  0  0  0
  141.0730   80.1450  223.7960 C   0  0  0  0  0  0  0  0  0  0  0  0
  139.9060   79.4410  223.5290 C   0  0  0  0  0  0  0  0  0  0  0  0
  139.8840   78.5430  222.4870 C   0  0  0  0  0  0  0  0  0  0  0  0
  140.3160   76.1970  220.7170 C   0  0  0  0  0  0  0  0  0  0  0  0
  140.7120   75.4780  221.9680 C   0  0  0  0  0  0  0  0  0  0  0  0
  141.1000   74.0080  221.7070 C   0  0  0  0  0  0  0  0  0  0  0  0
  140.0910   73.3520  220.9190 N   0  0  0  0  0  0  0  0  0  0  0  0
  139.5740   72.0450  221.2200 C   0  0  0  0  0  0  0  0  0  0  0  0
  138.6810   71.6140  220.4500 O   0  0  0  0  0  0  0  0  0  0  0  0
  140.0100   71.2170  222.3340 C   0  0  0  0  0  0  0  0  0  0  0  0
  139.3690   71.5060  223.6630 C   0  0  1  0  0  0  0  0  0  0  0  0
  137.9490   71.6910  223.4160 N   0  0  0  0  0  0  0  0  0  0  0  0
  139.5570   70.4190  224.6080 C   0  0  0  0  0  0  0  0  0  0  0  0
  139.1470   69.1270  224.3650 C   0  0  0  0  0  0  0  0  0  0  0  0
  139.3050   68.0870  225.2520 C   0  0  0  0  0  0  0  0  0  0  0  0
  139.9060   68.3280  226.4690 C   0  0  0  0  0  0  0  0  0  0  0  0
  140.3250   69.6060  226.7440 C   0  0  0  0  0  0  0  0  0  0  0  0
  140.9160   69.8330  227.9640 C   0  0  0  0  0  0  0  0  0  0  0  0
  141.3610   71.0770  228.3270 C   0  0  0  0  0  0  0  0  0  0  0  0
  141.2100   72.1390  227.4410 C   0  0  0  0  0  0  0  0  0  0  0  0
  140.6170   71.8870  226.2340 C   0  0  0  0  0  0  0  0  0  0  0  0
  140.1600   70.6460  225.8380 C   0  0  0  0  0  0  0  0  0  0  0  0
  139.5900   74.0960  219.7590 C   0  0  0  0  0  0  0  0  0  0  0  0
  140.5470   75.2650  219.5660 C   0  0  0  0  0  0  0  0  0  0  0  0
  142.9901   80.0342  219.1831 H   0  0  0  0  0  0  0  0  0  0  0  0
  143.2825   79.1337  217.6566 H   0  0  0  0  0  0  0  0  0  0  0  0
  142.2159   80.5791  217.6566 H   0  0  0  0  0  0  0  0  0  0  0  0
  140.5392   79.4005  219.0076 H   0  0  0  0  0  0  0  0  0  0  0  0
  140.9212   78.3856  217.6061 H   0  0  0  0  0  0  0  0  0  0  0  0
  143.0965   78.9022  221.3755 H   0  0  0  0  0  0  0  0  0  0  0  0
  143.1428   80.5279  223.2569 H   0  0  0  0  0  0  0  0  0  0  0  0
  141.0887   80.8632  224.6291 H   0  0  0  0  0  0  0  0  0  0  0  0
  139.0083   79.5998  224.1445 H   0  0  0  0  0  0  0  0  0  0  0  0
  138.9700   77.9752  222.2584 H   0  0  0  0  0  0  0  0  0  0  0  0
  139.2521   76.4764  220.7045 H   0  0  0  0  0  0  0  0  0  0  0  0
  141.5732   75.9961  222.4150 H   0  0  0  0  0  0  0  0  0  0  0  0
  139.8438   75.4796  222.6434 H   0  0  0  0  0  0  0  0  0  0  0  0
  142.0578   73.9770  221.1669 H   0  0  0  0  0  0  0  0  0  0  0  0
  141.1913   73.4878  222.6719 H   0  0  0  0  0  0  0  0  0  0  0  0
  139.7953   70.1690  222.0781 H   0  0  0  0  0  0  0  0  0  0  0  0
  141.0791   71.4392  222.4668 H   0  0  0  0  0  0  0  0  0  0  0  0
  139.8322   72.3998  224.1063 H   0  0  0  0  0  0  0  0  0  0  0  0
  137.7290   71.6840  222.3950 H   0  0  0  0  0  0  0  0  0  0  0  0
  137.5380   72.4660  223.9350 H   0  0  0  0  0  0  0  0  0  0  0  0
  138.6626   68.9129  223.4009 H   0  0  0  0  0  0  0  0  0  0  0  0
  138.9562   67.0763  224.9933 H   0  0  0  0  0  0  0  0  0  0  0  0
  140.0461   67.5181  227.2000 H   0  0  0  0  0  0  0  0  0  0  0  0
  141.0347   68.9949  228.6666 H   0  0  0  0  0  0  0  0  0  0  0  0
  141.8325   71.2344  229.3083 H   0  0  0  0  0  0  0  0  0  0  0  0
  141.5565   73.1497  227.7027 H   0  0  0  0  0  0  0  0  0  0  0  0
  140.4967   72.7272  225.5342 H   0  0  0  0  0  0  0  0  0  0  0  0
  139.5855   73.4540  218.8658 H   0  0  0  0  0  0  0  0  0  0  0  0
  138.5577   74.4417  219.9168 H   0  0  0  0  0  0  0  0  0  0  0  0
  141.5877   74.9088  219.5681 H   0  0  0  0  0  0  0  0  0  0  0  0
  140.3714   75.7689  218.6041 H   0  0  0  0  0  0  0  0  0  0  0  0
  1  2  1  0
  2  3  1  0
  3  4  2  0
  3  5  1  0
  5  6  1  0
  6  7  2  0
  7  8  1  0
  8  9  2  0
  9 10  1  0
 10 11  2  0
  5 12  1  0
 12 13  1  0
 13 14  1  0
 14 15  1  0
 15 16  1  0
 16 17  2  0
 16 18  1  0
 18 19  1  0
 19 20  1  0
 19 21  1  0
 21 22  2  0
 22 23  1  0
 23 24  2  0
 24 25  1  0
 25 26  2  0
 26 27  1  0
 27 28  2  0
 28 29  1  0
 29 30  2  0
 15 31  1  0
 31 32  1  0
 11  6  1  0
 32 12  1  0
 30 21  1  0
 30 25  1  0
  1 33  1  0
  1 34  1  0
  1 35  1  0
  2 36  1  0
  2 37  1  0
  7 38  1  0
  8 39  1  0
  9 40  1  0
 10 41  1  0
 11 42  1  0
 12 43  1  0
 13 44  1  0
 13 45  1  0
 14 46  1  0
 14 47  1  0
 18 48  1  0
 18 49  1  0
 19 50  1  1
 20 51  1  0
 20 52  1  0
 22 53  1  0
 23 54  1  0
 24 55  1  0
 26 56  1  0
 27 57  1  0
 28 58  1  0
 29 59  1  0
 31 60  1  0
 31 61  1  0
 32 62  1  0
 32 63  1  0
M  END
>  <smiles>  (65) 
CCC(=O)N(c1ccccc1)C1CCN(C(=O)CC(N)c2cccc3ccccc23)CC1

>  <score_type>  (65) 
oracle

>  <origin>  (65) 
autodockgpu

>  <m_score__min__energy>  (65) 
-9.3599999999999994

>  <m_primary>  (65) 
energy

>  <rmsd>  (65) 
8.742211516433006

>  <m_score__min__rmsd>  (65) 
8.742211516433006

>  <meeko>  (65) 
{"free_energy": -8.76, "intermolecular_energy": -11.15, "internal_energy": -1.99, "cluster_size": 39, "cluster_id": 2, "rank_in_cluster": 8}

>  <energy>  (65) 
-8.7

>  <cluster_rmsd>  (65) 
0.59

>  <cluster>  (65) 
2

$$$$

     RDKit          3D

 63 66  0  0  0  0  0  0  0  0999 V2000
  142.1500   80.0260  218.7080 C   0  0  0  0  0  0  0  0  0  0  0  0
  141.3010   78.7810  218.5010 C   0  0  0  0  0  0  0  0  0  0  0  0
  141.8130   77.7690  219.4590 C   0  0  0  0  0  0  0  0  0  0  0  0
  142.9030   77.2170  219.2130 O   0  0  0  0  0  0  0  0  0  0  0  0
  141.0410   77.4550  220.6420 N   0  0  0  0  0  0  0  0  0  0  0  0
  141.0190   78.3800  221.7340 C   0  0  0  0  0  0  0  0  0  0  0  0
  142.1950   79.0500  222.0280 C   0  0  0  0  0  0  0  0  0  0  0  0
  142.2200   79.9470  223.0670 C   0  0  0  0  0  0  0  0  0  0  0  0
  141.0540   80.1610  223.8030 C   0  0  0  0  0  0  0  0  0  0  0  0
  139.8750   79.4880  223.5080 C   0  0  0  0  0  0  0  0  0  0  0  0
  139.8550   78.5910  222.4650 C   0  0  0  0  0  0  0  0  0  0  0  0
  140.3000   76.2140  220.7230 C   0  0  0  0  0  0  0  0  0  0  0  0
  140.7020   75.4880  221.9680 C   0  0  0  0  0  0  0  0  0  0  0  0
  141.0840   74.0190  221.6990 C   0  0  0  0  0  0  0  0  0  0  0  0
  140.0690   73.3690  220.9130 N   0  0  0  0  0  0  0  0  0  0  0  0
  139.5500   72.0610  221.2110 C   0  0  0  0  0  0  0  0  0  0  0  0
  138.6520   71.6360  220.4430 O   0  0  0  0  0  0  0  0  0  0  0  0
  139.9910   71.2270  222.3190 C   0  0  0  0  0  0  0  0  0  0  0  0
  139.3580   71.5120  223.6530 C   0  0  1  0  0  0  0  0  0  0  0  0
  137.9380   71.7060  223.4140 N   0  0  0  0  0  0  0  0  0  0  0  0
  139.5450   70.4180  224.5900 C   0  0  0  0  0  0  0  0  0  0  0  0
  139.1490   69.1250  224.3310 C   0  0  0  0  0  0  0  0  0  0  0  0
  139.3060   68.0780  225.2100 C   0  0  0  0  0  0  0  0  0  0  0  0
  139.8920   68.3130  226.4360 C   0  0  0  0  0  0  0  0  0  0  0  0
  140.2970   69.5930  226.7270 C   0  0  0  0  0  0  0  0  0  0  0  0
  140.8730   69.8140  227.9550 C   0  0  0  0  0  0  0  0  0  0  0  0
  141.3020   71.0590  228.3340 C   0  0  0  0  0  0  0  0  0  0  0  0
  141.1520   72.1270  227.4560 C   0  0  0  0  0  0  0  0  0  0  0  0
  140.5750   71.8810  226.2400 C   0  0  0  0  0  0  0  0  0  0  0  0
  140.1330   70.6390  225.8280 C   0  0  0  0  0  0  0  0  0  0  0  0
  139.5630   74.1190  219.7590 C   0  0  0  0  0  0  0  0  0  0  0  0
  140.5220   75.2870  219.5660 C   0  0  0  0  0  0  0  0  0  0  0  0
  142.2751   80.2095  219.7853 H   0  0  0  0  0  0  0  0  0  0  0  0
  143.1364   79.8784  218.2442 H   0  0  0  0  0  0  0  0  0  0  0  0
  141.6524   80.8904  218.2442 H   0  0  0  0  0  0  0  0  0  0  0  0
  140.2434   79.0015  218.7078 H   0  0  0  0  0  0  0  0  0  0  0  0
  141.3635   78.4200  217.4638 H   0  0  0  0  0  0  0  0  0  0  0  0
  143.1019   78.8648  221.4336 H   0  0  0  0  0  0  0  0  0  0  0  0
  143.1447   80.4885  223.3154 H   0  0  0  0  0  0  0  0  0  0  0  0
  141.0687   80.8792  224.6360 H   0  0  0  0  0  0  0  0  0  0  0  0
  138.9673   79.6703  224.1019 H   0  0  0  0  0  0  0  0  0  0  0  0
  138.9318   78.0487  222.2130 H   0  0  0  0  0  0  0  0  0  0  0  0
  139.2368   76.4960  220.7181 H   0  0  0  0  0  0  0  0  0  0  0  0
  141.5675   76.0017  222.4118 H   0  0  0  0  0  0  0  0  0  0  0  0
  139.8378   75.4888  222.6485 H   0  0  0  0  0  0  0  0  0  0  0  0
  142.0390   73.9875  221.1541 H   0  0  0  0  0  0  0  0  0  0  0  0
  141.1783   73.4945  222.6613 H   0  0  0  0  0  0  0  0  0  0  0  0
  139.7726   70.1805  222.0599 H   0  0  0  0  0  0  0  0  0  0  0  0
  141.0614   71.4460  222.4465 H   0  0  0  0  0  0  0  0  0  0  0  0
  139.8277   72.4008  224.0995 H   0  0  0  0  0  0  0  0  0  0  0  0
  137.6980   71.6090  222.4010 H   0  0  0  0  0  0  0  0  0  0  0  0
  137.5540   72.5360  223.8650 H   0  0  0  0  0  0  0  0  0  0  0  0
  138.6771   68.9156  223.3596 H   0  0  0  0  0  0  0  0  0  0  0  0
  138.9685   67.0669  224.9383 H   0  0  0  0  0  0  0  0  0  0  0  0
  140.0313   67.4977  227.1612 H   0  0  0  0  0  0  0  0  0  0  0  0
  140.9926   68.9706  228.6509 H   0  0  0  0  0  0  0  0  0  0  0  0
  141.7602   71.2120  229.3223 H   0  0  0  0  0  0  0  0  0  0  0  0
  141.4868   73.1382  227.7306 H   0  0  0  0  0  0  0  0  0  0  0  0
  140.4555   72.7263  225.5463 H   0  0  0  0  0  0  0  0  0  0  0  0
  139.5522   73.4809  218.8630 H   0  0  0  0  0  0  0  0  0  0  0  0
  138.5323   74.4661  219.9238 H   0  0  0  0  0  0  0  0  0  0  0  0
  141.5618   74.9283  219.5603 H   0  0  0  0  0  0  0  0  0  0  0  0
  140.3420   75.7960  218.6076 H   0  0  0  0  0  0  0  0  0  0  0  0
  1  2  1  0
  2  3  1  0
  3  4  2  0
  3  5  1  0
  5  6  1  0
  6  7  2  0
  7  8  1  0
  8  9  2  0
  9 10  1  0
 10 11  2  0
  5 12  1  0
 12 13  1  0
 13 14  1  0
 14 15  1  0
 15 16  1  0
 16 17  2  0
 16 18  1  0
 18 19  1  0
 19 20  1  0
 19 21  1  0
 21 22  2  0
 22 23  1  0
 23 24  2  0
 24 25  1  0
 25 26  2  0
 26 27  1  0
 27 28  2  0
 28 29  1  0
 29 30  2  0
 15 31  1  0
 31 32  1  0
 11  6  1  0
 32 12  1  0
 30 21  1  0
 30 25  1  0
  1 33  1  0
  1 34  1  0
  1 35  1  0
  2 36  1  0
  2 37  1  0
  7 38  1  0
  8 39  1  0
  9 40  1  0
 10 41  1  0
 11 42  1  0
 12 43  1  0
 13 44  1  0
 13 45  1  0
 14 46  1  0
 14 47  1  0
 18 48  1  0
 18 49  1  0
 19 50  1  1
 20 51  1  0
 20 52  1  0
 22 53  1  0
 23 54  1  0
 24 55  1  0
 26 56  1  0
 27 57  1  0
 28 58  1  0
 29 59  1  0
 31 60  1  0
 31 61  1  0
 32 62  1  0
 32 63  1  0
M  END
>  <smiles>  (66) 
CCC(=O)N(c1ccccc1)C1CCN(C(=O)CC(N)c2cccc3ccccc23)CC1

>  <score_type>  (66) 
oracle

>  <origin>  (66) 
autodockgpu

>  <m_score__min__energy>  (66) 
-9.3599999999999994

>  <m_primary>  (66) 
energy

>  <rmsd>  (66) 
8.73769674865366

>  <m_score__min__rmsd>  (66) 
8.73769674865366

>  <meeko>  (66) 
{"free_energy": -8.73, "intermolecular_energy": -11.12, "internal_energy": -2.03, "cluster_size": 39, "cluster_id": 2, "rank_in_cluster": 11}

>  <energy>  (66) 
-8.69

>  <cluster_rmsd>  (66) 
0.67

>  <cluster>  (66) 
2

$$$$

     RDKit          3D

 63 66  0  0  0  0  0  0  0  0999 V2000
  143.5630   74.8630  219.6660 C   0  0  0  0  0  0  0  0  0  0  0  0
  143.6980   76.3780  219.6310 C   0  0  0  0  0  0  0  0  0  0  0  0
  142.3260   76.9090  219.4290 C   0  0  0  0  0  0  0  0  0  0  0  0
  142.0020   77.2980  218.2900 O   0  0  0  0  0  0  0  0  0  0  0  0
  141.4120   76.9590  220.5500 N   0  0  0  0  0  0  0  0  0  0  0  0
  141.4440   78.0840  221.4340 C   0  0  0  0  0  0  0  0  0  0  0  0
  141.8040   79.3090  220.8960 C   0  0  0  0  0  0  0  0  0  0  0  0
  141.8490   80.4160  221.7070 C   0  0  0  0  0  0  0  0  0  0  0  0
  141.5270   80.2770  223.0590 C   0  0  0  0  0  0  0  0  0  0  0  0
  141.1670   79.0480  223.5960 C   0  0  0  0  0  0  0  0  0  0  0  0
  141.1230   77.9420  222.7790 C   0  0  0  0  0  0  0  0  0  0  0  0
  140.4750   75.8790  220.7780 C   0  0  0  0  0  0  0  0  0  0  0  0
  140.9580   75.0520  221.9280 C   0  0  0  0  0  0  0  0  0  0  0  0
  140.9930   73.5460  221.5990 C   0  0  0  0  0  0  0  0  0  0  0  0
  139.7430   73.1250  221.0260 N   0  0  0  0  0  0  0  0  0  0  0  0
  139.0480   71.9310  221.4250 C   0  0  0  0  0  0  0  0  0  0  0  0
  137.9570   71.7080  220.8460 O   0  0  0  0  0  0  0  0  0  0  0  0
  139.5220   70.9950  222.4330 C   0  0  0  0  0  0  0  0  0  0  0  0
  139.0870   71.2690  223.8460 C   0  0  1  0  0  0  0  0  0  0  0  0
  137.6440   71.4450  223.8180 N   0  0  0  0  0  0  0  0  0  0  0  0
  139.4220   70.1760  224.7420 C   0  0  0  0  0  0  0  0  0  0  0  0
  139.0930   68.8630  224.4900 C   0  0  0  0  0  0  0  0  0  0  0  0
  139.3910   67.8170  225.3320 C   0  0  0  0  0  0  0  0  0  0  0  0
  140.0590   68.0730  226.5110 C   0  0  0  0  0  0  0  0  0  0  0  0
  140.4000   69.3720  226.7940 C   0  0  0  0  0  0  0  0  0  0  0  0
  141.0590   69.6130  227.9760 C   0  0  0  0  0  0  0  0  0  0  0  0
  141.4350   70.8780  228.3440 C   0  0  0  0  0  0  0  0  0  0  0  0
  141.1420   71.9470  227.5040 C   0  0  0  0  0  0  0  0  0  0  0  0
  140.4850   71.6800  226.3330 C   0  0  0  0  0  0  0  0  0  0  0  0
  140.0930   70.4180  225.9330 C   0  0  0  0  0  0  0  0  0  0  0  0
  139.1820   73.9930  219.9850 C   0  0  0  0  0  0  0  0  0  0  0  0
  140.2930   74.9630  219.6050 C   0  0  0  0  0  0  0  0  0  0  0  0
  143.5326   74.5216  220.7113 H   0  0  0  0  0  0  0  0  0  0  0  0
  142.6348   74.5657  219.1560 H   0  0  0  0  0  0  0  0  0  0  0  0
  144.4240   74.4063  219.1560 H   0  0  0  0  0  0  0  0  0  0  0  0
  144.1140   76.7463  220.5804 H   0  0  0  0  0  0  0  0  0  0  0  0
  144.3768   76.7026  218.8286 H   0  0  0  0  0  0  0  0  0  0  0  0
  142.0518   79.3940  219.8276 H   0  0  0  0  0  0  0  0  0  0  0  0
  142.1341   81.3967  221.2985 H   0  0  0  0  0  0  0  0  0  0  0  0
  141.5593   81.1608  223.7130 H   0  0  0  0  0  0  0  0  0  0  0  0
  140.9195   78.9597  224.6641 H   0  0  0  0  0  0  0  0  0  0  0  0
  140.8380   76.9598  223.1841 H   0  0  0  0  0  0  0  0  0  0  0  0
  139.5039   76.3570  220.9741 H   0  0  0  0  0  0  0  0  0  0  0  0
  141.9739   75.3784  222.1950 H   0  0  0  0  0  0  0  0  0  0  0  0
  140.2547   75.1957  222.7615 H   0  0  0  0  0  0  0  0  0  0  0  0
  141.8037   73.3513  220.8814 H   0  0  0  0  0  0  0  0  0  0  0  0
  141.1650   72.9834  222.5284 H   0  0  0  0  0  0  0  0  0  0  0  0
  139.1602   69.9932  222.1581 H   0  0  0  0  0  0  0  0  0  0  0  0
  140.6175   71.0938  222.4364 H   0  0  0  0  0  0  0  0  0  0  0  0
  139.6062   72.1630  224.2219 H   0  0  0  0  0  0  0  0  0  0  0  0
  137.2550   71.2970  222.8590 H   0  0  0  0  0  0  0  0  0  0  0  0
  137.3240   72.2940  224.2820 H   0  0  0  0  0  0  0  0  0  0  0  0
  138.5579   68.6361  223.5561 H   0  0  0  0  0  0  0  0  0  0  0  0
  139.1002   66.7894  225.0683 H   0  0  0  0  0  0  0  0  0  0  0  0
  140.3116   67.2584  227.2056 H   0  0  0  0  0  0  0  0  0  0  0  0
  141.2902   68.7693  228.6429 H   0  0  0  0  0  0  0  0  0  0  0  0
  141.9632   71.0464  229.2941 H   0  0  0  0  0  0  0  0  0  0  0  0
  141.4291   72.9745  227.7720 H   0  0  0  0  0  0  0  0  0  0  0  0
  140.2546   72.5253  225.6679 H   0  0  0  0  0  0  0  0  0  0  0  0
  138.8799   73.3965  219.1116 H   0  0  0  0  0  0  0  0  0  0  0  0
  138.2873   74.5242  220.3418 H   0  0  0  0  0  0  0  0  0  0  0  0
  141.2246   74.4141  219.4028 H   0  0  0  0  0  0  0  0  0  0  0  0
  140.0369   75.5261  218.6954 H   0  0  0  0  0  0  0  0  0  0  0  0
  1  2  1  0
  2  3  1  0
  3  4  2  0
  3  5  1  0
  5  6  1  0
  6  7  2  0
  7  8  1  0
  8  9  2  0
  9 10  1  0
 10 11  2  0
  5 12  1  0
 12 13  1  0
 13 14  1  0
 14 15  1  0
 15 16  1  0
 16 17  2  0
 16 18  1  0
 18 19  1  0
 19 20  1  0
 19 21  1  0
 21 22  2  0
 22 23  1  0
 23 24  2  0
 24 25  1  0
 25 26  2  0
 26 27  1  0
 27 28  2  0
 28 29  1  0
 29 30  2  0
 15 31  1  0
 31 32  1  0
 11  6  1  0
 32 12  1  0
 30 21  1  0
 30 25  1  0
  1 33  1  0
  1 34  1  0
  1 35  1  0
  2 36  1  0
  2 37  1  0
  7 38  1  0
  8 39  1  0
  9 40  1  0
 10 41  1  0
 11 42  1  0
 12 43  1  0
 13 44  1  0
 13 45  1  0
 14 46  1  0
 14 47  1  0
 18 48  1  0
 18 49  1  0
 19 50  1  1
 20 51  1  0
 20 52  1  0
 22 53  1  0
 23 54  1  0
 24 55  1  0
 26 56  1  0
 27 57  1  0
 28 58  1  0
 29 59  1  0
 31 60  1  0
 31 61  1  0
 32 62  1  0
 32 63  1  0
M  END
>  <smiles>  (67) 
CCC(=O)N(c1ccccc1)C1CCN(C(=O)CC(N)c2cccc3ccccc23)CC1

>  <score_type>  (67) 
oracle

>  <origin>  (67) 
autodockgpu

>  <m_score__min__energy>  (67) 
-9.3599999999999994

>  <m_primary>  (67) 
energy

>  <rmsd>  (67) 
8.940357412863563

>  <m_score__min__rmsd>  (67) 
8.940357412863563

>  <meeko>  (67) 
{"free_energy": -8.83, "intermolecular_energy": -11.22, "internal_energy": -1.96, "cluster_size": 39, "cluster_id": 2, "rank_in_cluster": 5}

>  <energy>  (67) 
-8.68

>  <cluster_rmsd>  (67) 
0.78

>  <cluster>  (67) 
2

$$$$

     RDKit          3D

 63 66  0  0  0  0  0  0  0  0999 V2000
  140.9870   78.1070  217.9540 C   0  0  0  0  0  0  0  0  0  0  0  0
  142.4410   78.0840  218.4010 C   0  0  0  0  0  0  0  0  0  0  0  0
  142.4990   77.1680  219.5670 C   0  0  0  0  0  0  0  0  0  0  0  0
  143.3630   76.2690  219.5740 O   0  0  0  0  0  0  0  0  0  0  0  0
  141.5600   77.3410  220.6550 N   0  0  0  0  0  0  0  0  0  0  0  0
  141.6190   78.5280  221.4530 C   0  0  0  0  0  0  0  0  0  0  0  0
  141.4750   78.3840  222.8230 C   0  0  0  0  0  0  0  0  0  0  0  0
  141.5250   79.4960  223.6280 C   0  0  0  0  0  0  0  0  0  0  0  0
  141.7210   80.7470  223.0400 C   0  0  0  0  0  0  0  0  0  0  0  0
  141.8650   80.8890  221.6660 C   0  0  0  0  0  0  0  0  0  0  0  0
  141.8140   79.7720  220.8640 C   0  0  0  0  0  0  0  0  0  0  0  0
  140.5720   76.3210  220.9370 C   0  0  0  0  0  0  0  0  0  0  0  0
  141.1180   75.3880  221.9710 C   0  0  0  0  0  0  0  0  0  0  0  0
  140.9910   73.9080  221.5580 C   0  0  0  0  0  0  0  0  0  0  0  0
  139.6520   73.6190  221.1210 N   0  0  0  0  0  0  0  0  0  0  0  0
  138.9140   72.4570  221.5360 C   0  0  0  0  0  0  0  0  0  0  0  0
  137.7470   72.3540  221.0840 O   0  0  0  0  0  0  0  0  0  0  0  0
  139.4250   71.4250  222.4250 C   0  0  0  0  0  0  0  0  0  0  0  0
  138.9740   71.5030  223.8570 C   0  0  1  0  0  0  0  0  0  0  0  0
  137.5350   71.7040  223.8370 N   0  0  0  0  0  0  0  0  0  0  0  0
  139.2810   70.2890  224.5940 C   0  0  0  0  0  0  0  0  0  0  0  0
  138.9480   69.0300  224.1480 C   0  0  0  0  0  0  0  0  0  0  0  0
  139.2190   67.8690  224.8360 C   0  0  0  0  0  0  0  0  0  0  0  0
  139.8630   67.9460  226.0520 C   0  0  0  0  0  0  0  0  0  0  0  0
  140.2090   69.1870  226.5270 C   0  0  0  0  0  0  0  0  0  0  0  0
  140.8440   69.2480  227.7440 C   0  0  0  0  0  0  0  0  0  0  0  0
  141.2220   70.4430  228.2990 C   0  0  0  0  0  0  0  0  0  0  0  0
  140.9560   71.6240  227.6150 C   0  0  0  0  0  0  0  0  0  0  0  0
  140.3220   71.5360  226.4060 C   0  0  0  0  0  0  0  0  0  0  0  0
  139.9290   70.3490  225.8200 C   0  0  0  0  0  0  0  0  0  0  0  0
  139.0440   74.5920  220.2070 C   0  0  0  0  0  0  0  0  0  0  0  0
  140.1780   75.4990  219.7470 C   0  0  0  0  0  0  0  0  0  0  0  0
  140.3319   78.1174  218.8376 H   0  0  0  0  0  0  0  0  0  0  0  0
  140.8031   79.0082  217.3506 H   0  0  0  0  0  0  0  0  0  0  0  0
  140.7747   77.2121  217.3506 H   0  0  0  0  0  0  0  0  0  0  0  0
  143.0838   77.7108  217.5901 H   0  0  0  0  0  0  0  0  0  0  0  0
  142.7966   79.0913  218.6634 H   0  0  0  0  0  0  0  0  0  0  0  0
  141.3219   77.3874  223.2628 H   0  0  0  0  0  0  0  0  0  0  0  0
  141.4124   79.4023  224.7182 H   0  0  0  0  0  0  0  0  0  0  0  0
  141.7623   81.6409  223.6798 H   0  0  0  0  0  0  0  0  0  0  0  0
  142.0183   81.8843  221.2233 H   0  0  0  0  0  0  0  0  0  0  0  0
  141.9258   79.8621  219.7734 H   0  0  0  0  0  0  0  0  0  0  0  0
  139.6735   76.8564  221.2776 H   0  0  0  0  0  0  0  0  0  0  0  0
  142.1816   75.6200  222.1288 H   0  0  0  0  0  0  0  0  0  0  0  0
  140.5319   75.5294  222.8910 H   0  0  0  0  0  0  0  0  0  0  0  0
  141.6924   73.7002  220.7365 H   0  0  0  0  0  0  0  0  0  0  0  0
  141.2254   73.2754  222.4268 H   0  0  0  0  0  0  0  0  0  0  0  0
  139.1083   70.4503  222.0255 H   0  0  0  0  0  0  0  0  0  0  0  0
  140.5151   71.5700  222.4502 H   0  0  0  0  0  0  0  0  0  0  0  0
  139.5006   72.3264  224.3616 H   0  0  0  0  0  0  0  0  0  0  0  0
  137.1170   71.4180  222.9230 H   0  0  0  0  0  0  0  0  0  0  0  0
  137.2430   72.6220  224.1710 H   0  0  0  0  0  0  0  0  0  0  0  0
  138.4324   68.9464  223.1799 H   0  0  0  0  0  0  0  0  0  0  0  0
  138.9256   66.8934  224.4211 H   0  0  0  0  0  0  0  0  0  0  0  0
  140.0938   67.0371  226.6270 H   0  0  0  0  0  0  0  0  0  0  0  0
  141.0543   68.3145  228.2865 H   0  0  0  0  0  0  0  0  0  0  0  0
  141.7300   70.4674  229.2744 H   0  0  0  0  0  0  0  0  0  0  0  0
  141.2464   72.5991  228.0332 H   0  0  0  0  0  0  0  0  0  0  0  0
  140.1118   72.4709  225.8659 H   0  0  0  0  0  0  0  0  0  0  0  0
  138.5924   74.0776  219.3459 H   0  0  0  0  0  0  0  0  0  0  0  0
  138.2444   75.1641  220.7003 H   0  0  0  0  0  0  0  0  0  0  0  0
  141.0310   74.8963  219.4017 H   0  0  0  0  0  0  0  0  0  0  0  0
  139.8629   76.1372  218.9083 H   0  0  0  0  0  0  0  0  0  0  0  0
  1  2  1  0
  2  3  1  0
  3  4  2  0
  3  5  1  0
  5  6  1  0
  6  7  2  0
  7  8  1  0
  8  9  2  0
  9 10  1  0
 10 11  2  0
  5 12  1  0
 12 13  1  0
 13 14  1  0
 14 15  1  0
 15 16  1  0
 16 17  2  0
 16 18  1  0
 18 19  1  0
 19 20  1  0
 19 21  1  0
 21 22  2  0
 22 23  1  0
 23 24  2  0
 24 25  1  0
 25 26  2  0
 26 27  1  0
 27 28  2  0
 28 29  1  0
 29 30  2  0
 15 31  1  0
 31 32  1  0
 11  6  1  0
 32 12  1  0
 30 21  1  0
 30 25  1  0
  1 33  1  0
  1 34  1  0
  1 35  1  0
  2 36  1  0
  2 37  1  0
  7 38  1  0
  8 39  1  0
  9 40  1  0
 10 41  1  0
 11 42  1  0
 12 43  1  0
 13 44  1  0
 13 45  1  0
 14 46  1  0
 14 47  1  0
 18 48  1  0
 18 49  1  0
 19 50  1  1
 20 51  1  0
 20 52  1  0
 22 53  1  0
 23 54  1  0
 24 55  1  0
 26 56  1  0
 27 57  1  0
 28 58  1  0
 29 59  1  0
 31 60  1  0
 31 61  1  0
 32 62  1  0
 32 63  1  0
M  END
>  <smiles>  (68) 
CCC(=O)N(c1ccccc1)C1CCN(C(=O)CC(N)c2cccc3ccccc23)CC1

>  <score_type>  (68) 
oracle

>  <origin>  (68) 
autodockgpu

>  <m_score__min__energy>  (68) 
-9.3599999999999994

>  <m_primary>  (68) 
energy

>  <rmsd>  (68) 
8.772629690961898

>  <m_score__min__rmsd>  (68) 
8.772629690961898

>  <meeko>  (68) 
{"free_energy": -8.67, "intermolecular_energy": -11.05, "internal_energy": -1.88, "cluster_size": 39, "cluster_id": 2, "rank_in_cluster": 18}

>  <energy>  (68) 
-8.67

>  <cluster_rmsd>  (68) 
0.76

>  <cluster>  (68) 
2

$$$$

     RDKit          3D

 63 66  0  0  0  0  0  0  0  0999 V2000
  138.5900   75.7620  220.3830 C   0  0  0  0  0  0  0  0  0  0  0  0
  139.7810   75.0410  219.7700 C   0  0  0  0  0  0  0  0  0  0  0  0
  140.8470   75.0550  220.8030 C   0  0  0  0  0  0  0  0  0  0  0  0
  140.5470   74.7410  221.9710 O   0  0  0  0  0  0  0  0  0  0  0  0
  142.1940   75.4310  220.4280 N   0  0  0  0  0  0  0  0  0  0  0  0
  143.2350   74.4500  220.4670 C   0  0  0  0  0  0  0  0  0  0  0  0
  144.5420   74.9040  220.4290 C   0  0  0  0  0  0  0  0  0  0  0  0
  145.5740   73.9980  220.4640 C   0  0  0  0  0  0  0  0  0  0  0  0
  145.2750   72.6370  220.5380 C   0  0  0  0  0  0  0  0  0  0  0  0
  143.9620   72.1820  220.5740 C   0  0  0  0  0  0  0  0  0  0  0  0
  142.9330   73.0950  220.5400 C   0  0  0  0  0  0  0  0  0  0  0  0
  142.4870   76.7900  220.0220 C   0  0  0  0  0  0  0  0  0  0  0  0
  141.4760   77.7090  220.6330 C   0  0  0  0  0  0  0  0  0  0  0  0
  140.8370   78.6550  219.5970 C   0  0  0  0  0  0  0  0  0  0  0  0
  141.8520   79.3010  218.8090 N   0  0  0  0  0  0  0  0  0  0  0  0
  141.8500   80.7080  218.5100 C   0  0  0  0  0  0  0  0  0  0  0  0
  142.8160   81.1270  217.8260 O   0  0  0  0  0  0  0  0  0  0  0  0
  140.8260   81.6460  218.9420 C   0  0  0  0  0  0  0  0  0  0  0  0
  141.0880   82.3590  220.2400 C   0  0  1  0  0  0  0  0  0  0  0  0
  140.6550   83.7350  220.0600 N   0  0  0  0  0  0  0  0  0  0  0  0
  140.3590   81.7650  221.3470 C   0  0  0  0  0  0  0  0  0  0  0  0
  139.0470   82.0640  221.6360 C   0  0  0  0  0  0  0  0  0  0  0  0
  138.3440   81.5210  222.6860 C   0  0  0  0  0  0  0  0  0  0  0  0
  138.9710   80.6190  223.5190 C   0  0  0  0  0  0  0  0  0  0  0  0
  140.2810   80.3000  223.2600 C   0  0  0  0  0  0  0  0  0  0  0  0
  140.8960   79.4040  224.1020 C   0  0  0  0  0  0  0  0  0  0  0  0
  142.2020   79.0300  223.9240 C   0  0  0  0  0  0  0  0  0  0  0  0
  142.9260   79.5690  222.8660 C   0  0  0  0  0  0  0  0  0  0  0  0
  142.2910   80.4580  222.0420 C   0  0  0  0  0  0  0  0  0  0  0  0
  140.9770   80.8550  222.1940 C   0  0  0  0  0  0  0  0  0  0  0  0
  142.9290   78.4410  218.3090 C   0  0  0  0  0  0  0  0  0  0  0  0
  142.4630   77.0090  218.5400 C   0  0  0  0  0  0  0  0  0  0  0  0
  138.6604   75.7194  221.4799 H   0  0  0  0  0  0  0  0  0  0  0  0
  138.5893   76.8123  220.0562 H   0  0  0  0  0  0  0  0  0  0  0  0
  137.6590   75.2757  220.0562 H   0  0  0  0  0  0  0  0  0  0  0  0
  139.5105   74.0058  219.5146 H   0  0  0  0  0  0  0  0  0  0  0  0
  140.1135   75.5307  218.8428 H   0  0  0  0  0  0  0  0  0  0  0  0
  144.7527   75.9821  220.3712 H   0  0  0  0  0  0  0  0  0  0  0  0
  146.6191   74.3398  220.4342 H   0  0  0  0  0  0  0  0  0  0  0  0
  146.0975   71.9072  220.5685 H   0  0  0  0  0  0  0  0  0  0  0  0
  143.7480   71.1044  220.6291 H   0  0  0  0  0  0  0  0  0  0  0  0
  141.8865   72.7575  220.5701 H   0  0  0  0  0  0  0  0  0  0  0  0
  143.5115   76.9942  220.3665 H   0  0  0  0  0  0  0  0  0  0  0  0
  140.6822   77.1035  221.0948 H   0  0  0  0  0  0  0  0  0  0  0  0
  141.9953   78.3301  221.3777 H   0  0  0  0  0  0  0  0  0  0  0  0
  140.1794   78.0739  218.9337 H   0  0  0  0  0  0  0  0  0  0  0  0
  140.2571   79.4239  220.1285 H   0  0  0  0  0  0  0  0  0  0  0  0
  140.7150   82.4079  218.1564 H   0  0  0  0  0  0  0  0  0  0  0  0
  139.9239   81.0405  219.1140 H   0  0  0  0  0  0  0  0  0  0  0  0
  142.1577   82.2893  220.4869 H   0  0  0  0  0  0  0  0  0  0  0  0
  140.5920   84.2430  220.9710 H   0  0  0  0  0  0  0  0  0  0  0  0
  139.8370   83.8340  219.4590 H   0  0  0  0  0  0  0  0  0  0  0  0
  138.5275   82.7832  220.9857 H   0  0  0  0  0  0  0  0  0  0  0  0
  137.2949   81.8028  222.8589 H   0  0  0  0  0  0  0  0  0  0  0  0
  138.4365   80.1674  224.3677 H   0  0  0  0  0  0  0  0  0  0  0  0
  140.3252   78.9766  224.9396 H   0  0  0  0  0  0  0  0  0  0  0  0
  142.6728   78.3111  224.6106 H   0  0  0  0  0  0  0  0  0  0  0  0
  143.9763   79.2894  222.6968 H   0  0  0  0  0  0  0  0  0  0  0  0
  142.8638   80.8837  221.2050 H   0  0  0  0  0  0  0  0  0  0  0  0
  143.0952   78.6208  217.2366 H   0  0  0  0  0  0  0  0  0  0  0  0
  143.8794   78.6440  218.8244 H   0  0  0  0  0  0  0  0  0  0  0  0
  141.4426   76.8737  218.1519 H   0  0  0  0  0  0  0  0  0  0  0  0
  143.1127   76.2895  218.0201 H   0  0  0  0  0  0  0  0  0  0  0  0
  1  2  1  0
  2  3  1  0
  3  4  2  0
  3  5  1  0
  5  6  1  0
  6  7  2  0
  7  8  1  0
  8  9  2  0
  9 10  1  0
 10 11  2  0
  5 12  1  0
 12 13  1  0
 13 14  1  0
 14 15  1  0
 15 16  1  0
 16 17  2  0
 16 18  1  0
 18 19  1  0
 19 20  1  0
 19 21  1  0
 21 22  2  0
 22 23  1  0
 23 24  2  0
 24 25  1  0
 25 26  2  0
 26 27  1  0
 27 28  2  0
 28 29  1  0
 29 30  2  0
 15 31  1  0
 31 32  1  0
 11  6  1  0
 32 12  1  0
 30 21  1  0
 30 25  1  0
  1 33  1  0
  1 34  1  0
  1 35  1  0
  2 36  1  0
  2 37  1  0
  7 38  1  0
  8 39  1  0
  9 40  1  0
 10 41  1  0
 11 42  1  0
 12 43  1  0
 13 44  1  0
 13 45  1  0
 14 46  1  0
 14 47  1  0
 18 48  1  0
 18 49  1  0
 19 50  1  1
 20 51  1  0
 20 52  1  0
 22 53  1  0
 23 54  1  0
 24 55  1  0
 26 56  1  0
 27 57  1  0
 28 58  1  0
 29 59  1  0
 31 60  1  0
 31 61  1  0
 32 62  1  0
 32 63  1  0
M  END
>  <smiles>  (69) 
CCC(=O)N(c1ccccc1)C1CCN(C(=O)CC(N)c2cccc3ccccc23)CC1

>  <score_type>  (69) 
oracle

>  <origin>  (69) 
autodockgpu

>  <m_score__min__energy>  (69) 
-9.3599999999999994

>  <m_primary>  (69) 
energy

>  <rmsd>  (69) 
3.036090672746993

>  <m_score__min__rmsd>  (69) 
3.036090672746993

>  <meeko>  (69) 
{"free_energy": -7.29, "intermolecular_energy": -9.68, "internal_energy": -2.48, "cluster_size": 2, "cluster_id": 8, "rank_in_cluster": 2}

>  <energy>  (69) 
-8.67

>  <cluster_rmsd>  (69) 
0.46

>  <cluster>  (69) 
2

$$$$

     RDKit          3D

 63 66  0  0  0  0  0  0  0  0999 V2000
  142.1990   78.7390  217.1190 C   0  0  0  0  0  0  0  0  0  0  0  0
  142.0080   79.1900  218.5590 C   0  0  0  0  0  0  0  0  0  0  0  0
  142.1690   77.9740  219.3960 C   0  0  0  0  0  0  0  0  0  0  0  0
  143.0400   77.1430  219.0740 O   0  0  0  0  0  0  0  0  0  0  0  0
  141.3190   77.7900  220.5530 N   0  0  0  0  0  0  0  0  0  0  0  0
  141.2620   78.8110  221.5540 C   0  0  0  0  0  0  0  0  0  0  0  0
  142.4100   79.0440  222.2940 C   0  0  0  0  0  0  0  0  0  0  0  0
  142.4020   80.0140  223.2660 C   0  0  0  0  0  0  0  0  0  0  0  0
  141.2310   80.7430  223.4830 C   0  0  0  0  0  0  0  0  0  0  0  0
  140.0810   80.5070  222.7400 C   0  0  0  0  0  0  0  0  0  0  0  0
  140.0950   79.5350  221.7680 C   0  0  0  0  0  0  0  0  0  0  0  0
  140.5350   76.5810  220.6980 C   0  0  0  0  0  0  0  0  0  0  0  0
  141.0120   75.8350  221.9040 C   0  0  0  0  0  0  0  0  0  0  0  0
  141.3060   74.3520  221.6030 C   0  0  0  0  0  0  0  0  0  0  0  0
  140.2000   73.7480  220.9090 N   0  0  0  0  0  0  0  0  0  0  0  0
  139.6530   72.4630  221.2520 C   0  0  0  0  0  0  0  0  0  0  0  0
  138.6750   72.0790  220.5650 O   0  0  0  0  0  0  0  0  0  0  0  0
  140.1530   71.6070  222.3170 C   0  0  0  0  0  0  0  0  0  0  0  0
  139.3730   71.6290  223.6030 C   0  0  1  0  0  0  0  0  0  0  0  0
  137.9800   71.8390  223.2490 N   0  0  0  0  0  0  0  0  0  0  0  0
  139.5020   70.3850  224.3410 C   0  0  0  0  0  0  0  0  0  0  0  0
  139.0880   69.1680  223.8480 C   0  0  0  0  0  0  0  0  0  0  0  0
  139.1900   67.9810  224.5370 C   0  0  0  0  0  0  0  0  0  0  0  0
  139.7360   67.9840  225.8030 C   0  0  0  0  0  0  0  0  0  0  0  0
  140.1570   69.1820  226.3250 C   0  0  0  0  0  0  0  0  0  0  0  0
  140.6930   69.1710  227.5910 C   0  0  0  0  0  0  0  0  0  0  0  0
  141.1350   70.3190  228.1940 C   0  0  0  0  0  0  0  0  0  0  0  0
  141.0400   71.5270  227.5110 C   0  0  0  0  0  0  0  0  0  0  0  0
  140.5030   71.5110  226.2530 C   0  0  0  0  0  0  0  0  0  0  0  0
  140.0490   70.3720  225.6170 C   0  0  0  0  0  0  0  0  0  0  0  0
  139.6280   74.5230  219.8040 C   0  0  0  0  0  0  0  0  0  0  0  0
  140.6160   75.6500  219.5270 C   0  0  0  0  0  0  0  0  0  0  0  0
  142.6280   77.7262  217.1058 H   0  0  0  0  0  0  0  0  0  0  0  0
  141.2266   78.7321  216.6049 H   0  0  0  0  0  0  0  0  0  0  0  0
  142.8806   79.4326  216.6049 H   0  0  0  0  0  0  0  0  0  0  0  0
  142.7653   79.9413  218.8274 H   0  0  0  0  0  0  0  0  0  0  0  0
  141.0211   79.6526  218.7078 H   0  0  0  0  0  0  0  0  0  0  0  0
  143.3205   78.4567  222.1044 H   0  0  0  0  0  0  0  0  0  0  0  0
  143.3035   80.2135  223.8640 H   0  0  0  0  0  0  0  0  0  0  0  0
  141.2188   81.5218  224.2598 H   0  0  0  0  0  0  0  0  0  0  0  0
  139.1685   81.0920  222.9276 H   0  0  0  0  0  0  0  0  0  0  0  0
  139.1954   79.3331  221.1681 H   0  0  0  0  0  0  0  0  0  0  0  0
  139.4882   76.9076  220.7846 H   0  0  0  0  0  0  0  0  0  0  0  0
  141.9339   76.3100  222.2708 H   0  0  0  0  0  0  0  0  0  0  0  0
  140.2112   75.8707  222.6573 H   0  0  0  0  0  0  0  0  0  0  0  0
  142.2076   74.2819  220.9768 H   0  0  0  0  0  0  0  0  0  0  0  0
  141.4612   73.8208  222.5537 H   0  0  0  0  0  0  0  0  0  0  0  0
  140.1565   70.5724  221.9434 H   0  0  0  0  0  0  0  0  0  0  0  0
  141.1497   71.9987  222.5684 H   0  0  0  0  0  0  0  0  0  0  0  0
  139.7597   72.4282  224.2524 H   0  0  0  0  0  0  0  0  0  0  0  0
  137.7300   71.3550  222.3560 H   0  0  0  0  0  0  0  0  0  0  0  0
  137.6820   72.8130  223.3040 H   0  0  0  0  0  0  0  0  0  0  0  0
  138.6481   69.1428  222.8401 H   0  0  0  0  0  0  0  0  0  0  0  0
  138.8404   67.0418  224.0834 H   0  0  0  0  0  0  0  0  0  0  0  0
  139.8317   67.0519  226.3792 H   0  0  0  0  0  0  0  0  0  0  0  0
  140.7688   68.2169  228.1331 H   0  0  0  0  0  0  0  0  0  0  0  0
  141.5606   70.2858  229.2078 H   0  0  0  0  0  0  0  0  0  0  0  0
  141.3859   72.4658  227.9682 H   0  0  0  0  0  0  0  0  0  0  0  0
  140.4279   72.4665  225.7132 H   0  0  0  0  0  0  0  0  0  0  0  0
  139.5113   73.8891  218.9126 H   0  0  0  0  0  0  0  0  0  0  0  0
  138.6317   74.9136  220.0587 H   0  0  0  0  0  0  0  0  0  0  0  0
  141.6351   75.2474  219.4309 H   0  0  0  0  0  0  0  0  0  0  0  0
  140.3755   76.1691  218.5875 H   0  0  0  0  0  0  0  0  0  0  0  0
  1  2  1  0
  2  3  1  0
  3  4  2  0
  3  5  1  0
  5  6  1  0
  6  7  2  0
  7  8  1  0
  8  9  2  0
  9 10  1  0
 10 11  2  0
  5 12  1  0
 12 13  1  0
 13 14  1  0
 14 15  1  0
 15 16  1  0
 16 17  2  0
 16 18  1  0
 18 19  1  0
 19 20  1  0
 19 21  1  0
 21 22  2  0
 22 23  1  0
 23 24  2  0
 24 25  1  0
 25 26  2  0
 26 27  1  0
 27 28  2  0
 28 29  1  0
 29 30  2  0
 15 31  1  0
 31 32  1  0
 11  6  1  0
 32 12  1  0
 30 21  1  0
 30 25  1  0
  1 33  1  0
  1 34  1  0
  1 35  1  0
  2 36  1  0
  2 37  1  0
  7 38  1  0
  8 39  1  0
  9 40  1  0
 10 41  1  0
 11 42  1  0
 12 43  1  0
 13 44  1  0
 13 45  1  0
 14 46  1  0
 14 47  1  0
 18 48  1  0
 18 49  1  0
 19 50  1  1
 20 51  1  0
 20 52  1  0
 22 53  1  0
 23 54  1  0
 24 55  1  0
 26 56  1  0
 27 57  1  0
 28 58  1  0
 29 59  1  0
 31 60  1  0
 31 61  1  0
 32 62  1  0
 32 63  1  0
M  END
>  <smiles>  (70) 
CCC(=O)N(c1ccccc1)C1CCN(C(=O)CC(N)c2cccc3ccccc23)CC1

>  <score_type>  (70) 
oracle

>  <origin>  (70) 
autodockgpu

>  <m_score__min__energy>  (70) 
-9.3599999999999994

>  <m_primary>  (70) 
energy

>  <rmsd>  (70) 
8.641853095836407

>  <m_score__min__rmsd>  (70) 
8.641853095836407

>  <meeko>  (70) 
{"free_energy": -8.41, "intermolecular_energy": -10.79, "internal_energy": -2.0, "cluster_size": 39, "cluster_id": 2, "rank_in_cluster": 31}

>  <energy>  (70) 
-8.67

>  <cluster_rmsd>  (70) 
0.71

>  <cluster>  (70) 
2

$$$$

     RDKit          3D

 63 66  0  0  0  0  0  0  0  0999 V2000
  140.7270   78.9870  218.1760 C   0  0  0  0  0  0  0  0  0  0  0  0
  142.1750   78.8170  218.6090 C   0  0  0  0  0  0  0  0  0  0  0  0
  142.1910   77.6720  219.5530 C   0  0  0  0  0  0  0  0  0  0  0  0
  142.9770   76.7300  219.3310 O   0  0  0  0  0  0  0  0  0  0  0  0
  141.3020   77.6800  220.6950 N   0  0  0  0  0  0  0  0  0  0  0  0
  141.3170   78.7970  221.5900 C   0  0  0  0  0  0  0  0  0  0  0  0
  142.4850   79.0370  222.2930 C   0  0  0  0  0  0  0  0  0  0  0  0
  142.5450   80.0980  223.1630 C   0  0  0  0  0  0  0  0  0  0  0  0
  141.4200   80.9100  223.3160 C   0  0  0  0  0  0  0  0  0  0  0  0
  140.2480   80.6680  222.6100 C   0  0  0  0  0  0  0  0  0  0  0  0
  140.1940   79.6040  221.7400 C   0  0  0  0  0  0  0  0  0  0  0  0
  140.4080   76.5660  220.9340 C   0  0  0  0  0  0  0  0  0  0  0  0
  140.9970   75.6890  221.9930 C   0  0  0  0  0  0  0  0  0  0  0  0
  141.0370   74.2050  221.5780 C   0  0  0  0  0  0  0  0  0  0  0  0
  139.7540   73.7850  221.0810 N   0  0  0  0  0  0  0  0  0  0  0  0
  139.1170   72.5540  221.4640 C   0  0  0  0  0  0  0  0  0  0  0  0
  137.9890   72.3360  220.9600 O   0  0  0  0  0  0  0  0  0  0  0  0
  139.6880   71.5750  222.3770 C   0  0  0  0  0  0  0  0  0  0  0  0
  139.0720   71.5120  223.7480 C   0  0  1  0  0  0  0  0  0  0  0  0
  137.6410   71.6940  223.5770 N   0  0  0  0  0  0  0  0  0  0  0  0
  139.3220   70.2390  224.4010 C   0  0  0  0  0  0  0  0  0  0  0  0
  138.9800   69.0260  223.8470 C   0  0  0  0  0  0  0  0  0  0  0  0
  139.1970   67.8100  224.4540 C   0  0  0  0  0  0  0  0  0  0  0  0
  139.7910   67.7780  225.6980 C   0  0  0  0  0  0  0  0  0  0  0  0
  140.1440   68.9710  226.2790 C   0  0  0  0  0  0  0  0  0  0  0  0
  140.7290   68.9240  227.5220 C   0  0  0  0  0  0  0  0  0  0  0  0
  141.1090   70.0640  228.1810 C   0  0  0  0  0  0  0  0  0  0  0  0
  140.8970   71.3000  227.5800 C   0  0  0  0  0  0  0  0  0  0  0  0
  140.3130   71.3200  226.3430 C   0  0  0  0  0  0  0  0  0  0  0  0
  139.9190   70.1900  225.6530 C   0  0  0  0  0  0  0  0  0  0  0  0
  139.0950   74.6950  220.1380 C   0  0  0  0  0  0  0  0  0  0  0  0
  140.1530   75.7120  219.7290 C   0  0  0  0  0  0  0  0  0  0  0  0
  140.0847   79.0624  219.0658 H   0  0  0  0  0  0  0  0  0  0  0  0
  140.6293   79.9028  217.5745 H   0  0  0  0  0  0  0  0  0  0  0  0
  140.4198   78.1188  217.5745 H   0  0  0  0  0  0  0  0  0  0  0  0
  142.8112   78.6023  217.7377 H   0  0  0  0  0  0  0  0  0  0  0  0
  142.5633   79.7318  219.0805 H   0  0  0  0  0  0  0  0  0  0  0  0
  143.3586   78.3828  222.1559 H   0  0  0  0  0  0  0  0  0  0  0  0
  143.4647   80.3045  223.7300 H   0  0  0  0  0  0  0  0  0  0  0  0
  141.4623   81.7611  224.0115 H   0  0  0  0  0  0  0  0  0  0  0  0
  139.3727   81.3203  222.7454 H   0  0  0  0  0  0  0  0  0  0  0  0
  139.2761   79.3943  221.1712 H   0  0  0  0  0  0  0  0  0  0  0  0
  139.4462   77.0085  221.2326 H   0  0  0  0  0  0  0  0  0  0  0  0
  142.0240   76.0254  222.1982 H   0  0  0  0  0  0  0  0  0  0  0  0
  140.3585   75.7687  222.8852 H   0  0  0  0  0  0  0  0  0  0  0  0
  141.7922   74.0700  220.7897 H   0  0  0  0  0  0  0  0  0  0  0  0
  141.2936   73.5968  222.4579 H   0  0  0  0  0  0  0  0  0  0  0  0
  139.5822   70.5824  221.9149 H   0  0  0  0  0  0  0  0  0  0  0  0
  140.7300   71.8901  222.5349 H   0  0  0  0  0  0  0  0  0  0  0  0
  139.5155   72.2916  224.3849 H   0  0  0  0  0  0  0  0  0  0  0  0
  137.2970   71.2550  222.6930 H   0  0  0  0  0  0  0  0  0  0  0  0
  137.3270   72.6530  223.7260 H   0  0  0  0  0  0  0  0  0  0  0  0
  138.5028   69.0289  222.8559 H   0  0  0  0  0  0  0  0  0  0  0  0
  138.9006   66.8763  223.9536 H   0  0  0  0  0  0  0  0  0  0  0  0
  139.9770   66.8228  226.2109 H   0  0  0  0  0  0  0  0  0  0  0  0
  140.8963   67.9473  227.9996 H   0  0  0  0  0  0  0  0  0  0  0  0
  141.5767   70.0020  229.1747 H   0  0  0  0  0  0  0  0  0  0  0  0
  141.1899   72.2330  228.0838 H   0  0  0  0  0  0  0  0  0  0  0  0
  140.1466   72.2979  225.8677 H   0  0  0  0  0  0  0  0  0  0  0  0
  138.7372   74.1404  219.2580 H   0  0  0  0  0  0  0  0  0  0  0  0
  138.2205   75.1833  220.5928 H   0  0  0  0  0  0  0  0  0  0  0  0
  141.0768   75.1983  219.4245 H   0  0  0  0  0  0  0  0  0  0  0  0
  139.8146   76.3178  218.8755 H   0  0  0  0  0  0  0  0  0  0  0  0
  1  2  1  0
  2  3  1  0
  3  4  2  0
  3  5  1  0
  5  6  1  0
  6  7  2  0
  7  8  1  0
  8  9  2  0
  9 10  1  0
 10 11  2  0
  5 12  1  0
 12 13  1  0
 13 14  1  0
 14 15  1  0
 15 16  1  0
 16 17  2  0
 16 18  1  0
 18 19  1  0
 19 20  1  0
 19 21  1  0
 21 22  2  0
 22 23  1  0
 23 24  2  0
 24 25  1  0
 25 26  2  0
 26 27  1  0
 27 28  2  0
 28 29  1  0
 29 30  2  0
 15 31  1  0
 31 32  1  0
 11  6  1  0
 32 12  1  0
 30 21  1  0
 30 25  1  0
  1 33  1  0
  1 34  1  0
  1 35  1  0
  2 36  1  0
  2 37  1  0
  7 38  1  0
  8 39  1  0
  9 40  1  0
 10 41  1  0
 11 42  1  0
 12 43  1  0
 13 44  1  0
 13 45  1  0
 14 46  1  0
 14 47  1  0
 18 48  1  0
 18 49  1  0
 19 50  1  1
 20 51  1  0
 20 52  1  0
 22 53  1  0
 23 54  1  0
 24 55  1  0
 26 56  1  0
 27 57  1  0
 28 58  1  0
 29 59  1  0
 31 60  1  0
 31 61  1  0
 32 62  1  0
 32 63  1  0
M  END
>  <smiles>  (71) 
CCC(=O)N(c1ccccc1)C1CCN(C(=O)CC(N)c2cccc3ccccc23)CC1

>  <score_type>  (71) 
oracle

>  <origin>  (71) 
autodockgpu

>  <m_score__min__energy>  (71) 
-9.3599999999999994

>  <m_primary>  (71) 
energy

>  <rmsd>  (71) 
8.734573057317519

>  <m_score__min__rmsd>  (71) 
8.734573057317519

>  <meeko>  (71) 
{"free_energy": -8.34, "intermolecular_energy": -10.73, "internal_energy": -2.1, "cluster_size": 39, "cluster_id": 2, "rank_in_cluster": 34}

>  <energy>  (71) 
-8.64

>  <cluster_rmsd>  (71) 
0.89

>  <cluster>  (71) 
2

$$$$

     RDKit          3D

 63 66  0  0  0  0  0  0  0  0999 V2000
  142.8140   77.7280  218.0740 C   0  0  0  0  0  0  0  0  0  0  0  0
  142.1850   78.9720  218.6820 C   0  0  0  0  0  0  0  0  0  0  0  0
  140.8080   78.5860  219.0800 C   0  0  0  0  0  0  0  0  0  0  0  0
  139.8800   78.7770  218.2700 O   0  0  0  0  0  0  0  0  0  0  0  0
  140.5830   78.0040  220.3860 N   0  0  0  0  0  0  0  0  0  0  0  0
  140.8820   78.7680  221.5590 C   0  0  0  0  0  0  0  0  0  0  0  0
  139.8140   79.2860  222.2720 C   0  0  0  0  0  0  0  0  0  0  0  0
  140.0540   80.0260  223.4040 C   0  0  0  0  0  0  0  0  0  0  0  0
  141.3740   80.2360  223.8070 C   0  0  0  0  0  0  0  0  0  0  0  0
  142.4440   79.7160  223.0890 C   0  0  0  0  0  0  0  0  0  0  0  0
  142.1980   78.9750  221.9570 C   0  0  0  0  0  0  0  0  0  0  0  0
  140.0640   76.6570  220.5060 C   0  0  0  0  0  0  0  0  0  0  0  0
  140.4790   76.0920  221.8280 C   0  0  0  0  0  0  0  0  0  0  0  0
  141.1310   74.7020  221.6990 C   0  0  0  0  0  0  0  0  0  0  0  0
  140.3150   73.8340  220.8930 N   0  0  0  0  0  0  0  0  0  0  0  0
  140.0060   72.4750  221.2500 C   0  0  0  0  0  0  0  0  0  0  0  0
  139.2640   71.8510  220.4530 O   0  0  0  0  0  0  0  0  0  0  0  0
  140.4900   71.8030  222.4460 C   0  0  0  0  0  0  0  0  0  0  0  0
  139.5400   71.7640  223.6110 C   0  0  1  0  0  0  0  0  0  0  0  0
  138.2060   71.9810  223.0770 N   0  0  0  0  0  0  0  0  0  0  0  0
  139.5800   70.4890  224.3060 C   0  0  0  0  0  0  0  0  0  0  0  0
  139.1370   69.3100  223.7480 C   0  0  0  0  0  0  0  0  0  0  0  0
  139.1550   68.0950  224.3940 C   0  0  0  0  0  0  0  0  0  0  0  0
  139.6410   68.0270  225.6820 C   0  0  0  0  0  0  0  0  0  0  0  0
  140.0900   69.1850  226.2680 C   0  0  0  0  0  0  0  0  0  0  0  0
  140.5650   69.1030  227.5560 C   0  0  0  0  0  0  0  0  0  0  0  0
  141.0290   70.2080  228.2220 C   0  0  0  0  0  0  0  0  0  0  0  0
  141.0180   71.4420  227.5830 C   0  0  0  0  0  0  0  0  0  0  0  0
  140.5390   71.4970  226.3020 C   0  0  0  0  0  0  0  0  0  0  0  0
  140.0660   70.4040  225.6030 C   0  0  0  0  0  0  0  0  0  0  0  0
  139.7860   74.4100  219.6520 C   0  0  0  0  0  0  0  0  0  0  0  0
  140.5410   75.7160  219.4410 C   0  0  0  0  0  0  0  0  0  0  0  0
  143.1527   77.0581  218.8780 H   0  0  0  0  0  0  0  0  0  0  0  0
  142.0706   77.2078  217.4521 H   0  0  0  0  0  0  0  0  0  0  0  0
  143.6736   78.0183  217.4521 H   0  0  0  0  0  0  0  0  0  0  0  0
  142.7590   79.2987  219.5617 H   0  0  0  0  0  0  0  0  0  0  0  0
  142.1767   79.8079  217.9670 H   0  0  0  0  0  0  0  0  0  0  0  0
  138.7825   79.1065  221.9348 H   0  0  0  0  0  0  0  0  0  0  0  0
  139.2192   80.4466  223.9839 H   0  0  0  0  0  0  0  0  0  0  0  0
  141.5716   80.8266  224.7137 H   0  0  0  0  0  0  0  0  0  0  0  0
  143.4768   79.8952  223.4226 H   0  0  0  0  0  0  0  0  0  0  0  0
  143.0302   78.5522  221.3749 H   0  0  0  0  0  0  0  0  0  0  0  0
  138.9723   76.7433  220.4028 H   0  0  0  0  0  0  0  0  0  0  0  0
  141.2016   76.7784  222.2935 H   0  0  0  0  0  0  0  0  0  0  0  0
  139.5732   75.9798  222.4419 H   0  0  0  0  0  0  0  0  0  0  0  0
  142.1197   74.8085  221.2288 H   0  0  0  0  0  0  0  0  0  0  0  0
  141.2327   74.2630  222.7025 H   0  0  0  0  0  0  0  0  0  0  0  0
  140.7318   70.7649  222.1741 H   0  0  0  0  0  0  0  0  0  0  0  0
  141.3539   72.3920  222.7877 H   0  0  0  0  0  0  0  0  0  0  0  0
  139.8244   72.5363  224.3408 H   0  0  0  0  0  0  0  0  0  0  0  0
  138.0590   71.4660  222.1800 H   0  0  0  0  0  0  0  0  0  0  0  0
  137.9250   72.9610  223.0570 H   0  0  0  0  0  0  0  0  0  0  0  0
  138.7440   69.3417  222.7211 H   0  0  0  0  0  0  0  0  0  0  0  0
  138.7863   67.1899  223.8890 H   0  0  0  0  0  0  0  0  0  0  0  0
  139.6685   67.0712  226.2258 H   0  0  0  0  0  0  0  0  0  0  0  0
  140.5729   68.1274  228.0641 H   0  0  0  0  0  0  0  0  0  0  0  0
  141.4061   70.1187  229.2515 H   0  0  0  0  0  0  0  0  0  0  0  0
  141.3830   72.3468  228.0911 H   0  0  0  0  0  0  0  0  0  0  0  0
  140.5303   72.4742  225.7971 H   0  0  0  0  0  0  0  0  0  0  0  0
  139.9612   73.7265  218.8081 H   0  0  0  0  0  0  0  0  0  0  0  0
  138.7007   74.5774  219.7157 H   0  0  0  0  0  0  0  0  0  0  0  0
  141.6240   75.5493  219.5377 H   0  0  0  0  0  0  0  0  0  0  0  0
  140.3580   76.1248  218.4363 H   0  0  0  0  0  0  0  0  0  0  0  0
  1  2  1  0
  2  3  1  0
  3  4  2  0
  3  5  1  0
  5  6  1  0
  6  7  2  0
  7  8  1  0
  8  9  2  0
  9 10  1  0
 10 11  2  0
  5 12  1  0
 12 13  1  0
 13 14  1  0
 14 15  1  0
 15 16  1  0
 16 17  2  0
 16 18  1  0
 18 19  1  0
 19 20  1  0
 19 21  1  0
 21 22  2  0
 22 23  1  0
 23 24  2  0
 24 25  1  0
 25 26  2  0
 26 27  1  0
 27 28  2  0
 28 29  1  0
 29 30  2  0
 15 31  1  0
 31 32  1  0
 11  6  1  0
 32 12  1  0
 30 21  1  0
 30 25  1  0
  1 33  1  0
  1 34  1  0
  1 35  1  0
  2 36  1  0
  2 37  1  0
  7 38  1  0
  8 39  1  0
  9 40  1  0
 10 41  1  0
 11 42  1  0
 12 43  1  0
 13 44  1  0
 13 45  1  0
 14 46  1  0
 14 47  1  0
 18 48  1  0
 18 49  1  0
 19 50  1  1
 20 51  1  0
 20 52  1  0
 22 53  1  0
 23 54  1  0
 24 55  1  0
 26 56  1  0
 27 57  1  0
 28 58  1  0
 29 59  1  0
 31 60  1  0
 31 61  1  0
 32 62  1  0
 32 63  1  0
M  END
>  <smiles>  (72) 
CCC(=O)N(c1ccccc1)C1CCN(C(=O)CC(N)c2cccc3ccccc23)CC1

>  <score_type>  (72) 
oracle

>  <origin>  (72) 
autodockgpu

>  <m_score__min__energy>  (72) 
-9.3599999999999994

>  <m_primary>  (72) 
energy

>  <rmsd>  (72) 
8.546670779831858

>  <m_score__min__rmsd>  (72) 
8.546670779831858

>  <meeko>  (72) 
{"free_energy": -8.17, "intermolecular_energy": -10.56, "internal_energy": -2.04, "cluster_size": 39, "cluster_id": 2, "rank_in_cluster": 36}

>  <energy>  (72) 
-8.59

>  <cluster_rmsd>  (72) 
0.75

>  <cluster>  (72) 
2

$$$$

     RDKit          3D

 63 66  0  0  0  0  0  0  0  0999 V2000
  143.3270   75.2590  219.7260 C   0  0  0  0  0  0  0  0  0  0  0  0
  143.3250   76.7610  219.4850 C   0  0  0  0  0  0  0  0  0  0  0  0
  141.8980   77.1650  219.4150 C   0  0  0  0  0  0  0  0  0  0  0  0
  141.4530   77.5860  218.3300 O   0  0  0  0  0  0  0  0  0  0  0  0
  141.0710   77.0600  220.5980 N   0  0  0  0  0  0  0  0  0  0  0  0
  141.1120   78.1020  221.5790 C   0  0  0  0  0  0  0  0  0  0  0  0
  140.0340   78.2070  222.4430 C   0  0  0  0  0  0  0  0  0  0  0  0
  140.0300   79.1910  223.4010 C   0  0  0  0  0  0  0  0  0  0  0  0
  141.1170   80.0630  223.4780 C   0  0  0  0  0  0  0  0  0  0  0  0
  142.1970   79.9560  222.6100 C   0  0  0  0  0  0  0  0  0  0  0  0
  142.1960   78.9680  221.6530 C   0  0  0  0  0  0  0  0  0  0  0  0
  140.2130   75.9100  220.7910 C   0  0  0  0  0  0  0  0  0  0  0  0
  140.7020   75.1310  221.9710 C   0  0  0  0  0  0  0  0  0  0  0  0
  140.8730   73.6310  221.6590 C   0  0  0  0  0  0  0  0  0  0  0  0
  139.6910   73.1070  221.0290 N   0  0  0  0  0  0  0  0  0  0  0  0
  139.0740   71.8640  221.4050 C   0  0  0  0  0  0  0  0  0  0  0  0
  138.0350   71.5510  220.7750 O   0  0  0  0  0  0  0  0  0  0  0  0
  139.5700   70.9750  222.4450 C   0  0  0  0  0  0  0  0  0  0  0  0
  139.1410   71.2950  223.8500 C   0  0  1  0  0  0  0  0  0  0  0  0
  137.7000   71.4840  223.8190 N   0  0  0  0  0  0  0  0  0  0  0  0
  139.4680   70.2280  224.7780 C   0  0  0  0  0  0  0  0  0  0  0  0
  139.1550   68.9060  224.5500 C   0  0  0  0  0  0  0  0  0  0  0  0
  139.4450   67.8820  225.4230 C   0  0  0  0  0  0  0  0  0  0  0  0
  140.0880   68.1720  226.6070 C   0  0  0  0  0  0  0  0  0  0  0  0
  140.4130   69.4810  226.8660 C   0  0  0  0  0  0  0  0  0  0  0  0
  141.0470   69.7550  228.0540 C   0  0  0  0  0  0  0  0  0  0  0  0
  141.4050   71.0320  228.4000 C   0  0  0  0  0  0  0  0  0  0  0  0
  141.1200   72.0780  227.5280 C   0  0  0  0  0  0  0  0  0  0  0  0
  140.4880   71.7780  226.3520 C   0  0  0  0  0  0  0  0  0  0  0  0
  140.1140   70.5030  225.9750 C   0  0  0  0  0  0  0  0  0  0  0  0
  139.1150   73.9220  219.9540 C   0  0  0  0  0  0  0  0  0  0  0  0
  140.1630   74.9760  219.6190 C   0  0  0  0  0  0  0  0  0  0  0  0
  143.3273   75.0613  220.8081 H   0  0  0  0  0  0  0  0  0  0  0  0
  142.4294   74.8136  219.2721 H   0  0  0  0  0  0  0  0  0  0  0  0
  144.2257   74.8160  219.2721 H   0  0  0  0  0  0  0  0  0  0  0  0
  143.8288   77.2812  220.3130 H   0  0  0  0  0  0  0  0  0  0  0  0
  143.8618   77.0204  218.5606 H   0  0  0  0  0  0  0  0  0  0  0  0
  139.1884   77.5081  222.3623 H   0  0  0  0  0  0  0  0  0  0  0  0
  139.1836   79.2903  224.0965 H   0  0  0  0  0  0  0  0  0  0  0  0
  141.1189   80.8531  224.2433 H   0  0  0  0  0  0  0  0  0  0  0  0
  143.0437   80.6540  222.6874 H   0  0  0  0  0  0  0  0  0  0  0  0
  143.0411   78.8650  220.9564 H   0  0  0  0  0  0  0  0  0  0  0  0
  139.1985   76.3098  220.9355 H   0  0  0  0  0  0  0  0  0  0  0  0
  141.6742   75.5390  222.2846 H   0  0  0  0  0  0  0  0  0  0  0  0
  139.9487   75.2228  222.7673 H   0  0  0  0  0  0  0  0  0  0  0  0
  141.7316   73.4977  220.9844 H   0  0  0  0  0  0  0  0  0  0  0  0
  141.0421   73.0898  222.6016 H   0  0  0  0  0  0  0  0  0  0  0  0
  139.2227   69.9578  222.2112 H   0  0  0  0  0  0  0  0  0  0  0  0
  140.6637   71.0923  222.4365 H   0  0  0  0  0  0  0  0  0  0  0  0
  139.6697   72.1947  224.1981 H   0  0  0  0  0  0  0  0  0  0  0  0
  137.3150   71.3690  222.8540 H   0  0  0  0  0  0  0  0  0  0  0  0
  137.3840   72.3210  224.3070 H   0  0  0  0  0  0  0  0  0  0  0  0
  138.6409   68.6527  223.6111 H   0  0  0  0  0  0  0  0  0  0  0  0
  139.1672   66.8460  225.1789 H   0  0  0  0  0  0  0  0  0  0  0  0
  140.3343   67.3762  227.3254 H   0  0  0  0  0  0  0  0  0  0  0  0
  141.2728   68.9290  228.7444 H   0  0  0  0  0  0  0  0  0  0  0  0
  141.9120   71.2277  229.3564 H   0  0  0  0  0  0  0  0  0  0  0  0
  141.3942   73.1140  227.7762 H   0  0  0  0  0  0  0  0  0  0  0  0
  140.2634   72.6053  225.6627 H   0  0  0  0  0  0  0  0  0  0  0  0
  138.9045   73.2985  219.0725 H   0  0  0  0  0  0  0  0  0  0  0  0
  138.1646   74.3823  220.2622 H   0  0  0  0  0  0  0  0  0  0  0  0
  141.1442   74.5024  219.4677 H   0  0  0  0  0  0  0  0  0  0  0  0
  139.9083   75.5116  218.6926 H   0  0  0  0  0  0  0  0  0  0  0  0
  1  2  1  0
  2  3  1  0
  3  4  2  0
  3  5  1  0
  5  6  1  0
  6  7  2  0
  7  8  1  0
  8  9  2  0
  9 10  1  0
 10 11  2  0
  5 12  1  0
 12 13  1  0
 13 14  1  0
 14 15  1  0
 15 16  1  0
 16 17  2  0
 16 18  1  0
 18 19  1  0
 19 20  1  0
 19 21  1  0
 21 22  2  0
 22 23  1  0
 23 24  2  0
 24 25  1  0
 25 26  2  0
 26 27  1  0
 27 28  2  0
 28 29  1  0
 29 30  2  0
 15 31  1  0
 31 32  1  0
 11  6  1  0
 32 12  1  0
 30 21  1  0
 30 25  1  0
  1 33  1  0
  1 34  1  0
  1 35  1  0
  2 36  1  0
  2 37  1  0
  7 38  1  0
  8 39  1  0
  9 40  1  0
 10 41  1  0
 11 42  1  0
 12 43  1  0
 13 44  1  0
 13 45  1  0
 14 46  1  0
 14 47  1  0
 18 48  1  0
 18 49  1  0
 19 50  1  1
 20 51  1  0
 20 52  1  0
 22 53  1  0
 23 54  1  0
 24 55  1  0
 26 56  1  0
 27 57  1  0
 28 58  1  0
 29 59  1  0
 31 60  1  0
 31 61  1  0
 32 62  1  0
 32 63  1  0
M  END
>  <smiles>  (73) 
CCC(=O)N(c1ccccc1)C1CCN(C(=O)CC(N)c2cccc3ccccc23)CC1

>  <score_type>  (73) 
oracle

>  <origin>  (73) 
autodockgpu

>  <m_score__min__energy>  (73) 
-9.3599999999999994

>  <m_primary>  (73) 
energy

>  <rmsd>  (73) 
8.924605641873011

>  <m_score__min__rmsd>  (73) 
8.924605641873011

>  <meeko>  (73) 
{"free_energy": -8.68, "intermolecular_energy": -11.07, "internal_energy": -1.97, "cluster_size": 39, "cluster_id": 2, "rank_in_cluster": 16}

>  <energy>  (73) 
-8.58

>  <cluster_rmsd>  (73) 
0.79

>  <cluster>  (73) 
2

$$$$

     RDKit          3D

 63 66  0  0  0  0  0  0  0  0999 V2000
  143.3130   76.4310  219.7190 C   0  0  0  0  0  0  0  0  0  0  0  0
  142.4690   76.9320  218.5570 C   0  0  0  0  0  0  0  0  0  0  0  0
  141.3860   77.7500  219.1570 C   0  0  0  0  0  0  0  0  0  0  0  0
  140.9860   78.7540  218.5350 O   0  0  0  0  0  0  0  0  0  0  0  0
  140.8280   77.3640  220.4350 N   0  0  0  0  0  0  0  0  0  0  0  0
  140.9820   78.2330  221.5620 C   0  0  0  0  0  0  0  0  0  0  0  0
  139.8850   78.4060  222.3890 C   0  0  0  0  0  0  0  0  0  0  0  0
  139.9860   79.2310  223.4820 C   0  0  0  0  0  0  0  0  0  0  0  0
  141.1980   79.8760  223.7310 C   0  0  0  0  0  0  0  0  0  0  0  0
  142.2980   79.7030  222.9000 C   0  0  0  0  0  0  0  0  0  0  0  0
  142.1910   78.8740  221.8070 C   0  0  0  0  0  0  0  0  0  0  0  0
  140.1250   76.1060  220.5750 C   0  0  0  0  0  0  0  0  0  0  0  0
  140.5900   75.4250  221.8240 C   0  0  0  0  0  0  0  0  0  0  0  0
  141.0020   73.9600  221.5800 C   0  0  0  0  0  0  0  0  0  0  0  0
  139.9790   73.2620  220.8490 N   0  0  0  0  0  0  0  0  0  0  0  0
  139.5070   71.9500  221.2000 C   0  0  0  0  0  0  0  0  0  0  0  0
  138.5940   71.4810  220.4760 O   0  0  0  0  0  0  0  0  0  0  0  0
  140.0090   71.1590  222.3130 C   0  0  0  0  0  0  0  0  0  0  0  0
  139.4110   71.4570  223.6590 C   0  0  1  0  0  0  0  0  0  0  0  0
  137.9850   71.6510  223.4550 N   0  0  0  0  0  0  0  0  0  0  0  0
  139.6190   70.3730  224.6020 C   0  0  0  0  0  0  0  0  0  0  0  0
  139.2440   69.0710  224.3530 C   0  0  0  0  0  0  0  0  0  0  0  0
  139.4220   68.0330  225.2380 C   0  0  0  0  0  0  0  0  0  0  0  0
  140.0090   68.2850  226.4590 C   0  0  0  0  0  0  0  0  0  0  0  0
  140.3940   69.5730  226.7410 C   0  0  0  0  0  0  0  0  0  0  0  0
  140.9710   69.8110  227.9650 C   0  0  0  0  0  0  0  0  0  0  0  0
  141.3820   71.0650  228.3350 C   0  0  0  0  0  0  0  0  0  0  0  0
  141.2100   72.1250  227.4510 C   0  0  0  0  0  0  0  0  0  0  0  0
  140.6320   71.8620  226.2390 C   0  0  0  0  0  0  0  0  0  0  0  0
  140.2090   70.6110  225.8370 C   0  0  0  0  0  0  0  0  0  0  0  0
  139.4120   73.9670  219.6950 C   0  0  0  0  0  0  0  0  0  0  0  0
  140.3310   75.1540  219.4360 C   0  0  0  0  0  0  0  0  0  0  0  0
  142.8352   76.7146  220.6683 H   0  0  0  0  0  0  0  0  0  0  0  0
  143.3987   75.3357  219.6645 H   0  0  0  0  0  0  0  0  0  0  0  0
  144.3156   76.8803  219.6645 H   0  0  0  0  0  0  0  0  0  0  0  0
  143.0796   77.5458  217.8785 H   0  0  0  0  0  0  0  0  0  0  0  0
  142.0622   76.0975  217.9670 H   0  0  0  0  0  0  0  0  0  0  0  0
  138.9399   77.8866  222.1721 H   0  0  0  0  0  0  0  0  0  0  0  0
  139.1254   79.3810  224.1505 H   0  0  0  0  0  0  0  0  0  0  0  0
  141.2847   80.5371  224.6059 H   0  0  0  0  0  0  0  0  0  0  0  0
  143.2436   80.2228  223.1134 H   0  0  0  0  0  0  0  0  0  0  0  0
  143.0497   78.7207  221.1368 H   0  0  0  0  0  0  0  0  0  0  0  0
  139.0550   76.3597  220.6004 H   0  0  0  0  0  0  0  0  0  0  0  0
  141.4562   75.9732  222.2229 H   0  0  0  0  0  0  0  0  0  0  0  0
  139.7506   75.4218  222.5349 H   0  0  0  0  0  0  0  0  0  0  0  0
  141.9377   73.9390  221.0020 H   0  0  0  0  0  0  0  0  0  0  0  0
  141.1442   73.4648  222.5519 H   0  0  0  0  0  0  0  0  0  0  0  0
  139.8161   70.1000  222.0866 H   0  0  0  0  0  0  0  0  0  0  0  0
  141.0752   71.4152  222.4002 H   0  0  0  0  0  0  0  0  0  0  0  0
  139.8945   72.3491  224.0838 H   0  0  0  0  0  0  0  0  0  0  0  0
  137.7090   71.4780  222.4620 H   0  0  0  0  0  0  0  0  0  0  0  0
  137.6260   72.5200  223.8520 H   0  0  0  0  0  0  0  0  0  0  0  0
  138.7722   68.8471  223.3849 H   0  0  0  0  0  0  0  0  0  0  0  0
  139.0999   67.0148  224.9744 H   0  0  0  0  0  0  0  0  0  0  0  0
  140.1651   67.4764  227.1882 H   0  0  0  0  0  0  0  0  0  0  0  0
  141.1065   68.9739  228.6657 H   0  0  0  0  0  0  0  0  0  0  0  0
  141.8427   71.2313  229.3199 H   0  0  0  0  0  0  0  0  0  0  0  0
  141.5288   73.1434  227.7180 H   0  0  0  0  0  0  0  0  0  0  0  0
  140.4957   72.7008  225.5405 H   0  0  0  0  0  0  0  0  0  0  0  0
  139.3863   73.3047  218.8171 H   0  0  0  0  0  0  0  0  0  0  0  0
  138.3790   74.2916  219.8886 H   0  0  0  0  0  0  0  0  0  0  0  0
  141.3794   74.8229  219.4020 H   0  0  0  0  0  0  0  0  0  0  0  0
  140.1031   75.6313  218.4715 H   0  0  0  0  0  0  0  0  0  0  0  0
  1  2  1  0
  2  3  1  0
  3  4  2  0
  3  5  1  0
  5  6  1  0
  6  7  2  0
  7  8  1  0
  8  9  2  0
  9 10  1  0
 10 11  2  0
  5 12  1  0
 12 13  1  0
 13 14  1  0
 14 15  1  0
 15 16  1  0
 16 17  2  0
 16 18  1  0
 18 19  1  0
 19 20  1  0
 19 21  1  0
 21 22  2  0
 22 23  1  0
 23 24  2  0
 24 25  1  0
 25 26  2  0
 26 27  1  0
 27 28  2  0
 28 29  1  0
 29 30  2  0
 15 31  1  0
 31 32  1  0
 11  6  1  0
 32 12  1  0
 30 21  1  0
 30 25  1  0
  1 33  1  0
  1 34  1  0
  1 35  1  0
  2 36  1  0
  2 37  1  0
  7 38  1  0
  8 39  1  0
  9 40  1  0
 10 41  1  0
 11 42  1  0
 12 43  1  0
 13 44  1  0
 13 45  1  0
 14 46  1  0
 14 47  1  0
 18 48  1  0
 18 49  1  0
 19 50  1  1
 20 51  1  0
 20 52  1  0
 22 53  1  0
 23 54  1  0
 24 55  1  0
 26 56  1  0
 27 57  1  0
 28 58  1  0
 29 59  1  0
 31 60  1  0
 31 61  1  0
 32 62  1  0
 32 63  1  0
M  END
>  <smiles>  (74) 
CCC(=O)N(c1ccccc1)C1CCN(C(=O)CC(N)c2cccc3ccccc23)CC1

>  <score_type>  (74) 
oracle

>  <origin>  (74) 
autodockgpu

>  <m_score__min__energy>  (74) 
-9.3599999999999994

>  <m_primary>  (74) 
energy

>  <rmsd>  (74) 
8.76423265180974

>  <m_score__min__rmsd>  (74) 
8.76423265180974

>  <meeko>  (74) 
{"free_energy": -8.64, "intermolecular_energy": -11.03, "internal_energy": -1.79, "cluster_size": 39, "cluster_id": 2, "rank_in_cluster": 20}

>  <energy>  (74) 
-8.54

>  <cluster_rmsd>  (74) 
1.51

>  <cluster>  (74) 
2

$$$$

     RDKit          3D

 63 66  0  0  0  0  0  0  0  0999 V2000
  136.9490   70.3570  223.8520 C   0  0  0  0  0  0  0  0  0  0  0  0
  137.1580   68.9440  223.3300 C   0  0  0  0  0  0  0  0  0  0  0  0
  138.5820   68.8630  222.9180 C   0  0  0  0  0  0  0  0  0  0  0  0
  138.8800   68.1360  221.9500 O   0  0  0  0  0  0  0  0  0  0  0  0
  139.5760   69.6240  223.6440 N   0  0  0  0  0  0  0  0  0  0  0  0
  139.8770   69.2770  225.0000 C   0  0  0  0  0  0  0  0  0  0  0  0
  139.5590   67.9940  225.4150 C   0  0  0  0  0  0  0  0  0  0  0  0
  139.8300   67.6160  226.7070 C   0  0  0  0  0  0  0  0  0  0  0  0
  140.4210   68.5400  227.5710 C   0  0  0  0  0  0  0  0  0  0  0  0
  140.7380   69.8260  227.1530 C   0  0  0  0  0  0  0  0  0  0  0  0
  140.4650   70.1990  225.8570 C   0  0  0  0  0  0  0  0  0  0  0  0
  140.2580   70.7310  223.0070 C   0  0  0  0  0  0  0  0  0  0  0  0
  139.6630   72.0140  223.4930 C   0  0  0  0  0  0  0  0  0  0  0  0
  139.2750   72.9610  222.3400 C   0  0  0  0  0  0  0  0  0  0  0  0
  140.3680   73.1070  221.4170 N   0  0  0  0  0  0  0  0  0  0  0  0
  140.7990   74.3730  220.8880 C   0  0  0  0  0  0  0  0  0  0  0  0
  141.7810   74.3400  220.1080 O   0  0  0  0  0  0  0  0  0  0  0  0
  140.1800   75.6530  221.1970 C   0  0  0  0  0  0  0  0  0  0  0  0
  141.0860   76.7010  221.7830 C   0  0  1  0  0  0  0  0  0  0  0  0
  141.9160   77.1960  220.6980 N   0  0  0  0  0  0  0  0  0  0  0  0
  140.3410   77.8050  222.3620 C   0  0  0  0  0  0  0  0  0  0  0  0
  138.9670   77.8220  222.4600 C   0  0  0  0  0  0  0  0  0  0  0  0
  138.2440   78.8630  222.9940 C   0  0  0  0  0  0  0  0  0  0  0  0
  138.9120   79.9720  223.4670 C   0  0  0  0  0  0  0  0  0  0  0  0
  140.2820   79.9880  223.3830 C   0  0  0  0  0  0  0  0  0  0  0  0
  140.9350   81.1040  223.8520 C   0  0  0  0  0  0  0  0  0  0  0  0
  142.3000   81.2100  223.8050 C   0  0  0  0  0  0  0  0  0  0  0  0
  143.0460   80.1660  223.2690 C   0  0  0  0  0  0  0  0  0  0  0  0
  142.3730   79.0680  222.8090 C   0  0  0  0  0  0  0  0  0  0  0  0
  140.9990   78.9290  222.8420 C   0  0  0  0  0  0  0  0  0  0  0  0
  141.0560   71.8720  221.0260 C   0  0  0  0  0  0  0  0  0  0  0  0
  140.1710   70.7300  221.5100 C   0  0  0  0  0  0  0  0  0  0  0  0
  136.9507   70.3455  224.9519 H   0  0  0  0  0  0  0  0  0  0  0  0
  137.7610   71.0052  223.4908 H   0  0  0  0  0  0  0  0  0  0  0  0
  135.9841   70.7423  223.4908 H   0  0  0  0  0  0  0  0  0  0  0  0
  136.9473   68.2097  224.1215 H   0  0  0  0  0  0  0  0  0  0  0  0
  136.4836   68.7225  222.4897 H   0  0  0  0  0  0  0  0  0  0  0  0
  139.0934   67.2842  224.7155 H   0  0  0  0  0  0  0  0  0  0  0  0
  139.5855   66.6018  227.0556 H   0  0  0  0  0  0  0  0  0  0  0  0
  140.6407   68.2425  228.6070 H   0  0  0  0  0  0  0  0  0  0  0  0
  141.2023   70.5387  227.8505 H   0  0  0  0  0  0  0  0  0  0  0  0
  140.7087   71.2122  225.5047 H   0  0  0  0  0  0  0  0  0  0  0  0
  141.3197   70.6248  223.2743 H   0  0  0  0  0  0  0  0  0  0  0  0
  138.7610   71.7844  224.0792 H   0  0  0  0  0  0  0  0  0  0  0  0
  140.4233   72.5245  224.1023 H   0  0  0  0  0  0  0  0  0  0  0  0
  138.4056   72.5466  221.8085 H   0  0  0  0  0  0  0  0  0  0  0  0
  139.0293   73.9481  222.7585 H   0  0  0  0  0  0  0  0  0  0  0  0
  139.7583   76.0564  220.2646 H   0  0  0  0  0  0  0  0  0  0  0  0
  139.4322   75.4398  221.9751 H   0  0  0  0  0  0  0  0  0  0  0  0
  141.6834   76.2572  222.5930 H   0  0  0  0  0  0  0  0  0  0  0  0
  141.9850   76.5050  219.9170 H   0  0  0  0  0  0  0  0  0  0  0  0
  142.8080   77.5820  221.0050 H   0  0  0  0  0  0  0  0  0  0  0  0
  138.4131   76.9477  222.0876 H   0  0  0  0  0  0  0  0  0  0  0  0
  137.1463   78.8112  223.0430 H   0  0  0  0  0  0  0  0  0  0  0  0
  138.3624   80.8208  223.8999 H   0  0  0  0  0  0  0  0  0  0  0  0
  140.3468   81.9316  224.2752 H   0  0  0  0  0  0  0  0  0  0  0  0
  142.8008   82.1117  224.1873 H   0  0  0  0  0  0  0  0  0  0  0  0
  144.1433   80.2216  223.2166 H   0  0  0  0  0  0  0  0  0  0  0  0
  142.9638   78.2424  222.3855 H   0  0  0  0  0  0  0  0  0  0  0  0
  141.1730   71.8287  219.9331 H   0  0  0  0  0  0  0  0  0  0  0  0
  142.0638   71.8153  221.4632 H   0  0  0  0  0  0  0  0  0  0  0  0
  139.1314   70.8924  221.1894 H   0  0  0  0  0  0  0  0  0  0  0  0
  140.4996   69.7668  221.0925 H   0  0  0  0  0  0  0  0  0  0  0  0
  1  2  1  0
  2  3  1  0
  3  4  2  0
  3  5  1  0
  5  6  1  0
  6  7  2  0
  7  8  1  0
  8  9  2  0
  9 10  1  0
 10 11  2  0
  5 12  1  0
 12 13  1  0
 13 14  1  0
 14 15  1  0
 15 16  1  0
 16 17  2  0
 16 18  1  0
 18 19  1  0
 19 20  1  0
 19 21  1  0
 21 22  2  0
 22 23  1  0
 23 24  2  0
 24 25  1  0
 25 26  2  0
 26 27  1  0
 27 28  2  0
 28 29  1  0
 29 30  2  0
 15 31  1  0
 31 32  1  0
 11  6  1  0
 32 12  1  0
 30 21  1  0
 30 25  1  0
  1 33  1  0
  1 34  1  0
  1 35  1  0
  2 36  1  0
  2 37  1  0
  7 38  1  0
  8 39  1  0
  9 40  1  0
 10 41  1  0
 11 42  1  0
 12 43  1  0
 13 44  1  0
 13 45  1  0
 14 46  1  0
 14 47  1  0
 18 48  1  0
 18 49  1  0
 19 50  1  1
 20 51  1  0
 20 52  1  0
 22 53  1  0
 23 54  1  0
 24 55  1  0
 26 56  1  0
 27 57  1  0
 28 58  1  0
 29 59  1  0
 31 60  1  0
 31 61  1  0
 32 62  1  0
 32 63  1  0
M  END
>  <smiles>  (75) 
CCC(=O)N(c1ccccc1)C1CCN(C(=O)CC(N)c2cccc3ccccc23)CC1

>  <score_type>  (75) 
oracle

>  <origin>  (75) 
autodockgpu

>  <m_score__min__energy>  (75) 
-9.3599999999999994

>  <m_primary>  (75) 
energy

>  <rmsd>  (75) 
5.657231757317897

>  <m_score__min__rmsd>  (75) 
5.657231757317897

>  <meeko>  (75) 
{"free_energy": -8.25, "intermolecular_energy": -10.63, "internal_energy": -1.78, "cluster_size": 2, "cluster_id": 3, "rank_in_cluster": 2}

>  <energy>  (75) 
-8.53

>  <cluster_rmsd>  (75) 
1.53

>  <cluster>  (75) 
2

$$$$

     RDKit          3D

 63 66  0  0  0  0  0  0  0  0999 V2000
  142.5490   79.8630  218.2130 C   0  0  0  0  0  0  0  0  0  0  0  0
  142.2940   78.4120  218.5910 C   0  0  0  0  0  0  0  0  0  0  0  0
  140.8930   78.3530  219.0790 C   0  0  0  0  0  0  0  0  0  0  0  0
  139.9910   78.8120  218.3520 O   0  0  0  0  0  0  0  0  0  0  0  0
  140.6160   77.7700  220.3750 N   0  0  0  0  0  0  0  0  0  0  0  0
  140.8830   78.5280  221.5590 C   0  0  0  0  0  0  0  0  0  0  0  0
  139.8010   78.8810  222.3480 C   0  0  0  0  0  0  0  0  0  0  0  0
  140.0090   79.6080  223.4950 C   0  0  0  0  0  0  0  0  0  0  0  0
  141.3120   79.9740  223.8350 C   0  0  0  0  0  0  0  0  0  0  0  0
  142.3970   79.6200  223.0410 C   0  0  0  0  0  0  0  0  0  0  0  0
  142.1820   78.8910  221.8950 C   0  0  0  0  0  0  0  0  0  0  0  0
  140.0780   76.4290  220.4730 C   0  0  0  0  0  0  0  0  0  0  0  0
  140.4710   75.8430  221.7920 C   0  0  0  0  0  0  0  0  0  0  0  0
  141.1060   74.4450  221.6510 C   0  0  0  0  0  0  0  0  0  0  0  0
  140.2870   73.5990  220.8270 N   0  0  0  0  0  0  0  0  0  0  0  0
  139.9570   72.2400  221.1630 C   0  0  0  0  0  0  0  0  0  0  0  0
  139.2150   71.6350  220.3520 O   0  0  0  0  0  0  0  0  0  0  0  0
  140.4190   71.5470  222.3560 C   0  0  0  0  0  0  0  0  0  0  0  0
  139.5740   71.7170  223.5890 C   0  0  1  0  0  0  0  0  0  0  0  0
  138.2040   71.9000  223.1400 N   0  0  0  0  0  0  0  0  0  0  0  0
  139.6450   70.5600  224.4640 C   0  0  0  0  0  0  0  0  0  0  0  0
  139.1970   69.3090  224.1010 C   0  0  0  0  0  0  0  0  0  0  0  0
  139.2440   68.2050  224.9190 C   0  0  0  0  0  0  0  0  0  0  0  0
  139.7670   68.3310  226.1890 C   0  0  0  0  0  0  0  0  0  0  0  0
  140.2220   69.5660  226.5830 C   0  0  0  0  0  0  0  0  0  0  0  0
  140.7330   69.6790  227.8530 C   0  0  0  0  0  0  0  0  0  0  0  0
  141.2060   70.8720  228.3350 C   0  0  0  0  0  0  0  0  0  0  0  0
  141.1660   71.9980  227.5190 C   0  0  0  0  0  0  0  0  0  0  0  0
  140.6510   71.8590  226.2590 C   0  0  0  0  0  0  0  0  0  0  0  0
  140.1680   70.6720  225.7450 C   0  0  0  0  0  0  0  0  0  0  0  0
  139.7790   74.1970  219.5880 C   0  0  0  0  0  0  0  0  0  0  0  0
  140.5530   75.4950  219.4010 C   0  0  0  0  0  0  0  0  0  0  0  0
  142.6551   80.4667  219.1264 H   0  0  0  0  0  0  0  0  0  0  0  0
  143.4728   79.9304  217.6196 H   0  0  0  0  0  0  0  0  0  0  0  0
  141.7036   80.2413  217.6196 H   0  0  0  0  0  0  0  0  0  0  0  0
  142.4201   77.7611  217.7132 H   0  0  0  0  0  0  0  0  0  0  0  0
  143.0017   78.0668  219.3592 H   0  0  0  0  0  0  0  0  0  0  0  0
  138.7829   78.5816  222.0586 H   0  0  0  0  0  0  0  0  0  0  0  0
  139.1622   79.8969  224.1349 H   0  0  0  0  0  0  0  0  0  0  0  0
  141.4846   80.5560  224.7523 H   0  0  0  0  0  0  0  0  0  0  0  0
  143.4162   79.9198  223.3264 H   0  0  0  0  0  0  0  0  0  0  0  0
  143.0263   78.5992  221.2531 H   0  0  0  0  0  0  0  0  0  0  0  0
  138.9886   76.5308  220.3596 H   0  0  0  0  0  0  0  0  0  0  0  0
  141.1978   76.5137  222.2736 H   0  0  0  0  0  0  0  0  0  0  0  0
  139.5578   75.7361  222.3958 H   0  0  0  0  0  0  0  0  0  0  0  0
  142.1005   74.5442  221.1915 H   0  0  0  0  0  0  0  0  0  0  0  0
  141.1922   73.9919  222.6496 H   0  0  0  0  0  0  0  0  0  0  0  0
  140.4635   70.4725  222.1245 H   0  0  0  0  0  0  0  0  0  0  0  0
  141.3926   71.9967  222.6006 H   0  0  0  0  0  0  0  0  0  0  0  0
  139.9391   72.5785  224.1673 H   0  0  0  0  0  0  0  0  0  0  0  0
  138.0590   71.5250  222.1750 H   0  0  0  0  0  0  0  0  0  0  0  0
  137.8440   72.8420  223.2900 H   0  0  0  0  0  0  0  0  0  0  0  0
  138.7749   69.1855  223.0927 H   0  0  0  0  0  0  0  0  0  0  0  0
  138.8692   67.2333  224.5650 H   0  0  0  0  0  0  0  0  0  0  0  0
  139.8184   67.4667  226.8675 H   0  0  0  0  0  0  0  0  0  0  0  0
  140.7635   68.7897  228.4997 H   0  0  0  0  0  0  0  0  0  0  0  0
  141.6124   70.9382  229.3550 H   0  0  0  0  0  0  0  0  0  0  0  0
  141.5370   72.9702  227.8758 H   0  0  0  0  0  0  0  0  0  0  0  0
  140.6198   72.7498  225.6144 H   0  0  0  0  0  0  0  0  0  0  0  0
  139.9542   73.5215  218.7377 H   0  0  0  0  0  0  0  0  0  0  0  0
  138.6954   74.3781  219.6425 H   0  0  0  0  0  0  0  0  0  0  0  0
  141.6327   75.3127  219.5062 H   0  0  0  0  0  0  0  0  0  0  0  0
  140.3853   75.9187  218.3998 H   0  0  0  0  0  0  0  0  0  0  0  0
  1  2  1  0
  2  3  1  0
  3  4  2  0
  3  5  1  0
  5  6  1  0
  6  7  2  0
  7  8  1  0
  8  9  2  0
  9 10  1  0
 10 11  2  0
  5 12  1  0
 12 13  1  0
 13 14  1  0
 14 15  1  0
 15 16  1  0
 16 17  2  0
 16 18  1  0
 18 19  1  0
 19 20  1  0
 19 21  1  0
 21 22  2  0
 22 23  1  0
 23 24  2  0
 24 25  1  0
 25 26  2  0
 26 27  1  0
 27 28  2  0
 28 29  1  0
 29 30  2  0
 15 31  1  0
 31 32  1  0
 11  6  1  0
 32 12  1  0
 30 21  1  0
 30 25  1  0
  1 33  1  0
  1 34  1  0
  1 35  1  0
  2 36  1  0
  2 37  1  0
  7 38  1  0
  8 39  1  0
  9 40  1  0
 10 41  1  0
 11 42  1  0
 12 43  1  0
 13 44  1  0
 13 45  1  0
 14 46  1  0
 14 47  1  0
 18 48  1  0
 18 49  1  0
 19 50  1  1
 20 51  1  0
 20 52  1  0
 22 53  1  0
 23 54  1  0
 24 55  1  0
 26 56  1  0
 27 57  1  0
 28 58  1  0
 29 59  1  0
 31 60  1  0
 31 61  1  0
 32 62  1  0
 32 63  1  0
M  END
>  <smiles>  (76) 
CCC(=O)N(c1ccccc1)C1CCN(C(=O)CC(N)c2cccc3ccccc23)CC1

>  <score_type>  (76) 
oracle

>  <origin>  (76) 
autodockgpu

>  <m_score__min__energy>  (76) 
-9.3599999999999994

>  <m_primary>  (76) 
energy

>  <rmsd>  (76) 
8.573479551858371

>  <m_score__min__rmsd>  (76) 
8.573479551858371

>  <meeko>  (76) 
{"free_energy": -8.45, "intermolecular_energy": -10.84, "internal_energy": -1.98, "cluster_size": 39, "cluster_id": 2, "rank_in_cluster": 27}

>  <energy>  (76) 
-8.52

>  <cluster_rmsd>  (76) 
0.78

>  <cluster>  (76) 
2

$$$$

     RDKit          3D

 63 66  0  0  0  0  0  0  0  0999 V2000
  138.6890   76.0270  220.9950 C   0  0  0  0  0  0  0  0  0  0  0  0
  139.7070   75.3420  220.0950 C   0  0  0  0  0  0  0  0  0  0  0  0
  140.8820   75.0450  220.9530 C   0  0  0  0  0  0  0  0  0  0  0  0
  140.6890   74.4890  222.0520 O   0  0  0  0  0  0  0  0  0  0  0  0
  142.2060   75.4060  220.4950 N   0  0  0  0  0  0  0  0  0  0  0  0
  143.2380   74.4140  220.4720 C   0  0  0  0  0  0  0  0  0  0  0  0
  142.8460   73.0860  220.4630 C   0  0  0  0  0  0  0  0  0  0  0  0
  143.8020   72.1000  220.4410 C   0  0  0  0  0  0  0  0  0  0  0  0
  145.1490   72.4650  220.4280 C   0  0  0  0  0  0  0  0  0  0  0  0
  145.5400   73.7990  220.4380 C   0  0  0  0  0  0  0  0  0  0  0  0
  144.5780   74.7820  220.4590 C   0  0  0  0  0  0  0  0  0  0  0  0
  142.4870   76.7610  220.0660 C   0  0  0  0  0  0  0  0  0  0  0  0
  141.6700   77.7090  220.8860 C   0  0  0  0  0  0  0  0  0  0  0  0
  140.8900   78.7180  220.0190 C   0  0  0  0  0  0  0  0  0  0  0  0
  141.7620   79.3370  219.0570 N   0  0  0  0  0  0  0  0  0  0  0  0
  141.7780   80.7510  218.7930 C   0  0  0  0  0  0  0  0  0  0  0  0
  142.6100   81.1420  217.9380 O   0  0  0  0  0  0  0  0  0  0  0  0
  140.9130   81.7240  219.4420 C   0  0  0  0  0  0  0  0  0  0  0  0
  141.4340   82.3230  220.7190 C   0  0  1  0  0  0  0  0  0  0  0  0
  140.5320   83.4060  221.0760 N   0  0  0  0  0  0  0  0  0  0  0  0
  141.4750   81.3540  221.8000 C   0  0  0  0  0  0  0  0  0  0  0  0
  142.6470   80.8800  222.3460 C   0  0  0  0  0  0  0  0  0  0  0  0
  142.7070   79.9530  223.3610 C   0  0  0  0  0  0  0  0  0  0  0  0
  141.5340   79.4510  223.8810 C   0  0  0  0  0  0  0  0  0  0  0  0
  140.3470   79.9020  223.3590 C   0  0  0  0  0  0  0  0  0  0  0  0
  139.1850   79.3860  223.8820 C   0  0  0  0  0  0  0  0  0  0  0  0
  137.9540   79.7740  223.4200 C   0  0  0  0  0  0  0  0  0  0  0  0
  137.8770   80.7100  222.3950 C   0  0  0  0  0  0  0  0  0  0  0  0
  139.0480   81.2070  221.8900 C   0  0  0  0  0  0  0  0  0  0  0  0
  140.3020   80.8380  222.3340 C   0  0  0  0  0  0  0  0  0  0  0  0
  142.6690   78.4400  218.3330 C   0  0  0  0  0  0  0  0  0  0  0  0
  142.1800   77.0270  218.6240 C   0  0  0  0  0  0  0  0  0  0  0  0
  138.9526   75.8496  222.0481 H   0  0  0  0  0  0  0  0  0  0  0  0
  138.6906   77.1084  220.7937 H   0  0  0  0  0  0  0  0  0  0  0  0
  137.6878   75.6181  220.7937 H   0  0  0  0  0  0  0  0  0  0  0  0
  139.2886   74.4109  219.6851 H   0  0  0  0  0  0  0  0  0  0  0  0
  139.9831   75.9801  219.2426 H   0  0  0  0  0  0  0  0  0  0  0  0
  141.7780   72.8229  220.4734 H   0  0  0  0  0  0  0  0  0  0  0  0
  143.5105   71.0393  220.4337 H   0  0  0  0  0  0  0  0  0  0  0  0
  145.9187   71.6793  220.4094 H   0  0  0  0  0  0  0  0  0  0  0  0
  146.6072   74.0656  220.4292 H   0  0  0  0  0  0  0  0  0  0  0  0
  144.8652   75.8438  220.4654 H   0  0  0  0  0  0  0  0  0  0  0  0
  143.5693   76.9031  220.2016 H   0  0  0  0  0  0  0  0  0  0  0  0
  140.9521   77.1293  221.4848 H   0  0  0  0  0  0  0  0  0  0  0  0
  142.3605   78.2800  221.5241 H   0  0  0  0  0  0  0  0  0  0  0  0
  140.0825   78.1915  219.4892 H   0  0  0  0  0  0  0  0  0  0  0  0
  140.4706   79.4977  220.6718 H   0  0  0  0  0  0  0  0  0  0  0  0
  140.7388   82.5457  218.7317 H   0  0  0  0  0  0  0  0  0  0  0  0
  140.0047   81.1711  219.7235 H   0  0  0  0  0  0  0  0  0  0  0  0
  142.4646   82.6751  220.5646 H   0  0  0  0  0  0  0  0  0  0  0  0
  139.9340   83.6940  220.2690 H   0  0  0  0  0  0  0  0  0  0  0  0
  140.9870   84.1760  221.5660 H   0  0  0  0  0  0  0  0  0  0  0  0
  143.5955   81.2671  221.9452 H   0  0  0  0  0  0  0  0  0  0  0  0
  143.6787   79.6171  223.7522 H   0  0  0  0  0  0  0  0  0  0  0  0
  141.5482   78.7087  224.6927 H   0  0  0  0  0  0  0  0  0  0  0  0
  139.2445   78.6434  224.6913 H   0  0  0  0  0  0  0  0  0  0  0  0
  137.0374   79.3495  223.8555 H   0  0  0  0  0  0  0  0  0  0  0  0
  136.9045   81.0411  222.0018 H   0  0  0  0  0  0  0  0  0  0  0  0
  138.9860   81.9474  221.0789 H   0  0  0  0  0  0  0  0  0  0  0  0
  142.6275   78.6443  217.2529 H   0  0  0  0  0  0  0  0  0  0  0  0
  143.7129   78.5792  218.6505 H   0  0  0  0  0  0  0  0  0  0  0  0
  141.0968   76.9553  218.4463 H   0  0  0  0  0  0  0  0  0  0  0  0
  142.6721   76.2923  217.9697 H   0  0  0  0  0  0  0  0  0  0  0  0
  1  2  1  0
  2  3  1  0
  3  4  2  0
  3  5  1  0
  5  6  1  0
  6  7  2  0
  7  8  1  0
  8  9  2  0
  9 10  1  0
 10 11  2  0
  5 12  1  0
 12 13  1  0
 13 14  1  0
 14 15  1  0
 15 16  1  0
 16 17  2  0
 16 18  1  0
 18 19  1  0
 19 20  1  0
 19 21  1  0
 21 22  2  0
 22 23  1  0
 23 24  2  0
 24 25  1  0
 25 26  2  0
 26 27  1  0
 27 28  2  0
 28 29  1  0
 29 30  2  0
 15 31  1  0
 31 32  1  0
 11  6  1  0
 32 12  1  0
 30 21  1  0
 30 25  1  0
  1 33  1  0
  1 34  1  0
  1 35  1  0
  2 36  1  0
  2 37  1  0
  7 38  1  0
  8 39  1  0
  9 40  1  0
 10 41  1  0
 11 42  1  0
 12 43  1  0
 13 44  1  0
 13 45  1  0
 14 46  1  0
 14 47  1  0
 18 48  1  0
 18 49  1  0
 19 50  1  6
 20 51  1  0
 20 52  1  0
 22 53  1  0
 23 54  1  0
 24 55  1  0
 26 56  1  0
 27 57  1  0
 28 58  1  0
 29 59  1  0
 31 60  1  0
 31 61  1  0
 32 62  1  0
 32 63  1  0
M  END
>  <smiles>  (77) 
CCC(=O)N(c1ccccc1)C1CCN(C(=O)CC(N)c2cccc3ccccc23)CC1

>  <score_type>  (77) 
oracle

>  <origin>  (77) 
autodockgpu

>  <m_score__min__energy>  (77) 
-9.3599999999999994

>  <m_primary>  (77) 
energy

>  <rmsd>  (77) 
3.8302306608590735

>  <m_score__min__rmsd>  (77) 
3.8302306608590735

>  <meeko>  (77) 
{"free_energy": -7.55, "intermolecular_energy": -9.93, "internal_energy": -2.31, "cluster_size": 2, "cluster_id": 8, "rank_in_cluster": 1}

>  <energy>  (77) 
-8.49

>  <cluster_rmsd>  (77) 
1.0

>  <cluster>  (77) 
2

$$$$

     RDKit          3D

 63 66  0  0  0  0  0  0  0  0999 V2000
  142.6090   79.4160  218.0910 C   0  0  0  0  0  0  0  0  0  0  0  0
  142.3240   78.0320  218.6540 C   0  0  0  0  0  0  0  0  0  0  0  0
  140.9130   78.0570  219.1130 C   0  0  0  0  0  0  0  0  0  0  0  0
  140.0440   78.5060  218.3410 O   0  0  0  0  0  0  0  0  0  0  0  0
  140.5870   77.5630  220.4350 N   0  0  0  0  0  0  0  0  0  0  0  0
  140.9020   78.3610  221.5810 C   0  0  0  0  0  0  0  0  0  0  0  0
  139.8640   78.6800  222.4410 C   0  0  0  0  0  0  0  0  0  0  0  0
  140.1200   79.4430  223.5540 C   0  0  0  0  0  0  0  0  0  0  0  0
  141.4250   79.8780  223.7890 C   0  0  0  0  0  0  0  0  0  0  0  0
  142.4640   79.5580  222.9250 C   0  0  0  0  0  0  0  0  0  0  0  0
  142.2030   78.7930  221.8120 C   0  0  0  0  0  0  0  0  0  0  0  0
  139.9520   76.2720  220.5970 C   0  0  0  0  0  0  0  0  0  0  0  0
  140.4550   75.6380  221.8550 C   0  0  0  0  0  0  0  0  0  0  0  0
  140.9450   74.1930  221.6330 C   0  0  0  0  0  0  0  0  0  0  0  0
  139.9600   73.4290  220.9160 N   0  0  0  0  0  0  0  0  0  0  0  0
  139.5590   72.1000  221.2890 C   0  0  0  0  0  0  0  0  0  0  0  0
  138.6720   71.5710  220.5760 O   0  0  0  0  0  0  0  0  0  0  0  0
  140.1040   71.3550  222.4130 C   0  0  0  0  0  0  0  0  0  0  0  0
  139.3940   71.5260  223.7280 C   0  0  1  0  0  0  0  0  0  0  0  0
  137.9740   71.6140  223.4320 N   0  0  0  0  0  0  0  0  0  0  0  0
  139.6320   70.4110  224.6270 C   0  0  0  0  0  0  0  0  0  0  0  0
  139.2690   69.1150  224.3350 C   0  0  0  0  0  0  0  0  0  0  0  0
  139.4740   68.0470  225.1790 C   0  0  0  0  0  0  0  0  0  0  0  0
  140.0770   68.2620  226.3990 C   0  0  0  0  0  0  0  0  0  0  0  0
  140.4510   69.5440  226.7210 C   0  0  0  0  0  0  0  0  0  0  0  0
  141.0450   69.7440  227.9450 C   0  0  0  0  0  0  0  0  0  0  0  0
  141.4460   70.9890  228.3540 C   0  0  0  0  0  0  0  0  0  0  0  0
  141.2470   72.0780  227.5120 C   0  0  0  0  0  0  0  0  0  0  0  0
  140.6530   71.8520  226.3010 C   0  0  0  0  0  0  0  0  0  0  0  0
  140.2380   70.6110  225.8590 C   0  0  0  0  0  0  0  0  0  0  0  0
  139.3540   74.0840  219.7520 C   0  0  0  0  0  0  0  0  0  0  0  0
  140.2080   75.3140  219.4720 C   0  0  0  0  0  0  0  0  0  0  0  0
  142.7551   80.1256  218.9187 H   0  0  0  0  0  0  0  0  0  0  0  0
  143.5187   79.3805  217.4736 H   0  0  0  0  0  0  0  0  0  0  0  0
  141.7593   79.7428  217.4736 H   0  0  0  0  0  0  0  0  0  0  0  0
  142.4584   77.2676  217.8745 H   0  0  0  0  0  0  0  0  0  0  0  0
  143.0101   77.7839  219.4773 H   0  0  0  0  0  0  0  0  0  0  0  0
  138.8435   78.3253  222.2343 H   0  0  0  0  0  0  0  0  0  0  0  0
  139.3093   79.7070  224.2491 H   0  0  0  0  0  0  0  0  0  0  0  0
  141.6356   80.4886  224.6794 H   0  0  0  0  0  0  0  0  0  0  0  0
  143.4852   79.9126  223.1286 H   0  0  0  0  0  0  0  0  0  0  0  0
  143.0116   78.5271  221.1152 H   0  0  0  0  0  0  0  0  0  0  0  0
  138.8698   76.4677  220.6211 H   0  0  0  0  0  0  0  0  0  0  0  0
  141.2912   76.2384  222.2427 H   0  0  0  0  0  0  0  0  0  0  0  0
  139.6185   75.6013  222.5684 H   0  0  0  0  0  0  0  0  0  0  0  0
  141.8794   74.2132  221.0529 H   0  0  0  0  0  0  0  0  0  0  0  0
  141.1153   73.7219  222.6123 H   0  0  0  0  0  0  0  0  0  0  0  0
  140.0765   70.2866  222.1528 H   0  0  0  0  0  0  0  0  0  0  0  0
  141.1162   71.7561  222.5698 H   0  0  0  0  0  0  0  0  0  0  0  0
  139.7691   72.4287  224.2323 H   0  0  0  0  0  0  0  0  0  0  0  0
  137.7480   71.2140  222.4940 H   0  0  0  0  0  0  0  0  0  0  0  0
  137.5720   72.5340  223.6110 H   0  0  0  0  0  0  0  0  0  0  0  0
  138.7848   68.9211  223.3665 H   0  0  0  0  0  0  0  0  0  0  0  0
  139.1604   67.0350  224.8832 H   0  0  0  0  0  0  0  0  0  0  0  0
  140.2541   67.4298  227.0962 H   0  0  0  0  0  0  0  0  0  0  0  0
  141.2021   68.8836  228.6121 H   0  0  0  0  0  0  0  0  0  0  0  0
  141.9200   71.1255  229.3372 H   0  0  0  0  0  0  0  0  0  0  0  0
  141.5578   73.0900  227.8109 H   0  0  0  0  0  0  0  0  0  0  0  0
  140.4956   72.7141  225.6362 H   0  0  0  0  0  0  0  0  0  0  0  0
  139.3624   73.4072  218.8849 H   0  0  0  0  0  0  0  0  0  0  0  0
  138.3053   74.3559  219.9427 H   0  0  0  0  0  0  0  0  0  0  0  0
  141.2726   75.0390  219.4412 H   0  0  0  0  0  0  0  0  0  0  0  0
  139.9543   75.7629  218.5003 H   0  0  0  0  0  0  0  0  0  0  0  0
  1  2  1  0
  2  3  1  0
  3  4  2  0
  3  5  1  0
  5  6  1  0
  6  7  2  0
  7  8  1  0
  8  9  2  0
  9 10  1  0
 10 11  2  0
  5 12  1  0
 12 13  1  0
 13 14  1  0
 14 15  1  0
 15 16  1  0
 16 17  2  0
 16 18  1  0
 18 19  1  0
 19 20  1  0
 19 21  1  0
 21 22  2  0
 22 23  1  0
 23 24  2  0
 24 25  1  0
 25 26  2  0
 26 27  1  0
 27 28  2  0
 28 29  1  0
 29 30  2  0
 15 31  1  0
 31 32  1  0
 11  6  1  0
 32 12  1  0
 30 21  1  0
 30 25  1  0
  1 33  1  0
  1 34  1  0
  1 35  1  0
  2 36  1  0
  2 37  1  0
  7 38  1  0
  8 39  1  0
  9 40  1  0
 10 41  1  0
 11 42  1  0
 12 43  1  0
 13 44  1  0
 13 45  1  0
 14 46  1  0
 14 47  1  0
 18 48  1  0
 18 49  1  0
 19 50  1  1
 20 51  1  0
 20 52  1  0
 22 53  1  0
 23 54  1  0
 24 55  1  0
 26 56  1  0
 27 57  1  0
 28 58  1  0
 29 59  1  0
 31 60  1  0
 31 61  1  0
 32 62  1  0
 32 63  1  0
M  END
>  <smiles>  (78) 
CCC(=O)N(c1ccccc1)C1CCN(C(=O)CC(N)c2cccc3ccccc23)CC1

>  <score_type>  (78) 
oracle

>  <origin>  (78) 
autodockgpu

>  <m_score__min__energy>  (78) 
-9.3599999999999994

>  <m_primary>  (78) 
energy

>  <rmsd>  (78) 
8.723530982644618

>  <m_score__min__rmsd>  (78) 
8.723530982644618

>  <meeko>  (78) 
{"free_energy": -8.49, "intermolecular_energy": -10.88, "internal_energy": -1.96, "cluster_size": 39, "cluster_id": 2, "rank_in_cluster": 26}

>  <energy>  (78) 
-8.45

>  <cluster_rmsd>  (78) 
1.14

>  <cluster>  (78) 
2

$$$$

     RDKit          3D

 63 66  0  0  0  0  0  0  0  0999 V2000
  142.9530   77.1110  217.1520 C   0  0  0  0  0  0  0  0  0  0  0  0
  142.1410   77.8050  218.2350 C   0  0  0  0  0  0  0  0  0  0  0  0
  142.4540   77.0980  219.5020 C   0  0  0  0  0  0  0  0  0  0  0  0
  143.4970   76.4190  219.5610 O   0  0  0  0  0  0  0  0  0  0  0  0
  141.5480   77.2170  220.6240 N   0  0  0  0  0  0  0  0  0  0  0  0
  141.6160   78.3730  221.4650 C   0  0  0  0  0  0  0  0  0  0  0  0
  141.8170   79.5980  220.8510 C   0  0  0  0  0  0  0  0  0  0  0  0
  141.8890   80.7350  221.6180 C   0  0  0  0  0  0  0  0  0  0  0  0
  141.7570   80.6240  223.0030 C   0  0  0  0  0  0  0  0  0  0  0  0
  141.5560   79.3940  223.6180 C   0  0  0  0  0  0  0  0  0  0  0  0
  141.4840   78.2590  222.8440 C   0  0  0  0  0  0  0  0  0  0  0  0
  140.5830   76.1720  220.8980 C   0  0  0  0  0  0  0  0  0  0  0  0
  141.1310   75.2700  221.9590 C   0  0  0  0  0  0  0  0  0  0  0  0
  141.0570   73.7810  221.5650 C   0  0  0  0  0  0  0  0  0  0  0  0
  139.7370   73.4470  221.1000 N   0  0  0  0  0  0  0  0  0  0  0  0
  139.0230   72.2700  221.5150 C   0  0  0  0  0  0  0  0  0  0  0  0
  137.8720   72.1260  221.0370 O   0  0  0  0  0  0  0  0  0  0  0  0
  139.5430   71.2660  222.4310 C   0  0  0  0  0  0  0  0  0  0  0  0
  139.0980   71.3830  223.8630 C   0  0  1  0  0  0  0  0  0  0  0  0
  137.6530   71.5390  223.8440 N   0  0  0  0  0  0  0  0  0  0  0  0
  139.4460   70.2080  224.6420 C   0  0  0  0  0  0  0  0  0  0  0  0
  139.1630   68.9220  224.2380 C   0  0  0  0  0  0  0  0  0  0  0  0
  139.4740   67.7970  224.9670 C   0  0  0  0  0  0  0  0  0  0  0  0
  140.1080   67.9400  226.1830 C   0  0  0  0  0  0  0  0  0  0  0  0
  140.4050   69.2090  226.6150 C   0  0  0  0  0  0  0  0  0  0  0  0
  141.0310   69.3350  227.8320 C   0  0  0  0  0  0  0  0  0  0  0  0
  141.3610   70.5620  228.3460 C   0  0  0  0  0  0  0  0  0  0  0  0
  141.0540   71.7090  227.6210 C   0  0  0  0  0  0  0  0  0  0  0  0
  140.4300   71.5550  226.4130 C   0  0  0  0  0  0  0  0  0  0  0  0
  140.0850   70.3350  225.8670 C   0  0  0  0  0  0  0  0  0  0  0  0
  139.1240   74.3890  220.1580 C   0  0  0  0  0  0  0  0  0  0  0  0
  140.2420   75.3220  219.7110 C   0  0  0  0  0  0  0  0  0  0  0  0
  143.7100   76.4640  217.6192 H   0  0  0  0  0  0  0  0  0  0  0  0
  142.2845   76.5008  216.5268 H   0  0  0  0  0  0  0  0  0  0  0  0
  143.4516   77.8663  216.5268 H   0  0  0  0  0  0  0  0  0  0  0  0
  142.4287   78.8642  218.3079 H   0  0  0  0  0  0  0  0  0  0  0  0
  141.0642   77.7725  218.0125 H   0  0  0  0  0  0  0  0  0  0  0  0
  141.9182   79.6598  219.7574 H   0  0  0  0  0  0  0  0  0  0  0  0
  142.0481   81.7170  221.1485 H   0  0  0  0  0  0  0  0  0  0  0  0
  141.8134   81.5313  223.6223 H   0  0  0  0  0  0  0  0  0  0  0  0
  141.4556   79.3287  224.7115 H   0  0  0  0  0  0  0  0  0  0  0  0
  141.3242   77.2753  223.3097 H   0  0  0  0  0  0  0  0  0  0  0  0
  139.6613   76.6853  221.2094 H   0  0  0  0  0  0  0  0  0  0  0  0
  142.1833   75.5354  222.1386 H   0  0  0  0  0  0  0  0  0  0  0  0
  140.5191   75.4072  222.8628 H   0  0  0  0  0  0  0  0  0  0  0  0
  141.7840   73.5822  220.7638 H   0  0  0  0  0  0  0  0  0  0  0  0
  141.2884   73.1677  222.4483 H   0  0  0  0  0  0  0  0  0  0  0  0
  139.2290   70.2788  222.0611 H   0  0  0  0  0  0  0  0  0  0  0  0
  140.6325   71.4166  222.4469 H   0  0  0  0  0  0  0  0  0  0  0  0
  139.6020   72.2398  224.3341 H   0  0  0  0  0  0  0  0  0  0  0  0
  137.2470   71.2780  222.9170 H   0  0  0  0  0  0  0  0  0  0  0  0
  137.3300   72.4320  224.2160 H   0  0  0  0  0  0  0  0  0  0  0  0
  138.6562   68.7855  223.2713 H   0  0  0  0  0  0  0  0  0  0  0  0
  139.2202   66.7972  224.5848 H   0  0  0  0  0  0  0  0  0  0  0  0
  140.3689   67.0610  226.7907 H   0  0  0  0  0  0  0  0  0  0  0  0
  141.2730   68.4293  228.4074 H   0  0  0  0  0  0  0  0  0  0  0  0
  141.8633   70.6390  229.3216 H   0  0  0  0  0  0  0  0  0  0  0  0
  141.3050   72.7081  228.0067 H   0  0  0  0  0  0  0  0  0  0  0  0
  140.1876   72.4621  225.8399 H   0  0  0  0  0  0  0  0  0  0  0  0
  138.7078   73.8497  219.2943 H   0  0  0  0  0  0  0  0  0  0  0  0
  138.2972   74.9449  220.6242 H   0  0  0  0  0  0  0  0  0  0  0  0
  141.1201   74.7397  219.3951 H   0  0  0  0  0  0  0  0  0  0  0  0
  139.9292   75.9385  218.8554 H   0  0  0  0  0  0  0  0  0  0  0  0
  1  2  1  0
  2  3  1  0
  3  4  2  0
  3  5  1  0
  5  6  1  0
  6  7  2  0
  7  8  1  0
  8  9  2  0
  9 10  1  0
 10 11  2  0
  5 12  1  0
 12 13  1  0
 13 14  1  0
 14 15  1  0
 15 16  1  0
 16 17  2  0
 16 18  1  0
 18 19  1  0
 19 20  1  0
 19 21  1  0
 21 22  2  0
 22 23  1  0
 23 24  2  0
 24 25  1  0
 25 26  2  0
 26 27  1  0
 27 28  2  0
 28 29  1  0
 29 30  2  0
 15 31  1  0
 31 32  1  0
 11  6  1  0
 32 12  1  0
 30 21  1  0
 30 25  1  0
  1 33  1  0
  1 34  1  0
  1 35  1  0
  2 36  1  0
  2 37  1  0
  7 38  1  0
  8 39  1  0
  9 40  1  0
 10 41  1  0
 11 42  1  0
 12 43  1  0
 13 44  1  0
 13 45  1  0
 14 46  1  0
 14 47  1  0
 18 48  1  0
 18 49  1  0
 19 50  1  1
 20 51  1  0
 20 52  1  0
 22 53  1  0
 23 54  1  0
 24 55  1  0
 26 56  1  0
 27 57  1  0
 28 58  1  0
 29 59  1  0
 31 60  1  0
 31 61  1  0
 32 62  1  0
 32 63  1  0
M  END
>  <smiles>  (79) 
CCC(=O)N(c1ccccc1)C1CCN(C(=O)CC(N)c2cccc3ccccc23)CC1

>  <score_type>  (79) 
oracle

>  <origin>  (79) 
autodockgpu

>  <m_score__min__energy>  (79) 
-9.3599999999999994

>  <m_primary>  (79) 
energy

>  <rmsd>  (79) 
8.853523693329821

>  <m_score__min__rmsd>  (79) 
8.853523693329821

>  <meeko>  (79) 
{"free_energy": -8.84, "intermolecular_energy": -11.22, "internal_energy": -1.9, "cluster_size": 39, "cluster_id": 2, "rank_in_cluster": 4}

>  <energy>  (79) 
-8.45

>  <cluster_rmsd>  (79) 
0.38

>  <cluster>  (79) 
2

$$$$

     RDKit          3D

 63 66  0  0  0  0  0  0  0  0999 V2000
  142.9780   77.1950  218.6590 C   0  0  0  0  0  0  0  0  0  0  0  0
  142.2340   78.5220  218.7010 C   0  0  0  0  0  0  0  0  0  0  0  0
  140.8400   78.2000  219.0940 C   0  0  0  0  0  0  0  0  0  0  0  0
  139.9240   78.4380  218.2830 O   0  0  0  0  0  0  0  0  0  0  0  0
  140.5840   77.6230  220.3970 N   0  0  0  0  0  0  0  0  0  0  0  0
  140.8820   78.3820  221.5730 C   0  0  0  0  0  0  0  0  0  0  0  0
  139.8200   78.7520  222.3810 C   0  0  0  0  0  0  0  0  0  0  0  0
  140.0590   79.4810  223.5200 C   0  0  0  0  0  0  0  0  0  0  0  0
  141.3740   79.8300  223.8350 C   0  0  0  0  0  0  0  0  0  0  0  0
  142.4380   79.4580  223.0230 C   0  0  0  0  0  0  0  0  0  0  0  0
  142.1930   78.7270  221.8840 C   0  0  0  0  0  0  0  0  0  0  0  0
  140.0340   76.2880  220.5100 C   0  0  0  0  0  0  0  0  0  0  0  0
  140.4480   75.7020  221.8230 C   0  0  0  0  0  0  0  0  0  0  0  0
  141.0660   74.2970  221.6740 C   0  0  0  0  0  0  0  0  0  0  0  0
  140.2210   73.4560  220.8690 N   0  0  0  0  0  0  0  0  0  0  0  0
  139.8850   72.1020  221.2160 C   0  0  0  0  0  0  0  0  0  0  0  0
  139.1200   71.5030  220.4220 O   0  0  0  0  0  0  0  0  0  0  0  0
  140.3640   71.4080  222.4020 C   0  0  0  0  0  0  0  0  0  0  0  0
  139.5670   71.6200  223.6590 C   0  0  1  0  0  0  0  0  0  0  0  0
  138.1770   71.7640  223.2600 N   0  0  0  0  0  0  0  0  0  0  0  0
  139.6910   70.5030  224.5790 C   0  0  0  0  0  0  0  0  0  0  0  0
  139.2510   69.2310  224.2870 C   0  0  0  0  0  0  0  0  0  0  0  0
  139.3480   68.1630  225.1500 C   0  0  0  0  0  0  0  0  0  0  0  0
  139.9160   68.3530  226.3920 C   0  0  0  0  0  0  0  0  0  0  0  0
  140.3640   69.6100  226.7150 C   0  0  0  0  0  0  0  0  0  0  0  0
  140.9210   69.7860  227.9590 C   0  0  0  0  0  0  0  0  0  0  0  0
  141.3900   71.0060  228.3710 C   0  0  0  0  0  0  0  0  0  0  0  0
  141.3000   72.0950  227.5110 C   0  0  0  0  0  0  0  0  0  0  0  0
  140.7410   71.8930  226.2780 C   0  0  0  0  0  0  0  0  0  0  0  0
  140.2600   70.6780  225.8330 C   0  0  0  0  0  0  0  0  0  0  0  0
  139.6940   74.0560  219.6390 C   0  0  0  0  0  0  0  0  0  0  0  0
  140.4780   75.3460  219.4320 C   0  0  0  0  0  0  0  0  0  0  0  0
  143.1712   76.8503  219.6856 H   0  0  0  0  0  0  0  0  0  0  0  0
  142.3668   76.4485  218.1305 H   0  0  0  0  0  0  0  0  0  0  0  0
  143.9337   77.3270  218.1305 H   0  0  0  0  0  0  0  0  0  0  0  0
  142.6936   79.1941  219.4407 H   0  0  0  0  0  0  0  0  0  0  0  0
  142.2692   79.0334  217.7277 H   0  0  0  0  0  0  0  0  0  0  0  0
  138.7928   78.4642  222.1125 H   0  0  0  0  0  0  0  0  0  0  0  0
  139.2281   79.7851  224.1736 H   0  0  0  0  0  0  0  0  0  0  0  0
  141.5718   80.4127  224.7468 H   0  0  0  0  0  0  0  0  0  0  0  0
  143.4662   79.7452  223.2883 H   0  0  0  0  0  0  0  0  0  0  0  0
  143.0215   78.4198  221.2288 H   0  0  0  0  0  0  0  0  0  0  0  0
  138.9436   76.4006  220.4181 H   0  0  0  0  0  0  0  0  0  0  0  0
  141.1912   76.3668  222.2874 H   0  0  0  0  0  0  0  0  0  0  0  0
  139.5462   75.6062  222.4455 H   0  0  0  0  0  0  0  0  0  0  0  0
  142.0519   74.3845  221.1940 H   0  0  0  0  0  0  0  0  0  0  0  0
  141.1680   73.8463  222.6722 H   0  0  0  0  0  0  0  0  0  0  0  0
  140.3658   70.3300  222.1829 H   0  0  0  0  0  0  0  0  0  0  0  0
  141.3594   71.8282  222.6086 H   0  0  0  0  0  0  0  0  0  0  0  0
  139.9417   72.5113  224.1835 H   0  0  0  0  0  0  0  0  0  0  0  0
  138.0200   71.4380  222.2800 H   0  0  0  0  0  0  0  0  0  0  0  0
  137.7800   72.6790  223.4740 H   0  0  0  0  0  0  0  0  0  0  0  0
  138.7932   69.0576  223.3020 H   0  0  0  0  0  0  0  0  0  0  0  0
  138.9773   67.1710  224.8527 H   0  0  0  0  0  0  0  0  0  0  0  0
  140.0077   67.5201  227.1047 H   0  0  0  0  0  0  0  0  0  0  0  0
  140.9922   68.9260  228.6411 H   0  0  0  0  0  0  0  0  0  0  0  0
  141.8328   71.1225  229.3712 H   0  0  0  0  0  0  0  0  0  0  0  0
  141.6665   73.0875  227.8121 H   0  0  0  0  0  0  0  0  0  0  0  0
  140.6705   72.7545  225.5977 H   0  0  0  0  0  0  0  0  0  0  0  0
  139.8445   73.3764  218.7873 H   0  0  0  0  0  0  0  0  0  0  0  0
  138.6137   74.2488  219.7154 H   0  0  0  0  0  0  0  0  0  0  0  0
  141.5576   75.1529  219.5164 H   0  0  0  0  0  0  0  0  0  0  0  0
  140.2949   75.7682  218.4329 H   0  0  0  0  0  0  0  0  0  0  0  0
  1  2  1  0
  2  3  1  0
  3  4  2  0
  3  5  1  0
  5  6  1  0
  6  7  2  0
  7  8  1  0
  8  9  2  0
  9 10  1  0
 10 11  2  0
  5 12  1  0
 12 13  1  0
 13 14  1  0
 14 15  1  0
 15 16  1  0
 16 17  2  0
 16 18  1  0
 18 19  1  0
 19 20  1  0
 19 21  1  0
 21 22  2  0
 22 23  1  0
 23 24  2  0
 24 25  1  0
 25 26  2  0
 26 27  1  0
 27 28  2  0
 28 29  1  0
 29 30  2  0
 15 31  1  0
 31 32  1  0
 11  6  1  0
 32 12  1  0
 30 21  1  0
 30 25  1  0
  1 33  1  0
  1 34  1  0
  1 35  1  0
  2 36  1  0
  2 37  1  0
  7 38  1  0
  8 39  1  0
  9 40  1  0
 10 41  1  0
 11 42  1  0
 12 43  1  0
 13 44  1  0
 13 45  1  0
 14 46  1  0
 14 47  1  0
 18 48  1  0
 18 49  1  0
 19 50  1  1
 20 51  1  0
 20 52  1  0
 22 53  1  0
 23 54  1  0
 24 55  1  0
 26 56  1  0
 27 57  1  0
 28 58  1  0
 29 59  1  0
 31 60  1  0
 31 61  1  0
 32 62  1  0
 32 63  1  0
M  END
>  <smiles>  (80) 
CCC(=O)N(c1ccccc1)C1CCN(C(=O)CC(N)c2cccc3ccccc23)CC1

>  <score_type>  (80) 
oracle

>  <origin>  (80) 
autodockgpu

>  <m_score__min__energy>  (80) 
-9.3599999999999994

>  <m_primary>  (80) 
energy

>  <rmsd>  (80) 
8.650705750333415

>  <m_score__min__rmsd>  (80) 
8.650705750333415

>  <meeko>  (80) 
{"free_energy": -8.44, "intermolecular_energy": -10.83, "internal_energy": -1.99, "cluster_size": 39, "cluster_id": 2, "rank_in_cluster": 29}

>  <energy>  (80) 
-8.44

>  <cluster_rmsd>  (80) 
1.08

>  <cluster>  (80) 
2

$$$$

     RDKit          3D

 63 66  0  0  0  0  0  0  0  0999 V2000
  142.5380   78.5150  218.2880 C   0  0  0  0  0  0  0  0  0  0  0  0
  141.4910   79.5420  218.6940 C   0  0  0  0  0  0  0  0  0  0  0  0
  140.3180   78.7680  219.1720 C   0  0  0  0  0  0  0  0  0  0  0  0
  139.2940   78.7430  218.4630 O   0  0  0  0  0  0  0  0  0  0  0  0
  140.3950   78.0700  220.4380 N   0  0  0  0  0  0  0  0  0  0  0  0
  140.8380   78.7730  221.6030 C   0  0  0  0  0  0  0  0  0  0  0  0
  139.8670   79.3110  222.4320 C   0  0  0  0  0  0  0  0  0  0  0  0
  140.2460   79.9940  223.5610 C   0  0  0  0  0  0  0  0  0  0  0  0
  141.6060   80.1280  223.8460 C   0  0  0  0  0  0  0  0  0  0  0  0
  142.5790   79.5880  223.0130 C   0  0  0  0  0  0  0  0  0  0  0  0
  142.1940   78.9040  221.8830 C   0  0  0  0  0  0  0  0  0  0  0  0
  140.0320   76.6710  220.5240 C   0  0  0  0  0  0  0  0  0  0  0  0
  140.2960   76.1860  221.9150 C   0  0  0  0  0  0  0  0  0  0  0  0
  141.1250   74.8860  221.9400 C   0  0  0  0  0  0  0  0  0  0  0  0
  140.5600   73.9090  221.0480 N   0  0  0  0  0  0  0  0  0  0  0  0
  140.3670   72.5290  221.4020 C   0  0  0  0  0  0  0  0  0  0  0  0
  139.8430   71.8020  220.5230 O   0  0  0  0  0  0  0  0  0  0  0  0
  140.7320   71.9430  222.6830 C   0  0  0  0  0  0  0  0  0  0  0  0
  139.6370   71.8680  223.7110 C   0  0  1  0  0  0  0  0  0  0  0  0
  138.3770   71.9720  222.9950 N   0  0  0  0  0  0  0  0  0  0  0  0
  139.6680   70.6190  224.4530 C   0  0  0  0  0  0  0  0  0  0  0  0
  139.2010   69.4270  223.9460 C   0  0  0  0  0  0  0  0  0  0  0  0
  139.2110   68.2370  224.6370 C   0  0  0  0  0  0  0  0  0  0  0  0
  139.7140   68.2110  225.9200 C   0  0  0  0  0  0  0  0  0  0  0  0
  140.1870   69.3830  226.4560 C   0  0  0  0  0  0  0  0  0  0  0  0
  140.6790   69.3420  227.7390 C   0  0  0  0  0  0  0  0  0  0  0  0
  141.1670   70.4640  228.3570 C   0  0  0  0  0  0  0  0  0  0  0  0
  141.1650   71.6740  227.6720 C   0  0  0  0  0  0  0  0  0  0  0  0
  140.6690   71.6880  226.3970 C   0  0  0  0  0  0  0  0  0  0  0  0
  140.1710   70.5760  225.7460 C   0  0  0  0  0  0  0  0  0  0  0  0
  140.1700   74.3930  219.7200 C   0  0  0  0  0  0  0  0  0  0  0  0
  140.7840   75.7800  219.5820 C   0  0  0  0  0  0  0  0  0  0  0  0
  142.9878   78.0738  219.1897 H   0  0  0  0  0  0  0  0  0  0  0  0
  142.0626   77.7232  217.6904 H   0  0  0  0  0  0  0  0  0  0  0  0
  143.3204   79.0056  217.6904 H   0  0  0  0  0  0  0  0  0  0  0  0
  141.8782   80.1841  219.4988 H   0  0  0  0  0  0  0  0  0  0  0  0
  141.2237   80.1974  217.8520 H   0  0  0  0  0  0  0  0  0  0  0  0
  138.8011   79.1919  222.1876 H   0  0  0  0  0  0  0  0  0  0  0  0
  139.4896   80.4290  224.2308 H   0  0  0  0  0  0  0  0  0  0  0  0
  141.9146   80.6732  224.7501 H   0  0  0  0  0  0  0  0  0  0  0  0
  143.6456   79.7063  223.2547 H   0  0  0  0  0  0  0  0  0  0  0  0
  142.9475   78.4673  221.2110 H   0  0  0  0  0  0  0  0  0  0  0  0
  138.9687   76.6163  220.2474 H   0  0  0  0  0  0  0  0  0  0  0  0
  140.8463   76.9658  222.4619 H   0  0  0  0  0  0  0  0  0  0  0  0
  139.3244   75.9718  222.3842 H   0  0  0  0  0  0  0  0  0  0  0  0
  142.1558   75.1083  221.6269 H   0  0  0  0  0  0  0  0  0  0  0  0
  141.1175   74.4798  222.9622 H   0  0  0  0  0  0  0  0  0  0  0  0
  141.0878   70.9192  222.4953 H   0  0  0  0  0  0  0  0  0  0  0  0
  141.4927   72.6136  223.1092 H   0  0  0  0  0  0  0  0  0  0  0  0
  139.7664   72.6791  224.4427 H   0  0  0  0  0  0  0  0  0  0  0  0
  138.4570   71.6160  222.0160 H   0  0  0  0  0  0  0  0  0  0  0  0
  137.9270   72.8830  223.0810 H   0  0  0  0  0  0  0  0  0  0  0  0
  138.7942   69.4259  222.9240 H   0  0  0  0  0  0  0  0  0  0  0  0
  138.8228   67.3189  224.1717 H   0  0  0  0  0  0  0  0  0  0  0  0
  139.7359   67.2760  226.4991 H   0  0  0  0  0  0  0  0  0  0  0  0
  140.6811   68.3858  228.2828 H   0  0  0  0  0  0  0  0  0  0  0  0
  141.5562   70.4077  229.3843 H   0  0  0  0  0  0  0  0  0  0  0  0
  141.5502   72.5916  228.1407 H   0  0  0  0  0  0  0  0  0  0  0  0
  140.6666   72.6457  225.8558 H   0  0  0  0  0  0  0  0  0  0  0  0
  140.5596   73.7231  218.9394 H   0  0  0  0  0  0  0  0  0  0  0  0
  139.0762   74.4234  219.6073 H   0  0  0  0  0  0  0  0  0  0  0  0
  141.8498   75.7530  219.8529 H   0  0  0  0  0  0  0  0  0  0  0  0
  140.7153   76.1455  218.5468 H   0  0  0  0  0  0  0  0  0  0  0  0
  1  2  1  0
  2  3  1  0
  3  4  2  0
  3  5  1  0
  5  6  1  0
  6  7  2  0
  7  8  1  0
  8  9  2  0
  9 10  1  0
 10 11  2  0
  5 12  1  0
 12 13  1  0
 13 14  1  0
 14 15  1  0
 15 16  1  0
 16 17  2  0
 16 18  1  0
 18 19  1  0
 19 20  1  0
 19 21  1  0
 21 22  2  0
 22 23  1  0
 23 24  2  0
 24 25  1  0
 25 26  2  0
 26 27  1  0
 27 28  2  0
 28 29  1  0
 29 30  2  0
 15 31  1  0
 31 32  1  0
 11  6  1  0
 32 12  1  0
 30 21  1  0
 30 25  1  0
  1 33  1  0
  1 34  1  0
  1 35  1  0
  2 36  1  0
  2 37  1  0
  7 38  1  0
  8 39  1  0
  9 40  1  0
 10 41  1  0
 11 42  1  0
 12 43  1  0
 13 44  1  0
 13 45  1  0
 14 46  1  0
 14 47  1  0
 18 48  1  0
 18 49  1  0
 19 50  1  1
 20 51  1  0
 20 52  1  0
 22 53  1  0
 23 54  1  0
 24 55  1  0
 26 56  1  0
 27 57  1  0
 28 58  1  0
 29 59  1  0
 31 60  1  0
 31 61  1  0
 32 62  1  0
 32 63  1  0
M  END
>  <smiles>  (81) 
CCC(=O)N(c1ccccc1)C1CCN(C(=O)CC(N)c2cccc3ccccc23)CC1

>  <score_type>  (81) 
oracle

>  <origin>  (81) 
autodockgpu

>  <m_score__min__energy>  (81) 
-9.3599999999999994

>  <m_primary>  (81) 
energy

>  <rmsd>  (81) 
8.50741342198989

>  <m_score__min__rmsd>  (81) 
8.50741342198989

>  <meeko>  (81) 
{"free_energy": -8.07, "intermolecular_energy": -10.45, "internal_energy": -2.03, "cluster_size": 39, "cluster_id": 2, "rank_in_cluster": 38}

>  <energy>  (81) 
-8.41

>  <cluster_rmsd>  (81) 
1.43

>  <cluster>  (81) 
2

$$$$

     RDKit          3D

 63 66  0  0  0  0  0  0  0  0999 V2000
  142.6890   80.3350  222.7380 C   0  0  0  0  0  0  0  0  0  0  0  0
  141.8490   79.8320  221.5730 C   0  0  0  0  0  0  0  0  0  0  0  0
  141.4410   78.4500  221.9250 C   0  0  0  0  0  0  0  0  0  0  0  0
  141.4050   78.1300  223.1290 O   0  0  0  0  0  0  0  0  0  0  0  0
  141.0990   77.5190  220.8710 N   0  0  0  0  0  0  0  0  0  0  0  0
  141.7460   77.6280  219.5990 C   0  0  0  0  0  0  0  0  0  0  0  0
  141.3580   78.6700  218.7730 C   0  0  0  0  0  0  0  0  0  0  0  0
  141.9520   78.8150  217.5430 C   0  0  0  0  0  0  0  0  0  0  0  0
  142.9360   77.9030  217.1570 C   0  0  0  0  0  0  0  0  0  0  0  0
  143.3230   76.8580  217.9870 C   0  0  0  0  0  0  0  0  0  0  0  0
  142.7250   76.7180  219.2180 C   0  0  0  0  0  0  0  0  0  0  0  0
  140.1080   76.4880  221.0990 C   0  0  0  0  0  0  0  0  0  0  0  0
  140.6990   75.4300  221.9750 C   0  0  0  0  0  0  0  0  0  0  0  0
  140.5090   74.0120  221.4010 C   0  0  0  0  0  0  0  0  0  0  0  0
  139.1370   73.7980  221.0270 N   0  0  0  0  0  0  0  0  0  0  0  0
  138.4010   72.6070  221.3520 C   0  0  0  0  0  0  0  0  0  0  0  0
  137.2050   72.5770  220.9730 O   0  0  0  0  0  0  0  0  0  0  0  0
  138.9460   71.4680  222.0760 C   0  0  0  0  0  0  0  0  0  0  0  0
  138.8550   71.5330  223.5760 C   0  0  1  0  0  0  0  0  0  0  0  0
  137.4830   71.8860  223.9010 N   0  0  0  0  0  0  0  0  0  0  0  0
  139.1880   70.2650  224.1990 C   0  0  0  0  0  0  0  0  0  0  0  0
  138.8890   69.0440  223.6350 C   0  0  0  0  0  0  0  0  0  0  0  0
  139.1850   67.8320  224.2150 C   0  0  0  0  0  0  0  0  0  0  0  0
  139.8200   67.8110  225.4390 C   0  0  0  0  0  0  0  0  0  0  0  0
  140.1310   69.0110  226.0290 C   0  0  0  0  0  0  0  0  0  0  0  0
  140.7570   68.9740  227.2520 C   0  0  0  0  0  0  0  0  0  0  0  0
  141.1010   70.1210  227.9190 C   0  0  0  0  0  0  0  0  0  0  0  0
  140.8090   71.3540  227.3450 C   0  0  0  0  0  0  0  0  0  0  0  0
  140.1850   71.3630  226.1270 C   0  0  0  0  0  0  0  0  0  0  0  0
  139.8260   70.2260  225.4310 C   0  0  0  0  0  0  0  0  0  0  0  0
  138.4940   74.8830  220.2780 C   0  0  0  0  0  0  0  0  0  0  0  0
  139.6160   75.8200  219.8500 C   0  0  0  0  0  0  0  0  0  0  0  0
  142.2102   80.0483  223.6859 H   0  0  0  0  0  0  0  0  0  0  0  0
  143.6934   79.8896  222.6851 H   0  0  0  0  0  0  0  0  0  0  0  0
  142.7706   81.4307  222.6851 H   0  0  0  0  0  0  0  0  0  0  0  0
  140.9624   80.4691  221.4388 H   0  0  0  0  0  0  0  0  0  0  0  0
  142.4153   79.8555  220.6302 H   0  0  0  0  0  0  0  0  0  0  0  0
  140.5802   79.3759  219.0995 H   0  0  0  0  0  0  0  0  0  0  0  0
  141.6572   79.6362  216.8731 H   0  0  0  0  0  0  0  0  0  0  0  0
  143.4159   78.0142  216.1734 H   0  0  0  0  0  0  0  0  0  0  0  0
  144.0998   76.1497  217.6630 H   0  0  0  0  0  0  0  0  0  0  0  0
  143.0173   75.8982  219.8906 H   0  0  0  0  0  0  0  0  0  0  0  0
  139.2476   76.9930  221.5623 H   0  0  0  0  0  0  0  0  0  0  0  0
  141.7761   75.6244  222.0848 H   0  0  0  0  0  0  0  0  0  0  0  0
  140.1792   75.4702  222.9436 H   0  0  0  0  0  0  0  0  0  0  0  0
  141.1486   73.8921  220.5141 H   0  0  0  0  0  0  0  0  0  0  0  0
  140.7858   73.2771  222.1713 H   0  0  0  0  0  0  0  0  0  0  0  0
  138.4051   70.5692  221.7450 H   0  0  0  0  0  0  0  0  0  0  0  0
  140.0215   71.4580  221.8452 H   0  0  0  0  0  0  0  0  0  0  0  0
  139.5742   72.2741  223.9548 H   0  0  0  0  0  0  0  0  0  0  0  0
  137.0240   72.4130  223.1240 H   0  0  0  0  0  0  0  0  0  0  0  0
  137.3730   72.3040  224.8240 H   0  0  0  0  0  0  0  0  0  0  0  0
  138.3815   69.0378  222.6591 H   0  0  0  0  0  0  0  0  0  0  0  0
  138.9187   66.8922  223.7091 H   0  0  0  0  0  0  0  0  0  0  0  0
  140.0705   66.8587  225.9292 H   0  0  0  0  0  0  0  0  0  0  0  0
  140.9878   67.9994  227.7070 H   0  0  0  0  0  0  0  0  0  0  0  0
  141.6021   70.0671  228.8968 H   0  0  0  0  0  0  0  0  0  0  0  0
  141.0716   72.2929  227.8544 H   0  0  0  0  0  0  0  0  0  0  0  0
  139.9548   72.3384  225.6736 H   0  0  0  0  0  0  0  0  0  0  0  0
  137.9733   74.4822  219.3958 H   0  0  0  0  0  0  0  0  0  0  0  0
  137.7440   75.4056  220.8898 H   0  0  0  0  0  0  0  0  0  0  0  0
  140.4293   75.2492  219.3780 H   0  0  0  0  0  0  0  0  0  0  0  0
  139.2613   76.5582  219.1157 H   0  0  0  0  0  0  0  0  0  0  0  0
  1  2  1  0
  2  3  1  0
  3  4  2  0
  3  5  1  0
  5  6  1  0
  6  7  2  0
  7  8  1  0
  8  9  2  0
  9 10  1  0
 10 11  2  0
  5 12  1  0
 12 13  1  0
 13 14  1  0
 14 15  1  0
 15 16  1  0
 16 17  2  0
 16 18  1  0
 18 19  1  0
 19 20  1  0
 19 21  1  0
 21 22  2  0
 22 23  1  0
 23 24  2  0
 24 25  1  0
 25 26  2  0
 26 27  1  0
 27 28  2  0
 28 29  1  0
 29 30  2  0
 15 31  1  0
 31 32  1  0
 11  6  1  0
 32 12  1  0
 30 21  1  0
 30 25  1  0
  1 33  1  0
  1 34  1  0
  1 35  1  0
  2 36  1  0
  2 37  1  0
  7 38  1  0
  8 39  1  0
  9 40  1  0
 10 41  1  0
 11 42  1  0
 12 43  1  0
 13 44  1  0
 13 45  1  0
 14 46  1  0
 14 47  1  0
 18 48  1  0
 18 49  1  0
 19 50  1  1
 20 51  1  0
 20 52  1  0
 22 53  1  0
 23 54  1  0
 24 55  1  0
 26 56  1  0
 27 57  1  0
 28 58  1  0
 29 59  1  0
 31 60  1  0
 31 61  1  0
 32 62  1  0
 32 63  1  0
M  END
>  <smiles>  (82) 
CCC(=O)N(c1ccccc1)C1CCN(C(=O)CC(N)c2cccc3ccccc23)CC1

>  <score_type>  (82) 
oracle

>  <origin>  (82) 
autodockgpu

>  <m_score__min__energy>  (82) 
-9.3599999999999994

>  <m_primary>  (82) 
energy

>  <rmsd>  (82) 
8.703412358389157

>  <m_score__min__rmsd>  (82) 
8.703412358389157

>  <meeko>  (82) 
{"free_energy": -7.69, "intermolecular_energy": -10.08, "internal_energy": -1.9, "cluster_size": 2, "cluster_id": 7, "rank_in_cluster": 2}

>  <energy>  (82) 
-8.41

>  <cluster_rmsd>  (82) 
0.78

>  <cluster>  (82) 
2

$$$$

     RDKit          3D

 63 66  0  0  0  0  0  0  0  0999 V2000
  142.8670   76.4320  219.6090 C   0  0  0  0  0  0  0  0  0  0  0  0
  142.4940   77.7760  219.0010 C   0  0  0  0  0  0  0  0  0  0  0  0
  141.0610   77.9910  219.3230 C   0  0  0  0  0  0  0  0  0  0  0  0
  140.3000   78.3790  218.4160 O   0  0  0  0  0  0  0  0  0  0  0  0
  140.5910   77.7460  220.6700 N   0  0  0  0  0  0  0  0  0  0  0  0
  140.9070   78.6820  221.7070 C   0  0  0  0  0  0  0  0  0  0  0  0
  139.8540   79.2030  222.4390 C   0  0  0  0  0  0  0  0  0  0  0  0
  140.1100   80.1040  223.4440 C   0  0  0  0  0  0  0  0  0  0  0  0
  141.4320   80.4710  223.7010 C   0  0  0  0  0  0  0  0  0  0  0  0
  142.4880   79.9480  222.9640 C   0  0  0  0  0  0  0  0  0  0  0  0
  142.2250   79.0450  221.9590 C   0  0  0  0  0  0  0  0  0  0  0  0
  139.8110   76.5630  220.9690 C   0  0  0  0  0  0  0  0  0  0  0  0
  140.5110   75.7750  222.0300 C   0  0  0  0  0  0  0  0  0  0  0  0
  140.6730   74.2890  221.6520 C   0  0  0  0  0  0  0  0  0  0  0  0
  139.4200   73.7400  221.2110 N   0  0  0  0  0  0  0  0  0  0  0  0
  138.9110   72.4680  221.6480 C   0  0  0  0  0  0  0  0  0  0  0  0
  137.7910   72.1350  221.1890 O   0  0  0  0  0  0  0  0  0  0  0  0
  139.5970   71.5730  222.5670 C   0  0  0  0  0  0  0  0  0  0  0  0
  139.0260   71.4840  223.9550 C   0  0  1  0  0  0  0  0  0  0  0  0
  137.5900   71.6660  223.8330 N   0  0  0  0  0  0  0  0  0  0  0  0
  139.2990   70.2010  224.5770 C   0  0  0  0  0  0  0  0  0  0  0  0
  138.9660   68.9950  224.0010 C   0  0  0  0  0  0  0  0  0  0  0  0
  139.2050   67.7700  224.5800 C   0  0  0  0  0  0  0  0  0  0  0  0
  139.8130   67.7190  225.8150 C   0  0  0  0  0  0  0  0  0  0  0  0
  140.1570   68.9040  226.4190 C   0  0  0  0  0  0  0  0  0  0  0  0
  140.7570   68.8370  227.6540 C   0  0  0  0  0  0  0  0  0  0  0  0
  141.1300   69.9680  228.3330 C   0  0  0  0  0  0  0  0  0  0  0  0
  140.8960   71.2130  227.7610 C   0  0  0  0  0  0  0  0  0  0  0  0
  140.2980   71.2520  226.5320 C   0  0  0  0  0  0  0  0  0  0  0  0
  139.9110   70.1330  225.8210 C   0  0  0  0  0  0  0  0  0  0  0  0
  138.6500   74.5590  220.2680 C   0  0  0  0  0  0  0  0  0  0  0  0
  139.5970   75.6550  219.7960 C   0  0  0  0  0  0  0  0  0  0  0  0
  142.8461   76.5074  220.7062 H   0  0  0  0  0  0  0  0  0  0  0  0
  142.1469   75.6683  219.2802 H   0  0  0  0  0  0  0  0  0  0  0  0
  143.8777   76.1486  219.2802 H   0  0  0  0  0  0  0  0  0  0  0  0
  143.1079   78.5767  219.4393 H   0  0  0  0  0  0  0  0  0  0  0  0
  142.6675   77.7873  217.9148 H   0  0  0  0  0  0  0  0  0  0  0  0
  138.8205   78.8981  222.2178 H   0  0  0  0  0  0  0  0  0  0  0  0
  139.2866   80.5293  224.0365 H   0  0  0  0  0  0  0  0  0  0  0  0
  141.6430   81.1909  224.5055 H   0  0  0  0  0  0  0  0  0  0  0  0
  143.5225   80.2523  223.1815 H   0  0  0  0  0  0  0  0  0  0  0  0
  143.0454   78.6170  221.3642 H   0  0  0  0  0  0  0  0  0  0  0  0
  138.8226   76.9244  221.2890 H   0  0  0  0  0  0  0  0  0  0  0  0
  141.5089   76.2088  222.1910 H   0  0  0  0  0  0  0  0  0  0  0  0
  139.8972   75.8229  222.9416 H   0  0  0  0  0  0  0  0  0  0  0  0
  141.4117   74.2005  220.8418 H   0  0  0  0  0  0  0  0  0  0  0  0
  141.0119   73.7324  222.5382 H   0  0  0  0  0  0  0  0  0  0  0  0
  139.5773   70.5636  222.1303 H   0  0  0  0  0  0  0  0  0  0  0  0
  140.6063   71.9929  222.6895 H   0  0  0  0  0  0  0  0  0  0  0  0
  139.4886   72.2529  224.5913 H   0  0  0  0  0  0  0  0  0  0  0  0
  137.2000   71.1390  223.0190 H   0  0  0  0  0  0  0  0  0  0  0  0
  137.2910   72.6400  223.8930 H   0  0  0  0  0  0  0  0  0  0  0  0
  138.4779   69.0123  223.0154 H   0  0  0  0  0  0  0  0  0  0  0  0
  138.9143   66.8434  224.0634 H   0  0  0  0  0  0  0  0  0  0  0  0
  140.0176   66.7554  226.3044 H   0  0  0  0  0  0  0  0  0  0  0  0
  140.9422   67.8524  228.1082 H   0  0  0  0  0  0  0  0  0  0  0  0
  141.6094   69.8911  229.3200 H   0  0  0  0  0  0  0  0  0  0  0  0
  141.1831   72.1387  228.2812 H   0  0  0  0  0  0  0  0  0  0  0  0
  140.1133   72.2379  226.0806 H   0  0  0  0  0  0  0  0  0  0  0  0
  138.3159   73.9490  219.4158 H   0  0  0  0  0  0  0  0  0  0  0  0
  137.7497   74.9792  220.7401 H   0  0  0  0  0  0  0  0  0  0  0  0
  140.5537   75.2183  219.4734 H   0  0  0  0  0  0  0  0  0  0  0  0
  139.1778   76.2025  218.9390 H   0  0  0  0  0  0  0  0  0  0  0  0
  1  2  1  0
  2  3  1  0
  3  4  2  0
  3  5  1  0
  5  6  1  0
  6  7  2  0
  7  8  1  0
  8  9  2  0
  9 10  1  0
 10 11  2  0
  5 12  1  0
 12 13  1  0
 13 14  1  0
 14 15  1  0
 15 16  1  0
 16 17  2  0
 16 18  1  0
 18 19  1  0
 19 20  1  0
 19 21  1  0
 21 22  2  0
 22 23  1  0
 23 24  2  0
 24 25  1  0
 25 26  2  0
 26 27  1  0
 27 28  2  0
 28 29  1  0
 29 30  2  0
 15 31  1  0
 31 32  1  0
 11  6  1  0
 32 12  1  0
 30 21  1  0
 30 25  1  0
  1 33  1  0
  1 34  1  0
  1 35  1  0
  2 36  1  0
  2 37  1  0
  7 38  1  0
  8 39  1  0
  9 40  1  0
 10 41  1  0
 11 42  1  0
 12 43  1  0
 13 44  1  0
 13 45  1  0
 14 46  1  0
 14 47  1  0
 18 48  1  0
 18 49  1  0
 19 50  1  1
 20 51  1  0
 20 52  1  0
 22 53  1  0
 23 54  1  0
 24 55  1  0
 26 56  1  0
 27 57  1  0
 28 58  1  0
 29 59  1  0
 31 60  1  0
 31 61  1  0
 32 62  1  0
 32 63  1  0
M  END
>  <smiles>  (83) 
CCC(=O)N(c1ccccc1)C1CCN(C(=O)CC(N)c2cccc3ccccc23)CC1

>  <score_type>  (83) 
oracle

>  <origin>  (83) 
autodockgpu

>  <m_score__min__energy>  (83) 
-9.3599999999999994

>  <m_primary>  (83) 
energy

>  <rmsd>  (83) 
8.790771487838516

>  <m_score__min__rmsd>  (83) 
8.790771487838516

>  <meeko>  (83) 
{"free_energy": -8.39, "intermolecular_energy": -10.77, "internal_energy": -2.07, "cluster_size": 39, "cluster_id": 2, "rank_in_cluster": 33}

>  <energy>  (83) 
-8.41

>  <cluster_rmsd>  (83) 
1.07

>  <cluster>  (83) 
2

$$$$

     RDKit          3D

 63 66  0  0  0  0  0  0  0  0999 V2000
  142.5160   79.6850  218.2290 C   0  0  0  0  0  0  0  0  0  0  0  0
  141.3730   78.7080  218.4610 C   0  0  0  0  0  0  0  0  0  0  0  0
  141.8690   77.7220  219.4540 C   0  0  0  0  0  0  0  0  0  0  0  0
  142.9590   77.1590  219.2370 O   0  0  0  0  0  0  0  0  0  0  0  0
  141.0800   77.4450  220.6350 N   0  0  0  0  0  0  0  0  0  0  0  0
  141.0640   78.3910  221.7090 C   0  0  0  0  0  0  0  0  0  0  0  0
  142.2180   79.1250  221.9300 C   0  0  0  0  0  0  0  0  0  0  0  0
  142.2480   80.0440  222.9500 C   0  0  0  0  0  0  0  0  0  0  0  0
  141.1100   80.2150  223.7390 C   0  0  0  0  0  0  0  0  0  0  0  0
  139.9540   79.4780  223.5160 C   0  0  0  0  0  0  0  0  0  0  0  0
  139.9290   78.5590  222.4930 C   0  0  0  0  0  0  0  0  0  0  0  0
  140.3160   76.2180  220.7320 C   0  0  0  0  0  0  0  0  0  0  0  0
  140.7420   75.4760  221.9590 C   0  0  0  0  0  0  0  0  0  0  0  0
  141.0850   74.0020  221.6690 C   0  0  0  0  0  0  0  0  0  0  0  0
  140.0320   73.3780  220.9130 N   0  0  0  0  0  0  0  0  0  0  0  0
  139.4960   72.0790  221.2190 C   0  0  0  0  0  0  0  0  0  0  0  0
  138.5650   71.6780  220.4780 O   0  0  0  0  0  0  0  0  0  0  0  0
  139.9540   71.2290  222.3070 C   0  0  0  0  0  0  0  0  0  0  0  0
  139.3540   71.5030  223.6580 C   0  0  1  0  0  0  0  0  0  0  0  0
  137.9270   71.6930  223.4550 N   0  0  0  0  0  0  0  0  0  0  0  0
  139.5670   70.4040  224.5840 C   0  0  0  0  0  0  0  0  0  0  0  0
  139.2030   69.1050  224.3110 C   0  0  0  0  0  0  0  0  0  0  0  0
  139.3850   68.0530  225.1790 C   0  0  0  0  0  0  0  0  0  0  0  0
  139.9660   68.2890  226.4070 C   0  0  0  0  0  0  0  0  0  0  0  0
  140.3400   69.5750  226.7110 C   0  0  0  0  0  0  0  0  0  0  0  0
  140.9110   69.7960  227.9410 C   0  0  0  0  0  0  0  0  0  0  0  0
  141.3110   71.0470  228.3330 C   0  0  0  0  0  0  0  0  0  0  0  0
  141.1350   72.1200  227.4670 C   0  0  0  0  0  0  0  0  0  0  0  0
  140.5630   71.8730  226.2490 C   0  0  0  0  0  0  0  0  0  0  0  0
  140.1500   70.6260  225.8240 C   0  0  0  0  0  0  0  0  0  0  0  0
  139.5050   74.1460  219.7800 C   0  0  0  0  0  0  0  0  0  0  0  0
  140.4820   75.2950  219.5630 C   0  0  0  0  0  0  0  0  0  0  0  0
  142.9117   80.0232  219.1981 H   0  0  0  0  0  0  0  0  0  0  0  0
  143.3149   79.1864  217.6606 H   0  0  0  0  0  0  0  0  0  0  0  0
  142.1478   80.5518  217.6606 H   0  0  0  0  0  0  0  0  0  0  0  0
  140.4928   79.2370  218.8552 H   0  0  0  0  0  0  0  0  0  0  0  0
  141.0679   78.2170  217.5251 H   0  0  0  0  0  0  0  0  0  0  0  0
  143.1025   78.9730  221.2940 H   0  0  0  0  0  0  0  0  0  0  0  0
  143.1550   80.6360  223.1420 H   0  0  0  0  0  0  0  0  0  0  0  0
  141.1288   80.9506  224.5566 H   0  0  0  0  0  0  0  0  0  0  0  0
  139.0681   79.6277  224.1507 H   0  0  0  0  0  0  0  0  0  0  0  0
  139.0236   77.9655  222.2982 H   0  0  0  0  0  0  0  0  0  0  0  0
  139.2591   76.5214  220.7626 H   0  0  0  0  0  0  0  0  0  0  0  0
  141.6314   75.9691  222.3782 H   0  0  0  0  0  0  0  0  0  0  0  0
  139.9000   75.4898  222.6667 H   0  0  0  0  0  0  0  0  0  0  0  0
  142.0209   73.9549  221.0929 H   0  0  0  0  0  0  0  0  0  0  0  0
  141.2001   73.4693  222.6245 H   0  0  0  0  0  0  0  0  0  0  0  0
  139.7209   70.1875  222.0407 H   0  0  0  0  0  0  0  0  0  0  0  0
  141.0287   71.4382  222.4131 H   0  0  0  0  0  0  0  0  0  0  0  0
  139.8326   72.3903  224.0982 H   0  0  0  0  0  0  0  0  0  0  0  0
  137.6610   71.5890  222.4500 H   0  0  0  0  0  0  0  0  0  0  0  0
  137.5540   72.5260  223.9110 H   0  0  0  0  0  0  0  0  0  0  0  0
  138.7370   68.8945  223.3371 H   0  0  0  0  0  0  0  0  0  0  0  0
  139.0711   67.0371  224.8970 H   0  0  0  0  0  0  0  0  0  0  0  0
  140.1256   67.4697  227.1235 H   0  0  0  0  0  0  0  0  0  0  0  0
  141.0505   68.9483  228.6279 H   0  0  0  0  0  0  0  0  0  0  0  0
  141.7665   71.2003  229.3225 H   0  0  0  0  0  0  0  0  0  0  0  0
  141.4459   73.1359  227.7521 H   0  0  0  0  0  0  0  0  0  0  0  0
  140.4232   72.7225  225.5643 H   0  0  0  0  0  0  0  0  0  0  0  0
  139.4519   73.5141  218.8812 H   0  0  0  0  0  0  0  0  0  0  0  0
  138.4877   74.5135  219.9798 H   0  0  0  0  0  0  0  0  0  0  0  0
  141.5134   74.9148  219.5219 H   0  0  0  0  0  0  0  0  0  0  0  0
  140.2829   75.8139  218.6138 H   0  0  0  0  0  0  0  0  0  0  0  0
  1  2  1  0
  2  3  1  0
  3  4  2  0
  3  5  1  0
  5  6  1  0
  6  7  2  0
  7  8  1  0
  8  9  2  0
  9 10  1  0
 10 11  2  0
  5 12  1  0
 12 13  1  0
 13 14  1  0
 14 15  1  0
 15 16  1  0
 16 17  2  0
 16 18  1  0
 18 19  1  0
 19 20  1  0
 19 21  1  0
 21 22  2  0
 22 23  1  0
 23 24  2  0
 24 25  1  0
 25 26  2  0
 26 27  1  0
 27 28  2  0
 28 29  1  0
 29 30  2  0
 15 31  1  0
 31 32  1  0
 11  6  1  0
 32 12  1  0
 30 21  1  0
 30 25  1  0
  1 33  1  0
  1 34  1  0
  1 35  1  0
  2 36  1  0
  2 37  1  0
  7 38  1  0
  8 39  1  0
  9 40  1  0
 10 41  1  0
 11 42  1  0
 12 43  1  0
 13 44  1  0
 13 45  1  0
 14 46  1  0
 14 47  1  0
 18 48  1  0
 18 49  1  0
 19 50  1  1
 20 51  1  0
 20 52  1  0
 22 53  1  0
 23 54  1  0
 24 55  1  0
 26 56  1  0
 27 57  1  0
 28 58  1  0
 29 59  1  0
 31 60  1  0
 31 61  1  0
 32 62  1  0
 32 63  1  0
M  END
>  <smiles>  (84) 
CCC(=O)N(c1ccccc1)C1CCN(C(=O)CC(N)c2cccc3ccccc23)CC1

>  <score_type>  (84) 
oracle

>  <origin>  (84) 
autodockgpu

>  <m_score__min__energy>  (84) 
-9.3599999999999994

>  <m_primary>  (84) 
energy

>  <rmsd>  (84) 
8.744279859346651

>  <m_score__min__rmsd>  (84) 
8.744279859346651

>  <meeko>  (84) 
{"free_energy": -8.76, "intermolecular_energy": -11.15, "internal_energy": -2.01, "cluster_size": 39, "cluster_id": 2, "rank_in_cluster": 9}

>  <energy>  (84) 
-8.39

>  <cluster_rmsd>  (84) 
1.07

>  <cluster>  (84) 
2

$$$$

     RDKit          3D

 63 66  0  0  0  0  0  0  0  0999 V2000
  142.6170   78.5160  217.8410 C   0  0  0  0  0  0  0  0  0  0  0  0
  142.2750   77.5390  218.9560 C   0  0  0  0  0  0  0  0  0  0  0  0
  141.0190   78.0390  219.5710 C   0  0  0  0  0  0  0  0  0  0  0  0
  140.2010   78.6390  218.8460 O   0  0  0  0  0  0  0  0  0  0  0  0
  140.7810   77.8180  220.9810 N   0  0  0  0  0  0  0  0  0  0  0  0
  141.3240   78.7340  221.9380 C   0  0  0  0  0  0  0  0  0  0  0  0
  141.8100   79.9410  221.4630 C   0  0  0  0  0  0  0  0  0  0  0  0
  142.3390   80.8510  222.3450 C   0  0  0  0  0  0  0  0  0  0  0  0
  142.3720   80.5330  223.7040 C   0  0  0  0  0  0  0  0  0  0  0  0
  141.8850   79.3220  224.1790 C   0  0  0  0  0  0  0  0  0  0  0  0
  141.3550   78.4150  223.2910 C   0  0  0  0  0  0  0  0  0  0  0  0
  140.0050   76.6780  221.4220 C   0  0  0  0  0  0  0  0  0  0  0  0
  140.9200   75.5070  221.5990 C   0  0  0  0  0  0  0  0  0  0  0  0
  140.4090   74.2440  220.8780 C   0  0  0  0  0  0  0  0  0  0  0  0
  139.0310   73.9970  221.2050 N   0  0  0  0  0  0  0  0  0  0  0  0
  138.5180   72.7010  221.5600 C   0  0  0  0  0  0  0  0  0  0  0  0
  137.2950   72.6500  221.8400 O   0  0  0  0  0  0  0  0  0  0  0  0
  139.3110   71.4830  221.6150 C   0  0  0  0  0  0  0  0  0  0  0  0
  140.2020   71.3270  222.8160 C   0  0  1  0  0  0  0  0  0  0  0  0
  140.3440   72.6450  223.4110 N   0  0  0  0  0  0  0  0  0  0  0  0
  139.6420   70.4130  223.7960 C   0  0  0  0  0  0  0  0  0  0  0  0
  138.7010   69.4570  223.4870 C   0  0  0  0  0  0  0  0  0  0  0  0
  138.1500   68.5910  224.4030 C   0  0  0  0  0  0  0  0  0  0  0  0
  138.5470   68.6660  225.7210 C   0  0  0  0  0  0  0  0  0  0  0  0
  139.4830   69.6110  226.0640 C   0  0  0  0  0  0  0  0  0  0  0  0
  139.8640   69.6790  227.3830 C   0  0  0  0  0  0  0  0  0  0  0  0
  140.7880   70.5930  227.8180 C   0  0  0  0  0  0  0  0  0  0  0  0
  141.3550   71.4750  226.9040 C   0  0  0  0  0  0  0  0  0  0  0  0
  140.9590   71.3860  225.5970 C   0  0  0  0  0  0  0  0  0  0  0  0
  140.0310   70.4770  225.1270 C   0  0  0  0  0  0  0  0  0  0  0  0
  138.1380   75.1600  221.1670 C   0  0  0  0  0  0  0  0  0  0  0  0
  138.9210   76.2670  220.4720 C   0  0  0  0  0  0  0  0  0  0  0  0
  142.9506   79.4688  218.2779 H   0  0  0  0  0  0  0  0  0  0  0  0
  143.4216   78.0960  217.2195 H   0  0  0  0  0  0  0  0  0  0  0  0
  141.7262   78.6895  217.2195 H   0  0  0  0  0  0  0  0  0  0  0  0
  142.1238   76.5295  218.5460 H   0  0  0  0  0  0  0  0  0  0  0  0
  143.0864   77.4736  219.6959 H   0  0  0  0  0  0  0  0  0  0  0  0
  141.7725   80.1689  220.3875 H   0  0  0  0  0  0  0  0  0  0  0  0
  142.7303   81.8146  221.9866 H   0  0  0  0  0  0  0  0  0  0  0  0
  142.7936   81.2585  224.4153 H   0  0  0  0  0  0  0  0  0  0  0  0
  141.9228   79.0908  225.2538 H   0  0  0  0  0  0  0  0  0  0  0  0
  140.9613   77.4512  223.6461 H   0  0  0  0  0  0  0  0  0  0  0  0
  139.5199   76.9860  222.3600 H   0  0  0  0  0  0  0  0  0  0  0  0
  141.9092   75.7680  221.1948 H   0  0  0  0  0  0  0  0  0  0  0  0
  140.9692   75.2810  222.6744 H   0  0  0  0  0  0  0  0  0  0  0  0
  140.5029   74.3853  219.7912 H   0  0  0  0  0  0  0  0  0  0  0  0
  141.0105   73.3823  221.2032 H   0  0  0  0  0  0  0  0  0  0  0  0
  138.6174   70.6294  221.5981 H   0  0  0  0  0  0  0  0  0  0  0  0
  139.9880   71.5321  220.7494 H   0  0  0  0  0  0  0  0  0  0  0  0
  141.1694   70.9078  222.5023 H   0  0  0  0  0  0  0  0  0  0  0  0
  139.4290   73.1460  223.4680 H   0  0  0  0  0  0  0  0  0  0  0  0
  141.1070   73.1950  223.0160 H   0  0  0  0  0  0  0  0  0  0  0  0
  138.3685   69.3806  222.4412 H   0  0  0  0  0  0  0  0  0  0  0  0
  137.4023   67.8483  224.0878 H   0  0  0  0  0  0  0  0  0  0  0  0
  138.1257   67.9875  226.4774 H   0  0  0  0  0  0  0  0  0  0  0  0
  139.4162   68.9826  228.1073 H   0  0  0  0  0  0  0  0  0  0  0  0
  141.0781   70.6287  228.8785 H   0  0  0  0  0  0  0  0  0  0  0  0
  142.0985   72.2208  227.2218 H   0  0  0  0  0  0  0  0  0  0  0  0
  141.4085   72.0830  224.8744 H   0  0  0  0  0  0  0  0  0  0  0  0
  137.2256   74.9231  220.6001 H   0  0  0  0  0  0  0  0  0  0  0  0
  137.8246   75.4610  222.1775 H   0  0  0  0  0  0  0  0  0  0  0  0
  139.3582   75.8930  219.5345 H   0  0  0  0  0  0  0  0  0  0  0  0
  138.2704   77.1166  220.2172 H   0  0  0  0  0  0  0  0  0  0  0  0
  1  2  1  0
  2  3  1  0
  3  4  2  0
  3  5  1  0
  5  6  1  0
  6  7  2  0
  7  8  1  0
  8  9  2  0
  9 10  1  0
 10 11  2  0
  5 12  1  0
 12 13  1  0
 13 14  1  0
 14 15  1  0
 15 16  1  0
 16 17  2  0
 16 18  1  0
 18 19  1  0
 19 20  1  0
 19 21  1  0
 21 22  2  0
 22 23  1  0
 23 24  2  0
 24 25  1  0
 25 26  2  0
 26 27  1  0
 27 28  2  0
 28 29  1  0
 29 30  2  0
 15 31  1  0
 31 32  1  0
 11  6  1  0
 32 12  1  0
 30 21  1  0
 30 25  1  0
  1 33  1  0
  1 34  1  0
  1 35  1  0
  2 36  1  0
  2 37  1  0
  7 38  1  0
  8 39  1  0
  9 40  1  0
 10 41  1  0
 11 42  1  0
 12 43  1  0
 13 44  1  0
 13 45  1  0
 14 46  1  0
 14 47  1  0
 18 48  1  0
 18 49  1  0
 19 50  1  6
 20 51  1  0
 20 52  1  0
 22 53  1  0
 23 54  1  0
 24 55  1  0
 26 56  1  0
 27 57  1  0
 28 58  1  0
 29 59  1  0
 31 60  1  0
 31 61  1  0
 32 62  1  0
 32 63  1  0
M  END
>  <smiles>  (85) 
CCC(=O)N(c1ccccc1)C1CCN(C(=O)CC(N)c2cccc3ccccc23)CC1

>  <score_type>  (85) 
oracle

>  <origin>  (85) 
autodockgpu

>  <m_score__min__energy>  (85) 
-9.3599999999999994

>  <m_primary>  (85) 
energy

>  <rmsd>  (85) 
8.417066460019132

>  <m_score__min__rmsd>  (85) 
8.417066460019132

>  <meeko>  (85) 
{"free_energy": -8.53, "intermolecular_energy": -10.92, "internal_energy": -1.14, "cluster_size": 39, "cluster_id": 2, "rank_in_cluster": 24}

>  <energy>  (85) 
-8.34

>  <cluster_rmsd>  (85) 
0.78

>  <cluster>  (85) 
2

$$$$

     RDKit          3D

 63 66  0  0  0  0  0  0  0  0999 V2000
  143.3120   74.9790  219.1640 C   0  0  0  0  0  0  0  0  0  0  0  0
  143.6010   76.3940  219.6430 C   0  0  0  0  0  0  0  0  0  0  0  0
  142.3380   77.1550  219.4670 C   0  0  0  0  0  0  0  0  0  0  0  0
  142.0710   77.6080  218.3380 O   0  0  0  0  0  0  0  0  0  0  0  0
  141.4610   77.3480  220.6020 N   0  0  0  0  0  0  0  0  0  0  0  0
  141.5690   78.5450  221.3790 C   0  0  0  0  0  0  0  0  0  0  0  0
  141.7530   79.7350  220.6950 C   0  0  0  0  0  0  0  0  0  0  0  0
  141.8610   80.9100  221.4000 C   0  0  0  0  0  0  0  0  0  0  0  0
  141.7810   80.8710  222.7930 C   0  0  0  0  0  0  0  0  0  0  0  0
  141.5970   79.6760  223.4770 C   0  0  0  0  0  0  0  0  0  0  0  0
  141.4890   78.5030  222.7660 C   0  0  0  0  0  0  0  0  0  0  0  0
  140.4860   76.3360  220.9520 C   0  0  0  0  0  0  0  0  0  0  0  0
  141.0870   75.4100  221.9610 C   0  0  0  0  0  0  0  0  0  0  0  0
  140.9270   73.9270  221.5720 C   0  0  0  0  0  0  0  0  0  0  0  0
  139.5630   73.6420  221.2170 N   0  0  0  0  0  0  0  0  0  0  0  0
  138.8440   72.4880  221.6870 C   0  0  0  0  0  0  0  0  0  0  0  0
  137.6530   72.3880  221.3060 O   0  0  0  0  0  0  0  0  0  0  0  0
  139.4020   71.4620  222.5540 C   0  0  0  0  0  0  0  0  0  0  0  0
  138.9080   71.4570  223.9750 C   0  0  1  0  0  0  0  0  0  0  0  0
  137.4620   71.5880  223.9200 N   0  0  0  0  0  0  0  0  0  0  0  0
  139.2550   70.2300  224.6690 C   0  0  0  0  0  0  0  0  0  0  0  0
  138.9330   68.9770  224.1970 C   0  0  0  0  0  0  0  0  0  0  0  0
  139.2410   67.8040  224.8470 C   0  0  0  0  0  0  0  0  0  0  0  0
  139.9150   67.8590  226.0480 C   0  0  0  0  0  0  0  0  0  0  0  0
  140.2510   69.0930  226.5480 C   0  0  0  0  0  0  0  0  0  0  0  0
  140.9160   69.1320  227.7500 C   0  0  0  0  0  0  0  0  0  0  0  0
  141.2870   70.3190  228.3280 C   0  0  0  0  0  0  0  0  0  0  0  0
  140.9820   71.5130  227.6840 C   0  0  0  0  0  0  0  0  0  0  0  0
  140.3200   71.4460  226.4880 C   0  0  0  0  0  0  0  0  0  0  0  0
  139.9330   70.2680  225.8800 C   0  0  0  0  0  0  0  0  0  0  0  0
  138.9080   74.6100  220.3310 C   0  0  0  0  0  0  0  0  0  0  0  0
  140.0180   75.5050  219.7960 C   0  0  0  0  0  0  0  0  0  0  0  0
  143.1770   74.3181  220.0329 H   0  0  0  0  0  0  0  0  0  0  0  0
  142.3950   74.9777  218.5564 H   0  0  0  0  0  0  0  0  0  0  0  0
  144.1550   74.6182  218.5564 H   0  0  0  0  0  0  0  0  0  0  0  0
  143.8969   76.3853  220.7024 H   0  0  0  0  0  0  0  0  0  0  0  0
  144.4265   76.8492  219.0761 H   0  0  0  0  0  0  0  0  0  0  0  0
  141.8123   79.7399  219.5966 H   0  0  0  0  0  0  0  0  0  0  0  0
  142.0080   81.8654  220.8750 H   0  0  0  0  0  0  0  0  0  0  0  0
  141.8656   81.8084  223.3624 H   0  0  0  0  0  0  0  0  0  0  0  0
  141.5383   79.6676  224.5754 H   0  0  0  0  0  0  0  0  0  0  0  0
  141.3415   77.5459  223.2877 H   0  0  0  0  0  0  0  0  0  0  0  0
  139.6121   76.8800  221.3397 H   0  0  0  0  0  0  0  0  0  0  0  0
  142.1595   75.6367  222.0528 H   0  0  0  0  0  0  0  0  0  0  0  0
  140.5575   75.5644  222.9127 H   0  0  0  0  0  0  0  0  0  0  0  0
  141.5779   73.7061  220.7132 H   0  0  0  0  0  0  0  0  0  0  0  0
  141.2078   73.3020  222.4325 H   0  0  0  0  0  0  0  0  0  0  0  0
  139.1649   70.4830  222.1121 H   0  0  0  0  0  0  0  0  0  0  0  0
  140.4784   71.6802  222.6157 H   0  0  0  0  0  0  0  0  0  0  0  0
  139.3780   72.2829  224.5291 H   0  0  0  0  0  0  0  0  0  0  0  0
  137.0730   71.2170  223.0240 H   0  0  0  0  0  0  0  0  0  0  0  0
  137.1230   72.5140  224.1810 H   0  0  0  0  0  0  0  0  0  0  0  0
  138.3955   68.9096  223.2396 H   0  0  0  0  0  0  0  0  0  0  0  0
  138.9530   66.8348  224.4137 H   0  0  0  0  0  0  0  0  0  0  0  0
  140.1767   66.9391  226.5914 H   0  0  0  0  0  0  0  0  0  0  0  0
  141.1566   68.1881  228.2610 H   0  0  0  0  0  0  0  0  0  0  0  0
  141.8199   70.3264  229.2903 H   0  0  0  0  0  0  0  0  0  0  0  0
  141.2641   72.4817  228.1223 H   0  0  0  0  0  0  0  0  0  0  0  0
  140.0809   72.3910  225.9784 H   0  0  0  0  0  0  0  0  0  0  0  0
  138.4033   74.0903  219.5032 H   0  0  0  0  0  0  0  0  0  0  0  0
  138.1424   75.1920  220.8649 H   0  0  0  0  0  0  0  0  0  0  0  0
  140.8457   74.8935  219.4074 H   0  0  0  0  0  0  0  0  0  0  0  0
  139.6578   76.1369  218.9708 H   0  0  0  0  0  0  0  0  0  0  0  0
  1  2  1  0
  2  3  1  0
  3  4  2  0
  3  5  1  0
  5  6  1  0
  6  7  2  0
  7  8  1  0
  8  9  2  0
  9 10  1  0
 10 11  2  0
  5 12  1  0
 12 13  1  0
 13 14  1  0
 14 15  1  0
 15 16  1  0
 16 17  2  0
 16 18  1  0
 18 19  1  0
 19 20  1  0
 19 21  1  0
 21 22  2  0
 22 23  1  0
 23 24  2  0
 24 25  1  0
 25 26  2  0
 26 27  1  0
 27 28  2  0
 28 29  1  0
 29 30  2  0
 15 31  1  0
 31 32  1  0
 11  6  1  0
 32 12  1  0
 30 21  1  0
 30 25  1  0
  1 33  1  0
  1 34  1  0
  1 35  1  0
  2 36  1  0
  2 37  1  0
  7 38  1  0
  8 39  1  0
  9 40  1  0
 10 41  1  0
 11 42  1  0
 12 43  1  0
 13 44  1  0
 13 45  1  0
 14 46  1  0
 14 47  1  0
 18 48  1  0
 18 49  1  0
 19 50  1  1
 20 51  1  0
 20 52  1  0
 22 53  1  0
 23 54  1  0
 24 55  1  0
 26 56  1  0
 27 57  1  0
 28 58  1  0
 29 59  1  0
 31 60  1  0
 31 61  1  0
 32 62  1  0
 32 63  1  0
M  END
>  <smiles>  (86) 
CCC(=O)N(c1ccccc1)C1CCN(C(=O)CC(N)c2cccc3ccccc23)CC1

>  <score_type>  (86) 
oracle

>  <origin>  (86) 
autodockgpu

>  <m_score__min__energy>  (86) 
-9.3599999999999994

>  <m_primary>  (86) 
energy

>  <rmsd>  (86) 
8.810641669977224

>  <m_score__min__rmsd>  (86) 
8.810641669977224

>  <meeko>  (86) 
{"free_energy": -8.67, "intermolecular_energy": -11.06, "internal_energy": -2.03, "cluster_size": 39, "cluster_id": 2, "rank_in_cluster": 17}

>  <energy>  (86) 
-8.25

>  <cluster_rmsd>  (86) 
1.2

>  <cluster>  (86) 
2

$$$$

     RDKit          3D

 63 66  0  0  0  0  0  0  0  0999 V2000
  146.1680   73.0300  221.8740 C   0  0  0  0  0  0  0  0  0  0  0  0
  146.2470   73.8510  220.5950 C   0  0  0  0  0  0  0  0  0  0  0  0
  145.2650   73.2500  219.6580 C   0  0  0  0  0  0  0  0  0  0  0  0
  145.6210   72.2740  218.9690 O   0  0  0  0  0  0  0  0  0  0  0  0
  143.9320   73.8070  219.5720 N   0  0  0  0  0  0  0  0  0  0  0  0
  142.8500   73.1520  220.2420 C   0  0  0  0  0  0  0  0  0  0  0  0
  142.6910   71.7940  220.0220 C   0  0  0  0  0  0  0  0  0  0  0  0
  141.6660   71.1240  220.6440 C   0  0  0  0  0  0  0  0  0  0  0  0
  140.8090   71.8340  221.4870 C   0  0  0  0  0  0  0  0  0  0  0  0
  140.9700   73.1970  221.7060 C   0  0  0  0  0  0  0  0  0  0  0  0
  141.9980   73.8620  221.0800 C   0  0  0  0  0  0  0  0  0  0  0  0
  143.6930   75.0150  218.8090 C   0  0  0  0  0  0  0  0  0  0  0  0
  143.7960   76.1950  219.7230 C   0  0  0  0  0  0  0  0  0  0  0  0
  142.5830   77.1400  219.6070 C   0  0  0  0  0  0  0  0  0  0  0  0
  142.3190   77.4560  218.2300 N   0  0  0  0  0  0  0  0  0  0  0  0
  142.0460   78.7870  217.7580 C   0  0  0  0  0  0  0  0  0  0  0  0
  141.8550   78.9060  216.5230 O   0  0  0  0  0  0  0  0  0  0  0  0
  141.9830   79.9690  218.6040 C   0  0  0  0  0  0  0  0  0  0  0  0
  140.6850   80.1950  219.3280 C   0  0  1  0  0  0  0  0  0  0  0  0
  139.6190   79.9430  218.3730 N   0  0  0  0  0  0  0  0  0  0  0  0
  140.5330   79.3050  220.4670 C   0  0  0  0  0  0  0  0  0  0  0  0
  139.7110   78.2000  220.4580 C   0  0  0  0  0  0  0  0  0  0  0  0
  139.5440   77.3540  221.5290 C   0  0  0  0  0  0  0  0  0  0  0  0
  140.2310   77.6060  222.6980 C   0  0  0  0  0  0  0  0  0  0  0  0
  141.0580   78.7010  222.7400 C   0  0  0  0  0  0  0  0  0  0  0  0
  141.7310   78.9440  223.9140 C   0  0  0  0  0  0  0  0  0  0  0  0
  142.5740   80.0160  224.0510 C   0  0  0  0  0  0  0  0  0  0  0  0
  142.7540   80.8810  222.9770 C   0  0  0  0  0  0  0  0  0  0  0  0
  142.0730   80.6170  221.8200 C   0  0  0  0  0  0  0  0  0  0  0  0
  141.2170   79.5460  221.6500 C   0  0  0  0  0  0  0  0  0  0  0  0
  142.3440   76.3300  217.2900 C   0  0  0  0  0  0  0  0  0  0  0  0
  142.3500   75.0700  218.1470 C   0  0  0  0  0  0  0  0  0  0  0  0
  146.2324   73.6998  222.7442 H   0  0  0  0  0  0  0  0  0  0  0  0
  145.2132   72.4844  221.9011 H   0  0  0  0  0  0  0  0  0  0  0  0
  147.0012   72.3124  221.9011 H   0  0  0  0  0  0  0  0  0  0  0  0
  145.9875   74.9004  220.7985 H   0  0  0  0  0  0  0  0  0  0  0  0
  147.2629   73.8406  220.1732 H   0  0  0  0  0  0  0  0  0  0  0  0
  143.3802   71.2562  219.3544 H   0  0  0  0  0  0  0  0  0  0  0  0
  141.5227   70.0457  220.4806 H   0  0  0  0  0  0  0  0  0  0  0  0
  139.9874   71.3024  221.9894 H   0  0  0  0  0  0  0  0  0  0  0  0
  140.2825   73.7379  222.3729 H   0  0  0  0  0  0  0  0  0  0  0  0
  142.1440   74.9404  221.2401 H   0  0  0  0  0  0  0  0  0  0  0  0
  144.4515   75.0247  218.0124 H   0  0  0  0  0  0  0  0  0  0  0  0
  143.8634   75.8333  220.7597 H   0  0  0  0  0  0  0  0  0  0  0  0
  144.6918   76.7642  219.4340 H   0  0  0  0  0  0  0  0  0  0  0  0
  141.6994   76.6494  220.0413 H   0  0  0  0  0  0  0  0  0  0  0  0
  142.8053   78.0712  220.1487 H   0  0  0  0  0  0  0  0  0  0  0  0
  142.7788   79.8850  219.3588 H   0  0  0  0  0  0  0  0  0  0  0  0
  142.0952   80.8260  217.9236 H   0  0  0  0  0  0  0  0  0  0  0  0
  140.6572   81.2232  219.7180 H   0  0  0  0  0  0  0  0  0  0  0  0
  139.9910   79.6040  217.4580 H   0  0  0  0  0  0  0  0  0  0  0  0
  138.9410   80.7020  218.3040 H   0  0  0  0  0  0  0  0  0  0  0  0
  139.1529   77.9804  219.5359 H   0  0  0  0  0  0  0  0  0  0  0  0
  138.8710   76.4871  221.4544 H   0  0  0  0  0  0  0  0  0  0  0  0
  140.1194   76.9480  223.5724 H   0  0  0  0  0  0  0  0  0  0  0  0
  141.5894   78.2610  224.7646 H   0  0  0  0  0  0  0  0  0  0  0  0
  143.1024   80.1902  224.9999 H   0  0  0  0  0  0  0  0  0  0  0  0
  143.4232   81.7505  223.0553 H   0  0  0  0  0  0  0  0  0  0  0  0
  142.2162   81.3013  220.9708 H   0  0  0  0  0  0  0  0  0  0  0  0
  141.4529   76.3500  216.6454 H   0  0  0  0  0  0  0  0  0  0  0  0
  143.2234   76.3740  216.6307 H   0  0  0  0  0  0  0  0  0  0  0  0
  141.5542   75.1215  218.9047 H   0  0  0  0  0  0  0  0  0  0  0  0
  142.1688   74.1724  217.5376 H   0  0  0  0  0  0  0  0  0  0  0  0
  1  2  1  0
  2  3  1  0
  3  4  2  0
  3  5  1  0
  5  6  1  0
  6  7  2  0
  7  8  1  0
  8  9  2  0
  9 10  1  0
 10 11  2  0
  5 12  1  0
 12 13  1  0
 13 14  1  0
 14 15  1  0
 15 16  1  0
 16 17  2  0
 16 18  1  0
 18 19  1  0
 19 20  1  0
 19 21  1  0
 21 22  2  0
 22 23  1  0
 23 24  2  0
 24 25  1  0
 25 26  2  0
 26 27  1  0
 27 28  2  0
 28 29  1  0
 29 30  2  0
 15 31  1  0
 31 32  1  0
 11  6  1  0
 32 12  1  0
 30 21  1  0
 30 25  1  0
  1 33  1  0
  1 34  1  0
  1 35  1  0
  2 36  1  0
  2 37  1  0
  7 38  1  0
  8 39  1  0
  9 40  1  0
 10 41  1  0
 11 42  1  0
 12 43  1  0
 13 44  1  0
 13 45  1  0
 14 46  1  0
 14 47  1  0
 18 48  1  0
 18 49  1  0
 19 50  1  1
 20 51  1  0
 20 52  1  0
 22 53  1  0
 23 54  1  0
 24 55  1  0
 26 56  1  0
 27 57  1  0
 28 58  1  0
 29 59  1  0
 31 60  1  0
 31 61  1  0
 32 62  1  0
 32 63  1  0
M  END
>  <smiles>  (87) 
CCC(=O)N(c1ccccc1)C1CCN(C(=O)CC(N)c2cccc3ccccc23)CC1

>  <score_type>  (87) 
oracle

>  <origin>  (87) 
autodockgpu

>  <m_score__min__energy>  (87) 
-9.3599999999999994

>  <m_primary>  (87) 
energy

>  <rmsd>  (87) 
4.126060879378012

>  <m_score__min__rmsd>  (87) 
4.126060879378012

>  <meeko>  (87) 
{"free_energy": -7.06, "intermolecular_energy": -9.45, "internal_energy": -2.82, "cluster_size": 1, "cluster_id": 9, "rank_in_cluster": 1}

>  <energy>  (87) 
-8.17

>  <cluster_rmsd>  (87) 
1.23

>  <cluster>  (87) 
2

$$$$

     RDKit          3D

 63 66  0  0  0  0  0  0  0  0999 V2000
  142.1980   79.8520  218.6260 C   0  0  0  0  0  0  0  0  0  0  0  0
  141.4480   78.5440  218.4180 C   0  0  0  0  0  0  0  0  0  0  0  0
  141.9310   77.6200  219.4740 C   0  0  0  0  0  0  0  0  0  0  0  0
  143.0400   77.0710  219.3220 O   0  0  0  0  0  0  0  0  0  0  0  0
  141.1080   77.3820  220.6410 N   0  0  0  0  0  0  0  0  0  0  0  0
  141.0750   78.3560  221.6890 C   0  0  0  0  0  0  0  0  0  0  0  0
  139.8860   78.5080  222.3830 C   0  0  0  0  0  0  0  0  0  0  0  0
  139.8090   79.4310  223.3970 C   0  0  0  0  0  0  0  0  0  0  0  0
  140.9360   80.1940  223.7030 C   0  0  0  0  0  0  0  0  0  0  0  0
  142.1280   80.0410  223.0050 C   0  0  0  0  0  0  0  0  0  0  0  0
  142.2000   79.1150  221.9910 C   0  0  0  0  0  0  0  0  0  0  0  0
  140.3270   76.1670  220.7490 C   0  0  0  0  0  0  0  0  0  0  0  0
  140.7530   75.4240  221.9760 C   0  0  0  0  0  0  0  0  0  0  0  0
  141.0720   73.9430  221.6880 C   0  0  0  0  0  0  0  0  0  0  0  0
  140.0040   73.3320  220.9440 N   0  0  0  0  0  0  0  0  0  0  0  0
  139.4510   72.0430  221.2600 C   0  0  0  0  0  0  0  0  0  0  0  0
  138.5080   71.6520  220.5290 O   0  0  0  0  0  0  0  0  0  0  0  0
  139.9070   71.1900  222.3470 C   0  0  0  0  0  0  0  0  0  0  0  0
  139.3110   71.4670  223.7000 C   0  0  1  0  0  0  0  0  0  0  0  0
  137.8790   71.6290  223.5050 N   0  0  0  0  0  0  0  0  0  0  0  0
  139.5500   70.3830  224.6350 C   0  0  0  0  0  0  0  0  0  0  0  0
  139.1990   69.0750  224.3830 C   0  0  0  0  0  0  0  0  0  0  0  0
  139.4070   68.0370  225.2620 C   0  0  0  0  0  0  0  0  0  0  0  0
  140.0010   68.2950  226.4780 C   0  0  0  0  0  0  0  0  0  0  0  0
  140.3630   69.5890  226.7620 C   0  0  0  0  0  0  0  0  0  0  0  0
  140.9480   69.8330  227.9810 C   0  0  0  0  0  0  0  0  0  0  0  0
  141.3370   71.0940  228.3530 C   0  0  0  0  0  0  0  0  0  0  0  0
  141.1350   72.1540  227.4760 C   0  0  0  0  0  0  0  0  0  0  0  0
  140.5500   71.8850  226.2690 C   0  0  0  0  0  0  0  0  0  0  0  0
  140.1480   70.6270  225.8640 C   0  0  0  0  0  0  0  0  0  0  0  0
  139.4780   74.1040  219.8130 C   0  0  0  0  0  0  0  0  0  0  0  0
  140.4690   75.2370  219.5830 C   0  0  0  0  0  0  0  0  0  0  0  0
  142.3082   80.0441  219.7035 H   0  0  0  0  0  0  0  0  0  0  0  0
  143.1931   79.7818  218.1624 H   0  0  0  0  0  0  0  0  0  0  0  0
  141.6348   80.6753  218.1624 H   0  0  0  0  0  0  0  0  0  0  0  0
  140.3645   78.7052  218.5182 H   0  0  0  0  0  0  0  0  0  0  0  0
  141.6264   78.1340  217.4130 H   0  0  0  0  0  0  0  0  0  0  0  0
  139.0105   77.8944  222.1241 H   0  0  0  0  0  0  0  0  0  0  0  0
  138.8732   79.5665  223.9591 H   0  0  0  0  0  0  0  0  0  0  0  0
  140.8800   80.9336  224.5153 H   0  0  0  0  0  0  0  0  0  0  0  0
  143.0046   80.6542  223.2610 H   0  0  0  0  0  0  0  0  0  0  0  0
  143.1342   78.9768  221.4269 H   0  0  0  0  0  0  0  0  0  0  0  0
  139.2749   76.4859  220.7866 H   0  0  0  0  0  0  0  0  0  0  0  0
  141.6532   75.9057  222.3854 H   0  0  0  0  0  0  0  0  0  0  0  0
  139.9180   75.4533  222.6915 H   0  0  0  0  0  0  0  0  0  0  0  0
  142.0019   73.8802  221.1038 H   0  0  0  0  0  0  0  0  0  0  0  0
  141.1877   73.4121  222.6444 H   0  0  0  0  0  0  0  0  0  0  0  0
  139.6678   70.1498  222.0810 H   0  0  0  0  0  0  0  0  0  0  0  0
  140.9830   71.3934  222.4508 H   0  0  0  0  0  0  0  0  0  0  0  0
  139.7765   72.3673  224.1276 H   0  0  0  0  0  0  0  0  0  0  0  0
  137.6090   71.5140  222.5020 H   0  0  0  0  0  0  0  0  0  0  0  0
  137.4930   72.4570  223.9580 H   0  0  0  0  0  0  0  0  0  0  0  0
  138.7225   68.8459  223.4184 H   0  0  0  0  0  0  0  0  0  0  0  0
  139.1027   67.0137  224.9970 H   0  0  0  0  0  0  0  0  0  0  0  0
  140.1805   67.4864  227.2019 H   0  0  0  0  0  0  0  0  0  0  0  0
  141.1083   68.9956  228.6760 H   0  0  0  0  0  0  0  0  0  0  0  0
  141.8037   71.2652  229.3343 H   0  0  0  0  0  0  0  0  0  0  0  0
  141.4363   73.1773  227.7445 H   0  0  0  0  0  0  0  0  0  0  0  0
  140.3894   72.7244  225.5765 H   0  0  0  0  0  0  0  0  0  0  0  0
  139.4074   73.4699  218.9170 H   0  0  0  0  0  0  0  0  0  0  0  0
  138.4681   74.4872  220.0210 H   0  0  0  0  0  0  0  0  0  0  0  0
  141.4943   74.8415  219.5345 H   0  0  0  0  0  0  0  0  0  0  0  0
  140.2689   75.7549  218.6334 H   0  0  0  0  0  0  0  0  0  0  0  0
  1  2  1  0
  2  3  1  0
  3  4  2  0
  3  5  1  0
  5  6  1  0
  6  7  2  0
  7  8  1  0
  8  9  2  0
  9 10  1  0
 10 11  2  0
  5 12  1  0
 12 13  1  0
 13 14  1  0
 14 15  1  0
 15 16  1  0
 16 17  2  0
 16 18  1  0
 18 19  1  0
 19 20  1  0
 19 21  1  0
 21 22  2  0
 22 23  1  0
 23 24  2  0
 24 25  1  0
 25 26  2  0
 26 27  1  0
 27 28  2  0
 28 29  1  0
 29 30  2  0
 15 31  1  0
 31 32  1  0
 11  6  1  0
 32 12  1  0
 30 21  1  0
 30 25  1  0
  1 33  1  0
  1 34  1  0
  1 35  1  0
  2 36  1  0
  2 37  1  0
  7 38  1  0
  8 39  1  0
  9 40  1  0
 10 41  1  0
 11 42  1  0
 12 43  1  0
 13 44  1  0
 13 45  1  0
 14 46  1  0
 14 47  1  0
 18 48  1  0
 18 49  1  0
 19 50  1  1
 20 51  1  0
 20 52  1  0
 22 53  1  0
 23 54  1  0
 24 55  1  0
 26 56  1  0
 27 57  1  0
 28 58  1  0
 29 59  1  0
 31 60  1  0
 31 61  1  0
 32 62  1  0
 32 63  1  0
M  END
>  <smiles>  (88) 
CCC(=O)N(c1ccccc1)C1CCN(C(=O)CC(N)c2cccc3ccccc23)CC1

>  <score_type>  (88) 
oracle

>  <origin>  (88) 
autodockgpu

>  <m_score__min__energy>  (88) 
-9.3599999999999994

>  <m_primary>  (88) 
energy

>  <rmsd>  (88) 
8.775591198005934

>  <m_score__min__rmsd>  (88) 
8.775591198005934

>  <meeko>  (88) 
{"free_energy": -8.73, "intermolecular_energy": -11.12, "internal_energy": -2.03, "cluster_size": 39, "cluster_id": 2, "rank_in_cluster": 12}

>  <energy>  (88) 
-8.13

>  <cluster_rmsd>  (88) 
0.74

>  <cluster>  (88) 
2

$$$$

     RDKit          3D

 63 66  0  0  0  0  0  0  0  0999 V2000
  142.5660   79.6840  218.1660 C   0  0  0  0  0  0  0  0  0  0  0  0
  141.3600   78.8140  218.4860 C   0  0  0  0  0  0  0  0  0  0  0  0
  141.8320   77.7980  219.4600 C   0  0  0  0  0  0  0  0  0  0  0  0
  142.8750   77.1670  219.2020 O   0  0  0  0  0  0  0  0  0  0  0  0
  141.0740   77.5690  220.6710 N   0  0  0  0  0  0  0  0  0  0  0  0
  141.1380   78.5280  221.7330 C   0  0  0  0  0  0  0  0  0  0  0  0
  142.2590   79.3380  221.7940 C   0  0  0  0  0  0  0  0  0  0  0  0
  142.3640   80.2720  222.7960 C   0  0  0  0  0  0  0  0  0  0  0  0
  141.3310   80.3800  223.7290 C   0  0  0  0  0  0  0  0  0  0  0  0
  140.2070   79.5650  223.6660 C   0  0  0  0  0  0  0  0  0  0  0  0
  140.1080   78.6320  222.6600 C   0  0  0  0  0  0  0  0  0  0  0  0
  140.2610   76.3790  220.8110 C   0  0  0  0  0  0  0  0  0  0  0  0
  140.7710   75.5750  221.9650 C   0  0  0  0  0  0  0  0  0  0  0  0
  141.0040   74.0960  221.5970 C   0  0  0  0  0  0  0  0  0  0  0  0
  139.8480   73.5510  220.9360 N   0  0  0  0  0  0  0  0  0  0  0  0
  139.2790   72.2710  221.2580 C   0  0  0  0  0  0  0  0  0  0  0  0
  138.2570   71.9420  220.6070 O   0  0  0  0  0  0  0  0  0  0  0  0
  139.8010   71.3620  222.2670 C   0  0  0  0  0  0  0  0  0  0  0  0
  139.2030   71.4860  223.6420 C   0  0  1  0  0  0  0  0  0  0  0  0
  137.7790   71.7160  223.4640 N   0  0  0  0  0  0  0  0  0  0  0  0
  139.4030   70.2850  224.4340 C   0  0  0  0  0  0  0  0  0  0  0  0
  139.0420   69.0270  224.0050 C   0  0  0  0  0  0  0  0  0  0  0  0
  139.2120   67.8800  224.7450 C   0  0  0  0  0  0  0  0  0  0  0  0
  139.7740   67.9690  226.0010 C   0  0  0  0  0  0  0  0  0  0  0  0
  140.1440   69.2090  226.4600 C   0  0  0  0  0  0  0  0  0  0  0  0
  140.6970   69.2830  227.7160 C   0  0  0  0  0  0  0  0  0  0  0  0
  141.0910   70.4780  228.2590 C   0  0  0  0  0  0  0  0  0  0  0  0
  140.9270   71.6460  227.5230 C   0  0  0  0  0  0  0  0  0  0  0  0
  140.3740   71.5460  226.2750 C   0  0  0  0  0  0  0  0  0  0  0  0
  139.9670   70.3580  225.7000 C   0  0  0  0  0  0  0  0  0  0  0  0
  139.2490   74.3840  219.8880 C   0  0  0  0  0  0  0  0  0  0  0  0
  140.2570   75.4900  219.6040 C   0  0  0  0  0  0  0  0  0  0  0  0
  143.0336   80.0214  219.1027 H   0  0  0  0  0  0  0  0  0  0  0  0
  143.2937   79.1015  217.5819 H   0  0  0  0  0  0  0  0  0  0  0  0
  142.2428   80.5583  217.5819 H   0  0  0  0  0  0  0  0  0  0  0  0
  140.5570   79.4222  218.9278 H   0  0  0  0  0  0  0  0  0  0  0  0
  140.9526   78.3427  217.5794 H   0  0  0  0  0  0  0  0  0  0  0  0
  143.0591   79.2346  221.0463 H   0  0  0  0  0  0  0  0  0  0  0  0
  143.2474   80.9241  222.8621 H   0  0  0  0  0  0  0  0  0  0  0  0
  141.4085   81.1273  224.5324 H   0  0  0  0  0  0  0  0  0  0  0  0
  139.4053   79.6649  224.4125 H   0  0  0  0  0  0  0  0  0  0  0  0
  139.2264   77.9778  222.5904 H   0  0  0  0  0  0  0  0  0  0  0  0
  139.2302   76.7326  220.9605 H   0  0  0  0  0  0  0  0  0  0  0  0
  141.7236   76.0086  222.3034 H   0  0  0  0  0  0  0  0  0  0  0  0
  140.0084   75.6062  222.7571 H   0  0  0  0  0  0  0  0  0  0  0  0
  141.8724   74.0228  220.9258 H   0  0  0  0  0  0  0  0  0  0  0  0
  141.1873   73.5254  222.5194 H   0  0  0  0  0  0  0  0  0  0  0  0
  139.6265   70.3342  221.9160 H   0  0  0  0  0  0  0  0  0  0  0  0
  140.8628   71.6257  222.3815 H   0  0  0  0  0  0  0  0  0  0  0  0
  139.6914   72.3109  224.1814 H   0  0  0  0  0  0  0  0  0  0  0  0
  137.4510   71.4030  222.5230 H   0  0  0  0  0  0  0  0  0  0  0  0
  137.4770   72.6520  223.7320 H   0  0  0  0  0  0  0  0  0  0  0  0
  138.5889   68.9336  223.0070 H   0  0  0  0  0  0  0  0  0  0  0  0
  138.9037   66.9048  224.3402 H   0  0  0  0  0  0  0  0  0  0  0  0
  139.9219   67.0708  226.6186 H   0  0  0  0  0  0  0  0  0  0  0  0
  140.8266   68.3599  228.3001 H   0  0  0  0  0  0  0  0  0  0  0  0
  141.5321   70.5127  229.2661 H   0  0  0  0  0  0  0  0  0  0  0  0
  141.2324   72.6208  227.9312 H   0  0  0  0  0  0  0  0  0  0  0  0
  140.2455   72.4705  225.6930 H   0  0  0  0  0  0  0  0  0  0  0  0
  139.0702   73.7876  218.9812 H   0  0  0  0  0  0  0  0  0  0  0  0
  138.2788   74.7944  220.2047 H   0  0  0  0  0  0  0  0  0  0  0  0
  141.2573   75.0612  219.4440 H   0  0  0  0  0  0  0  0  0  0  0  0
  139.9887   76.0508  218.6965 H   0  0  0  0  0  0  0  0  0  0  0  0
  1  2  1  0
  2  3  1  0
  3  4  2  0
  3  5  1  0
  5  6  1  0
  6  7  2  0
  7  8  1  0
  8  9  2  0
  9 10  1  0
 10 11  2  0
  5 12  1  0
 12 13  1  0
 13 14  1  0
 14 15  1  0
 15 16  1  0
 16 17  2  0
 16 18  1  0
 18 19  1  0
 19 20  1  0
 19 21  1  0
 21 22  2  0
 22 23  1  0
 23 24  2  0
 24 25  1  0
 25 26  2  0
 26 27  1  0
 27 28  2  0
 28 29  1  0
 29 30  2  0
 15 31  1  0
 31 32  1  0
 11  6  1  0
 32 12  1  0
 30 21  1  0
 30 25  1  0
  1 33  1  0
  1 34  1  0
  1 35  1  0
  2 36  1  0
  2 37  1  0
  7 38  1  0
  8 39  1  0
  9 40  1  0
 10 41  1  0
 11 42  1  0
 12 43  1  0
 13 44  1  0
 13 45  1  0
 14 46  1  0
 14 47  1  0
 18 48  1  0
 18 49  1  0
 19 50  1  1
 20 51  1  0
 20 52  1  0
 22 53  1  0
 23 54  1  0
 24 55  1  0
 26 56  1  0
 27 57  1  0
 28 58  1  0
 29 59  1  0
 31 60  1  0
 31 61  1  0
 32 62  1  0
 32 63  1  0
M  END
>  <smiles>  (89) 
CCC(=O)N(c1ccccc1)C1CCN(C(=O)CC(N)c2cccc3ccccc23)CC1

>  <score_type>  (89) 
oracle

>  <origin>  (89) 
autodockgpu

>  <m_score__min__energy>  (89) 
-9.3599999999999994

>  <m_primary>  (89) 
energy

>  <rmsd>  (89) 
8.750269614501029

>  <m_score__min__rmsd>  (89) 
8.750269614501029

>  <meeko>  (89) 
{"free_energy": -8.69, "intermolecular_energy": -11.08, "internal_energy": -1.99, "cluster_size": 39, "cluster_id": 2, "rank_in_cluster": 15}

>  <energy>  (89) 
-8.07

>  <cluster_rmsd>  (89) 
1.37

>  <cluster>  (89) 
2

$$$$

     RDKit          3D

 63 66  0  0  0  0  0  0  0  0999 V2000
  146.3780   70.3710  216.2230 C   0  0  0  0  0  0  0  0  0  0  0  0
  145.2480   71.3680  216.4330 C   0  0  0  0  0  0  0  0  0  0  0  0
  145.2170   71.6550  217.8890 C   0  0  0  0  0  0  0  0  0  0  0  0
  145.9470   72.5640  218.3310 O   0  0  0  0  0  0  0  0  0  0  0  0
  144.3490   70.8800  218.7490 N   0  0  0  0  0  0  0  0  0  0  0  0
  144.6250   69.4910  218.9600 C   0  0  0  0  0  0  0  0  0  0  0  0
  143.5750   68.6010  218.8110 C   0  0  0  0  0  0  0  0  0  0  0  0
  143.7940   67.2590  219.0030 C   0  0  0  0  0  0  0  0  0  0  0  0
  145.0760   66.8260  219.3460 C   0  0  0  0  0  0  0  0  0  0  0  0
  146.1280   67.7210  219.4970 C   0  0  0  0  0  0  0  0  0  0  0  0
  145.9030   69.0640  219.3010 C   0  0  0  0  0  0  0  0  0  0  0  0
  143.2070   71.5010  219.3860 C   0  0  0  0  0  0  0  0  0  0  0  0
  142.9060   72.7920  218.6920 C   0  0  0  0  0  0  0  0  0  0  0  0
  142.7660   73.9720  219.6740 C   0  0  0  0  0  0  0  0  0  0  0  0
  141.8710   73.6330  220.7480 N   0  0  0  0  0  0  0  0  0  0  0  0
  140.8320   74.5060  221.2230 C   0  0  0  0  0  0  0  0  0  0  0  0
  140.1190   74.0600  222.1540 O   0  0  0  0  0  0  0  0  0  0  0  0
  140.5670   75.8380  220.7000 C   0  0  0  0  0  0  0  0  0  0  0  0
  141.4220   76.9460  221.2490 C   0  0  1  0  0  0  0  0  0  0  0  0
  142.0360   77.6100  220.1110 N   0  0  0  0  0  0  0  0  0  0  0  0
  140.6460   77.9110  222.0080 C   0  0  0  0  0  0  0  0  0  0  0  0
  139.2870   77.8010  222.2040 C   0  0  0  0  0  0  0  0  0  0  0  0
  138.5320   78.7100  222.9090 C   0  0  0  0  0  0  0  0  0  0  0  0
  139.1520   79.8100  223.4640 C   0  0  0  0  0  0  0  0  0  0  0  0
  140.5060   79.9490  223.2870 C   0  0  0  0  0  0  0  0  0  0  0  0
  141.1090   81.0540  223.8400 C   0  0  0  0  0  0  0  0  0  0  0  0
  142.4550   81.2790  223.7110 C   0  0  0  0  0  0  0  0  0  0  0  0
  143.2310   80.3690  223.0020 C   0  0  0  0  0  0  0  0  0  0  0  0
  142.6070   79.2780  222.4600 C   0  0  0  0  0  0  0  0  0  0  0  0
  141.2550   79.0230  222.5730 C   0  0  0  0  0  0  0  0  0  0  0  0
  142.0620   72.3130  221.3580 C   0  0  0  0  0  0  0  0  0  0  0  0
  143.4020   71.8030  220.8410 C   0  0  0  0  0  0  0  0  0  0  0  0
  146.7577   70.0360  217.1996 H   0  0  0  0  0  0  0  0  0  0  0  0
  146.0025   69.5046  215.6588 H   0  0  0  0  0  0  0  0  0  0  0  0
  147.1909   70.8516  215.6588 H   0  0  0  0  0  0  0  0  0  0  0  0
  145.4426   72.2904  215.8662 H   0  0  0  0  0  0  0  0  0  0  0  0
  144.2864   70.9650  216.0824 H   0  0  0  0  0  0  0  0  0  0  0  0
  142.5731   68.9660  218.5409 H   0  0  0  0  0  0  0  0  0  0  0  0
  142.9723   66.5367  218.8884 H   0  0  0  0  0  0  0  0  0  0  0  0
  145.2574   65.7521  219.5002 H   0  0  0  0  0  0  0  0  0  0  0  0
  147.1303   67.3595  219.7704 H   0  0  0  0  0  0  0  0  0  0  0  0
  146.7225   69.7893  219.4125 H   0  0  0  0  0  0  0  0  0  0  0  0
  142.3853   70.7737  219.3094 H   0  0  0  0  0  0  0  0  0  0  0  0
  143.7226   73.0132  217.9890 H   0  0  0  0  0  0  0  0  0  0  0  0
  141.9442   72.6749  218.1712 H   0  0  0  0  0  0  0  0  0  0  0  0
  143.7547   74.2152  220.0904 H   0  0  0  0  0  0  0  0  0  0  0  0
  142.3580   74.8380  219.1322 H   0  0  0  0  0  0  0  0  0  0  0  0
  140.7157   75.8070  219.6105 H   0  0  0  0  0  0  0  0  0  0  0  0
  139.5387   76.0775  221.0086 H   0  0  0  0  0  0  0  0  0  0  0  0
  142.1699   76.5238  221.9363 H   0  0  0  0  0  0  0  0  0  0  0  0
  141.8730   77.0840  219.2220 H   0  0  0  0  0  0  0  0  0  0  0  0
  143.0030   77.8900  220.2700 H   0  0  0  0  0  0  0  0  0  0  0  0
  138.7726   76.9312  221.7693 H   0  0  0  0  0  0  0  0  0  0  0  0
  137.4486   78.5614  223.0284 H   0  0  0  0  0  0  0  0  0  0  0  0
  138.5771   80.5555  224.0329 H   0  0  0  0  0  0  0  0  0  0  0  0
  140.4959   81.7755  224.3999 H   0  0  0  0  0  0  0  0  0  0  0  0
  142.9160   82.1695  224.1633 H   0  0  0  0  0  0  0  0  0  0  0  0
  144.3136   80.5212  222.8803 H   0  0  0  0  0  0  0  0  0  0  0  0
  143.2218   78.5588  221.8989 H   0  0  0  0  0  0  0  0  0  0  0  0
  142.0823   72.3977  222.4545 H   0  0  0  0  0  0  0  0  0  0  0  0
  141.2421   71.6266  221.0997 H   0  0  0  0  0  0  0  0  0  0  0  0
  144.1772   72.5729  220.9692 H   0  0  0  0  0  0  0  0  0  0  0  0
  143.7287   70.9096  221.3934 H   0  0  0  0  0  0  0  0  0  0  0  0
  1  2  1  0
  2  3  1  0
  3  4  2  0
  3  5  1  0
  5  6  1  0
  6  7  2  0
  7  8  1  0
  8  9  2  0
  9 10  1  0
 10 11  2  0
  5 12  1  0
 12 13  1  0
 13 14  1  0
 14 15  1  0
 15 16  1  0
 16 17  2  0
 16 18  1  0
 18 19  1  0
 19 20  1  0
 19 21  1  0
 21 22  2  0
 22 23  1  0
 23 24  2  0
 24 25  1  0
 25 26  2  0
 26 27  1  0
 27 28  2  0
 28 29  1  0
 29 30  2  0
 15 31  1  0
 31 32  1  0
 11  6  1  0
 32 12  1  0
 30 21  1  0
 30 25  1  0
  1 33  1  0
  1 34  1  0
  1 35  1  0
  2 36  1  0
  2 37  1  0
  7 38  1  0
  8 39  1  0
  9 40  1  0
 10 41  1  0
 11 42  1  0
 12 43  1  0
 13 44  1  0
 13 45  1  0
 14 46  1  0
 14 47  1  0
 18 48  1  0
 18 49  1  0
 19 50  1  1
 20 51  1  0
 20 52  1  0
 22 53  1  0
 23 54  1  0
 24 55  1  0
 26 56  1  0
 27 57  1  0
 28 58  1  0
 29 59  1  0
 31 60  1  0
 31 61  1  0
 32 62  1  0
 32 63  1  0
M  END
>  <smiles>  (90) 
CCC(=O)N(c1ccccc1)C1CCN(C(=O)CC(N)c2cccc3ccccc23)CC1

>  <score_type>  (90) 
oracle

>  <origin>  (90) 
autodockgpu

>  <m_score__min__energy>  (90) 
-9.3599999999999994

>  <m_primary>  (90) 
energy

>  <rmsd>  (90) 
4.845856552984179

>  <m_score__min__rmsd>  (90) 
4.845856552984179

>  <meeko>  (90) 
{"free_energy": -8.4, "intermolecular_energy": -10.78, "internal_energy": -1.42, "cluster_size": 1, "cluster_id": 5, "rank_in_cluster": 1}

>  <energy>  (90) 
-7.95

>  <cluster_rmsd>  (90) 
1.08

>  <cluster>  (90) 
2

$$$$

     RDKit          3D

 63 66  0  0  0  0  0  0  0  0999 V2000
  143.8180   75.7620  216.4980 C   0  0  0  0  0  0  0  0  0  0  0  0
  143.4510   76.3340  217.8590 C   0  0  0  0  0  0  0  0  0  0  0  0
  142.2650   75.5710  218.3210 C   0  0  0  0  0  0  0  0  0  0  0  0
  141.1340   75.9710  217.9840 O   0  0  0  0  0  0  0  0  0  0  0  0
  142.4530   74.3950  219.1430 N   0  0  0  0  0  0  0  0  0  0  0  0
  143.7800   73.9600  219.4570 C   0  0  0  0  0  0  0  0  0  0  0  0
  144.3020   72.9160  218.7120 C   0  0  0  0  0  0  0  0  0  0  0  0
  145.5720   72.4660  218.9780 C   0  0  0  0  0  0  0  0  0  0  0  0
  146.3060   73.0760  219.9970 C   0  0  0  0  0  0  0  0  0  0  0  0
  145.7790   74.1220  220.7440 C   0  0  0  0  0  0  0  0  0  0  0  0
  144.5070   74.5700  220.4730 C   0  0  0  0  0  0  0  0  0  0  0  0
  141.3080   73.6610  219.6410 C   0  0  0  0  0  0  0  0  0  0  0  0
  141.6390   73.0990  220.9880 C   0  0  0  0  0  0  0  0  0  0  0  0
  141.3230   71.5940  221.0950 C   0  0  0  0  0  0  0  0  0  0  0  0
  139.9890   71.3230  220.6310 N   0  0  0  0  0  0  0  0  0  0  0  0
  139.0610   70.4760  221.3300 C   0  0  0  0  0  0  0  0  0  0  0  0
  137.9260   70.3530  220.8090 O   0  0  0  0  0  0  0  0  0  0  0  0
  139.3530   69.7750  222.5720 C   0  0  0  0  0  0  0  0  0  0  0  0
  139.2670   70.5950  223.8290 C   0  0  1  0  0  0  0  0  0  0  0  0
  137.9190   71.1330  223.8920 N   0  0  0  0  0  0  0  0  0  0  0  0
  139.5260   69.8010  225.0180 C   0  0  0  0  0  0  0  0  0  0  0  0
  139.1480   68.4830  225.1430 C   0  0  0  0  0  0  0  0  0  0  0  0
  139.3730   67.7180  226.2640 C   0  0  0  0  0  0  0  0  0  0  0  0
  140.0150   68.2840  227.3450 C   0  0  0  0  0  0  0  0  0  0  0  0
  140.4040   69.5980  227.2540 C   0  0  0  0  0  0  0  0  0  0  0  0
  141.0360   70.1510  228.3420 C   0  0  0  0  0  0  0  0  0  0  0  0
  141.4550   71.4560  228.3430 C   0  0  0  0  0  0  0  0  0  0  0  0
  141.2360   72.2420  227.2170 C   0  0  0  0  0  0  0  0  0  0  0  0
  140.6040   71.6670  226.1470 C   0  0  0  0  0  0  0  0  0  0  0  0
  140.1700   70.3570  226.1140 C   0  0  0  0  0  0  0  0  0  0  0  0
  139.5960   71.9710  219.3750 C   0  0  0  0  0  0  0  0  0  0  0  0
  140.8800   72.5210  218.7670 C   0  0  0  0  0  0  0  0  0  0  0  0
  144.4075   74.8432  216.6333 H   0  0  0  0  0  0  0  0  0  0  0  0
  142.9000   75.5296  215.9383 H   0  0  0  0  0  0  0  0  0  0  0  0
  144.4119   76.4996  215.9383 H   0  0  0  0  0  0  0  0  0  0  0  0
  144.2854   76.2061  218.5642 H   0  0  0  0  0  0  0  0  0  0  0  0
  143.2363   77.4111  217.7971 H   0  0  0  0  0  0  0  0  0  0  0  0
  143.7046   72.4511  217.9140 H   0  0  0  0  0  0  0  0  0  0  0  0
  146.0042   71.6378  218.3972 H   0  0  0  0  0  0  0  0  0  0  0  0
  147.3243   72.7204  220.2132 H   0  0  0  0  0  0  0  0  0  0  0  0
  146.3731   74.5874  221.5443 H   0  0  0  0  0  0  0  0  0  0  0  0
  144.0717   75.3983  221.0513 H   0  0  0  0  0  0  0  0  0  0  0  0
  140.4770   74.3811  219.6718 H   0  0  0  0  0  0  0  0  0  0  0  0
  142.7121   73.2483  221.1783 H   0  0  0  0  0  0  0  0  0  0  0  0
  141.0192   73.6237  221.7300 H   0  0  0  0  0  0  0  0  0  0  0  0
  142.0408   71.0293  220.4819 H   0  0  0  0  0  0  0  0  0  0  0  0
  141.4008   71.2892  222.1491 H   0  0  0  0  0  0  0  0  0  0  0  0
  138.6398   68.9426  222.6640 H   0  0  0  0  0  0  0  0  0  0  0  0
  140.4045   69.4613  222.4946 H   0  0  0  0  0  0  0  0  0  0  0  0
  140.0284   71.3884  223.8010 H   0  0  0  0  0  0  0  0  0  0  0  0
  137.4150   71.0230  222.9830 H   0  0  0  0  0  0  0  0  0  0  0  0
  137.8660   72.0660  224.3000 H   0  0  0  0  0  0  0  0  0  0  0  0
  138.6334   68.0118  224.2926 H   0  0  0  0  0  0  0  0  0  0  0  0
  139.0450   66.6686  226.2975 H   0  0  0  0  0  0  0  0  0  0  0  0
  140.2104   67.6989  228.2558 H   0  0  0  0  0  0  0  0  0  0  0  0
  141.2098   69.5310  229.2339 H   0  0  0  0  0  0  0  0  0  0  0  0
  141.9592   71.8772  229.2253 H   0  0  0  0  0  0  0  0  0  0  0  0
  141.5603   73.2927  227.1868 H   0  0  0  0  0  0  0  0  0  0  0  0
  140.4310   72.2890  225.2564 H   0  0  0  0  0  0  0  0  0  0  0  0
  139.1341   71.2395  218.6956 H   0  0  0  0  0  0  0  0  0  0  0  0
  138.8576   72.7681  219.5465 H   0  0  0  0  0  0  0  0  0  0  0  0
  141.6568   71.7423  218.7499 H   0  0  0  0  0  0  0  0  0  0  0  0
  140.7203   72.8517  217.7301 H   0  0  0  0  0  0  0  0  0  0  0  0
  1  2  1  0
  2  3  1  0
  3  4  2  0
  3  5  1  0
  5  6  1  0
  6  7  2  0
  7  8  1  0
  8  9  2  0
  9 10  1  0
 10 11  2  0
  5 12  1  0
 12 13  1  0
 13 14  1  0
 14 15  1  0
 15 16  1  0
 16 17  2  0
 16 18  1  0
 18 19  1  0
 19 20  1  0
 19 21  1  0
 21 22  2  0
 22 23  1  0
 23 24  2  0
 24 25  1  0
 25 26  2  0
 26 27  1  0
 27 28  2  0
 28 29  1  0
 29 30  2  0
 15 31  1  0
 31 32  1  0
 11  6  1  0
 32 12  1  0
 30 21  1  0
 30 25  1  0
  1 33  1  0
  1 34  1  0
  1 35  1  0
  2 36  1  0
  2 37  1  0
  7 38  1  0
  8 39  1  0
  9 40  1  0
 10 41  1  0
 11 42  1  0
 12 43  1  0
 13 44  1  0
 13 45  1  0
 14 46  1  0
 14 47  1  0
 18 48  1  0
 18 49  1  0
 19 50  1  6
 20 51  1  0
 20 52  1  0
 22 53  1  0
 23 54  1  0
 24 55  1  0
 26 56  1  0
 27 57  1  0
 28 58  1  0
 29 59  1  0
 31 60  1  0
 31 61  1  0
 32 62  1  0
 32 63  1  0
M  END
>  <smiles>  (91) 
CCC(=O)N(c1ccccc1)C1CCN(C(=O)CC(N)c2cccc3ccccc23)CC1

>  <score_type>  (91) 
oracle

>  <origin>  (91) 
autodockgpu

>  <m_score__min__energy>  (91) 
-9.3599999999999994

>  <m_primary>  (91) 
energy

>  <rmsd>  (91) 
9.575594540841012

>  <m_score__min__rmsd>  (91) 
9.575594540841012

>  <meeko>  (91) 
{"free_energy": -7.98, "intermolecular_energy": -10.37, "internal_energy": -1.99, "cluster_size": 1, "cluster_id": 6, "rank_in_cluster": 1}

>  <energy>  (91) 
-8.87

>  <cluster_rmsd>  (91) 
0.0

>  <cluster>  (91) 
3

$$$$

     RDKit          3D

 63 66  0  0  0  0  0  0  0  0999 V2000
  142.9470   76.9830  217.1830 C   0  0  0  0  0  0  0  0  0  0  0  0
  142.3920   77.8650  218.2920 C   0  0  0  0  0  0  0  0  0  0  0  0
  142.5720   77.1030  219.5530 C   0  0  0  0  0  0  0  0  0  0  0  0
  143.5910   76.3970  219.6800 O   0  0  0  0  0  0  0  0  0  0  0  0
  141.5680   77.2010  220.5910 N   0  0  0  0  0  0  0  0  0  0  0  0
  141.5120   78.3760  221.4070 C   0  0  0  0  0  0  0  0  0  0  0  0
  141.4250   78.1980  222.7780 C   0  0  0  0  0  0  0  0  0  0  0  0
  141.3690   79.2970  223.6000 C   0  0  0  0  0  0  0  0  0  0  0  0
  141.4010   80.5700  223.0280 C   0  0  0  0  0  0  0  0  0  0  0  0
  141.4870   80.7470  221.6520 C   0  0  0  0  0  0  0  0  0  0  0  0
  141.5440   79.6420  220.8340 C   0  0  0  0  0  0  0  0  0  0  0  0
  140.6320   76.1180  220.8070 C   0  0  0  0  0  0  0  0  0  0  0  0
  141.1080   75.2850  221.9540 C   0  0  0  0  0  0  0  0  0  0  0  0
  141.1480   73.7810  221.6160 C   0  0  0  0  0  0  0  0  0  0  0  0
  139.9020   73.3610  221.0330 N   0  0  0  0  0  0  0  0  0  0  0  0
  139.2060   72.1640  221.4200 C   0  0  0  0  0  0  0  0  0  0  0  0
  138.1190   71.9430  220.8320 O   0  0  0  0  0  0  0  0  0  0  0  0
  139.6750   71.2220  222.4250 C   0  0  0  0  0  0  0  0  0  0  0  0
  139.1440   71.4230  223.8180 C   0  0  1  0  0  0  0  0  0  0  0  0
  137.6990   71.5260  223.7080 N   0  0  0  0  0  0  0  0  0  0  0  0
  139.4830   70.3170  224.6960 C   0  0  0  0  0  0  0  0  0  0  0  0
  139.1810   69.0040  224.4100 C   0  0  0  0  0  0  0  0  0  0  0  0
  139.4820   67.9450  225.2350 C   0  0  0  0  0  0  0  0  0  0  0  0
  140.1270   68.1870  226.4290 C   0  0  0  0  0  0  0  0  0  0  0  0
  140.4430   69.4850  226.7450 C   0  0  0  0  0  0  0  0  0  0  0  0
  141.0790   69.7110  227.9420 C   0  0  0  0  0  0  0  0  0  0  0  0
  141.4280   70.9750  228.3430 C   0  0  0  0  0  0  0  0  0  0  0  0
  141.1310   72.0560  227.5210 C   0  0  0  0  0  0  0  0  0  0  0  0
  140.4970   71.8040  226.3350 C   0  0  0  0  0  0  0  0  0  0  0  0
  140.1320   70.5440  225.9020 C   0  0  0  0  0  0  0  0  0  0  0  0
  139.3460   74.2350  219.9940 C   0  0  0  0  0  0  0  0  0  0  0  0
  140.4580   75.2100  219.6270 C   0  0  0  0  0  0  0  0  0  0  0  0
  143.4833   76.1308  217.6260 H   0  0  0  0  0  0  0  0  0  0  0  0
  142.1193   76.6120  216.5607 H   0  0  0  0  0  0  0  0  0  0  0  0
  143.6396   77.5687  216.5607 H   0  0  0  0  0  0  0  0  0  0  0  0
  142.9453   78.8146  218.3375 H   0  0  0  0  0  0  0  0  0  0  0  0
  141.3339   78.1107  218.1185 H   0  0  0  0  0  0  0  0  0  0  0  0
  141.4010   77.1845  223.2050 H   0  0  0  0  0  0  0  0  0  0  0  0
  141.3001   79.1760  224.6912 H   0  0  0  0  0  0  0  0  0  0  0  0
  141.3571   81.4537  223.6815 H   0  0  0  0  0  0  0  0  0  0  0  0
  141.5092   81.7591  221.2218 H   0  0  0  0  0  0  0  0  0  0  0  0
  141.6139   79.7588  219.7425 H   0  0  0  0  0  0  0  0  0  0  0  0
  139.6591   76.5933  221.0011 H   0  0  0  0  0  0  0  0  0  0  0  0
  142.1215   75.6114  222.2302 H   0  0  0  0  0  0  0  0  0  0  0  0
  140.3985   75.4221  222.7833 H   0  0  0  0  0  0  0  0  0  0  0  0
  141.9632   73.5923  220.9020 H   0  0  0  0  0  0  0  0  0  0  0  0
  141.3157   73.2130  222.5430 H   0  0  0  0  0  0  0  0  0  0  0  0
  139.3884   70.2115  222.0984 H   0  0  0  0  0  0  0  0  0  0  0  0
  140.7610   71.3818  222.4964 H   0  0  0  0  0  0  0  0  0  0  0  0
  139.5921   72.3280  224.2540 H   0  0  0  0  0  0  0  0  0  0  0  0
  137.3650   71.2900  222.7470 H   0  0  0  0  0  0  0  0  0  0  0  0
  137.3180   72.3910  224.0910 H   0  0  0  0  0  0  0  0  0  0  0  0
  138.6666   68.7884  223.4619 H   0  0  0  0  0  0  0  0  0  0  0  0
  139.2115   66.9188  224.9457 H   0  0  0  0  0  0  0  0  0  0  0  0
  140.3817   67.3619  227.1105 H   0  0  0  0  0  0  0  0  0  0  0  0
  141.3139   68.8571  228.5944 H   0  0  0  0  0  0  0  0  0  0  0  0
  141.9377   71.1319  229.3051 H   0  0  0  0  0  0  0  0  0  0  0  0
  141.3974   73.0820  227.8149 H   0  0  0  0  0  0  0  0  0  0  0  0
  140.2629   72.6596  225.6846 H   0  0  0  0  0  0  0  0  0  0  0  0
  139.0504   73.6436  219.1148 H   0  0  0  0  0  0  0  0  0  0  0  0
  138.4482   74.7624  220.3487 H   0  0  0  0  0  0  0  0  0  0  0  0
  141.3916   74.6640  219.4263 H   0  0  0  0  0  0  0  0  0  0  0  0
  140.2059   75.7790  218.7200 H   0  0  0  0  0  0  0  0  0  0  0  0
  1  2  1  0
  2  3  1  0
  3  4  2  0
  3  5  1  0
  5  6  1  0
  6  7  2  0
  7  8  1  0
  8  9  2  0
  9 10  1  0
 10 11  2  0
  5 12  1  0
 12 13  1  0
 13 14  1  0
 14 15  1  0
 15 16  1  0
 16 17  2  0
 16 18  1  0
 18 19  1  0
 19 20  1  0
 19 21  1  0
 21 22  2  0
 22 23  1  0
 23 24  2  0
 24 25  1  0
 25 26  2  0
 26 27  1  0
 27 28  2  0
 28 29  1  0
 29 30  2  0
 15 31  1  0
 31 32  1  0
 11  6  1  0
 32 12  1  0
 30 21  1  0
 30 25  1  0
  1 33  1  0
  1 34  1  0
  1 35  1  0
  2 36  1  0
  2 37  1  0
  7 38  1  0
  8 39  1  0
  9 40  1  0
 10 41  1  0
 11 42  1  0
 12 43  1  0
 13 44  1  0
 13 45  1  0
 14 46  1  0
 14 47  1  0
 18 48  1  0
 18 49  1  0
 19 50  1  1
 20 51  1  0
 20 52  1  0
 22 53  1  0
 23 54  1  0
 24 55  1  0
 26 56  1  0
 27 57  1  0
 28 58  1  0
 29 59  1  0
 31 60  1  0
 31 61  1  0
 32 62  1  0
 32 63  1  0
M  END
>  <smiles>  (92) 
CCC(=O)N(c1ccccc1)C1CCN(C(=O)CC(N)c2cccc3ccccc23)CC1

>  <score_type>  (92) 
oracle

>  <origin>  (92) 
autodockgpu

>  <m_score__min__energy>  (92) 
-9.3599999999999994

>  <m_primary>  (92) 
energy

>  <rmsd>  (92) 
8.823249384800471

>  <m_score__min__rmsd>  (92) 
8.823249384800471

>  <meeko>  (92) 
{"free_energy": -8.85, "intermolecular_energy": -11.24, "internal_energy": -1.89, "cluster_size": 39, "cluster_id": 2, "rank_in_cluster": 2}

>  <energy>  (92) 
-8.25

>  <cluster_rmsd>  (92) 
1.92

>  <cluster>  (92) 
3

$$$$

     RDKit          3D

 63 66  0  0  0  0  0  0  0  0999 V2000
  142.1560   80.0200  218.7510 C   0  0  0  0  0  0  0  0  0  0  0  0
  141.3700   78.7470  218.4730 C   0  0  0  0  0  0  0  0  0  0  0  0
  141.8470   77.7450  219.4590 C   0  0  0  0  0  0  0  0  0  0  0  0
  142.9290   77.1660  219.2410 O   0  0  0  0  0  0  0  0  0  0  0  0
  141.0490   77.4700  220.6350 N   0  0  0  0  0  0  0  0  0  0  0  0
  141.0200   78.4220  221.7040 C   0  0  0  0  0  0  0  0  0  0  0  0
  142.2060   79.0650  222.0180 C   0  0  0  0  0  0  0  0  0  0  0  0
  142.2250   79.9860  223.0360 C   0  0  0  0  0  0  0  0  0  0  0  0
  141.0430   80.2510  223.7300 C   0  0  0  0  0  0  0  0  0  0  0  0
  139.8550   79.6040  223.4140 C   0  0  0  0  0  0  0  0  0  0  0  0
  139.8410   78.6820  222.3930 C   0  0  0  0  0  0  0  0  0  0  0  0
  140.2910   76.2400  220.7320 C   0  0  0  0  0  0  0  0  0  0  0  0
  140.7150   75.5040  221.9630 C   0  0  0  0  0  0  0  0  0  0  0  0
  141.0660   74.0300  221.6780 C   0  0  0  0  0  0  0  0  0  0  0  0
  140.0190   73.3990  220.9200 N   0  0  0  0  0  0  0  0  0  0  0  0
  139.4870   72.0990  221.2270 C   0  0  0  0  0  0  0  0  0  0  0  0
  138.5610   71.6920  220.4840 O   0  0  0  0  0  0  0  0  0  0  0  0
  139.9450   71.2540  222.3200 C   0  0  0  0  0  0  0  0  0  0  0  0
  139.3230   71.5150  223.6630 C   0  0  1  0  0  0  0  0  0  0  0  0
  137.8970   71.6870  223.4420 N   0  0  0  0  0  0  0  0  0  0  0  0
  139.5390   70.4170  224.5880 C   0  0  0  0  0  0  0  0  0  0  0  0
  139.1570   69.1200  224.3250 C   0  0  0  0  0  0  0  0  0  0  0  0
  139.3420   68.0690  225.1930 C   0  0  0  0  0  0  0  0  0  0  0  0
  139.9440   68.3020  226.4110 C   0  0  0  0  0  0  0  0  0  0  0  0
  140.3350   69.5840  226.7060 C   0  0  0  0  0  0  0  0  0  0  0  0
  140.9280   69.8030  227.9270 C   0  0  0  0  0  0  0  0  0  0  0  0
  141.3460   71.0500  228.3100 C   0  0  0  0  0  0  0  0  0  0  0  0
  141.1670   72.1230  227.4430 C   0  0  0  0  0  0  0  0  0  0  0  0
  140.5750   71.8790  226.2340 C   0  0  0  0  0  0  0  0  0  0  0  0
  140.1430   70.6350  225.8190 C   0  0  0  0  0  0  0  0  0  0  0  0
  139.4930   74.1620  219.7830 C   0  0  0  0  0  0  0  0  0  0  0  0
  140.4660   75.3150  219.5660 C   0  0  0  0  0  0  0  0  0  0  0  0
  142.2459   80.1655  219.8376 H   0  0  0  0  0  0  0  0  0  0  0  0
  143.1594   79.9355  218.3082 H   0  0  0  0  0  0  0  0  0  0  0  0
  141.6310   80.8792  218.3082 H   0  0  0  0  0  0  0  0  0  0  0  0
  140.2927   78.9275  218.6028 H   0  0  0  0  0  0  0  0  0  0  0  0
  141.5214   78.3986  217.4407 H   0  0  0  0  0  0  0  0  0  0  0  0
  143.1247   78.8397  221.4566 H   0  0  0  0  0  0  0  0  0  0  0  0
  143.1570   80.5070  223.3007 H   0  0  0  0  0  0  0  0  0  0  0  0
  141.0526   80.9890  224.5457 H   0  0  0  0  0  0  0  0  0  0  0  0
  138.9350   79.8266  223.9744 H   0  0  0  0  0  0  0  0  0  0  0  0
  138.9111   78.1586  222.1260 H   0  0  0  0  0  0  0  0  0  0  0  0
  139.2324   76.5379  220.7572 H   0  0  0  0  0  0  0  0  0  0  0  0
  141.6004   76.0023  222.3846 H   0  0  0  0  0  0  0  0  0  0  0  0
  139.8702   75.5163  222.6674 H   0  0  0  0  0  0  0  0  0  0  0  0
  142.0042   73.9857  221.1054 H   0  0  0  0  0  0  0  0  0  0  0  0
  141.1799   73.5005  222.6354 H   0  0  0  0  0  0  0  0  0  0  0  0
  139.7329   70.2093  222.0487 H   0  0  0  0  0  0  0  0  0  0  0  0
  141.0146   71.4809  222.4407 H   0  0  0  0  0  0  0  0  0  0  0  0
  139.7833   72.4074  224.1122 H   0  0  0  0  0  0  0  0  0  0  0  0
  137.6810   71.8800  222.4390 H   0  0  0  0  0  0  0  0  0  0  0  0
  137.4500   72.3210  224.1050 H   0  0  0  0  0  0  0  0  0  0  0  0
  138.6732   68.9114  223.3594 H   0  0  0  0  0  0  0  0  0  0  0  0
  139.0137   67.0556  224.9187 H   0  0  0  0  0  0  0  0  0  0  0  0
  140.1065   67.4828  227.1269 H   0  0  0  0  0  0  0  0  0  0  0  0
  141.0703   68.9555  228.6136 H   0  0  0  0  0  0  0  0  0  0  0  0
  141.8179   71.2012  229.2921 H   0  0  0  0  0  0  0  0  0  0  0  0
  141.4915   73.1366  227.7210 H   0  0  0  0  0  0  0  0  0  0  0  0
  140.4342   72.7280  225.5489 H   0  0  0  0  0  0  0  0  0  0  0  0
  139.4458   73.5275  218.8857 H   0  0  0  0  0  0  0  0  0  0  0  0
  138.4735   74.5259  219.9785 H   0  0  0  0  0  0  0  0  0  0  0  0
  141.4993   74.9394  219.5298 H   0  0  0  0  0  0  0  0  0  0  0  0
  140.2685   75.8303  218.6144 H   0  0  0  0  0  0  0  0  0  0  0  0
  1  2  1  0
  2  3  1  0
  3  4  2  0
  3  5  1  0
  5  6  1  0
  6  7  2  0
  7  8  1  0
  8  9  2  0
  9 10  1  0
 10 11  2  0
  5 12  1  0
 12 13  1  0
 13 14  1  0
 14 15  1  0
 15 16  1  0
 16 17  2  0
 16 18  1  0
 18 19  1  0
 19 20  1  0
 19 21  1  0
 21 22  2  0
 22 23  1  0
 23 24  2  0
 24 25  1  0
 25 26  2  0
 26 27  1  0
 27 28  2  0
 28 29  1  0
 29 30  2  0
 15 31  1  0
 31 32  1  0
 11  6  1  0
 32 12  1  0
 30 21  1  0
 30 25  1  0
  1 33  1  0
  1 34  1  0
  1 35  1  0
  2 36  1  0
  2 37  1  0
  7 38  1  0
  8 39  1  0
  9 40  1  0
 10 41  1  0
 11 42  1  0
 12 43  1  0
 13 44  1  0
 13 45  1  0
 14 46  1  0
 14 47  1  0
 18 48  1  0
 18 49  1  0
 19 50  1  1
 20 51  1  0
 20 52  1  0
 22 53  1  0
 23 54  1  0
 24 55  1  0
 26 56  1  0
 27 57  1  0
 28 58  1  0
 29 59  1  0
 31 60  1  0
 31 61  1  0
 32 62  1  0
 32 63  1  0
M  END
>  <smiles>  (93) 
CCC(=O)N(c1ccccc1)C1CCN(C(=O)CC(N)c2cccc3ccccc23)CC1

>  <score_type>  (93) 
oracle

>  <origin>  (93) 
autodockgpu

>  <m_score__min__energy>  (93) 
-9.3599999999999994

>  <m_primary>  (93) 
energy

>  <rmsd>  (93) 
8.734403104248537

>  <m_score__min__rmsd>  (93) 
8.734403104248537

>  <meeko>  (93) 
{"free_energy": -8.71, "intermolecular_energy": -11.09, "internal_energy": -2.02, "cluster_size": 39, "cluster_id": 2, "rank_in_cluster": 13}

>  <energy>  (93) 
-8.46

>  <cluster_rmsd>  (93) 
0.0

>  <cluster>  (93) 
4

$$$$

     RDKit          3D

 63 66  0  0  0  0  0  0  0  0999 V2000
  142.1950   80.0300  218.7600 C   0  0  0  0  0  0  0  0  0  0  0  0
  141.4270   78.7470  218.4780 C   0  0  0  0  0  0  0  0  0  0  0  0
  141.9060   77.7530  219.4710 C   0  0  0  0  0  0  0  0  0  0  0  0
  142.9720   77.1490  219.2400 O   0  0  0  0  0  0  0  0  0  0  0  0
  141.1300   77.5140  220.6680 N   0  0  0  0  0  0  0  0  0  0  0  0
  141.1780   78.4620  221.7390 C   0  0  0  0  0  0  0  0  0  0  0  0
  140.0010   78.7100  222.4260 C   0  0  0  0  0  0  0  0  0  0  0  0
  140.0000   79.6120  223.4620 C   0  0  0  0  0  0  0  0  0  0  0  0
  141.1920   80.2580  223.7960 C   0  0  0  0  0  0  0  0  0  0  0  0
  142.3710   80.0090  223.1050 C   0  0  0  0  0  0  0  0  0  0  0  0
  142.3660   79.1040  222.0690 C   0  0  0  0  0  0  0  0  0  0  0  0
  140.3140   76.3230  220.7850 C   0  0  0  0  0  0  0  0  0  0  0  0
  140.7840   75.5250  221.9590 C   0  0  0  0  0  0  0  0  0  0  0  0
  141.0320   74.0450  221.6060 C   0  0  0  0  0  0  0  0  0  0  0  0
  139.9010   73.4950  220.9080 N   0  0  0  0  0  0  0  0  0  0  0  0
  139.3220   72.2160  221.2160 C   0  0  0  0  0  0  0  0  0  0  0  0
  138.3250   71.8820  220.5300 O   0  0  0  0  0  0  0  0  0  0  0  0
  139.8100   71.3120  222.2460 C   0  0  0  0  0  0  0  0  0  0  0  0
  139.2190   71.4920  223.6170 C   0  0  1  0  0  0  0  0  0  0  0  0
  137.7970   71.7310  223.4360 N   0  0  0  0  0  0  0  0  0  0  0  0
  139.4080   70.3190  224.4520 C   0  0  0  0  0  0  0  0  0  0  0  0
  139.0400   69.0490  224.0660 C   0  0  0  0  0  0  0  0  0  0  0  0
  139.1990   67.9280  224.8470 C   0  0  0  0  0  0  0  0  0  0  0  0
  139.7600   68.0560  226.1000 C   0  0  0  0  0  0  0  0  0  0  0  0
  140.1380   69.3090  226.5160 C   0  0  0  0  0  0  0  0  0  0  0  0
  140.6890   69.4230  227.7700 C   0  0  0  0  0  0  0  0  0  0  0  0
  141.0910   70.6340  228.2710 C   0  0  0  0  0  0  0  0  0  0  0  0
  140.9370   71.7770  227.4940 C   0  0  0  0  0  0  0  0  0  0  0  0
  140.3860   71.6360  226.2490 C   0  0  0  0  0  0  0  0  0  0  0  0
  139.9710   70.4320  225.7160 C   0  0  0  0  0  0  0  0  0  0  0  0
  139.3380   74.3220  219.8360 C   0  0  0  0  0  0  0  0  0  0  0  0
  140.3540   75.4290  219.5830 C   0  0  0  0  0  0  0  0  0  0  0  0
  142.2814   80.1742  219.8471 H   0  0  0  0  0  0  0  0  0  0  0  0
  143.2001   79.9603  218.3184 H   0  0  0  0  0  0  0  0  0  0  0  0
  141.6588   80.8829  218.3184 H   0  0  0  0  0  0  0  0  0  0  0  0
  140.3464   78.9150  218.5969 H   0  0  0  0  0  0  0  0  0  0  0  0
  141.5928   78.3978  217.4481 H   0  0  0  0  0  0  0  0  0  0  0  0
  139.0743   78.1887  222.1441 H   0  0  0  0  0  0  0  0  0  0  0  0
  139.0752   79.8220  224.0194 H   0  0  0  0  0  0  0  0  0  0  0  0
  141.1975   80.9806  224.6253 H   0  0  0  0  0  0  0  0  0  0  0  0
  143.2989   80.5300  223.3833 H   0  0  0  0  0  0  0  0  0  0  0  0
  143.2890   78.8913  221.5096 H   0  0  0  0  0  0  0  0  0  0  0  0
  139.2781   76.6758  220.8970 H   0  0  0  0  0  0  0  0  0  0  0  0
  141.7234   75.9616  222.3289 H   0  0  0  0  0  0  0  0  0  0  0  0
  139.9938   75.5583  222.7235 H   0  0  0  0  0  0  0  0  0  0  0  0
  141.9233   73.9705  220.9656 H   0  0  0  0  0  0  0  0  0  0  0  0
  141.1840   73.4789  222.5368 H   0  0  0  0  0  0  0  0  0  0  0  0
  139.5957   70.2836  221.9198 H   0  0  0  0  0  0  0  0  0  0  0  0
  140.8814   71.5369  222.3537 H   0  0  0  0  0  0  0  0  0  0  0  0
  139.7193   72.3303  224.1238 H   0  0  0  0  0  0  0  0  0  0  0  0
  137.4850   71.4950  222.4680 H   0  0  0  0  0  0  0  0  0  0  0  0
  137.4860   72.6420  223.7750 H   0  0  0  0  0  0  0  0  0  0  0  0
  138.5904   68.9233  223.0700 H   0  0  0  0  0  0  0  0  0  0  0  0
  138.8826   66.9418  224.4766 H   0  0  0  0  0  0  0  0  0  0  0  0
  139.9009   67.1787  226.7485 H   0  0  0  0  0  0  0  0  0  0  0  0
  140.8104   68.5203  228.3868 H   0  0  0  0  0  0  0  0  0  0  0  0
  141.5308   70.7009  229.2770 H   0  0  0  0  0  0  0  0  0  0  0  0
  141.2482   72.7635  227.8682 H   0  0  0  0  0  0  0  0  0  0  0  0
  140.2662   72.5399  225.6337 H   0  0  0  0  0  0  0  0  0  0  0  0
  139.1925   73.7213  218.9261 H   0  0  0  0  0  0  0  0  0  0  0  0
  138.3564   74.7319  220.1162 H   0  0  0  0  0  0  0  0  0  0  0  0
  141.3600   75.0013  219.4603 H   0  0  0  0  0  0  0  0  0  0  0  0
  140.1169   75.9854  218.6642 H   0  0  0  0  0  0  0  0  0  0  0  0
  1  2  1  0
  2  3  1  0
  3  4  2  0
  3  5  1  0
  5  6  1  0
  6  7  2  0
  7  8  1  0
  8  9  2  0
  9 10  1  0
 10 11  2  0
  5 12  1  0
 12 13  1  0
 13 14  1  0
 14 15  1  0
 15 16  1  0
 16 17  2  0
 16 18  1  0
 18 19  1  0
 19 20  1  0
 19 21  1  0
 21 22  2  0
 22 23  1  0
 23 24  2  0
 24 25  1  0
 25 26  2  0
 26 27  1  0
 27 28  2  0
 28 29  1  0
 29 30  2  0
 15 31  1  0
 31 32  1  0
 11  6  1  0
 32 12  1  0
 30 21  1  0
 30 25  1  0
  1 33  1  0
  1 34  1  0
  1 35  1  0
  2 36  1  0
  2 37  1  0
  7 38  1  0
  8 39  1  0
  9 40  1  0
 10 41  1  0
 11 42  1  0
 12 43  1  0
 13 44  1  0
 13 45  1  0
 14 46  1  0
 14 47  1  0
 18 48  1  0
 18 49  1  0
 19 50  1  1
 20 51  1  0
 20 52  1  0
 22 53  1  0
 23 54  1  0
 24 55  1  0
 26 56  1  0
 27 57  1  0
 28 58  1  0
 29 59  1  0
 31 60  1  0
 31 61  1  0
 32 62  1  0
 32 63  1  0
M  END
>  <smiles>  (94) 
CCC(=O)N(c1ccccc1)C1CCN(C(=O)CC(N)c2cccc3ccccc23)CC1

>  <score_type>  (94) 
oracle

>  <origin>  (94) 
autodockgpu

>  <m_score__min__energy>  (94) 
-9.3599999999999994

>  <m_primary>  (94) 
energy

>  <rmsd>  (94) 
8.74520220090991

>  <m_score__min__rmsd>  (94) 
8.74520220090991

>  <meeko>  (94) 
{"free_energy": -8.67, "intermolecular_energy": -11.05, "internal_energy": -2.05, "cluster_size": 39, "cluster_id": 2, "rank_in_cluster": 19}

>  <energy>  (94) 
-8.4

>  <cluster_rmsd>  (94) 
0.0

>  <cluster>  (94) 
5

$$$$

     RDKit          3D

 63 66  0  0  0  0  0  0  0  0999 V2000
  142.5500   79.5280  218.2360 C   0  0  0  0  0  0  0  0  0  0  0  0
  141.3560   78.6010  218.4110 C   0  0  0  0  0  0  0  0  0  0  0  0
  141.7840   77.5560  219.3750 C   0  0  0  0  0  0  0  0  0  0  0  0
  142.7890   76.8710  219.1010 O   0  0  0  0  0  0  0  0  0  0  0  0
  141.0290   77.3630  220.5940 N   0  0  0  0  0  0  0  0  0  0  0  0
  141.0820   78.3600  221.6200 C   0  0  0  0  0  0  0  0  0  0  0  0
  139.9790   78.4820  222.4490 C   0  0  0  0  0  0  0  0  0  0  0  0
  139.9850   79.4250  223.4480 C   0  0  0  0  0  0  0  0  0  0  0  0
  141.1090   80.2390  223.6010 C   0  0  0  0  0  0  0  0  0  0  0  0
  142.2140   80.1150  222.7670 C   0  0  0  0  0  0  0  0  0  0  0  0
  142.2020   79.1690  221.7700 C   0  0  0  0  0  0  0  0  0  0  0  0
  140.2300   76.1690  220.7780 C   0  0  0  0  0  0  0  0  0  0  0  0
  140.7450   75.4180  221.9650 C   0  0  0  0  0  0  0  0  0  0  0  0
  140.9980   73.9290  221.6580 C   0  0  0  0  0  0  0  0  0  0  0  0
  139.8530   73.3430  221.0150 N   0  0  0  0  0  0  0  0  0  0  0  0
  139.2980   72.0700  221.3850 C   0  0  0  0  0  0  0  0  0  0  0  0
  138.2840   71.7020  220.7430 O   0  0  0  0  0  0  0  0  0  0  0  0
  139.8270   71.2080  222.4320 C   0  0  0  0  0  0  0  0  0  0  0  0
  139.2550   71.4120  223.8070 C   0  0  1  0  0  0  0  0  0  0  0  0
  137.8140   71.5180  223.6550 N   0  0  0  0  0  0  0  0  0  0  0  0
  139.5670   70.3080  224.6980 C   0  0  0  0  0  0  0  0  0  0  0  0
  139.2670   68.9960  224.4080 C   0  0  0  0  0  0  0  0  0  0  0  0
  139.5420   67.9370  225.2430 C   0  0  0  0  0  0  0  0  0  0  0  0
  140.1560   68.1800  226.4530 C   0  0  0  0  0  0  0  0  0  0  0  0
  140.4680   69.4780  226.7740 C   0  0  0  0  0  0  0  0  0  0  0  0
  141.0730   69.7050  227.9870 C   0  0  0  0  0  0  0  0  0  0  0  0
  141.4160   70.9680  228.3940 C   0  0  0  0  0  0  0  0  0  0  0  0
  141.1450   72.0480  227.5600 C   0  0  0  0  0  0  0  0  0  0  0  0
  140.5420   71.7950  226.3590 C   0  0  0  0  0  0  0  0  0  0  0  0
  140.1840   70.5360  225.9200 C   0  0  0  0  0  0  0  0  0  0  0  0
  139.2480   74.1250  219.9310 C   0  0  0  0  0  0  0  0  0  0  0  0
  140.2440   75.2320  219.6080 C   0  0  0  0  0  0  0  0  0  0  0  0
  142.9319   79.8245  219.2240 H   0  0  0  0  0  0  0  0  0  0  0  0
  143.3414   79.0054  217.6787 H   0  0  0  0  0  0  0  0  0  0  0  0
  142.2398   80.4242  217.6787 H   0  0  0  0  0  0  0  0  0  0  0  0
  140.4952   79.1582  218.8092 H   0  0  0  0  0  0  0  0  0  0  0  0
  141.0454   78.1603  217.4522 H   0  0  0  0  0  0  0  0  0  0  0  0
  139.1051   77.8289  222.3085 H   0  0  0  0  0  0  0  0  0  0  0  0
  139.1185   79.5369  224.1164 H   0  0  0  0  0  0  0  0  0  0  0  0
  141.1203   80.9955  224.3995 H   0  0  0  0  0  0  0  0  0  0  0  0
  143.0891   80.7673  222.9035 H   0  0  0  0  0  0  0  0  0  0  0  0
  143.0669   79.0538  221.1001 H   0  0  0  0  0  0  0  0  0  0  0  0
  139.1942   76.5154  220.9086 H   0  0  0  0  0  0  0  0  0  0  0  0
  141.6907   75.8768  222.2894 H   0  0  0  0  0  0  0  0  0  0  0  0
  139.9783   75.4711  222.7520 H   0  0  0  0  0  0  0  0  0  0  0  0
  141.8704   73.8400  220.9940 H   0  0  0  0  0  0  0  0  0  0  0  0
  141.1837   73.3986  222.6036 H   0  0  0  0  0  0  0  0  0  0  0  0
  139.6340   70.1655  222.1388 H   0  0  0  0  0  0  0  0  0  0  0  0
  140.8938   71.4631  222.5145 H   0  0  0  0  0  0  0  0  0  0  0  0
  139.6914   72.3175  224.2538 H   0  0  0  0  0  0  0  0  0  0  0  0
  137.5030   71.2260  222.7010 H   0  0  0  0  0  0  0  0  0  0  0  0
  137.4300   72.4060  223.9750 H   0  0  0  0  0  0  0  0  0  0  0  0
  138.7761   68.7803  223.4475 H   0  0  0  0  0  0  0  0  0  0  0  0
  139.2756   66.9111  224.9489 H   0  0  0  0  0  0  0  0  0  0  0  0
  140.3898   67.3559  227.1431 H   0  0  0  0  0  0  0  0  0  0  0  0
  141.2872   68.8519  228.6475 H   0  0  0  0  0  0  0  0  0  0  0  0
  141.9001   71.1259  229.3690 H   0  0  0  0  0  0  0  0  0  0  0  0
  141.4077   73.0739  227.8575 H   0  0  0  0  0  0  0  0  0  0  0  0
  140.3285   72.6497  225.7003 H   0  0  0  0  0  0  0  0  0  0  0  0
  139.0818   73.4903  219.0481 H   0  0  0  0  0  0  0  0  0  0  0  0
  138.2706   74.5347  220.2256 H   0  0  0  0  0  0  0  0  0  0  0  0
  141.2505   74.8099  219.4707 H   0  0  0  0  0  0  0  0  0  0  0  0
  139.9737   75.7523  218.6773 H   0  0  0  0  0  0  0  0  0  0  0  0
  1  2  1  0
  2  3  1  0
  3  4  2  0
  3  5  1  0
  5  6  1  0
  6  7  2  0
  7  8  1  0
  8  9  2  0
  9 10  1  0
 10 11  2  0
  5 12  1  0
 12 13  1  0
 13 14  1  0
 14 15  1  0
 15 16  1  0
 16 17  2  0
 16 18  1  0
 18 19  1  0
 19 20  1  0
 19 21  1  0
 21 22  2  0
 22 23  1  0
 23 24  2  0
 24 25  1  0
 25 26  2  0
 26 27  1  0
 27 28  2  0
 28 29  1  0
 29 30  2  0
 15 31  1  0
 31 32  1  0
 11  6  1  0
 32 12  1  0
 30 21  1  0
 30 25  1  0
  1 33  1  0
  1 34  1  0
  1 35  1  0
  2 36  1  0
  2 37  1  0
  7 38  1  0
  8 39  1  0
  9 40  1  0
 10 41  1  0
 11 42  1  0
 12 43  1  0
 13 44  1  0
 13 45  1  0
 14 46  1  0
 14 47  1  0
 18 48  1  0
 18 49  1  0
 19 50  1  1
 20 51  1  0
 20 52  1  0
 22 53  1  0
 23 54  1  0
 24 55  1  0
 26 56  1  0
 27 57  1  0
 28 58  1  0
 29 59  1  0
 31 60  1  0
 31 61  1  0
 32 62  1  0
 32 63  1  0
M  END
>  <smiles>  (95) 
CCC(=O)N(c1ccccc1)C1CCN(C(=O)CC(N)c2cccc3ccccc23)CC1

>  <score_type>  (95) 
oracle

>  <origin>  (95) 
autodockgpu

>  <m_score__min__energy>  (95) 
-9.3599999999999994

>  <m_primary>  (95) 
energy

>  <rmsd>  (95) 
8.824305702084164

>  <m_score__min__rmsd>  (95) 
8.824305702084164

>  <meeko>  (95) 
{"free_energy": -8.7, "intermolecular_energy": -11.08, "internal_energy": -2.0, "cluster_size": 39, "cluster_id": 2, "rank_in_cluster": 14}

>  <energy>  (95) 
-7.98

>  <cluster_rmsd>  (95) 
0.0

>  <cluster>  (95) 
6

$$$$

     RDKit          3D

 63 66  0  0  0  0  0  0  0  0999 V2000
  142.5610   79.0050  217.8970 C   0  0  0  0  0  0  0  0  0  0  0  0
  141.8380   77.6930  218.1680 C   0  0  0  0  0  0  0  0  0  0  0  0
  142.3040   77.2340  219.5010 C   0  0  0  0  0  0  0  0  0  0  0  0
  143.4410   76.7310  219.5920 O   0  0  0  0  0  0  0  0  0  0  0  0
  141.4340   77.3820  220.6480 N   0  0  0  0  0  0  0  0  0  0  0  0
  141.5500   78.5460  221.4740 C   0  0  0  0  0  0  0  0  0  0  0  0
  141.4460   78.3690  222.8430 C   0  0  0  0  0  0  0  0  0  0  0  0
  141.5520   79.4570  223.6750 C   0  0  0  0  0  0  0  0  0  0  0  0
  141.7620   80.7180  223.1130 C   0  0  0  0  0  0  0  0  0  0  0  0
  141.8650   80.8930  221.7390 C   0  0  0  0  0  0  0  0  0  0  0  0
  141.7600   79.8000  220.9110 C   0  0  0  0  0  0  0  0  0  0  0  0
  140.4570   76.3610  220.9610 C   0  0  0  0  0  0  0  0  0  0  0  0
  141.0420   75.4200  221.9670 C   0  0  0  0  0  0  0  0  0  0  0  0
  140.8980   73.9430  221.5490 C   0  0  0  0  0  0  0  0  0  0  0  0
  139.5430   73.6580  221.1620 N   0  0  0  0  0  0  0  0  0  0  0  0
  138.8200   72.4930  221.5970 C   0  0  0  0  0  0  0  0  0  0  0  0
  137.6370   72.3930  221.1890 O   0  0  0  0  0  0  0  0  0  0  0  0
  139.3650   71.4540  222.4580 C   0  0  0  0  0  0  0  0  0  0  0  0
  138.9200   71.4860  223.8940 C   0  0  1  0  0  0  0  0  0  0  0  0
  137.4780   71.6690  223.8860 N   0  0  0  0  0  0  0  0  0  0  0  0
  139.2460   70.2560  224.5940 C   0  0  0  0  0  0  0  0  0  0  0  0
  138.9360   69.0050  224.1090 C   0  0  0  0  0  0  0  0  0  0  0  0
  139.2260   67.8290  224.7620 C   0  0  0  0  0  0  0  0  0  0  0  0
  139.8640   67.8800  225.9830 C   0  0  0  0  0  0  0  0  0  0  0  0
  140.1860   69.1120  226.4970 C   0  0  0  0  0  0  0  0  0  0  0  0
  140.8150   69.1470  227.7180 C   0  0  0  0  0  0  0  0  0  0  0  0
  141.1700   70.3310  228.3100 C   0  0  0  0  0  0  0  0  0  0  0  0
  140.8850   71.5270  227.6620 C   0  0  0  0  0  0  0  0  0  0  0  0
  140.2570   71.4650  226.4480 C   0  0  0  0  0  0  0  0  0  0  0  0
  139.8880   70.2900  225.8250 C   0  0  0  0  0  0  0  0  0  0  0  0
  138.9010   74.6370  220.2780 C   0  0  0  0  0  0  0  0  0  0  0  0
  140.0170   75.5470  219.7810 C   0  0  0  0  0  0  0  0  0  0  0  0
  142.8242   79.4827  218.8523 H   0  0  0  0  0  0  0  0  0  0  0  0
  143.4772   78.8067  217.3215 H   0  0  0  0  0  0  0  0  0  0  0  0
  141.9040   79.6736  217.3215 H   0  0  0  0  0  0  0  0  0  0  0  0
  140.7496   77.8518  218.1779 H   0  0  0  0  0  0  0  0  0  0  0  0
  142.0527   76.9473  217.3884 H   0  0  0  0  0  0  0  0  0  0  0  0
  141.2798   77.3653  223.2613 H   0  0  0  0  0  0  0  0  0  0  0  0
  141.4728   79.3369  224.7656 H   0  0  0  0  0  0  0  0  0  0  0  0
  141.8478   81.5931  223.7739 H   0  0  0  0  0  0  0  0  0  0  0  0
  142.0289   81.8957  221.3174 H   0  0  0  0  0  0  0  0  0  0  0  0
  141.8409   79.9160  219.8201 H   0  0  0  0  0  0  0  0  0  0  0  0
  139.5728   76.8946  221.3398 H   0  0  0  0  0  0  0  0  0  0  0  0
  142.1111   75.6503  222.0852 H   0  0  0  0  0  0  0  0  0  0  0  0
  140.4919   75.5552  222.9099 H   0  0  0  0  0  0  0  0  0  0  0  0
  141.5670   73.7405  220.6997 H   0  0  0  0  0  0  0  0  0  0  0  0
  141.1653   73.3042  222.4037 H   0  0  0  0  0  0  0  0  0  0  0  0
  139.0729   70.4807  222.0369 H   0  0  0  0  0  0  0  0  0  0  0  0
  140.4510   71.6276  222.4806 H   0  0  0  0  0  0  0  0  0  0  0  0
  139.4382   72.3016  224.4197 H   0  0  0  0  0  0  0  0  0  0  0  0
  137.0530   71.3520  222.9850 H   0  0  0  0  0  0  0  0  0  0  0  0
  137.1780   72.5920  224.1970 H   0  0  0  0  0  0  0  0  0  0  0  0
  138.4239   68.9418  223.1375 H   0  0  0  0  0  0  0  0  0  0  0  0
  138.9525   66.8615  224.3158 H   0  0  0  0  0  0  0  0  0  0  0  0
  140.1087   66.9582  226.5311 H   0  0  0  0  0  0  0  0  0  0  0  0
  141.0392   68.2013  228.2332 H   0  0  0  0  0  0  0  0  0  0  0  0
  141.6749   70.3346  229.2873 H   0  0  0  0  0  0  0  0  0  0  0  0
  141.1560   72.4938  228.1113 H   0  0  0  0  0  0  0  0  0  0  0  0
  140.0318   72.4121  225.9358 H   0  0  0  0  0  0  0  0  0  0  0  0
  138.4168   74.1282  219.4314 H   0  0  0  0  0  0  0  0  0  0  0  0
  138.1210   75.2060  220.8050 H   0  0  0  0  0  0  0  0  0  0  0  0
  140.8558   74.9465  219.3991 H   0  0  0  0  0  0  0  0  0  0  0  0
  139.6702   76.1910  218.9594 H   0  0  0  0  0  0  0  0  0  0  0  0
  1  2  1  0
  2  3  1  0
  3  4  2  0
  3  5  1  0
  5  6  1  0
  6  7  2  0
  7  8  1  0
  8  9  2  0
  9 10  1  0
 10 11  2  0
  5 12  1  0
 12 13  1  0
 13 14  1  0
 14 15  1  0
 15 16  1  0
 16 17  2  0
 16 18  1  0
 18 19  1  0
 19 20  1  0
 19 21  1  0
 21 22  2  0
 22 23  1  0
 23 24  2  0
 24 25  1  0
 25 26  2  0
 26 27  1  0
 27 28  2  0
 28 29  1  0
 29 30  2  0
 15 31  1  0
 31 32  1  0
 11  6  1  0
 32 12  1  0
 30 21  1  0
 30 25  1  0
  1 33  1  0
  1 34  1  0
  1 35  1  0
  2 36  1  0
  2 37  1  0
  7 38  1  0
  8 39  1  0
  9 40  1  0
 10 41  1  0
 11 42  1  0
 12 43  1  0
 13 44  1  0
 13 45  1  0
 14 46  1  0
 14 47  1  0
 18 48  1  0
 18 49  1  0
 19 50  1  1
 20 51  1  0
 20 52  1  0
 22 53  1  0
 23 54  1  0
 24 55  1  0
 26 56  1  0
 27 57  1  0
 28 58  1  0
 29 59  1  0
 31 60  1  0
 31 61  1  0
 32 62  1  0
 32 63  1  0
M  END
>  <smiles>  (96) 
CCC(=O)N(c1ccccc1)C1CCN(C(=O)CC(N)c2cccc3ccccc23)CC1

>  <score_type>  (96) 
oracle

>  <origin>  (96) 
autodockgpu

>  <m_score__min__energy>  (96) 
-9.3599999999999994

>  <m_primary>  (96) 
energy

>  <rmsd>  (96) 
8.782319899826076

>  <m_score__min__rmsd>  (96) 
8.782319899826076

>  <meeko>  (96) 
{"free_energy": -8.76, "intermolecular_energy": -11.15, "internal_energy": -1.88, "cluster_size": 39, "cluster_id": 2, "rank_in_cluster": 7}

>  <energy>  (96) 
-7.72

>  <cluster_rmsd>  (96) 
0.0

>  <cluster>  (96) 
7

$$$$

     RDKit          3D

 63 66  0  0  0  0  0  0  0  0999 V2000
  139.1920   66.1170  222.6920 C   0  0  0  0  0  0  0  0  0  0  0  0
  138.7550   67.5740  222.7170 C   0  0  0  0  0  0  0  0  0  0  0  0
  139.1320   68.0940  224.0550 C   0  0  0  0  0  0  0  0  0  0  0  0
  139.3630   67.2770  224.9670 O   0  0  0  0  0  0  0  0  0  0  0  0
  139.2210   69.5240  224.2620 N   0  0  0  0  0  0  0  0  0  0  0  0
  139.7260   70.0250  225.5040 C   0  0  0  0  0  0  0  0  0  0  0  0
  139.2280   69.4640  226.6680 C   0  0  0  0  0  0  0  0  0  0  0  0
  139.6840   69.9140  227.8830 C   0  0  0  0  0  0  0  0  0  0  0  0
  140.6410   70.9290  227.9120 C   0  0  0  0  0  0  0  0  0  0  0  0
  141.1380   71.4920  226.7430 C   0  0  0  0  0  0  0  0  0  0  0  0
  140.6790   71.0370  225.5280 C   0  0  0  0  0  0  0  0  0  0  0  0
  138.7990   70.4400  223.2230 C   0  0  0  0  0  0  0  0  0  0  0  0
  140.0060   71.1100  222.6460 C   0  0  0  0  0  0  0  0  0  0  0  0
  139.8630   72.6440  222.5950 C   0  0  0  0  0  0  0  0  0  0  0  0
  138.6120   73.0160  221.9910 N   0  0  0  0  0  0  0  0  0  0  0  0
  138.4850   74.0410  220.9910 C   0  0  0  0  0  0  0  0  0  0  0  0
  137.3280   74.2370  220.5460 O   0  0  0  0  0  0  0  0  0  0  0  0
  139.5880   74.8400  220.4800 C   0  0  0  0  0  0  0  0  0  0  0  0
  140.3010   75.7030  221.4850 C   0  0  1  0  0  0  0  0  0  0  0  0
  141.4380   74.9370  221.9670 N   0  0  0  0  0  0  0  0  0  0  0  0
  140.7690   76.9470  220.9020 C   0  0  0  0  0  0  0  0  0  0  0  0
  140.7890   77.1870  219.5460 C   0  0  0  0  0  0  0  0  0  0  0  0
  141.2400   78.3540  218.9740 C   0  0  0  0  0  0  0  0  0  0  0  0
  141.7100   79.3630  219.7890 C   0  0  0  0  0  0  0  0  0  0  0  0
  141.7050   79.1550  221.1460 C   0  0  0  0  0  0  0  0  0  0  0  0
  142.1830   80.1670  221.9450 C   0  0  0  0  0  0  0  0  0  0  0  0
  142.2220   80.0470  223.3100 C   0  0  0  0  0  0  0  0  0  0  0  0
  141.7690   78.8740  223.9030 C   0  0  0  0  0  0  0  0  0  0  0  0
  141.2990   77.8830  223.0850 C   0  0  0  0  0  0  0  0  0  0  0  0
  141.2460   77.9720  221.7080 C   0  0  0  0  0  0  0  0  0  0  0  0
  137.4290   72.2780  222.4480 C   0  0  0  0  0  0  0  0  0  0  0  0
  137.8650   71.5150  223.6920 C   0  0  0  0  0  0  0  0  0  0  0  0
  139.3022   65.7495  223.7229 H   0  0  0  0  0  0  0  0  0  0  0  0
  138.4346   65.5160  222.1675 H   0  0  0  0  0  0  0  0  0  0  0  0
  140.1552   66.0320  222.1675 H   0  0  0  0  0  0  0  0  0  0  0  0
  139.2708   68.1408  221.9279 H   0  0  0  0  0  0  0  0  0  0  0  0
  137.6742   67.6725  222.5375 H   0  0  0  0  0  0  0  0  0  0  0  0
  138.4737   68.6648  226.6200 H   0  0  0  0  0  0  0  0  0  0  0  0
  139.3007   69.4809  228.8187 H   0  0  0  0  0  0  0  0  0  0  0  0
  141.0104   71.2917  228.8825 H   0  0  0  0  0  0  0  0  0  0  0  0
  141.8905   72.2931  226.7882 H   0  0  0  0  0  0  0  0  0  0  0  0
  141.0603   71.4674  224.5902 H   0  0  0  0  0  0  0  0  0  0  0  0
  138.2554   69.8312  222.4855 H   0  0  0  0  0  0  0  0  0  0  0  0
  140.8793   70.8577  223.2655 H   0  0  0  0  0  0  0  0  0  0  0  0
  140.1251   70.7513  221.6130 H   0  0  0  0  0  0  0  0  0  0  0  0
  139.9037   73.0451  223.6185 H   0  0  0  0  0  0  0  0  0  0  0  0
  140.6848   73.0569  221.9915 H   0  0  0  0  0  0  0  0  0  0  0  0
  140.3270   74.1523  220.0431 H   0  0  0  0  0  0  0  0  0  0  0  0
  139.1382   75.5373  219.7579 H   0  0  0  0  0  0  0  0  0  0  0  0
  139.6077   75.9707  222.2960 H   0  0  0  0  0  0  0  0  0  0  0  0
  142.2480   75.5530  222.2020 H   0  0  0  0  0  0  0  0  0  0  0  0
  141.6690   74.1320  221.3860 H   0  0  0  0  0  0  0  0  0  0  0  0
  140.4208   76.3948  218.8775 H   0  0  0  0  0  0  0  0  0  0  0  0
  141.2261   78.4809  217.8814 H   0  0  0  0  0  0  0  0  0  0  0  0
  142.0786   80.3080  219.3634 H   0  0  0  0  0  0  0  0  0  0  0  0
  142.5428   81.0954  221.4774 H   0  0  0  0  0  0  0  0  0  0  0  0
  142.6076   80.8701  223.9295 H   0  0  0  0  0  0  0  0  0  0  0  0
  141.7878   78.7466  224.9954 H   0  0  0  0  0  0  0  0  0  0  0  0
  140.9401   76.9553  223.5547 H   0  0  0  0  0  0  0  0  0  0  0  0
  136.6145   72.9755  222.6933 H   0  0  0  0  0  0  0  0  0  0  0  0
  137.0526   71.5981  221.6695 H   0  0  0  0  0  0  0  0  0  0  0  0
  138.3815   72.1896  224.3907 H   0  0  0  0  0  0  0  0  0  0  0  0
  137.0005   71.0890  224.2222 H   0  0  0  0  0  0  0  0  0  0  0  0
  1  2  1  0
  2  3  1  0
  3  4  2  0
  3  5  1  0
  5  6  1  0
  6  7  2  0
  7  8  1  0
  8  9  2  0
  9 10  1  0
 10 11  2  0
  5 12  1  0
 12 13  1  0
 13 14  1  0
 14 15  1  0
 15 16  1  0
 16 17  2  0
 16 18  1  0
 18 19  1  0
 19 20  1  0
 19 21  1  0
 21 22  2  0
 22 23  1  0
 23 24  2  0
 24 25  1  0
 25 26  2  0
 26 27  1  0
 27 28  2  0
 28 29  1  0
 29 30  2  0
 15 31  1  0
 31 32  1  0
 11  6  1  0
 32 12  1  0
 30 21  1  0
 30 25  1  0
  1 33  1  0
  1 34  1  0
  1 35  1  0
  2 36  1  0
  2 37  1  0
  7 38  1  0
  8 39  1  0
  9 40  1  0
 10 41  1  0
 11 42  1  0
 12 43  1  0
 13 44  1  0
 13 45  1  0
 14 46  1  0
 14 47  1  0
 18 48  1  0
 18 49  1  0
 19 50  1  1
 20 51  1  0
 20 52  1  0
 22 53  1  0
 23 54  1  0
 24 55  1  0
 26 56  1  0
 27 57  1  0
 28 58  1  0
 29 59  1  0
 31 60  1  0
 31 61  1  0
 32 62  1  0
 32 63  1  0
M  END
>  <smiles>  (97) 
CCC(=O)N(c1ccccc1)C1CCN(C(=O)CC(N)c2cccc3ccccc23)CC1

>  <score_type>  (97) 
oracle

>  <origin>  (97) 
autodockgpu

>  <m_score__min__energy>  (97) 
-9.3599999999999994

>  <m_primary>  (97) 
energy

>  <rmsd>  (97) 
6.394843041758798

>  <m_score__min__rmsd>  (97) 
6.394843041758798

>  <meeko>  (97) 
{"free_energy": -8.87, "intermolecular_energy": -11.26, "internal_energy": -1.09, "cluster_size": 2, "cluster_id": 3, "rank_in_cluster": 1}

>  <energy>  (97) 
-7.69

>  <cluster_rmsd>  (97) 
0.67

>  <cluster>  (97) 
7

$$$$

     RDKit          3D

 63 66  0  0  0  0  0  0  0  0999 V2000
  142.2020   79.5220  218.3260 C   0  0  0  0  0  0  0  0  0  0  0  0
  141.5630   78.2250  217.8510 C   0  0  0  0  0  0  0  0  0  0  0  0
  140.4720   77.9270  218.8130 C   0  0  0  0  0  0  0  0  0  0  0  0
  139.3150   78.2920  218.5290 O   0  0  0  0  0  0  0  0  0  0  0  0
  140.7800   77.2270  220.0420 N   0  0  0  0  0  0  0  0  0  0  0  0
  140.8940   77.9650  221.2630 C   0  0  0  0  0  0  0  0  0  0  0  0
  139.7890   77.9910  222.0980 C   0  0  0  0  0  0  0  0  0  0  0  0
  139.8530   78.6870  223.2800 C   0  0  0  0  0  0  0  0  0  0  0  0
  141.0350   79.3520  223.6100 C   0  0  0  0  0  0  0  0  0  0  0  0
  142.1420   79.3250  222.7700 C   0  0  0  0  0  0  0  0  0  0  0  0
  142.0730   78.6260  221.5870 C   0  0  0  0  0  0  0  0  0  0  0  0
  140.9750   75.7920  220.0360 C   0  0  0  0  0  0  0  0  0  0  0  0
  139.7410   75.1310  220.5630 C   0  0  0  0  0  0  0  0  0  0  0  0
  140.0470   74.1100  221.6770 C   0  0  0  0  0  0  0  0  0  0  0  0
  141.0920   73.2120  221.2660 N   0  0  0  0  0  0  0  0  0  0  0  0
  141.0340   71.7870  221.4500 C   0  0  0  0  0  0  0  0  0  0  0  0
  142.0160   71.1340  221.0200 O   0  0  0  0  0  0  0  0  0  0  0  0
  139.9340   71.0780  222.0860 C   0  0  0  0  0  0  0  0  0  0  0  0
  139.5870   71.5130  223.4830 C   0  0  1  0  0  0  0  0  0  0  0  0
  138.2130   71.9850  223.4500 N   0  0  0  0  0  0  0  0  0  0  0  0
  139.7010   70.4250  224.4380 C   0  0  0  0  0  0  0  0  0  0  0  0
  139.3090   69.1340  224.1630 C   0  0  0  0  0  0  0  0  0  0  0  0
  139.3970   68.0930  225.0580 C   0  0  0  0  0  0  0  0  0  0  0  0
  139.9060   68.3310  226.3170 C   0  0  0  0  0  0  0  0  0  0  0  0
  140.3050   69.6080  226.6240 C   0  0  0  0  0  0  0  0  0  0  0  0
  140.8040   69.8320  227.8850 C   0  0  0  0  0  0  0  0  0  0  0  0
  141.2220   71.0750  228.2830 C   0  0  0  0  0  0  0  0  0  0  0  0
  141.1400   72.1380  227.3890 C   0  0  0  0  0  0  0  0  0  0  0  0
  140.6400   71.8890  226.1400 C   0  0  0  0  0  0  0  0  0  0  0  0
  140.2110   70.6490  225.7100 C   0  0  0  0  0  0  0  0  0  0  0  0
  142.2590   73.8260  220.6240 C   0  0  0  0  0  0  0  0  0  0  0  0
  142.1310   75.3240  220.8680 C   0  0  0  0  0  0  0  0  0  0  0  0
  142.2129   79.5441  219.4257 H   0  0  0  0  0  0  0  0  0  0  0  0
  143.2331   79.5827  217.9478 H   0  0  0  0  0  0  0  0  0  0  0  0
  141.6218   80.3766  217.9478 H   0  0  0  0  0  0  0  0  0  0  0  0
  141.1546   78.3495  216.8372 H   0  0  0  0  0  0  0  0  0  0  0  0
  142.2971   77.4068  217.8099 H   0  0  0  0  0  0  0  0  0  0  0  0
  138.8684   77.4588  221.8167 H   0  0  0  0  0  0  0  0  0  0  0  0
  138.9861   78.7200  223.9563 H   0  0  0  0  0  0  0  0  0  0  0  0
  141.0917   79.9100  224.5562 H   0  0  0  0  0  0  0  0  0  0  0  0
  143.0637   79.8570  223.0482 H   0  0  0  0  0  0  0  0  0  0  0  0
  142.9377   78.5908  220.9080 H   0  0  0  0  0  0  0  0  0  0  0  0
  141.1910   75.5208  218.9921 H   0  0  0  0  0  0  0  0  0  0  0  0
  139.0720   75.9047  220.9678 H   0  0  0  0  0  0  0  0  0  0  0  0
  139.2725   74.5861  219.7302 H   0  0  0  0  0  0  0  0  0  0  0  0
  140.3669   74.6472  222.5820 H   0  0  0  0  0  0  0  0  0  0  0  0
  139.1378   73.5262  221.8830 H   0  0  0  0  0  0  0  0  0  0  0  0
  139.0399   71.2136  221.4598 H   0  0  0  0  0  0  0  0  0  0  0  0
  140.2678   70.0337  222.1758 H   0  0  0  0  0  0  0  0  0  0  0  0
  140.2866   72.2978  223.8064 H   0  0  0  0  0  0  0  0  0  0  0  0
  138.1350   72.9200  222.9900 H   0  0  0  0  0  0  0  0  0  0  0  0
  137.7300   71.9080  224.3450 H   0  0  0  0  0  0  0  0  0  0  0  0
  138.8995   68.9216  223.1644 H   0  0  0  0  0  0  0  0  0  0  0  0
  139.0655   67.0837  224.7728 H   0  0  0  0  0  0  0  0  0  0  0  0
  139.9901   67.5198  227.0552 H   0  0  0  0  0  0  0  0  0  0  0  0
  140.8695   68.9923  228.5926 H   0  0  0  0  0  0  0  0  0  0  0  0
  141.6178   71.2305  229.2975 H   0  0  0  0  0  0  0  0  0  0  0  0
  141.4672   73.1478  227.6776 H   0  0  0  0  0  0  0  0  0  0  0  0
  140.5757   72.7299  225.4337 H   0  0  0  0  0  0  0  0  0  0  0  0
  143.1877   73.4434  221.0725 H   0  0  0  0  0  0  0  0  0  0  0  0
  142.2969   73.5940  219.5494 H   0  0  0  0  0  0  0  0  0  0  0  0
  141.9374   75.5207  221.9328 H   0  0  0  0  0  0  0  0  0  0  0  0
  143.0569   75.8524  220.5967 H   0  0  0  0  0  0  0  0  0  0  0  0
  1  2  1  0
  2  3  1  0
  3  4  2  0
  3  5  1  0
  5  6  1  0
  6  7  2  0
  7  8  1  0
  8  9  2  0
  9 10  1  0
 10 11  2  0
  5 12  1  0
 12 13  1  0
 13 14  1  0
 14 15  1  0
 15 16  1  0
 16 17  2  0
 16 18  1  0
 18 19  1  0
 19 20  1  0
 19 21  1  0
 21 22  2  0
 22 23  1  0
 23 24  2  0
 24 25  1  0
 25 26  2  0
 26 27  1  0
 27 28  2  0
 28 29  1  0
 29 30  2  0
 15 31  1  0
 31 32  1  0
 11  6  1  0
 32 12  1  0
 30 21  1  0
 30 25  1  0
  1 33  1  0
  1 34  1  0
  1 35  1  0
  2 36  1  0
  2 37  1  0
  7 38  1  0
  8 39  1  0
  9 40  1  0
 10 41  1  0
 11 42  1  0
 12 43  1  0
 13 44  1  0
 13 45  1  0
 14 46  1  0
 14 47  1  0
 18 48  1  0
 18 49  1  0
 19 50  1  1
 20 51  1  0
 20 52  1  0
 22 53  1  0
 23 54  1  0
 24 55  1  0
 26 56  1  0
 27 57  1  0
 28 58  1  0
 29 59  1  0
 31 60  1  0
 31 61  1  0
 32 62  1  0
 32 63  1  0
M  END
>  <smiles>  (98) 
CCC(=O)N(c1ccccc1)C1CCN(C(=O)CC(N)c2cccc3ccccc23)CC1

>  <score_type>  (98) 
oracle

>  <origin>  (98) 
autodockgpu

>  <m_score__min__energy>  (98) 
-9.3599999999999994

>  <m_primary>  (98) 
energy

>  <rmsd>  (98) 
8.621576661865832

>  <m_score__min__rmsd>  (98) 
8.621576661865832

>  <meeko>  (98) 
{"free_energy": -8.41, "intermolecular_energy": -10.8, "internal_energy": -1.56, "cluster_size": 39, "cluster_id": 2, "rank_in_cluster": 30}

>  <energy>  (98) 
-7.55

>  <cluster_rmsd>  (98) 
0.0

>  <cluster>  (98) 
8

$$$$

     RDKit          3D

 63 66  0  0  0  0  0  0  0  0999 V2000
  142.9770   77.1730  218.6590 C   0  0  0  0  0  0  0  0  0  0  0  0
  142.2380   78.5030  218.7000 C   0  0  0  0  0  0  0  0  0  0  0  0
  140.8410   78.1860  219.0890 C   0  0  0  0  0  0  0  0  0  0  0  0
  139.9310   78.4110  218.2670 O   0  0  0  0  0  0  0  0  0  0  0  0
  140.5760   77.6310  220.3990 N   0  0  0  0  0  0  0  0  0  0  0  0
  140.8780   78.4040  221.5650 C   0  0  0  0  0  0  0  0  0  0  0  0
  139.8150   78.8070  222.3560 C   0  0  0  0  0  0  0  0  0  0  0  0
  140.0570   79.5500  223.4850 C   0  0  0  0  0  0  0  0  0  0  0  0
  141.3740   79.8820  223.8060 C   0  0  0  0  0  0  0  0  0  0  0  0
  142.4390   79.4780  223.0110 C   0  0  0  0  0  0  0  0  0  0  0  0
  142.1910   78.7320  221.8820 C   0  0  0  0  0  0  0  0  0  0  0  0
  140.0160   76.3020  220.5290 C   0  0  0  0  0  0  0  0  0  0  0  0
  140.4310   75.7270  221.8470 C   0  0  0  0  0  0  0  0  0  0  0  0
  141.0360   74.3160  221.7110 C   0  0  0  0  0  0  0  0  0  0  0  0
  140.1800   73.4730  220.9200 N   0  0  0  0  0  0  0  0  0  0  0  0
  139.8330   72.1260  221.2840 C   0  0  0  0  0  0  0  0  0  0  0  0
  139.0590   71.5240  220.5000 O   0  0  0  0  0  0  0  0  0  0  0  0
  140.3120   71.4410  222.4750 C   0  0  0  0  0  0  0  0  0  0  0  0
  139.4540   71.5720  223.7030 C   0  0  1  0  0  0  0  0  0  0  0  0
  138.0730   71.6080  223.2520 N   0  0  0  0  0  0  0  0  0  0  0  0
  139.6340   70.4590  224.6170 C   0  0  0  0  0  0  0  0  0  0  0  0
  139.2170   69.1760  224.3380 C   0  0  0  0  0  0  0  0  0  0  0  0
  139.3670   68.1110  225.1950 C   0  0  0  0  0  0  0  0  0  0  0  0
  139.9690   68.3140  226.4190 C   0  0  0  0  0  0  0  0  0  0  0  0
  140.3960   69.5810  226.7290 C   0  0  0  0  0  0  0  0  0  0  0  0
  140.9880   69.7700  227.9560 C   0  0  0  0  0  0  0  0  0  0  0  0
  141.4400   71.0010  228.3540 C   0  0  0  0  0  0  0  0  0  0  0  0
  141.2960   72.0880  227.4980 C   0  0  0  0  0  0  0  0  0  0  0  0
  140.7030   71.8740  226.2840 C   0  0  0  0  0  0  0  0  0  0  0  0
  140.2380   70.6470  225.8530 C   0  0  0  0  0  0  0  0  0  0  0  0
  139.6520   74.0630  219.6850 C   0  0  0  0  0  0  0  0  0  0  0  0
  140.4460   75.3440  219.4600 C   0  0  0  0  0  0  0  0  0  0  0  0
  143.1686   76.8282  219.6858 H   0  0  0  0  0  0  0  0  0  0  0  0
  142.3632   76.4286  218.1308 H   0  0  0  0  0  0  0  0  0  0  0  0
  143.9333   77.3010  218.1308 H   0  0  0  0  0  0  0  0  0  0  0  0
  142.6981   79.1727  219.4415 H   0  0  0  0  0  0  0  0  0  0  0  0
  142.2779   79.0150  217.7272 H   0  0  0  0  0  0  0  0  0  0  0  0
  138.7852   78.5341  222.0820 H   0  0  0  0  0  0  0  0  0  0  0  0
  139.2259   79.8784  224.1264 H   0  0  0  0  0  0  0  0  0  0  0  0
  141.5732   80.4773  224.7093 H   0  0  0  0  0  0  0  0  0  0  0  0
  143.4696   79.7516  223.2812 H   0  0  0  0  0  0  0  0  0  0  0  0
  143.0198   78.3999  221.2395 H   0  0  0  0  0  0  0  0  0  0  0  0
  138.9263   76.4231  220.4403 H   0  0  0  0  0  0  0  0  0  0  0  0
  141.1819   76.3906  222.3007 H   0  0  0  0  0  0  0  0  0  0  0  0
  139.5312   75.6458  222.4745 H   0  0  0  0  0  0  0  0  0  0  0  0
  142.0201   74.3898  221.2251 H   0  0  0  0  0  0  0  0  0  0  0  0
  141.1392   73.8759  222.7138 H   0  0  0  0  0  0  0  0  0  0  0  0
  140.3960   70.3705  222.2362 H   0  0  0  0  0  0  0  0  0  0  0  0
  141.2676   71.9230  222.7291 H   0  0  0  0  0  0  0  0  0  0  0  0
  139.7352   72.4840  224.2499 H   0  0  0  0  0  0  0  0  0  0  0  0
  137.9870   71.3450  222.2440 H   0  0  0  0  0  0  0  0  0  0  0  0
  137.5760   72.4590  223.5140 H   0  0  0  0  0  0  0  0  0  0  0  0
  138.7330   68.9916  223.3675 H   0  0  0  0  0  0  0  0  0  0  0  0
  139.0115   67.1104  224.9080 H   0  0  0  0  0  0  0  0  0  0  0  0
  140.1033   67.4833  227.1274 H   0  0  0  0  0  0  0  0  0  0  0  0
  141.1015   68.9118  228.6347 H   0  0  0  0  0  0  0  0  0  0  0  0
  141.9115   71.1281  229.3396 H   0  0  0  0  0  0  0  0  0  0  0  0
  141.6481   73.0888  227.7884 H   0  0  0  0  0  0  0  0  0  0  0  0
  140.5892   72.7341  225.6078 H   0  0  0  0  0  0  0  0  0  0  0  0
  139.7930   73.3724  218.8405 H   0  0  0  0  0  0  0  0  0  0  0  0
  138.5736   74.2654  219.7635 H   0  0  0  0  0  0  0  0  0  0  0  0
  141.5243   75.1424  219.5413 H   0  0  0  0  0  0  0  0  0  0  0  0
  140.2612   75.7566  218.4572 H   0  0  0  0  0  0  0  0  0  0  0  0
  1  2  1  0
  2  3  1  0
  3  4  2  0
  3  5  1  0
  5  6  1  0
  6  7  2  0
  7  8  1  0
  8  9  2  0
  9 10  1  0
 10 11  2  0
  5 12  1  0
 12 13  1  0
 13 14  1  0
 14 15  1  0
 15 16  1  0
 16 17  2  0
 16 18  1  0
 18 19  1  0
 19 20  1  0
 19 21  1  0
 21 22  2  0
 22 23  1  0
 23 24  2  0
 24 25  1  0
 25 26  2  0
 26 27  1  0
 27 28  2  0
 28 29  1  0
 29 30  2  0
 15 31  1  0
 31 32  1  0
 11  6  1  0
 32 12  1  0
 30 21  1  0
 30 25  1  0
  1 33  1  0
  1 34  1  0
  1 35  1  0
  2 36  1  0
  2 37  1  0
  7 38  1  0
  8 39  1  0
  9 40  1  0
 10 41  1  0
 11 42  1  0
 12 43  1  0
 13 44  1  0
 13 45  1  0
 14 46  1  0
 14 47  1  0
 18 48  1  0
 18 49  1  0
 19 50  1  1
 20 51  1  0
 20 52  1  0
 22 53  1  0
 23 54  1  0
 24 55  1  0
 26 56  1  0
 27 57  1  0
 28 58  1  0
 29 59  1  0
 31 60  1  0
 31 61  1  0
 32 62  1  0
 32 63  1  0
M  END
>  <smiles>  (99) 
CCC(=O)N(c1ccccc1)C1CCN(C(=O)CC(N)c2cccc3ccccc23)CC1

>  <score_type>  (99) 
oracle

>  <origin>  (99) 
autodockgpu

>  <m_score__min__energy>  (99) 
-9.3599999999999994

>  <m_primary>  (99) 
energy

>  <rmsd>  (99) 
8.684327552190174

>  <m_score__min__rmsd>  (99) 
8.684327552190174

>  <meeko>  (99) 
{"free_energy": -8.41, "intermolecular_energy": -10.79, "internal_energy": -1.98, "cluster_size": 39, "cluster_id": 2, "rank_in_cluster": 32}

>  <energy>  (99) 
-7.29

>  <cluster_rmsd>  (99) 
0.6

>  <cluster>  (99) 
8

$$$$

     RDKit          3D

 63 66  0  0  0  0  0  0  0  0999 V2000
  146.5030   73.8140  216.1930 C   0  0  0  0  0  0  0  0  0  0  0  0
  145.2270   73.2340  216.7850 C   0  0  0  0  0  0  0  0  0  0  0  0
  145.5550   72.8620  218.1840 C   0  0  0  0  0  0  0  0  0  0  0  0
  146.5240   73.4190  218.7360 O   0  0  0  0  0  0  0  0  0  0  0  0
  144.7470   71.8710  218.8640 N   0  0  0  0  0  0  0  0  0  0  0  0
  144.9140   70.4860  218.5420 C   0  0  0  0  0  0  0  0  0  0  0  0
  145.8810   69.7820  219.2390 C   0  0  0  0  0  0  0  0  0  0  0  0
  146.0760   68.4500  218.9650 C   0  0  0  0  0  0  0  0  0  0  0  0
  145.2900   67.8400  217.9860 C   0  0  0  0  0  0  0  0  0  0  0  0
  144.3210   68.5490  217.2870 C   0  0  0  0  0  0  0  0  0  0  0  0
  144.1290   69.8820  217.5670 C   0  0  0  0  0  0  0  0  0  0  0  0
  143.7740   72.2780  219.8570 C   0  0  0  0  0  0  0  0  0  0  0  0
  143.1520   71.0560  220.4560 C   0  0  0  0  0  0  0  0  0  0  0  0
  141.6120   71.1150  220.4530 C   0  0  0  0  0  0  0  0  0  0  0  0
  141.1530   72.3640  220.9980 N   0  0  0  0  0  0  0  0  0  0  0  0
  140.0890   72.4680  221.9600 C   0  0  0  0  0  0  0  0  0  0  0  0
  139.8160   73.6270  222.3570 O   0  0  0  0  0  0  0  0  0  0  0  0
  139.3340   71.3410  222.4850 C   0  0  0  0  0  0  0  0  0  0  0  0
  138.9550   71.4180  223.9380 C   0  0  1  0  0  0  0  0  0  0  0  0
  137.5170   71.6240  223.9890 N   0  0  0  0  0  0  0  0  0  0  0  0
  139.2940   70.2030  224.6560 C   0  0  0  0  0  0  0  0  0  0  0  0
  138.9710   68.9430  224.2050 C   0  0  0  0  0  0  0  0  0  0  0  0
  139.2730   67.7800  224.8770 C   0  0  0  0  0  0  0  0  0  0  0  0
  139.9390   67.8550  226.0810 C   0  0  0  0  0  0  0  0  0  0  0  0
  140.2750   69.0970  226.5610 C   0  0  0  0  0  0  0  0  0  0  0  0
  140.9330   69.1570  227.7670 C   0  0  0  0  0  0  0  0  0  0  0  0
  141.3030   70.3520  228.3250 C   0  0  0  0  0  0  0  0  0  0  0  0
  141.0060   71.5360  227.6580 C   0  0  0  0  0  0  0  0  0  0  0  0
  140.3500   71.4490  226.4600 C   0  0  0  0  0  0  0  0  0  0  0  0
  139.9640   70.2620  225.8710 C   0  0  0  0  0  0  0  0  0  0  0  0
  141.8400   73.5700  220.5230 C   0  0  0  0  0  0  0  0  0  0  0  0
  142.6670   73.1340  219.3210 C   0  0  0  0  0  0  0  0  0  0  0  0
  147.1779   74.1208  217.0057 H   0  0  0  0  0  0  0  0  0  0  0  0
  146.9985   73.0526  215.5726 H   0  0  0  0  0  0  0  0  0  0  0  0
  146.2552   74.6879  215.5726 H   0  0  0  0  0  0  0  0  0  0  0  0
  144.4227   73.9842  216.7679 H   0  0  0  0  0  0  0  0  0  0  0  0
  144.8757   72.3648  216.2096 H   0  0  0  0  0  0  0  0  0  0  0  0
  146.4883   70.2850  220.0059 H   0  0  0  0  0  0  0  0  0  0  0  0
  146.8392   67.8735  219.5083 H   0  0  0  0  0  0  0  0  0  0  0  0
  145.4412   66.7735  217.7628 H   0  0  0  0  0  0  0  0  0  0  0  0
  143.7137   68.0496  216.5177 H   0  0  0  0  0  0  0  0  0  0  0  0
  143.3655   70.4614  217.0272 H   0  0  0  0  0  0  0  0  0  0  0  0
  144.3266   72.8806  220.5929 H   0  0  0  0  0  0  0  0  0  0  0  0
  143.4724   70.1773  219.8770 H   0  0  0  0  0  0  0  0  0  0  0  0
  143.4817   70.9927  221.5035 H   0  0  0  0  0  0  0  0  0  0  0  0
  141.2483   71.0159  219.4196 H   0  0  0  0  0  0  0  0  0  0  0  0
  141.2241   70.2933  221.0730 H   0  0  0  0  0  0  0  0  0  0  0  0
  138.4065   71.2560  221.8998 H   0  0  0  0  0  0  0  0  0  0  0  0
  140.0029   70.4719  222.3998 H   0  0  0  0  0  0  0  0  0  0  0  0
  139.5086   72.2386  224.4178 H   0  0  0  0  0  0  0  0  0  0  0  0
  137.0070   70.9530  223.3710 H   0  0  0  0  0  0  0  0  0  0  0  0
  137.2360   72.5990  223.8840 H   0  0  0  0  0  0  0  0  0  0  0  0
  138.4376   68.8602  223.2466 H   0  0  0  0  0  0  0  0  0  0  0  0
  138.9865   66.8039  224.4584 H   0  0  0  0  0  0  0  0  0  0  0  0
  140.1947   66.9444  226.6426 H   0  0  0  0  0  0  0  0  0  0  0  0
  141.1681   68.2221  228.2968 H   0  0  0  0  0  0  0  0  0  0  0  0
  141.8295   70.3751  229.2905 H   0  0  0  0  0  0  0  0  0  0  0  0
  141.2894   72.5114  228.0801 H   0  0  0  0  0  0  0  0  0  0  0  0
  140.1153   72.3854  225.9326 H   0  0  0  0  0  0  0  0  0  0  0  0
  141.1079   74.3354  220.2262 H   0  0  0  0  0  0  0  0  0  0  0  0
  142.4712   74.0108  221.3087 H   0  0  0  0  0  0  0  0  0  0  0  0
  142.0452   72.5572  218.6205 H   0  0  0  0  0  0  0  0  0  0  0  0
  143.0634   74.0020  218.7738 H   0  0  0  0  0  0  0  0  0  0  0  0
  1  2  1  0
  2  3  1  0
  3  4  2  0
  3  5  1  0
  5  6  1  0
  6  7  2  0
  7  8  1  0
  8  9  2  0
  9 10  1  0
 10 11  2  0
  5 12  1  0
 12 13  1  0
 13 14  1  0
 14 15  1  0
 15 16  1  0
 16 17  2  0
 16 18  1  0
 18 19  1  0
 19 20  1  0
 19 21  1  0
 21 22  2  0
 22 23  1  0
 23 24  2  0
 24 25  1  0
 25 26  2  0
 26 27  1  0
 27 28  2  0
 28 29  1  0
 29 30  2  0
 15 31  1  0
 31 32  1  0
 11  6  1  0
 32 12  1  0
 30 21  1  0
 30 25  1  0
  1 33  1  0
  1 34  1  0
  1 35  1  0
  2 36  1  0
  2 37  1  0
  7 38  1  0
  8 39  1  0
  9 40  1  0
 10 41  1  0
 11 42  1  0
 12 43  1  0
 13 44  1  0
 13 45  1  0
 14 46  1  0
 14 47  1  0
 18 48  1  0
 18 49  1  0
 19 50  1  1
 20 51  1  0
 20 52  1  0
 22 53  1  0
 23 54  1  0
 24 55  1  0
 26 56  1  0
 27 57  1  0
 28 58  1  0
 29 59  1  0
 31 60  1  0
 31 61  1  0
 32 62  1  0
 32 63  1  0
M  END
>  <smiles>  (100) 
CCC(=O)N(c1ccccc1)C1CCN(C(=O)CC(N)c2cccc3ccccc23)CC1

>  <score_type>  (100) 
oracle

>  <origin>  (100) 
autodockgpu

>  <m_score__min__energy>  (100) 
-9.3599999999999994

>  <m_primary>  (100) 
energy

>  <rmsd>  (100) 
9.3059648735863

>  <m_score__min__rmsd>  (100) 
9.3059648735863

>  <meeko>  (100) 
{"free_energy": -8.46, "intermolecular_energy": -10.85, "internal_energy": -1.46, "cluster_size": 1, "cluster_id": 4, "rank_in_cluster": 1}

>  <energy>  (100) 
-7.06

>  <cluster_rmsd>  (100) 
0.0

>  <cluster>  (100) 
9

$$$$
