
     RDKit          3D

 53 56  0  0  0  0  0  0  0  0999 V2000
  139.8260   72.0790  220.5320 O   0  0  0  0  0  0  0  0  0  0  0  0
  139.7270   72.5300  221.6950 C   0  0  0  0  0  0  0  0  0  0  0  0
  139.5520   73.9000  221.9820 N   0  0  0  0  0  0  0  0  0  0  0  0
  139.4730   74.9230  220.9300 C   0  0  0  0  0  0  0  0  0  0  0  0
  139.9530   76.1760  221.5500 C   0  0  0  0  0  0  0  0  0  0  0  0
  140.0010   76.2590  222.8180 O   0  0  0  0  0  0  0  0  0  0  0  0
  140.3760   77.3190  220.8310 N   0  0  0  0  0  0  0  0  0  0  0  0
  139.5590   77.9840  219.8340 C   0  0  0  0  0  0  0  0  0  0  0  0
  140.4900   78.5720  218.8050 C   0  0  2  0  0  0  0  0  0  0  0  0
  140.3730   77.8760  217.5880 O   0  0  0  0  0  0  0  0  0  0  0  0
  141.8410   78.3990  219.4120 C   0  0  0  0  0  0  0  0  0  0  0  0
  141.6100   78.0700  220.8740 C   0  0  1  0  0  0  0  0  0  0  0  0
  141.4720   79.3040  221.7140 C   0  0  0  0  0  0  0  0  0  0  0  0
  142.1880   79.2140  223.0050 C   0  0  0  0  0  0  0  0  0  0  0  0
  142.2000   80.4500  223.8320 C   0  0  0  0  0  0  0  0  0  0  0  0
  142.0660   81.6300  223.1760 O   0  0  0  0  0  0  0  0  0  0  0  0
  141.3640   81.6580  222.0170 C   0  0  0  0  0  0  0  0  0  0  0  0
  141.8520   80.5800  221.0380 C   0  0  0  0  0  0  0  0  0  0  0  0
  139.7930   71.5880  222.8210 C   0  0  0  0  0  0  0  0  0  0  0  0
  139.3200   70.2950  222.7250 C   0  0  0  0  0  0  0  0  0  0  0  0
  139.3960   69.4200  223.8130 C   0  0  0  0  0  0  0  0  0  0  0  0
  139.9500   69.8350  225.0090 C   0  0  0  0  0  0  0  0  0  0  0  0
  140.0490   69.0120  226.1170 C   0  0  0  0  0  0  0  0  0  0  0  0
  140.6080   69.4660  227.2930 C   0  0  0  0  0  0  0  0  0  0  0  0
  140.7490   68.4500  228.7140 Cl  0  0  0  0  0  0  0  0  0  0  0  0
  141.0710   70.7670  227.3490 C   0  0  0  0  0  0  0  0  0  0  0  0
  140.9750   71.5930  226.2530 C   0  0  0  0  0  0  0  0  0  0  0  0
  140.4090   71.1360  225.0590 C   0  0  0  0  0  0  0  0  0  0  0  0
  140.3240   71.9430  224.0110 N   0  0  0  0  0  0  0  0  0  0  0  0
  139.4770   74.1980  222.9980 H   0  0  0  0  0  0  0  0  0  0  0  0
  140.1128   74.6473  220.0787 H   0  0  0  0  0  0  0  0  0  0  0  0
  138.4483   75.0288  220.5442 H   0  0  0  0  0  0  0  0  0  0  0  0
  138.8827   77.2587  219.3579 H   0  0  0  0  0  0  0  0  0  0  0  0
  138.9463   78.7714  220.2973 H   0  0  0  0  0  0  0  0  0  0  0  0
  140.2744   79.6244  218.5686 H   0  0  0  0  0  0  0  0  0  0  0  0
  139.4100   77.6740  217.4790 H   0  0  0  0  0  0  0  0  0  0  0  0
  142.3790   77.5772  218.9168 H   0  0  0  0  0  0  0  0  0  0  0  0
  142.4508   79.3073  219.2975 H   0  0  0  0  0  0  0  0  0  0  0  0
  142.4466   77.5213  221.3312 H   0  0  0  0  0  0  0  0  0  0  0  0
  140.3880   79.3424  221.8969 H   0  0  0  0  0  0  0  0  0  0  0  0
  141.7145   78.4173  223.5975 H   0  0  0  0  0  0  0  0  0  0  0  0
  143.2396   79.0195  222.7477 H   0  0  0  0  0  0  0  0  0  0  0  0
  141.3727   80.3751  224.5531 H   0  0  0  0  0  0  0  0  0  0  0  0
  143.2037   80.4844  224.2808 H   0  0  0  0  0  0  0  0  0  0  0  0
  140.3006   81.4846  222.2388 H   0  0  0  0  0  0  0  0  0  0  0  0
  141.5105   82.6422  221.5481 H   0  0  0  0  0  0  0  0  0  0  0  0
  141.3489   80.6751  220.0644 H   0  0  0  0  0  0  0  0  0  0  0  0
  142.9287   80.6492  220.8235 H   0  0  0  0  0  0  0  0  0  0  0  0
  138.8772   69.9481  221.7797 H   0  0  0  0  0  0  0  0  0  0  0  0
  139.0120   68.3938  223.7162 H   0  0  0  0  0  0  0  0  0  0  0  0
  139.6757   67.9789  226.0588 H   0  0  0  0  0  0  0  0  0  0  0  0
  141.5206   71.1457  228.2788 H   0  0  0  0  0  0  0  0  0  0  0  0
  141.3482   72.6258  226.3169 H   0  0  0  0  0  0  0  0  0  0  0  0
  1  2  2  0
  2  3  1  0
  3  4  1  0
  4  5  1  0
  5  6  2  0
  5  7  1  0
  7  8  1  0
  8  9  1  0
  9 10  1  0
  9 11  1  0
 11 12  1  0
 12 13  1  0
 13 14  1  0
 14 15  1  0
 15 16  1  0
 16 17  1  0
 17 18  1  0
  2 19  1  0
 19 20  2  0
 20 21  1  0
 21 22  2  0
 22 23  1  0
 23 24  2  0
 24 25  1  0
 24 26  1  0
 26 27  2  0
 27 28  1  0
 28 29  2  0
 12  7  1  0
 18 13  1  0
 29 19  1  0
 28 22  1  0
  3 30  1  0
  4 31  1  0
  4 32  1  0
  8 33  1  0
  8 34  1  0
  9 35  1  6
 10 36  1  0
 11 37  1  0
 11 38  1  0
 12 39  1  1
 13 40  1  0
 14 41  1  0
 14 42  1  0
 15 43  1  0
 15 44  1  0
 17 45  1  0
 17 46  1  0
 18 47  1  0
 18 48  1  0
 20 49  1  0
 21 50  1  0
 23 51  1  0
 26 52  1  0
 27 53  1  0
M  END
>  <smiles>  (1) 
O=C(NCC(=O)N1C[C@H](O)C[C@H]1C1CCOCC1)c1ccc2cc(Cl)ccc2n1

>  <score_type>  (1) 
oracle

>  <origin>  (1) 
autodockgpu

>  <m_score__min__energy>  (1) 
-8.0399999999999991

>  <m_primary>  (1) 
energy

>  <rmsd>  (1) 
3.2820552110654093

>  <m_score__min__rmsd>  (1) 
3.2820552110654093

>  <meeko>  (1) 
{"free_energy": -7.95, "intermolecular_energy": -9.74, "internal_energy": -1.9, "cluster_size": 33, "cluster_id": 1, "rank_in_cluster": 4}

>  <energy>  (1) 
-8.04

>  <cluster_rmsd>  (1) 
0.0

>  <cluster>  (1) 
1

$$$$

     RDKit          3D

 53 56  0  0  0  0  0  0  0  0999 V2000
  137.1030   74.6530  220.3400 O   0  0  0  0  0  0  0  0  0  0  0  0
  137.7730   74.4650  221.3790 C   0  0  0  0  0  0  0  0  0  0  0  0
  137.6110   73.3390  222.2130 N   0  0  0  0  0  0  0  0  0  0  0  0
  136.6310   72.2810  221.9290 C   0  0  0  0  0  0  0  0  0  0  0  0
  135.3170   72.8350  222.3200 C   0  0  0  0  0  0  0  0  0  0  0  0
  134.2720   72.1350  222.1330 O   0  0  0  0  0  0  0  0  0  0  0  0
  135.1210   74.1100  222.8990 N   0  0  0  0  0  0  0  0  0  0  0  0
  134.4360   75.1980  222.2260 C   0  0  0  0  0  0  0  0  0  0  0  0
  135.0480   76.4870  222.7100 C   0  0  2  0  0  0  0  0  0  0  0  0
  135.7890   77.0930  221.6790 O   0  0  0  0  0  0  0  0  0  0  0  0
  135.9240   76.0590  223.8400 C   0  0  0  0  0  0  0  0  0  0  0  0
  135.5080   74.6430  224.1850 C   0  0  1  0  0  0  0  0  0  0  0  0
  134.3660   74.6130  225.1570 C   0  0  0  0  0  0  0  0  0  0  0  0
  134.1190   73.2700  225.7250 C   0  0  0  0  0  0  0  0  0  0  0  0
  133.0850   73.1930  226.7910 C   0  0  0  0  0  0  0  0  0  0  0  0
  132.8590   74.3210  227.5120 O   0  0  0  0  0  0  0  0  0  0  0  0
  133.0650   75.5240  226.9230 C   0  0  0  0  0  0  0  0  0  0  0  0
  134.4540   75.6020  226.2730 C   0  0  0  0  0  0  0  0  0  0  0  0
  138.7840   75.4650  221.7530 C   0  0  0  0  0  0  0  0  0  0  0  0
  140.1360   75.2290  221.6140 C   0  0  0  0  0  0  0  0  0  0  0  0
  141.0750   76.1990  221.9790 C   0  0  0  0  0  0  0  0  0  0  0  0
  140.6640   77.4170  222.4850 C   0  0  0  0  0  0  0  0  0  0  0  0
  141.5490   78.4110  222.8620 C   0  0  0  0  0  0  0  0  0  0  0  0
  141.0980   79.6140  223.3630 C   0  0  0  0  0  0  0  0  0  0  0  0
  142.1920   80.8940  223.8500 Cl  0  0  0  0  0  0  0  0  0  0  0  0
  139.7360   79.8120  223.4860 C   0  0  0  0  0  0  0  0  0  0  0  0
  138.8480   78.8290  223.1150 C   0  0  0  0  0  0  0  0  0  0  0  0
  139.3020   77.6080  222.6060 C   0  0  0  0  0  0  0  0  0  0  0  0
  138.4350   76.6710  222.2520 N   0  0  0  0  0  0  0  0  0  0  0  0
  138.2220   73.2570  223.0770 H   0  0  0  0  0  0  0  0  0  0  0  0
  136.6377   72.0298  220.8581 H   0  0  0  0  0  0  0  0  0  0  0  0
  136.8613   71.3569  222.4794 H   0  0  0  0  0  0  0  0  0  0  0  0
  134.5648   75.1066  221.1374 H   0  0  0  0  0  0  0  0  0  0  0  0
  133.3588   75.1735  222.4475 H   0  0  0  0  0  0  0  0  0  0  0  0
  134.3043   77.2350  223.0221 H   0  0  0  0  0  0  0  0  0  0  0  0
  136.4610   76.4240  221.3950 H   0  0  0  0  0  0  0  0  0  0  0  0
  136.9802   76.0821  223.5335 H   0  0  0  0  0  0  0  0  0  0  0  0
  135.8182   76.7298  224.7053 H   0  0  0  0  0  0  0  0  0  0  0  0
  136.3041   74.0678  224.6804 H   0  0  0  0  0  0  0  0  0  0  0  0
  133.5139   74.9078  224.5268 H   0  0  0  0  0  0  0  0  0  0  0  0
  133.8050   72.6096  224.9033 H   0  0  0  0  0  0  0  0  0  0  0  0
  135.0629   72.9731  226.2055 H   0  0  0  0  0  0  0  0  0  0  0  0
  132.1359   72.9087  226.3130 H   0  0  0  0  0  0  0  0  0  0  0  0
  133.4753   72.4635  227.5159 H   0  0  0  0  0  0  0  0  0  0  0  0
  132.2989   75.6788  226.1489 H   0  0  0  0  0  0  0  0  0  0  0  0
  133.0022   76.3026  227.6975 H   0  0  0  0  0  0  0  0  0  0  0  0
  134.6532   76.6133  225.8888 H   0  0  0  0  0  0  0  0  0  0  0  0
  135.2717   75.3862  226.9765 H   0  0  0  0  0  0  0  0  0  0  0  0
  140.4801   74.2651  221.2107 H   0  0  0  0  0  0  0  0  0  0  0  0
  142.1488   75.9906  221.8623 H   0  0  0  0  0  0  0  0  0  0  0  0
  142.6307   78.2390  222.7604 H   0  0  0  0  0  0  0  0  0  0  0  0
  139.3581   80.7651  223.8845 H   0  0  0  0  0  0  0  0  0  0  0  0
  137.7674   79.0055  223.2200 H   0  0  0  0  0  0  0  0  0  0  0  0
  1  2  2  0
  2  3  1  0
  3  4  1  0
  4  5  1  0
  5  6  2  0
  5  7  1  0
  7  8  1  0
  8  9  1  0
  9 10  1  0
  9 11  1  0
 11 12  1  0
 12 13  1  0
 13 14  1  0
 14 15  1  0
 15 16  1  0
 16 17  1  0
 17 18  1  0
  2 19  1  0
 19 20  2  0
 20 21  1  0
 21 22  2  0
 22 23  1  0
 23 24  2  0
 24 25  1  0
 24 26  1  0
 26 27  2  0
 27 28  1  0
 28 29  2  0
 12  7  1  0
 18 13  1  0
 29 19  1  0
 28 22  1  0
  3 30  1  0
  4 31  1  0
  4 32  1  0
  8 33  1  0
  8 34  1  0
  9 35  1  1
 10 36  1  0
 11 37  1  0
 11 38  1  0
 12 39  1  1
 13 40  1  0
 14 41  1  0
 14 42  1  0
 15 43  1  0
 15 44  1  0
 17 45  1  0
 17 46  1  0
 18 47  1  0
 18 48  1  0
 20 49  1  0
 21 50  1  0
 23 51  1  0
 26 52  1  0
 27 53  1  0
M  END
>  <smiles>  (2) 
O=C(NCC(=O)N1C[C@H](O)C[C@H]1C1CCOCC1)c1ccc2cc(Cl)ccc2n1

>  <score_type>  (2) 
oracle

>  <origin>  (2) 
autodockgpu

>  <m_score__min__energy>  (2) 
-8.0399999999999991

>  <m_primary>  (2) 
energy

>  <rmsd>  (2) 
8.015623731527366

>  <m_score__min__rmsd>  (2) 
8.015623731527366

>  <meeko>  (2) 
{"free_energy": -6.25, "intermolecular_energy": -8.03, "internal_energy": -3.24, "cluster_size": 9, "cluster_id": 4, "rank_in_cluster": 8}

>  <energy>  (2) 
-8.03

>  <cluster_rmsd>  (2) 
1.76

>  <cluster>  (2) 
1

$$$$

     RDKit          3D

 53 56  0  0  0  0  0  0  0  0999 V2000
  139.7180   72.0250  220.5380 O   0  0  0  0  0  0  0  0  0  0  0  0
  139.6020   72.4840  221.6960 C   0  0  0  0  0  0  0  0  0  0  0  0
  139.3910   73.8520  221.9690 N   0  0  0  0  0  0  0  0  0  0  0  0
  139.2900   74.8620  220.9070 C   0  0  0  0  0  0  0  0  0  0  0  0
  139.6540   76.1480  221.5390 C   0  0  0  0  0  0  0  0  0  0  0  0
  139.3930   76.3270  222.7710 O   0  0  0  0  0  0  0  0  0  0  0  0
  140.2850   77.2240  220.8710 N   0  0  0  0  0  0  0  0  0  0  0  0
  139.6910   77.9280  219.7510 C   0  0  0  0  0  0  0  0  0  0  0  0
  140.8150   78.3950  218.8620 C   0  0  2  0  0  0  0  0  0  0  0  0
  140.8130   77.6740  217.6540 O   0  0  0  0  0  0  0  0  0  0  0  0
  142.0400   78.1190  219.6680 C   0  0  0  0  0  0  0  0  0  0  0  0
  141.5650   77.8590  221.0840 C   0  0  1  0  0  0  0  0  0  0  0  0
  141.4230   79.1280  221.8710 C   0  0  0  0  0  0  0  0  0  0  0  0
  140.1820   79.1790  222.6760 C   0  0  0  0  0  0  0  0  0  0  0  0
  140.0400   80.3520  223.5790 C   0  0  0  0  0  0  0  0  0  0  0  0
  141.1840   80.9470  224.0020 O   0  0  0  0  0  0  0  0  0  0  0  0
  142.2770   80.9010  223.2020 C   0  0  0  0  0  0  0  0  0  0  0  0
  142.5830   79.4660  222.7490 C   0  0  0  0  0  0  0  0  0  0  0  0
  139.6870   71.5550  222.8320 C   0  0  0  0  0  0  0  0  0  0  0  0
  139.2050   70.2630  222.7600 C   0  0  0  0  0  0  0  0  0  0  0  0
  139.3000   69.4010  223.8560 C   0  0  0  0  0  0  0  0  0  0  0  0
  139.8790   69.8270  225.0360 C   0  0  0  0  0  0  0  0  0  0  0  0
  139.9970   69.0160  226.1510 C   0  0  0  0  0  0  0  0  0  0  0  0
  140.5830   69.4800  227.3100 C   0  0  0  0  0  0  0  0  0  0  0  0
  140.7480   68.4800  228.7390 Cl  0  0  0  0  0  0  0  0  0  0  0  0
  141.0530   70.7790  227.3420 C   0  0  0  0  0  0  0  0  0  0  0  0
  140.9390   71.5930  226.2380 C   0  0  0  0  0  0  0  0  0  0  0  0
  140.3460   71.1250  225.0610 C   0  0  0  0  0  0  0  0  0  0  0  0
  140.2440   71.9200  224.0060 N   0  0  0  0  0  0  0  0  0  0  0  0
  139.3030   74.1580  222.9820 H   0  0  0  0  0  0  0  0  0  0  0  0
  139.9854   74.6273  220.0877 H   0  0  0  0  0  0  0  0  0  0  0  0
  138.2792   74.8951  220.4742 H   0  0  0  0  0  0  0  0  0  0  0  0
  139.0263   77.2524  219.1926 H   0  0  0  0  0  0  0  0  0  0  0  0
  139.0946   78.7827  220.1029 H   0  0  0  0  0  0  0  0  0  0  0  0
  140.7374   79.4545  218.5766 H   0  0  0  0  0  0  0  0  0  0  0  0
  139.8760   77.3910  217.5050 H   0  0  0  0  0  0  0  0  0  0  0  0
  142.5650   77.2364  219.2738 H   0  0  0  0  0  0  0  0  0  0  0  0
  142.7435   78.9637  219.6300 H   0  0  0  0  0  0  0  0  0  0  0  0
  142.2683   77.2499  221.6708 H   0  0  0  0  0  0  0  0  0  0  0  0
  141.3801   79.8909  221.0797 H   0  0  0  0  0  0  0  0  0  0  0  0
  139.3296   79.1840  221.9808 H   0  0  0  0  0  0  0  0  0  0  0  0
  140.2191   78.2992  223.3353 H   0  0  0  0  0  0  0  0  0  0  0  0
  139.4488   81.1112  223.0460 H   0  0  0  0  0  0  0  0  0  0  0  0
  139.5710   79.9546  224.4912 H   0  0  0  0  0  0  0  0  0  0  0  0
  142.0968   81.5252  222.3144 H   0  0  0  0  0  0  0  0  0  0  0  0
  143.1394   81.2735  223.7742 H   0  0  0  0  0  0  0  0  0  0  0  0
  143.5279   79.4231  222.1874 H   0  0  0  0  0  0  0  0  0  0  0  0
  142.7053   78.7663  223.5889 H   0  0  0  0  0  0  0  0  0  0  0  0
  138.7404   69.9078  221.8283 H   0  0  0  0  0  0  0  0  0  0  0  0
  138.9107   68.3751  223.7786 H   0  0  0  0  0  0  0  0  0  0  0  0
  139.6172   67.9844  226.1123 H   0  0  0  0  0  0  0  0  0  0  0  0
  141.5226   71.1661  228.2583 H   0  0  0  0  0  0  0  0  0  0  0  0
  141.3190   72.6244  226.2820 H   0  0  0  0  0  0  0  0  0  0  0  0
  1  2  2  0
  2  3  1  0
  3  4  1  0
  4  5  1  0
  5  6  2  0
  5  7  1  0
  7  8  1  0
  8  9  1  0
  9 10  1  0
  9 11  1  0
 11 12  1  0
 12 13  1  0
 13 14  1  0
 14 15  1  0
 15 16  1  0
 16 17  1  0
 17 18  1  0
  2 19  1  0
 19 20  2  0
 20 21  1  0
 21 22  2  0
 22 23  1  0
 23 24  2  0
 24 25  1  0
 24 26  1  0
 26 27  2  0
 27 28  1  0
 28 29  2  0
 12  7  1  0
 18 13  1  0
 29 19  1  0
 28 22  1  0
  3 30  1  0
  4 31  1  0
  4 32  1  0
  8 33  1  0
  8 34  1  0
  9 35  1  6
 10 36  1  0
 11 37  1  0
 11 38  1  0
 12 39  1  1
 13 40  1  0
 14 41  1  0
 14 42  1  0
 15 43  1  0
 15 44  1  0
 17 45  1  0
 17 46  1  0
 18 47  1  0
 18 48  1  0
 20 49  1  0
 21 50  1  0
 23 51  1  0
 26 52  1  0
 27 53  1  0
M  END
>  <smiles>  (3) 
O=C(NCC(=O)N1C[C@H](O)C[C@H]1C1CCOCC1)c1ccc2cc(Cl)ccc2n1

>  <score_type>  (3) 
oracle

>  <origin>  (3) 
autodockgpu

>  <m_score__min__energy>  (3) 
-8.0399999999999991

>  <m_primary>  (3) 
energy

>  <rmsd>  (3) 
3.1462196994957603

>  <m_score__min__rmsd>  (3) 
3.1462196994957603

>  <meeko>  (3) 
{"free_energy": -7.86, "intermolecular_energy": -9.65, "internal_energy": -1.85, "cluster_size": 33, "cluster_id": 1, "rank_in_cluster": 16}

>  <energy>  (3) 
-8.02

>  <cluster_rmsd>  (3) 
1.77

>  <cluster>  (3) 
1

$$$$

     RDKit          3D

 53 56  0  0  0  0  0  0  0  0999 V2000
  138.5260   72.0870  220.8830 O   0  0  0  0  0  0  0  0  0  0  0  0
  139.0590   72.4850  221.9420 C   0  0  0  0  0  0  0  0  0  0  0  0
  139.4870   73.8140  222.1410 N   0  0  0  0  0  0  0  0  0  0  0  0
  139.3430   74.8530  221.1110 C   0  0  0  0  0  0  0  0  0  0  0  0
  140.5020   74.6880  220.2080 C   0  0  0  0  0  0  0  0  0  0  0  0
  140.8800   75.6750  219.5020 O   0  0  0  0  0  0  0  0  0  0  0  0
  141.2430   73.4920  220.0610 N   0  0  0  0  0  0  0  0  0  0  0  0
  140.9390   72.4800  219.0680 C   0  0  0  0  0  0  0  0  0  0  0  0
  141.3370   71.1450  219.6450 C   0  0  2  0  0  0  0  0  0  0  0  0
  140.1940   70.3760  219.9280 O   0  0  0  0  0  0  0  0  0  0  0  0
  142.0810   71.5060  220.8870 C   0  0  0  0  0  0  0  0  0  0  0  0
  142.3900   72.9870  220.7800 C   0  0  1  0  0  0  0  0  0  0  0  0
  143.6640   73.2430  220.0320 C   0  0  0  0  0  0  0  0  0  0  0  0
  144.8030   73.5760  220.9150 C   0  0  0  0  0  0  0  0  0  0  0  0
  146.1250   73.7160  220.2490 C   0  0  0  0  0  0  0  0  0  0  0  0
  146.3030   73.0400  219.0860 O   0  0  0  0  0  0  0  0  0  0  0  0
  145.2270   72.8000  218.2990 C   0  0  0  0  0  0  0  0  0  0  0  0
  144.0800   72.1590  219.0930 C   0  0  0  0  0  0  0  0  0  0  0  0
  139.2490   71.5240  223.0380 C   0  0  0  0  0  0  0  0  0  0  0  0
  138.7540   70.2370  222.9780 C   0  0  0  0  0  0  0  0  0  0  0  0
  138.9500   69.3430  224.0350 C   0  0  0  0  0  0  0  0  0  0  0  0
  139.6470   69.7330  225.1630 C   0  0  0  0  0  0  0  0  0  0  0  0
  139.8690   68.8910  226.2370 C   0  0  0  0  0  0  0  0  0  0  0  0
  140.5700   69.3190  227.3460 C   0  0  0  0  0  0  0  0  0  0  0  0
  140.8680   68.2780  228.7230 Cl  0  0  0  0  0  0  0  0  0  0  0  0
  141.0490   70.6150  227.3670 C   0  0  0  0  0  0  0  0  0  0  0  0
  140.8330   71.4600  226.3030 C   0  0  0  0  0  0  0  0  0  0  0  0
  140.1230   71.0290  225.1780 C   0  0  0  0  0  0  0  0  0  0  0  0
  139.9220   71.8540  224.1610 N   0  0  0  0  0  0  0  0  0  0  0  0
  139.9300   74.0690  223.0710 H   0  0  0  0  0  0  0  0  0  0  0  0
  138.4029   74.7153  220.5567 H   0  0  0  0  0  0  0  0  0  0  0  0
  139.3140   75.8600  221.5528 H   0  0  0  0  0  0  0  0  0  0  0  0
  139.8623   72.4860  218.8431 H   0  0  0  0  0  0  0  0  0  0  0  0
  141.4858   72.6770  218.1341 H   0  0  0  0  0  0  0  0  0  0  0  0
  141.9447   70.5347  218.9607 H   0  0  0  0  0  0  0  0  0  0  0  0
  139.4450   71.0180  220.0110 H   0  0  0  0  0  0  0  0  0  0  0  0
  141.4608   71.3090  221.7739 H   0  0  0  0  0  0  0  0  0  0  0  0
  143.0005   70.9112  220.9905 H   0  0  0  0  0  0  0  0  0  0  0  0
  142.5460   73.4683  221.7568 H   0  0  0  0  0  0  0  0  0  0  0  0
  143.4041   74.1205  219.4217 H   0  0  0  0  0  0  0  0  0  0  0  0
  144.5747   74.5296  221.4136 H   0  0  0  0  0  0  0  0  0  0  0  0
  144.9056   72.7224  221.6012 H   0  0  0  0  0  0  0  0  0  0  0  0
  146.2792   74.7846  220.0387 H   0  0  0  0  0  0  0  0  0  0  0  0
  146.8470   73.2728  220.9507 H   0  0  0  0  0  0  0  0  0  0  0  0
  144.8776   73.7514  217.8716 H   0  0  0  0  0  0  0  0  0  0  0  0
  145.5295   72.1012  217.5051 H   0  0  0  0  0  0  0  0  0  0  0  0
  143.2513   71.8743  218.4279 H   0  0  0  0  0  0  0  0  0  0  0  0
  144.3778   71.2340  219.6084 H   0  0  0  0  0  0  0  0  0  0  0  0
  138.1980   69.9103  222.0869 H   0  0  0  0  0  0  0  0  0  0  0  0
  138.5465   68.3218  223.9684 H   0  0  0  0  0  0  0  0  0  0  0  0
  139.4802   67.8624  226.2070 H   0  0  0  0  0  0  0  0  0  0  0  0
  141.6085   70.9746  228.2431 H   0  0  0  0  0  0  0  0  0  0  0  0
  141.2237   72.4877  226.3377 H   0  0  0  0  0  0  0  0  0  0  0  0
  1  2  2  0
  2  3  1  0
  3  4  1  0
  4  5  1  0
  5  6  2  0
  5  7  1  0
  7  8  1  0
  8  9  1  0
  9 10  1  0
  9 11  1  0
 11 12  1  0
 12 13  1  0
 13 14  1  0
 14 15  1  0
 15 16  1  0
 16 17  1  0
 17 18  1  0
  2 19  1  0
 19 20  2  0
 20 21  1  0
 21 22  2  0
 22 23  1  0
 23 24  2  0
 24 25  1  0
 24 26  1  0
 26 27  2  0
 27 28  1  0
 28 29  2  0
 12  7  1  0
 18 13  1  0
 29 19  1  0
 28 22  1  0
  3 30  1  0
  4 31  1  0
  4 32  1  0
  8 33  1  0
  8 34  1  0
  9 35  1  6
 10 36  1  0
 11 37  1  0
 11 38  1  0
 12 39  1  1
 13 40  1  0
 14 41  1  0
 14 42  1  0
 15 43  1  0
 15 44  1  0
 17 45  1  0
 17 46  1  0
 18 47  1  0
 18 48  1  0
 20 49  1  0
 21 50  1  0
 23 51  1  0
 26 52  1  0
 27 53  1  0
M  END
>  <smiles>  (4) 
O=C(NCC(=O)N1C[C@H](O)C[C@H]1C1CCOCC1)c1ccc2cc(Cl)ccc2n1

>  <score_type>  (4) 
oracle

>  <origin>  (4) 
autodockgpu

>  <m_score__min__energy>  (4) 
-8.0399999999999991

>  <m_primary>  (4) 
energy

>  <rmsd>  (4) 
3.043006369454439

>  <m_score__min__rmsd>  (4) 
3.043006369454439

>  <meeko>  (4) 
{"free_energy": -7.08, "intermolecular_energy": -8.87, "internal_energy": -2.65, "cluster_size": 7, "cluster_id": 3, "rank_in_cluster": 3}

>  <energy>  (4) 
-7.95

>  <cluster_rmsd>  (4) 
1.85

>  <cluster>  (4) 
1

$$$$

     RDKit          3D

 53 56  0  0  0  0  0  0  0  0999 V2000
  137.1230   74.7300  220.3480 O   0  0  0  0  0  0  0  0  0  0  0  0
  137.8080   74.5450  221.3790 C   0  0  0  0  0  0  0  0  0  0  0  0
  137.6700   73.4130  222.2080 N   0  0  0  0  0  0  0  0  0  0  0  0
  136.7000   72.3440  221.9290 C   0  0  0  0  0  0  0  0  0  0  0  0
  135.4660   72.7230  222.6500 C   0  0  0  0  0  0  0  0  0  0  0  0
  134.6030   71.8260  222.9120 O   0  0  0  0  0  0  0  0  0  0  0  0
  135.1570   74.0340  223.0840 N   0  0  0  0  0  0  0  0  0  0  0  0
  134.4020   74.9820  222.2880 C   0  0  0  0  0  0  0  0  0  0  0  0
  134.9000   76.3620  222.6360 C   0  0  2  0  0  0  0  0  0  0  0  0
  135.6110   76.9110  221.5530 O   0  0  0  0  0  0  0  0  0  0  0  0
  135.7830   76.1320  223.8160 C   0  0  0  0  0  0  0  0  0  0  0  0
  135.4730   74.7320  224.3090 C   0  0  1  0  0  0  0  0  0  0  0  0
  134.3170   74.7140  225.2640 C   0  0  0  0  0  0  0  0  0  0  0  0
  133.9990   73.3610  225.7700 C   0  0  0  0  0  0  0  0  0  0  0  0
  132.9470   73.2880  226.8190 C   0  0  0  0  0  0  0  0  0  0  0  0
  132.7640   74.3940  227.5850 O   0  0  0  0  0  0  0  0  0  0  0  0
  133.0340   75.6090  227.0520 C   0  0  0  0  0  0  0  0  0  0  0  0
  134.4340   75.6490  226.4230 C   0  0  0  0  0  0  0  0  0  0  0  0
  138.8100   75.5570  221.7470 C   0  0  0  0  0  0  0  0  0  0  0  0
  140.1640   75.3340  221.6020 C   0  0  0  0  0  0  0  0  0  0  0  0
  141.0940   76.3140  221.9610 C   0  0  0  0  0  0  0  0  0  0  0  0
  140.6730   77.5290  222.4680 C   0  0  0  0  0  0  0  0  0  0  0  0
  141.5500   78.5320  222.8390 C   0  0  0  0  0  0  0  0  0  0  0  0
  141.0890   79.7310  223.3410 C   0  0  0  0  0  0  0  0  0  0  0  0
  142.1720   81.0220  223.8210 Cl  0  0  0  0  0  0  0  0  0  0  0  0
  139.7250   79.9150  223.4700 C   0  0  0  0  0  0  0  0  0  0  0  0
  138.8460   78.9220  223.1040 C   0  0  0  0  0  0  0  0  0  0  0  0
  139.3110   77.7060  222.5940 C   0  0  0  0  0  0  0  0  0  0  0  0
  138.4520   76.7590  222.2460 N   0  0  0  0  0  0  0  0  0  0  0  0
  138.2910   73.3340  223.0650 H   0  0  0  0  0  0  0  0  0  0  0  0
  136.5065   72.2745  220.8484 H   0  0  0  0  0  0  0  0  0  0  0  0
  137.0742   71.3621  222.2544 H   0  0  0  0  0  0  0  0  0  0  0  0
  134.5604   74.7842  221.2176 H   0  0  0  0  0  0  0  0  0  0  0  0
  133.3257   74.8938  222.4971 H   0  0  0  0  0  0  0  0  0  0  0  0
  134.0932   77.0765  222.8563 H   0  0  0  0  0  0  0  0  0  0  0  0
  136.4650   76.4120  221.5040 H   0  0  0  0  0  0  0  0  0  0  0  0
  136.8402   76.2074  223.5217 H   0  0  0  0  0  0  0  0  0  0  0  0
  135.6067   76.8820  224.6012 H   0  0  0  0  0  0  0  0  0  0  0  0
  136.3013   74.2803  224.8746 H   0  0  0  0  0  0  0  0  0  0  0  0
  133.4893   75.0752  224.6360 H   0  0  0  0  0  0  0  0  0  0  0  0
  133.6661   72.7521  224.9165 H   0  0  0  0  0  0  0  0  0  0  0  0
  134.9209   72.9990  226.2487 H   0  0  0  0  0  0  0  0  0  0  0  0
  131.9926   73.0698  226.3175 H   0  0  0  0  0  0  0  0  0  0  0  0
  133.2919   72.5106  227.5166 H   0  0  0  0  0  0  0  0  0  0  0  0
  132.2870   75.8330  226.2762 H   0  0  0  0  0  0  0  0  0  0  0  0
  132.9966   76.3558  227.8588 H   0  0  0  0  0  0  0  0  0  0  0  0
  134.6855   76.6653  226.0855 H   0  0  0  0  0  0  0  0  0  0  0  0
  135.2303   75.3647  227.1267 H   0  0  0  0  0  0  0  0  0  0  0  0
  140.5160   74.3730  221.1989 H   0  0  0  0  0  0  0  0  0  0  0  0
  142.1693   76.1167  221.8390 H   0  0  0  0  0  0  0  0  0  0  0  0
  142.6329   78.3708  222.7320 H   0  0  0  0  0  0  0  0  0  0  0  0
  139.3388   80.8645  223.8691 H   0  0  0  0  0  0  0  0  0  0  0  0
  137.7640   79.0867  223.2140 H   0  0  0  0  0  0  0  0  0  0  0  0
  1  2  2  0
  2  3  1  0
  3  4  1  0
  4  5  1  0
  5  6  2  0
  5  7  1  0
  7  8  1  0
  8  9  1  0
  9 10  1  0
  9 11  1  0
 11 12  1  0
 12 13  1  0
 13 14  1  0
 14 15  1  0
 15 16  1  0
 16 17  1  0
 17 18  1  0
  2 19  1  0
 19 20  2  0
 20 21  1  0
 21 22  2  0
 22 23  1  0
 23 24  2  0
 24 25  1  0
 24 26  1  0
 26 27  2  0
 27 28  1  0
 28 29  2  0
 12  7  1  0
 18 13  1  0
 29 19  1  0
 28 22  1  0
  3 30  1  0
  4 31  1  0
  4 32  1  0
  8 33  1  0
  8 34  1  0
  9 35  1  1
 10 36  1  0
 11 37  1  0
 11 38  1  0
 12 39  1  1
 13 40  1  0
 14 41  1  0
 14 42  1  0
 15 43  1  0
 15 44  1  0
 17 45  1  0
 17 46  1  0
 18 47  1  0
 18 48  1  0
 20 49  1  0
 21 50  1  0
 23 51  1  0
 26 52  1  0
 27 53  1  0
M  END
>  <smiles>  (5) 
O=C(NCC(=O)N1C[C@H](O)C[C@H]1C1CCOCC1)c1ccc2cc(Cl)ccc2n1

>  <score_type>  (5) 
oracle

>  <origin>  (5) 
autodockgpu

>  <m_score__min__energy>  (5) 
-8.0399999999999991

>  <m_primary>  (5) 
energy

>  <rmsd>  (5) 
8.086550438536323

>  <m_score__min__rmsd>  (5) 
8.086550438536323

>  <meeko>  (5) 
{"free_energy": -6.29, "intermolecular_energy": -8.08, "internal_energy": -3.23, "cluster_size": 9, "cluster_id": 4, "rank_in_cluster": 5}

>  <energy>  (5) 
-7.95

>  <cluster_rmsd>  (5) 
1.86

>  <cluster>  (5) 
1

$$$$

     RDKit          3D

 53 56  0  0  0  0  0  0  0  0999 V2000
  140.3640   72.2460  220.6940 O   0  0  0  0  0  0  0  0  0  0  0  0
  139.9860   72.6070  221.8310 C   0  0  0  0  0  0  0  0  0  0  0  0
  139.5510   73.9160  222.1230 N   0  0  0  0  0  0  0  0  0  0  0  0
  139.5050   74.9770  221.1080 C   0  0  0  0  0  0  0  0  0  0  0  0
  139.4430   76.2500  221.8580 C   0  0  0  0  0  0  0  0  0  0  0  0
  138.7920   76.2930  222.9490 O   0  0  0  0  0  0  0  0  0  0  0  0
  140.0660   77.4540  221.4520 N   0  0  0  0  0  0  0  0  0  0  0  0
  140.2780   77.8160  220.0640 C   0  0  0  0  0  0  0  0  0  0  0  0
  141.5360   78.6440  219.9990 C   0  0  2  0  0  0  0  0  0  0  0  0
  142.5610   77.9230  219.3600 O   0  0  0  0  0  0  0  0  0  0  0  0
  141.8590   78.9080  221.4320 C   0  0  0  0  0  0  0  0  0  0  0  0
  140.6130   78.5500  222.2180 C   0  0  1  0  0  0  0  0  0  0  0  0
  139.6500   79.6960  222.3010 C   0  0  0  0  0  0  0  0  0  0  0  0
  138.8420   79.6920  223.5400 C   0  0  0  0  0  0  0  0  0  0  0  0
  137.9580   80.8700  223.7460 C   0  0  0  0  0  0  0  0  0  0  0  0
  138.3280   82.0290  223.1440 O   0  0  0  0  0  0  0  0  0  0  0  0
  139.0330   81.9690  221.9890 C   0  0  0  0  0  0  0  0  0  0  0  0
  140.2560   81.0500  222.1230 C   0  0  0  0  0  0  0  0  0  0  0  0
  139.9930   71.6190  222.9200 C   0  0  0  0  0  0  0  0  0  0  0  0
  139.5170   70.3350  222.7480 C   0  0  0  0  0  0  0  0  0  0  0  0
  139.5360   69.4160  223.8020 C   0  0  0  0  0  0  0  0  0  0  0  0
  140.0350   69.7780  225.0390 C   0  0  0  0  0  0  0  0  0  0  0  0
  140.0760   68.9090  226.1140 C   0  0  0  0  0  0  0  0  0  0  0  0
  140.5830   69.3100  227.3330 C   0  0  0  0  0  0  0  0  0  0  0  0
  140.6500   68.2350  228.7160 Cl  0  0  0  0  0  0  0  0  0  0  0  0
  141.0510   70.6030  227.4650 C   0  0  0  0  0  0  0  0  0  0  0  0
  141.0130   71.4740  226.4000 C   0  0  0  0  0  0  0  0  0  0  0  0
  140.5000   71.0710  225.1630 C   0  0  0  0  0  0  0  0  0  0  0  0
  140.4700   71.9210  224.1460 N   0  0  0  0  0  0  0  0  0  0  0  0
  139.2460   74.1390  223.1150 H   0  0  0  0  0  0  0  0  0  0  0  0
  140.4078   74.9459  220.4803 H   0  0  0  0  0  0  0  0  0  0  0  0
  138.6403   74.8593  220.4383 H   0  0  0  0  0  0  0  0  0  0  0  0
  140.3934   76.9088  219.4526 H   0  0  0  0  0  0  0  0  0  0  0  0
  139.4196   78.3842  219.6762 H   0  0  0  0  0  0  0  0  0  0  0  0
  141.4199   79.5735  219.4223 H   0  0  0  0  0  0  0  0  0  0  0  0
  143.3080   77.8740  220.0080 H   0  0  0  0  0  0  0  0  0  0  0  0
  142.7055   78.2835  221.7536 H   0  0  0  0  0  0  0  0  0  0  0  0
  142.1466   79.9576  221.5918 H   0  0  0  0  0  0  0  0  0  0  0  0
  140.8233   78.2945  223.2670 H   0  0  0  0  0  0  0  0  0  0  0  0
  138.9954   79.5145  221.4358 H   0  0  0  0  0  0  0  0  0  0  0  0
  138.2074   78.7936  223.5250 H   0  0  0  0  0  0  0  0  0  0  0  0
  139.5671   79.7174  224.3668 H   0  0  0  0  0  0  0  0  0  0  0  0
  136.9586   80.6050  223.3706 H   0  0  0  0  0  0  0  0  0  0  0  0
  138.0065   81.0794  224.8248 H   0  0  0  0  0  0  0  0  0  0  0  0
  138.3810   81.5823  221.1920 H   0  0  0  0  0  0  0  0  0  0  0  0
  139.3874   82.9821  221.7481 H   0  0  0  0  0  0  0  0  0  0  0  0
  140.8782   81.0873  221.2167 H   0  0  0  0  0  0  0  0  0  0  0  0
  140.9212   81.3363  222.9510 H   0  0  0  0  0  0  0  0  0  0  0  0
  139.1176   70.0306  221.7693 H   0  0  0  0  0  0  0  0  0  0  0  0
  139.1510   68.3976  223.6454 H   0  0  0  0  0  0  0  0  0  0  0  0
  139.6987   67.8825  225.9955 H   0  0  0  0  0  0  0  0  0  0  0  0
  141.4577   70.9395  228.4300 H   0  0  0  0  0  0  0  0  0  0  0  0
  141.3908   72.4997  226.5233 H   0  0  0  0  0  0  0  0  0  0  0  0
  1  2  2  0
  2  3  1  0
  3  4  1  0
  4  5  1  0
  5  6  2  0
  5  7  1  0
  7  8  1  0
  8  9  1  0
  9 10  1  0
  9 11  1  0
 11 12  1  0
 12 13  1  0
 13 14  1  0
 14 15  1  0
 15 16  1  0
 16 17  1  0
 17 18  1  0
  2 19  1  0
 19 20  2  0
 20 21  1  0
 21 22  2  0
 22 23  1  0
 23 24  2  0
 24 25  1  0
 24 26  1  0
 26 27  2  0
 27 28  1  0
 28 29  2  0
 12  7  1  0
 18 13  1  0
 29 19  1  0
 28 22  1  0
  3 30  1  0
  4 31  1  0
  4 32  1  0
  8 33  1  0
  8 34  1  0
  9 35  1  6
 10 36  1  0
 11 37  1  0
 11 38  1  0
 12 39  1  1
 13 40  1  0
 14 41  1  0
 14 42  1  0
 15 43  1  0
 15 44  1  0
 17 45  1  0
 17 46  1  0
 18 47  1  0
 18 48  1  0
 20 49  1  0
 21 50  1  0
 23 51  1  0
 26 52  1  0
 27 53  1  0
M  END
>  <smiles>  (6) 
O=C(NCC(=O)N1C[C@H](O)C[C@H]1C1CCOCC1)c1ccc2cc(Cl)ccc2n1

>  <score_type>  (6) 
oracle

>  <origin>  (6) 
autodockgpu

>  <m_score__min__energy>  (6) 
-8.0399999999999991

>  <m_primary>  (6) 
energy

>  <rmsd>  (6) 
3.5375578965984604

>  <m_score__min__rmsd>  (6) 
3.5375578965984604

>  <meeko>  (6) 
{"free_energy": -7.94, "intermolecular_energy": -9.73, "internal_energy": -1.8, "cluster_size": 33, "cluster_id": 1, "rank_in_cluster": 7}

>  <energy>  (6) 
-7.94

>  <cluster_rmsd>  (6) 
1.81

>  <cluster>  (6) 
1

$$$$

     RDKit          3D

 53 56  0  0  0  0  0  0  0  0999 V2000
  138.6120   71.7350  220.9240 O   0  0  0  0  0  0  0  0  0  0  0  0
  139.0830   72.1780  221.9950 C   0  0  0  0  0  0  0  0  0  0  0  0
  139.4150   73.5350  222.1920 N   0  0  0  0  0  0  0  0  0  0  0  0
  139.2350   74.5520  221.1470 C   0  0  0  0  0  0  0  0  0  0  0  0
  140.4860   74.5470  220.3600 C   0  0  0  0  0  0  0  0  0  0  0  0
  140.9700   75.6530  219.9600 O   0  0  0  0  0  0  0  0  0  0  0  0
  141.2090   73.3830  220.0050 N   0  0  0  0  0  0  0  0  0  0  0  0
  140.9020   72.5750  218.8400 C   0  0  0  0  0  0  0  0  0  0  0  0
  141.2680   71.1500  219.1690 C   0  0  2  0  0  0  0  0  0  0  0  0
  140.1070   70.3650  219.2930 O   0  0  0  0  0  0  0  0  0  0  0  0
  141.9990   71.2630  220.4640 C   0  0  0  0  0  0  0  0  0  0  0  0
  142.3360   72.7320  220.6330 C   0  0  1  0  0  0  0  0  0  0  0  0
  143.6250   73.0950  219.9590 C   0  0  0  0  0  0  0  0  0  0  0  0
  144.7160   73.3970  220.9110 C   0  0  0  0  0  0  0  0  0  0  0  0
  146.0550   73.6390  220.3120 C   0  0  0  0  0  0  0  0  0  0  0  0
  146.3040   73.0660  219.1070 O   0  0  0  0  0  0  0  0  0  0  0  0
  145.2680   72.8520  218.2600 C   0  0  0  0  0  0  0  0  0  0  0  0
  144.1190   72.1060  218.9540 C   0  0  0  0  0  0  0  0  0  0  0  0
  139.3020   71.2410  223.1060 C   0  0  0  0  0  0  0  0  0  0  0  0
  138.8610   69.9350  223.0610 C   0  0  0  0  0  0  0  0  0  0  0  0
  139.0840   69.0650  224.1330 C   0  0  0  0  0  0  0  0  0  0  0  0
  139.7530   69.5000  225.2620 C   0  0  0  0  0  0  0  0  0  0  0  0
  139.9990   68.6830  226.3500 C   0  0  0  0  0  0  0  0  0  0  0  0
  140.6700   69.1560  227.4580 C   0  0  0  0  0  0  0  0  0  0  0  0
  140.9980   68.1480  228.8540 Cl  0  0  0  0  0  0  0  0  0  0  0  0
  141.0960   70.4710  227.4640 C   0  0  0  0  0  0  0  0  0  0  0  0
  140.8550   71.2910  226.3860 C   0  0  0  0  0  0  0  0  0  0  0  0
  140.1750   70.8140  225.2610 C   0  0  0  0  0  0  0  0  0  0  0  0
  139.9500   71.6150  224.2300 N   0  0  0  0  0  0  0  0  0  0  0  0
  139.8110   73.8270  223.1330 H   0  0  0  0  0  0  0  0  0  0  0  0
  138.3785   74.2954  220.5063 H   0  0  0  0  0  0  0  0  0  0  0  0
  139.0319   75.5435  221.5779 H   0  0  0  0  0  0  0  0  0  0  0  0
  139.8290   72.6433  218.6075 H   0  0  0  0  0  0  0  0  0  0  0  0
  141.4656   72.9278  217.9638 H   0  0  0  0  0  0  0  0  0  0  0  0
  141.8759   70.6629  218.3924 H   0  0  0  0  0  0  0  0  0  0  0  0
  139.4250   70.9480  219.7110 H   0  0  0  0  0  0  0  0  0  0  0  0
  141.3619   70.9202  221.2926 H   0  0  0  0  0  0  0  0  0  0  0  0
  142.9060   70.6407  220.4679 H   0  0  0  0  0  0  0  0  0  0  0  0
  142.4861   73.0231  221.6831 H   0  0  0  0  0  0  0  0  0  0  0  0
  143.3529   74.0086  219.4101 H   0  0  0  0  0  0  0  0  0  0  0  0
  144.4314   74.2980  221.4743 H   0  0  0  0  0  0  0  0  0  0  0  0
  144.8269   72.4951  221.5309 H   0  0  0  0  0  0  0  0  0  0  0  0
  146.1738   74.7261  220.1933 H   0  0  0  0  0  0  0  0  0  0  0  0
  146.7672   73.1674  221.0050 H   0  0  0  0  0  0  0  0  0  0  0  0
  144.8969   73.8218  217.8969 H   0  0  0  0  0  0  0  0  0  0  0  0
  145.6271   72.2327  217.4248 H   0  0  0  0  0  0  0  0  0  0  0  0
  143.3277   71.8453  218.2357 H   0  0  0  0  0  0  0  0  0  0  0  0
  144.4345   71.1540  219.4058 H   0  0  0  0  0  0  0  0  0  0  0  0
  138.3268   69.5729  222.1702 H   0  0  0  0  0  0  0  0  0  0  0  0
  138.7245   68.0269  224.0775 H   0  0  0  0  0  0  0  0  0  0  0  0
  139.6538   67.6387  226.3315 H   0  0  0  0  0  0  0  0  0  0  0  0
  141.6329   70.8656  228.3392 H   0  0  0  0  0  0  0  0  0  0  0  0
  141.2015   72.3348  226.4093 H   0  0  0  0  0  0  0  0  0  0  0  0
  1  2  2  0
  2  3  1  0
  3  4  1  0
  4  5  1  0
  5  6  2  0
  5  7  1  0
  7  8  1  0
  8  9  1  0
  9 10  1  0
  9 11  1  0
 11 12  1  0
 12 13  1  0
 13 14  1  0
 14 15  1  0
 15 16  1  0
 16 17  1  0
 17 18  1  0
  2 19  1  0
 19 20  2  0
 20 21  1  0
 21 22  2  0
 22 23  1  0
 23 24  2  0
 24 25  1  0
 24 26  1  0
 26 27  2  0
 27 28  1  0
 28 29  2  0
 12  7  1  0
 18 13  1  0
 29 19  1  0
 28 22  1  0
  3 30  1  0
  4 31  1  0
  4 32  1  0
  8 33  1  0
  8 34  1  0
  9 35  1  6
 10 36  1  0
 11 37  1  0
 11 38  1  0
 12 39  1  1
 13 40  1  0
 14 41  1  0
 14 42  1  0
 15 43  1  0
 15 44  1  0
 17 45  1  0
 17 46  1  0
 18 47  1  0
 18 48  1  0
 20 49  1  0
 21 50  1  0
 23 51  1  0
 26 52  1  0
 27 53  1  0
M  END
>  <smiles>  (7) 
O=C(NCC(=O)N1C[C@H](O)C[C@H]1C1CCOCC1)c1ccc2cc(Cl)ccc2n1

>  <score_type>  (7) 
oracle

>  <origin>  (7) 
autodockgpu

>  <m_score__min__energy>  (7) 
-8.0399999999999991

>  <m_primary>  (7) 
energy

>  <rmsd>  (7) 
3.008450270912571

>  <m_score__min__rmsd>  (7) 
3.008450270912571

>  <meeko>  (7) 
{"free_energy": -7.11, "intermolecular_energy": -8.9, "internal_energy": -2.66, "cluster_size": 7, "cluster_id": 3, "rank_in_cluster": 2}

>  <energy>  (7) 
-7.94

>  <cluster_rmsd>  (7) 
1.4

>  <cluster>  (7) 
1

$$$$

     RDKit          3D

 53 56  0  0  0  0  0  0  0  0999 V2000
  139.9470   72.2320  220.6040 O   0  0  0  0  0  0  0  0  0  0  0  0
  139.8320   72.6490  221.7780 C   0  0  0  0  0  0  0  0  0  0  0  0
  139.6450   74.0100  222.1020 N   0  0  0  0  0  0  0  0  0  0  0  0
  139.5700   75.0610  221.0780 C   0  0  0  0  0  0  0  0  0  0  0  0
  139.1960   76.2980  221.7980 C   0  0  0  0  0  0  0  0  0  0  0  0
  138.5890   76.2050  222.9120 O   0  0  0  0  0  0  0  0  0  0  0  0
  139.4660   77.6080  221.3390 N   0  0  0  0  0  0  0  0  0  0  0  0
  138.4940   78.6850  221.3790 C   0  0  0  0  0  0  0  0  0  0  0  0
  138.7800   79.5960  220.2120 C   0  0  2  0  0  0  0  0  0  0  0  0
  137.7560   79.4930  219.2530 O   0  0  0  0  0  0  0  0  0  0  0  0
  140.0830   79.0950  219.6850 C   0  0  0  0  0  0  0  0  0  0  0  0
  140.6540   78.1900  220.7590 C   0  0  1  0  0  0  0  0  0  0  0  0
  141.4450   78.9550  221.7780 C   0  0  0  0  0  0  0  0  0  0  0  0
  141.4950   80.4080  221.5070 C   0  0  0  0  0  0  0  0  0  0  0  0
  142.1540   81.2430  222.5460 C   0  0  0  0  0  0  0  0  0  0  0  0
  142.1580   80.7570  223.8140 O   0  0  0  0  0  0  0  0  0  0  0  0
  142.1530   79.4150  223.9980 C   0  0  0  0  0  0  0  0  0  0  0  0
  141.0290   78.7420  223.1970 C   0  0  0  0  0  0  0  0  0  0  0  0
  139.8930   71.6760  222.8780 C   0  0  0  0  0  0  0  0  0  0  0  0
  139.4560   70.3760  222.7320 C   0  0  0  0  0  0  0  0  0  0  0  0
  139.5260   69.4710  223.7950 C   0  0  0  0  0  0  0  0  0  0  0  0
  140.0360   69.8640  225.0180 C   0  0  0  0  0  0  0  0  0  0  0  0
  140.1270   69.0120  226.1030 C   0  0  0  0  0  0  0  0  0  0  0  0
  140.6430   69.4440  227.3070 C   0  0  0  0  0  0  0  0  0  0  0  0
  140.7730   68.3900  228.7010 Cl  0  0  0  0  0  0  0  0  0  0  0  0
  141.0700   70.7540  227.4140 C   0  0  0  0  0  0  0  0  0  0  0  0
  140.9830   71.6100  226.3390 C   0  0  0  0  0  0  0  0  0  0  0  0
  140.4600   71.1740  225.1180 C   0  0  0  0  0  0  0  0  0  0  0  0
  140.3820   72.0090  224.0910 N   0  0  0  0  0  0  0  0  0  0  0  0
  139.5560   74.2790  223.1250 H   0  0  0  0  0  0  0  0  0  0  0  0
  140.5450   75.1850  220.5840 H   0  0  0  0  0  0  0  0  0  0  0  0
  138.8396   74.8117  220.2942 H   0  0  0  0  0  0  0  0  0  0  0  0
  137.4763   78.2759  221.2957 H   0  0  0  0  0  0  0  0  0  0  0  0
  138.5652   79.2366  222.3281 H   0  0  0  0  0  0  0  0  0  0  0  0
  138.8266   80.6603  220.4861 H   0  0  0  0  0  0  0  0  0  0  0  0
  138.1410   78.9860  218.4940 H   0  0  0  0  0  0  0  0  0  0  0  0
  139.9260   78.5301  218.7543 H   0  0  0  0  0  0  0  0  0  0  0  0
  140.7676   79.9245  219.4543 H   0  0  0  0  0  0  0  0  0  0  0  0
  141.3631   77.4467  220.3657 H   0  0  0  0  0  0  0  0  0  0  0  0
  142.4512   78.5252  221.6645 H   0  0  0  0  0  0  0  0  0  0  0  0
  142.0386   80.5555  220.5621 H   0  0  0  0  0  0  0  0  0  0  0  0
  140.4469   80.7407  221.4803 H   0  0  0  0  0  0  0  0  0  0  0  0
  143.2014   81.3864  222.2419 H   0  0  0  0  0  0  0  0  0  0  0  0
  141.5559   82.1649  222.5944 H   0  0  0  0  0  0  0  0  0  0  0  0
  143.1200   79.0056  223.6705 H   0  0  0  0  0  0  0  0  0  0  0  0
  141.9844   79.2134  225.0661 H   0  0  0  0  0  0  0  0  0  0  0  0
  140.9649   77.6694  223.4323 H   0  0  0  0  0  0  0  0  0  0  0  0
  140.0340   79.1540  223.4209 H   0  0  0  0  0  0  0  0  0  0  0  0
  139.0467   70.0468  221.7655 H   0  0  0  0  0  0  0  0  0  0  0  0
  139.1726   68.4385  223.6571 H   0  0  0  0  0  0  0  0  0  0  0  0
  139.7821   67.9721  226.0044 H   0  0  0  0  0  0  0  0  0  0  0  0
  141.4833   71.1163  228.3669 H   0  0  0  0  0  0  0  0  0  0  0  0
  141.3290   72.6490  226.4421 H   0  0  0  0  0  0  0  0  0  0  0  0
  1  2  2  0
  2  3  1  0
  3  4  1  0
  4  5  1  0
  5  6  2  0
  5  7  1  0
  7  8  1  0
  8  9  1  0
  9 10  1  0
  9 11  1  0
 11 12  1  0
 12 13  1  0
 13 14  1  0
 14 15  1  0
 15 16  1  0
 16 17  1  0
 17 18  1  0
  2 19  1  0
 19 20  2  0
 20 21  1  0
 21 22  2  0
 22 23  1  0
 23 24  2  0
 24 25  1  0
 24 26  1  0
 26 27  2  0
 27 28  1  0
 28 29  2  0
 12  7  1  0
 18 13  1  0
 29 19  1  0
 28 22  1  0
  3 30  1  0
  4 31  1  0
  4 32  1  0
  8 33  1  0
  8 34  1  0
  9 35  1  1
 10 36  1  0
 11 37  1  0
 11 38  1  0
 12 39  1  6
 13 40  1  0
 14 41  1  0
 14 42  1  0
 15 43  1  0
 15 44  1  0
 17 45  1  0
 17 46  1  0
 18 47  1  0
 18 48  1  0
 20 49  1  0
 21 50  1  0
 23 51  1  0
 26 52  1  0
 27 53  1  0
M  END
>  <smiles>  (8) 
O=C(NCC(=O)N1C[C@H](O)C[C@H]1C1CCOCC1)c1ccc2cc(Cl)ccc2n1

>  <score_type>  (8) 
oracle

>  <origin>  (8) 
autodockgpu

>  <m_score__min__energy>  (8) 
-8.0399999999999991

>  <m_primary>  (8) 
energy

>  <rmsd>  (8) 
3.393858227853527

>  <m_score__min__rmsd>  (8) 
3.393858227853527

>  <meeko>  (8) 
{"free_energy": -7.63, "intermolecular_energy": -9.42, "internal_energy": -1.8, "cluster_size": 33, "cluster_id": 1, "rank_in_cluster": 24}

>  <energy>  (8) 
-7.93

>  <cluster_rmsd>  (8) 
1.76

>  <cluster>  (8) 
1

$$$$

     RDKit          3D

 53 56  0  0  0  0  0  0  0  0999 V2000
  138.5430   72.3250  220.9620 O   0  0  0  0  0  0  0  0  0  0  0  0
  139.3480   72.5810  221.8840 C   0  0  0  0  0  0  0  0  0  0  0  0
  140.1220   73.7590  221.9320 N   0  0  0  0  0  0  0  0  0  0  0  0
  140.0480   74.7950  220.8920 C   0  0  0  0  0  0  0  0  0  0  0  0
  140.8000   74.2610  219.7360 C   0  0  0  0  0  0  0  0  0  0  0  0
  140.9740   75.0010  218.7170 O   0  0  0  0  0  0  0  0  0  0  0  0
  141.3560   72.9620  219.6700 N   0  0  0  0  0  0  0  0  0  0  0  0
  141.0800   72.0280  218.5940 C   0  0  0  0  0  0  0  0  0  0  0  0
  141.1490   70.6380  219.1720 C   0  0  2  0  0  0  0  0  0  0  0  0
  139.8650   70.0630  219.2130 O   0  0  0  0  0  0  0  0  0  0  0  0
  141.7020   70.8520  220.5410 C   0  0  0  0  0  0  0  0  0  0  0  0
  142.2560   72.2630  220.5570 C   0  0  1  0  0  0  0  0  0  0  0  0
  143.6700   72.3180  220.0580 C   0  0  0  0  0  0  0  0  0  0  0  0
  144.1630   71.0150  219.5600 C   0  0  0  0  0  0  0  0  0  0  0  0
  145.5110   71.0260  218.9320 C   0  0  0  0  0  0  0  0  0  0  0  0
  145.9280   72.1970  218.3880 O   0  0  0  0  0  0  0  0  0  0  0  0
  145.4720   73.3600  218.9140 C   0  0  0  0  0  0  0  0  0  0  0  0
  143.9410   73.3640  219.0270 C   0  0  0  0  0  0  0  0  0  0  0  0
  139.4980   71.6080  222.9760 C   0  0  0  0  0  0  0  0  0  0  0  0
  139.0360   70.3120  222.8720 C   0  0  0  0  0  0  0  0  0  0  0  0
  139.1920   69.4080  223.9270 C   0  0  0  0  0  0  0  0  0  0  0  0
  139.8170   69.7960  225.0970 C   0  0  0  0  0  0  0  0  0  0  0  0
  139.9970   68.9430  226.1710 C   0  0  0  0  0  0  0  0  0  0  0  0
  140.6250   69.3710  227.3220 C   0  0  0  0  0  0  0  0  0  0  0  0
  140.8700   68.3160  228.7000 Cl  0  0  0  0  0  0  0  0  0  0  0  0
  141.0750   70.6760  227.3870 C   0  0  0  0  0  0  0  0  0  0  0  0
  140.9000   71.5320  226.3230 C   0  0  0  0  0  0  0  0  0  0  0  0
  140.2630   71.1010  225.1550 C   0  0  0  0  0  0  0  0  0  0  0  0
  140.1010   71.9360  224.1390 N   0  0  0  0  0  0  0  0  0  0  0  0
  140.7830   73.8980  222.7510 H   0  0  0  0  0  0  0  0  0  0  0  0
  139.0007   74.9838  220.6134 H   0  0  0  0  0  0  0  0  0  0  0  0
  140.4678   75.7498  221.2415 H   0  0  0  0  0  0  0  0  0  0  0  0
  140.0769   72.2144  218.1829 H   0  0  0  0  0  0  0  0  0  0  0  0
  141.8115   72.1463  217.7810 H   0  0  0  0  0  0  0  0  0  0  0  0
  141.7667   69.9468  218.5798 H   0  0  0  0  0  0  0  0  0  0  0  0
  139.2900   70.7110  219.6920 H   0  0  0  0  0  0  0  0  0  0  0  0
  140.9074   70.7456  221.2942 H   0  0  0  0  0  0  0  0  0  0  0  0
  142.4809   70.1126  220.7790 H   0  0  0  0  0  0  0  0  0  0  0  0
  142.3049   72.6957  221.5672 H   0  0  0  0  0  0  0  0  0  0  0  0
  144.2275   72.6009  220.9631 H   0  0  0  0  0  0  0  0  0  0  0  0
  144.1937   70.3189  220.4112 H   0  0  0  0  0  0  0  0  0  0  0  0
  143.4660   70.7190  218.7621 H   0  0  0  0  0  0  0  0  0  0  0  0
  146.2396   70.7414  219.7054 H   0  0  0  0  0  0  0  0  0  0  0  0
  145.4370   70.3281  218.0850 H   0  0  0  0  0  0  0  0  0  0  0  0
  145.9048   73.4929  219.9165 H   0  0  0  0  0  0  0  0  0  0  0  0
  145.7711   74.1815  218.2465 H   0  0  0  0  0  0  0  0  0  0  0  0
  143.5727   74.3468  219.3564 H   0  0  0  0  0  0  0  0  0  0  0  0
  143.4381   73.1649  218.0692 H   0  0  0  0  0  0  0  0  0  0  0  0
  138.5384   69.9858  221.9468 H   0  0  0  0  0  0  0  0  0  0  0  0
  138.8144   68.3799  223.8251 H   0  0  0  0  0  0  0  0  0  0  0  0
  139.6335   67.9068  226.1061 H   0  0  0  0  0  0  0  0  0  0  0  0
  141.5778   71.0342  228.2974 H   0  0  0  0  0  0  0  0  0  0  0  0
  141.2655   72.5672  226.3924 H   0  0  0  0  0  0  0  0  0  0  0  0
  1  2  2  0
  2  3  1  0
  3  4  1  0
  4  5  1  0
  5  6  2  0
  5  7  1  0
  7  8  1  0
  8  9  1  0
  9 10  1  0
  9 11  1  0
 11 12  1  0
 12 13  1  0
 13 14  1  0
 14 15  1  0
 15 16  1  0
 16 17  1  0
 17 18  1  0
  2 19  1  0
 19 20  2  0
 20 21  1  0
 21 22  2  0
 22 23  1  0
 23 24  2  0
 24 25  1  0
 24 26  1  0
 26 27  2  0
 27 28  1  0
 28 29  2  0
 12  7  1  0
 18 13  1  0
 29 19  1  0
 28 22  1  0
  3 30  1  0
  4 31  1  0
  4 32  1  0
  8 33  1  0
  8 34  1  0
  9 35  1  6
 10 36  1  0
 11 37  1  0
 11 38  1  0
 12 39  1  1
 13 40  1  0
 14 41  1  0
 14 42  1  0
 15 43  1  0
 15 44  1  0
 17 45  1  0
 17 46  1  0
 18 47  1  0
 18 48  1  0
 20 49  1  0
 21 50  1  0
 23 51  1  0
 26 52  1  0
 27 53  1  0
M  END
>  <smiles>  (9) 
O=C(NCC(=O)N1C[C@H](O)C[C@H]1C1CCOCC1)c1ccc2cc(Cl)ccc2n1

>  <score_type>  (9) 
oracle

>  <origin>  (9) 
autodockgpu

>  <m_score__min__energy>  (9) 
-8.0399999999999991

>  <m_primary>  (9) 
energy

>  <rmsd>  (9) 
3.483745749170041

>  <m_score__min__rmsd>  (9) 
3.483745749170041

>  <meeko>  (9) 
{"free_energy": -5.92, "intermolecular_energy": -7.71, "internal_energy": -2.62, "cluster_size": 7, "cluster_id": 3, "rank_in_cluster": 7}

>  <energy>  (9) 
-7.91

>  <cluster_rmsd>  (9) 
1.78

>  <cluster>  (9) 
1

$$$$

     RDKit          3D

 53 56  0  0  0  0  0  0  0  0999 V2000
  140.0790   72.6090  220.7050 O   0  0  0  0  0  0  0  0  0  0  0  0
  139.8670   72.9540  221.8880 C   0  0  0  0  0  0  0  0  0  0  0  0
  139.5780   74.2820  222.2670 N   0  0  0  0  0  0  0  0  0  0  0  0
  139.5020   75.3820  221.2950 C   0  0  0  0  0  0  0  0  0  0  0  0
  138.8820   76.5140  222.0160 C   0  0  0  0  0  0  0  0  0  0  0  0
  138.1670   76.2770  223.0410 O   0  0  0  0  0  0  0  0  0  0  0  0
  139.0220   77.8740  221.6520 N   0  0  0  0  0  0  0  0  0  0  0  0
  138.0620   78.9000  222.0100 C   0  0  0  0  0  0  0  0  0  0  0  0
  138.0720   79.9330  220.9110 C   0  0  2  0  0  0  0  0  0  0  0  0
  136.8690   79.8840  220.1850 O   0  0  0  0  0  0  0  0  0  0  0  0
  139.2410   79.5410  220.0700 C   0  0  0  0  0  0  0  0  0  0  0  0
  140.0460   78.5580  220.8970 C   0  0  1  0  0  0  0  0  0  0  0  0
  141.0230   79.2500  221.8000 C   0  0  0  0  0  0  0  0  0  0  0  0
  140.9720   80.7240  221.6940 C   0  0  0  0  0  0  0  0  0  0  0  0
  141.8230   81.4770  222.6540 C   0  0  0  0  0  0  0  0  0  0  0  0
  142.1230   80.8600  223.8250 O   0  0  0  0  0  0  0  0  0  0  0  0
  142.1950   79.5070  223.8510 C   0  0  0  0  0  0  0  0  0  0  0  0
  140.9400   78.8660  223.2410 C   0  0  0  0  0  0  0  0  0  0  0  0
  139.9190   71.9280  222.9390 C   0  0  0  0  0  0  0  0  0  0  0  0
  139.5030   70.6310  222.7190 C   0  0  0  0  0  0  0  0  0  0  0  0
  139.5640   69.6750  223.7380 C   0  0  0  0  0  0  0  0  0  0  0  0
  140.0440   70.0130  224.9890 C   0  0  0  0  0  0  0  0  0  0  0  0
  140.1250   69.1080  226.0310 C   0  0  0  0  0  0  0  0  0  0  0  0
  140.6100   69.4860  227.2660 C   0  0  0  0  0  0  0  0  0  0  0  0
  140.7260   68.3650  228.6080 Cl  0  0  0  0  0  0  0  0  0  0  0  0
  141.0170   70.7950  227.4470 C   0  0  0  0  0  0  0  0  0  0  0  0
  140.9390   71.7020  226.4150 C   0  0  0  0  0  0  0  0  0  0  0  0
  140.4480   71.3220  225.1620 C   0  0  0  0  0  0  0  0  0  0  0  0
  140.3790   72.2060  224.1780 N   0  0  0  0  0  0  0  0  0  0  0  0
  139.4100   74.4900  223.2950 H   0  0  0  0  0  0  0  0  0  0  0  0
  140.5088   75.6553  220.9462 H   0  0  0  0  0  0  0  0  0  0  0  0
  138.9176   75.0984  220.4073 H   0  0  0  0  0  0  0  0  0  0  0  0
  137.0583   78.4595  222.1023 H   0  0  0  0  0  0  0  0  0  0  0  0
  138.3257   79.3579  222.9748 H   0  0  0  0  0  0  0  0  0  0  0  0
  138.1551   80.9658  221.2803 H   0  0  0  0  0  0  0  0  0  0  0  0
  136.8790   80.6700  219.5830 H   0  0  0  0  0  0  0  0  0  0  0  0
  138.8987   79.0656  219.1390 H   0  0  0  0  0  0  0  0  0  0  0  0
  139.8443   80.4168  219.7888 H   0  0  0  0  0  0  0  0  0  0  0  0
  140.6669   77.8866  220.2857 H   0  0  0  0  0  0  0  0  0  0  0  0
  141.9897   78.8872  221.4207 H   0  0  0  0  0  0  0  0  0  0  0  0
  141.2876   80.9993  220.6769 H   0  0  0  0  0  0  0  0  0  0  0  0
  139.9355   81.0028  221.9348 H   0  0  0  0  0  0  0  0  0  0  0  0
  142.7718   81.7069  222.1472 H   0  0  0  0  0  0  0  0  0  0  0  0
  141.2252   82.3555  222.9383 H   0  0  0  0  0  0  0  0  0  0  0  0
  143.0763   79.1847  223.2770 H   0  0  0  0  0  0  0  0  0  0  0  0
  142.2725   79.1851  224.9000 H   0  0  0  0  0  0  0  0  0  0  0  0
  140.9592   77.7725  223.3590 H   0  0  0  0  0  0  0  0  0  0  0  0
  140.0090   79.2001  223.7223 H   0  0  0  0  0  0  0  0  0  0  0  0
  139.1183   70.3450  221.7289 H   0  0  0  0  0  0  0  0  0  0  0  0
  139.2273   68.6463  223.5422 H   0  0  0  0  0  0  0  0  0  0  0  0
  139.7975   68.0699  225.8728 H   0  0  0  0  0  0  0  0  0  0  0  0
  141.4067   71.1143  228.4249 H   0  0  0  0  0  0  0  0  0  0  0  0
  141.2671   72.7392  226.5778 H   0  0  0  0  0  0  0  0  0  0  0  0
  1  2  2  0
  2  3  1  0
  3  4  1  0
  4  5  1  0
  5  6  2  0
  5  7  1  0
  7  8  1  0
  8  9  1  0
  9 10  1  0
  9 11  1  0
 11 12  1  0
 12 13  1  0
 13 14  1  0
 14 15  1  0
 15 16  1  0
 16 17  1  0
 17 18  1  0
  2 19  1  0
 19 20  2  0
 20 21  1  0
 21 22  2  0
 22 23  1  0
 23 24  2  0
 24 25  1  0
 24 26  1  0
 26 27  2  0
 27 28  1  0
 28 29  2  0
 12  7  1  0
 18 13  1  0
 29 19  1  0
 28 22  1  0
  3 30  1  0
  4 31  1  0
  4 32  1  0
  8 33  1  0
  8 34  1  0
  9 35  1  1
 10 36  1  0
 11 37  1  0
 11 38  1  0
 12 39  1  6
 13 40  1  0
 14 41  1  0
 14 42  1  0
 15 43  1  0
 15 44  1  0
 17 45  1  0
 17 46  1  0
 18 47  1  0
 18 48  1  0
 20 49  1  0
 21 50  1  0
 23 51  1  0
 26 52  1  0
 27 53  1  0
M  END
>  <smiles>  (10) 
O=C(NCC(=O)N1C[C@H](O)C[C@H]1C1CCOCC1)c1ccc2cc(Cl)ccc2n1

>  <score_type>  (10) 
oracle

>  <origin>  (10) 
autodockgpu

>  <m_score__min__energy>  (10) 
-8.0399999999999991

>  <m_primary>  (10) 
energy

>  <rmsd>  (10) 
3.6078025351464906

>  <m_score__min__rmsd>  (10) 
3.6078025351464906

>  <meeko>  (10) 
{"free_energy": -7.58, "intermolecular_energy": -9.37, "internal_energy": -1.76, "cluster_size": 33, "cluster_id": 1, "rank_in_cluster": 25}

>  <energy>  (10) 
-7.9

>  <cluster_rmsd>  (10) 
1.79

>  <cluster>  (10) 
1

$$$$

     RDKit          3D

 53 56  0  0  0  0  0  0  0  0999 V2000
  138.0800   71.8710  221.2450 O   0  0  0  0  0  0  0  0  0  0  0  0
  138.7780   72.2530  222.2100 C   0  0  0  0  0  0  0  0  0  0  0  0
  139.3180   73.5520  222.3100 N   0  0  0  0  0  0  0  0  0  0  0  0
  139.1050   74.5770  221.2780 C   0  0  0  0  0  0  0  0  0  0  0  0
  140.2740   75.4790  221.3590 C   0  0  0  0  0  0  0  0  0  0  0  0
  141.3320   75.0700  221.9340 O   0  0  0  0  0  0  0  0  0  0  0  0
  140.3150   76.7920  220.8350 N   0  0  0  0  0  0  0  0  0  0  0  0
  139.1290   77.5850  220.5710 C   0  0  0  0  0  0  0  0  0  0  0  0
  139.4360   78.4840  219.4010 C   0  0  2  0  0  0  0  0  0  0  0  0
  138.7040   78.0780  218.2700 O   0  0  0  0  0  0  0  0  0  0  0  0
  140.9040   78.3100  219.1990 C   0  0  0  0  0  0  0  0  0  0  0  0
  141.4260   77.6320  220.4500 C   0  0  1  0  0  0  0  0  0  0  0  0
  141.7650   78.6190  221.5260 C   0  0  0  0  0  0  0  0  0  0  0  0
  141.5630   80.0250  221.1120 C   0  0  0  0  0  0  0  0  0  0  0  0
  141.7580   81.0510  222.1720 C   0  0  0  0  0  0  0  0  0  0  0  0
  141.5650   80.6540  223.4550 O   0  0  0  0  0  0  0  0  0  0  0  0
  141.8060   79.3620  223.7820 C   0  0  0  0  0  0  0  0  0  0  0  0
  141.0800   78.3970  222.8340 C   0  0  0  0  0  0  0  0  0  0  0  0
  139.0510   71.3030  223.2990 C   0  0  0  0  0  0  0  0  0  0  0  0
  138.6190   69.9930  223.2540 C   0  0  0  0  0  0  0  0  0  0  0  0
  138.8930   69.1120  224.3040 C   0  0  0  0  0  0  0  0  0  0  0  0
  139.6040   69.5370  225.4100 C   0  0  0  0  0  0  0  0  0  0  0  0
  139.9010   68.7080  226.4760 C   0  0  0  0  0  0  0  0  0  0  0  0
  140.6140   69.1720  227.5620 C   0  0  0  0  0  0  0  0  0  0  0  0
  141.0070   68.1490  228.9290 Cl  0  0  0  0  0  0  0  0  0  0  0  0
  141.0290   70.4900  227.5690 C   0  0  0  0  0  0  0  0  0  0  0  0
  140.7370   71.3230  226.5130 C   0  0  0  0  0  0  0  0  0  0  0  0
  140.0150   70.8550  225.4110 C   0  0  0  0  0  0  0  0  0  0  0  0
  139.7410   71.6680  224.4000 N   0  0  0  0  0  0  0  0  0  0  0  0
  139.9000   73.7950  223.1640 H   0  0  0  0  0  0  0  0  0  0  0  0
  139.0479   74.1123  220.2826 H   0  0  0  0  0  0  0  0  0  0  0  0
  138.1621   75.1210  221.4361 H   0  0  0  0  0  0  0  0  0  0  0  0
  138.2832   76.9256  220.3261 H   0  0  0  0  0  0  0  0  0  0  0  0
  138.8560   78.1797  221.4552 H   0  0  0  0  0  0  0  0  0  0  0  0
  139.1630   79.5358  219.5720 H   0  0  0  0  0  0  0  0  0  0  0  0
  138.7470   77.0890  218.2550 H   0  0  0  0  0  0  0  0  0  0  0  0
  141.0956   77.6817  218.3167 H   0  0  0  0  0  0  0  0  0  0  0  0
  141.4023   79.2758  219.0291 H   0  0  0  0  0  0  0  0  0  0  0  0
  142.3618   77.0787  220.2824 H   0  0  0  0  0  0  0  0  0  0  0  0
  142.8373   78.4321  221.6848 H   0  0  0  0  0  0  0  0  0  0  0  0
  142.2718   80.2418  220.2992 H   0  0  0  0  0  0  0  0  0  0  0  0
  140.5055   80.0989  220.8183 H   0  0  0  0  0  0  0  0  0  0  0  0
  142.7909   81.4205  222.0905 H   0  0  0  0  0  0  0  0  0  0  0  0
  140.9801   81.8061  221.9860 H   0  0  0  0  0  0  0  0  0  0  0  0
  142.8883   79.1743  223.7232 H   0  0  0  0  0  0  0  0  0  0  0  0
  141.4335   79.1889  224.8024 H   0  0  0  0  0  0  0  0  0  0  0  0
  141.1960   77.3553  223.1676 H   0  0  0  0  0  0  0  0  0  0  0  0
  139.9954   78.5746  222.7872 H   0  0  0  0  0  0  0  0  0  0  0  0
  138.0520   69.6378  222.3809 H   0  0  0  0  0  0  0  0  0  0  0  0
  138.5397   68.0717  224.2494 H   0  0  0  0  0  0  0  0  0  0  0  0
  139.5632   67.6613  226.4578 H   0  0  0  0  0  0  0  0  0  0  0  0
  141.5983   70.8772  228.4269 H   0  0  0  0  0  0  0  0  0  0  0  0
  141.0757   72.3693  226.5363 H   0  0  0  0  0  0  0  0  0  0  0  0
  1  2  2  0
  2  3  1  0
  3  4  1  0
  4  5  1  0
  5  6  2  0
  5  7  1  0
  7  8  1  0
  8  9  1  0
  9 10  1  0
  9 11  1  0
 11 12  1  0
 12 13  1  0
 13 14  1  0
 14 15  1  0
 15 16  1  0
 16 17  1  0
 17 18  1  0
  2 19  1  0
 19 20  2  0
 20 21  1  0
 21 22  2  0
 22 23  1  0
 23 24  2  0
 24 25  1  0
 24 26  1  0
 26 27  2  0
 27 28  1  0
 28 29  2  0
 12  7  1  0
 18 13  1  0
 29 19  1  0
 28 22  1  0
  3 30  1  0
  4 31  1  0
  4 32  1  0
  8 33  1  0
  8 34  1  0
  9 35  1  1
 10 36  1  0
 11 37  1  0
 11 38  1  0
 12 39  1  6
 13 40  1  0
 14 41  1  0
 14 42  1  0
 15 43  1  0
 15 44  1  0
 17 45  1  0
 17 46  1  0
 18 47  1  0
 18 48  1  0
 20 49  1  0
 21 50  1  0
 23 51  1  0
 26 52  1  0
 27 53  1  0
M  END
>  <smiles>  (11) 
O=C(NCC(=O)N1C[C@H](O)C[C@H]1C1CCOCC1)c1ccc2cc(Cl)ccc2n1

>  <score_type>  (11) 
oracle

>  <origin>  (11) 
autodockgpu

>  <m_score__min__energy>  (11) 
-8.0399999999999991

>  <m_primary>  (11) 
energy

>  <rmsd>  (11) 
2.9531831281934324

>  <m_score__min__rmsd>  (11) 
2.9531831281934324

>  <meeko>  (11) 
{"free_energy": -7.51, "intermolecular_energy": -9.3, "internal_energy": -1.84, "cluster_size": 33, "cluster_id": 1, "rank_in_cluster": 27}

>  <energy>  (11) 
-7.9

>  <cluster_rmsd>  (11) 
1.8

>  <cluster>  (11) 
1

$$$$

     RDKit          3D

 53 56  0  0  0  0  0  0  0  0999 V2000
  139.7360   72.7250  220.5200 O   0  0  0  0  0  0  0  0  0  0  0  0
  139.6860   73.0740  221.7200 C   0  0  0  0  0  0  0  0  0  0  0  0
  139.5620   74.4180  222.1320 N   0  0  0  0  0  0  0  0  0  0  0  0
  139.4830   75.5310  221.1770 C   0  0  0  0  0  0  0  0  0  0  0  0
  140.6950   76.3460  221.4060 C   0  0  0  0  0  0  0  0  0  0  0  0
  141.8320   75.8550  221.1170 O   0  0  0  0  0  0  0  0  0  0  0  0
  140.6950   77.6590  221.9320 N   0  0  0  0  0  0  0  0  0  0  0  0
  141.4410   78.7560  221.3450 C   0  0  0  0  0  0  0  0  0  0  0  0
  141.8410   79.6820  222.4650 C   0  0  2  0  0  0  0  0  0  0  0  0
  143.2310   79.6200  222.6760 O   0  0  0  0  0  0  0  0  0  0  0  0
  141.0810   79.1630  223.6400 C   0  0  0  0  0  0  0  0  0  0  0  0
  140.0290   78.2250  223.0820 C   0  0  1  0  0  0  0  0  0  0  0  0
  138.7780   78.9530  222.6880 C   0  0  0  0  0  0  0  0  0  0  0  0
  137.5890   78.0750  222.6230 C   0  0  0  0  0  0  0  0  0  0  0  0
  136.2920   78.7540  222.3640 C   0  0  0  0  0  0  0  0  0  0  0  0
  136.1930   80.0560  222.7350 O   0  0  0  0  0  0  0  0  0  0  0  0
  137.3110   80.8210  222.7370 C   0  0  0  0  0  0  0  0  0  0  0  0
  138.4500   80.1500  223.5180 C   0  0  0  0  0  0  0  0  0  0  0  0
  139.7570   72.0340  222.7570 C   0  0  0  0  0  0  0  0  0  0  0  0
  139.2820   70.7560  222.5480 C   0  0  0  0  0  0  0  0  0  0  0  0
  139.3630   69.7870  223.5520 C   0  0  0  0  0  0  0  0  0  0  0  0
  139.9240   70.0920  224.7780 C   0  0  0  0  0  0  0  0  0  0  0  0
  140.0280   69.1730  225.8060 C   0  0  0  0  0  0  0  0  0  0  0  0
  140.5940   69.5190  227.0150 C   0  0  0  0  0  0  0  0  0  0  0  0
  140.7410   68.3790  228.3380 Cl  0  0  0  0  0  0  0  0  0  0  0  0
  141.0580   70.8090  227.1860 C   0  0  0  0  0  0  0  0  0  0  0  0
  140.9580   71.7310  226.1690 C   0  0  0  0  0  0  0  0  0  0  0  0
  140.3840   71.3830  224.9420 C   0  0  0  0  0  0  0  0  0  0  0  0
  140.2950   72.2810  223.9710 N   0  0  0  0  0  0  0  0  0  0  0  0
  139.5270   74.6270  223.1720 H   0  0  0  0  0  0  0  0  0  0  0  0
  139.4672   75.1499  220.1453 H   0  0  0  0  0  0  0  0  0  0  0  0
  138.5658   76.1214  221.3188 H   0  0  0  0  0  0  0  0  0  0  0  0
  142.3378   78.3712  220.8373 H   0  0  0  0  0  0  0  0  0  0  0  0
  140.8281   79.2880  220.6025 H   0  0  0  0  0  0  0  0  0  0  0  0
  141.6170   80.7394  222.2610 H   0  0  0  0  0  0  0  0  0  0  0  0
  143.6500   79.8140  221.8010 H   0  0  0  0  0  0  0  0  0  0  0  0
  141.7540   78.6201  224.3199 H   0  0  0  0  0  0  0  0  0  0  0  0
  140.6238   79.9816  224.2152 H   0  0  0  0  0  0  0  0  0  0  0  0
  139.6903   77.4737  223.8106 H   0  0  0  0  0  0  0  0  0  0  0  0
  139.0248   79.3140  221.6787 H   0  0  0  0  0  0  0  0  0  0  0  0
  137.7535   77.3445  221.8172 H   0  0  0  0  0  0  0  0  0  0  0  0
  137.4953   77.6273  223.6234 H   0  0  0  0  0  0  0  0  0  0  0  0
  136.1004   78.7018  221.2821 H   0  0  0  0  0  0  0  0  0  0  0  0
  135.5610   78.2221  222.9907 H   0  0  0  0  0  0  0  0  0  0  0  0
  137.6360   80.9819  221.6985 H   0  0  0  0  0  0  0  0  0  0  0  0
  137.0740   81.7776  223.2256 H   0  0  0  0  0  0  0  0  0  0  0  0
  139.3179   80.8205  223.6027 H   0  0  0  0  0  0  0  0  0  0  0  0
  138.1709   79.8940  224.5507 H   0  0  0  0  0  0  0  0  0  0  0  0
  138.8333   70.4959  221.5779 H   0  0  0  0  0  0  0  0  0  0  0  0
  138.9774   68.7739  223.3651 H   0  0  0  0  0  0  0  0  0  0  0  0
  139.6533   68.1496  225.6570 H   0  0  0  0  0  0  0  0  0  0  0  0
  141.5118   71.1021  228.1442 H   0  0  0  0  0  0  0  0  0  0  0  0
  141.3338   72.7533  226.3230 H   0  0  0  0  0  0  0  0  0  0  0  0
  1  2  2  0
  2  3  1  0
  3  4  1  0
  4  5  1  0
  5  6  2  0
  5  7  1  0
  7  8  1  0
  8  9  1  0
  9 10  1  0
  9 11  1  0
 11 12  1  0
 12 13  1  0
 13 14  1  0
 14 15  1  0
 15 16  1  0
 16 17  1  0
 17 18  1  0
  2 19  1  0
 19 20  2  0
 20 21  1  0
 21 22  2  0
 22 23  1  0
 23 24  2  0
 24 25  1  0
 24 26  1  0
 26 27  2  0
 27 28  1  0
 28 29  2  0
 12  7  1  0
 18 13  1  0
 29 19  1  0
 28 22  1  0
  3 30  1  0
  4 31  1  0
  4 32  1  0
  8 33  1  0
  8 34  1  0
  9 35  1  6
 10 36  1  0
 11 37  1  0
 11 38  1  0
 12 39  1  1
 13 40  1  0
 14 41  1  0
 14 42  1  0
 15 43  1  0
 15 44  1  0
 17 45  1  0
 17 46  1  0
 18 47  1  0
 18 48  1  0
 20 49  1  0
 21 50  1  0
 23 51  1  0
 26 52  1  0
 27 53  1  0
M  END
>  <smiles>  (12) 
O=C(NCC(=O)N1C[C@H](O)C[C@H]1C1CCOCC1)c1ccc2cc(Cl)ccc2n1

>  <score_type>  (12) 
oracle

>  <origin>  (12) 
autodockgpu

>  <m_score__min__energy>  (12) 
-8.0399999999999991

>  <m_primary>  (12) 
energy

>  <rmsd>  (12) 
3.612102002762209

>  <m_score__min__rmsd>  (12) 
3.612102002762209

>  <meeko>  (12) 
{"free_energy": -8.04, "intermolecular_energy": -9.83, "internal_energy": -1.39, "cluster_size": 33, "cluster_id": 1, "rank_in_cluster": 1}

>  <energy>  (12) 
-7.9

>  <cluster_rmsd>  (12) 
1.75

>  <cluster>  (12) 
1

$$$$

     RDKit          3D

 53 56  0  0  0  0  0  0  0  0999 V2000
  137.8340   71.6670  221.3420 O   0  0  0  0  0  0  0  0  0  0  0  0
  138.5520   72.0850  222.2770 C   0  0  0  0  0  0  0  0  0  0  0  0
  139.0360   73.4080  222.3490 N   0  0  0  0  0  0  0  0  0  0  0  0
  138.7370   74.4160  221.3220 C   0  0  0  0  0  0  0  0  0  0  0  0
  139.8320   75.4060  221.3990 C   0  0  0  0  0  0  0  0  0  0  0  0
  140.8610   75.1370  222.0950 O   0  0  0  0  0  0  0  0  0  0  0  0
  139.8290   76.6610  220.7460 N   0  0  0  0  0  0  0  0  0  0  0  0
  138.6300   77.2850  220.2170 C   0  0  0  0  0  0  0  0  0  0  0  0
  139.0360   78.0990  219.0150 C   0  0  2  0  0  0  0  0  0  0  0  0
  138.5420   77.5080  217.8380 O   0  0  0  0  0  0  0  0  0  0  0  0
  140.5270   78.0760  219.0600 C   0  0  0  0  0  0  0  0  0  0  0  0
  140.9000   77.5820  220.4440 C   0  0  1  0  0  0  0  0  0  0  0  0
  140.9610   78.6990  221.4430 C   0  0  0  0  0  0  0  0  0  0  0  0
  141.3960   78.2570  222.7860 C   0  0  0  0  0  0  0  0  0  0  0  0
  141.6020   79.3330  223.7920 C   0  0  0  0  0  0  0  0  0  0  0  0
  141.9060   80.5680  223.3180 O   0  0  0  0  0  0  0  0  0  0  0  0
  141.4450   80.9310  222.0970 C   0  0  0  0  0  0  0  0  0  0  0  0
  141.7820   79.8770  221.0320 C   0  0  0  0  0  0  0  0  0  0  0  0
  138.9090   71.1550  223.3580 C   0  0  0  0  0  0  0  0  0  0  0  0
  138.5590   69.8210  223.3230 C   0  0  0  0  0  0  0  0  0  0  0  0
  138.9130   68.9590  224.3660 C   0  0  0  0  0  0  0  0  0  0  0  0
  139.6230   69.4290  225.4540 C   0  0  0  0  0  0  0  0  0  0  0  0
  139.9980   68.6210  226.5120 C   0  0  0  0  0  0  0  0  0  0  0  0
  140.7070   69.1290  227.5800 C   0  0  0  0  0  0  0  0  0  0  0  0
  141.1970   68.1330  228.9360 Cl  0  0  0  0  0  0  0  0  0  0  0  0
  141.0400   70.4710  227.5770 C   0  0  0  0  0  0  0  0  0  0  0  0
  140.6710   71.2820  226.5290 C   0  0  0  0  0  0  0  0  0  0  0  0
  139.9520   70.7690  225.4450 C   0  0  0  0  0  0  0  0  0  0  0  0
  139.6030   71.5630  224.4420 N   0  0  0  0  0  0  0  0  0  0  0  0
  139.6400   73.6810  223.1790 H   0  0  0  0  0  0  0  0  0  0  0  0
  138.7101   73.9512  220.3254 H   0  0  0  0  0  0  0  0  0  0  0  0
  137.7554   74.8841  221.4876 H   0  0  0  0  0  0  0  0  0  0  0  0
  137.9045   76.5132  219.9204 H   0  0  0  0  0  0  0  0  0  0  0  0
  138.1584   77.9250  220.9772 H   0  0  0  0  0  0  0  0  0  0  0  0
  138.6378   79.1243  219.0246 H   0  0  0  0  0  0  0  0  0  0  0  0
  138.5700   76.5300  217.9890 H   0  0  0  0  0  0  0  0  0  0  0  0
  140.9213   77.3939  218.2924 H   0  0  0  0  0  0  0  0  0  0  0  0
  140.9497   79.0721  218.8621 H   0  0  0  0  0  0  0  0  0  0  0  0
  141.8997   77.1248  220.4838 H   0  0  0  0  0  0  0  0  0  0  0  0
  139.9133   79.0314  221.4865 H   0  0  0  0  0  0  0  0  0  0  0  0
  140.6309   77.5712  223.1787 H   0  0  0  0  0  0  0  0  0  0  0  0
  142.3833   77.7944  222.6404 H   0  0  0  0  0  0  0  0  0  0  0  0
  140.6756   79.4211  224.3785 H   0  0  0  0  0  0  0  0  0  0  0  0
  142.4863   79.0215  224.3674 H   0  0  0  0  0  0  0  0  0  0  0  0
  140.3527   81.0507  222.1484 H   0  0  0  0  0  0  0  0  0  0  0  0
  141.9296   81.8766  221.8122 H   0  0  0  0  0  0  0  0  0  0  0  0
  141.4965   80.2255  220.0285 H   0  0  0  0  0  0  0  0  0  0  0  0
  142.8573   79.6529  220.9731 H   0  0  0  0  0  0  0  0  0  0  0  0
  137.9943   69.4303  222.4637 H   0  0  0  0  0  0  0  0  0  0  0  0
  138.6239   67.8987  224.3197 H   0  0  0  0  0  0  0  0  0  0  0  0
  139.7261   67.5552  226.5013 H   0  0  0  0  0  0  0  0  0  0  0  0
  141.6052   70.8940  228.4205 H   0  0  0  0  0  0  0  0  0  0  0  0
  140.9449   72.3472  226.5439 H   0  0  0  0  0  0  0  0  0  0  0  0
  1  2  2  0
  2  3  1  0
  3  4  1  0
  4  5  1  0
  5  6  2  0
  5  7  1  0
  7  8  1  0
  8  9  1  0
  9 10  1  0
  9 11  1  0
 11 12  1  0
 12 13  1  0
 13 14  1  0
 14 15  1  0
 15 16  1  0
 16 17  1  0
 17 18  1  0
  2 19  1  0
 19 20  2  0
 20 21  1  0
 21 22  2  0
 22 23  1  0
 23 24  2  0
 24 25  1  0
 24 26  1  0
 26 27  2  0
 27 28  1  0
 28 29  2  0
 12  7  1  0
 18 13  1  0
 29 19  1  0
 28 22  1  0
  3 30  1  0
  4 31  1  0
  4 32  1  0
  8 33  1  0
  8 34  1  0
  9 35  1  1
 10 36  1  0
 11 37  1  0
 11 38  1  0
 12 39  1  6
 13 40  1  0
 14 41  1  0
 14 42  1  0
 15 43  1  0
 15 44  1  0
 17 45  1  0
 17 46  1  0
 18 47  1  0
 18 48  1  0
 20 49  1  0
 21 50  1  0
 23 51  1  0
 26 52  1  0
 27 53  1  0
M  END
>  <smiles>  (13) 
O=C(NCC(=O)N1C[C@H](O)C[C@H]1C1CCOCC1)c1ccc2cc(Cl)ccc2n1

>  <score_type>  (13) 
oracle

>  <origin>  (13) 
autodockgpu

>  <m_score__min__energy>  (13) 
-8.0399999999999991

>  <m_primary>  (13) 
energy

>  <rmsd>  (13) 
2.879385393505179

>  <m_score__min__rmsd>  (13) 
2.879385393505179

>  <meeko>  (13) 
{"free_energy": -7.46, "intermolecular_energy": -9.25, "internal_energy": -2.04, "cluster_size": 33, "cluster_id": 1, "rank_in_cluster": 31}

>  <energy>  (13) 
-7.89

>  <cluster_rmsd>  (13) 
1.79

>  <cluster>  (13) 
1

$$$$

     RDKit          3D

 53 56  0  0  0  0  0  0  0  0999 V2000
  140.2270   72.2040  220.5320 O   0  0  0  0  0  0  0  0  0  0  0  0
  139.9000   72.6280  221.6630 C   0  0  0  0  0  0  0  0  0  0  0  0
  139.5370   73.9680  221.9130 N   0  0  0  0  0  0  0  0  0  0  0  0
  139.5120   74.9890  220.8560 C   0  0  0  0  0  0  0  0  0  0  0  0
  139.9350   76.2490  221.5040 C   0  0  0  0  0  0  0  0  0  0  0  0
  139.9190   76.3270  222.7730 O   0  0  0  0  0  0  0  0  0  0  0  0
  140.3690   77.4030  220.8110 N   0  0  0  0  0  0  0  0  0  0  0  0
  139.5540   78.1050  219.8380 C   0  0  0  0  0  0  0  0  0  0  0  0
  140.4860   78.7060  218.8160 C   0  0  2  0  0  0  0  0  0  0  0  0
  140.3490   78.0430  217.5830 O   0  0  0  0  0  0  0  0  0  0  0  0
  141.8390   78.4990  219.4080 C   0  0  0  0  0  0  0  0  0  0  0  0
  141.6140   78.1350  220.8620 C   0  0  1  0  0  0  0  0  0  0  0  0
  141.5000   79.3490  221.7350 C   0  0  0  0  0  0  0  0  0  0  0  0
  142.2640   79.2350  222.9970 C   0  0  0  0  0  0  0  0  0  0  0  0
  142.3000   80.4520  223.8500 C   0  0  0  0  0  0  0  0  0  0  0  0
  142.1360   81.6470  223.2260 O   0  0  0  0  0  0  0  0  0  0  0  0
  141.3910   81.6950  222.0950 C   0  0  0  0  0  0  0  0  0  0  0  0
  141.8490   80.6430  221.0740 C   0  0  0  0  0  0  0  0  0  0  0  0
  139.8920   71.6850  222.7910 C   0  0  0  0  0  0  0  0  0  0  0  0
  139.3330   70.4280  222.6910 C   0  0  0  0  0  0  0  0  0  0  0  0
  139.3400   69.5510  223.7810 C   0  0  0  0  0  0  0  0  0  0  0  0
  139.9090   69.9290  224.9820 C   0  0  0  0  0  0  0  0  0  0  0  0
  139.9420   69.1030  226.0900 C   0  0  0  0  0  0  0  0  0  0  0  0
  140.5210   69.5190  227.2710 C   0  0  0  0  0  0  0  0  0  0  0  0
  140.5790   68.4980  228.6940 Cl  0  0  0  0  0  0  0  0  0  0  0  0
  141.0700   70.7860  227.3310 C   0  0  0  0  0  0  0  0  0  0  0  0
  141.0410   71.6150  226.2330 C   0  0  0  0  0  0  0  0  0  0  0  0
  140.4560   71.1960  225.0340 C   0  0  0  0  0  0  0  0  0  0  0  0
  140.4360   72.0050  223.9850 N   0  0  0  0  0  0  0  0  0  0  0  0
  139.2730   74.2440  222.9030 H   0  0  0  0  0  0  0  0  0  0  0  0
  140.2085   74.7211  220.0479 H   0  0  0  0  0  0  0  0  0  0  0  0
  138.5129   75.0809  220.4049 H   0  0  0  0  0  0  0  0  0  0  0  0
  138.8635   77.4020  219.3492 H   0  0  0  0  0  0  0  0  0  0  0  0
  138.9566   78.8890  220.3262 H   0  0  0  0  0  0  0  0  0  0  0  0
  140.2841   79.7671  218.6076 H   0  0  0  0  0  0  0  0  0  0  0  0
  141.2570   77.7360  217.3350 H   0  0  0  0  0  0  0  0  0  0  0  0
  142.3622   77.6833  218.8874 H   0  0  0  0  0  0  0  0  0  0  0  0
  142.4603   79.4017  219.3126 H   0  0  0  0  0  0  0  0  0  0  0  0
  142.4462   77.5621  221.2970 H   0  0  0  0  0  0  0  0  0  0  0  0
  140.4233   79.3759  221.9587 H   0  0  0  0  0  0  0  0  0  0  0  0
  141.8169   78.4226  223.5887 H   0  0  0  0  0  0  0  0  0  0  0  0
  143.3064   79.0527  222.6968 H   0  0  0  0  0  0  0  0  0  0  0  0
  141.5001   80.3561  224.5990 H   0  0  0  0  0  0  0  0  0  0  0  0
  143.3195   80.4822  224.2619 H   0  0  0  0  0  0  0  0  0  0  0  0
  140.3380   81.5084  222.3525 H   0  0  0  0  0  0  0  0  0  0  0  0
  141.5133   82.6905  221.6432 H   0  0  0  0  0  0  0  0  0  0  0  0
  141.3103   80.7571  220.1218 H   0  0  0  0  0  0  0  0  0  0  0  0
  142.9166   80.7237  220.8217 H   0  0  0  0  0  0  0  0  0  0  0  0
  138.8758   70.1110  221.7420 H   0  0  0  0  0  0  0  0  0  0  0  0
  138.8890   68.5527  223.6811 H   0  0  0  0  0  0  0  0  0  0  0  0
  139.4994   68.0978  226.0290 H   0  0  0  0  0  0  0  0  0  0  0  0
  141.5344   71.1349  228.2651 H   0  0  0  0  0  0  0  0  0  0  0  0
  141.4836   72.6199  226.2993 H   0  0  0  0  0  0  0  0  0  0  0  0
  1  2  2  0
  2  3  1  0
  3  4  1  0
  4  5  1  0
  5  6  2  0
  5  7  1  0
  7  8  1  0
  8  9  1  0
  9 10  1  0
  9 11  1  0
 11 12  1  0
 12 13  1  0
 13 14  1  0
 14 15  1  0
 15 16  1  0
 16 17  1  0
 17 18  1  0
  2 19  1  0
 19 20  2  0
 20 21  1  0
 21 22  2  0
 22 23  1  0
 23 24  2  0
 24 25  1  0
 24 26  1  0
 26 27  2  0
 27 28  1  0
 28 29  2  0
 12  7  1  0
 18 13  1  0
 29 19  1  0
 28 22  1  0
  3 30  1  0
  4 31  1  0
  4 32  1  0
  8 33  1  0
  8 34  1  0
  9 35  1  6
 10 36  1  0
 11 37  1  0
 11 38  1  0
 12 39  1  1
 13 40  1  0
 14 41  1  0
 14 42  1  0
 15 43  1  0
 15 44  1  0
 17 45  1  0
 17 46  1  0
 18 47  1  0
 18 48  1  0
 20 49  1  0
 21 50  1  0
 23 51  1  0
 26 52  1  0
 27 53  1  0
M  END
>  <smiles>  (14) 
O=C(NCC(=O)N1C[C@H](O)C[C@H]1C1CCOCC1)c1ccc2cc(Cl)ccc2n1

>  <score_type>  (14) 
oracle

>  <origin>  (14) 
autodockgpu

>  <m_score__min__energy>  (14) 
-8.0399999999999991

>  <m_primary>  (14) 
energy

>  <rmsd>  (14) 
3.333555518173622

>  <m_score__min__rmsd>  (14) 
3.333555518173622

>  <meeko>  (14) 
{"free_energy": -8.03, "intermolecular_energy": -9.82, "internal_energy": -1.81, "cluster_size": 33, "cluster_id": 1, "rank_in_cluster": 2}

>  <energy>  (14) 
-7.89

>  <cluster_rmsd>  (14) 
1.43

>  <cluster>  (14) 
1

$$$$

     RDKit          3D

 53 56  0  0  0  0  0  0  0  0999 V2000
  139.9970   72.1140  220.6950 O   0  0  0  0  0  0  0  0  0  0  0  0
  139.7660   72.4990  221.8630 C   0  0  0  0  0  0  0  0  0  0  0  0
  139.4260   73.8290  222.1860 N   0  0  0  0  0  0  0  0  0  0  0  0
  139.3140   74.8850  221.1700 C   0  0  0  0  0  0  0  0  0  0  0  0
  139.3800   76.1640  221.9100 C   0  0  0  0  0  0  0  0  0  0  0  0
  138.7780   76.2640  223.0250 O   0  0  0  0  0  0  0  0  0  0  0  0
  140.0740   77.3150  221.4670 N   0  0  0  0  0  0  0  0  0  0  0  0
  140.3020   77.6220  220.0680 C   0  0  0  0  0  0  0  0  0  0  0  0
  141.6090   78.3680  219.9760 C   0  0  2  0  0  0  0  0  0  0  0  0
  142.5850   77.5670  219.3550 O   0  0  0  0  0  0  0  0  0  0  0  0
  141.9530   78.6530  221.4000 C   0  0  0  0  0  0  0  0  0  0  0  0
  140.6910   78.3960  222.2000 C   0  0  1  0  0  0  0  0  0  0  0  0
  139.8020   79.6020  222.2500 C   0  0  0  0  0  0  0  0  0  0  0  0
  138.8930   79.6080  223.4180 C   0  0  0  0  0  0  0  0  0  0  0  0
  138.0740   80.8360  223.6000 C   0  0  0  0  0  0  0  0  0  0  0  0
  138.5680   81.9880  223.0800 O   0  0  0  0  0  0  0  0  0  0  0  0
  139.3630   81.9220  221.9850 C   0  0  0  0  0  0  0  0  0  0  0  0
  140.5080   80.9170  222.1800 C   0  0  0  0  0  0  0  0  0  0  0  0
  139.8500   71.5190  222.9550 C   0  0  0  0  0  0  0  0  0  0  0  0
  139.4300   70.2140  222.8030 C   0  0  0  0  0  0  0  0  0  0  0  0
  139.5220   69.3030  223.8600 C   0  0  0  0  0  0  0  0  0  0  0  0
  140.0380   69.6940  225.0800 C   0  0  0  0  0  0  0  0  0  0  0  0
  140.1510   68.8350  226.1580 C   0  0  0  0  0  0  0  0  0  0  0  0
  140.6720   69.2660  227.3610 C   0  0  0  0  0  0  0  0  0  0  0  0
  140.8280   68.2040  228.7460 Cl  0  0  0  0  0  0  0  0  0  0  0  0
  141.0820   70.5810  227.4730 C   0  0  0  0  0  0  0  0  0  0  0  0
  140.9730   71.4430  226.4060 C   0  0  0  0  0  0  0  0  0  0  0  0
  140.4450   71.0090  225.1860 C   0  0  0  0  0  0  0  0  0  0  0  0
  140.3460   71.8500  224.1660 N   0  0  0  0  0  0  0  0  0  0  0  0
  139.2450   74.0720  223.2040 H   0  0  0  0  0  0  0  0  0  0  0  0
  140.1438   74.8149  220.4514 H   0  0  0  0  0  0  0  0  0  0  0  0
  138.3800   74.7971  220.5956 H   0  0  0  0  0  0  0  0  0  0  0  0
  140.3583   76.6918  219.4835 H   0  0  0  0  0  0  0  0  0  0  0  0
  139.4789   78.2305  219.6653 H   0  0  0  0  0  0  0  0  0  0  0  0
  141.5488   79.2859  219.3728 H   0  0  0  0  0  0  0  0  0  0  0  0
  143.4570   77.8740  219.7080 H   0  0  0  0  0  0  0  0  0  0  0  0
  142.7607   77.9870  221.7377 H   0  0  0  0  0  0  0  0  0  0  0  0
  142.3049   79.6873  221.5279 H   0  0  0  0  0  0  0  0  0  0  0  0
  140.8889   78.1582  223.2556 H   0  0  0  0  0  0  0  0  0  0  0  0
  139.2139   79.4982  221.3262 H   0  0  0  0  0  0  0  0  0  0  0  0
  138.2044   78.7566  223.3130 H   0  0  0  0  0  0  0  0  0  0  0  0
  139.5454   79.5527  224.3020 H   0  0  0  0  0  0  0  0  0  0  0  0
  137.0948   80.6541  223.1331 H   0  0  0  0  0  0  0  0  0  0  0  0
  138.0454   81.0021  224.6870 H   0  0  0  0  0  0  0  0  0  0  0  0
  138.7569   81.6101  221.1216 H   0  0  0  0  0  0  0  0  0  0  0  0
  139.8019   82.9166  221.8169 H   0  0  0  0  0  0  0  0  0  0  0  0
  141.2060   80.9449  221.3302 H   0  0  0  0  0  0  0  0  0  0  0  0
  141.1179   81.1264  223.0712 H   0  0  0  0  0  0  0  0  0  0  0  0
  139.0173   69.8856  221.8377 H   0  0  0  0  0  0  0  0  0  0  0  0
  139.1807   68.2669  223.7187 H   0  0  0  0  0  0  0  0  0  0  0  0
  139.8201   67.7910  226.0548 H   0  0  0  0  0  0  0  0  0  0  0  0
  141.4996   70.9421  228.4244 H   0  0  0  0  0  0  0  0  0  0  0  0
  141.3052   72.4861  226.5140 H   0  0  0  0  0  0  0  0  0  0  0  0
  1  2  2  0
  2  3  1  0
  3  4  1  0
  4  5  1  0
  5  6  2  0
  5  7  1  0
  7  8  1  0
  8  9  1  0
  9 10  1  0
  9 11  1  0
 11 12  1  0
 12 13  1  0
 13 14  1  0
 14 15  1  0
 15 16  1  0
 16 17  1  0
 17 18  1  0
  2 19  1  0
 19 20  2  0
 20 21  1  0
 21 22  2  0
 22 23  1  0
 23 24  2  0
 24 25  1  0
 24 26  1  0
 26 27  2  0
 27 28  1  0
 28 29  2  0
 12  7  1  0
 18 13  1  0
 29 19  1  0
 28 22  1  0
  3 30  1  0
  4 31  1  0
  4 32  1  0
  8 33  1  0
  8 34  1  0
  9 35  1  6
 10 36  1  0
 11 37  1  0
 11 38  1  0
 12 39  1  1
 13 40  1  0
 14 41  1  0
 14 42  1  0
 15 43  1  0
 15 44  1  0
 17 45  1  0
 17 46  1  0
 18 47  1  0
 18 48  1  0
 20 49  1  0
 21 50  1  0
 23 51  1  0
 26 52  1  0
 27 53  1  0
M  END
>  <smiles>  (15) 
O=C(NCC(=O)N1C[C@H](O)C[C@H]1C1CCOCC1)c1ccc2cc(Cl)ccc2n1

>  <score_type>  (15) 
oracle

>  <origin>  (15) 
autodockgpu

>  <m_score__min__energy>  (15) 
-8.0399999999999991

>  <m_primary>  (15) 
energy

>  <rmsd>  (15) 
3.4317008802982807

>  <m_score__min__rmsd>  (15) 
3.4317008802982807

>  <meeko>  (15) 
{"free_energy": -7.89, "intermolecular_energy": -9.68, "internal_energy": -1.81, "cluster_size": 33, "cluster_id": 1, "rank_in_cluster": 14}

>  <energy>  (15) 
-7.89

>  <cluster_rmsd>  (15) 
1.78

>  <cluster>  (15) 
1

$$$$

     RDKit          3D

 53 56  0  0  0  0  0  0  0  0999 V2000
  138.8870   71.7840  220.7210 O   0  0  0  0  0  0  0  0  0  0  0  0
  139.1830   72.2440  221.8460 C   0  0  0  0  0  0  0  0  0  0  0  0
  139.3180   73.6240  222.1070 N   0  0  0  0  0  0  0  0  0  0  0  0
  139.1210   74.6460  221.0690 C   0  0  0  0  0  0  0  0  0  0  0  0
  139.5810   75.9190  221.6650 C   0  0  0  0  0  0  0  0  0  0  0  0
  139.3980   76.1210  222.9080 O   0  0  0  0  0  0  0  0  0  0  0  0
  140.2240   76.9560  220.9500 N   0  0  0  0  0  0  0  0  0  0  0  0
  139.6620   77.5790  219.7670 C   0  0  0  0  0  0  0  0  0  0  0  0
  140.8120   78.0010  218.8880 C   0  0  2  0  0  0  0  0  0  0  0  0
  140.8600   77.2030  217.7310 O   0  0  0  0  0  0  0  0  0  0  0  0
  142.0110   77.7930  219.7520 C   0  0  0  0  0  0  0  0  0  0  0  0
  141.4890   77.6200  221.1650 C   0  0  1  0  0  0  0  0  0  0  0  0
  141.3060   78.9350  221.8630 C   0  0  0  0  0  0  0  0  0  0  0  0
  140.1170   78.9690  222.7420 C   0  0  0  0  0  0  0  0  0  0  0  0
  139.9480   80.1980  223.5630 C   0  0  0  0  0  0  0  0  0  0  0  0
  141.0720   80.8980  223.8610 O   0  0  0  0  0  0  0  0  0  0  0  0
  142.1130   80.8610  222.9960 C   0  0  0  0  0  0  0  0  0  0  0  0
  142.4920   79.4180  222.6330 C   0  0  0  0  0  0  0  0  0  0  0  0
  139.4010   71.3040  222.9550 C   0  0  0  0  0  0  0  0  0  0  0  0
  139.0160   69.9810  222.8810 C   0  0  0  0  0  0  0  0  0  0  0  0
  139.2360   69.1090  223.9520 C   0  0  0  0  0  0  0  0  0  0  0  0
  139.8460   69.5580  225.1080 C   0  0  0  0  0  0  0  0  0  0  0  0
  140.0860   68.7390  226.1960 C   0  0  0  0  0  0  0  0  0  0  0  0
  140.6980   69.2260  227.3320 C   0  0  0  0  0  0  0  0  0  0  0  0
  141.0170   68.2160  228.7290 Cl  0  0  0  0  0  0  0  0  0  0  0  0
  141.0680   70.5570  227.3670 C   0  0  0  0  0  0  0  0  0  0  0  0
  140.8320   71.3790  226.2890 C   0  0  0  0  0  0  0  0  0  0  0  0
  140.2130   70.8880  225.1360 C   0  0  0  0  0  0  0  0  0  0  0  0
  139.9920   71.6910  224.1050 N   0  0  0  0  0  0  0  0  0  0  0  0
  139.5710   73.9310  223.0910 H   0  0  0  0  0  0  0  0  0  0  0  0
  139.7156   74.4043  220.1757 H   0  0  0  0  0  0  0  0  0  0  0  0
  138.0692   74.7039  220.7521 H   0  0  0  0  0  0  0  0  0  0  0  0
  139.0237   76.8608  219.2315 H   0  0  0  0  0  0  0  0  0  0  0  0
  139.0453   78.4474  220.0420 H   0  0  0  0  0  0  0  0  0  0  0  0
  140.7334   79.0386  218.5313 H   0  0  0  0  0  0  0  0  0  0  0  0
  140.0880   77.4770  217.1760 H   0  0  0  0  0  0  0  0  0  0  0  0
  142.5582   76.8930  219.4347 H   0  0  0  0  0  0  0  0  0  0  0  0
  142.7071   78.6419  219.6829 H   0  0  0  0  0  0  0  0  0  0  0  0
  142.1781   77.0597  221.8141 H   0  0  0  0  0  0  0  0  0  0  0  0
  141.1599   79.6280  221.0213 H   0  0  0  0  0  0  0  0  0  0  0  0
  139.2254   78.8636  222.1064 H   0  0  0  0  0  0  0  0  0  0  0  0
  140.2564   78.1486  223.4614 H   0  0  0  0  0  0  0  0  0  0  0  0
  139.2721   80.8721  223.0165 H   0  0  0  0  0  0  0  0  0  0  0  0
  139.5656   79.8446  224.5320 H   0  0  0  0  0  0  0  0  0  0  0  0
  141.8342   81.3991  222.0780 H   0  0  0  0  0  0  0  0  0  0  0  0
  142.9803   81.3345  223.4793 H   0  0  0  0  0  0  0  0  0  0  0  0
  143.4008   79.3931  222.0137 H   0  0  0  0  0  0  0  0  0  0  0  0
  142.7161   78.7972  223.5130 H   0  0  0  0  0  0  0  0  0  0  0  0
  138.5298   69.6074  221.9678 H   0  0  0  0  0  0  0  0  0  0  0  0
  138.9212   68.0579  223.8737 H   0  0  0  0  0  0  0  0  0  0  0  0
  139.7840   67.6821  226.1548 H   0  0  0  0  0  0  0  0  0  0  0  0
  141.5559   70.9633  228.2653 H   0  0  0  0  0  0  0  0  0  0  0  0
  141.1343   72.4356  226.3352 H   0  0  0  0  0  0  0  0  0  0  0  0
  1  2  2  0
  2  3  1  0
  3  4  1  0
  4  5  1  0
  5  6  2  0
  5  7  1  0
  7  8  1  0
  8  9  1  0
  9 10  1  0
  9 11  1  0
 11 12  1  0
 12 13  1  0
 13 14  1  0
 14 15  1  0
 15 16  1  0
 16 17  1  0
 17 18  1  0
  2 19  1  0
 19 20  2  0
 20 21  1  0
 21 22  2  0
 22 23  1  0
 23 24  2  0
 24 25  1  0
 24 26  1  0
 26 27  2  0
 27 28  1  0
 28 29  2  0
 12  7  1  0
 18 13  1  0
 29 19  1  0
 28 22  1  0
  3 30  1  0
  4 31  1  0
  4 32  1  0
  8 33  1  0
  8 34  1  0
  9 35  1  6
 10 36  1  0
 11 37  1  0
 11 38  1  0
 12 39  1  1
 13 40  1  0
 14 41  1  0
 14 42  1  0
 15 43  1  0
 15 44  1  0
 17 45  1  0
 17 46  1  0
 18 47  1  0
 18 48  1  0
 20 49  1  0
 21 50  1  0
 23 51  1  0
 26 52  1  0
 27 53  1  0
M  END
>  <smiles>  (16) 
O=C(NCC(=O)N1C[C@H](O)C[C@H]1C1CCOCC1)c1ccc2cc(Cl)ccc2n1

>  <score_type>  (16) 
oracle

>  <origin>  (16) 
autodockgpu

>  <m_score__min__energy>  (16) 
-8.0399999999999991

>  <m_primary>  (16) 
energy

>  <rmsd>  (16) 
3.0204622269782706

>  <m_score__min__rmsd>  (16) 
3.0204622269782706

>  <meeko>  (16) 
{"free_energy": -7.75, "intermolecular_energy": -9.54, "internal_energy": -1.95, "cluster_size": 33, "cluster_id": 1, "rank_in_cluster": 19}

>  <energy>  (16) 
-7.86

>  <cluster_rmsd>  (16) 
1.81

>  <cluster>  (16) 
1

$$$$

     RDKit          3D

 53 56  0  0  0  0  0  0  0  0999 V2000
  139.5290   72.0950  220.5700 O   0  0  0  0  0  0  0  0  0  0  0  0
  139.5720   72.5410  221.7380 C   0  0  0  0  0  0  0  0  0  0  0  0
  139.5360   73.9170  222.0440 N   0  0  0  0  0  0  0  0  0  0  0  0
  139.4440   74.9540  221.0060 C   0  0  0  0  0  0  0  0  0  0  0  0
  140.1610   76.1290  221.5460 C   0  0  0  0  0  0  0  0  0  0  0  0
  140.6560   76.0660  222.7160 O   0  0  0  0  0  0  0  0  0  0  0  0
  140.3460   77.3480  220.8530 N   0  0  0  0  0  0  0  0  0  0  0  0
  139.2990   77.9990  220.0880 C   0  0  0  0  0  0  0  0  0  0  0  0
  139.9610   78.7320  218.9490 C   0  0  2  0  0  0  0  0  0  0  0  0
  139.6580   78.1070  217.7250 O   0  0  0  0  0  0  0  0  0  0  0  0
  141.4150   78.6420  219.2690 C   0  0  0  0  0  0  0  0  0  0  0  0
  141.5030   78.2020  220.7170 C   0  0  1  0  0  0  0  0  0  0  0  0
  141.4420   79.3630  221.6630 C   0  0  0  0  0  0  0  0  0  0  0  0
  142.2010   79.1380  222.9130 C   0  0  0  0  0  0  0  0  0  0  0  0
  142.2890   80.2980  223.8400 C   0  0  0  0  0  0  0  0  0  0  0  0
  142.1760   81.5340  223.2920 O   0  0  0  0  0  0  0  0  0  0  0  0
  141.4330   81.6840  222.1690 C   0  0  0  0  0  0  0  0  0  0  0  0
  141.8450   80.6790  221.0830 C   0  0  0  0  0  0  0  0  0  0  0  0
  139.6640   71.5850  222.8510 C   0  0  0  0  0  0  0  0  0  0  0  0
  139.1840   70.2950  222.7520 C   0  0  0  0  0  0  0  0  0  0  0  0
  139.2840   69.4070  223.8270 C   0  0  0  0  0  0  0  0  0  0  0  0
  139.8690   69.8060  225.0140 C   0  0  0  0  0  0  0  0  0  0  0  0
  139.9940   68.9700  226.1080 C   0  0  0  0  0  0  0  0  0  0  0  0
  140.5840   69.4080  227.2760 C   0  0  0  0  0  0  0  0  0  0  0  0
  140.7580   68.3740  228.6800 Cl  0  0  0  0  0  0  0  0  0  0  0  0
  141.0530   70.7060  227.3350 C   0  0  0  0  0  0  0  0  0  0  0  0
  140.9330   71.5460  226.2520 C   0  0  0  0  0  0  0  0  0  0  0  0
  140.3350   71.1050  225.0670 C   0  0  0  0  0  0  0  0  0  0  0  0
  140.2260   71.9240  224.0310 N   0  0  0  0  0  0  0  0  0  0  0  0
  139.5770   74.2110  223.0630 H   0  0  0  0  0  0  0  0  0  0  0  0
  139.9200   74.6088  220.0763 H   0  0  0  0  0  0  0  0  0  0  0  0
  138.3979   75.1937  220.7647 H   0  0  0  0  0  0  0  0  0  0  0  0
  138.5984   77.2477  219.6947 H   0  0  0  0  0  0  0  0  0  0  0  0
  138.7324   78.6972  220.7216 H   0  0  0  0  0  0  0  0  0  0  0  0
  139.6240   79.7738  218.8435 H   0  0  0  0  0  0  0  0  0  0  0  0
  139.6050   77.1370  217.9190 H   0  0  0  0  0  0  0  0  0  0  0  0
  141.9042   77.9043  218.6159 H   0  0  0  0  0  0  0  0  0  0  0  0
  141.9205   79.6062  219.1117 H   0  0  0  0  0  0  0  0  0  0  0  0
  142.4524   77.7022  220.9596 H   0  0  0  0  0  0  0  0  0  0  0  0
  140.3675   79.4224  221.8909 H   0  0  0  0  0  0  0  0  0  0  0  0
  141.7199   78.3101  223.4545 H   0  0  0  0  0  0  0  0  0  0  0  0
  143.2346   78.9301  222.5991 H   0  0  0  0  0  0  0  0  0  0  0  0
  141.4859   80.1901  224.5839 H   0  0  0  0  0  0  0  0  0  0  0  0
  143.3090   80.2594  224.2501 H   0  0  0  0  0  0  0  0  0  0  0  0
  140.3732   81.5267  222.4180 H   0  0  0  0  0  0  0  0  0  0  0  0
  141.5973   82.6996  221.7796 H   0  0  0  0  0  0  0  0  0  0  0  0
  141.3109   80.8750  220.1415 H   0  0  0  0  0  0  0  0  0  0  0  0
  142.9149   80.7299  220.8326 H   0  0  0  0  0  0  0  0  0  0  0  0
  138.7162   69.9608  221.8142 H   0  0  0  0  0  0  0  0  0  0  0  0
  138.8942   68.3832  223.7275 H   0  0  0  0  0  0  0  0  0  0  0  0
  139.6169   67.9385  226.0463 H   0  0  0  0  0  0  0  0  0  0  0  0
  141.5274   71.0718  228.2576 H   0  0  0  0  0  0  0  0  0  0  0  0
  141.3118   72.5765  226.3189 H   0  0  0  0  0  0  0  0  0  0  0  0
  1  2  2  0
  2  3  1  0
  3  4  1  0
  4  5  1  0
  5  6  2  0
  5  7  1  0
  7  8  1  0
  8  9  1  0
  9 10  1  0
  9 11  1  0
 11 12  1  0
 12 13  1  0
 13 14  1  0
 14 15  1  0
 15 16  1  0
 16 17  1  0
 17 18  1  0
  2 19  1  0
 19 20  2  0
 20 21  1  0
 21 22  2  0
 22 23  1  0
 23 24  2  0
 24 25  1  0
 24 26  1  0
 26 27  2  0
 27 28  1  0
 28 29  2  0
 12  7  1  0
 18 13  1  0
 29 19  1  0
 28 22  1  0
  3 30  1  0
  4 31  1  0
  4 32  1  0
  8 33  1  0
  8 34  1  0
  9 35  1  6
 10 36  1  0
 11 37  1  0
 11 38  1  0
 12 39  1  6
 13 40  1  0
 14 41  1  0
 14 42  1  0
 15 43  1  0
 15 44  1  0
 17 45  1  0
 17 46  1  0
 18 47  1  0
 18 48  1  0
 20 49  1  0
 21 50  1  0
 23 51  1  0
 26 52  1  0
 27 53  1  0
M  END
>  <smiles>  (17) 
O=C(NCC(=O)N1C[C@H](O)C[C@H]1C1CCOCC1)c1ccc2cc(Cl)ccc2n1

>  <score_type>  (17) 
oracle

>  <origin>  (17) 
autodockgpu

>  <m_score__min__energy>  (17) 
-8.0399999999999991

>  <m_primary>  (17) 
energy

>  <rmsd>  (17) 
3.2636765724392816

>  <m_score__min__rmsd>  (17) 
3.2636765724392816

>  <meeko>  (17) 
{"free_energy": -7.9, "intermolecular_energy": -9.69, "internal_energy": -1.95, "cluster_size": 33, "cluster_id": 1, "rank_in_cluster": 10}

>  <energy>  (17) 
-7.81

>  <cluster_rmsd>  (17) 
1.91

>  <cluster>  (17) 
1

$$$$

     RDKit          3D

 53 56  0  0  0  0  0  0  0  0999 V2000
  138.4180   73.5090  221.0750 O   0  0  0  0  0  0  0  0  0  0  0  0
  139.4960   73.1360  221.5870 C   0  0  0  0  0  0  0  0  0  0  0  0
  140.7590   73.5830  221.1450 N   0  0  0  0  0  0  0  0  0  0  0  0
  140.9150   74.5330  220.0340 C   0  0  0  0  0  0  0  0  0  0  0  0
  141.1860   75.8440  220.6610 C   0  0  0  0  0  0  0  0  0  0  0  0
  142.3140   76.3990  220.4700 O   0  0  0  0  0  0  0  0  0  0  0  0
  140.2710   76.5510  221.4760 N   0  0  0  0  0  0  0  0  0  0  0  0
  139.6680   75.9920  222.6710 C   0  0  0  0  0  0  0  0  0  0  0  0
  138.2990   76.6060  222.8170 C   0  0  2  0  0  0  0  0  0  0  0  0
  137.3040   75.6430  222.5720 O   0  0  0  0  0  0  0  0  0  0  0  0
  138.2870   77.6870  221.7890 C   0  0  0  0  0  0  0  0  0  0  0  0
  139.7290   77.8850  221.3650 C   0  0  1  0  0  0  0  0  0  0  0  0
  140.4520   78.8470  222.2610 C   0  0  0  0  0  0  0  0  0  0  0  0
  141.8970   78.9490  221.9610 C   0  0  0  0  0  0  0  0  0  0  0  0
  142.6490   79.9790  222.7250 C   0  0  0  0  0  0  0  0  0  0  0  0
  141.9430   81.0430  223.1850 O   0  0  0  0  0  0  0  0  0  0  0  0
  140.6310   80.8780  223.4800 C   0  0  0  0  0  0  0  0  0  0  0  0
  139.8710   80.2220  222.3180 C   0  0  0  0  0  0  0  0  0  0  0  0
  139.4510   72.1850  222.7080 C   0  0  0  0  0  0  0  0  0  0  0  0
  138.5220   71.1670  222.7670 C   0  0  0  0  0  0  0  0  0  0  0  0
  138.5020   70.2770  223.8450 C   0  0  0  0  0  0  0  0  0  0  0  0
  139.4160   70.4000  224.8740 C   0  0  0  0  0  0  0  0  0  0  0  0
  139.4400   69.5480  225.9630 C   0  0  0  0  0  0  0  0  0  0  0  0
  140.3700   69.7060  226.9700 C   0  0  0  0  0  0  0  0  0  0  0  0
  140.4280   68.6440  228.3630 Cl  0  0  0  0  0  0  0  0  0  0  0  0
  141.2840   70.7370  226.8730 C   0  0  0  0  0  0  0  0  0  0  0  0
  141.2670   71.5900  225.7930 C   0  0  0  0  0  0  0  0  0  0  0  0
  140.3260   71.4330  224.7710 C   0  0  0  0  0  0  0  0  0  0  0  0
  140.3210   72.2610  223.7370 N   0  0  0  0  0  0  0  0  0  0  0  0
  141.6260   73.2170  221.6350 H   0  0  0  0  0  0  0  0  0  0  0  0
  141.7557   74.2350  219.3903 H   0  0  0  0  0  0  0  0  0  0  0  0
  140.0170   74.5653  219.3995 H   0  0  0  0  0  0  0  0  0  0  0  0
  139.5813   74.8999  222.5723 H   0  0  0  0  0  0  0  0  0  0  0  0
  140.2862   76.2086  223.5547 H   0  0  0  0  0  0  0  0  0  0  0  0
  138.0965   76.9925  223.8268 H   0  0  0  0  0  0  0  0  0  0  0  0
  137.7340   74.7630  222.7080 H   0  0  0  0  0  0  0  0  0  0  0  0
  137.6741   77.3860  220.9266 H   0  0  0  0  0  0  0  0  0  0  0  0
  137.8564   78.6163  222.1902 H   0  0  0  0  0  0  0  0  0  0  0  0
  139.8281   78.3205  220.3597 H   0  0  0  0  0  0  0  0  0  0  0  0
  140.3139   78.3933  223.2535 H   0  0  0  0  0  0  0  0  0  0  0  0
  142.3548   77.9715  222.1730 H   0  0  0  0  0  0  0  0  0  0  0  0
  141.9605   79.2560  220.9066 H   0  0  0  0  0  0  0  0  0  0  0  0
  143.1032   79.4813  223.5945 H   0  0  0  0  0  0  0  0  0  0  0  0
  143.3658   80.4015  222.0055 H   0  0  0  0  0  0  0  0  0  0  0  0
  140.5426   80.2389  224.3709 H   0  0  0  0  0  0  0  0  0  0  0  0
  140.1913   81.8694  223.6640 H   0  0  0  0  0  0  0  0  0  0  0  0
  138.7911   80.1854  222.5241 H   0  0  0  0  0  0  0  0  0  0  0  0
  139.9733   80.7724  221.3711 H   0  0  0  0  0  0  0  0  0  0  0  0
  137.7878   71.0541  221.9557 H   0  0  0  0  0  0  0  0  0  0  0  0
  137.7526   69.4723  223.8743 H   0  0  0  0  0  0  0  0  0  0  0  0
  138.7060   68.7313  226.0275 H   0  0  0  0  0  0  0  0  0  0  0  0
  142.0327   70.8777  227.6665 H   0  0  0  0  0  0  0  0  0  0  0  0
  142.0029   72.4054  225.7332 H   0  0  0  0  0  0  0  0  0  0  0  0
  1  2  2  0
  2  3  1  0
  3  4  1  0
  4  5  1  0
  5  6  2  0
  5  7  1  0
  7  8  1  0
  8  9  1  0
  9 10  1  0
  9 11  1  0
 11 12  1  0
 12 13  1  0
 13 14  1  0
 14 15  1  0
 15 16  1  0
 16 17  1  0
 17 18  1  0
  2 19  1  0
 19 20  2  0
 20 21  1  0
 21 22  2  0
 22 23  1  0
 23 24  2  0
 24 25  1  0
 24 26  1  0
 26 27  2  0
 27 28  1  0
 28 29  2  0
 12  7  1  0
 18 13  1  0
 29 19  1  0
 28 22  1  0
  3 30  1  0
  4 31  1  0
  4 32  1  0
  8 33  1  0
  8 34  1  0
  9 35  1  1
 10 36  1  0
 11 37  1  0
 11 38  1  0
 12 39  1  6
 13 40  1  0
 14 41  1  0
 14 42  1  0
 15 43  1  0
 15 44  1  0
 17 45  1  0
 17 46  1  0
 18 47  1  0
 18 48  1  0
 20 49  1  0
 21 50  1  0
 23 51  1  0
 26 52  1  0
 27 53  1  0
M  END
>  <smiles>  (18) 
O=C(NCC(=O)N1C[C@H](O)C[C@H]1C1CCOCC1)c1ccc2cc(Cl)ccc2n1

>  <score_type>  (18) 
oracle

>  <origin>  (18) 
autodockgpu

>  <m_score__min__energy>  (18) 
-8.0399999999999991

>  <m_primary>  (18) 
energy

>  <rmsd>  (18) 
3.5395905233914307

>  <m_score__min__rmsd>  (18) 
3.5395905233914307

>  <meeko>  (18) 
{"free_energy": -7.15, "intermolecular_energy": -8.94, "internal_energy": -2.25, "cluster_size": 33, "cluster_id": 1, "rank_in_cluster": 33}

>  <energy>  (18) 
-7.79

>  <cluster_rmsd>  (18) 
1.84

>  <cluster>  (18) 
1

$$$$

     RDKit          3D

 53 56  0  0  0  0  0  0  0  0999 V2000
  138.6720   71.9700  220.8780 O   0  0  0  0  0  0  0  0  0  0  0  0
  139.0500   72.3940  221.9920 C   0  0  0  0  0  0  0  0  0  0  0  0
  139.2570   73.7620  222.2710 N   0  0  0  0  0  0  0  0  0  0  0  0
  139.0450   74.8130  221.2660 C   0  0  0  0  0  0  0  0  0  0  0  0
  140.1970   75.7310  221.3960 C   0  0  0  0  0  0  0  0  0  0  0  0
  141.1650   75.4050  222.1530 O   0  0  0  0  0  0  0  0  0  0  0  0
  140.3130   76.9750  220.7310 N   0  0  0  0  0  0  0  0  0  0  0  0
  139.2220   77.5990  220.0060 C   0  0  0  0  0  0  0  0  0  0  0  0
  139.8250   78.3890  218.8730 C   0  0  2  0  0  0  0  0  0  0  0  0
  139.5210   77.7820  217.6400 O   0  0  0  0  0  0  0  0  0  0  0  0
  141.2890   78.3540  219.1580 C   0  0  0  0  0  0  0  0  0  0  0  0
  141.4290   77.8810  220.5920 C   0  0  1  0  0  0  0  0  0  0  0  0
  141.3410   79.0140  221.5700 C   0  0  0  0  0  0  0  0  0  0  0  0
  141.7290   78.6300  222.9440 C   0  0  0  0  0  0  0  0  0  0  0  0
  141.7880   79.7360  223.9380 C   0  0  0  0  0  0  0  0  0  0  0  0
  142.0200   80.9840  223.4570 O   0  0  0  0  0  0  0  0  0  0  0  0
  141.6040   81.2880  222.2040 C   0  0  0  0  0  0  0  0  0  0  0  0
  142.0870   80.2490  221.1830 C   0  0  0  0  0  0  0  0  0  0  0  0
  139.2900   71.4230  223.0690 C   0  0  0  0  0  0  0  0  0  0  0  0
  138.9090   70.1010  222.9620 C   0  0  0  0  0  0  0  0  0  0  0  0
  139.1510   69.1980  224.0030 C   0  0  0  0  0  0  0  0  0  0  0  0
  139.7780   69.6150  225.1610 C   0  0  0  0  0  0  0  0  0  0  0  0
  140.0400   68.7650  226.2200 C   0  0  0  0  0  0  0  0  0  0  0  0
  140.6700   69.2210  227.3600 C   0  0  0  0  0  0  0  0  0  0  0  0
  141.0160   68.1720  228.7200 Cl  0  0  0  0  0  0  0  0  0  0  0  0
  141.0360   70.5520  227.4280 C   0  0  0  0  0  0  0  0  0  0  0  0
  140.7780   71.4050  226.3800 C   0  0  0  0  0  0  0  0  0  0  0  0
  140.1410   70.9450  225.2230 C   0  0  0  0  0  0  0  0  0  0  0  0
  139.9000   71.7780  224.2200 N   0  0  0  0  0  0  0  0  0  0  0  0
  139.5790   74.0370  223.2450 H   0  0  0  0  0  0  0  0  0  0  0  0
  139.0141   74.3773  220.2564 H   0  0  0  0  0  0  0  0  0  0  0  0
  138.0900   75.3362  221.4218 H   0  0  0  0  0  0  0  0  0  0  0  0
  138.5458   76.8280  219.6082 H   0  0  0  0  0  0  0  0  0  0  0  0
  138.6407   78.2556  220.6701 H   0  0  0  0  0  0  0  0  0  0  0  0
  139.4413   79.4175  218.8028 H   0  0  0  0  0  0  0  0  0  0  0  0
  138.6870   78.2100  217.3220 H   0  0  0  0  0  0  0  0  0  0  0  0
  141.7940   77.6552  218.4748 H   0  0  0  0  0  0  0  0  0  0  0  0
  141.7492   79.3428  219.0151 H   0  0  0  0  0  0  0  0  0  0  0  0
  142.4041   77.4163  220.8000 H   0  0  0  0  0  0  0  0  0  0  0  0
  140.2692   79.2605  221.5465 H   0  0  0  0  0  0  0  0  0  0  0  0
  140.9991   77.8908  223.3058 H   0  0  0  0  0  0  0  0  0  0  0  0
  142.7569   78.2462  222.8658 H   0  0  0  0  0  0  0  0  0  0  0  0
  140.8242   79.7582  224.4676 H   0  0  0  0  0  0  0  0  0  0  0  0
  142.6586   79.5065  224.5700 H   0  0  0  0  0  0  0  0  0  0  0  0
  140.5045   81.3185  222.1900 H   0  0  0  0  0  0  0  0  0  0  0  0
  142.0266   82.2653  221.9278 H   0  0  0  0  0  0  0  0  0  0  0  0
  141.8342   80.5570  220.1577 H   0  0  0  0  0  0  0  0  0  0  0  0
  143.1785   80.1128  221.1911 H   0  0  0  0  0  0  0  0  0  0  0  0
  138.4086   69.7526  222.0465 H   0  0  0  0  0  0  0  0  0  0  0  0
  138.8396   68.1482  223.8985 H   0  0  0  0  0  0  0  0  0  0  0  0
  139.7414   67.7085  226.1525 H   0  0  0  0  0  0  0  0  0  0  0  0
  141.5386   70.9331  228.3292 H   0  0  0  0  0  0  0  0  0  0  0  0
  141.0762   72.4613  226.4529 H   0  0  0  0  0  0  0  0  0  0  0  0
  1  2  2  0
  2  3  1  0
  3  4  1  0
  4  5  1  0
  5  6  2  0
  5  7  1  0
  7  8  1  0
  8  9  1  0
  9 10  1  0
  9 11  1  0
 11 12  1  0
 12 13  1  0
 13 14  1  0
 14 15  1  0
 15 16  1  0
 16 17  1  0
 17 18  1  0
  2 19  1  0
 19 20  2  0
 20 21  1  0
 21 22  2  0
 22 23  1  0
 23 24  2  0
 24 25  1  0
 24 26  1  0
 26 27  2  0
 27 28  1  0
 28 29  2  0
 12  7  1  0
 18 13  1  0
 29 19  1  0
 28 22  1  0
  3 30  1  0
  4 31  1  0
  4 32  1  0
  8 33  1  0
  8 34  1  0
  9 35  1  6
 10 36  1  0
 11 37  1  0
 11 38  1  0
 12 39  1  6
 13 40  1  0
 14 41  1  0
 14 42  1  0
 15 43  1  0
 15 44  1  0
 17 45  1  0
 17 46  1  0
 18 47  1  0
 18 48  1  0
 20 49  1  0
 21 50  1  0
 23 51  1  0
 26 52  1  0
 27 53  1  0
M  END
>  <smiles>  (19) 
O=C(NCC(=O)N1C[C@H](O)C[C@H]1C1CCOCC1)c1ccc2cc(Cl)ccc2n1

>  <score_type>  (19) 
oracle

>  <origin>  (19) 
autodockgpu

>  <m_score__min__energy>  (19) 
-8.0399999999999991

>  <m_primary>  (19) 
energy

>  <rmsd>  (19) 
3.046338753101095

>  <m_score__min__rmsd>  (19) 
3.046338753101095

>  <meeko>  (19) 
{"free_energy": -7.7, "intermolecular_energy": -9.49, "internal_energy": -1.83, "cluster_size": 33, "cluster_id": 1, "rank_in_cluster": 23}

>  <energy>  (19) 
-7.75

>  <cluster_rmsd>  (19) 
1.83

>  <cluster>  (19) 
1

$$$$

     RDKit          3D

 53 56  0  0  0  0  0  0  0  0999 V2000
  138.9910   72.0840  220.8550 O   0  0  0  0  0  0  0  0  0  0  0  0
  139.2460   72.4970  222.0080 C   0  0  0  0  0  0  0  0  0  0  0  0
  139.3290   73.8650  222.3410 N   0  0  0  0  0  0  0  0  0  0  0  0
  139.1220   74.9320  221.3510 C   0  0  0  0  0  0  0  0  0  0  0  0
  140.4460   75.5580  221.1510 C   0  0  0  0  0  0  0  0  0  0  0  0
  141.4930   74.8930  221.4340 O   0  0  0  0  0  0  0  0  0  0  0  0
  140.6510   76.8680  220.6570 N   0  0  0  0  0  0  0  0  0  0  0  0
  139.5880   77.6920  220.1120 C   0  0  0  0  0  0  0  0  0  0  0  0
  140.1990   78.5770  219.0560 C   0  0  2  0  0  0  0  0  0  0  0  0
  139.7580   78.1880  217.7780 O   0  0  0  0  0  0  0  0  0  0  0  0
  141.6670   78.3630  219.2210 C   0  0  0  0  0  0  0  0  0  0  0  0
  141.8450   77.6750  220.5610 C   0  0  1  0  0  0  0  0  0  0  0  0
  141.9360   78.6570  221.6900 C   0  0  0  0  0  0  0  0  0  0  0  0
  141.8040   80.0640  221.2520 C   0  0  0  0  0  0  0  0  0  0  0  0
  141.7570   81.0820  222.3350 C   0  0  0  0  0  0  0  0  0  0  0  0
  141.3050   80.6710  223.5470 O   0  0  0  0  0  0  0  0  0  0  0  0
  141.4910   79.3790  223.9090 C   0  0  0  0  0  0  0  0  0  0  0  0
  140.9950   78.4130  222.8240 C   0  0  0  0  0  0  0  0  0  0  0  0
  139.4700   71.5090  223.0740 C   0  0  0  0  0  0  0  0  0  0  0  0
  139.1210   70.1820  222.9290 C   0  0  0  0  0  0  0  0  0  0  0  0
  139.3460   69.2650  223.9590 C   0  0  0  0  0  0  0  0  0  0  0  0
  139.9250   69.6710  225.1470 C   0  0  0  0  0  0  0  0  0  0  0  0
  140.1680   68.8060  226.1980 C   0  0  0  0  0  0  0  0  0  0  0  0
  140.7480   69.2520  227.3670 C   0  0  0  0  0  0  0  0  0  0  0  0
  141.0700   68.1830  228.7180 Cl  0  0  0  0  0  0  0  0  0  0  0  0
  141.0830   70.5890  227.4740 C   0  0  0  0  0  0  0  0  0  0  0  0
  140.8440   71.4570  226.4330 C   0  0  0  0  0  0  0  0  0  0  0  0
  140.2560   71.0070  225.2460 C   0  0  0  0  0  0  0  0  0  0  0  0
  140.0320   71.8540  224.2520 N   0  0  0  0  0  0  0  0  0  0  0  0
  139.5500   74.1300  223.3450 H   0  0  0  0  0  0  0  0  0  0  0  0
  138.7508   74.5103  220.4053 H   0  0  0  0  0  0  0  0  0  0  0  0
  138.3758   75.6637  221.6943 H   0  0  0  0  0  0  0  0  0  0  0  0
  138.8105   77.0552  219.6648 H   0  0  0  0  0  0  0  0  0  0  0  0
  139.1217   78.2973  220.9033 H   0  0  0  0  0  0  0  0  0  0  0  0
  139.9207   79.6363  219.1583 H   0  0  0  0  0  0  0  0  0  0  0  0
  140.2170   77.3350  217.5770 H   0  0  0  0  0  0  0  0  0  0  0  0
  142.0532   77.7267  218.4111 H   0  0  0  0  0  0  0  0  0  0  0  0
  142.2182   79.3141  219.1818 H   0  0  0  0  0  0  0  0  0  0  0  0
  142.7771   77.0947  220.6284 H   0  0  0  0  0  0  0  0  0  0  0  0
  142.9542   78.4839  222.0685 H   0  0  0  0  0  0  0  0  0  0  0  0
  142.6640   80.2979  220.6073 H   0  0  0  0  0  0  0  0  0  0  0  0
  140.8304   80.1264  220.7438 H   0  0  0  0  0  0  0  0  0  0  0  0
  142.7784   81.4658  222.4743 H   0  0  0  0  0  0  0  0  0  0  0  0
  141.0240   81.8282  221.9945 H   0  0  0  0  0  0  0  0  0  0  0  0
  142.5641   79.2062  224.0778 H   0  0  0  0  0  0  0  0  0  0  0  0
  140.9147   79.1917  224.8270 H   0  0  0  0  0  0  0  0  0  0  0  0
  141.0547   77.3699  223.1680 H   0  0  0  0  0  0  0  0  0  0  0  0
  139.9417   78.5757  222.5518 H   0  0  0  0  0  0  0  0  0  0  0  0
  138.6596   69.8415  221.9903 H   0  0  0  0  0  0  0  0  0  0  0  0
  139.0601   68.2115  223.8235 H   0  0  0  0  0  0  0  0  0  0  0  0
  139.8943   67.7451  226.1001 H   0  0  0  0  0  0  0  0  0  0  0  0
  141.5449   70.9626  228.3998 H   0  0  0  0  0  0  0  0  0  0  0  0
  141.1186   72.5172  226.5355 H   0  0  0  0  0  0  0  0  0  0  0  0
  1  2  2  0
  2  3  1  0
  3  4  1  0
  4  5  1  0
  5  6  2  0
  5  7  1  0
  7  8  1  0
  8  9  1  0
  9 10  1  0
  9 11  1  0
 11 12  1  0
 12 13  1  0
 13 14  1  0
 14 15  1  0
 15 16  1  0
 16 17  1  0
 17 18  1  0
  2 19  1  0
 19 20  2  0
 20 21  1  0
 21 22  2  0
 22 23  1  0
 23 24  2  0
 24 25  1  0
 24 26  1  0
 26 27  2  0
 27 28  1  0
 28 29  2  0
 12  7  1  0
 18 13  1  0
 29 19  1  0
 28 22  1  0
  3 30  1  0
  4 31  1  0
  4 32  1  0
  8 33  1  0
  8 34  1  0
  9 35  1  1
 10 36  1  0
 11 37  1  0
 11 38  1  0
 12 39  1  6
 13 40  1  0
 14 41  1  0
 14 42  1  0
 15 43  1  0
 15 44  1  0
 17 45  1  0
 17 46  1  0
 18 47  1  0
 18 48  1  0
 20 49  1  0
 21 50  1  0
 23 51  1  0
 26 52  1  0
 27 53  1  0
M  END
>  <smiles>  (20) 
O=C(NCC(=O)N1C[C@H](O)C[C@H]1C1CCOCC1)c1ccc2cc(Cl)ccc2n1

>  <score_type>  (20) 
oracle

>  <origin>  (20) 
autodockgpu

>  <m_score__min__energy>  (20) 
-8.0399999999999991

>  <m_primary>  (20) 
energy

>  <rmsd>  (20) 
3.0522058009554995

>  <m_score__min__rmsd>  (20) 
3.0522058009554995

>  <meeko>  (20) 
{"free_energy": -7.73, "intermolecular_energy": -9.52, "internal_energy": -1.42, "cluster_size": 33, "cluster_id": 1, "rank_in_cluster": 21}

>  <energy>  (20) 
-7.73

>  <cluster_rmsd>  (20) 
1.41

>  <cluster>  (20) 
1

$$$$

     RDKit          3D

 53 56  0  0  0  0  0  0  0  0999 V2000
  139.1630   72.0560  220.6650 O   0  0  0  0  0  0  0  0  0  0  0  0
  139.3450   72.5040  221.8180 C   0  0  0  0  0  0  0  0  0  0  0  0
  139.4250   73.8820  222.1110 N   0  0  0  0  0  0  0  0  0  0  0  0
  139.2990   74.9170  221.0750 C   0  0  0  0  0  0  0  0  0  0  0  0
  140.3060   75.9460  221.4100 C   0  0  0  0  0  0  0  0  0  0  0  0
  141.1040   75.7380  222.3780 O   0  0  0  0  0  0  0  0  0  0  0  0
  140.4590   77.1750  220.7260 N   0  0  0  0  0  0  0  0  0  0  0  0
  139.4120   77.7810  219.9270 C   0  0  0  0  0  0  0  0  0  0  0  0
  140.0780   78.5480  218.8130 C   0  0  2  0  0  0  0  0  0  0  0  0
  139.8460   77.9140  217.5790 O   0  0  0  0  0  0  0  0  0  0  0  0
  141.5230   78.5220  219.1830 C   0  0  0  0  0  0  0  0  0  0  0  0
  141.5810   78.0810  220.6320 C   0  0  1  0  0  0  0  0  0  0  0  0
  141.4350   79.2340  221.5790 C   0  0  0  0  0  0  0  0  0  0  0  0
  142.1390   79.0280  222.8640 C   0  0  0  0  0  0  0  0  0  0  0  0
  142.1440   80.1840  223.7980 C   0  0  0  0  0  0  0  0  0  0  0  0
  142.0170   81.4200  223.2490 O   0  0  0  0  0  0  0  0  0  0  0  0
  141.3260   81.5510  222.0920 C   0  0  0  0  0  0  0  0  0  0  0  0
  141.8230   80.5660  221.0240 C   0  0  0  0  0  0  0  0  0  0  0  0
  139.4830   71.5500  222.9290 C   0  0  0  0  0  0  0  0  0  0  0  0
  139.0100   70.2570  222.8470 C   0  0  0  0  0  0  0  0  0  0  0  0
  139.1550   69.3710  223.9190 C   0  0  0  0  0  0  0  0  0  0  0  0
  139.7790   69.7760  225.0840 C   0  0  0  0  0  0  0  0  0  0  0  0
  139.9480   68.9410  226.1740 C   0  0  0  0  0  0  0  0  0  0  0  0
  140.5770   69.3840  227.3190 C   0  0  0  0  0  0  0  0  0  0  0  0
  140.8070   68.3540  228.7170 Cl  0  0  0  0  0  0  0  0  0  0  0  0
  141.0380   70.6860  227.3610 C   0  0  0  0  0  0  0  0  0  0  0  0
  140.8730   71.5240  226.2820 C   0  0  0  0  0  0  0  0  0  0  0  0
  140.2360   71.0770  225.1190 C   0  0  0  0  0  0  0  0  0  0  0  0
  140.0850   71.8950  224.0870 N   0  0  0  0  0  0  0  0  0  0  0  0
  139.5820   74.1770  223.1180 H   0  0  0  0  0  0  0  0  0  0  0  0
  139.5022   74.4912  220.0813 H   0  0  0  0  0  0  0  0  0  0  0  0
  138.2835   75.3386  221.0450 H   0  0  0  0  0  0  0  0  0  0  0  0
  138.7601   77.0004  219.5079 H   0  0  0  0  0  0  0  0  0  0  0  0
  138.7937   78.4509  220.5426 H   0  0  0  0  0  0  0  0  0  0  0  0
  139.6980   79.5738  218.6979 H   0  0  0  0  0  0  0  0  0  0  0  0
  140.4930   78.3080  216.9420 H   0  0  0  0  0  0  0  0  0  0  0  0
  142.0670   77.8095  218.5456 H   0  0  0  0  0  0  0  0  0  0  0  0
  141.9896   79.5086  219.0454 H   0  0  0  0  0  0  0  0  0  0  0  0
  142.5434   77.6239  220.9056 H   0  0  0  0  0  0  0  0  0  0  0  0
  140.3493   79.2560  221.7545 H   0  0  0  0  0  0  0  0  0  0  0  0
  141.6595   78.1821  223.3783 H   0  0  0  0  0  0  0  0  0  0  0  0
  143.1929   78.8562  222.5999 H   0  0  0  0  0  0  0  0  0  0  0  0
  141.3098   80.0459  224.5016 H   0  0  0  0  0  0  0  0  0  0  0  0
  143.1435   80.1763  224.2573 H   0  0  0  0  0  0  0  0  0  0  0  0
  140.2610   81.3579  222.2881 H   0  0  0  0  0  0  0  0  0  0  0  0
  141.4761   82.5733  221.7147 H   0  0  0  0  0  0  0  0  0  0  0  0
  141.3295   80.7496  220.0582 H   0  0  0  0  0  0  0  0  0  0  0  0
  142.9016   80.6528  220.8265 H   0  0  0  0  0  0  0  0  0  0  0  0
  138.5122   69.9184  221.9264 H   0  0  0  0  0  0  0  0  0  0  0  0
  138.7697   68.3442  223.8346 H   0  0  0  0  0  0  0  0  0  0  0  0
  139.5748   67.9073  226.1269 H   0  0  0  0  0  0  0  0  0  0  0  0
  141.5419   71.0563  228.2660 H   0  0  0  0  0  0  0  0  0  0  0  0
  141.2463   72.5574  226.3343 H   0  0  0  0  0  0  0  0  0  0  0  0
  1  2  2  0
  2  3  1  0
  3  4  1  0
  4  5  1  0
  5  6  2  0
  5  7  1  0
  7  8  1  0
  8  9  1  0
  9 10  1  0
  9 11  1  0
 11 12  1  0
 12 13  1  0
 13 14  1  0
 14 15  1  0
 15 16  1  0
 16 17  1  0
 17 18  1  0
  2 19  1  0
 19 20  2  0
 20 21  1  0
 21 22  2  0
 22 23  1  0
 23 24  2  0
 24 25  1  0
 24 26  1  0
 26 27  2  0
 27 28  1  0
 28 29  2  0
 12  7  1  0
 18 13  1  0
 29 19  1  0
 28 22  1  0
  3 30  1  0
  4 31  1  0
  4 32  1  0
  8 33  1  0
  8 34  1  0
  9 35  1  6
 10 36  1  0
 11 37  1  0
 11 38  1  0
 12 39  1  6
 13 40  1  0
 14 41  1  0
 14 42  1  0
 15 43  1  0
 15 44  1  0
 17 45  1  0
 17 46  1  0
 18 47  1  0
 18 48  1  0
 20 49  1  0
 21 50  1  0
 23 51  1  0
 26 52  1  0
 27 53  1  0
M  END
>  <smiles>  (21) 
O=C(NCC(=O)N1C[C@H](O)C[C@H]1C1CCOCC1)c1ccc2cc(Cl)ccc2n1

>  <score_type>  (21) 
oracle

>  <origin>  (21) 
autodockgpu

>  <m_score__min__energy>  (21) 
-8.0399999999999991

>  <m_primary>  (21) 
energy

>  <rmsd>  (21) 
3.165764590490197

>  <m_score__min__rmsd>  (21) 
3.165764590490197

>  <meeko>  (21) 
{"free_energy": -7.9, "intermolecular_energy": -9.69, "internal_energy": -1.85, "cluster_size": 33, "cluster_id": 1, "rank_in_cluster": 11}

>  <energy>  (21) 
-7.73

>  <cluster_rmsd>  (21) 
1.76

>  <cluster>  (21) 
1

$$$$

     RDKit          3D

 53 56  0  0  0  0  0  0  0  0999 V2000
  139.4740   72.0280  220.5710 O   0  0  0  0  0  0  0  0  0  0  0  0
  139.5380   72.4910  221.7310 C   0  0  0  0  0  0  0  0  0  0  0  0
  139.4990   73.8710  222.0180 N   0  0  0  0  0  0  0  0  0  0  0  0
  139.3800   74.8920  220.9680 C   0  0  0  0  0  0  0  0  0  0  0  0
  139.8380   76.1570  221.5830 C   0  0  0  0  0  0  0  0  0  0  0  0
  139.8110   76.2740  222.8480 O   0  0  0  0  0  0  0  0  0  0  0  0
  140.3170   77.2750  220.8600 N   0  0  0  0  0  0  0  0  0  0  0  0
  139.5480   77.9540  219.8350 C   0  0  0  0  0  0  0  0  0  0  0  0
  140.5230   78.4970  218.8220 C   0  0  2  0  0  0  0  0  0  0  0  0
  140.4120   77.7900  217.6110 O   0  0  0  0  0  0  0  0  0  0  0  0
  141.8530   78.2870  219.4650 C   0  0  0  0  0  0  0  0  0  0  0  0
  141.5740   77.9840  220.9240 C   0  0  1  0  0  0  0  0  0  0  0  0
  141.4580   79.2340  221.7460 C   0  0  0  0  0  0  0  0  0  0  0  0
  142.1930   79.1590  223.0270 C   0  0  0  0  0  0  0  0  0  0  0  0
  142.2260   80.4090  223.8330 C   0  0  0  0  0  0  0  0  0  0  0  0
  142.0920   81.5800  223.1590 O   0  0  0  0  0  0  0  0  0  0  0  0
  141.3730   81.5930  222.0110 C   0  0  0  0  0  0  0  0  0  0  0  0
  141.8380   80.4950  221.0430 C   0  0  0  0  0  0  0  0  0  0  0  0
  139.6580   71.5520  222.8560 C   0  0  0  0  0  0  0  0  0  0  0  0
  139.2160   70.2470  222.7730 C   0  0  0  0  0  0  0  0  0  0  0  0
  139.3430   69.3760  223.8580 C   0  0  0  0  0  0  0  0  0  0  0  0
  139.9170   69.8060  225.0400 C   0  0  0  0  0  0  0  0  0  0  0  0
  140.0660   68.9860  226.1440 C   0  0  0  0  0  0  0  0  0  0  0  0
  140.6450   69.4550  227.3050 C   0  0  0  0  0  0  0  0  0  0  0  0
  140.8500   68.4440  228.7220 Cl  0  0  0  0  0  0  0  0  0  0  0  0
  141.0760   70.7670  227.3490 C   0  0  0  0  0  0  0  0  0  0  0  0
  140.9300   71.5900  226.2550 C   0  0  0  0  0  0  0  0  0  0  0  0
  140.3440   71.1180  225.0770 C   0  0  0  0  0  0  0  0  0  0  0  0
  140.2110   71.9210  224.0310 N   0  0  0  0  0  0  0  0  0  0  0  0
  139.5590   74.1790  223.0320 H   0  0  0  0  0  0  0  0  0  0  0  0
  140.0144   74.6325  220.1076 H   0  0  0  0  0  0  0  0  0  0  0  0
  138.3478   74.9726  220.5965 H   0  0  0  0  0  0  0  0  0  0  0  0
  138.8593   77.2457  219.3512 H   0  0  0  0  0  0  0  0  0  0  0  0
  138.9516   78.7677  220.2734 H   0  0  0  0  0  0  0  0  0  0  0  0
  140.3488   79.5528  218.5673 H   0  0  0  0  0  0  0  0  0  0  0  0
  141.3180   77.4450  217.4110 H   0  0  0  0  0  0  0  0  0  0  0  0
  142.3755   77.4418  218.9931 H   0  0  0  0  0  0  0  0  0  0  0  0
  142.4957   79.1729  219.3553 H   0  0  0  0  0  0  0  0  0  0  0  0
  142.3794   77.4121  221.4081 H   0  0  0  0  0  0  0  0  0  0  0  0
  140.3773   79.2850  221.9448 H   0  0  0  0  0  0  0  0  0  0  0  0
  141.7229   78.3756  223.6396 H   0  0  0  0  0  0  0  0  0  0  0  0
  143.2391   78.9517  222.7575 H   0  0  0  0  0  0  0  0  0  0  0  0
  141.4082   80.3527  224.5665 H   0  0  0  0  0  0  0  0  0  0  0  0
  143.2362   80.4428  224.2670 H   0  0  0  0  0  0  0  0  0  0  0  0
  140.3120   81.4312  222.2519 H   0  0  0  0  0  0  0  0  0  0  0  0
  141.5196   82.5679  221.5231 H   0  0  0  0  0  0  0  0  0  0  0  0
  141.3212   80.5779  220.0755 H   0  0  0  0  0  0  0  0  0  0  0  0
  142.9118   80.5519  220.8113 H   0  0  0  0  0  0  0  0  0  0  0  0
  138.7575   69.8879  221.8398 H   0  0  0  0  0  0  0  0  0  0  0  0
  138.9835   68.3400  223.7712 H   0  0  0  0  0  0  0  0  0  0  0  0
  139.7174   67.9438  226.0954 H   0  0  0  0  0  0  0  0  0  0  0  0
  141.5401   71.1576  228.2666 H   0  0  0  0  0  0  0  0  0  0  0  0
  141.2788   72.6319  226.3086 H   0  0  0  0  0  0  0  0  0  0  0  0
  1  2  2  0
  2  3  1  0
  3  4  1  0
  4  5  1  0
  5  6  2  0
  5  7  1  0
  7  8  1  0
  8  9  1  0
  9 10  1  0
  9 11  1  0
 11 12  1  0
 12 13  1  0
 13 14  1  0
 14 15  1  0
 15 16  1  0
 16 17  1  0
 17 18  1  0
  2 19  1  0
 19 20  2  0
 20 21  1  0
 21 22  2  0
 22 23  1  0
 23 24  2  0
 24 25  1  0
 24 26  1  0
 26 27  2  0
 27 28  1  0
 28 29  2  0
 12  7  1  0
 18 13  1  0
 29 19  1  0
 28 22  1  0
  3 30  1  0
  4 31  1  0
  4 32  1  0
  8 33  1  0
  8 34  1  0
  9 35  1  6
 10 36  1  0
 11 37  1  0
 11 38  1  0
 12 39  1  1
 13 40  1  0
 14 41  1  0
 14 42  1  0
 15 43  1  0
 15 44  1  0
 17 45  1  0
 17 46  1  0
 18 47  1  0
 18 48  1  0
 20 49  1  0
 21 50  1  0
 23 51  1  0
 26 52  1  0
 27 53  1  0
M  END
>  <smiles>  (22) 
O=C(NCC(=O)N1C[C@H](O)C[C@H]1C1CCOCC1)c1ccc2cc(Cl)ccc2n1

>  <score_type>  (22) 
oracle

>  <origin>  (22) 
autodockgpu

>  <m_score__min__energy>  (22) 
-8.0399999999999991

>  <m_primary>  (22) 
energy

>  <rmsd>  (22) 
3.259421986793159

>  <m_score__min__rmsd>  (22) 
3.259421986793159

>  <meeko>  (22) 
{"free_energy": -7.9, "intermolecular_energy": -9.69, "internal_energy": -1.93, "cluster_size": 33, "cluster_id": 1, "rank_in_cluster": 12}

>  <energy>  (22) 
-7.73

>  <cluster_rmsd>  (22) 
1.85

>  <cluster>  (22) 
1

$$$$

     RDKit          3D

 53 56  0  0  0  0  0  0  0  0999 V2000
  138.3800   71.9070  221.0040 O   0  0  0  0  0  0  0  0  0  0  0  0
  138.9740   72.3070  222.0300 C   0  0  0  0  0  0  0  0  0  0  0  0
  139.4330   73.6310  222.1930 N   0  0  0  0  0  0  0  0  0  0  0  0
  139.2500   74.6620  221.1630 C   0  0  0  0  0  0  0  0  0  0  0  0
  140.3310   74.4440  220.1780 C   0  0  0  0  0  0  0  0  0  0  0  0
  140.6790   75.4040  219.4200 O   0  0  0  0  0  0  0  0  0  0  0  0
  141.0290   73.2260  220.0060 N   0  0  0  0  0  0  0  0  0  0  0  0
  140.7050   72.2580  218.9750 C   0  0  0  0  0  0  0  0  0  0  0  0
  141.0400   70.8920  219.5150 C   0  0  2  0  0  0  0  0  0  0  0  0
  139.8620   70.1590  219.7510 O   0  0  0  0  0  0  0  0  0  0  0  0
  141.7720   71.1830  220.7820 C   0  0  0  0  0  0  0  0  0  0  0  0
  142.1400   72.6530  220.7290 C   0  0  1  0  0  0  0  0  0  0  0  0
  143.4380   72.8830  220.0140 C   0  0  0  0  0  0  0  0  0  0  0  0
  144.4310   73.6170  220.8280 C   0  0  0  0  0  0  0  0  0  0  0  0
  145.7830   73.7680  220.2270 C   0  0  0  0  0  0  0  0  0  0  0  0
  146.1620   72.8300  219.3210 O   0  0  0  0  0  0  0  0  0  0  0  0
  145.2090   72.2200  218.5760 C   0  0  0  0  0  0  0  0  0  0  0  0
  144.0820   71.6570  219.4540 C   0  0  0  0  0  0  0  0  0  0  0  0
  139.2080   71.3520  223.1230 C   0  0  0  0  0  0  0  0  0  0  0  0
  138.7480   70.0520  223.0710 C   0  0  0  0  0  0  0  0  0  0  0  0
  138.9850   69.1650  224.1260 C   0  0  0  0  0  0  0  0  0  0  0  0
  139.6880   69.5750  225.2430 C   0  0  0  0  0  0  0  0  0  0  0  0
  139.9500   68.7400  226.3140 C   0  0  0  0  0  0  0  0  0  0  0  0
  140.6550   69.1890  227.4110 C   0  0  0  0  0  0  0  0  0  0  0  0
  141.0040   68.1570  228.7840 Cl  0  0  0  0  0  0  0  0  0  0  0  0
  141.0990   70.4970  227.4240 C   0  0  0  0  0  0  0  0  0  0  0  0
  140.8430   71.3360  226.3630 C   0  0  0  0  0  0  0  0  0  0  0  0
  140.1280   70.8830  225.2490 C   0  0  0  0  0  0  0  0  0  0  0  0
  139.8890   71.7010  224.2350 N   0  0  0  0  0  0  0  0  0  0  0  0
  139.9280   73.8870  223.0960 H   0  0  0  0  0  0  0  0  0  0  0  0
  138.2664   74.5532  220.6826 H   0  0  0  0  0  0  0  0  0  0  0  0
  139.2911   75.6742  221.5917 H   0  0  0  0  0  0  0  0  0  0  0  0
  139.6337   72.3132  218.7313 H   0  0  0  0  0  0  0  0  0  0  0  0
  141.2766   72.4629  218.0578 H   0  0  0  0  0  0  0  0  0  0  0  0
  141.6380   70.2812  218.8226 H   0  0  0  0  0  0  0  0  0  0  0  0
  139.1860   70.8170  220.0510 H   0  0  0  0  0  0  0  0  0  0  0  0
  141.1268   70.9823  221.6500 H   0  0  0  0  0  0  0  0  0  0  0  0
  142.6653   70.5493  220.8838 H   0  0  0  0  0  0  0  0  0  0  0  0
  142.2947   73.0957  221.7240 H   0  0  0  0  0  0  0  0  0  0  0  0
  143.1286   73.5068  219.1625 H   0  0  0  0  0  0  0  0  0  0  0  0
  144.0324   74.6246  221.0172 H   0  0  0  0  0  0  0  0  0  0  0  0
  144.5757   73.0124  221.7355 H   0  0  0  0  0  0  0  0  0  0  0  0
  145.8161   74.7465  219.7256 H   0  0  0  0  0  0  0  0  0  0  0  0
  146.4840   73.6543  221.0670 H   0  0  0  0  0  0  0  0  0  0  0  0
  144.7830   72.9508  217.8729 H   0  0  0  0  0  0  0  0  0  0  0  0
  145.6764   71.3832  218.0363 H   0  0  0  0  0  0  0  0  0  0  0  0
  143.3671   71.0758  218.8530 H   0  0  0  0  0  0  0  0  0  0  0  0
  144.4448   70.9680  220.2310 H   0  0  0  0  0  0  0  0  0  0  0  0
  138.1878   69.7091  222.1886 H   0  0  0  0  0  0  0  0  0  0  0  0
  138.6089   68.1330  224.0663 H   0  0  0  0  0  0  0  0  0  0  0  0
  139.5902   67.7008  226.2904 H   0  0  0  0  0  0  0  0  0  0  0  0
  141.6628   70.8720  228.2909 H   0  0  0  0  0  0  0  0  0  0  0  0
  141.2047   72.3744  226.3914 H   0  0  0  0  0  0  0  0  0  0  0  0
  1  2  2  0
  2  3  1  0
  3  4  1  0
  4  5  1  0
  5  6  2  0
  5  7  1  0
  7  8  1  0
  8  9  1  0
  9 10  1  0
  9 11  1  0
 11 12  1  0
 12 13  1  0
 13 14  1  0
 14 15  1  0
 15 16  1  0
 16 17  1  0
 17 18  1  0
  2 19  1  0
 19 20  2  0
 20 21  1  0
 21 22  2  0
 22 23  1  0
 23 24  2  0
 24 25  1  0
 24 26  1  0
 26 27  2  0
 27 28  1  0
 28 29  2  0
 12  7  1  0
 18 13  1  0
 29 19  1  0
 28 22  1  0
  3 30  1  0
  4 31  1  0
  4 32  1  0
  8 33  1  0
  8 34  1  0
  9 35  1  6
 10 36  1  0
 11 37  1  0
 11 38  1  0
 12 39  1  1
 13 40  1  0
 14 41  1  0
 14 42  1  0
 15 43  1  0
 15 44  1  0
 17 45  1  0
 17 46  1  0
 18 47  1  0
 18 48  1  0
 20 49  1  0
 21 50  1  0
 23 51  1  0
 26 52  1  0
 27 53  1  0
M  END
>  <smiles>  (23) 
O=C(NCC(=O)N1C[C@H](O)C[C@H]1C1CCOCC1)c1ccc2cc(Cl)ccc2n1

>  <score_type>  (23) 
oracle

>  <origin>  (23) 
autodockgpu

>  <m_score__min__energy>  (23) 
-8.0399999999999991

>  <m_primary>  (23) 
energy

>  <rmsd>  (23) 
3.0016265040199905

>  <m_score__min__rmsd>  (23) 
3.0016265040199905

>  <meeko>  (23) 
{"free_energy": -6.87, "intermolecular_energy": -8.66, "internal_energy": -2.81, "cluster_size": 7, "cluster_id": 3, "rank_in_cluster": 5}

>  <energy>  (23) 
-7.7

>  <cluster_rmsd>  (23) 
1.91

>  <cluster>  (23) 
1

$$$$

     RDKit          3D

 53 56  0  0  0  0  0  0  0  0999 V2000
  139.6680   72.0470  220.5730 O   0  0  0  0  0  0  0  0  0  0  0  0
  139.4970   72.4850  221.7320 C   0  0  0  0  0  0  0  0  0  0  0  0
  139.1960   73.8340  222.0140 N   0  0  0  0  0  0  0  0  0  0  0  0
  139.0560   74.8480  220.9600 C   0  0  0  0  0  0  0  0  0  0  0  0
  139.4360   76.1330  221.5840 C   0  0  0  0  0  0  0  0  0  0  0  0
  139.0850   76.3650  222.7840 O   0  0  0  0  0  0  0  0  0  0  0  0
  140.1780   77.1520  220.9410 N   0  0  0  0  0  0  0  0  0  0  0  0
  139.7250   77.8390  219.7460 C   0  0  0  0  0  0  0  0  0  0  0  0
  140.9480   78.2190  218.9510 C   0  0  2  0  0  0  0  0  0  0  0  0
  141.0220   77.4520  217.7750 O   0  0  0  0  0  0  0  0  0  0  0  0
  142.0780   77.9190  219.8780 C   0  0  0  0  0  0  0  0  0  0  0  0
  141.4620   77.7370  221.2510 C   0  0  1  0  0  0  0  0  0  0  0  0
  141.3100   79.0400  221.9770 C   0  0  0  0  0  0  0  0  0  0  0  0
  140.1720   79.0520  222.9230 C   0  0  0  0  0  0  0  0  0  0  0  0
  140.0410   80.2680  223.7690 C   0  0  0  0  0  0  0  0  0  0  0  0
  141.1750   80.9720  224.0150 O   0  0  0  0  0  0  0  0  0  0  0  0
  142.1670   80.9550  223.0930 C   0  0  0  0  0  0  0  0  0  0  0  0
  142.5340   79.5200  222.6870 C   0  0  0  0  0  0  0  0  0  0  0  0
  139.6150   71.5510  222.8610 C   0  0  0  0  0  0  0  0  0  0  0  0
  139.1460   70.2550  222.7920 C   0  0  0  0  0  0  0  0  0  0  0  0
  139.2710   69.3870  223.8810 C   0  0  0  0  0  0  0  0  0  0  0  0
  139.8700   69.8130  225.0510 C   0  0  0  0  0  0  0  0  0  0  0  0
  140.0190   68.9970  226.1580 C   0  0  0  0  0  0  0  0  0  0  0  0
  140.6230   69.4610  227.3080 C   0  0  0  0  0  0  0  0  0  0  0  0
  140.8280   68.4540  228.7280 Cl  0  0  0  0  0  0  0  0  0  0  0  0
  141.0800   70.7650  227.3380 C   0  0  0  0  0  0  0  0  0  0  0  0
  140.9360   71.5840  226.2410 C   0  0  0  0  0  0  0  0  0  0  0  0
  140.3240   71.1160  225.0740 C   0  0  0  0  0  0  0  0  0  0  0  0
  140.1920   71.9160  224.0260 N   0  0  0  0  0  0  0  0  0  0  0  0
  139.0670   74.1230  223.0270 H   0  0  0  0  0  0  0  0  0  0  0  0
  139.7246   74.6190  220.1170 H   0  0  0  0  0  0  0  0  0  0  0  0
  138.0311   74.8789  220.5617 H   0  0  0  0  0  0  0  0  0  0  0  0
  139.0821   77.1736  219.1511 H   0  0  0  0  0  0  0  0  0  0  0  0
  139.1416   78.7332  220.0107 H   0  0  0  0  0  0  0  0  0  0  0  0
  140.9494   79.2689  218.6227 H   0  0  0  0  0  0  0  0  0  0  0  0
  140.2360   77.7080  217.2300 H   0  0  0  0  0  0  0  0  0  0  0  0
  142.5929   76.9984  219.5661 H   0  0  0  0  0  0  0  0  0  0  0  0
  142.8229   78.7284  219.8770 H   0  0  0  0  0  0  0  0  0  0  0  0
  142.0780   77.1206  221.9223 H   0  0  0  0  0  0  0  0  0  0  0  0
  141.1123   79.7439  221.1551 H   0  0  0  0  0  0  0  0  0  0  0  0
  139.2465   78.9478  222.3377 H   0  0  0  0  0  0  0  0  0  0  0  0
  140.3581   78.2230  223.6217 H   0  0  0  0  0  0  0  0  0  0  0  0
  139.3318   80.9448  223.2699 H   0  0  0  0  0  0  0  0  0  0  0  0
  139.7150   79.8983  224.7524 H   0  0  0  0  0  0  0  0  0  0  0  0
  141.8346   81.5051  222.2003 H   0  0  0  0  0  0  0  0  0  0  0  0
  143.0570   81.4268  223.5351 H   0  0  0  0  0  0  0  0  0  0  0  0
  143.4069   79.5109  222.0177 H   0  0  0  0  0  0  0  0  0  0  0  0
  142.8106   78.8877  223.5435 H   0  0  0  0  0  0  0  0  0  0  0  0
  138.6672   69.8999  221.8675 H   0  0  0  0  0  0  0  0  0  0  0  0
  138.8898   68.3579  223.8058 H   0  0  0  0  0  0  0  0  0  0  0  0
  139.6499   67.9615  226.1206 H   0  0  0  0  0  0  0  0  0  0  0  0
  141.5634   71.1521  228.2471 H   0  0  0  0  0  0  0  0  0  0  0  0
  141.3067   72.6188  226.2829 H   0  0  0  0  0  0  0  0  0  0  0  0
  1  2  2  0
  2  3  1  0
  3  4  1  0
  4  5  1  0
  5  6  2  0
  5  7  1  0
  7  8  1  0
  8  9  1  0
  9 10  1  0
  9 11  1  0
 11 12  1  0
 12 13  1  0
 13 14  1  0
 14 15  1  0
 15 16  1  0
 16 17  1  0
 17 18  1  0
  2 19  1  0
 19 20  2  0
 20 21  1  0
 21 22  2  0
 22 23  1  0
 23 24  2  0
 24 25  1  0
 24 26  1  0
 26 27  2  0
 27 28  1  0
 28 29  2  0
 12  7  1  0
 18 13  1  0
 29 19  1  0
 28 22  1  0
  3 30  1  0
  4 31  1  0
  4 32  1  0
  8 33  1  0
  8 34  1  0
  9 35  1  6
 10 36  1  0
 11 37  1  0
 11 38  1  0
 12 39  1  1
 13 40  1  0
 14 41  1  0
 14 42  1  0
 15 43  1  0
 15 44  1  0
 17 45  1  0
 17 46  1  0
 18 47  1  0
 18 48  1  0
 20 49  1  0
 21 50  1  0
 23 51  1  0
 26 52  1  0
 27 53  1  0
M  END
>  <smiles>  (24) 
O=C(NCC(=O)N1C[C@H](O)C[C@H]1C1CCOCC1)c1ccc2cc(Cl)ccc2n1

>  <score_type>  (24) 
oracle

>  <origin>  (24) 
autodockgpu

>  <m_score__min__energy>  (24) 
-8.0399999999999991

>  <m_primary>  (24) 
energy

>  <rmsd>  (24) 
3.1529866900529475

>  <m_score__min__rmsd>  (24) 
3.1529866900529475

>  <meeko>  (24) 
{"free_energy": -7.89, "intermolecular_energy": -9.68, "internal_energy": -1.76, "cluster_size": 33, "cluster_id": 1, "rank_in_cluster": 13}

>  <energy>  (24) 
-7.63

>  <cluster_rmsd>  (24) 
1.8

>  <cluster>  (24) 
1

$$$$

     RDKit          3D

 53 56  0  0  0  0  0  0  0  0999 V2000
  139.3710   71.9830  220.5840 O   0  0  0  0  0  0  0  0  0  0  0  0
  139.4720   72.4470  221.7420 C   0  0  0  0  0  0  0  0  0  0  0  0
  139.4710   73.8290  222.0250 N   0  0  0  0  0  0  0  0  0  0  0  0
  139.3500   74.8500  220.9750 C   0  0  0  0  0  0  0  0  0  0  0  0
  139.1360   76.1310  221.6810 C   0  0  0  0  0  0  0  0  0  0  0  0
  138.7090   76.1120  222.8790 O   0  0  0  0  0  0  0  0  0  0  0  0
  139.3740   77.4080  221.1210 N   0  0  0  0  0  0  0  0  0  0  0  0
  138.3150   78.3100  220.7090 C   0  0  0  0  0  0  0  0  0  0  0  0
  138.8350   79.1180  219.5470 C   0  0  2  0  0  0  0  0  0  0  0  0
  138.1800   78.7430  218.3600 O   0  0  0  0  0  0  0  0  0  0  0  0
  140.2880   78.7810  219.5060 C   0  0  0  0  0  0  0  0  0  0  0  0
  140.6040   78.1070  220.8270 C   0  0  1  0  0  0  0  0  0  0  0  0
  140.9410   79.1000  221.8990 C   0  0  0  0  0  0  0  0  0  0  0  0
  141.4430   78.4700  223.1400 C   0  0  0  0  0  0  0  0  0  0  0  0
  141.9170   79.4020  224.1970 C   0  0  0  0  0  0  0  0  0  0  0  0
  142.3560   80.6210  223.7920 O   0  0  0  0  0  0  0  0  0  0  0  0
  141.8280   81.1640  222.6690 C   0  0  0  0  0  0  0  0  0  0  0  0
  141.8850   80.1830  221.4900 C   0  0  0  0  0  0  0  0  0  0  0  0
  139.5970   71.5090  222.8660 C   0  0  0  0  0  0  0  0  0  0  0  0
  139.1470   70.2070  222.7880 C   0  0  0  0  0  0  0  0  0  0  0  0
  139.2800   69.3360  223.8740 C   0  0  0  0  0  0  0  0  0  0  0  0
  139.8670   69.7640  225.0490 C   0  0  0  0  0  0  0  0  0  0  0  0
  140.0220   68.9450  226.1530 C   0  0  0  0  0  0  0  0  0  0  0  0
  140.6140   69.4120  227.3080 C   0  0  0  0  0  0  0  0  0  0  0  0
  140.8250   68.4010  228.7240 Cl  0  0  0  0  0  0  0  0  0  0  0  0
  141.0520   70.7220  227.3470 C   0  0  0  0  0  0  0  0  0  0  0  0
  140.9010   71.5440  226.2530 C   0  0  0  0  0  0  0  0  0  0  0  0
  140.3010   71.0740  225.0810 C   0  0  0  0  0  0  0  0  0  0  0  0
  140.1630   71.8770  224.0360 N   0  0  0  0  0  0  0  0  0  0  0  0
  139.5610   74.1390  223.0360 H   0  0  0  0  0  0  0  0  0  0  0  0
  140.2707   74.8928  220.3746 H   0  0  0  0  0  0  0  0  0  0  0  0
  138.5232   74.6251  220.2852 H   0  0  0  0  0  0  0  0  0  0  0  0
  137.4301   77.7342  220.4001 H   0  0  0  0  0  0  0  0  0  0  0  0
  138.0224   78.9693  221.5395 H   0  0  0  0  0  0  0  0  0  0  0  0
  138.6633   80.1993  219.6529 H   0  0  0  0  0  0  0  0  0  0  0  0
  137.2730   78.4500  218.6280 H   0  0  0  0  0  0  0  0  0  0  0  0
  140.4974   78.0978  218.6697 H   0  0  0  0  0  0  0  0  0  0  0  0
  140.9038   79.6803  219.3577 H   0  0  0  0  0  0  0  0  0  0  0  0
  141.4848   77.4499  220.7773 H   0  0  0  0  0  0  0  0  0  0  0  0
  139.9675   79.5733  222.0945 H   0  0  0  0  0  0  0  0  0  0  0  0
  140.6277   77.8658  223.5646 H   0  0  0  0  0  0  0  0  0  0  0  0
  142.3260   77.8863  222.8407 H   0  0  0  0  0  0  0  0  0  0  0  0
  141.0822   79.5648  224.8946 H   0  0  0  0  0  0  0  0  0  0  0  0
  142.7988   78.9120  224.6355 H   0  0  0  0  0  0  0  0  0  0  0  0
  140.7785   81.4319  222.8608 H   0  0  0  0  0  0  0  0  0  0  0  0
  142.4175   82.0547  222.4060 H   0  0  0  0  0  0  0  0  0  0  0  0
  141.5519   80.6655  220.5593 H   0  0  0  0  0  0  0  0  0  0  0  0
  142.9009   79.8142  221.2853 H   0  0  0  0  0  0  0  0  0  0  0  0
  138.6776   69.8495  221.8596 H   0  0  0  0  0  0  0  0  0  0  0  0
  138.9143   68.3018  223.7919 H   0  0  0  0  0  0  0  0  0  0  0  0
  139.6675   67.9046  226.1091 H   0  0  0  0  0  0  0  0  0  0  0  0
  141.5255   71.1115  228.2603 H   0  0  0  0  0  0  0  0  0  0  0  0
  141.2569   72.5837  226.3017 H   0  0  0  0  0  0  0  0  0  0  0  0
  1  2  2  0
  2  3  1  0
  3  4  1  0
  4  5  1  0
  5  6  2  0
  5  7  1  0
  7  8  1  0
  8  9  1  0
  9 10  1  0
  9 11  1  0
 11 12  1  0
 12 13  1  0
 13 14  1  0
 14 15  1  0
 15 16  1  0
 16 17  1  0
 17 18  1  0
  2 19  1  0
 19 20  2  0
 20 21  1  0
 21 22  2  0
 22 23  1  0
 23 24  2  0
 24 25  1  0
 24 26  1  0
 26 27  2  0
 27 28  1  0
 28 29  2  0
 12  7  1  0
 18 13  1  0
 29 19  1  0
 28 22  1  0
  3 30  1  0
  4 31  1  0
  4 32  1  0
  8 33  1  0
  8 34  1  0
  9 35  1  1
 10 36  1  0
 11 37  1  0
 11 38  1  0
 12 39  1  6
 13 40  1  0
 14 41  1  0
 14 42  1  0
 15 43  1  0
 15 44  1  0
 17 45  1  0
 17 46  1  0
 18 47  1  0
 18 48  1  0
 20 49  1  0
 21 50  1  0
 23 51  1  0
 26 52  1  0
 27 53  1  0
M  END
>  <smiles>  (25) 
O=C(NCC(=O)N1C[C@H](O)C[C@H]1C1CCOCC1)c1ccc2cc(Cl)ccc2n1

>  <score_type>  (25) 
oracle

>  <origin>  (25) 
autodockgpu

>  <m_score__min__energy>  (25) 
-8.0399999999999991

>  <m_primary>  (25) 
energy

>  <rmsd>  (25) 
3.296893335016671

>  <m_score__min__rmsd>  (25) 
3.296893335016671

>  <meeko>  (25) 
{"free_energy": -7.48, "intermolecular_energy": -9.27, "internal_energy": -1.97, "cluster_size": 33, "cluster_id": 1, "rank_in_cluster": 29}

>  <energy>  (25) 
-7.58

>  <cluster_rmsd>  (25) 
1.87

>  <cluster>  (25) 
1

$$$$

     RDKit          3D

 53 56  0  0  0  0  0  0  0  0999 V2000
  136.9730   74.9010  220.4460 O   0  0  0  0  0  0  0  0  0  0  0  0
  137.7180   74.6650  221.4220 C   0  0  0  0  0  0  0  0  0  0  0  0
  137.6400   73.4830  222.1890 N   0  0  0  0  0  0  0  0  0  0  0  0
  136.6680   72.4190  221.9020 C   0  0  0  0  0  0  0  0  0  0  0  0
  135.3350   73.0320  222.0870 C   0  0  0  0  0  0  0  0  0  0  0  0
  134.3120   72.4370  221.6220 O   0  0  0  0  0  0  0  0  0  0  0  0
  135.0980   74.2560  222.7550 N   0  0  0  0  0  0  0  0  0  0  0  0
  134.3810   75.3670  222.1580 C   0  0  0  0  0  0  0  0  0  0  0  0
  134.9510   76.6370  222.7360 C   0  0  2  0  0  0  0  0  0  0  0  0
  135.6750   77.3380  221.7540 O   0  0  0  0  0  0  0  0  0  0  0  0
  135.8370   76.1570  223.8370 C   0  0  0  0  0  0  0  0  0  0  0  0
  135.4640   74.7070  224.0780 C   0  0  1  0  0  0  0  0  0  0  0  0
  134.3200   74.5730  225.0390 C   0  0  0  0  0  0  0  0  0  0  0  0
  134.1540   73.1970  225.5580 C   0  0  0  0  0  0  0  0  0  0  0  0
  133.1200   73.0200  226.6120 C   0  0  0  0  0  0  0  0  0  0  0  0
  132.8210   74.1050  227.3700 O   0  0  0  0  0  0  0  0  0  0  0  0
  132.9560   75.3380  226.8260 C   0  0  0  0  0  0  0  0  0  0  0  0
  134.3400   75.5250  226.1890 C   0  0  0  0  0  0  0  0  0  0  0  0
  138.7280   75.6670  221.7930 C   0  0  0  0  0  0  0  0  0  0  0  0
  140.0810   75.4270  221.6630 C   0  0  0  0  0  0  0  0  0  0  0  0
  141.0200   76.3980  222.0230 C   0  0  0  0  0  0  0  0  0  0  0  0
  140.6090   77.6220  222.5170 C   0  0  0  0  0  0  0  0  0  0  0  0
  141.4940   78.6170  222.8900 C   0  0  0  0  0  0  0  0  0  0  0  0
  141.0420   79.8250  223.3790 C   0  0  0  0  0  0  0  0  0  0  0  0
  142.1370   81.1070  223.8600 Cl  0  0  0  0  0  0  0  0  0  0  0  0
  139.6800   80.0260  223.4940 C   0  0  0  0  0  0  0  0  0  0  0  0
  138.7920   79.0420  223.1270 C   0  0  0  0  0  0  0  0  0  0  0  0
  139.2470   77.8160  222.6300 C   0  0  0  0  0  0  0  0  0  0  0  0
  138.3800   76.8770  222.2800 N   0  0  0  0  0  0  0  0  0  0  0  0
  138.3120   73.3620  223.0020 H   0  0  0  0  0  0  0  0  0  0  0  0
  136.7853   72.0614  220.8684 H   0  0  0  0  0  0  0  0  0  0  0  0
  136.8102   71.5511  222.5626 H   0  0  0  0  0  0  0  0  0  0  0  0
  134.5156   75.3577  221.0663 H   0  0  0  0  0  0  0  0  0  0  0  0
  133.3045   75.2931  222.3717 H   0  0  0  0  0  0  0  0  0  0  0  0
  134.1835   77.3372  223.0973 H   0  0  0  0  0  0  0  0  0  0  0  0
  136.4000   76.7300  221.4610 H   0  0  0  0  0  0  0  0  0  0  0  0
  136.8928   76.2346  223.5382 H   0  0  0  0  0  0  0  0  0  0  0  0
  135.7083   76.7608  224.7474 H   0  0  0  0  0  0  0  0  0  0  0  0
  136.2757   74.1223  224.5354 H   0  0  0  0  0  0  0  0  0  0  0  0
  133.4549   74.8373  224.4131 H   0  0  0  0  0  0  0  0  0  0  0  0
  133.8867   72.5476  224.7114 H   0  0  0  0  0  0  0  0  0  0  0  0
  135.1117   72.9416  226.0351 H   0  0  0  0  0  0  0  0  0  0  0  0
  132.1930   72.6958  226.1164 H   0  0  0  0  0  0  0  0  0  0  0  0
  133.5499   72.2906  227.3143 H   0  0  0  0  0  0  0  0  0  0  0  0
  132.1856   75.4735  226.0526 H   0  0  0  0  0  0  0  0  0  0  0  0
  132.8423   76.0826  227.6277 H   0  0  0  0  0  0  0  0  0  0  0  0
  134.4774   76.5597  225.8417 H   0  0  0  0  0  0  0  0  0  0  0  0
  135.1659   75.3356  226.8904 H   0  0  0  0  0  0  0  0  0  0  0  0
  140.4250   74.4586  221.2708 H   0  0  0  0  0  0  0  0  0  0  0  0
  142.0938   76.1866  221.9124 H   0  0  0  0  0  0  0  0  0  0  0  0
  142.5759   78.4423  222.7952 H   0  0  0  0  0  0  0  0  0  0  0  0
  139.3019   80.9829  223.8831 H   0  0  0  0  0  0  0  0  0  0  0  0
  137.7112   79.2211  223.2254 H   0  0  0  0  0  0  0  0  0  0  0  0
  1  2  2  0
  2  3  1  0
  3  4  1  0
  4  5  1  0
  5  6  2  0
  5  7  1  0
  7  8  1  0
  8  9  1  0
  9 10  1  0
  9 11  1  0
 11 12  1  0
 12 13  1  0
 13 14  1  0
 14 15  1  0
 15 16  1  0
 16 17  1  0
 17 18  1  0
  2 19  1  0
 19 20  2  0
 20 21  1  0
 21 22  2  0
 22 23  1  0
 23 24  2  0
 24 25  1  0
 24 26  1  0
 26 27  2  0
 27 28  1  0
 28 29  2  0
 12  7  1  0
 18 13  1  0
 29 19  1  0
 28 22  1  0
  3 30  1  0
  4 31  1  0
  4 32  1  0
  8 33  1  0
  8 34  1  0
  9 35  1  1
 10 36  1  0
 11 37  1  0
 11 38  1  0
 12 39  1  1
 13 40  1  0
 14 41  1  0
 14 42  1  0
 15 43  1  0
 15 44  1  0
 17 45  1  0
 17 46  1  0
 18 47  1  0
 18 48  1  0
 20 49  1  0
 21 50  1  0
 23 51  1  0
 26 52  1  0
 27 53  1  0
M  END
>  <smiles>  (26) 
O=C(NCC(=O)N1C[C@H](O)C[C@H]1C1CCOCC1)c1ccc2cc(Cl)ccc2n1

>  <score_type>  (26) 
oracle

>  <origin>  (26) 
autodockgpu

>  <m_score__min__energy>  (26) 
-8.0399999999999991

>  <m_primary>  (26) 
energy

>  <rmsd>  (26) 
8.068201373375594

>  <m_score__min__rmsd>  (26) 
8.068201373375594

>  <meeko>  (26) 
{"free_energy": -6.28, "intermolecular_energy": -8.07, "internal_energy": -3.21, "cluster_size": 9, "cluster_id": 4, "rank_in_cluster": 6}

>  <energy>  (26) 
-7.55

>  <cluster_rmsd>  (26) 
1.79

>  <cluster>  (26) 
1

$$$$

     RDKit          3D

 53 56  0  0  0  0  0  0  0  0999 V2000
  138.4210   73.4400  221.0380 O   0  0  0  0  0  0  0  0  0  0  0  0
  139.4940   73.0980  221.5830 C   0  0  0  0  0  0  0  0  0  0  0  0
  140.7570   73.5770  221.1760 N   0  0  0  0  0  0  0  0  0  0  0  0
  140.9210   74.5270  220.0680 C   0  0  0  0  0  0  0  0  0  0  0  0
  141.1420   75.8460  220.6980 C   0  0  0  0  0  0  0  0  0  0  0  0
  142.2420   76.4520  220.4950 O   0  0  0  0  0  0  0  0  0  0  0  0
  140.2080   76.5080  221.5300 N   0  0  0  0  0  0  0  0  0  0  0  0
  139.6190   75.9020  222.7090 C   0  0  0  0  0  0  0  0  0  0  0  0
  138.2340   76.4770  222.8690 C   0  0  2  0  0  0  0  0  0  0  0  0
  137.2650   75.4950  222.5970 O   0  0  0  0  0  0  0  0  0  0  0  0
  138.1940   77.5840  221.8690 C   0  0  0  0  0  0  0  0  0  0  0  0
  139.6310   77.8300  221.4530 C   0  0  1  0  0  0  0  0  0  0  0  0
  140.3280   78.7870  222.3740 C   0  0  0  0  0  0  0  0  0  0  0  0
  141.8030   78.7210  222.2770 C   0  0  0  0  0  0  0  0  0  0  0  0
  142.5540   79.7310  223.0680 C   0  0  0  0  0  0  0  0  0  0  0  0
  141.9120   80.8940  223.3490 O   0  0  0  0  0  0  0  0  0  0  0  0
  140.5630   80.8830  223.4660 C   0  0  0  0  0  0  0  0  0  0  0  0
  139.8980   80.2120  222.2550 C   0  0  0  0  0  0  0  0  0  0  0  0
  139.4400   72.1490  222.7040 C   0  0  0  0  0  0  0  0  0  0  0  0
  138.4900   71.1500  222.7750 C   0  0  0  0  0  0  0  0  0  0  0  0
  138.4630   70.2610  223.8530 C   0  0  0  0  0  0  0  0  0  0  0  0
  139.3900   70.3660  224.8730 C   0  0  0  0  0  0  0  0  0  0  0  0
  139.4070   69.5150  225.9630 C   0  0  0  0  0  0  0  0  0  0  0  0
  140.3500   69.6540  226.9600 C   0  0  0  0  0  0  0  0  0  0  0  0
  140.4000   68.5920  228.3530 Cl  0  0  0  0  0  0  0  0  0  0  0  0
  141.2850   70.6660  226.8520 C   0  0  0  0  0  0  0  0  0  0  0  0
  141.2740   71.5180  225.7720 C   0  0  0  0  0  0  0  0  0  0  0  0
  140.3200   71.3800  224.7600 C   0  0  0  0  0  0  0  0  0  0  0  0
  140.3220   72.2080  223.7250 N   0  0  0  0  0  0  0  0  0  0  0  0
  141.6180   73.2350  221.6940 H   0  0  0  0  0  0  0  0  0  0  0  0
  141.7867   74.2481  219.4492 H   0  0  0  0  0  0  0  0  0  0  0  0
  140.0408   74.5357  219.4084 H   0  0  0  0  0  0  0  0  0  0  0  0
  139.5605   74.8110  222.5813 H   0  0  0  0  0  0  0  0  0  0  0  0
  140.2308   76.1106  223.5991 H   0  0  0  0  0  0  0  0  0  0  0  0
  138.0212   76.8321  223.8881 H   0  0  0  0  0  0  0  0  0  0  0  0
  137.7140   74.6220  222.7260 H   0  0  0  0  0  0  0  0  0  0  0  0
  137.5899   77.2896  220.9981 H   0  0  0  0  0  0  0  0  0  0  0  0
  137.7385   78.4910  222.2930 H   0  0  0  0  0  0  0  0  0  0  0  0
  139.7193   78.2937  220.4594 H   0  0  0  0  0  0  0  0  0  0  0  0
  140.0092   78.4323  223.3652 H   0  0  0  0  0  0  0  0  0  0  0  0
  142.1184   77.7240  222.6182 H   0  0  0  0  0  0  0  0  0  0  0  0
  142.0407   78.9325  221.2240 H   0  0  0  0  0  0  0  0  0  0  0  0
  142.8304   79.2646  224.0251 H   0  0  0  0  0  0  0  0  0  0  0  0
  143.4032   80.0195  222.4312 H   0  0  0  0  0  0  0  0  0  0  0  0
  140.2878   80.3305  224.3765 H   0  0  0  0  0  0  0  0  0  0  0  0
  140.2128   81.9244  223.5187 H   0  0  0  0  0  0  0  0  0  0  0  0
  138.8027   80.2990  222.3083 H   0  0  0  0  0  0  0  0  0  0  0  0
  140.1851   80.6701  221.2971 H   0  0  0  0  0  0  0  0  0  0  0  0
  137.7442   71.0523  221.9723 H   0  0  0  0  0  0  0  0  0  0  0  0
  137.6980   69.4715  223.8901 H   0  0  0  0  0  0  0  0  0  0  0  0
  138.6563   68.7143  226.0361 H   0  0  0  0  0  0  0  0  0  0  0  0
  142.0452   70.7914  227.6371 H   0  0  0  0  0  0  0  0  0  0  0  0
  142.0257   72.3182  225.7040 H   0  0  0  0  0  0  0  0  0  0  0  0
  1  2  2  0
  2  3  1  0
  3  4  1  0
  4  5  1  0
  5  6  2  0
  5  7  1  0
  7  8  1  0
  8  9  1  0
  9 10  1  0
  9 11  1  0
 11 12  1  0
 12 13  1  0
 13 14  1  0
 14 15  1  0
 15 16  1  0
 16 17  1  0
 17 18  1  0
  2 19  1  0
 19 20  2  0
 20 21  1  0
 21 22  2  0
 22 23  1  0
 23 24  2  0
 24 25  1  0
 24 26  1  0
 26 27  2  0
 27 28  1  0
 28 29  2  0
 12  7  1  0
 18 13  1  0
 29 19  1  0
 28 22  1  0
  3 30  1  0
  4 31  1  0
  4 32  1  0
  8 33  1  0
  8 34  1  0
  9 35  1  1
 10 36  1  0
 11 37  1  0
 11 38  1  0
 12 39  1  6
 13 40  1  0
 14 41  1  0
 14 42  1  0
 15 43  1  0
 15 44  1  0
 17 45  1  0
 17 46  1  0
 18 47  1  0
 18 48  1  0
 20 49  1  0
 21 50  1  0
 23 51  1  0
 26 52  1  0
 27 53  1  0
M  END
>  <smiles>  (27) 
O=C(NCC(=O)N1C[C@H](O)C[C@H]1C1CCOCC1)c1ccc2cc(Cl)ccc2n1

>  <score_type>  (27) 
oracle

>  <origin>  (27) 
autodockgpu

>  <m_score__min__energy>  (27) 
-8.0399999999999991

>  <m_primary>  (27) 
energy

>  <rmsd>  (27) 
3.5716967207875743

>  <m_score__min__rmsd>  (27) 
3.5716967207875743

>  <meeko>  (27) 
{"free_energy": -7.17, "intermolecular_energy": -8.96, "internal_energy": -2.23, "cluster_size": 33, "cluster_id": 1, "rank_in_cluster": 32}

>  <energy>  (27) 
-7.51

>  <cluster_rmsd>  (27) 
1.82

>  <cluster>  (27) 
1

$$$$

     RDKit          3D

 53 56  0  0  0  0  0  0  0  0999 V2000
  140.5930   71.9220  220.8650 O   0  0  0  0  0  0  0  0  0  0  0  0
  140.1920   72.3410  221.9730 C   0  0  0  0  0  0  0  0  0  0  0  0
  139.8060   73.6780  222.2010 N   0  0  0  0  0  0  0  0  0  0  0  0
  139.8420   74.7010  221.1470 C   0  0  0  0  0  0  0  0  0  0  0  0
  139.5370   75.9830  221.8190 C   0  0  0  0  0  0  0  0  0  0  0  0
  138.7010   75.9950  222.7760 O   0  0  0  0  0  0  0  0  0  0  0  0
  140.1140   77.2280  221.4760 N   0  0  0  0  0  0  0  0  0  0  0  0
  140.2690   77.6880  220.1090 C   0  0  0  0  0  0  0  0  0  0  0  0
  141.5020   78.5530  220.0590 C   0  0  2  0  0  0  0  0  0  0  0  0
  142.5230   77.9060  219.3390 O   0  0  0  0  0  0  0  0  0  0  0  0
  141.8670   78.7290  221.4950 C   0  0  0  0  0  0  0  0  0  0  0  0
  140.6590   78.2850  222.2960 C   0  0  1  0  0  0  0  0  0  0  0  0
  139.6710   79.3960  222.4880 C   0  0  0  0  0  0  0  0  0  0  0  0
  138.6100   79.0710  223.4670 C   0  0  0  0  0  0  0  0  0  0  0  0
  137.6710   80.1750  223.8010 C   0  0  0  0  0  0  0  0  0  0  0  0
  138.1320   81.4420  223.6490 O   0  0  0  0  0  0  0  0  0  0  0  0
  139.0760   81.6850  222.7070 C   0  0  0  0  0  0  0  0  0  0  0  0
  140.2630   80.7210  222.8390 C   0  0  0  0  0  0  0  0  0  0  0  0
  140.1180   71.3960  223.0970 C   0  0  0  0  0  0  0  0  0  0  0  0
  139.5550   70.1430  222.9650 C   0  0  0  0  0  0  0  0  0  0  0  0
  139.4980   69.2650  224.0510 C   0  0  0  0  0  0  0  0  0  0  0  0
  140.0070   69.6360  225.2810 C   0  0  0  0  0  0  0  0  0  0  0  0
  139.9750   68.8070  226.3880 C   0  0  0  0  0  0  0  0  0  0  0  0
  140.4950   69.2160  227.5980 C   0  0  0  0  0  0  0  0  0  0  0  0
  140.4710   68.1910  229.0200 Cl  0  0  0  0  0  0  0  0  0  0  0  0
  141.0500   70.4780  227.6900 C   0  0  0  0  0  0  0  0  0  0  0  0
  141.0850   71.3100  226.5940 C   0  0  0  0  0  0  0  0  0  0  0  0
  140.5600   70.8980  225.3650 C   0  0  0  0  0  0  0  0  0  0  0  0
  140.6000   71.7090  224.3180 N   0  0  0  0  0  0  0  0  0  0  0  0
  139.4770   73.9510  223.1730 H   0  0  0  0  0  0  0  0  0  0  0  0
  140.8391   74.7390  220.6840 H   0  0  0  0  0  0  0  0  0  0  0  0
  139.1208   74.4823  220.3458 H   0  0  0  0  0  0  0  0  0  0  0  0
  140.3865   76.8273  219.4342 H   0  0  0  0  0  0  0  0  0  0  0  0
  139.3835   78.2568  219.7890 H   0  0  0  0  0  0  0  0  0  0  0  0
  141.3422   79.5153  219.5507 H   0  0  0  0  0  0  0  0  0  0  0  0
  143.2950   77.8420  219.9540 H   0  0  0  0  0  0  0  0  0  0  0  0
  142.7398   78.1081  221.7454 H   0  0  0  0  0  0  0  0  0  0  0  0
  142.1326   79.7733  221.7159 H   0  0  0  0  0  0  0  0  0  0  0  0
  140.9118   77.9659  223.3179 H   0  0  0  0  0  0  0  0  0  0  0  0
  139.2293   79.4917  221.4852 H   0  0  0  0  0  0  0  0  0  0  0  0
  138.0187   78.2382  223.0585 H   0  0  0  0  0  0  0  0  0  0  0  0
  139.1341   78.8334  224.4045 H   0  0  0  0  0  0  0  0  0  0  0  0
  136.7860   80.0643  223.1572 H   0  0  0  0  0  0  0  0  0  0  0  0
  137.4764   80.0688  224.8784 H   0  0  0  0  0  0  0  0  0  0  0  0
  138.6262   81.5639  221.7105 H   0  0  0  0  0  0  0  0  0  0  0  0
  139.4472   82.7110  222.8468 H   0  0  0  0  0  0  0  0  0  0  0  0
  141.0686   80.9901  222.1401 H   0  0  0  0  0  0  0  0  0  0  0  0
  140.7205   80.7364  223.8392 H   0  0  0  0  0  0  0  0  0  0  0  0
  139.1459   69.8313  221.9927 H   0  0  0  0  0  0  0  0  0  0  0  0
  139.0444   68.2708  223.9256 H   0  0  0  0  0  0  0  0  0  0  0  0
  139.5277   67.8058  226.3017 H   0  0  0  0  0  0  0  0  0  0  0  0
  141.4678   70.8210  228.6480 H   0  0  0  0  0  0  0  0  0  0  0  0
  141.5314   72.3112  226.6859 H   0  0  0  0  0  0  0  0  0  0  0  0
  1  2  2  0
  2  3  1  0
  3  4  1  0
  4  5  1  0
  5  6  2  0
  5  7  1  0
  7  8  1  0
  8  9  1  0
  9 10  1  0
  9 11  1  0
 11 12  1  0
 12 13  1  0
 13 14  1  0
 14 15  1  0
 15 16  1  0
 16 17  1  0
 17 18  1  0
  2 19  1  0
 19 20  2  0
 20 21  1  0
 21 22  2  0
 22 23  1  0
 23 24  2  0
 24 25  1  0
 24 26  1  0
 26 27  2  0
 27 28  1  0
 28 29  2  0
 12  7  1  0
 18 13  1  0
 29 19  1  0
 28 22  1  0
  3 30  1  0
  4 31  1  0
  4 32  1  0
  8 33  1  0
  8 34  1  0
  9 35  1  6
 10 36  1  0
 11 37  1  0
 11 38  1  0
 12 39  1  1
 13 40  1  0
 14 41  1  0
 14 42  1  0
 15 43  1  0
 15 44  1  0
 17 45  1  0
 17 46  1  0
 18 47  1  0
 18 48  1  0
 20 49  1  0
 21 50  1  0
 23 51  1  0
 26 52  1  0
 27 53  1  0
M  END
>  <smiles>  (28) 
O=C(NCC(=O)N1C[C@H](O)C[C@H]1C1CCOCC1)c1ccc2cc(Cl)ccc2n1

>  <score_type>  (28) 
oracle

>  <origin>  (28) 
autodockgpu

>  <m_score__min__energy>  (28) 
-8.0399999999999991

>  <m_primary>  (28) 
energy

>  <rmsd>  (28) 
3.4441231738161657

>  <m_score__min__rmsd>  (28) 
3.4441231738161657

>  <meeko>  (28) 
{"free_energy": -7.73, "intermolecular_energy": -9.52, "internal_energy": -1.79, "cluster_size": 33, "cluster_id": 1, "rank_in_cluster": 20}

>  <energy>  (28) 
-7.48

>  <cluster_rmsd>  (28) 
1.89

>  <cluster>  (28) 
1

$$$$

     RDKit          3D

 53 56  0  0  0  0  0  0  0  0999 V2000
  139.5560   72.1230  220.5830 O   0  0  0  0  0  0  0  0  0  0  0  0
  139.5880   72.5660  221.7520 C   0  0  0  0  0  0  0  0  0  0  0  0
  139.5440   73.9410  222.0610 N   0  0  0  0  0  0  0  0  0  0  0  0
  139.4560   74.9800  221.0250 C   0  0  0  0  0  0  0  0  0  0  0  0
  140.2110   76.1380  221.5510 C   0  0  0  0  0  0  0  0  0  0  0  0
  140.7000   76.0750  222.7230 O   0  0  0  0  0  0  0  0  0  0  0  0
  140.4400   77.3390  220.8400 N   0  0  0  0  0  0  0  0  0  0  0  0
  139.4460   77.9680  219.9910 C   0  0  0  0  0  0  0  0  0  0  0  0
  140.1810   78.6730  218.8790 C   0  0  2  0  0  0  0  0  0  0  0  0
  139.9600   78.0150  217.6550 O   0  0  0  0  0  0  0  0  0  0  0  0
  141.6110   78.5940  219.2970 C   0  0  0  0  0  0  0  0  0  0  0  0
  141.6040   78.1910  220.7580 C   0  0  1  0  0  0  0  0  0  0  0  0
  141.4800   79.3770  221.6680 C   0  0  0  0  0  0  0  0  0  0  0  0
  142.2430   79.2280  222.9270 C   0  0  0  0  0  0  0  0  0  0  0  0
  142.2680   80.4180  223.8180 C   0  0  0  0  0  0  0  0  0  0  0  0
  142.0960   81.6300  223.2320 O   0  0  0  0  0  0  0  0  0  0  0  0
  141.3530   81.7090  222.1020 C   0  0  0  0  0  0  0  0  0  0  0  0
  141.8200   80.6930  221.0490 C   0  0  0  0  0  0  0  0  0  0  0  0
  139.6750   71.6080  222.8640 C   0  0  0  0  0  0  0  0  0  0  0  0
  139.1900   70.3200  222.7620 C   0  0  0  0  0  0  0  0  0  0  0  0
  139.2870   69.4300  223.8360 C   0  0  0  0  0  0  0  0  0  0  0  0
  139.8730   69.8240  225.0230 C   0  0  0  0  0  0  0  0  0  0  0  0
  139.9940   68.9850  226.1160 C   0  0  0  0  0  0  0  0  0  0  0  0
  140.5860   69.4180  227.2840 C   0  0  0  0  0  0  0  0  0  0  0  0
  140.7540   68.3820  228.6870 Cl  0  0  0  0  0  0  0  0  0  0  0  0
  141.0600   70.7150  227.3470 C   0  0  0  0  0  0  0  0  0  0  0  0
  140.9430   71.5570  226.2640 C   0  0  0  0  0  0  0  0  0  0  0  0
  140.3440   71.1210  225.0790 C   0  0  0  0  0  0  0  0  0  0  0  0
  140.2390   71.9420  224.0440 N   0  0  0  0  0  0  0  0  0  0  0  0
  139.5760   74.2320  223.0810 H   0  0  0  0  0  0  0  0  0  0  0  0
  139.9055   74.6240  220.0862 H   0  0  0  0  0  0  0  0  0  0  0  0
  138.4113   75.2442  220.8041 H   0  0  0  0  0  0  0  0  0  0  0  0
  138.7730   77.2054  219.5721 H   0  0  0  0  0  0  0  0  0  0  0  0
  138.8391   78.6815  220.5678 H   0  0  0  0  0  0  0  0  0  0  0  0
  139.8512   79.7108  218.7238 H   0  0  0  0  0  0  0  0  0  0  0  0
  138.9800   78.0190  217.5150 H   0  0  0  0  0  0  0  0  0  0  0  0
  142.1426   77.8411  218.6965 H   0  0  0  0  0  0  0  0  0  0  0  0
  142.1250   79.5552  219.1493 H   0  0  0  0  0  0  0  0  0  0  0  0
  142.5354   77.6989  221.0748 H   0  0  0  0  0  0  0  0  0  0  0  0
  140.4027   79.3903  221.8901 H   0  0  0  0  0  0  0  0  0  0  0  0
  141.8011   78.3938  223.4917 H   0  0  0  0  0  0  0  0  0  0  0  0
  143.2872   79.0625  222.6234 H   0  0  0  0  0  0  0  0  0  0  0  0
  141.4675   80.2925  224.5619 H   0  0  0  0  0  0  0  0  0  0  0  0
  143.2865   80.4431  224.2327 H   0  0  0  0  0  0  0  0  0  0  0  0
  140.3008   81.5073  222.3513 H   0  0  0  0  0  0  0  0  0  0  0  0
  141.4694   82.7191  221.6824 H   0  0  0  0  0  0  0  0  0  0  0  0
  141.2816   80.8331  220.1000 H   0  0  0  0  0  0  0  0  0  0  0  0
  142.8873   80.7895  220.8009 H   0  0  0  0  0  0  0  0  0  0  0  0
  138.7210   69.9893  221.8236 H   0  0  0  0  0  0  0  0  0  0  0  0
  138.8934   68.4078  223.7348 H   0  0  0  0  0  0  0  0  0  0  0  0
  139.6118   67.9555  226.0526 H   0  0  0  0  0  0  0  0  0  0  0  0
  141.5349   71.0776  228.2706 H   0  0  0  0  0  0  0  0  0  0  0  0
  141.3258   72.5860  226.3323 H   0  0  0  0  0  0  0  0  0  0  0  0
  1  2  2  0
  2  3  1  0
  3  4  1  0
  4  5  1  0
  5  6  2  0
  5  7  1  0
  7  8  1  0
  8  9  1  0
  9 10  1  0
  9 11  1  0
 11 12  1  0
 12 13  1  0
 13 14  1  0
 14 15  1  0
 15 16  1  0
 16 17  1  0
 17 18  1  0
  2 19  1  0
 19 20  2  0
 20 21  1  0
 21 22  2  0
 22 23  1  0
 23 24  2  0
 24 25  1  0
 24 26  1  0
 26 27  2  0
 27 28  1  0
 28 29  2  0
 12  7  1  0
 18 13  1  0
 29 19  1  0
 28 22  1  0
  3 30  1  0
  4 31  1  0
  4 32  1  0
  8 33  1  0
  8 34  1  0
  9 35  1  6
 10 36  1  0
 11 37  1  0
 11 38  1  0
 12 39  1  1
 13 40  1  0
 14 41  1  0
 14 42  1  0
 15 43  1  0
 15 44  1  0
 17 45  1  0
 17 46  1  0
 18 47  1  0
 18 48  1  0
 20 49  1  0
 21 50  1  0
 23 51  1  0
 26 52  1  0
 27 53  1  0
M  END
>  <smiles>  (29) 
O=C(NCC(=O)N1C[C@H](O)C[C@H]1C1CCOCC1)c1ccc2cc(Cl)ccc2n1

>  <score_type>  (29) 
oracle

>  <origin>  (29) 
autodockgpu

>  <m_score__min__energy>  (29) 
-8.0399999999999991

>  <m_primary>  (29) 
energy

>  <rmsd>  (29) 
3.27617840574991

>  <m_score__min__rmsd>  (29) 
3.27617840574991

>  <meeko>  (29) 
{"free_energy": -7.95, "intermolecular_energy": -9.74, "internal_energy": -1.92, "cluster_size": 33, "cluster_id": 1, "rank_in_cluster": 5}

>  <energy>  (29) 
-7.48

>  <cluster_rmsd>  (29) 
1.92

>  <cluster>  (29) 
1

$$$$

     RDKit          3D

 53 56  0  0  0  0  0  0  0  0999 V2000
  136.9520   74.9430  220.5350 O   0  0  0  0  0  0  0  0  0  0  0  0
  137.7290   74.6990  221.4840 C   0  0  0  0  0  0  0  0  0  0  0  0
  137.6790   73.5080  222.2390 N   0  0  0  0  0  0  0  0  0  0  0  0
  136.7020   72.4440  221.9710 C   0  0  0  0  0  0  0  0  0  0  0  0
  135.3730   73.0830  222.0750 C   0  0  0  0  0  0  0  0  0  0  0  0
  134.3720   72.5190  221.5310 O   0  0  0  0  0  0  0  0  0  0  0  0
  135.1160   74.3010  222.7480 N   0  0  0  0  0  0  0  0  0  0  0  0
  134.3880   75.4050  222.1520 C   0  0  0  0  0  0  0  0  0  0  0  0
  134.9380   76.6790  222.7400 C   0  0  2  0  0  0  0  0  0  0  0  0
  135.6580   77.3940  221.7660 O   0  0  0  0  0  0  0  0  0  0  0  0
  135.8230   76.2050  223.8440 C   0  0  0  0  0  0  0  0  0  0  0  0
  135.4680   74.7500  224.0750 C   0  0  1  0  0  0  0  0  0  0  0  0
  134.3200   74.5950  225.0290 C   0  0  0  0  0  0  0  0  0  0  0  0
  134.1430   73.2070  225.5080 C   0  0  0  0  0  0  0  0  0  0  0  0
  133.1060   73.0060  226.5540 C   0  0  0  0  0  0  0  0  0  0  0  0
  132.8110   74.0720  227.3420 O   0  0  0  0  0  0  0  0  0  0  0  0
  132.9550   75.3190  226.8330 C   0  0  0  0  0  0  0  0  0  0  0  0
  134.3430   75.5140  226.2060 C   0  0  0  0  0  0  0  0  0  0  0  0
  138.7460   75.7010  221.8340 C   0  0  0  0  0  0  0  0  0  0  0  0
  140.0950   75.4690  221.6540 C   0  0  0  0  0  0  0  0  0  0  0  0
  141.0410   76.4400  221.9960 C   0  0  0  0  0  0  0  0  0  0  0  0
  140.6420   77.6540  222.5210 C   0  0  0  0  0  0  0  0  0  0  0  0
  141.5350   78.6490  222.8770 C   0  0  0  0  0  0  0  0  0  0  0  0
  141.0950   79.8480  223.3980 C   0  0  0  0  0  0  0  0  0  0  0  0
  142.2000   81.1280  223.8590 Cl  0  0  0  0  0  0  0  0  0  0  0  0
  139.7370   80.0410  223.5620 C   0  0  0  0  0  0  0  0  0  0  0  0
  138.8410   79.0570  223.2120 C   0  0  0  0  0  0  0  0  0  0  0  0
  139.2840   77.8410  222.6830 C   0  0  0  0  0  0  0  0  0  0  0  0
  138.4100   76.9020  222.3500 N   0  0  0  0  0  0  0  0  0  0  0  0
  138.3770   73.3810  223.0290 H   0  0  0  0  0  0  0  0  0  0  0  0
  136.8512   72.0321  220.9620 H   0  0  0  0  0  0  0  0  0  0  0  0
  136.8070   71.6096  222.6800 H   0  0  0  0  0  0  0  0  0  0  0  0
  134.5294   75.4030  221.0611 H   0  0  0  0  0  0  0  0  0  0  0  0
  133.3112   75.3159  222.3583 H   0  0  0  0  0  0  0  0  0  0  0  0
  134.1596   77.3676  223.1006 H   0  0  0  0  0  0  0  0  0  0  0  0
  136.4220   76.8180  221.5110 H   0  0  0  0  0  0  0  0  0  0  0  0
  136.8796   76.2981  223.5525 H   0  0  0  0  0  0  0  0  0  0  0  0
  135.6804   76.8023  224.7567 H   0  0  0  0  0  0  0  0  0  0  0  0
  136.2849   74.1740  224.5343 H   0  0  0  0  0  0  0  0  0  0  0  0
  133.4585   74.8817  224.4080 H   0  0  0  0  0  0  0  0  0  0  0  0
  133.8732   72.5841  224.6424 H   0  0  0  0  0  0  0  0  0  0  0  0
  135.0977   72.9321  225.9801 H   0  0  0  0  0  0  0  0  0  0  0  0
  132.1784   72.7008  226.0475 H   0  0  0  0  0  0  0  0  0  0  0  0
  133.5302   72.2547  227.2364 H   0  0  0  0  0  0  0  0  0  0  0  0
  132.1882   75.4808  226.0611 H   0  0  0  0  0  0  0  0  0  0  0  0
  132.8426   76.0421  227.6542 H   0  0  0  0  0  0  0  0  0  0  0  0
  134.4892   76.5571  225.8888 H   0  0  0  0  0  0  0  0  0  0  0  0
  135.1651   75.2988  226.9044 H   0  0  0  0  0  0  0  0  0  0  0  0
  140.4298   74.5081  221.2362 H   0  0  0  0  0  0  0  0  0  0  0  0
  142.1114   76.2357  221.8459 H   0  0  0  0  0  0  0  0  0  0  0  0
  142.6137   78.4811  222.7423 H   0  0  0  0  0  0  0  0  0  0  0  0
  139.3682   80.9908  223.9765 H   0  0  0  0  0  0  0  0  0  0  0  0
  137.7634   79.2292  223.3501 H   0  0  0  0  0  0  0  0  0  0  0  0
  1  2  2  0
  2  3  1  0
  3  4  1  0
  4  5  1  0
  5  6  2  0
  5  7  1  0
  7  8  1  0
  8  9  1  0
  9 10  1  0
  9 11  1  0
 11 12  1  0
 12 13  1  0
 13 14  1  0
 14 15  1  0
 15 16  1  0
 16 17  1  0
 17 18  1  0
  2 19  1  0
 19 20  2  0
 20 21  1  0
 21 22  2  0
 22 23  1  0
 23 24  2  0
 24 25  1  0
 24 26  1  0
 26 27  2  0
 27 28  1  0
 28 29  2  0
 12  7  1  0
 18 13  1  0
 29 19  1  0
 28 22  1  0
  3 30  1  0
  4 31  1  0
  4 32  1  0
  8 33  1  0
  8 34  1  0
  9 35  1  1
 10 36  1  0
 11 37  1  0
 11 38  1  0
 12 39  1  1
 13 40  1  0
 14 41  1  0
 14 42  1  0
 15 43  1  0
 15 44  1  0
 17 45  1  0
 17 46  1  0
 18 47  1  0
 18 48  1  0
 20 49  1  0
 21 50  1  0
 23 51  1  0
 26 52  1  0
 27 53  1  0
M  END
>  <smiles>  (30) 
O=C(NCC(=O)N1C[C@H](O)C[C@H]1C1CCOCC1)c1ccc2cc(Cl)ccc2n1

>  <score_type>  (30) 
oracle

>  <origin>  (30) 
autodockgpu

>  <m_score__min__energy>  (30) 
-8.0399999999999991

>  <m_primary>  (30) 
energy

>  <rmsd>  (30) 
8.065041953848974

>  <m_score__min__rmsd>  (30) 
8.065041953848974

>  <meeko>  (30) 
{"free_energy": -6.31, "intermolecular_energy": -8.1, "internal_energy": -3.16, "cluster_size": 9, "cluster_id": 4, "rank_in_cluster": 2}

>  <energy>  (30) 
-7.48

>  <cluster_rmsd>  (30) 
1.81

>  <cluster>  (30) 
1

$$$$

     RDKit          3D

 53 56  0  0  0  0  0  0  0  0999 V2000
  139.4920   72.1730  220.6040 O   0  0  0  0  0  0  0  0  0  0  0  0
  139.5510   72.6000  221.7780 C   0  0  0  0  0  0  0  0  0  0  0  0
  139.5240   73.9720  222.1060 N   0  0  0  0  0  0  0  0  0  0  0  0
  139.4250   75.0250  221.0860 C   0  0  0  0  0  0  0  0  0  0  0  0
  140.2820   76.1310  221.5640 C   0  0  0  0  0  0  0  0  0  0  0  0
  140.8400   76.0320  222.7020 O   0  0  0  0  0  0  0  0  0  0  0  0
  140.5400   77.3190  220.8410 N   0  0  0  0  0  0  0  0  0  0  0  0
  139.5930   77.9150  219.9180 C   0  0  0  0  0  0  0  0  0  0  0  0
  140.3870   78.6060  218.8380 C   0  0  2  0  0  0  0  0  0  0  0  0
  140.2500   77.9190  217.6180 O   0  0  0  0  0  0  0  0  0  0  0  0
  141.7890   78.5570  219.3450 C   0  0  0  0  0  0  0  0  0  0  0  0
  141.6960   78.1860  220.8120 C   0  0  1  0  0  0  0  0  0  0  0  0
  141.5000   79.3890  221.6860 C   0  0  0  0  0  0  0  0  0  0  0  0
  142.2190   79.2970  222.9750 C   0  0  0  0  0  0  0  0  0  0  0  0
  142.1740   80.5090  223.8350 C   0  0  0  0  0  0  0  0  0  0  0  0
  141.9870   81.7000  223.2110 O   0  0  0  0  0  0  0  0  0  0  0  0
  141.2850   81.7260  222.0530 C   0  0  0  0  0  0  0  0  0  0  0  0
  141.8230   80.7000  221.0460 C   0  0  0  0  0  0  0  0  0  0  0  0
  139.6520   71.6270  222.8760 C   0  0  0  0  0  0  0  0  0  0  0  0
  139.1800   70.3360  222.7560 C   0  0  0  0  0  0  0  0  0  0  0  0
  139.2890   69.4310  223.8160 C   0  0  0  0  0  0  0  0  0  0  0  0
  139.8750   69.8140  225.0080 C   0  0  0  0  0  0  0  0  0  0  0  0
  140.0070   68.9600  226.0880 C   0  0  0  0  0  0  0  0  0  0  0  0
  140.5990   69.3820  227.2600 C   0  0  0  0  0  0  0  0  0  0  0  0
  140.7820   68.3270  228.6470 Cl  0  0  0  0  0  0  0  0  0  0  0  0
  141.0590   70.6830  227.3400 C   0  0  0  0  0  0  0  0  0  0  0  0
  140.9300   71.5390  226.2710 C   0  0  0  0  0  0  0  0  0  0  0  0
  140.3320   71.1140  225.0810 C   0  0  0  0  0  0  0  0  0  0  0  0
  140.2150   71.9500  224.0590 N   0  0  0  0  0  0  0  0  0  0  0  0
  139.5780   74.2490  223.1290 H   0  0  0  0  0  0  0  0  0  0  0  0
  139.7853   74.6532  220.1155 H   0  0  0  0  0  0  0  0  0  0  0  0
  138.3848   75.3523  220.9417 H   0  0  0  0  0  0  0  0  0  0  0  0
  138.9573   77.1339  219.4755 H   0  0  0  0  0  0  0  0  0  0  0  0
  138.9422   78.6321  220.4396 H   0  0  0  0  0  0  0  0  0  0  0  0
  140.0547   79.6357  218.6395 H   0  0  0  0  0  0  0  0  0  0  0  0
  140.6530   77.0260  217.7600 H   0  0  0  0  0  0  0  0  0  0  0  0
  142.3667   77.7989  218.7959 H   0  0  0  0  0  0  0  0  0  0  0  0
  142.2988   79.5220  219.2073 H   0  0  0  0  0  0  0  0  0  0  0  0
  142.6125   77.7147  221.1967 H   0  0  0  0  0  0  0  0  0  0  0  0
  140.4152   79.3720  221.8676 H   0  0  0  0  0  0  0  0  0  0  0  0
  141.7824   78.4636  223.5450 H   0  0  0  0  0  0  0  0  0  0  0  0
  143.2785   79.1581  222.7140 H   0  0  0  0  0  0  0  0  0  0  0  0
  141.3503   80.3769  224.5520 H   0  0  0  0  0  0  0  0  0  0  0  0
  143.1748   80.5767  224.2865 H   0  0  0  0  0  0  0  0  0  0  0  0
  140.2311   81.4965  222.2687 H   0  0  0  0  0  0  0  0  0  0  0  0
  141.3849   82.7284  221.6112 H   0  0  0  0  0  0  0  0  0  0  0  0
  141.3176   80.7993  220.0741 H   0  0  0  0  0  0  0  0  0  0  0  0
  142.8956   80.8241  220.8361 H   0  0  0  0  0  0  0  0  0  0  0  0
  138.7118   70.0146  221.8139 H   0  0  0  0  0  0  0  0  0  0  0  0
  138.9056   68.4065  223.7006 H   0  0  0  0  0  0  0  0  0  0  0  0
  139.6340   67.9281  226.0109 H   0  0  0  0  0  0  0  0  0  0  0  0
  141.5328   71.0372  228.2674 H   0  0  0  0  0  0  0  0  0  0  0  0
  141.3020   72.5709  226.3535 H   0  0  0  0  0  0  0  0  0  0  0  0
  1  2  2  0
  2  3  1  0
  3  4  1  0
  4  5  1  0
  5  6  2  0
  5  7  1  0
  7  8  1  0
  8  9  1  0
  9 10  1  0
  9 11  1  0
 11 12  1  0
 12 13  1  0
 13 14  1  0
 14 15  1  0
 15 16  1  0
 16 17  1  0
 17 18  1  0
  2 19  1  0
 19 20  2  0
 20 21  1  0
 21 22  2  0
 22 23  1  0
 23 24  2  0
 24 25  1  0
 24 26  1  0
 26 27  2  0
 27 28  1  0
 28 29  2  0
 12  7  1  0
 18 13  1  0
 29 19  1  0
 28 22  1  0
  3 30  1  0
  4 31  1  0
  4 32  1  0
  8 33  1  0
  8 34  1  0
  9 35  1  6
 10 36  1  0
 11 37  1  0
 11 38  1  0
 12 39  1  1
 13 40  1  0
 14 41  1  0
 14 42  1  0
 15 43  1  0
 15 44  1  0
 17 45  1  0
 17 46  1  0
 18 47  1  0
 18 48  1  0
 20 49  1  0
 21 50  1  0
 23 51  1  0
 26 52  1  0
 27 53  1  0
M  END
>  <smiles>  (31) 
O=C(NCC(=O)N1C[C@H](O)C[C@H]1C1CCOCC1)c1ccc2cc(Cl)ccc2n1

>  <score_type>  (31) 
oracle

>  <origin>  (31) 
autodockgpu

>  <m_score__min__energy>  (31) 
-8.0399999999999991

>  <m_primary>  (31) 
energy

>  <rmsd>  (31) 
3.2863734402945766

>  <m_score__min__rmsd>  (31) 
3.2863734402945766

>  <meeko>  (31) 
{"free_energy": -7.93, "intermolecular_energy": -9.72, "internal_energy": -1.91, "cluster_size": 33, "cluster_id": 1, "rank_in_cluster": 8}

>  <energy>  (31) 
-7.46

>  <cluster_rmsd>  (31) 
1.93

>  <cluster>  (31) 
1

$$$$

     RDKit          3D

 53 56  0  0  0  0  0  0  0  0999 V2000
  139.0680   72.1880  220.8070 O   0  0  0  0  0  0  0  0  0  0  0  0
  139.2840   72.5920  221.9710 C   0  0  0  0  0  0  0  0  0  0  0  0
  139.3600   73.9580  222.3160 N   0  0  0  0  0  0  0  0  0  0  0  0
  139.1910   75.0320  221.3270 C   0  0  0  0  0  0  0  0  0  0  0  0
  140.4570   75.7960  221.3420 C   0  0  0  0  0  0  0  0  0  0  0  0
  141.4460   75.3380  221.9970 O   0  0  0  0  0  0  0  0  0  0  0  0
  140.6640   77.0240  220.6720 N   0  0  0  0  0  0  0  0  0  0  0  0
  139.7060   77.6020  219.7480 C   0  0  0  0  0  0  0  0  0  0  0  0
  140.4840   78.3780  218.7160 C   0  0  2  0  0  0  0  0  0  0  0  0
  140.4160   77.7330  217.4680 O   0  0  0  0  0  0  0  0  0  0  0  0
  141.8740   78.3880  219.2570 C   0  0  0  0  0  0  0  0  0  0  0  0
  141.7680   77.9550  220.7060 C   0  0  1  0  0  0  0  0  0  0  0  0
  141.4840   79.1100  221.6190 C   0  0  0  0  0  0  0  0  0  0  0  0
  142.1720   79.0050  222.9240 C   0  0  0  0  0  0  0  0  0  0  0  0
  142.0370   80.1770  223.8290 C   0  0  0  0  0  0  0  0  0  0  0  0
  141.8020   81.3800  223.2460 O   0  0  0  0  0  0  0  0  0  0  0  0
  141.1310   81.4160  222.0690 C   0  0  0  0  0  0  0  0  0  0  0  0
  141.7510   80.4600  221.0390 C   0  0  0  0  0  0  0  0  0  0  0  0
  139.4670   71.5960  223.0370 C   0  0  0  0  0  0  0  0  0  0  0  0
  139.0440   70.2900  222.9000 C   0  0  0  0  0  0  0  0  0  0  0  0
  139.2310   69.3640  223.9310 C   0  0  0  0  0  0  0  0  0  0  0  0
  139.8460   69.7410  225.1100 C   0  0  0  0  0  0  0  0  0  0  0  0
  140.0550   68.8670  226.1610 C   0  0  0  0  0  0  0  0  0  0  0  0
  140.6730   69.2840  227.3220 C   0  0  0  0  0  0  0  0  0  0  0  0
  140.9530   68.2020  228.6720 Cl  0  0  0  0  0  0  0  0  0  0  0  0
  141.0820   70.6000  227.4190 C   0  0  0  0  0  0  0  0  0  0  0  0
  140.8770   71.4770  226.3790 C   0  0  0  0  0  0  0  0  0  0  0  0
  140.2510   71.0570  225.2010 C   0  0  0  0  0  0  0  0  0  0  0  0
  140.0610   71.9130  224.2070 N   0  0  0  0  0  0  0  0  0  0  0  0
  139.5460   74.2150  223.3280 H   0  0  0  0  0  0  0  0  0  0  0  0
  139.0112   74.6081  220.3280 H   0  0  0  0  0  0  0  0  0  0  0  0
  138.3290   75.6718  221.5672 H   0  0  0  0  0  0  0  0  0  0  0  0
  139.1264   76.8045  219.2601 H   0  0  0  0  0  0  0  0  0  0  0  0
  139.0033   78.2605  220.2797 H   0  0  0  0  0  0  0  0  0  0  0  0
  140.0977   79.3941  218.5479 H   0  0  0  0  0  0  0  0  0  0  0  0
  139.7450   77.0120  217.5680 H   0  0  0  0  0  0  0  0  0  0  0  0
  142.5069   77.6858  218.6947 H   0  0  0  0  0  0  0  0  0  0  0  0
  142.3307   79.3849  219.1693 H   0  0  0  0  0  0  0  0  0  0  0  0
  142.7002   77.5210  221.0967 H   0  0  0  0  0  0  0  0  0  0  0  0
  140.3973   79.0283  221.7689 H   0  0  0  0  0  0  0  0  0  0  0  0
  141.7669   78.1268  223.4481 H   0  0  0  0  0  0  0  0  0  0  0  0
  143.2442   78.9344  222.6887 H   0  0  0  0  0  0  0  0  0  0  0  0
  141.2025   79.9720  224.5157 H   0  0  0  0  0  0  0  0  0  0  0  0
  143.0196   80.2801  224.3126 H   0  0  0  0  0  0  0  0  0  0  0  0
  140.0853   81.1233  222.2445 H   0  0  0  0  0  0  0  0  0  0  0  0
  141.1890   82.4392  221.6694 H   0  0  0  0  0  0  0  0  0  0  0  0
  141.2666   80.5701  220.0576 H   0  0  0  0  0  0  0  0  0  0  0  0
  142.8204   80.6498  220.8647 H   0  0  0  0  0  0  0  0  0  0  0  0
  138.5534   69.9731  221.9679 H   0  0  0  0  0  0  0  0  0  0  0  0
  138.8860   68.3274  223.8027 H   0  0  0  0  0  0  0  0  0  0  0  0
  139.7231   67.8222  226.0700 H   0  0  0  0  0  0  0  0  0  0  0  0
  141.5766   70.9502  228.3370 H   0  0  0  0  0  0  0  0  0  0  0  0
  141.2095   72.5211  226.4752 H   0  0  0  0  0  0  0  0  0  0  0  0
  1  2  2  0
  2  3  1  0
  3  4  1  0
  4  5  1  0
  5  6  2  0
  5  7  1  0
  7  8  1  0
  8  9  1  0
  9 10  1  0
  9 11  1  0
 11 12  1  0
 12 13  1  0
 13 14  1  0
 14 15  1  0
 15 16  1  0
 16 17  1  0
 17 18  1  0
  2 19  1  0
 19 20  2  0
 20 21  1  0
 21 22  2  0
 22 23  1  0
 23 24  2  0
 24 25  1  0
 24 26  1  0
 26 27  2  0
 27 28  1  0
 28 29  2  0
 12  7  1  0
 18 13  1  0
 29 19  1  0
 28 22  1  0
  3 30  1  0
  4 31  1  0
  4 32  1  0
  8 33  1  0
  8 34  1  0
  9 35  1  6
 10 36  1  0
 11 37  1  0
 11 38  1  0
 12 39  1  1
 13 40  1  0
 14 41  1  0
 14 42  1  0
 15 43  1  0
 15 44  1  0
 17 45  1  0
 17 46  1  0
 18 47  1  0
 18 48  1  0
 20 49  1  0
 21 50  1  0
 23 51  1  0
 26 52  1  0
 27 53  1  0
M  END
>  <smiles>  (32) 
O=C(NCC(=O)N1C[C@H](O)C[C@H]1C1CCOCC1)c1ccc2cc(Cl)ccc2n1

>  <score_type>  (32) 
oracle

>  <origin>  (32) 
autodockgpu

>  <m_score__min__energy>  (32) 
-8.0399999999999991

>  <m_primary>  (32) 
energy

>  <rmsd>  (32) 
3.151675055606626

>  <m_score__min__rmsd>  (32) 
3.151675055606626

>  <meeko>  (32) 
{"free_energy": -7.89, "intermolecular_energy": -9.68, "internal_energy": -1.59, "cluster_size": 33, "cluster_id": 1, "rank_in_cluster": 15}

>  <energy>  (32) 
-7.17

>  <cluster_rmsd>  (32) 
1.5

>  <cluster>  (32) 
1

$$$$

     RDKit          3D

 53 56  0  0  0  0  0  0  0  0999 V2000
  138.6650   71.6080  221.0290 O   0  0  0  0  0  0  0  0  0  0  0  0
  139.1010   72.0720  222.1050 C   0  0  0  0  0  0  0  0  0  0  0  0
  139.3990   73.4380  222.2960 N   0  0  0  0  0  0  0  0  0  0  0  0
  139.2200   74.4400  221.2360 C   0  0  0  0  0  0  0  0  0  0  0  0
  140.4660   74.4110  220.4410 C   0  0  0  0  0  0  0  0  0  0  0  0
  141.0460   75.5080  220.1620 O   0  0  0  0  0  0  0  0  0  0  0  0
  141.0810   73.2350  219.9520 N   0  0  0  0  0  0  0  0  0  0  0  0
  140.7560   72.6360  218.6710 C   0  0  0  0  0  0  0  0  0  0  0  0
  140.9520   71.1470  218.8060 C   0  0  2  0  0  0  0  0  0  0  0  0
  139.7110   70.4870  218.7700 O   0  0  0  0  0  0  0  0  0  0  0  0
  141.6180   70.9980  220.1320 C   0  0  0  0  0  0  0  0  0  0  0  0
  142.0970   72.3820  220.5240 C   0  0  1  0  0  0  0  0  0  0  0  0
  143.4520   72.6890  219.9610 C   0  0  0  0  0  0  0  0  0  0  0  0
  144.2690   73.5510  220.8430 C   0  0  0  0  0  0  0  0  0  0  0  0
  145.6700   73.7900  220.4060 C   0  0  0  0  0  0  0  0  0  0  0  0
  146.2380   72.8440  219.6150 O   0  0  0  0  0  0  0  0  0  0  0  0
  145.4420   72.1130  218.7980 C   0  0  0  0  0  0  0  0  0  0  0  0
  144.2620   71.4980  219.5640 C   0  0  0  0  0  0  0  0  0  0  0  0
  139.3160   71.1520  223.2310 C   0  0  0  0  0  0  0  0  0  0  0  0
  138.9200   69.8310  223.1840 C   0  0  0  0  0  0  0  0  0  0  0  0
  139.1360   68.9770  224.2700 C   0  0  0  0  0  0  0  0  0  0  0  0
  139.7540   69.4430  225.4150 C   0  0  0  0  0  0  0  0  0  0  0  0
  139.9920   68.6430  226.5180 C   0  0  0  0  0  0  0  0  0  0  0  0
  140.6120   69.1470  227.6430 C   0  0  0  0  0  0  0  0  0  0  0  0
  140.9280   68.1610  229.0570 Cl  0  0  0  0  0  0  0  0  0  0  0  0
  140.9940   70.4750  227.6510 C   0  0  0  0  0  0  0  0  0  0  0  0
  140.7600   71.2780  226.5580 C   0  0  0  0  0  0  0  0  0  0  0  0
  140.1320   70.7700  225.4170 C   0  0  0  0  0  0  0  0  0  0  0  0
  139.9150   71.5560  224.3720 N   0  0  0  0  0  0  0  0  0  0  0  0
  139.7650   73.7480  223.2420 H   0  0  0  0  0  0  0  0  0  0  0  0
  138.3569   74.1806  220.6053 H   0  0  0  0  0  0  0  0  0  0  0  0
  139.0279   75.4400  221.6520 H   0  0  0  0  0  0  0  0  0  0  0  0
  139.7106   72.8552  218.4080 H   0  0  0  0  0  0  0  0  0  0  0  0
  141.4010   73.0420  217.8779 H   0  0  0  0  0  0  0  0  0  0  0  0
  141.5472   70.7073  217.9921 H   0  0  0  0  0  0  0  0  0  0  0  0
  139.2010   70.8170  219.5520 H   0  0  0  0  0  0  0  0  0  0  0  0
  140.9036   70.6169  220.8766 H   0  0  0  0  0  0  0  0  0  0  0  0
  142.4536   70.2843  220.0824 H   0  0  0  0  0  0  0  0  0  0  0  0
  142.2186   72.5060  221.6102 H   0  0  0  0  0  0  0  0  0  0  0  0
  143.2034   73.2361  219.0397 H   0  0  0  0  0  0  0  0  0  0  0  0
  143.7683   74.5277  220.9166 H   0  0  0  0  0  0  0  0  0  0  0  0
  144.3447   73.0105  221.7980 H   0  0  0  0  0  0  0  0  0  0  0  0
  145.6875   74.7402  219.8520 H   0  0  0  0  0  0  0  0  0  0  0  0
  146.2637   73.7827  221.3320 H   0  0  0  0  0  0  0  0  0  0  0  0
  145.0511   72.7650  218.0030 H   0  0  0  0  0  0  0  0  0  0  0  0
  146.0420   71.2944  218.3738 H   0  0  0  0  0  0  0  0  0  0  0  0
  143.6809   70.8239  218.9175 H   0  0  0  0  0  0  0  0  0  0  0  0
  144.5776   70.8865  220.4222 H   0  0  0  0  0  0  0  0  0  0  0  0
  138.4275   69.4443  222.2796 H   0  0  0  0  0  0  0  0  0  0  0  0
  138.8119   67.9274  224.2126 H   0  0  0  0  0  0  0  0  0  0  0  0
  139.6820   67.5878  226.4980 H   0  0  0  0  0  0  0  0  0  0  0  0
  141.4896   70.8942  228.5391 H   0  0  0  0  0  0  0  0  0  0  0  0
  141.0710   72.3328  226.5825 H   0  0  0  0  0  0  0  0  0  0  0  0
  1  2  2  0
  2  3  1  0
  3  4  1  0
  4  5  1  0
  5  6  2  0
  5  7  1  0
  7  8  1  0
  8  9  1  0
  9 10  1  0
  9 11  1  0
 11 12  1  0
 12 13  1  0
 13 14  1  0
 14 15  1  0
 15 16  1  0
 16 17  1  0
 17 18  1  0
  2 19  1  0
 19 20  2  0
 20 21  1  0
 21 22  2  0
 22 23  1  0
 23 24  2  0
 24 25  1  0
 24 26  1  0
 26 27  2  0
 27 28  1  0
 28 29  2  0
 12  7  1  0
 18 13  1  0
 29 19  1  0
 28 22  1  0
  3 30  1  0
  4 31  1  0
  4 32  1  0
  8 33  1  0
  8 34  1  0
  9 35  1  6
 10 36  1  0
 11 37  1  0
 11 38  1  0
 12 39  1  1
 13 40  1  0
 14 41  1  0
 14 42  1  0
 15 43  1  0
 15 44  1  0
 17 45  1  0
 17 46  1  0
 18 47  1  0
 18 48  1  0
 20 49  1  0
 21 50  1  0
 23 51  1  0
 26 52  1  0
 27 53  1  0
M  END
>  <smiles>  (33) 
O=C(NCC(=O)N1C[C@H](O)C[C@H]1C1CCOCC1)c1ccc2cc(Cl)ccc2n1

>  <score_type>  (33) 
oracle

>  <origin>  (33) 
autodockgpu

>  <m_score__min__energy>  (33) 
-8.0399999999999991

>  <m_primary>  (33) 
energy

>  <rmsd>  (33) 
2.978494853351921

>  <m_score__min__rmsd>  (33) 
2.978494853351921

>  <meeko>  (33) 
{"free_energy": -6.84, "intermolecular_energy": -8.63, "internal_energy": -2.76, "cluster_size": 7, "cluster_id": 3, "rank_in_cluster": 6}

>  <energy>  (33) 
-7.15

>  <cluster_rmsd>  (33) 
1.51

>  <cluster>  (33) 
1

$$$$

     RDKit          3D

 53 56  0  0  0  0  0  0  0  0999 V2000
  137.0650   74.9160  220.3530 O   0  0  0  0  0  0  0  0  0  0  0  0
  137.7920   74.6960  221.3460 C   0  0  0  0  0  0  0  0  0  0  0  0
  137.7020   73.5250  222.1280 N   0  0  0  0  0  0  0  0  0  0  0  0
  136.7360   72.4560  221.8400 C   0  0  0  0  0  0  0  0  0  0  0  0
  135.5360   72.7690  222.6450 C   0  0  0  0  0  0  0  0  0  0  0  0
  134.7610   71.8230  222.9930 O   0  0  0  0  0  0  0  0  0  0  0  0
  135.1700   74.0670  223.0720 N   0  0  0  0  0  0  0  0  0  0  0  0
  134.3830   74.9820  222.2670 C   0  0  0  0  0  0  0  0  0  0  0  0
  134.8200   76.3820  222.6140 C   0  0  2  0  0  0  0  0  0  0  0  0
  135.5170   76.9560  221.5350 O   0  0  0  0  0  0  0  0  0  0  0  0
  135.7020   76.1920  223.8020 C   0  0  0  0  0  0  0  0  0  0  0  0
  135.4470   74.7820  224.2970 C   0  0  1  0  0  0  0  0  0  0  0  0
  134.2850   74.7190  225.2430 C   0  0  0  0  0  0  0  0  0  0  0  0
  134.0110   73.3530  225.7420 C   0  0  0  0  0  0  0  0  0  0  0  0
  132.9550   73.2390  226.7820 C   0  0  0  0  0  0  0  0  0  0  0  0
  132.7260   74.3340  227.5500 O   0  0  0  0  0  0  0  0  0  0  0  0
  132.9570   75.5610  227.0240 C   0  0  0  0  0  0  0  0  0  0  0  0
  134.3600   75.6530  226.4060 C   0  0  0  0  0  0  0  0  0  0  0  0
  138.7940   75.7040  221.7200 C   0  0  0  0  0  0  0  0  0  0  0  0
  140.1470   75.4910  221.5530 C   0  0  0  0  0  0  0  0  0  0  0  0
  141.0780   76.4680  221.9180 C   0  0  0  0  0  0  0  0  0  0  0  0
  140.6590   77.6710  222.4540 C   0  0  0  0  0  0  0  0  0  0  0  0
  141.5360   78.6710  222.8330 C   0  0  0  0  0  0  0  0  0  0  0  0
  141.0770   79.8570  223.3650 C   0  0  0  0  0  0  0  0  0  0  0  0
  142.1610   81.1440  223.8540 Cl  0  0  0  0  0  0  0  0  0  0  0  0
  139.7150   80.0330  223.5160 C   0  0  0  0  0  0  0  0  0  0  0  0
  138.8340   79.0430  223.1430 C   0  0  0  0  0  0  0  0  0  0  0  0
  139.2970   77.8390  222.6030 C   0  0  0  0  0  0  0  0  0  0  0  0
  138.4380   76.8950  222.2480 N   0  0  0  0  0  0  0  0  0  0  0  0
  138.3580   73.4170  222.9560 H   0  0  0  0  0  0  0  0  0  0  0  0
  136.4861   72.4441  220.7688 H   0  0  0  0  0  0  0  0  0  0  0  0
  137.1431   71.4649  222.0891 H   0  0  0  0  0  0  0  0  0  0  0  0
  134.5581   74.7879  221.1985 H   0  0  0  0  0  0  0  0  0  0  0  0
  133.3097   74.8502  222.4685 H   0  0  0  0  0  0  0  0  0  0  0  0
  133.9827   77.0634  222.8250 H   0  0  0  0  0  0  0  0  0  0  0  0
  136.4310   76.5780  221.5670 H   0  0  0  0  0  0  0  0  0  0  0  0
  136.7575   76.3107  223.5161 H   0  0  0  0  0  0  0  0  0  0  0  0
  135.4877   76.9360  224.5834 H   0  0  0  0  0  0  0  0  0  0  0  0
  136.2892   74.3670  224.8702 H   0  0  0  0  0  0  0  0  0  0  0  0
  133.4498   75.0527  224.6098 H   0  0  0  0  0  0  0  0  0  0  0  0
  133.7063   72.7360  224.8838 H   0  0  0  0  0  0  0  0  0  0  0  0
  134.9414   73.0220  226.2265 H   0  0  0  0  0  0  0  0  0  0  0  0
  132.0130   72.9882  226.2723 H   0  0  0  0  0  0  0  0  0  0  0  0
  133.3229   72.4725  227.4799 H   0  0  0  0  0  0  0  0  0  0  0  0
  132.2086   75.7620  226.2433 H   0  0  0  0  0  0  0  0  0  0  0  0
  132.8870   76.3025  227.8335 H   0  0  0  0  0  0  0  0  0  0  0  0
  134.5779   76.6789  226.0741 H   0  0  0  0  0  0  0  0  0  0  0  0
  135.1604   75.3944  227.1149 H   0  0  0  0  0  0  0  0  0  0  0  0
  140.4979   74.5395  221.1269 H   0  0  0  0  0  0  0  0  0  0  0  0
  142.1523   76.2778  221.7775 H   0  0  0  0  0  0  0  0  0  0  0  0
  142.6180   78.5174  222.7078 H   0  0  0  0  0  0  0  0  0  0  0  0
  139.3308   80.9732  223.9383 H   0  0  0  0  0  0  0  0  0  0  0  0
  137.7530   79.2009  223.2713 H   0  0  0  0  0  0  0  0  0  0  0  0
  1  2  2  0
  2  3  1  0
  3  4  1  0
  4  5  1  0
  5  6  2  0
  5  7  1  0
  7  8  1  0
  8  9  1  0
  9 10  1  0
  9 11  1  0
 11 12  1  0
 12 13  1  0
 13 14  1  0
 14 15  1  0
 15 16  1  0
 16 17  1  0
 17 18  1  0
  2 19  1  0
 19 20  2  0
 20 21  1  0
 21 22  2  0
 22 23  1  0
 23 24  2  0
 24 25  1  0
 24 26  1  0
 26 27  2  0
 27 28  1  0
 28 29  2  0
 12  7  1  0
 18 13  1  0
 29 19  1  0
 28 22  1  0
  3 30  1  0
  4 31  1  0
  4 32  1  0
  8 33  1  0
  8 34  1  0
  9 35  1  1
 10 36  1  0
 11 37  1  0
 11 38  1  0
 12 39  1  1
 13 40  1  0
 14 41  1  0
 14 42  1  0
 15 43  1  0
 15 44  1  0
 17 45  1  0
 17 46  1  0
 18 47  1  0
 18 48  1  0
 20 49  1  0
 21 50  1  0
 23 51  1  0
 26 52  1  0
 27 53  1  0
M  END
>  <smiles>  (34) 
O=C(NCC(=O)N1C[C@H](O)C[C@H]1C1CCOCC1)c1ccc2cc(Cl)ccc2n1

>  <score_type>  (34) 
oracle

>  <origin>  (34) 
autodockgpu

>  <m_score__min__energy>  (34) 
-8.0399999999999991

>  <m_primary>  (34) 
energy

>  <rmsd>  (34) 
8.134685207039967

>  <m_score__min__rmsd>  (34) 
8.134685207039967

>  <meeko>  (34) 
{"free_energy": -6.31, "intermolecular_energy": -8.1, "internal_energy": -3.21, "cluster_size": 9, "cluster_id": 4, "rank_in_cluster": 3}

>  <energy>  (34) 
-7.18

>  <cluster_rmsd>  (34) 
0.0

>  <cluster>  (34) 
2

$$$$

     RDKit          3D

 53 56  0  0  0  0  0  0  0  0999 V2000
  139.0900   71.6050  220.9590 O   0  0  0  0  0  0  0  0  0  0  0  0
  139.3090   72.0830  222.0940 C   0  0  0  0  0  0  0  0  0  0  0  0
  139.3980   73.4680  222.3480 N   0  0  0  0  0  0  0  0  0  0  0  0
  139.2400   74.4760  221.2900 C   0  0  0  0  0  0  0  0  0  0  0  0
  140.5550   74.5670  220.6210 C   0  0  0  0  0  0  0  0  0  0  0  0
  141.1600   75.6850  220.5960 O   0  0  0  0  0  0  0  0  0  0  0  0
  141.2140   73.4850  219.9910 N   0  0  0  0  0  0  0  0  0  0  0  0
  140.8730   73.0050  218.6650 C   0  0  0  0  0  0  0  0  0  0  0  0
  141.1530   71.5240  218.6340 C   0  0  2  0  0  0  0  0  0  0  0  0
  139.9480   70.8010  218.5670 O   0  0  0  0  0  0  0  0  0  0  0  0
  141.8760   71.2750  219.9160 C   0  0  0  0  0  0  0  0  0  0  0  0
  142.2940   72.6350  220.4370 C   0  0  1  0  0  0  0  0  0  0  0  0
  143.6090   73.0760  219.8670 C   0  0  0  0  0  0  0  0  0  0  0  0
  144.6170   73.3930  220.9030 C   0  0  0  0  0  0  0  0  0  0  0  0
  145.9820   73.7140  220.4080 C   0  0  0  0  0  0  0  0  0  0  0  0
  146.3390   73.1920  219.2070 O   0  0  0  0  0  0  0  0  0  0  0  0
  145.3760   72.9610  218.2830 C   0  0  0  0  0  0  0  0  0  0  0  0
  144.2170   72.1430  218.8710 C   0  0  0  0  0  0  0  0  0  0  0  0
  139.4820   71.1580  223.2240 C   0  0  0  0  0  0  0  0  0  0  0  0
  139.0460   69.8500  223.1740 C   0  0  0  0  0  0  0  0  0  0  0  0
  139.2240   68.9930  224.2640 C   0  0  0  0  0  0  0  0  0  0  0  0
  139.8430   69.4400  225.4150 C   0  0  0  0  0  0  0  0  0  0  0  0
  140.0440   68.6350  226.5210 C   0  0  0  0  0  0  0  0  0  0  0  0
  140.6670   69.1210  227.6520 C   0  0  0  0  0  0  0  0  0  0  0  0
  140.9370   68.1280  229.0710 Cl  0  0  0  0  0  0  0  0  0  0  0  0
  141.0900   70.4370  227.6620 C   0  0  0  0  0  0  0  0  0  0  0  0
  140.8940   71.2450  226.5660 C   0  0  0  0  0  0  0  0  0  0  0  0
  140.2630   70.7550  225.4190 C   0  0  0  0  0  0  0  0  0  0  0  0
  140.0810   71.5450  224.3700 N   0  0  0  0  0  0  0  0  0  0  0  0
  139.5870   73.7890  223.3420 H   0  0  0  0  0  0  0  0  0  0  0  0
  138.4667   74.1615  220.5737 H   0  0  0  0  0  0  0  0  0  0  0  0
  138.9261   75.4474  221.6998 H   0  0  0  0  0  0  0  0  0  0  0  0
  139.8082   73.1904  218.4607 H   0  0  0  0  0  0  0  0  0  0  0  0
  141.4651   73.5276  217.8993 H   0  0  0  0  0  0  0  0  0  0  0  0
  141.7397   71.2068  217.7593 H   0  0  0  0  0  0  0  0  0  0  0  0
  139.2990   71.2980  219.1260 H   0  0  0  0  0  0  0  0  0  0  0  0
  141.2116   70.7778  220.6381 H   0  0  0  0  0  0  0  0  0  0  0  0
  142.7460   70.6192  219.7645 H   0  0  0  0  0  0  0  0  0  0  0  0
  142.4484   72.6511  221.5260 H   0  0  0  0  0  0  0  0  0  0  0  0
  143.3336   73.9944  219.3278 H   0  0  0  0  0  0  0  0  0  0  0  0
  144.2528   74.2608  221.4725 H   0  0  0  0  0  0  0  0  0  0  0  0
  144.7264   72.4760  221.5006 H   0  0  0  0  0  0  0  0  0  0  0  0
  146.0582   74.8086  220.3303 H   0  0  0  0  0  0  0  0  0  0  0  0
  146.6662   73.2529  221.1355 H   0  0  0  0  0  0  0  0  0  0  0  0
  144.9869   73.9250  217.9235 H   0  0  0  0  0  0  0  0  0  0  0  0
  145.8205   72.3859  217.4574 H   0  0  0  0  0  0  0  0  0  0  0  0
  143.4907   71.8714  218.0908 H   0  0  0  0  0  0  0  0  0  0  0  0
  144.5437   71.1915  219.3158 H   0  0  0  0  0  0  0  0  0  0  0  0
  138.5520   69.4767  222.2648 H   0  0  0  0  0  0  0  0  0  0  0  0
  138.8681   67.9539  224.2046 H   0  0  0  0  0  0  0  0  0  0  0  0
  139.7016   67.5899  226.4988 H   0  0  0  0  0  0  0  0  0  0  0  0
  141.5882   70.8421  228.5551 H   0  0  0  0  0  0  0  0  0  0  0  0
  141.2381   72.2895  226.5926 H   0  0  0  0  0  0  0  0  0  0  0  0
  1  2  2  0
  2  3  1  0
  3  4  1  0
  4  5  1  0
  5  6  2  0
  5  7  1  0
  7  8  1  0
  8  9  1  0
  9 10  1  0
  9 11  1  0
 11 12  1  0
 12 13  1  0
 13 14  1  0
 14 15  1  0
 15 16  1  0
 16 17  1  0
 17 18  1  0
  2 19  1  0
 19 20  2  0
 20 21  1  0
 21 22  2  0
 22 23  1  0
 23 24  2  0
 24 25  1  0
 24 26  1  0
 26 27  2  0
 27 28  1  0
 28 29  2  0
 12  7  1  0
 18 13  1  0
 29 19  1  0
 28 22  1  0
  3 30  1  0
  4 31  1  0
  4 32  1  0
  8 33  1  0
  8 34  1  0
  9 35  1  6
 10 36  1  0
 11 37  1  0
 11 38  1  0
 12 39  1  1
 13 40  1  0
 14 41  1  0
 14 42  1  0
 15 43  1  0
 15 44  1  0
 17 45  1  0
 17 46  1  0
 18 47  1  0
 18 48  1  0
 20 49  1  0
 21 50  1  0
 23 51  1  0
 26 52  1  0
 27 53  1  0
M  END
>  <smiles>  (35) 
O=C(NCC(=O)N1C[C@H](O)C[C@H]1C1CCOCC1)c1ccc2cc(Cl)ccc2n1

>  <score_type>  (35) 
oracle

>  <origin>  (35) 
autodockgpu

>  <m_score__min__energy>  (35) 
-8.0399999999999991

>  <m_primary>  (35) 
energy

>  <rmsd>  (35) 
2.958604505107943

>  <m_score__min__rmsd>  (35) 
2.958604505107943

>  <meeko>  (35) 
{"free_energy": -7.18, "intermolecular_energy": -8.97, "internal_energy": -2.55, "cluster_size": 7, "cluster_id": 3, "rank_in_cluster": 1}

>  <energy>  (35) 
-7.18

>  <cluster_rmsd>  (35) 
0.0

>  <cluster>  (35) 
3

$$$$

     RDKit          3D

 53 56  0  0  0  0  0  0  0  0999 V2000
  137.9280   71.8240  221.3720 O   0  0  0  0  0  0  0  0  0  0  0  0
  138.6820   72.2010  222.2960 C   0  0  0  0  0  0  0  0  0  0  0  0
  139.2480   73.4920  222.3560 N   0  0  0  0  0  0  0  0  0  0  0  0
  138.9970   74.5120  221.3290 C   0  0  0  0  0  0  0  0  0  0  0  0
  140.1500   75.4350  221.3890 C   0  0  0  0  0  0  0  0  0  0  0  0
  141.2000   75.0740  222.0090 O   0  0  0  0  0  0  0  0  0  0  0  0
  140.1830   76.7200  220.7980 N   0  0  0  0  0  0  0  0  0  0  0  0
  139.0380   77.3340  220.1530 C   0  0  0  0  0  0  0  0  0  0  0  0
  139.5600   78.2180  219.0500 C   0  0  2  0  0  0  0  0  0  0  0  0
  139.2360   77.6730  217.7940 O   0  0  0  0  0  0  0  0  0  0  0  0
  141.0340   78.2370  219.2800 C   0  0  0  0  0  0  0  0  0  0  0  0
  141.2510   77.6860  220.6750 C   0  0  1  0  0  0  0  0  0  0  0  0
  141.1480   78.7530  221.7240 C   0  0  0  0  0  0  0  0  0  0  0  0
  141.4460   78.2620  223.0870 C   0  0  0  0  0  0  0  0  0  0  0  0
  141.4880   79.2940  224.1570 C   0  0  0  0  0  0  0  0  0  0  0  0
  141.7900   80.5620  223.7780 O   0  0  0  0  0  0  0  0  0  0  0  0
  141.4550   80.9670  222.5290 C   0  0  0  0  0  0  0  0  0  0  0  0
  141.9580   79.9810  221.4650 C   0  0  0  0  0  0  0  0  0  0  0  0
  138.9970   71.2550  223.3770 C   0  0  0  0  0  0  0  0  0  0  0  0
  138.6070   69.9320  223.3290 C   0  0  0  0  0  0  0  0  0  0  0  0
  138.9200   69.0540  224.3710 C   0  0  0  0  0  0  0  0  0  0  0  0
  139.6290   69.4960  225.4720 C   0  0  0  0  0  0  0  0  0  0  0  0
  139.9640   68.6720  226.5310 C   0  0  0  0  0  0  0  0  0  0  0  0
  140.6720   69.1530  227.6120 C   0  0  0  0  0  0  0  0  0  0  0  0
  141.1130   68.1360  228.9690 Cl  0  0  0  0  0  0  0  0  0  0  0  0
  141.0440   70.4840  227.6220 C   0  0  0  0  0  0  0  0  0  0  0  0
  140.7140   71.3120  226.5740 C   0  0  0  0  0  0  0  0  0  0  0  0
  139.9960   70.8270  225.4760 C   0  0  0  0  0  0  0  0  0  0  0  0
  139.6860   71.6360  224.4730 N   0  0  0  0  0  0  0  0  0  0  0  0
  139.8780   73.7300  223.1770 H   0  0  0  0  0  0  0  0  0  0  0  0
  138.9303   74.0463  220.3347 H   0  0  0  0  0  0  0  0  0  0  0  0
  138.0471   75.0383  221.5042 H   0  0  0  0  0  0  0  0  0  0  0  0
  138.3821   76.5572  219.7331 H   0  0  0  0  0  0  0  0  0  0  0  0
  138.4542   77.9214  220.8770 H   0  0  0  0  0  0  0  0  0  0  0  0
  139.1273   79.2293  219.0569 H   0  0  0  0  0  0  0  0  0  0  0  0
  140.0840   77.6330  217.2850 H   0  0  0  0  0  0  0  0  0  0  0  0
  141.5441   77.6061  218.5371 H   0  0  0  0  0  0  0  0  0  0  0  0
  141.4420   79.2539  219.1826 H   0  0  0  0  0  0  0  0  0  0  0  0
  142.2538   77.2572  220.8184 H   0  0  0  0  0  0  0  0  0  0  0  0
  140.0884   79.0416  221.6605 H   0  0  0  0  0  0  0  0  0  0  0  0
  140.6721   77.5284  223.3572 H   0  0  0  0  0  0  0  0  0  0  0  0
  142.4629   77.8456  223.0365 H   0  0  0  0  0  0  0  0  0  0  0  0
  140.4974   79.3173  224.6347 H   0  0  0  0  0  0  0  0  0  0  0  0
  142.3135   78.9885  224.8167 H   0  0  0  0  0  0  0  0  0  0  0  0
  140.3597   81.0410  222.4588 H   0  0  0  0  0  0  0  0  0  0  0  0
  141.9256   81.9440  222.3447 H   0  0  0  0  0  0  0  0  0  0  0  0
  141.7746   80.3675  220.4516 H   0  0  0  0  0  0  0  0  0  0  0  0
  143.0418   79.8018  221.5224 H   0  0  0  0  0  0  0  0  0  0  0  0
  138.0426   69.5636  222.4597 H   0  0  0  0  0  0  0  0  0  0  0  0
  138.5995   68.0033  224.3141 H   0  0  0  0  0  0  0  0  0  0  0  0
  139.6605   67.6149  226.5106 H   0  0  0  0  0  0  0  0  0  0  0  0
  141.6094   70.8852  228.4761 H   0  0  0  0  0  0  0  0  0  0  0  0
  141.0186   72.3687  226.5999 H   0  0  0  0  0  0  0  0  0  0  0  0
  1  2  2  0
  2  3  1  0
  3  4  1  0
  4  5  1  0
  5  6  2  0
  5  7  1  0
  7  8  1  0
  8  9  1  0
  9 10  1  0
  9 11  1  0
 11 12  1  0
 12 13  1  0
 13 14  1  0
 14 15  1  0
 15 16  1  0
 16 17  1  0
 17 18  1  0
  2 19  1  0
 19 20  2  0
 20 21  1  0
 21 22  2  0
 22 23  1  0
 23 24  2  0
 24 25  1  0
 24 26  1  0
 26 27  2  0
 27 28  1  0
 28 29  2  0
 12  7  1  0
 18 13  1  0
 29 19  1  0
 28 22  1  0
  3 30  1  0
  4 31  1  0
  4 32  1  0
  8 33  1  0
  8 34  1  0
  9 35  1  1
 10 36  1  0
 11 37  1  0
 11 38  1  0
 12 39  1  6
 13 40  1  0
 14 41  1  0
 14 42  1  0
 15 43  1  0
 15 44  1  0
 17 45  1  0
 17 46  1  0
 18 47  1  0
 18 48  1  0
 20 49  1  0
 21 50  1  0
 23 51  1  0
 26 52  1  0
 27 53  1  0
M  END
>  <smiles>  (36) 
O=C(NCC(=O)N1C[C@H](O)C[C@H]1C1CCOCC1)c1ccc2cc(Cl)ccc2n1

>  <score_type>  (36) 
oracle

>  <origin>  (36) 
autodockgpu

>  <m_score__min__energy>  (36) 
-8.0399999999999991

>  <m_primary>  (36) 
energy

>  <rmsd>  (36) 
2.9870991229668844

>  <m_score__min__rmsd>  (36) 
2.9870991229668844

>  <meeko>  (36) 
{"free_energy": -7.48, "intermolecular_energy": -9.27, "internal_energy": -2.0, "cluster_size": 33, "cluster_id": 1, "rank_in_cluster": 28}

>  <energy>  (36) 
-7.11

>  <cluster_rmsd>  (36) 
0.35

>  <cluster>  (36) 
3

$$$$

     RDKit          3D

 53 56  0  0  0  0  0  0  0  0999 V2000
  138.4420   71.8850  220.9770 O   0  0  0  0  0  0  0  0  0  0  0  0
  139.0130   72.2930  222.0130 C   0  0  0  0  0  0  0  0  0  0  0  0
  139.4430   73.6250  222.1880 N   0  0  0  0  0  0  0  0  0  0  0  0
  139.2560   74.6560  221.1570 C   0  0  0  0  0  0  0  0  0  0  0  0
  140.3980   74.5090  220.2290 C   0  0  0  0  0  0  0  0  0  0  0  0
  140.8390   75.5370  219.6250 O   0  0  0  0  0  0  0  0  0  0  0  0
  141.0570   73.2890  219.9520 N   0  0  0  0  0  0  0  0  0  0  0  0
  140.7260   72.4390  218.8230 C   0  0  0  0  0  0  0  0  0  0  0  0
  141.0010   71.0150  219.2330 C   0  0  2  0  0  0  0  0  0  0  0  0
  139.7940   70.3060  219.3720 O   0  0  0  0  0  0  0  0  0  0  0  0
  141.7120   71.1540  220.5370 C   0  0  0  0  0  0  0  0  0  0  0  0
  142.1310   72.6080  220.6370 C   0  0  1  0  0  0  0  0  0  0  0  0
  143.4530   72.8600  219.9740 C   0  0  0  0  0  0  0  0  0  0  0  0
  144.4200   73.5570  220.8490 C   0  0  0  0  0  0  0  0  0  0  0  0
  145.7920   73.7250  220.3000 C   0  0  0  0  0  0  0  0  0  0  0  0
  146.1980   72.8210  219.3710 O   0  0  0  0  0  0  0  0  0  0  0  0
  145.2680   72.2450  218.5710 C   0  0  0  0  0  0  0  0  0  0  0  0
  144.1110   71.6540  219.3890 C   0  0  0  0  0  0  0  0  0  0  0  0
  139.2480   71.3390  223.1070 C   0  0  0  0  0  0  0  0  0  0  0  0
  138.8310   70.0250  223.0370 C   0  0  0  0  0  0  0  0  0  0  0  0
  139.0680   69.1400  224.0920 C   0  0  0  0  0  0  0  0  0  0  0  0
  139.7270   69.5650  225.2300 C   0  0  0  0  0  0  0  0  0  0  0  0
  139.9870   68.7330  226.3030 C   0  0  0  0  0  0  0  0  0  0  0  0
  140.6480   69.1970  227.4210 C   0  0  0  0  0  0  0  0  0  0  0  0
  140.9920   68.1690  228.7980 Cl  0  0  0  0  0  0  0  0  0  0  0  0
  141.0490   70.5190  227.4540 C   0  0  0  0  0  0  0  0  0  0  0  0
  140.7940   71.3550  226.3910 C   0  0  0  0  0  0  0  0  0  0  0  0
  140.1250   70.8870  225.2560 C   0  0  0  0  0  0  0  0  0  0  0  0
  139.8860   71.7040  224.2390 N   0  0  0  0  0  0  0  0  0  0  0  0
  139.9190   73.8870  223.0990 H   0  0  0  0  0  0  0  0  0  0  0  0
  138.3067   74.4975  220.6244 H   0  0  0  0  0  0  0  0  0  0  0  0
  139.2171   75.6643  221.5949 H   0  0  0  0  0  0  0  0  0  0  0  0
  139.6637   72.5566  218.5629 H   0  0  0  0  0  0  0  0  0  0  0  0
  141.3267   72.7120  217.9429 H   0  0  0  0  0  0  0  0  0  0  0  0
  141.5939   70.4535  218.4960 H   0  0  0  0  0  0  0  0  0  0  0  0
  139.1830   70.9000  219.8770 H   0  0  0  0  0  0  0  0  0  0  0  0
  141.0399   70.8928  221.3676 H   0  0  0  0  0  0  0  0  0  0  0  0
  142.5806   70.4815  220.5938 H   0  0  0  0  0  0  0  0  0  0  0  0
  142.2774   72.9452  221.6738 H   0  0  0  0  0  0  0  0  0  0  0  0
  143.1747   73.5174  219.1371 H   0  0  0  0  0  0  0  0  0  0  0  0
  144.0185   74.5583  221.0640 H   0  0  0  0  0  0  0  0  0  0  0  0
  144.5319   72.9170  221.7366 H   0  0  0  0  0  0  0  0  0  0  0  0
  145.8453   74.7221  219.8386 H   0  0  0  0  0  0  0  0  0  0  0  0
  146.4640   73.5754  221.1579 H   0  0  0  0  0  0  0  0  0  0  0  0
  144.8681   73.0047  217.8833 H   0  0  0  0  0  0  0  0  0  0  0  0
  145.7499   71.4279  218.0142 H   0  0  0  0  0  0  0  0  0  0  0  0
  143.4145   71.0995  218.7429 H   0  0  0  0  0  0  0  0  0  0  0  0
  144.4457   70.9342  220.1505 H   0  0  0  0  0  0  0  0  0  0  0  0
  138.3050   69.6698  222.1386 H   0  0  0  0  0  0  0  0  0  0  0  0
  138.7274   68.0968  224.0162 H   0  0  0  0  0  0  0  0  0  0  0  0
  139.6611   67.6831  226.2644 H   0  0  0  0  0  0  0  0  0  0  0  0
  141.5768   70.9066  228.3379 H   0  0  0  0  0  0  0  0  0  0  0  0
  141.1206   72.4045  226.4349 H   0  0  0  0  0  0  0  0  0  0  0  0
  1  2  2  0
  2  3  1  0
  3  4  1  0
  4  5  1  0
  5  6  2  0
  5  7  1  0
  7  8  1  0
  8  9  1  0
  9 10  1  0
  9 11  1  0
 11 12  1  0
 12 13  1  0
 13 14  1  0
 14 15  1  0
 15 16  1  0
 16 17  1  0
 17 18  1  0
  2 19  1  0
 19 20  2  0
 20 21  1  0
 21 22  2  0
 22 23  1  0
 23 24  2  0
 24 25  1  0
 24 26  1  0
 26 27  2  0
 27 28  1  0
 28 29  2  0
 12  7  1  0
 18 13  1  0
 29 19  1  0
 28 22  1  0
  3 30  1  0
  4 31  1  0
  4 32  1  0
  8 33  1  0
  8 34  1  0
  9 35  1  6
 10 36  1  0
 11 37  1  0
 11 38  1  0
 12 39  1  1
 13 40  1  0
 14 41  1  0
 14 42  1  0
 15 43  1  0
 15 44  1  0
 17 45  1  0
 17 46  1  0
 18 47  1  0
 18 48  1  0
 20 49  1  0
 21 50  1  0
 23 51  1  0
 26 52  1  0
 27 53  1  0
M  END
>  <smiles>  (37) 
O=C(NCC(=O)N1C[C@H](O)C[C@H]1C1CCOCC1)c1ccc2cc(Cl)ccc2n1

>  <score_type>  (37) 
oracle

>  <origin>  (37) 
autodockgpu

>  <m_score__min__energy>  (37) 
-8.0399999999999991

>  <m_primary>  (37) 
energy

>  <rmsd>  (37) 
2.9968642606423463

>  <m_score__min__rmsd>  (37) 
2.9968642606423463

>  <meeko>  (37) 
{"free_energy": -6.89, "intermolecular_energy": -8.68, "internal_energy": -2.82, "cluster_size": 7, "cluster_id": 3, "rank_in_cluster": 4}

>  <energy>  (37) 
-7.08

>  <cluster_rmsd>  (37) 
0.58

>  <cluster>  (37) 
3

$$$$

     RDKit          3D

 53 56  0  0  0  0  0  0  0  0999 V2000
  138.9860   71.9820  220.7260 O   0  0  0  0  0  0  0  0  0  0  0  0
  139.2440   72.4290  221.8660 C   0  0  0  0  0  0  0  0  0  0  0  0
  139.3530   73.8060  222.1520 N   0  0  0  0  0  0  0  0  0  0  0  0
  139.1710   74.8420  221.1250 C   0  0  0  0  0  0  0  0  0  0  0  0
  140.5150   75.4050  220.8780 C   0  0  0  0  0  0  0  0  0  0  0  0
  141.5390   74.7070  221.1640 O   0  0  0  0  0  0  0  0  0  0  0  0
  140.7640   76.6870  220.3350 N   0  0  0  0  0  0  0  0  0  0  0  0
  139.9430   77.2910  219.3020 C   0  0  0  0  0  0  0  0  0  0  0  0
  140.8390   78.1740  218.4710 C   0  0  2  0  0  0  0  0  0  0  0  0
  141.0150   77.6210  217.1900 O   0  0  0  0  0  0  0  0  0  0  0  0
  142.1170   78.2030  219.2400 C   0  0  0  0  0  0  0  0  0  0  0  0
  141.7940   77.6590  220.6180 C   0  0  1  0  0  0  0  0  0  0  0  0
  141.2990   78.7300  221.5440 C   0  0  0  0  0  0  0  0  0  0  0  0
  141.8030   78.5840  222.9270 C   0  0  0  0  0  0  0  0  0  0  0  0
  141.4550   79.6830  223.8670 C   0  0  0  0  0  0  0  0  0  0  0  0
  141.2150   80.9040  223.3250 O   0  0  0  0  0  0  0  0  0  0  0  0
  140.7150   80.9730  222.0670 C   0  0  0  0  0  0  0  0  0  0  0  0
  141.5440   80.1310  221.0860 C   0  0  0  0  0  0  0  0  0  0  0  0
  139.4440   71.4740  222.9650 C   0  0  0  0  0  0  0  0  0  0  0  0
  139.0520   70.1540  222.8710 C   0  0  0  0  0  0  0  0  0  0  0  0
  139.2550   69.2680  223.9330 C   0  0  0  0  0  0  0  0  0  0  0  0
  139.8550   69.6990  225.1010 C   0  0  0  0  0  0  0  0  0  0  0  0
  140.0790   68.8650  226.1820 C   0  0  0  0  0  0  0  0  0  0  0  0
  140.6820   69.3350  227.3300 C   0  0  0  0  0  0  0  0  0  0  0  0
  140.9800   68.3060  228.7170 Cl  0  0  0  0  0  0  0  0  0  0  0  0
  141.0600   70.6630  227.3860 C   0  0  0  0  0  0  0  0  0  0  0  0
  140.8410   71.5000  226.3150 C   0  0  0  0  0  0  0  0  0  0  0  0
  140.2300   71.0260  225.1500 C   0  0  0  0  0  0  0  0  0  0  0  0
  140.0260   71.8430  224.1270 N   0  0  0  0  0  0  0  0  0  0  0  0
  139.5750   74.1000  223.1470 H   0  0  0  0  0  0  0  0  0  0  0  0
  138.7655   74.4001  220.2029 H   0  0  0  0  0  0  0  0  0  0  0  0
  138.4617   75.6164  221.4525 H   0  0  0  0  0  0  0  0  0  0  0  0
  139.4969   76.5082  218.6710 H   0  0  0  0  0  0  0  0  0  0  0  0
  139.1267   77.8776  219.7488 H   0  0  0  0  0  0  0  0  0  0  0  0
  140.4316   79.1826  218.3072 H   0  0  0  0  0  0  0  0  0  0  0  0
  141.3610   76.7040  217.3320 H   0  0  0  0  0  0  0  0  0  0  0  0
  142.8722   77.5722  218.7484 H   0  0  0  0  0  0  0  0  0  0  0  0
  142.5272   79.2220  219.2974 H   0  0  0  0  0  0  0  0  0  0  0  0
  142.6701   77.2371  221.1323 H   0  0  0  0  0  0  0  0  0  0  0  0
  140.2112   78.5673  221.5296 H   0  0  0  0  0  0  0  0  0  0  0  0
  141.3947   77.6485  223.3370 H   0  0  0  0  0  0  0  0  0  0  0  0
  142.8999   78.5990  222.8461 H   0  0  0  0  0  0  0  0  0  0  0  0
  140.5500   79.3786  224.4131 H   0  0  0  0  0  0  0  0  0  0  0  0
  142.3499   79.8186  224.4921 H   0  0  0  0  0  0  0  0  0  0  0  0
  139.6802   80.6000  222.0725 H   0  0  0  0  0  0  0  0  0  0  0  0
  140.7509   82.0220  221.7379 H   0  0  0  0  0  0  0  0  0  0  0  0
  141.1963   80.2742  220.0523 H   0  0  0  0  0  0  0  0  0  0  0  0
  142.6101   80.4019  221.0802 H   0  0  0  0  0  0  0  0  0  0  0  0
  138.5735   69.7944  221.9481 H   0  0  0  0  0  0  0  0  0  0  0  0
  138.9348   68.2199  223.8383 H   0  0  0  0  0  0  0  0  0  0  0  0
  139.7713   67.8104  226.1250 H   0  0  0  0  0  0  0  0  0  0  0  0
  141.5403   71.0550  228.2947 H   0  0  0  0  0  0  0  0  0  0  0  0
  141.1503   72.5538  226.3765 H   0  0  0  0  0  0  0  0  0  0  0  0
  1  2  2  0
  2  3  1  0
  3  4  1  0
  4  5  1  0
  5  6  2  0
  5  7  1  0
  7  8  1  0
  8  9  1  0
  9 10  1  0
  9 11  1  0
 11 12  1  0
 12 13  1  0
 13 14  1  0
 14 15  1  0
 15 16  1  0
 16 17  1  0
 17 18  1  0
  2 19  1  0
 19 20  2  0
 20 21  1  0
 21 22  2  0
 22 23  1  0
 23 24  2  0
 24 25  1  0
 24 26  1  0
 26 27  2  0
 27 28  1  0
 28 29  2  0
 12  7  1  0
 18 13  1  0
 29 19  1  0
 28 22  1  0
  3 30  1  0
  4 31  1  0
  4 32  1  0
  8 33  1  0
  8 34  1  0
  9 35  1  6
 10 36  1  0
 11 37  1  0
 11 38  1  0
 12 39  1  1
 13 40  1  0
 14 41  1  0
 14 42  1  0
 15 43  1  0
 15 44  1  0
 17 45  1  0
 17 46  1  0
 18 47  1  0
 18 48  1  0
 20 49  1  0
 21 50  1  0
 23 51  1  0
 26 52  1  0
 27 53  1  0
M  END
>  <smiles>  (38) 
O=C(NCC(=O)N1C[C@H](O)C[C@H]1C1CCOCC1)c1ccc2cc(Cl)ccc2n1

>  <score_type>  (38) 
oracle

>  <origin>  (38) 
autodockgpu

>  <m_score__min__energy>  (38) 
-8.0399999999999991

>  <m_primary>  (38) 
energy

>  <rmsd>  (38) 
2.990253364459

>  <m_score__min__rmsd>  (38) 
2.990253364459

>  <meeko>  (38) 
{"free_energy": -7.48, "intermolecular_energy": -9.27, "internal_energy": -1.5, "cluster_size": 33, "cluster_id": 1, "rank_in_cluster": 30}

>  <energy>  (38) 
-6.89

>  <cluster_rmsd>  (38) 
0.5

>  <cluster>  (38) 
3

$$$$

     RDKit          3D

 53 56  0  0  0  0  0  0  0  0999 V2000
  140.0860   72.1530  220.5350 O   0  0  0  0  0  0  0  0  0  0  0  0
  139.8000   72.5740  221.6770 C   0  0  0  0  0  0  0  0  0  0  0  0
  139.4380   73.9120  221.9410 N   0  0  0  0  0  0  0  0  0  0  0  0
  139.3660   74.9330  220.8860 C   0  0  0  0  0  0  0  0  0  0  0  0
  139.8050   76.1950  221.5180 C   0  0  0  0  0  0  0  0  0  0  0  0
  139.7370   76.3100  222.7820 O   0  0  0  0  0  0  0  0  0  0  0  0
  140.3070   77.3150  220.8140 N   0  0  0  0  0  0  0  0  0  0  0  0
  139.5610   78.0110  219.7820 C   0  0  0  0  0  0  0  0  0  0  0  0
  140.5590   78.5530  218.7910 C   0  0  2  0  0  0  0  0  0  0  0  0
  140.4630   77.8570  217.5720 O   0  0  0  0  0  0  0  0  0  0  0  0
  141.8760   78.3240  219.4540 C   0  0  0  0  0  0  0  0  0  0  0  0
  141.5690   78.0120  220.9060 C   0  0  1  0  0  0  0  0  0  0  0  0
  141.4510   79.2550  221.7360 C   0  0  0  0  0  0  0  0  0  0  0  0
  142.2010   79.1800  223.0090 C   0  0  0  0  0  0  0  0  0  0  0  0
  142.2320   80.4250  223.8210 C   0  0  0  0  0  0  0  0  0  0  0  0
  142.0780   81.5990  223.1560 O   0  0  0  0  0  0  0  0  0  0  0  0
  141.3460   81.6120  222.0170 C   0  0  0  0  0  0  0  0  0  0  0  0
  141.8100   80.5250  221.0370 C   0  0  0  0  0  0  0  0  0  0  0  0
  139.8400   71.6310  222.8040 C   0  0  0  0  0  0  0  0  0  0  0  0
  139.3390   70.3500  222.7060 C   0  0  0  0  0  0  0  0  0  0  0  0
  139.3910   69.4740  223.7950 C   0  0  0  0  0  0  0  0  0  0  0  0
  139.9480   69.8770  224.9930 C   0  0  0  0  0  0  0  0  0  0  0  0
  140.0240   69.0520  226.1010 C   0  0  0  0  0  0  0  0  0  0  0  0
  140.5890   69.4940  227.2800 C   0  0  0  0  0  0  0  0  0  0  0  0
  140.7010   68.4750  228.7020 Cl  0  0  0  0  0  0  0  0  0  0  0  0
  141.0800   70.7840  227.3380 C   0  0  0  0  0  0  0  0  0  0  0  0
  141.0080   71.6120  226.2410 C   0  0  0  0  0  0  0  0  0  0  0  0
  140.4370   71.1670  225.0440 C   0  0  0  0  0  0  0  0  0  0  0  0
  140.3740   71.9750  223.9960 N   0  0  0  0  0  0  0  0  0  0  0  0
  139.2100   74.1870  222.9400 H   0  0  0  0  0  0  0  0  0  0  0  0
  140.0330   74.6698  220.0518 H   0  0  0  0  0  0  0  0  0  0  0  0
  138.3500   75.0184  220.4732 H   0  0  0  0  0  0  0  0  0  0  0  0
  138.8737   77.3139  219.2802 H   0  0  0  0  0  0  0  0  0  0  0  0
  138.9646   78.8263  220.2174 H   0  0  0  0  0  0  0  0  0  0  0  0
  140.3989   79.6128  218.5434 H   0  0  0  0  0  0  0  0  0  0  0  0
  140.9250   76.9930  217.7120 H   0  0  0  0  0  0  0  0  0  0  0  0
  142.3977   77.4773  218.9839 H   0  0  0  0  0  0  0  0  0  0  0  0
  142.5298   79.2038  219.3622 H   0  0  0  0  0  0  0  0  0  0  0  0
  142.3605   77.4290  221.3995 H   0  0  0  0  0  0  0  0  0  0  0  0
  140.3720   79.2934  221.9465 H   0  0  0  0  0  0  0  0  0  0  0  0
  141.7446   78.3892  223.6225 H   0  0  0  0  0  0  0  0  0  0  0  0
  143.2459   78.9837  222.7267 H   0  0  0  0  0  0  0  0  0  0  0  0
  141.4242   80.3564  224.5645 H   0  0  0  0  0  0  0  0  0  0  0  0
  143.2475   80.4663  224.2418 H   0  0  0  0  0  0  0  0  0  0  0  0
  140.2895   81.4384  222.2692 H   0  0  0  0  0  0  0  0  0  0  0  0
  141.4776   82.5913  221.5335 H   0  0  0  0  0  0  0  0  0  0  0  0
  141.2809   80.6090  220.0763 H   0  0  0  0  0  0  0  0  0  0  0  0
  142.8805   80.5941  220.7934 H   0  0  0  0  0  0  0  0  0  0  0  0
  138.8926   70.0127  221.7589 H   0  0  0  0  0  0  0  0  0  0  0  0
  138.9852   68.4563  223.6967 H   0  0  0  0  0  0  0  0  0  0  0  0
  139.6278   68.0276  226.0413 H   0  0  0  0  0  0  0  0  0  0  0  0
  141.5329   71.1530  228.2701 H   0  0  0  0  0  0  0  0  0  0  0  0
  141.4042   72.6361  226.3063 H   0  0  0  0  0  0  0  0  0  0  0  0
  1  2  2  0
  2  3  1  0
  3  4  1  0
  4  5  1  0
  5  6  2  0
  5  7  1  0
  7  8  1  0
  8  9  1  0
  9 10  1  0
  9 11  1  0
 11 12  1  0
 12 13  1  0
 13 14  1  0
 14 15  1  0
 15 16  1  0
 16 17  1  0
 17 18  1  0
  2 19  1  0
 19 20  2  0
 20 21  1  0
 21 22  2  0
 22 23  1  0
 23 24  2  0
 24 25  1  0
 24 26  1  0
 26 27  2  0
 27 28  1  0
 28 29  2  0
 12  7  1  0
 18 13  1  0
 29 19  1  0
 28 22  1  0
  3 30  1  0
  4 31  1  0
  4 32  1  0
  8 33  1  0
  8 34  1  0
  9 35  1  6
 10 36  1  0
 11 37  1  0
 11 38  1  0
 12 39  1  1
 13 40  1  0
 14 41  1  0
 14 42  1  0
 15 43  1  0
 15 44  1  0
 17 45  1  0
 17 46  1  0
 18 47  1  0
 18 48  1  0
 20 49  1  0
 21 50  1  0
 23 51  1  0
 26 52  1  0
 27 53  1  0
M  END
>  <smiles>  (39) 
O=C(NCC(=O)N1C[C@H](O)C[C@H]1C1CCOCC1)c1ccc2cc(Cl)ccc2n1

>  <score_type>  (39) 
oracle

>  <origin>  (39) 
autodockgpu

>  <m_score__min__energy>  (39) 
-8.0399999999999991

>  <m_primary>  (39) 
energy

>  <rmsd>  (39) 
3.2838206789370425

>  <m_score__min__rmsd>  (39) 
3.2838206789370425

>  <meeko>  (39) 
{"free_energy": -8.02, "intermolecular_energy": -9.81, "internal_energy": -1.82, "cluster_size": 33, "cluster_id": 1, "rank_in_cluster": 3}

>  <energy>  (39) 
-6.87

>  <cluster_rmsd>  (39) 
0.6

>  <cluster>  (39) 
3

$$$$

     RDKit          3D

 53 56  0  0  0  0  0  0  0  0999 V2000
  136.9630   74.9470  220.5160 O   0  0  0  0  0  0  0  0  0  0  0  0
  137.7370   74.7000  221.4670 C   0  0  0  0  0  0  0  0  0  0  0  0
  137.6820   73.5090  222.2210 N   0  0  0  0  0  0  0  0  0  0  0  0
  136.7020   72.4480  221.9500 C   0  0  0  0  0  0  0  0  0  0  0  0
  135.3740   73.0890  222.0590 C   0  0  0  0  0  0  0  0  0  0  0  0
  134.3700   72.5280  221.5170 O   0  0  0  0  0  0  0  0  0  0  0  0
  135.1220   74.3070  222.7330 N   0  0  0  0  0  0  0  0  0  0  0  0
  134.4000   75.4160  222.1380 C   0  0  0  0  0  0  0  0  0  0  0  0
  134.9560   76.6870  222.7280 C   0  0  2  0  0  0  0  0  0  0  0  0
  135.6810   77.4000  221.7560 O   0  0  0  0  0  0  0  0  0  0  0  0
  135.8370   76.2070  223.8320 C   0  0  0  0  0  0  0  0  0  0  0  0
  135.4750   74.7530  224.0610 C   0  0  1  0  0  0  0  0  0  0  0  0
  134.3260   74.6020  225.0130 C   0  0  0  0  0  0  0  0  0  0  0  0
  134.1410   73.2140  225.4900 C   0  0  0  0  0  0  0  0  0  0  0  0
  133.1010   73.0170  226.5340 C   0  0  0  0  0  0  0  0  0  0  0  0
  132.8110   74.0820  227.3240 O   0  0  0  0  0  0  0  0  0  0  0  0
  132.9620   75.3300  226.8170 C   0  0  0  0  0  0  0  0  0  0  0  0
  134.3510   75.5190  226.1920 C   0  0  0  0  0  0  0  0  0  0  0  0
  138.7570   75.6980  221.8200 C   0  0  0  0  0  0  0  0  0  0  0  0
  140.1050   75.4640  221.6380 C   0  0  0  0  0  0  0  0  0  0  0  0
  141.0540   76.4310  221.9830 C   0  0  0  0  0  0  0  0  0  0  0  0
  140.6580   77.6440  222.5140 C   0  0  0  0  0  0  0  0  0  0  0  0
  141.5540   78.6350  222.8730 C   0  0  0  0  0  0  0  0  0  0  0  0
  141.1170   79.8330  223.3990 C   0  0  0  0  0  0  0  0  0  0  0  0
  142.2250   81.1080  223.8650 Cl  0  0  0  0  0  0  0  0  0  0  0  0
  139.7600   80.0280  223.5660 C   0  0  0  0  0  0  0  0  0  0  0  0
  138.8610   79.0480  223.2120 C   0  0  0  0  0  0  0  0  0  0  0  0
  139.3010   77.8330  222.6780 C   0  0  0  0  0  0  0  0  0  0  0  0
  138.4240   76.8980  222.3410 N   0  0  0  0  0  0  0  0  0  0  0  0
  138.3770   73.3780  223.0120 H   0  0  0  0  0  0  0  0  0  0  0  0
  136.8487   72.0402  220.9390 H   0  0  0  0  0  0  0  0  0  0  0  0
  136.8065   71.6105  222.6554 H   0  0  0  0  0  0  0  0  0  0  0  0
  134.5420   75.4147  221.0472 H   0  0  0  0  0  0  0  0  0  0  0  0
  133.3227   75.3321  222.3438 H   0  0  0  0  0  0  0  0  0  0  0  0
  134.1806   77.3791  223.0881 H   0  0  0  0  0  0  0  0  0  0  0  0
  136.4380   76.8170  221.4970 H   0  0  0  0  0  0  0  0  0  0  0  0
  136.8943   76.2955  223.5418 H   0  0  0  0  0  0  0  0  0  0  0  0
  135.6958   76.8036  224.7453 H   0  0  0  0  0  0  0  0  0  0  0  0
  136.2890   74.1730  224.5204 H   0  0  0  0  0  0  0  0  0  0  0  0
  133.4674   74.8940  224.3905 H   0  0  0  0  0  0  0  0  0  0  0  0
  133.8695   72.5936  224.6232 H   0  0  0  0  0  0  0  0  0  0  0  0
  135.0935   72.9336  225.9635 H   0  0  0  0  0  0  0  0  0  0  0  0
  132.1725   72.7187  226.0252 H   0  0  0  0  0  0  0  0  0  0  0  0
  133.5198   72.2618  227.2153 H   0  0  0  0  0  0  0  0  0  0  0  0
  132.1968   75.4970  226.0446 H   0  0  0  0  0  0  0  0  0  0  0  0
  132.8525   76.0522  227.6394 H   0  0  0  0  0  0  0  0  0  0  0  0
  134.5025   76.5619  225.8767 H   0  0  0  0  0  0  0  0  0  0  0  0
  135.1709   75.2982  226.8913 H   0  0  0  0  0  0  0  0  0  0  0  0
  140.4371   74.5040  221.2159 H   0  0  0  0  0  0  0  0  0  0  0  0
  142.1237   76.2249  221.8307 H   0  0  0  0  0  0  0  0  0  0  0  0
  142.6322   78.4650  222.7368 H   0  0  0  0  0  0  0  0  0  0  0  0
  139.3940   80.9764  223.9863 H   0  0  0  0  0  0  0  0  0  0  0  0
  137.7838   79.2226  223.3508 H   0  0  0  0  0  0  0  0  0  0  0  0
  1  2  2  0
  2  3  1  0
  3  4  1  0
  4  5  1  0
  5  6  2  0
  5  7  1  0
  7  8  1  0
  8  9  1  0
  9 10  1  0
  9 11  1  0
 11 12  1  0
 12 13  1  0
 13 14  1  0
 14 15  1  0
 15 16  1  0
 16 17  1  0
 17 18  1  0
  2 19  1  0
 19 20  2  0
 20 21  1  0
 21 22  2  0
 22 23  1  0
 23 24  2  0
 24 25  1  0
 24 26  1  0
 26 27  2  0
 27 28  1  0
 28 29  2  0
 12  7  1  0
 18 13  1  0
 29 19  1  0
 28 22  1  0
  3 30  1  0
  4 31  1  0
  4 32  1  0
  8 33  1  0
  8 34  1  0
  9 35  1  1
 10 36  1  0
 11 37  1  0
 11 38  1  0
 12 39  1  1
 13 40  1  0
 14 41  1  0
 14 42  1  0
 15 43  1  0
 15 44  1  0
 17 45  1  0
 17 46  1  0
 18 47  1  0
 18 48  1  0
 20 49  1  0
 21 50  1  0
 23 51  1  0
 26 52  1  0
 27 53  1  0
M  END
>  <smiles>  (40) 
O=C(NCC(=O)N1C[C@H](O)C[C@H]1C1CCOCC1)c1ccc2cc(Cl)ccc2n1

>  <score_type>  (40) 
oracle

>  <origin>  (40) 
autodockgpu

>  <m_score__min__energy>  (40) 
-8.0399999999999991

>  <m_primary>  (40) 
energy

>  <rmsd>  (40) 
8.055088695894662

>  <m_score__min__rmsd>  (40) 
8.055088695894662

>  <meeko>  (40) 
{"free_energy": -6.31, "intermolecular_energy": -8.1, "internal_energy": -3.16, "cluster_size": 9, "cluster_id": 4, "rank_in_cluster": 4}

>  <energy>  (40) 
-6.84

>  <cluster_rmsd>  (40) 
0.39

>  <cluster>  (40) 
3

$$$$

     RDKit          3D

 53 56  0  0  0  0  0  0  0  0999 V2000
  140.6720   72.0550  220.5600 O   0  0  0  0  0  0  0  0  0  0  0  0
  140.2660   72.5140  221.6500 C   0  0  0  0  0  0  0  0  0  0  0  0
  139.9200   73.8690  221.8380 N   0  0  0  0  0  0  0  0  0  0  0  0
  140.0080   74.8640  220.7600 C   0  0  0  0  0  0  0  0  0  0  0  0
  140.0320   76.1820  221.4290 C   0  0  0  0  0  0  0  0  0  0  0  0
  139.6810   76.2620  222.6490 O   0  0  0  0  0  0  0  0  0  0  0  0
  140.4230   77.3920  220.8100 N   0  0  0  0  0  0  0  0  0  0  0  0
  139.5620   78.1500  219.9220 C   0  0  0  0  0  0  0  0  0  0  0  0
  140.4470   78.8410  218.9150 C   0  0  2  0  0  0  0  0  0  0  0  0
  140.2740   78.2700  217.6420 O   0  0  0  0  0  0  0  0  0  0  0  0
  141.8240   78.6130  219.4400 C   0  0  0  0  0  0  0  0  0  0  0  0
  141.6590   78.1380  220.8710 C   0  0  1  0  0  0  0  0  0  0  0  0
  141.5610   79.2820  221.8350 C   0  0  0  0  0  0  0  0  0  0  0  0
  140.3430   79.2360  222.6740 C   0  0  0  0  0  0  0  0  0  0  0  0
  140.2460   80.2680  223.7400 C   0  0  0  0  0  0  0  0  0  0  0  0
  141.4120   80.7790  224.2100 O   0  0  0  0  0  0  0  0  0  0  0  0
  142.4820   80.8330  223.3820 C   0  0  0  0  0  0  0  0  0  0  0  0
  142.7500   79.4730  222.7190 C   0  0  0  0  0  0  0  0  0  0  0  0
  140.1400   71.6010  222.7950 C   0  0  0  0  0  0  0  0  0  0  0  0
  139.5110   70.3770  222.6910 C   0  0  0  0  0  0  0  0  0  0  0  0
  139.4060   69.5280  223.7960 C   0  0  0  0  0  0  0  0  0  0  0  0
  139.9340   69.8990  225.0180 C   0  0  0  0  0  0  0  0  0  0  0  0
  139.8580   69.0990  226.1440 C   0  0  0  0  0  0  0  0  0  0  0  0
  140.3980   69.5070  227.3450 C   0  0  0  0  0  0  0  0  0  0  0  0
  140.3180   68.5170  228.7900 Cl  0  0  0  0  0  0  0  0  0  0  0  0
  141.0210   70.7390  227.4090 C   0  0  0  0  0  0  0  0  0  0  0  0
  141.1000   71.5420  226.2940 C   0  0  0  0  0  0  0  0  0  0  0  0
  140.5540   71.1310  225.0740 C   0  0  0  0  0  0  0  0  0  0  0  0
  140.6390   71.9150  224.0090 N   0  0  0  0  0  0  0  0  0  0  0  0
  139.5840   74.1770  222.7970 H   0  0  0  0  0  0  0  0  0  0  0  0
  140.9275   74.7146  220.1750 H   0  0  0  0  0  0  0  0  0  0  0  0
  139.1623   74.7799  220.0616 H   0  0  0  0  0  0  0  0  0  0  0  0
  138.8641   77.4733  219.4071 H   0  0  0  0  0  0  0  0  0  0  0  0
  138.9715   78.8851  220.4884 H   0  0  0  0  0  0  0  0  0  0  0  0
  140.2223   79.9111  218.7948 H   0  0  0  0  0  0  0  0  0  0  0  0
  139.3990   77.8070  217.6650 H   0  0  0  0  0  0  0  0  0  0  0  0
  142.3383   77.8470  218.8410 H   0  0  0  0  0  0  0  0  0  0  0  0
  142.4288   79.5305  219.3898 H   0  0  0  0  0  0  0  0  0  0  0  0
  142.5144   77.5481  221.2320 H   0  0  0  0  0  0  0  0  0  0  0  0
  141.5113   80.1510  221.1624 H   0  0  0  0  0  0  0  0  0  0  0  0
  139.4732   79.3542  222.0111 H   0  0  0  0  0  0  0  0  0  0  0  0
  140.3811   78.2702  223.1991 H   0  0  0  0  0  0  0  0  0  0  0  0
  139.6546   81.1045  223.3394 H   0  0  0  0  0  0  0  0  0  0  0  0
  139.7939   79.7503  224.5989 H   0  0  0  0  0  0  0  0  0  0  0  0
  142.2904   81.5810  222.5986 H   0  0  0  0  0  0  0  0  0  0  0  0
  143.3656   81.1070  223.9772 H   0  0  0  0  0  0  0  0  0  0  0  0
  143.6789   79.4977  222.1303 H   0  0  0  0  0  0  0  0  0  0  0  0
  142.8816   78.6580  223.4459 H   0  0  0  0  0  0  0  0  0  0  0  0
  139.0865   70.0655  221.7252 H   0  0  0  0  0  0  0  0  0  0  0  0
  138.8993   68.5572  223.6923 H   0  0  0  0  0  0  0  0  0  0  0  0
  139.3584   68.1211  226.0800 H   0  0  0  0  0  0  0  0  0  0  0  0
  141.4574   71.0807  228.3591 H   0  0  0  0  0  0  0  0  0  0  0  0
  141.5991   72.5198  226.3635 H   0  0  0  0  0  0  0  0  0  0  0  0
  1  2  2  0
  2  3  1  0
  3  4  1  0
  4  5  1  0
  5  6  2  0
  5  7  1  0
  7  8  1  0
  8  9  1  0
  9 10  1  0
  9 11  1  0
 11 12  1  0
 12 13  1  0
 13 14  1  0
 14 15  1  0
 15 16  1  0
 16 17  1  0
 17 18  1  0
  2 19  1  0
 19 20  2  0
 20 21  1  0
 21 22  2  0
 22 23  1  0
 23 24  2  0
 24 25  1  0
 24 26  1  0
 26 27  2  0
 27 28  1  0
 28 29  2  0
 12  7  1  0
 18 13  1  0
 29 19  1  0
 28 22  1  0
  3 30  1  0
  4 31  1  0
  4 32  1  0
  8 33  1  0
  8 34  1  0
  9 35  1  6
 10 36  1  0
 11 37  1  0
 11 38  1  0
 12 39  1  1
 13 40  1  0
 14 41  1  0
 14 42  1  0
 15 43  1  0
 15 44  1  0
 17 45  1  0
 17 46  1  0
 18 47  1  0
 18 48  1  0
 20 49  1  0
 21 50  1  0
 23 51  1  0
 26 52  1  0
 27 53  1  0
M  END
>  <smiles>  (41) 
O=C(NCC(=O)N1C[C@H](O)C[C@H]1C1CCOCC1)c1ccc2cc(Cl)ccc2n1

>  <score_type>  (41) 
oracle

>  <origin>  (41) 
autodockgpu

>  <m_score__min__energy>  (41) 
-8.0399999999999991

>  <m_primary>  (41) 
energy

>  <rmsd>  (41) 
3.2797794764015427

>  <m_score__min__rmsd>  (41) 
3.2797794764015427

>  <meeko>  (41) 
{"free_energy": -7.73, "intermolecular_energy": -9.52, "internal_energy": -1.74, "cluster_size": 33, "cluster_id": 1, "rank_in_cluster": 22}

>  <energy>  (41) 
-5.92

>  <cluster_rmsd>  (41) 
0.88

>  <cluster>  (41) 
3

$$$$

     RDKit          3D

 53 56  0  0  0  0  0  0  0  0999 V2000
  133.3990   70.0020  226.5880 O   0  0  0  0  0  0  0  0  0  0  0  0
  133.7970   71.1000  226.1420 C   0  0  0  0  0  0  0  0  0  0  0  0
  134.8170   71.2190  225.1740 N   0  0  0  0  0  0  0  0  0  0  0  0
  135.5040   70.0520  224.6040 C   0  0  0  0  0  0  0  0  0  0  0  0
  136.7990   70.5550  224.0980 C   0  0  0  0  0  0  0  0  0  0  0  0
  136.9620   71.8080  223.9560 O   0  0  0  0  0  0  0  0  0  0  0  0
  137.8990   69.7370  223.7500 N   0  0  0  0  0  0  0  0  0  0  0  0
  138.7960   70.0290  222.6470 C   0  0  0  0  0  0  0  0  0  0  0  0
  139.2850   68.7120  222.1010 C   0  0  2  0  0  0  0  0  0  0  0  0
  138.7370   68.4800  220.8260 O   0  0  0  0  0  0  0  0  0  0  0  0
  138.8020   67.7140  223.0990 C   0  0  0  0  0  0  0  0  0  0  0  0
  138.3930   68.5070  224.3250 C   0  0  1  0  0  0  0  0  0  0  0  0
  139.5500   68.7570  225.2460 C   0  0  0  0  0  0  0  0  0  0  0  0
  139.6040   70.1460  225.7500 C   0  0  0  0  0  0  0  0  0  0  0  0
  140.6500   70.4300  226.7680 C   0  0  0  0  0  0  0  0  0  0  0  0
  141.0760   69.3850  227.5220 O   0  0  0  0  0  0  0  0  0  0  0  0
  141.0400   68.1390  226.9890 C   0  0  0  0  0  0  0  0  0  0  0  0
  139.6580   67.8180  226.4020 C   0  0  0  0  0  0  0  0  0  0  0  0
  133.1740   72.3320  226.6470 C   0  0  0  0  0  0  0  0  0  0  0  0
  131.9910   72.3170  227.3580 C   0  0  0  0  0  0  0  0  0  0  0  0
  131.4210   73.5040  227.8270 C   0  0  0  0  0  0  0  0  0  0  0  0
  132.0330   74.7190  227.5860 C   0  0  0  0  0  0  0  0  0  0  0  0
  131.5110   75.9220  228.0260 C   0  0  0  0  0  0  0  0  0  0  0  0
  132.1540   77.1150  227.7640 C   0  0  0  0  0  0  0  0  0  0  0  0
  131.5200   78.6560  228.3060 Cl  0  0  0  0  0  0  0  0  0  0  0  0
  133.3350   77.0880  227.0490 C   0  0  0  0  0  0  0  0  0  0  0  0
  133.8610   75.8960  226.6070 C   0  0  0  0  0  0  0  0  0  0  0  0
  133.2120   74.6850  226.8710 C   0  0  0  0  0  0  0  0  0  0  0  0
  133.7300   73.5440  226.4390 N   0  0  0  0  0  0  0  0  0  0  0  0
  135.0950   72.1910  224.8490 H   0  0  0  0  0  0  0  0  0  0  0  0
  135.6660   69.2871  225.3777 H   0  0  0  0  0  0  0  0  0  0  0  0
  134.9112   69.5834  223.8046 H   0  0  0  0  0  0  0  0  0  0  0  0
  138.2598   70.5847  221.8636 H   0  0  0  0  0  0  0  0  0  0  0  0
  139.6411   70.6455  222.9872 H   0  0  0  0  0  0  0  0  0  0  0  0
  140.3763   68.6700  221.9694 H   0  0  0  0  0  0  0  0  0  0  0  0
  137.9990   69.1320  220.7220 H   0  0  0  0  0  0  0  0  0  0  0  0
  137.9404   67.1599  222.6982 H   0  0  0  0  0  0  0  0  0  0  0  0
  139.5825   66.9772  223.3397 H   0  0  0  0  0  0  0  0  0  0  0  0
  137.6546   67.9842  224.9506 H   0  0  0  0  0  0  0  0  0  0  0  0
  140.4146   68.5693  224.5924 H   0  0  0  0  0  0  0  0  0  0  0  0
  139.7820   70.8091  224.8906 H   0  0  0  0  0  0  0  0  0  0  0  0
  138.6428   70.3148  226.2575 H   0  0  0  0  0  0  0  0  0  0  0  0
  141.5251   70.8367  226.2400 H   0  0  0  0  0  0  0  0  0  0  0  0
  140.1753   71.1212  227.4800 H   0  0  0  0  0  0  0  0  0  0  0  0
  141.7926   68.0702  226.1897 H   0  0  0  0  0  0  0  0  0  0  0  0
  141.2517   67.4149  227.7895 H   0  0  0  0  0  0  0  0  0  0  0  0
  139.6057   66.7718  226.0662 H   0  0  0  0  0  0  0  0  0  0  0  0
  138.8425   67.9363  227.1306 H   0  0  0  0  0  0  0  0  0  0  0  0
  131.4902   71.3583  227.5582 H   0  0  0  0  0  0  0  0  0  0  0  0
  130.4780   73.4705  228.3923 H   0  0  0  0  0  0  0  0  0  0  0  0
  130.5687   75.9281  228.5936 H   0  0  0  0  0  0  0  0  0  0  0  0
  133.8607   78.0292  226.8305 H   0  0  0  0  0  0  0  0  0  0  0  0
  134.8031   75.8951  226.0392 H   0  0  0  0  0  0  0  0  0  0  0  0
  1  2  2  0
  2  3  1  0
  3  4  1  0
  4  5  1  0
  5  6  2  0
  5  7  1  0
  7  8  1  0
  8  9  1  0
  9 10  1  0
  9 11  1  0
 11 12  1  0
 12 13  1  0
 13 14  1  0
 14 15  1  0
 15 16  1  0
 16 17  1  0
 17 18  1  0
  2 19  1  0
 19 20  2  0
 20 21  1  0
 21 22  2  0
 22 23  1  0
 23 24  2  0
 24 25  1  0
 24 26  1  0
 26 27  2  0
 27 28  1  0
 28 29  2  0
 12  7  1  0
 18 13  1  0
 29 19  1  0
 28 22  1  0
  3 30  1  0
  4 31  1  0
  4 32  1  0
  8 33  1  0
  8 34  1  0
  9 35  1  6
 10 36  1  0
 11 37  1  0
 11 38  1  0
 12 39  1  1
 13 40  1  0
 14 41  1  0
 14 42  1  0
 15 43  1  0
 15 44  1  0
 17 45  1  0
 17 46  1  0
 18 47  1  0
 18 48  1  0
 20 49  1  0
 21 50  1  0
 23 51  1  0
 26 52  1  0
 27 53  1  0
M  END
>  <smiles>  (42) 
O=C(NCC(=O)N1C[C@H](O)C[C@H]1C1CCOCC1)c1ccc2cc(Cl)ccc2n1

>  <score_type>  (42) 
oracle

>  <origin>  (42) 
autodockgpu

>  <m_score__min__energy>  (42) 
-8.0399999999999991

>  <m_primary>  (42) 
energy

>  <rmsd>  (42) 
8.850840719784578

>  <m_score__min__rmsd>  (42) 
8.850840719784578

>  <meeko>  (42) 
{"free_energy": -7.18, "intermolecular_energy": -8.97, "internal_energy": -2.01, "cluster_size": 1, "cluster_id": 2, "rank_in_cluster": 1}

>  <energy>  (42) 
-6.36

>  <cluster_rmsd>  (42) 
0.0

>  <cluster>  (42) 
4

$$$$

     RDKit          3D

 53 56  0  0  0  0  0  0  0  0999 V2000
  136.5300   75.1440  220.8970 O   0  0  0  0  0  0  0  0  0  0  0  0
  137.4190   74.8100  221.7110 C   0  0  0  0  0  0  0  0  0  0  0  0
  137.4550   73.5500  222.3450 N   0  0  0  0  0  0  0  0  0  0  0  0
  136.4420   72.5150  222.1000 C   0  0  0  0  0  0  0  0  0  0  0  0
  135.4290   72.6830  223.1640 C   0  0  0  0  0  0  0  0  0  0  0  0
  134.8730   71.6500  223.6560 O   0  0  0  0  0  0  0  0  0  0  0  0
  135.0190   73.9280  223.6950 N   0  0  0  0  0  0  0  0  0  0  0  0
  134.1250   74.8370  223.0010 C   0  0  0  0  0  0  0  0  0  0  0  0
  134.5030   76.2390  223.4060 C   0  0  2  0  0  0  0  0  0  0  0  0
  135.0880   76.9180  222.3220 O   0  0  0  0  0  0  0  0  0  0  0  0
  135.4750   76.0350  224.5190 C   0  0  0  0  0  0  0  0  0  0  0  0
  135.3380   74.5860  224.9410 C   0  0  1  0  0  0  0  0  0  0  0  0
  134.2500   74.3960  225.9550 C   0  0  0  0  0  0  0  0  0  0  0  0
  133.5680   75.6560  226.3230 C   0  0  0  0  0  0  0  0  0  0  0  0
  132.3950   75.5230  227.2280 C   0  0  0  0  0  0  0  0  0  0  0  0
  131.7320   74.3390  227.2060 O   0  0  0  0  0  0  0  0  0  0  0  0
  132.4200   73.2120  226.9010 C   0  0  0  0  0  0  0  0  0  0  0  0
  133.2190   73.3750  225.6000 C   0  0  0  0  0  0  0  0  0  0  0  0
  138.4820   75.7750  222.0250 C   0  0  0  0  0  0  0  0  0  0  0  0
  139.8200   75.4630  221.8890 C   0  0  0  0  0  0  0  0  0  0  0  0
  140.8100   76.4010  222.1960 C   0  0  0  0  0  0  0  0  0  0  0  0
  140.4670   77.6640  222.6410 C   0  0  0  0  0  0  0  0  0  0  0  0
  141.4050   78.6290  222.9590 C   0  0  0  0  0  0  0  0  0  0  0  0
  141.0200   79.8780  223.4000 C   0  0  0  0  0  0  0  0  0  0  0  0
  142.1830   81.1230  223.8110 Cl  0  0  0  0  0  0  0  0  0  0  0  0
  139.6720   80.1520  223.5230 C   0  0  0  0  0  0  0  0  0  0  0  0
  138.7310   79.1970  223.2100 C   0  0  0  0  0  0  0  0  0  0  0  0
  139.1180   77.9300  222.7610 C   0  0  0  0  0  0  0  0  0  0  0  0
  138.2010   77.0210  222.4630 N   0  0  0  0  0  0  0  0  0  0  0  0
  138.2460   73.3480  223.0230 H   0  0  0  0  0  0  0  0  0  0  0  0
  135.9840   72.6541  221.1096 H   0  0  0  0  0  0  0  0  0  0  0  0
  136.8815   71.5067  222.1149 H   0  0  0  0  0  0  0  0  0  0  0  0
  134.2369   74.7169  221.9133 H   0  0  0  0  0  0  0  0  0  0  0  0
  133.0776   74.6265  223.2628 H   0  0  0  0  0  0  0  0  0  0  0  0
  133.6441   76.8532  223.7144 H   0  0  0  0  0  0  0  0  0  0  0  0
  136.0500   76.6840  222.3390 H   0  0  0  0  0  0  0  0  0  0  0  0
  136.4994   76.2357  224.1720 H   0  0  0  0  0  0  0  0  0  0  0  0
  135.2723   76.7172  225.3577 H   0  0  0  0  0  0  0  0  0  0  0  0
  136.2405   74.1917  225.4308 H   0  0  0  0  0  0  0  0  0  0  0  0
  134.8054   74.0110  226.8230 H   0  0  0  0  0  0  0  0  0  0  0  0
  134.3045   76.3045  226.8200 H   0  0  0  0  0  0  0  0  0  0  0  0
  133.1712   76.0640  225.3817 H   0  0  0  0  0  0  0  0  0  0  0  0
  132.7491   75.6862  228.2566 H   0  0  0  0  0  0  0  0  0  0  0  0
  131.6682   76.2647  226.8652 H   0  0  0  0  0  0  0  0  0  0  0  0
  133.1161   72.9851  227.7219 H   0  0  0  0  0  0  0  0  0  0  0  0
  131.6979   72.3938  226.7623 H   0  0  0  0  0  0  0  0  0  0  0  0
  133.6899   72.4256  225.3053 H   0  0  0  0  0  0  0  0  0  0  0  0
  132.5938   73.6738  224.7457 H   0  0  0  0  0  0  0  0  0  0  0  0
  140.1109   74.4632  221.5344 H   0  0  0  0  0  0  0  0  0  0  0  0
  141.8705   76.1319  222.0825 H   0  0  0  0  0  0  0  0  0  0  0  0
  142.4755   78.3968  222.8587 H   0  0  0  0  0  0  0  0  0  0  0  0
  139.3471   81.1425  223.8743 H   0  0  0  0  0  0  0  0  0  0  0  0
  137.6617   79.4332  223.3143 H   0  0  0  0  0  0  0  0  0  0  0  0
  1  2  2  0
  2  3  1  0
  3  4  1  0
  4  5  1  0
  5  6  2  0
  5  7  1  0
  7  8  1  0
  8  9  1  0
  9 10  1  0
  9 11  1  0
 11 12  1  0
 12 13  1  0
 13 14  1  0
 14 15  1  0
 15 16  1  0
 16 17  1  0
 17 18  1  0
  2 19  1  0
 19 20  2  0
 20 21  1  0
 21 22  2  0
 22 23  1  0
 23 24  2  0
 24 25  1  0
 24 26  1  0
 26 27  2  0
 27 28  1  0
 28 29  2  0
 12  7  1  0
 18 13  1  0
 29 19  1  0
 28 22  1  0
  3 30  1  0
  4 31  1  0
  4 32  1  0
  8 33  1  0
  8 34  1  0
  9 35  1  1
 10 36  1  0
 11 37  1  0
 11 38  1  0
 12 39  1  1
 13 40  1  0
 14 41  1  0
 14 42  1  0
 15 43  1  0
 15 44  1  0
 17 45  1  0
 17 46  1  0
 18 47  1  0
 18 48  1  0
 20 49  1  0
 21 50  1  0
 23 51  1  0
 26 52  1  0
 27 53  1  0
M  END
>  <smiles>  (43) 
O=C(NCC(=O)N1C[C@H](O)C[C@H]1C1CCOCC1)c1ccc2cc(Cl)ccc2n1

>  <score_type>  (43) 
oracle

>  <origin>  (43) 
autodockgpu

>  <m_score__min__energy>  (43) 
-8.0399999999999991

>  <m_primary>  (43) 
energy

>  <rmsd>  (43) 
8.379856656584419

>  <m_score__min__rmsd>  (43) 
8.379856656584419

>  <meeko>  (43) 
{"free_energy": -5.9, "intermolecular_energy": -7.69, "internal_energy": -2.99, "cluster_size": 9, "cluster_id": 4, "rank_in_cluster": 9}

>  <energy>  (43) 
-6.31

>  <cluster_rmsd>  (43) 
0.47

>  <cluster>  (43) 
4

$$$$

     RDKit          3D

 53 56  0  0  0  0  0  0  0  0999 V2000
  139.8520   72.0460  220.5050 O   0  0  0  0  0  0  0  0  0  0  0  0
  139.7350   72.5090  221.6620 C   0  0  0  0  0  0  0  0  0  0  0  0
  139.5460   73.8800  221.9320 N   0  0  0  0  0  0  0  0  0  0  0  0
  139.4700   74.8910  220.8680 C   0  0  0  0  0  0  0  0  0  0  0  0
  139.8530   76.1710  221.5010 C   0  0  0  0  0  0  0  0  0  0  0  0
  139.7730   76.2840  222.7650 O   0  0  0  0  0  0  0  0  0  0  0  0
  140.3140   77.3100  220.7990 N   0  0  0  0  0  0  0  0  0  0  0  0
  139.5230   78.0110  219.8060 C   0  0  0  0  0  0  0  0  0  0  0  0
  140.4770   78.5850  218.7900 C   0  0  2  0  0  0  0  0  0  0  0  0
  140.3490   77.9070  217.5630 O   0  0  0  0  0  0  0  0  0  0  0  0
  141.8190   78.3650  219.4030 C   0  0  0  0  0  0  0  0  0  0  0  0
  141.5680   78.0240  220.8590 C   0  0  1  0  0  0  0  0  0  0  0  0
  141.4600   79.2520  221.7140 C   0  0  0  0  0  0  0  0  0  0  0  0
  142.2160   79.1490  222.9810 C   0  0  0  0  0  0  0  0  0  0  0  0
  142.2580   80.3780  223.8170 C   0  0  0  0  0  0  0  0  0  0  0  0
  142.1070   81.5640  223.1760 O   0  0  0  0  0  0  0  0  0  0  0  0
  141.3690   81.6030  222.0400 C   0  0  0  0  0  0  0  0  0  0  0  0
  141.8230   80.5330  221.0370 C   0  0  0  0  0  0  0  0  0  0  0  0
  139.7960   71.5800  222.7990 C   0  0  0  0  0  0  0  0  0  0  0  0
  139.3050   70.2920  222.7210 C   0  0  0  0  0  0  0  0  0  0  0  0
  139.3760   69.4300  223.8190 C   0  0  0  0  0  0  0  0  0  0  0  0
  139.9420   69.8520  225.0070 C   0  0  0  0  0  0  0  0  0  0  0  0
  140.0370   69.0410  226.1240 C   0  0  0  0  0  0  0  0  0  0  0  0
  140.6090   69.5010  227.2910 C   0  0  0  0  0  0  0  0  0  0  0  0
  140.7450   68.5000  228.7240 Cl  0  0  0  0  0  0  0  0  0  0  0  0
  141.0890   70.7970  227.3290 C   0  0  0  0  0  0  0  0  0  0  0  0
  140.9980   71.6110  226.2240 C   0  0  0  0  0  0  0  0  0  0  0  0
  140.4190   71.1470  225.0380 C   0  0  0  0  0  0  0  0  0  0  0  0
  140.3380   71.9420  223.9810 N   0  0  0  0  0  0  0  0  0  0  0  0
  139.4560   74.1890  222.9440 H   0  0  0  0  0  0  0  0  0  0  0  0
  140.1664   74.6430  220.0534 H   0  0  0  0  0  0  0  0  0  0  0  0
  138.4628   74.9418  220.4288 H   0  0  0  0  0  0  0  0  0  0  0  0
  138.8290   77.3118  219.3166 H   0  0  0  0  0  0  0  0  0  0  0  0
  138.9305   78.8098  220.2759 H   0  0  0  0  0  0  0  0  0  0  0  0
  140.2923   79.6460  218.5658 H   0  0  0  0  0  0  0  0  0  0  0  0
  139.8110   77.0980  217.7520 H   0  0  0  0  0  0  0  0  0  0  0  0
  142.3363   77.5344  218.9005 H   0  0  0  0  0  0  0  0  0  0  0  0
  142.4560   79.2563  219.3040 H   0  0  0  0  0  0  0  0  0  0  0  0
  142.3849   77.4450  221.3144 H   0  0  0  0  0  0  0  0  0  0  0  0
  140.3824   79.2919  221.9312 H   0  0  0  0  0  0  0  0  0  0  0  0
  141.7587   78.3489  223.5816 H   0  0  0  0  0  0  0  0  0  0  0  0
  143.2584   78.9532  222.6892 H   0  0  0  0  0  0  0  0  0  0  0  0
  141.4538   80.2994  224.5633 H   0  0  0  0  0  0  0  0  0  0  0  0
  143.2757   80.4057  224.2334 H   0  0  0  0  0  0  0  0  0  0  0  0
  140.3128   81.4298  222.2938 H   0  0  0  0  0  0  0  0  0  0  0  0
  141.5031   82.5909  221.5751 H   0  0  0  0  0  0  0  0  0  0  0  0
  141.2901   80.6380  220.0805 H   0  0  0  0  0  0  0  0  0  0  0  0
  142.8926   80.6011  220.7893 H   0  0  0  0  0  0  0  0  0  0  0  0
  138.8520   69.9396  221.7826 H   0  0  0  0  0  0  0  0  0  0  0  0
  138.9783   68.4077  223.7368 H   0  0  0  0  0  0  0  0  0  0  0  0
  139.6498   68.0123  226.0802 H   0  0  0  0  0  0  0  0  0  0  0  0
  141.5482   71.1809  228.2519 H   0  0  0  0  0  0  0  0  0  0  0  0
  141.3852   72.6394  226.2734 H   0  0  0  0  0  0  0  0  0  0  0  0
  1  2  2  0
  2  3  1  0
  3  4  1  0
  4  5  1  0
  5  6  2  0
  5  7  1  0
  7  8  1  0
  8  9  1  0
  9 10  1  0
  9 11  1  0
 11 12  1  0
 12 13  1  0
 13 14  1  0
 14 15  1  0
 15 16  1  0
 16 17  1  0
 17 18  1  0
  2 19  1  0
 19 20  2  0
 20 21  1  0
 21 22  2  0
 22 23  1  0
 23 24  2  0
 24 25  1  0
 24 26  1  0
 26 27  2  0
 27 28  1  0
 28 29  2  0
 12  7  1  0
 18 13  1  0
 29 19  1  0
 28 22  1  0
  3 30  1  0
  4 31  1  0
  4 32  1  0
  8 33  1  0
  8 34  1  0
  9 35  1  6
 10 36  1  0
 11 37  1  0
 11 38  1  0
 12 39  1  1
 13 40  1  0
 14 41  1  0
 14 42  1  0
 15 43  1  0
 15 44  1  0
 17 45  1  0
 17 46  1  0
 18 47  1  0
 18 48  1  0
 20 49  1  0
 21 50  1  0
 23 51  1  0
 26 52  1  0
 27 53  1  0
M  END
>  <smiles>  (44) 
O=C(NCC(=O)N1C[C@H](O)C[C@H]1C1CCOCC1)c1ccc2cc(Cl)ccc2n1

>  <score_type>  (44) 
oracle

>  <origin>  (44) 
autodockgpu

>  <m_score__min__energy>  (44) 
-8.0399999999999991

>  <m_primary>  (44) 
energy

>  <rmsd>  (44) 
3.2712995611006646

>  <m_score__min__rmsd>  (44) 
3.2712995611006646

>  <meeko>  (44) 
{"free_energy": -7.94, "intermolecular_energy": -9.73, "internal_energy": -1.89, "cluster_size": 33, "cluster_id": 1, "rank_in_cluster": 6}

>  <energy>  (44) 
-6.31

>  <cluster_rmsd>  (44) 
0.1

>  <cluster>  (44) 
4

$$$$

     RDKit          3D

 53 56  0  0  0  0  0  0  0  0999 V2000
  140.9240   72.4680  220.7270 O   0  0  0  0  0  0  0  0  0  0  0  0
  140.3040   72.8140  221.7570 C   0  0  0  0  0  0  0  0  0  0  0  0
  139.7130   74.0850  221.9150 N   0  0  0  0  0  0  0  0  0  0  0  0
  139.7760   75.1190  220.8730 C   0  0  0  0  0  0  0  0  0  0  0  0
  139.6040   76.4090  221.5760 C   0  0  0  0  0  0  0  0  0  0  0  0
  139.1820   76.4070  222.7750 O   0  0  0  0  0  0  0  0  0  0  0  0
  139.8770   77.6760  221.0100 N   0  0  0  0  0  0  0  0  0  0  0  0
  138.8600   78.5210  220.4130 C   0  0  0  0  0  0  0  0  0  0  0  0
  139.5190   79.3120  219.3110 C   0  0  2  0  0  0  0  0  0  0  0  0
  139.0600   78.8740  218.0560 O   0  0  0  0  0  0  0  0  0  0  0  0
  140.9720   79.0320  219.4960 C   0  0  0  0  0  0  0  0  0  0  0  0
  141.1120   78.4130  220.8730 C   0  0  1  0  0  0  0  0  0  0  0  0
  141.2520   79.4530  221.9450 C   0  0  0  0  0  0  0  0  0  0  0  0
  142.2670   79.1070  222.9640 C   0  0  0  0  0  0  0  0  0  0  0  0
  142.5480   80.1510  223.9850 C   0  0  0  0  0  0  0  0  0  0  0  0
  142.3100   81.4390  223.6300 O   0  0  0  0  0  0  0  0  0  0  0  0
  141.3390   81.6960  222.7210 C   0  0  0  0  0  0  0  0  0  0  0  0
  141.5100   80.8400  221.4570 C   0  0  0  0  0  0  0  0  0  0  0  0
  140.1830   71.8500  222.8610 C   0  0  0  0  0  0  0  0  0  0  0  0
  139.5700   70.6250  222.7000 C   0  0  0  0  0  0  0  0  0  0  0  0
  139.4680   69.7280  223.7670 C   0  0  0  0  0  0  0  0  0  0  0  0
  139.9830   70.0520  225.0080 C   0  0  0  0  0  0  0  0  0  0  0  0
  139.9090   69.2040  226.0970 C   0  0  0  0  0  0  0  0  0  0  0  0
  140.4360   69.5660  227.3190 C   0  0  0  0  0  0  0  0  0  0  0  0
  140.3600   68.5150  228.7200 Cl  0  0  0  0  0  0  0  0  0  0  0  0
  141.0430   70.8020  227.4400 C   0  0  0  0  0  0  0  0  0  0  0  0
  141.1200   71.6540  226.3620 C   0  0  0  0  0  0  0  0  0  0  0  0
  140.5870   71.2880  225.1210 C   0  0  0  0  0  0  0  0  0  0  0  0
  140.6690   72.1180  224.0910 N   0  0  0  0  0  0  0  0  0  0  0  0
  139.2050   74.2970  222.8220 H   0  0  0  0  0  0  0  0  0  0  0  0
  140.7491   75.0883  220.3610 H   0  0  0  0  0  0  0  0  0  0  0  0
  139.0020   74.9691  220.1059 H   0  0  0  0  0  0  0  0  0  0  0  0
  138.0518   77.9006  219.9985 H   0  0  0  0  0  0  0  0  0  0  0  0
  138.4238   79.1939  221.1659 H   0  0  0  0  0  0  0  0  0  0  0  0
  139.2971   80.3887  219.3506 H   0  0  0  0  0  0  0  0  0  0  0  0
  139.5090   78.0090  217.8860 H   0  0  0  0  0  0  0  0  0  0  0  0
  141.3264   78.3317  218.7254 H   0  0  0  0  0  0  0  0  0  0  0  0
  141.5715   79.9499  219.4065 H   0  0  0  0  0  0  0  0  0  0  0  0
  142.0122   77.7895  220.9771 H   0  0  0  0  0  0  0  0  0  0  0  0
  140.2529   79.4505  222.4052 H   0  0  0  0  0  0  0  0  0  0  0  0
  141.9212   78.2054  223.4909 H   0  0  0  0  0  0  0  0  0  0  0  0
  143.2083   78.9720  222.4111 H   0  0  0  0  0  0  0  0  0  0  0  0
  141.9276   79.9294  224.8659 H   0  0  0  0  0  0  0  0  0  0  0  0
  143.6331   80.0977  224.1573 H   0  0  0  0  0  0  0  0  0  0  0  0
  140.3601   81.4760  223.1719 H   0  0  0  0  0  0  0  0  0  0  0  0
  141.4082   82.7552  222.4323 H   0  0  0  0  0  0  0  0  0  0  0  0
  140.7818   81.1279  220.6845 H   0  0  0  0  0  0  0  0  0  0  0  0
  142.4989   80.9551  220.9893 H   0  0  0  0  0  0  0  0  0  0  0  0
  139.1558   70.3503  221.7187 H   0  0  0  0  0  0  0  0  0  0  0  0
  138.9740   68.7566  223.6179 H   0  0  0  0  0  0  0  0  0  0  0  0
  139.4216   68.2240  225.9872 H   0  0  0  0  0  0  0  0  0  0  0  0
  141.4686   71.1075  228.4072 H   0  0  0  0  0  0  0  0  0  0  0  0
  141.6061   72.6340  226.4772 H   0  0  0  0  0  0  0  0  0  0  0  0
  1  2  2  0
  2  3  1  0
  3  4  1  0
  4  5  1  0
  5  6  2  0
  5  7  1  0
  7  8  1  0
  8  9  1  0
  9 10  1  0
  9 11  1  0
 11 12  1  0
 12 13  1  0
 13 14  1  0
 14 15  1  0
 15 16  1  0
 16 17  1  0
 17 18  1  0
  2 19  1  0
 19 20  2  0
 20 21  1  0
 21 22  2  0
 22 23  1  0
 23 24  2  0
 24 25  1  0
 24 26  1  0
 26 27  2  0
 27 28  1  0
 28 29  2  0
 12  7  1  0
 18 13  1  0
 29 19  1  0
 28 22  1  0
  3 30  1  0
  4 31  1  0
  4 32  1  0
  8 33  1  0
  8 34  1  0
  9 35  1  1
 10 36  1  0
 11 37  1  0
 11 38  1  0
 12 39  1  6
 13 40  1  0
 14 41  1  0
 14 42  1  0
 15 43  1  0
 15 44  1  0
 17 45  1  0
 17 46  1  0
 18 47  1  0
 18 48  1  0
 20 49  1  0
 21 50  1  0
 23 51  1  0
 26 52  1  0
 27 53  1  0
M  END
>  <smiles>  (45) 
O=C(NCC(=O)N1C[C@H](O)C[C@H]1C1CCOCC1)c1ccc2cc(Cl)ccc2n1

>  <score_type>  (45) 
oracle

>  <origin>  (45) 
autodockgpu

>  <m_score__min__energy>  (45) 
-8.0399999999999991

>  <m_primary>  (45) 
energy

>  <rmsd>  (45) 
3.4981047984737854

>  <m_score__min__rmsd>  (45) 
3.4981047984737854

>  <meeko>  (45) 
{"free_energy": -7.81, "intermolecular_energy": -9.6, "internal_energy": -1.76, "cluster_size": 33, "cluster_id": 1, "rank_in_cluster": 17}

>  <energy>  (45) 
-6.31

>  <cluster_rmsd>  (45) 
0.47

>  <cluster>  (45) 
4

$$$$

     RDKit          3D

 53 56  0  0  0  0  0  0  0  0999 V2000
  140.7280   72.7660  220.8640 O   0  0  0  0  0  0  0  0  0  0  0  0
  140.1980   73.0680  221.9560 C   0  0  0  0  0  0  0  0  0  0  0  0
  139.6660   74.3450  222.2330 N   0  0  0  0  0  0  0  0  0  0  0  0
  139.6890   75.4390  221.2520 C   0  0  0  0  0  0  0  0  0  0  0  0
  139.6200   76.6870  222.0400 C   0  0  0  0  0  0  0  0  0  0  0  0
  138.7570   76.7840  222.9700 O   0  0  0  0  0  0  0  0  0  0  0  0
  140.4540   77.8120  221.8420 N   0  0  0  0  0  0  0  0  0  0  0  0
  141.4220   78.2730  222.8200 C   0  0  0  0  0  0  0  0  0  0  0  0
  141.5340   79.7690  222.6750 C   0  0  2  0  0  0  0  0  0  0  0  0
  140.9720   80.4110  223.7940 O   0  0  0  0  0  0  0  0  0  0  0  0
  140.7680   80.0620  221.4280 C   0  0  0  0  0  0  0  0  0  0  0  0
  140.5700   78.7300  220.7320 C   0  0  1  0  0  0  0  0  0  0  0  0
  141.7300   78.3780  219.8480 C   0  0  0  0  0  0  0  0  0  0  0  0
  142.2050   76.9900  220.0340 C   0  0  0  0  0  0  0  0  0  0  0  0
  143.2680   76.5340  219.1000 C   0  0  0  0  0  0  0  0  0  0  0  0
  143.3320   77.1500  217.8920 O   0  0  0  0  0  0  0  0  0  0  0  0
  142.9190   78.4360  217.7930 C   0  0  0  0  0  0  0  0  0  0  0  0
  141.5170   78.6250  218.3910 C   0  0  0  0  0  0  0  0  0  0  0  0
  140.1230   72.0430  223.0070 C   0  0  0  0  0  0  0  0  0  0  0  0
  139.5620   70.8020  222.7830 C   0  0  0  0  0  0  0  0  0  0  0  0
  139.5040   69.8460  223.8010 C   0  0  0  0  0  0  0  0  0  0  0  0
  140.0110   70.1260  225.0560 C   0  0  0  0  0  0  0  0  0  0  0  0
  139.9790   69.2180  226.0990 C   0  0  0  0  0  0  0  0  0  0  0  0
  140.4960   69.5380  227.3370 C   0  0  0  0  0  0  0  0  0  0  0  0
  140.4710   68.4110  228.6790 Cl  0  0  0  0  0  0  0  0  0  0  0  0
  141.0500   70.7900  227.5220 C   0  0  0  0  0  0  0  0  0  0  0  0
  141.0860   71.7000  226.4900 C   0  0  0  0  0  0  0  0  0  0  0  0
  140.5620   71.3790  225.2340 C   0  0  0  0  0  0  0  0  0  0  0  0
  140.6040   72.2650  224.2490 N   0  0  0  0  0  0  0  0  0  0  0  0
  139.2330   74.5170  223.1870 H   0  0  0  0  0  0  0  0  0  0  0  0
  140.6186   75.4076  220.6647 H   0  0  0  0  0  0  0  0  0  0  0  0
  138.8538   75.3626  220.5403 H   0  0  0  0  0  0  0  0  0  0  0  0
  141.0816   78.0183  223.8345 H   0  0  0  0  0  0  0  0  0  0  0  0
  142.3981   77.7933  222.6554 H   0  0  0  0  0  0  0  0  0  0  0  0
  142.5725   80.1268  222.6162 H   0  0  0  0  0  0  0  0  0  0  0  0
  140.1410   79.9160  224.0040 H   0  0  0  0  0  0  0  0  0  0  0  0
  139.7950   80.5119  221.6747 H   0  0  0  0  0  0  0  0  0  0  0  0
  141.3052   80.7748  220.7851 H   0  0  0  0  0  0  0  0  0  0  0  0
  139.7005   78.7207  220.0583 H   0  0  0  0  0  0  0  0  0  0  0  0
  142.5053   79.0802  220.1882 H   0  0  0  0  0  0  0  0  0  0  0  0
  142.5968   76.9028  221.0581 H   0  0  0  0  0  0  0  0  0  0  0  0
  141.3350   76.3489  219.8287 H   0  0  0  0  0  0  0  0  0  0  0  0
  144.2361   76.6834  219.6005 H   0  0  0  0  0  0  0  0  0  0  0  0
  143.0200   75.4864  218.8740 H   0  0  0  0  0  0  0  0  0  0  0  0
  143.6277   79.0815  218.3326 H   0  0  0  0  0  0  0  0  0  0  0  0
  142.8783   78.7041  216.7270 H   0  0  0  0  0  0  0  0  0  0  0  0
  141.1473   79.6458  218.2141 H   0  0  0  0  0  0  0  0  0  0  0  0
  140.7651   77.9566  217.9461 H   0  0  0  0  0  0  0  0  0  0  0  0
  139.1549   70.5620  221.7897 H   0  0  0  0  0  0  0  0  0  0  0  0
  139.0514   68.8634  223.6019 H   0  0  0  0  0  0  0  0  0  0  0  0
  139.5341   68.2249  225.9385 H   0  0  0  0  0  0  0  0  0  0  0  0
  141.4662   71.0621  228.5032 H   0  0  0  0  0  0  0  0  0  0  0  0
  141.5323   72.6917  226.6553 H   0  0  0  0  0  0  0  0  0  0  0  0
  1  2  2  0
  2  3  1  0
  3  4  1  0
  4  5  1  0
  5  6  2  0
  5  7  1  0
  7  8  1  0
  8  9  1  0
  9 10  1  0
  9 11  1  0
 11 12  1  0
 12 13  1  0
 13 14  1  0
 14 15  1  0
 15 16  1  0
 16 17  1  0
 17 18  1  0
  2 19  1  0
 19 20  2  0
 20 21  1  0
 21 22  2  0
 22 23  1  0
 23 24  2  0
 24 25  1  0
 24 26  1  0
 26 27  2  0
 27 28  1  0
 28 29  2  0
 12  7  1  0
 18 13  1  0
 29 19  1  0
 28 22  1  0
  3 30  1  0
  4 31  1  0
  4 32  1  0
  8 33  1  0
  8 34  1  0
  9 35  1  6
 10 36  1  0
 11 37  1  0
 11 38  1  0
 12 39  1  6
 13 40  1  0
 14 41  1  0
 14 42  1  0
 15 43  1  0
 15 44  1  0
 17 45  1  0
 17 46  1  0
 18 47  1  0
 18 48  1  0
 20 49  1  0
 21 50  1  0
 23 51  1  0
 26 52  1  0
 27 53  1  0
M  END
>  <smiles>  (46) 
O=C(NCC(=O)N1C[C@H](O)C[C@H]1C1CCOCC1)c1ccc2cc(Cl)ccc2n1

>  <score_type>  (46) 
oracle

>  <origin>  (46) 
autodockgpu

>  <m_score__min__energy>  (46) 
-8.0399999999999991

>  <m_primary>  (46) 
energy

>  <rmsd>  (46) 
2.850345400285234

>  <m_score__min__rmsd>  (46) 
2.850345400285234

>  <meeko>  (46) 
{"free_energy": -7.79, "intermolecular_energy": -9.58, "internal_energy": -1.66, "cluster_size": 33, "cluster_id": 1, "rank_in_cluster": 18}

>  <energy>  (46) 
-6.29

>  <cluster_rmsd>  (46) 
0.17

>  <cluster>  (46) 
4

$$$$

     RDKit          3D

 53 56  0  0  0  0  0  0  0  0999 V2000
  137.1060   74.7200  220.3460 O   0  0  0  0  0  0  0  0  0  0  0  0
  137.7870   74.5300  221.3780 C   0  0  0  0  0  0  0  0  0  0  0  0
  137.6380   73.3980  222.2070 N   0  0  0  0  0  0  0  0  0  0  0  0
  136.6600   72.3380  221.9260 C   0  0  0  0  0  0  0  0  0  0  0  0
  135.4170   72.7440  222.6150 C   0  0  0  0  0  0  0  0  0  0  0  0
  134.5170   71.8710  222.8320 O   0  0  0  0  0  0  0  0  0  0  0  0
  135.1370   74.0560  223.0640 N   0  0  0  0  0  0  0  0  0  0  0  0
  134.3930   75.0270  222.2840 C   0  0  0  0  0  0  0  0  0  0  0  0
  134.9210   76.3930  222.6400 C   0  0  2  0  0  0  0  0  0  0  0  0
  135.6330   76.9390  221.5570 O   0  0  0  0  0  0  0  0  0  0  0  0
  135.8100   76.1340  223.8100 C   0  0  0  0  0  0  0  0  0  0  0  0
  135.4770   74.7360  224.2920 C   0  0  1  0  0  0  0  0  0  0  0  0
  134.3290   74.7310  225.2570 C   0  0  0  0  0  0  0  0  0  0  0  0
  134.0110   73.3840  225.7790 C   0  0  0  0  0  0  0  0  0  0  0  0
  132.9680   73.3240  226.8370 C   0  0  0  0  0  0  0  0  0  0  0  0
  132.7950   74.4370  227.5950 O   0  0  0  0  0  0  0  0  0  0  0  0
  133.0660   75.6470  227.0480 C   0  0  0  0  0  0  0  0  0  0  0  0
  134.4600   75.6760  226.4070 C   0  0  0  0  0  0  0  0  0  0  0  0
  138.7960   75.5330  221.7490 C   0  0  0  0  0  0  0  0  0  0  0  0
  140.1490   75.2930  221.6220 C   0  0  0  0  0  0  0  0  0  0  0  0
  141.0860   76.2660  221.9830 C   0  0  0  0  0  0  0  0  0  0  0  0
  140.6740   77.4900  222.4730 C   0  0  0  0  0  0  0  0  0  0  0  0
  141.5580   78.4860  222.8450 C   0  0  0  0  0  0  0  0  0  0  0  0
  141.1050   79.6950  223.3310 C   0  0  0  0  0  0  0  0  0  0  0  0
  142.1970   80.9790  223.8110 Cl  0  0  0  0  0  0  0  0  0  0  0  0
  139.7420   79.8970  223.4420 C   0  0  0  0  0  0  0  0  0  0  0  0
  138.8550   78.9110  223.0750 C   0  0  0  0  0  0  0  0  0  0  0  0
  139.3120   77.6840  222.5820 C   0  0  0  0  0  0  0  0  0  0  0  0
  138.4460   76.7440  222.2320 N   0  0  0  0  0  0  0  0  0  0  0  0
  138.2570   73.3140  223.0640 H   0  0  0  0  0  0  0  0  0  0  0  0
  136.4875   72.2533  220.8429 H   0  0  0  0  0  0  0  0  0  0  0  0
  137.0146   71.3570  222.2752 H   0  0  0  0  0  0  0  0  0  0  0  0
  134.5374   74.8365  221.2103 H   0  0  0  0  0  0  0  0  0  0  0  0
  133.3172   74.9579  222.5028 H   0  0  0  0  0  0  0  0  0  0  0  0
  134.1300   77.1208  222.8737 H   0  0  0  0  0  0  0  0  0  0  0  0
  136.4620   76.4040  221.4760 H   0  0  0  0  0  0  0  0  0  0  0  0
  136.8659   76.1916  223.5069 H   0  0  0  0  0  0  0  0  0  0  0  0
  135.6554   76.8795  224.6040 H   0  0  0  0  0  0  0  0  0  0  0  0
  136.3014   74.2631  224.8458 H   0  0  0  0  0  0  0  0  0  0  0  0
  133.4972   75.0892  224.6326 H   0  0  0  0  0  0  0  0  0  0  0  0
  133.6692   72.7679  224.9343 H   0  0  0  0  0  0  0  0  0  0  0  0
  134.9358   73.0242  226.2538 H   0  0  0  0  0  0  0  0  0  0  0  0
  132.0087   73.1048  226.3454 H   0  0  0  0  0  0  0  0  0  0  0  0
  133.3164   72.5516  227.5385 H   0  0  0  0  0  0  0  0  0  0  0  0
  132.3134   75.8670  226.2765 H   0  0  0  0  0  0  0  0  0  0  0  0
  133.0389   76.4010  227.8484 H   0  0  0  0  0  0  0  0  0  0  0  0
  134.7125   76.6883  226.0584 H   0  0  0  0  0  0  0  0  0  0  0  0
  135.2613   75.3949  227.1062 H   0  0  0  0  0  0  0  0  0  0  0  0
  140.4946   74.3243  221.2319 H   0  0  0  0  0  0  0  0  0  0  0  0
  142.1602   76.0550  221.8759 H   0  0  0  0  0  0  0  0  0  0  0  0
  142.6401   78.3115  222.7519 H   0  0  0  0  0  0  0  0  0  0  0  0
  139.3628   80.8550  223.8274 H   0  0  0  0  0  0  0  0  0  0  0  0
  137.7738   79.0897  223.1704 H   0  0  0  0  0  0  0  0  0  0  0  0
  1  2  2  0
  2  3  1  0
  3  4  1  0
  4  5  1  0
  5  6  2  0
  5  7  1  0
  7  8  1  0
  8  9  1  0
  9 10  1  0
  9 11  1  0
 11 12  1  0
 12 13  1  0
 13 14  1  0
 14 15  1  0
 15 16  1  0
 16 17  1  0
 17 18  1  0
  2 19  1  0
 19 20  2  0
 20 21  1  0
 21 22  2  0
 22 23  1  0
 23 24  2  0
 24 25  1  0
 24 26  1  0
 26 27  2  0
 27 28  1  0
 28 29  2  0
 12  7  1  0
 18 13  1  0
 29 19  1  0
 28 22  1  0
  3 30  1  0
  4 31  1  0
  4 32  1  0
  8 33  1  0
  8 34  1  0
  9 35  1  1
 10 36  1  0
 11 37  1  0
 11 38  1  0
 12 39  1  1
 13 40  1  0
 14 41  1  0
 14 42  1  0
 15 43  1  0
 15 44  1  0
 17 45  1  0
 17 46  1  0
 18 47  1  0
 18 48  1  0
 20 49  1  0
 21 50  1  0
 23 51  1  0
 26 52  1  0
 27 53  1  0
M  END
>  <smiles>  (47) 
O=C(NCC(=O)N1C[C@H](O)C[C@H]1C1CCOCC1)c1ccc2cc(Cl)ccc2n1

>  <score_type>  (47) 
oracle

>  <origin>  (47) 
autodockgpu

>  <m_score__min__energy>  (47) 
-8.0399999999999991

>  <m_primary>  (47) 
energy

>  <rmsd>  (47) 
8.073766273637505

>  <m_score__min__rmsd>  (47) 
8.073766273637505

>  <meeko>  (47) 
{"free_energy": -6.27, "intermolecular_energy": -8.06, "internal_energy": -3.24, "cluster_size": 9, "cluster_id": 4, "rank_in_cluster": 7}

>  <energy>  (47) 
-6.28

>  <cluster_rmsd>  (47) 
0.45

>  <cluster>  (47) 
4

$$$$

     RDKit          3D

 53 56  0  0  0  0  0  0  0  0999 V2000
  139.2060   72.0590  220.6750 O   0  0  0  0  0  0  0  0  0  0  0  0
  139.3710   72.4970  221.8350 C   0  0  0  0  0  0  0  0  0  0  0  0
  139.4330   73.8720  222.1420 N   0  0  0  0  0  0  0  0  0  0  0  0
  139.3080   74.9170  221.1150 C   0  0  0  0  0  0  0  0  0  0  0  0
  140.3730   75.8990  221.4090 C   0  0  0  0  0  0  0  0  0  0  0  0
  141.2100   75.6460  222.3330 O   0  0  0  0  0  0  0  0  0  0  0  0
  140.5440   77.1280  220.7300 N   0  0  0  0  0  0  0  0  0  0  0  0
  139.5190   77.7300  219.8980 C   0  0  0  0  0  0  0  0  0  0  0  0
  140.2180   78.4990  218.8050 C   0  0  2  0  0  0  0  0  0  0  0  0
  140.0270   77.8650  217.5640 O   0  0  0  0  0  0  0  0  0  0  0  0
  141.6510   78.4790  219.2210 C   0  0  0  0  0  0  0  0  0  0  0  0
  141.6640   78.0380  220.6710 C   0  0  1  0  0  0  0  0  0  0  0  0
  141.4840   79.1910  221.6120 C   0  0  0  0  0  0  0  0  0  0  0  0
  142.1770   79.0020  222.9060 C   0  0  0  0  0  0  0  0  0  0  0  0
  142.1470   80.1620  223.8370 C   0  0  0  0  0  0  0  0  0  0  0  0
  142.0020   81.3920  223.2830 O   0  0  0  0  0  0  0  0  0  0  0  0
  141.3230   81.5070  222.1160 C   0  0  0  0  0  0  0  0  0  0  0  0
  141.8520   80.5290  221.0580 C   0  0  0  0  0  0  0  0  0  0  0  0
  139.5060   71.5330  222.9370 C   0  0  0  0  0  0  0  0  0  0  0  0
  139.0480   70.2360  222.8370 C   0  0  0  0  0  0  0  0  0  0  0  0
  139.1900   69.3410  223.9010 C   0  0  0  0  0  0  0  0  0  0  0  0
  139.7960   69.7400  225.0770 C   0  0  0  0  0  0  0  0  0  0  0  0
  139.9610   68.8960  226.1610 C   0  0  0  0  0  0  0  0  0  0  0  0
  140.5720   69.3350  227.3180 C   0  0  0  0  0  0  0  0  0  0  0  0
  140.7970   68.2920  228.7080 Cl  0  0  0  0  0  0  0  0  0  0  0  0
  141.0180   70.6410  227.3780 C   0  0  0  0  0  0  0  0  0  0  0  0
  140.8570   71.4880  226.3050 C   0  0  0  0  0  0  0  0  0  0  0  0
  140.2380   71.0460  225.1310 C   0  0  0  0  0  0  0  0  0  0  0  0
  140.0900   71.8720  224.1060 N   0  0  0  0  0  0  0  0  0  0  0  0
  139.5750   74.1590  223.1540 H   0  0  0  0  0  0  0  0  0  0  0  0
  139.4490   74.4875  220.1122 H   0  0  0  0  0  0  0  0  0  0  0  0
  138.3117   75.3830  221.1303 H   0  0  0  0  0  0  0  0  0  0  0  0
  138.8834   76.9469  219.4591 H   0  0  0  0  0  0  0  0  0  0  0  0
  138.8785   78.3974  220.4933 H   0  0  0  0  0  0  0  0  0  0  0  0
  139.8383   79.5235  218.6775 H   0  0  0  0  0  0  0  0  0  0  0  0
  140.2440   76.9090  217.7080 H   0  0  0  0  0  0  0  0  0  0  0  0
  142.2181   77.7688  218.6013 H   0  0  0  0  0  0  0  0  0  0  0  0
  142.1179   79.4674  219.0983 H   0  0  0  0  0  0  0  0  0  0  0  0
  142.6186   77.5840  220.9752 H   0  0  0  0  0  0  0  0  0  0  0  0
  140.3960   79.1928  221.7739 H   0  0  0  0  0  0  0  0  0  0  0  0
  141.7086   78.1480  223.4171 H   0  0  0  0  0  0  0  0  0  0  0  0
  143.2372   78.8500  222.6554 H   0  0  0  0  0  0  0  0  0  0  0  0
  141.3071   80.0093  224.5308 H   0  0  0  0  0  0  0  0  0  0  0  0
  143.1407   80.1761  224.3085 H   0  0  0  0  0  0  0  0  0  0  0  0
  140.2594   81.2945  222.2990 H   0  0  0  0  0  0  0  0  0  0  0  0
  141.4586   82.5309  221.7376 H   0  0  0  0  0  0  0  0  0  0  0  0
  141.3667   80.6999  220.0857 H   0  0  0  0  0  0  0  0  0  0  0  0
  142.9311   80.6366  220.8738 H   0  0  0  0  0  0  0  0  0  0  0  0
  138.5645   69.9014  221.9074 H   0  0  0  0  0  0  0  0  0  0  0  0
  138.8165   68.3111  223.8015 H   0  0  0  0  0  0  0  0  0  0  0  0
  139.5995   67.8589  226.0996 H   0  0  0  0  0  0  0  0  0  0  0  0
  141.5068   71.0079  228.2926 H   0  0  0  0  0  0  0  0  0  0  0  0
  141.2193   72.5245  226.3715 H   0  0  0  0  0  0  0  0  0  0  0  0
  1  2  2  0
  2  3  1  0
  3  4  1  0
  4  5  1  0
  5  6  2  0
  5  7  1  0
  7  8  1  0
  8  9  1  0
  9 10  1  0
  9 11  1  0
 11 12  1  0
 12 13  1  0
 13 14  1  0
 14 15  1  0
 15 16  1  0
 16 17  1  0
 17 18  1  0
  2 19  1  0
 19 20  2  0
 20 21  1  0
 21 22  2  0
 22 23  1  0
 23 24  2  0
 24 25  1  0
 24 26  1  0
 26 27  2  0
 27 28  1  0
 28 29  2  0
 12  7  1  0
 18 13  1  0
 29 19  1  0
 28 22  1  0
  3 30  1  0
  4 31  1  0
  4 32  1  0
  8 33  1  0
  8 34  1  0
  9 35  1  6
 10 36  1  0
 11 37  1  0
 11 38  1  0
 12 39  1  1
 13 40  1  0
 14 41  1  0
 14 42  1  0
 15 43  1  0
 15 44  1  0
 17 45  1  0
 17 46  1  0
 18 47  1  0
 18 48  1  0
 20 49  1  0
 21 50  1  0
 23 51  1  0
 26 52  1  0
 27 53  1  0
M  END
>  <smiles>  (48) 
O=C(NCC(=O)N1C[C@H](O)C[C@H]1C1CCOCC1)c1ccc2cc(Cl)ccc2n1

>  <score_type>  (48) 
oracle

>  <origin>  (48) 
autodockgpu

>  <m_score__min__energy>  (48) 
-8.0399999999999991

>  <m_primary>  (48) 
energy

>  <rmsd>  (48) 
3.1650294386987063

>  <m_score__min__rmsd>  (48) 
3.1650294386987063

>  <meeko>  (48) 
{"free_energy": -7.91, "intermolecular_energy": -9.7, "internal_energy": -1.79, "cluster_size": 33, "cluster_id": 1, "rank_in_cluster": 9}

>  <energy>  (48) 
-6.27

>  <cluster_rmsd>  (48) 
0.21

>  <cluster>  (48) 
4

$$$$

     RDKit          3D

 53 56  0  0  0  0  0  0  0  0999 V2000
  138.6600   72.0070  220.8290 O   0  0  0  0  0  0  0  0  0  0  0  0
  139.1140   72.4170  221.9200 C   0  0  0  0  0  0  0  0  0  0  0  0
  139.4250   73.7700  222.1710 N   0  0  0  0  0  0  0  0  0  0  0  0
  139.2400   74.8220  221.1620 C   0  0  0  0  0  0  0  0  0  0  0  0
  140.2260   75.8730  221.4910 C   0  0  0  0  0  0  0  0  0  0  0  0
  141.1390   75.6200  222.3390 O   0  0  0  0  0  0  0  0  0  0  0  0
  140.2390   77.1700  220.9260 N   0  0  0  0  0  0  0  0  0  0  0  0
  139.0490   77.9840  220.7660 C   0  0  0  0  0  0  0  0  0  0  0  0
  139.2480   78.8420  219.5430 C   0  0  2  0  0  0  0  0  0  0  0  0
  138.3890   78.4240  218.5100 O   0  0  0  0  0  0  0  0  0  0  0  0
  140.6810   78.6260  219.1900 C   0  0  0  0  0  0  0  0  0  0  0  0
  141.3200   77.9700  220.3990 C   0  0  1  0  0  0  0  0  0  0  0  0
  141.7950   78.9790  221.4010 C   0  0  0  0  0  0  0  0  0  0  0  0
  141.4620   80.3720  221.0300 C   0  0  0  0  0  0  0  0  0  0  0  0
  141.7900   81.4120  222.0410 C   0  0  0  0  0  0  0  0  0  0  0  0
  141.8390   81.0160  223.3380 O   0  0  0  0  0  0  0  0  0  0  0  0
  142.1900   79.7370  223.6170 C   0  0  0  0  0  0  0  0  0  0  0  0
  141.3550   78.7350  222.8080 C   0  0  0  0  0  0  0  0  0  0  0  0
  139.3360   71.4430  222.9980 C   0  0  0  0  0  0  0  0  0  0  0  0
  138.9360   70.1270  222.8910 C   0  0  0  0  0  0  0  0  0  0  0  0
  139.1600   69.2220  223.9330 C   0  0  0  0  0  0  0  0  0  0  0  0
  139.7900   69.6300  225.0930 C   0  0  0  0  0  0  0  0  0  0  0  0
  140.0350   68.7770  226.1540 C   0  0  0  0  0  0  0  0  0  0  0  0
  140.6670   69.2250  227.2960 C   0  0  0  0  0  0  0  0  0  0  0  0
  140.9930   68.1720  228.6580 Cl  0  0  0  0  0  0  0  0  0  0  0  0
  141.0530   70.5500  227.3650 C   0  0  0  0  0  0  0  0  0  0  0  0
  140.8120   71.4060  226.3140 C   0  0  0  0  0  0  0  0  0  0  0  0
  140.1720   70.9550  225.1550 C   0  0  0  0  0  0  0  0  0  0  0  0
  139.9470   71.7900  224.1510 N   0  0  0  0  0  0  0  0  0  0  0  0
  139.8060   74.0330  223.1260 H   0  0  0  0  0  0  0  0  0  0  0  0
  139.4271   74.4232  220.1540 H   0  0  0  0  0  0  0  0  0  0  0  0
  138.2123   75.2142  221.1695 H   0  0  0  0  0  0  0  0  0  0  0  0
  138.1679   77.3390  220.6330 H   0  0  0  0  0  0  0  0  0  0  0  0
  138.8852   78.6097  221.6557 H   0  0  0  0  0  0  0  0  0  0  0  0
  139.0187   79.9047  219.7105 H   0  0  0  0  0  0  0  0  0  0  0  0
  138.0020   77.5620  218.8060 H   0  0  0  0  0  0  0  0  0  0  0  0
  140.7625   77.9687  218.3118 H   0  0  0  0  0  0  0  0  0  0  0  0
  141.1791   79.5738  218.9380 H   0  0  0  0  0  0  0  0  0  0  0  0
  142.2197   77.3881  220.1500 H   0  0  0  0  0  0  0  0  0  0  0  0
  142.8860   78.8417  221.3716 H   0  0  0  0  0  0  0  0  0  0  0  0
  142.0099   80.6147  220.1075 H   0  0  0  0  0  0  0  0  0  0  0  0
  140.3675   80.3969  220.9233 H   0  0  0  0  0  0  0  0  0  0  0  0
  142.7757   81.8265  221.7830 H   0  0  0  0  0  0  0  0  0  0  0  0
  140.9582   82.1301  221.9926 H   0  0  0  0  0  0  0  0  0  0  0  0
  143.2531   79.5965  223.3718 H   0  0  0  0  0  0  0  0  0  0  0  0
  142.0072   79.5545  224.6862 H   0  0  0  0  0  0  0  0  0  0  0  0
  141.5727   77.7015  223.1155 H   0  0  0  0  0  0  0  0  0  0  0  0
  140.2717   78.8640  222.9491 H   0  0  0  0  0  0  0  0  0  0  0  0
  138.4342   69.7852  221.9738 H   0  0  0  0  0  0  0  0  0  0  0  0
  138.8322   68.1772  223.8284 H   0  0  0  0  0  0  0  0  0  0  0  0
  139.7211   67.7249  226.0864 H   0  0  0  0  0  0  0  0  0  0  0  0
  141.5575   70.9243  228.2680 H   0  0  0  0  0  0  0  0  0  0  0  0
  141.1266   72.4575  226.3867 H   0  0  0  0  0  0  0  0  0  0  0  0
  1  2  2  0
  2  3  1  0
  3  4  1  0
  4  5  1  0
  5  6  2  0
  5  7  1  0
  7  8  1  0
  8  9  1  0
  9 10  1  0
  9 11  1  0
 11 12  1  0
 12 13  1  0
 13 14  1  0
 14 15  1  0
 15 16  1  0
 16 17  1  0
 17 18  1  0
  2 19  1  0
 19 20  2  0
 20 21  1  0
 21 22  2  0
 22 23  1  0
 23 24  2  0
 24 25  1  0
 24 26  1  0
 26 27  2  0
 27 28  1  0
 28 29  2  0
 12  7  1  0
 18 13  1  0
 29 19  1  0
 28 22  1  0
  3 30  1  0
  4 31  1  0
  4 32  1  0
  8 33  1  0
  8 34  1  0
  9 35  1  1
 10 36  1  0
 11 37  1  0
 11 38  1  0
 12 39  1  6
 13 40  1  0
 14 41  1  0
 14 42  1  0
 15 43  1  0
 15 44  1  0
 17 45  1  0
 17 46  1  0
 18 47  1  0
 18 48  1  0
 20 49  1  0
 21 50  1  0
 23 51  1  0
 26 52  1  0
 27 53  1  0
M  END
>  <smiles>  (49) 
O=C(NCC(=O)N1C[C@H](O)C[C@H]1C1CCOCC1)c1ccc2cc(Cl)ccc2n1

>  <score_type>  (49) 
oracle

>  <origin>  (49) 
autodockgpu

>  <m_score__min__energy>  (49) 
-8.0399999999999991

>  <m_primary>  (49) 
energy

>  <rmsd>  (49) 
3.080928864155299

>  <m_score__min__rmsd>  (49) 
3.080928864155299

>  <meeko>  (49) 
{"free_energy": -7.55, "intermolecular_energy": -9.34, "internal_energy": -1.89, "cluster_size": 33, "cluster_id": 1, "rank_in_cluster": 26}

>  <energy>  (49) 
-6.25

>  <cluster_rmsd>  (49) 
0.37

>  <cluster>  (49) 
4

$$$$

     RDKit          3D

 53 56  0  0  0  0  0  0  0  0999 V2000
  137.0130   74.8910  220.4910 O   0  0  0  0  0  0  0  0  0  0  0  0
  137.7890   74.6680  221.4460 C   0  0  0  0  0  0  0  0  0  0  0  0
  137.7530   73.4850  222.2130 N   0  0  0  0  0  0  0  0  0  0  0  0
  136.7910   72.4050  221.9540 C   0  0  0  0  0  0  0  0  0  0  0  0
  135.6160   72.7000  222.8010 C   0  0  0  0  0  0  0  0  0  0  0  0
  134.9150   71.7350  223.2430 O   0  0  0  0  0  0  0  0  0  0  0  0
  135.1960   73.9990  223.1700 N   0  0  0  0  0  0  0  0  0  0  0  0
  134.3880   74.8510  222.3170 C   0  0  0  0  0  0  0  0  0  0  0  0
  134.7680   76.2790  222.6140 C   0  0  2  0  0  0  0  0  0  0  0  0
  135.4600   76.8360  221.5230 O   0  0  0  0  0  0  0  0  0  0  0  0
  135.6390   76.1690  223.8210 C   0  0  0  0  0  0  0  0  0  0  0  0
  135.4270   74.7720  224.3690 C   0  0  1  0  0  0  0  0  0  0  0  0
  134.2540   74.7030  225.3000 C   0  0  0  0  0  0  0  0  0  0  0  0
  133.9750   73.3350  225.7880 C   0  0  0  0  0  0  0  0  0  0  0  0
  132.9060   73.2140  226.8140 C   0  0  0  0  0  0  0  0  0  0  0  0
  132.6670   74.3050  227.5860 O   0  0  0  0  0  0  0  0  0  0  0  0
  132.9040   75.5350  227.0690 C   0  0  0  0  0  0  0  0  0  0  0  0
  134.3140   75.6310  226.4690 C   0  0  0  0  0  0  0  0  0  0  0  0
  138.7920   75.6870  221.7890 C   0  0  0  0  0  0  0  0  0  0  0  0
  140.1430   75.4800  221.5990 C   0  0  0  0  0  0  0  0  0  0  0  0
  141.0740   76.4670  221.9340 C   0  0  0  0  0  0  0  0  0  0  0  0
  140.6580   77.6740  222.4630 C   0  0  0  0  0  0  0  0  0  0  0  0
  141.5360   78.6830  222.8120 C   0  0  0  0  0  0  0  0  0  0  0  0
  141.0790   79.8740  223.3370 C   0  0  0  0  0  0  0  0  0  0  0  0
  142.1640   81.1740  223.7910 Cl  0  0  0  0  0  0  0  0  0  0  0  0
  139.7190   80.0440  223.5120 C   0  0  0  0  0  0  0  0  0  0  0  0
  138.8380   79.0440  223.1670 C   0  0  0  0  0  0  0  0  0  0  0  0
  139.2980   77.8360  222.6350 C   0  0  0  0  0  0  0  0  0  0  0  0
  138.4380   76.8830  222.3070 N   0  0  0  0  0  0  0  0  0  0  0  0
  138.4490   73.3760  223.0080 H   0  0  0  0  0  0  0  0  0  0  0  0
  136.5045   72.3939  220.8920 H   0  0  0  0  0  0  0  0  0  0  0  0
  137.2187   71.4182  222.1847 H   0  0  0  0  0  0  0  0  0  0  0  0
  134.5870   74.6213  221.2598 H   0  0  0  0  0  0  0  0  0  0  0  0
  133.3172   74.6870  222.5077 H   0  0  0  0  0  0  0  0  0  0  0  0
  133.9028   76.9361  222.7861 H   0  0  0  0  0  0  0  0  0  0  0  0
  136.4150   76.6130  221.6600 H   0  0  0  0  0  0  0  0  0  0  0  0
  136.6938   76.3143  223.5447 H   0  0  0  0  0  0  0  0  0  0  0  0
  135.3870   76.9355  224.5686 H   0  0  0  0  0  0  0  0  0  0  0  0
  136.2743   74.4121  224.9711 H   0  0  0  0  0  0  0  0  0  0  0  0
  133.4263   75.0394  224.6583 H   0  0  0  0  0  0  0  0  0  0  0  0
  133.6818   72.7224  224.9227 H   0  0  0  0  0  0  0  0  0  0  0  0
  134.8995   73.0025  226.2826 H   0  0  0  0  0  0  0  0  0  0  0  0
  131.9706   72.9660  226.2911 H   0  0  0  0  0  0  0  0  0  0  0  0
  133.2653   72.4432  227.5117 H   0  0  0  0  0  0  0  0  0  0  0  0
  132.1652   75.7396  226.2802 H   0  0  0  0  0  0  0  0  0  0  0  0
  132.8237   76.2722  227.8814 H   0  0  0  0  0  0  0  0  0  0  0  0
  134.5353   76.6587  226.1453 H   0  0  0  0  0  0  0  0  0  0  0  0
  135.1058   75.3691  227.1863 H   0  0  0  0  0  0  0  0  0  0  0  0
  140.4918   74.5254  221.1782 H   0  0  0  0  0  0  0  0  0  0  0  0
  142.1466   76.2816  221.7753 H   0  0  0  0  0  0  0  0  0  0  0  0
  142.6164   78.5338  222.6688 H   0  0  0  0  0  0  0  0  0  0  0  0
  139.3369   80.9867  223.9307 H   0  0  0  0  0  0  0  0  0  0  0  0
  137.7584   79.1975  223.3118 H   0  0  0  0  0  0  0  0  0  0  0  0
  1  2  2  0
  2  3  1  0
  3  4  1  0
  4  5  1  0
  5  6  2  0
  5  7  1  0
  7  8  1  0
  8  9  1  0
  9 10  1  0
  9 11  1  0
 11 12  1  0
 12 13  1  0
 13 14  1  0
 14 15  1  0
 15 16  1  0
 16 17  1  0
 17 18  1  0
  2 19  1  0
 19 20  2  0
 20 21  1  0
 21 22  2  0
 22 23  1  0
 23 24  2  0
 24 25  1  0
 24 26  1  0
 26 27  2  0
 27 28  1  0
 28 29  2  0
 12  7  1  0
 18 13  1  0
 29 19  1  0
 28 22  1  0
  3 30  1  0
  4 31  1  0
  4 32  1  0
  8 33  1  0
  8 34  1  0
  9 35  1  1
 10 36  1  0
 11 37  1  0
 11 38  1  0
 12 39  1  1
 13 40  1  0
 14 41  1  0
 14 42  1  0
 15 43  1  0
 15 44  1  0
 17 45  1  0
 17 46  1  0
 18 47  1  0
 18 48  1  0
 20 49  1  0
 21 50  1  0
 23 51  1  0
 26 52  1  0
 27 53  1  0
M  END
>  <smiles>  (50) 
O=C(NCC(=O)N1C[C@H](O)C[C@H]1C1CCOCC1)c1ccc2cc(Cl)ccc2n1

>  <score_type>  (50) 
oracle

>  <origin>  (50) 
autodockgpu

>  <m_score__min__energy>  (50) 
-8.0399999999999991

>  <m_primary>  (50) 
energy

>  <rmsd>  (50) 
8.153812114663866

>  <m_score__min__rmsd>  (50) 
8.153812114663866

>  <meeko>  (50) 
{"free_energy": -6.36, "intermolecular_energy": -8.15, "internal_energy": -3.17, "cluster_size": 9, "cluster_id": 4, "rank_in_cluster": 1}

>  <energy>  (50) 
-5.9

>  <cluster_rmsd>  (50) 
0.55

>  <cluster>  (50) 
4

$$$$
